data_PCOD8317269
_publ_section_title
;
Structure prediction by ZEFSAII (Michael W. Deem and Ramdas Pophale) SiO2 
 PCOD8317269
Probable space group: P 42/N N M
;
_chemical_formula_sum "Si O2"
_cell_formula_units_Z 64
_cell_length_a 24.889445
_cell_length_b 24.889445
_cell_length_c 4.969716
_cell_angle_alpha 90.000000
_cell_angle_beta 90.000000
_cell_angle_gamma 90.000000
_cell_volume 3078.661894
_symmetry_space_group_name_H-M "P 42/N N M"
_symmetry_group_IT_number 134
_space_group.IT_coordinate_system_code '2'
_symmetry_cell_setting 'tetragonal'
loop_
_space_group_symop_operation_xyz
x,y,z
1/2-y,x,1/2+z
1/2-x,1/2-y,z
y,1/2-x,1/2+z
x,1/2-y,1/2-z
1/2-x,y,1/2-z
y,x,-z
1/2-y,1/2-x,-z
-x,-y,-z
1/2+y,-x,1/2-z
1/2+x,1/2+y,-z
-y,1/2+x,1/2-z
-x,1/2+y,1/2+z
1/2+x,-y,1/2+z
-y,-x,z
1/2+y,1/2+x,z
loop_
_atom_site_type_symbol
_atom_site_label
_atom_site_fract_x
_atom_site_fract_y
_atom_site_fract_z
Si Si1 0.189925 0.601828 0.222119
Si Si2 0.213926 0.368287 0.502900
Si Si3 0.932004 0.883479 0.774546
Si Si4 0.969386 0.310957 0.276776
O O1 0.250000 0.625163 0.250000
O O2 0.149252 0.649252 0.289110
O O3 0.180629 0.551508 0.421008
O O4 0.181791 0.580991 0.920136
O O5 0.250000 0.379751 0.750000
O O6 0.193631 0.306370 0.500000
O O7 0.162960 0.406202 0.537957
O O8 0.250000 0.383754 0.250000
O O9 0.900073 0.900073 0.500000
O O10 0.989809 0.859336 0.699391
O O11 0.932239 0.932239 0.000000
O O12 0.994018 0.250000 0.250000
#
# Coordination Sequence:
#
# PCOD8317269 Si02
#       4
#    16  16  16  16
#     4  10  21  38  62  93 124 156 191 229 283 348
#     4  11  22  34  48  69  98 135 179 231 292 353
#     4  11  22  37  57  81 110 146 195 253 301 342
#     4  10  21  37  61  87 116 157 199 243 293 349
#
# _framework density 20.788252
#
# number of rings (size 3 to 8) (size 9 to 14) (size 15 to 20)
#    0.000    1.500    0.000    6.750    0.000    4.750 
#    0.000    0.000    0.000   19.500    0.000    0.000 
#    0.000    0.000    0.000    0.000    0.000    0.000 
#
# Total GULP energy -792933.830321 kJ/mol
# GULP energy per Si atom -12389.591099 kJ/mol
# Density = 2.074094 g / cm^3
# Si number density = 20.788252 Si / 1000 Ang^3
#
#
#
# Elastic Constant Matrix: (Units=GPa)
#
#
# Indices 1 2 3 4 5 6 
#
# 1 81.0245 50.8472 20.9682 0.0000 0.0000 0.0000
# 2 50.8472 81.0257 20.9678 0.0000 0.0000 0.0000
# 3 20.9682 20.9678 122.6342 0.0000 0.0000 0.0000
# 4 0.0000 0.0000 0.0000 21.6075 0.0000 0.0000
# 5 0.0000 0.0000 0.0000 0.0000 21.6071 0.0000
# 6 0.0000 0.0000 0.0000 0.0000 0.0000 35.6192
#
#
#
# Elastic Compliance Matrix: (Units=1/GPa)
#
#
# Indices 1 2 3 4 5 6 
#
# 1 0.020578 -0.012559 -0.001371 0.000000 0.000000 0.000000
# 2 -0.012559 0.020578 -0.001371 0.000000 0.000000 0.000000
# 3 -0.001371 -0.001371 0.008623 0.000000 0.000000 0.000000
# 4 0.000000 0.000000 0.000000 0.046280 0.000000 0.000000
# 5 0.000000 0.000000 0.000000 0.000000 0.046281 0.000000
# 6 0.000000 0.000000 0.000000 0.000000 0.000000 0.028075
#
#
# Mechanical properties :
#
#
# Convention : Reuss Voigt Hill
#
# Bulk Modulus (GPa) = 52.14583 52.25009 52.19796
# Shear Modulus (GPa) = 24.10687 28.56016 26.33352
#
# Velocity S-wave (km/s) = 3.40904 3.71058 3.56300
# Velocity P-wave (km/s) = 6.37449 6.59901 6.48772
#
# Compressibility (1/GPa) = 0.01917699
#
# Stress axis : x y z
#
# Youngs Moduli (GPa) = 48.59522 48.59604 115.96624
#
# Poissons Ratio (x) = 0.61031 0.15901
# Poissons Ratio (y) = 0.61030 0.15899
# Poissons Ratio (z) = 0.06663 0.06663
#
# Static dielectric constant tensor:
#      x y z
#    x 3.864180 0.000000 0.000000 
#    y 0.000000 3.864330 0.000000 
#    z 0.000000 0.000000 3.983510 
# 
# 
# High freq. dielectric constant tensor:
#      x y z
#    x 1.794560 0.000000 0.000000 
#    y 0.000000 1.794560 0.000000 
#    z 0.000000 0.000000 1.837370 
# 
# From -- ./inp_files/920.got.cif
#   From: 2010.03.12/outbox.cif.g09.slc.cpg/sg134_1_cif.got.tgz:920.got - 2010.04.06 18:17:22.
