data_PCOD8317975
_publ_section_title
;
Structure prediction by ZEFSAII (Michael W. Deem and Ramdas Pophale) SiO2 
 PCOD8317975
Probable space group: P 42/M N M
;
_chemical_formula_sum "Si O2"
_cell_formula_units_Z 80
_cell_length_a 11.718859
_cell_length_b 11.718859
_cell_length_c 28.904621
_cell_angle_alpha 90.000000
_cell_angle_beta 90.000000
_cell_angle_gamma 90.000000
_cell_volume 3969.519476
_symmetry_space_group_name_H-M "P 42/M N M"
_symmetry_group_IT_number 136
_symmetry_cell_setting 'tetragonal'
loop_
_space_group_symop_operation_xyz
x,y,z
1/2-y,1/2+x,1/2+z
-x,-y,z
1/2+y,1/2-x,1/2+z
1/2+x,1/2-y,1/2-z
1/2-x,1/2+y,1/2-z
y,x,-z
-y,-x,-z
-x,-y,-z
1/2+y,1/2-x,1/2-z
x,y,-z
1/2-y,1/2+x,1/2-z
1/2-x,1/2+y,1/2+z
1/2+x,1/2-y,1/2+z
-y,-x,z
y,x,z
loop_
_atom_site_type_symbol
_atom_site_label
_atom_site_fract_x
_atom_site_fract_y
_atom_site_fract_z
Si Si1 0.696730 0.877708 0.292954
Si Si2 0.958431 0.370047 0.551673
Si Si3 0.952473 0.685014 0.812185
Si Si4 0.191317 0.191317 0.949607
Si Si5 0.441574 0.251242 0.139142
Si Si6 0.409381 0.590620 0.359100
O O1 0.752864 0.752864 0.294127
O O2 0.573153 0.879080 0.317464
O O3 0.681237 0.915124 0.240650
O O4 0.777136 0.965579 0.321140
O O5 0.002223 0.337108 0.500000
O O6 0.823798 0.343356 0.554996
O O7 0.007158 0.284541 0.591344
O O8 0.000000 0.500000 0.562095
O O9 0.857020 0.632563 0.845123
O O10 0.969267 0.813667 0.828108
O O11 0.128772 0.128772 0.909165
O O12 0.148880 0.148880 0.000000
O O13 0.361771 0.361771 0.132162
O O14 0.500000 0.500000 0.372773
#
# Coordination Sequence:
#
# PCOD8317975 Si02
#       6
#    16  16  16   8  16   8
#     4  12  26  40  60  89 123 162 207 254 309 366
#     4  10  19  35  63  93 120 155 203 260 312 369
#     4  12  22  41  60  88 118 161 207 249 303 366
#     4  10  20  37  60  92 126 155 200 257 317 382
#     4  12  23  40  65  90 123 161 205 256 307 369
#     4  12  24  39  60  86 128 164 199 250 309 378
#
# _framework density 20.153572
#
# number of rings (size 3 to 8) (size 9 to 14) (size 15 to 20)
#    0.000    0.600    7.000    2.400    0.000    1.400 
#    0.000    0.000    0.000    0.600    0.000    1.400 
#    0.000    0.000    0.000    0.000    0.000    0.000 
#
# Total GULP energy -991368.191135 kJ/mol
# GULP energy per Si atom -12392.102389 kJ/mol
# Density = 2.010770 g / cm^3
# Si number density = 20.153572 Si / 1000 Ang^3
#
#
#
# Elastic Constant Matrix: (Units=GPa)
#
#
# Indices 1 2 3 4 5 6 
#
# 1 70.9798 22.6757 15.2280 0.0000 0.0000 0.0000
# 2 22.6757 70.9798 15.2280 0.0000 0.0000 0.0000
# 3 15.2280 15.2280 99.4310 0.0000 0.0000 0.0000
# 4 0.0000 0.0000 0.0000 17.0557 0.0000 0.0000
# 5 0.0000 0.0000 0.0000 0.0000 17.0557 0.0000
# 6 0.0000 0.0000 0.0000 0.0000 0.0000 43.5102
#
#
#
# Elastic Compliance Matrix: (Units=1/GPa)
#
#
# Indices 1 2 3 4 5 6 
#
# 1 0.015970 -0.004733 -0.001721 0.000000 0.000000 0.000000
# 2 -0.004733 0.015970 -0.001721 0.000000 0.000000 0.000000
# 3 -0.001721 -0.001721 0.010584 0.000000 0.000000 0.000000
# 4 0.000000 0.000000 0.000000 0.058632 0.000000 0.000000
# 5 0.000000 0.000000 0.000000 0.000000 0.058632 0.000000
# 6 0.000000 0.000000 0.000000 0.000000 0.000000 0.022983
#
#
# Mechanical properties :
#
#
# Convention : Reuss Voigt Hill
#
# Bulk Modulus (GPa) = 38.20495 38.62823 38.41659
# Shear Modulus (GPa) = 24.05653 28.07489 26.06571
#
# Velocity S-wave (km/s) = 3.45869 3.73640 3.60023
# Velocity P-wave (km/s) = 5.91169 6.15003 6.03204
#
# Compressibility (1/GPa) = 0.02617462
#
# Stress axis : x y z
#
# Youngs Moduli (GPa) = 62.61883 62.61883 94.47900
#
# Poissons Ratio (x) = 0.29635 0.16260
# Poissons Ratio (y) = 0.29635 0.16260
# Poissons Ratio (z) = 0.10777 0.10777
#
# Static dielectric constant tensor:
#      x y z
#    x 3.696620 0.000000 0.000000 
#    y 0.000000 3.696620 0.000000 
#    z 0.000000 0.000000 4.212660 
# 
# 
# High freq. dielectric constant tensor:
#      x y z
#    x 1.772950 0.000000 0.000000 
#    y 0.000000 1.772950 0.000000 
#    z 0.000000 0.000000 1.813400 
# 
# From -- ./inp_files/9596.got.cif
#   From: 2010.03.12/outbox.cif.g09.slc.cpg/sg136_5_cif.got.tgz:9596.got - 2010.04.06 18:39:43.
