data_PCOD8317648
_publ_section_title
;
Structure prediction by ZEFSAII (Michael W. Deem and Ramdas Pophale) SiO2 
 PCOD8317648
Probable space group: P 42/M B C
;
_chemical_formula_sum "Si O2"
_cell_formula_units_Z 96
_cell_length_a 17.415063
_cell_length_b 17.415063
_cell_length_c 17.794917
_cell_angle_alpha 90.000000
_cell_angle_beta 90.000000
_cell_angle_gamma 90.000000
_cell_volume 5396.921069
_symmetry_space_group_name_H-M "P 42/M B C"
_symmetry_group_IT_number 135
_symmetry_cell_setting 'tetragonal'
loop_
_space_group_symop_operation_xyz
x,y,z
-y,x,1/2+z
-x,-y,z
y,-x,1/2+z
1/2+x,1/2-y,-z
1/2-x,1/2+y,-z
1/2+y,1/2+x,1/2-z
1/2-y,1/2-x,1/2-z
-x,-y,-z
y,-x,1/2-z
x,y,-z
-y,x,1/2-z
1/2-x,1/2+y,z
1/2+x,1/2-y,z
1/2-y,1/2-x,1/2+z
1/2+y,1/2+x,1/2+z
loop_
_atom_site_type_symbol
_atom_site_label
_atom_site_fract_x
_atom_site_fract_y
_atom_site_fract_z
Si Si1 0.170436 0.332718 0.913243
Si Si2 0.223236 0.578167 0.086450
Si Si3 0.589782 0.583177 0.770332
Si Si4 0.570452 0.321761 0.416002
Si Si5 0.699136 0.704713 0.690433
Si Si6 0.520176 0.082820 0.589396
O O1 0.254737 0.368149 0.901574
O O2 0.158359 0.259295 0.860871
O O3 0.107423 0.394578 0.885588
O O4 0.157414 0.309758 0.000000
O O5 0.290186 0.515456 0.094649
O O6 0.239069 0.651807 0.136735
O O7 0.143867 0.542557 0.117526
O O8 0.215648 0.604600 0.000000
O O9 0.606245 0.498959 0.736669
O O10 0.608880 0.584415 0.858798
O O11 0.643915 0.643179 0.728545
O O12 0.580564 0.354825 0.500000
O O13 0.743069 0.756932 0.750000
O O14 0.517739 0.082495 0.500000
O O15 0.500000 0.000000 0.624097
#
# Coordination Sequence:
#
# PCOD8317648 Si02
#       6
#    16  16  16  16  16  16
#     4   9  18  33  56  83 109 143 184 225 270 328
#     4   9  18  34  58  83 109 145 187 226 269 336
#     4  11  23  41  59  80 111 150 186 230 285 334
#     4   9  17  36  60  80 107 146 189 225 272 336
#     4  12  22  35  56  81 114 145 183 232 281 331
#     4   8  15  32  57  82 110 143 177 216 270 329
#
# _framework density 17.787918999999999
#
# number of rings (size 3 to 8) (size 9 to 14) (size 15 to 20)
#    0.000    2.333    3.333    2.500    0.000    0.000 
#    3.000    3.333    0.000    0.000    0.000    0.000 
#    0.000    0.000    0.000    0.000    0.000    0.000 
#
# Total GULP energy -1190303.188415 kJ/mol
# GULP energy per Si atom -12398.991546 kJ/mol
# Density = 1.774743 g / cm^3
# Si number density = 17.787919 Si / 1000 Ang^3
#
#
#
# Elastic Constant Matrix: (Units=GPa)
#
#
# Indices 1 2 3 4 5 6 
#
# 1 106.5279 53.0443 47.1937 0.0000 0.0000 0.0000
# 2 53.0443 106.5280 47.1940 0.0000 0.0000 0.0000
# 3 47.1937 47.1940 86.9812 0.0000 0.0000 0.0000
# 4 0.0000 0.0000 0.0000 16.1477 0.0000 0.0000
# 5 0.0000 0.0000 0.0000 0.0000 16.1463 0.0000
# 6 0.0000 0.0000 0.0000 0.0000 0.0000 22.4123
#
#
#
# Elastic Compliance Matrix: (Units=1/GPa)
#
#
# Indices 1 2 3 4 5 6 
#
# 1 0.013963 -0.004734 -0.005007 0.000000 0.000000 0.000000
# 2 -0.004734 0.013963 -0.005007 0.000000 0.000000 0.000000
# 3 -0.005007 -0.005007 0.016930 0.000000 0.000000 0.000000
# 4 0.000000 0.000000 0.000000 0.061928 0.000000 0.000000
# 5 0.000000 0.000000 0.000000 0.000000 0.061934 0.000000
# 6 0.000000 0.000000 0.000000 0.000000 0.000000 0.044618
#
#
# Mechanical properties :
#
#
# Convention : Reuss Voigt Hill
#
# Bulk Modulus (GPa) = 65.10993 66.10011 65.60502
# Shear Modulus (GPa) = 20.16507 21.11493 20.64000
#
# Velocity S-wave (km/s) = 3.37061 3.44908 3.41007
# Velocity P-wave (km/s) = 7.19937 7.28713 7.24338
#
# Compressibility (1/GPa) = 0.01535864
#
# Stress axis : x y z
#
# Youngs Moduli (GPa) = 71.61839 71.61822 59.06579
#
# Poissons Ratio (x) = 0.33907 0.29575
# Poissons Ratio (y) = 0.33907 0.29575
# Poissons Ratio (z) = 0.35860 0.35861
#
# Static dielectric constant tensor:
#      x y z
#    x 3.314390 0.000000 0.000000 
#    y 0.000000 3.314390 0.000000 
#    z 0.000000 0.000000 3.240100 
# 
# 
# High freq. dielectric constant tensor:
#      x y z
#    x 1.682690 0.000000 0.000000 
#    y 0.000000 1.682690 0.000000 
#    z 0.000000 0.000000 1.681820 
# 
# From -- ./inp_files/4454.got.cif
#   From: 2010.03.12/outbox.cif.g09.slc.cpg/sg135_3_cif.got.tgz:4454.got - 2010.04.06 18:31:24.
