data_PCOD8317932
_publ_section_title
;
Structure prediction by ZEFSAII (Michael W. Deem and Ramdas Pophale) SiO2 
 PCOD8317932
Probable space group: P 42/M N M
;
_chemical_formula_sum "Si O2"
_cell_formula_units_Z 88
_cell_length_a 16.826800
_cell_length_b 16.826800
_cell_length_c 16.271825
_cell_angle_alpha 90.000000
_cell_angle_beta 90.000000
_cell_angle_gamma 90.000000
_cell_volume 4607.224028
_symmetry_space_group_name_H-M "P 42/M N M"
_symmetry_group_IT_number 136
_symmetry_cell_setting 'tetragonal'
loop_
_space_group_symop_operation_xyz
x,y,z
1/2-y,1/2+x,1/2+z
-x,-y,z
1/2+y,1/2-x,1/2+z
1/2+x,1/2-y,1/2-z
1/2-x,1/2+y,1/2-z
y,x,-z
-y,-x,-z
-x,-y,-z
1/2+y,1/2-x,1/2-z
x,y,-z
1/2-y,1/2+x,1/2-z
1/2-x,1/2+y,1/2+z
1/2+x,1/2-y,1/2+z
-y,-x,z
y,x,z
loop_
_atom_site_type_symbol
_atom_site_label
_atom_site_fract_x
_atom_site_fract_y
_atom_site_fract_z
Si Si1 0.505002 0.790804 0.906728
Si Si2 0.513614 0.746835 0.651956
Si Si3 0.112712 0.241365 0.279660
Si Si4 0.138322 0.732836 0.719628
Si Si5 0.575683 0.042245 0.092457
Si Si6 0.998463 0.868682 0.000000
O O1 0.450831 0.732067 0.853268
O O2 0.589576 0.800827 0.859674
O O3 0.447988 0.866491 0.908571
O O4 0.521098 0.760687 0.000000
O O5 0.428257 0.731896 0.691567
O O6 0.581254 0.721196 0.716798
O O7 0.524477 0.840939 0.635728
O O8 0.515760 0.689010 0.575410
O O9 0.170196 0.170196 0.297863
O O10 0.160505 0.324234 0.272152
O O11 0.206457 0.793544 0.688080
O O12 0.500000 0.000000 0.136801
O O13 0.584440 0.008155 0.000000
O O14 0.062275 0.937726 0.000000
O O15 0.910460 0.910460 0.000000
#
# Coordination Sequence:
#
# PCOD8317932 Si02
#       6
#    16  16  16  16  16   8
#     4  10  21  37  57  85 116 153 196 244 298 353
#     4  11  20  37  59  85 116 158 197 247 303 369
#     4  10  21  37  56  82 117 155 196 243 296 357
#     4  10  21  38  58  85 119 158 200 242 297 364
#     4  10  19  33  55  85 118 148 187 236 292 361
#     4  11  24  40  59  86 118 156 206 259 310 373
#
# _framework density 19.100438
#
# number of rings (size 3 to 8) (size 9 to 14) (size 15 to 20)
#    0.000    1.727    2.727    2.182    0.000    0.727 
#    1.636    0.000    0.000    4.909    0.000    5.091 
#    0.000    0.000    0.000    0.000    0.000    0.000 
#
# Total GULP energy -1090272.676074 kJ/mol
# GULP energy per Si atom -12389.462228 kJ/mol
# Density = 1.905696 g / cm^3
# Si number density = 19.100438 Si / 1000 Ang^3
#
#
#
# Elastic Constant Matrix: (Units=GPa)
#
#
# Indices 1 2 3 4 5 6 
#
# 1 63.8278 9.0216 24.0930 0.0000 0.0000 0.0000
# 2 9.0216 63.8264 24.0926 0.0000 0.0000 0.0000
# 3 24.0930 24.0926 106.1065 0.0000 0.0000 0.0000
# 4 0.0000 0.0000 0.0000 18.0968 0.0000 0.0000
# 5 0.0000 0.0000 0.0000 0.0000 18.0961 0.0000
# 6 0.0000 0.0000 0.0000 0.0000 0.0000 12.8638
#
#
#
# Elastic Compliance Matrix: (Units=1/GPa)
#
#
# Indices 1 2 3 4 5 6 
#
# 1 0.017200 -0.001047 -0.003668 0.000000 0.000000 0.000000
# 2 -0.001047 0.017200 -0.003668 0.000000 0.000000 0.000000
# 3 -0.003668 -0.003668 0.011090 0.000000 0.000000 0.000000
# 4 0.000000 0.000000 0.000000 0.055258 0.000000 0.000000
# 5 0.000000 0.000000 0.000000 0.000000 0.055260 0.000000
# 6 0.000000 0.000000 0.000000 0.000000 0.000000 0.077737
#
#
# Mechanical properties :
#
#
# Convention : Reuss Voigt Hill
#
# Bulk Modulus (GPa) = 34.81252 38.68612 36.74932
# Shear Modulus (GPa) = 19.22447 21.58158 20.40302
#
# Velocity S-wave (km/s) = 3.17597 3.36504 3.27187
# Velocity P-wave (km/s) = 5.63158 5.94946 5.79270
#
# Compressibility (1/GPa) = 0.02872530
#
# Stress axis : x y z
#
# Youngs Moduli (GPa) = 58.14104 58.13986 90.17038
#
# Poissons Ratio (x) = 0.06085 0.33072
# Poissons Ratio (y) = 0.06085 0.33072
# Poissons Ratio (z) = 0.21325 0.21324
#
# Static dielectric constant tensor:
#      x y z
#    x 3.452800 0.000000 0.000000 
#    y 0.000000 3.452800 0.000000 
#    z 0.000000 0.000000 3.619680 
# 
# 
# High freq. dielectric constant tensor:
#      x y z
#    x 1.739550 0.000000 0.000000 
#    y 0.000000 1.739550 0.000000 
#    z 0.000000 0.000000 1.743210 
# 
# From -- ./inp_files/5026.got.cif
#   From: 2010.03.12/outbox.cif.g09.slc.cpg/sg136_3_cif.got.tgz:5026.got - 2010.04.06 18:39:43.
