data_PCOD8317630
_publ_section_title
;
Structure prediction by ZEFSAII (Michael W. Deem and Ramdas Pophale) SiO2 
 PCOD8317630
Probable space group: P 42/M B C
;
_chemical_formula_sum "Si O2"
_cell_formula_units_Z 96
_cell_length_a 20.926970
_cell_length_b 20.926970
_cell_length_c 14.000377
_cell_angle_alpha 90.000000
_cell_angle_beta 90.000000
_cell_angle_gamma 90.000000
_cell_volume 6131.298130
_symmetry_space_group_name_H-M "P 42/M B C"
_symmetry_group_IT_number 135
_symmetry_cell_setting 'tetragonal'
loop_
_space_group_symop_operation_xyz
x,y,z
-y,x,1/2+z
-x,-y,z
y,-x,1/2+z
1/2+x,1/2-y,-z
1/2-x,1/2+y,-z
1/2+y,1/2+x,1/2-z
1/2-y,1/2-x,1/2-z
-x,-y,-z
y,-x,1/2-z
x,y,-z
-y,x,1/2-z
1/2-x,1/2+y,z
1/2+x,1/2-y,z
1/2-y,1/2-x,1/2+z
1/2+y,1/2+x,1/2+z
loop_
_atom_site_type_symbol
_atom_site_label
_atom_site_fract_x
_atom_site_fract_y
_atom_site_fract_z
Si Si1 0.314935 0.207465 0.394916
Si Si2 0.499999 0.341216 0.750000
Si Si3 0.731163 0.624255 0.774559
Si Si4 0.814937 0.707462 0.894916
Si Si5 0.446459 0.553542 0.888764
Si Si6 0.624258 0.731160 0.225441
O O1 0.343151 0.194435 0.500000
O O2 0.260469 0.260472 0.396971
O O3 0.371929 0.232712 0.327636
O O4 0.282851 0.142392 0.355514
O O5 0.553885 0.295408 0.706103
O O6 0.528396 0.383045 0.836577
O O7 0.471603 0.383045 0.663422
O O8 0.446112 0.295410 0.793899
O O9 0.782853 0.642389 0.855515
O O10 0.767291 0.628069 0.672364
O O11 0.671968 0.671965 0.776909
O O12 0.843153 0.694433 0.000000
O O13 0.500000 0.500000 0.879298
O O14 0.431245 0.568757 0.000000
#
# Coordination Sequence:
#
# PCOD8317630 Si02
#       6
#    16  16  16  16  16  16
#     4   8  15  29  46  64  84 110 151 195 238 284
#     4  12  19  34  46  66 100 123 164 202 222 274
#     4   9  17  28  46  65  87 122 152 191 238 267
#     4   8  15  29  46  64  84 110 151 195 238 284
#     4  11  22  34  46  59  88 138 174 196 223 250
#     4   9  17  28  46  65  87 122 152 191 238 267
#
# _framework density 15.65737
#
# number of rings (size 3 to 8) (size 9 to 14) (size 15 to 20)
#    0.000    2.500    3.333    2.000    0.000    2.667 
#    0.000    3.333    0.000    0.000    0.000    0.000 
#    0.000   10.667    0.000   12.000    0.000    0.000 
#
# Total GULP energy -1189901.150252 kJ/mol
# GULP energy per Si atom -12394.803648 kJ/mol
# Density = 1.562173 g / cm^3
# Si number density = 15.657370 Si / 1000 Ang^3
#
#
#
# Elastic Constant Matrix: (Units=GPa)
#
#
# Indices 1 2 3 4 5 6 
#
# 1 57.2778 37.9804 23.8362 0.0000 0.0000 0.0000
# 2 37.9804 57.2778 23.8362 0.0000 0.0000 0.0000
# 3 23.8362 23.8362 106.8649 0.0000 0.0000 0.0000
# 4 0.0000 0.0000 0.0000 9.5244 0.0000 0.0000
# 5 0.0000 0.0000 0.0000 0.0000 9.5244 0.0000
# 6 0.0000 0.0000 0.0000 0.0000 0.0000 36.8619
#
#
#
# Elastic Compliance Matrix: (Units=1/GPa)
#
#
# Indices 1 2 3 4 5 6 
#
# 1 0.031819 -0.020002 -0.002636 0.000000 0.000000 0.000000
# 2 -0.020002 0.031819 -0.002636 0.000000 0.000000 0.000000
# 3 -0.002636 -0.002636 0.010533 0.000000 0.000000 0.000000
# 4 0.000000 0.000000 0.000000 0.104994 0.000000 0.000000
# 5 0.000000 0.000000 0.000000 0.000000 0.104994 0.000000
# 6 0.000000 0.000000 0.000000 0.000000 0.000000 0.027128
#
#
# Mechanical properties :
#
#
# Convention : Reuss Voigt Hill
#
# Bulk Modulus (GPa) = 42.32958 43.63622 42.98290
# Shear Modulus (GPa) = 13.52417 20.23330 16.87873
#
# Velocity S-wave (km/s) = 2.94216 3.59869 3.28686
# Velocity P-wave (km/s) = 6.21574 6.72290 6.47429
#
# Compressibility (1/GPa) = 0.02362414
#
# Stress axis : x y z
#
# Youngs Moduli (GPa) = 31.42800 31.42800 94.93601
#
# Poissons Ratio (x) = 0.62862 0.25023
# Poissons Ratio (y) = 0.62862 0.25023
# Poissons Ratio (z) = 0.08284 0.08284
#
# Static dielectric constant tensor:
#      x y z
#    x 2.820180 0.000000 0.000000 
#    y 0.000000 2.820180 0.000000 
#    z 0.000000 0.000000 3.386360 
# 
# 
# High freq. dielectric constant tensor:
#      x y z
#    x 1.570560 0.000000 0.000000 
#    y 0.000000 1.570560 0.000000 
#    z 0.000000 0.000000 1.608750 
# 
# From -- ./inp_files/3623.got.cif
#   From: 2010.03.12/outbox.cif.g09.slc.cpg/sg135_2_cif.got.tgz:3623.got - 2010.04.06 18:31:24.
