data_PCOD8317500
_publ_section_title
;
Structure prediction by ZEFSAII (Michael W. Deem and Ramdas Pophale) SiO2 
 PCOD8317500
Probable space group: P 42/M B C
;
_chemical_formula_sum "Si O2"
_cell_formula_units_Z 96
_cell_length_a 23.165782
_cell_length_b 23.165782
_cell_length_c 9.517798
_cell_angle_alpha 90.000000
_cell_angle_beta 90.000000
_cell_angle_gamma 90.000000
_cell_volume 5107.759187
_symmetry_space_group_name_H-M "P 42/M B C"
_symmetry_group_IT_number 135
_symmetry_cell_setting 'tetragonal'
loop_
_space_group_symop_operation_xyz
x,y,z
-y,x,1/2+z
-x,-y,z
y,-x,1/2+z
1/2+x,1/2-y,-z
1/2-x,1/2+y,-z
1/2+y,1/2+x,1/2-z
1/2-y,1/2-x,1/2-z
-x,-y,-z
y,-x,1/2-z
x,y,-z
-y,x,1/2-z
1/2-x,1/2+y,z
1/2+x,1/2-y,z
1/2-y,1/2-x,1/2+z
1/2+y,1/2+x,1/2+z
loop_
_atom_site_type_symbol
_atom_site_label
_atom_site_fract_x
_atom_site_fract_y
_atom_site_fract_z
Si Si1 0.986572 0.854893 0.651227
Si Si2 0.214522 0.363587 0.835593
Si Si3 0.389496 0.607519 0.156827
Si Si4 0.225381 0.498478 0.842162
Si Si5 0.183890 0.604935 0.665146
Si Si6 0.698246 0.333117 0.339340
O O1 0.954114 0.862987 0.500000
O O2 0.944555 0.860976 0.780642
O O3 0.015436 0.792232 0.655153
O O4 0.038816 0.900504 0.660671
O O5 0.159788 0.340213 0.750000
O O6 0.221292 0.431080 0.795765
O O7 0.269949 0.324399 0.791153
O O8 0.202535 0.356203 0.000000
O O9 0.333147 0.619589 0.246450
O O10 0.380947 0.631196 0.000000
O O11 0.196066 0.541622 0.730747
O O12 0.199244 0.506890 0.000000
O O13 0.129002 0.629002 0.750000
O O14 0.169811 0.596647 0.500000
O O15 0.234261 0.653186 0.683566
O O16 0.680525 0.342637 0.500000
#
# Coordination Sequence:
#
# PCOD8317500 Si02
#       6
#    16  16  16  16  16  16
#     4  10  21  38  55  75 110 150 191 239 286 334
#     4  10  21  37  58  84 115 151 184 227 280 334
#     4  11  22  34  55  81 105 146 196 241 282 328
#     4  10  20  38  60  80 113 153 186 226 283 337
#     4  11  23  37  59  88 119 152 190 234 280 336
#     4  10  20  36  56  83 118 152 184 228 285 334
#
# _framework density 18.794934000000001
#
# number of rings (size 3 to 8) (size 9 to 14) (size 15 to 20)
#    0.000    1.667    3.333    1.500    0.000    4.333 
#    0.000    1.667    0.000    0.500    0.000    3.500 
#    0.000    0.000    0.000    0.000    0.000    0.000 
#
# Total GULP energy -1189805.314372 kJ/mol
# GULP energy per Si atom -12393.805358 kJ/mol
# Density = 1.875216 g / cm^3
# Si number density = 18.794934 Si / 1000 Ang^3
#
#
#
# Elastic Constant Matrix: (Units=GPa)
#
#
# Indices 1 2 3 4 5 6 
#
# 1 71.1310 36.0544 42.7837 0.0000 0.0000 0.0000
# 2 36.0544 71.1277 42.7823 0.0000 0.0000 0.0000
# 3 42.7837 42.7823 102.2058 0.0000 0.0000 0.0000
# 4 0.0000 0.0000 0.0000 26.6902 0.0000 0.0000
# 5 0.0000 0.0000 0.0000 0.0000 26.6908 0.0000
# 6 0.0000 0.0000 0.0000 0.0000 0.0000 24.9638
#
#
#
# Elastic Compliance Matrix: (Units=1/GPa)
#
#
# Indices 1 2 3 4 5 6 
#
# 1 0.021261 -0.007249 -0.005865 0.000000 0.000000 0.000000
# 2 -0.007249 0.021262 -0.005865 0.000000 0.000000 0.000000
# 3 -0.005865 -0.005865 0.014695 0.000000 0.000000 0.000000
# 4 0.000000 0.000000 0.000000 0.037467 0.000000 0.000000
# 5 0.000000 0.000000 0.000000 0.000000 0.037466 0.000000
# 6 0.000000 0.000000 0.000000 0.000000 0.000000 0.040058
#
#
# Mechanical properties :
#
#
# Convention : Reuss Voigt Hill
#
# Bulk Modulus (GPa) = 51.92834 54.18946 53.05890
# Shear Modulus (GPa) = 23.08537 23.85858 23.47197
#
# Velocity S-wave (km/s) = 3.50848 3.56675 3.53773
# Velocity P-wave (km/s) = 6.64089 6.77177 6.70665
#
# Compressibility (1/GPa) = 0.01925731
#
# Stress axis : x y z
#
# Youngs Moduli (GPa) = 47.03476 47.03287 68.05162
#
# Poissons Ratio (x) = 0.34094 0.39916
# Poissons Ratio (y) = 0.34096 0.39916
# Poissons Ratio (z) = 0.27588 0.27587
#
# Static dielectric constant tensor:
#      x y z
#    x 3.269120 0.000000 0.000000 
#    y 0.000000 3.269130 0.000000 
#    z 0.000000 0.000000 3.533660 
# 
# 
# High freq. dielectric constant tensor:
#      x y z
#    x 1.713380 0.000000 0.000000 
#    y 0.000000 1.713380 0.000000 
#    z 0.000000 0.000000 1.739190 
# 
# From -- ./inp_files/1199.got.cif
#   From: 2010.03.12/outbox.cif.g09.slc.cpg/sg135_1_cif.got.tgz:1199.got - 2010.04.06 18:31:24.
