data_PCOD8317293
_publ_section_title
;
Structure prediction by ZEFSAII (Michael W. Deem and Ramdas Pophale) SiO2 
 PCOD8317293
Probable space group: P 42/N N M
;
_chemical_formula_sum "Si O2"
_cell_formula_units_Z 80
_cell_length_a 12.213078
_cell_length_b 12.213078
_cell_length_c 25.392599
_cell_angle_alpha 90.000000
_cell_angle_beta 90.000000
_cell_angle_gamma 90.000000
_cell_volume 3787.541638
_symmetry_space_group_name_H-M "P 42/N N M"
_symmetry_group_IT_number 134
_space_group.IT_coordinate_system_code '2'
_symmetry_cell_setting 'tetragonal'
loop_
_space_group_symop_operation_xyz
x,y,z
1/2-y,x,1/2+z
1/2-x,1/2-y,z
y,1/2-x,1/2+z
x,1/2-y,1/2-z
1/2-x,y,1/2-z
y,x,-z
1/2-y,1/2-x,-z
-x,-y,-z
1/2+y,-x,1/2-z
1/2+x,1/2+y,-z
-y,1/2+x,1/2-z
-x,1/2+y,1/2+z
1/2+x,-y,1/2+z
-y,-x,z
1/2+y,1/2+x,z
loop_
_atom_site_type_symbol
_atom_site_label
_atom_site_fract_x
_atom_site_fract_y
_atom_site_fract_z
Si Si1 0.433554 0.750506 0.108169
Si Si2 0.622943 0.719698 0.310056
Si Si3 0.314251 0.509574 0.698884
Si Si4 0.925681 0.254803 0.406442
Si Si5 0.244993 0.426776 0.497273
O O1 0.356078 0.643923 0.109422
O O2 0.359594 0.859594 0.118285
O O3 0.530424 0.730592 0.151110
O O4 0.490580 0.760203 0.051190
O O5 0.750000 0.750000 0.325265
O O6 0.595300 0.750000 0.250000
O O7 0.606491 0.589555 0.317105
O O8 0.250000 0.470259 0.750000
O O9 0.381115 0.618886 0.711982
O O10 0.226594 0.526033 0.651970
O O11 0.850402 0.149599 0.401419
O O12 0.861679 0.361679 0.425366
O O13 0.015826 0.228421 0.448340
O O14 0.329924 0.329924 0.500000
O O15 0.122047 0.377954 0.500000
#
# Coordination Sequence:
#
# PCOD8317293 Si02
#       5
#    16  16  16  16  16
#     4  11  26  46  70 101 137 178 229 286 343 410
#     4  11  24  45  67  97 132 173 224 274 331 404
#     4  11  22  39  65  95 128 168 213 268 333 398
#     4  10  22  40  62  89 125 166 210 264 326 394
#     4  11  25  41  64  96 132 176 225 276 335 399
#
# _framework density 21.121880999999998
#
# number of rings (size 3 to 8) (size 9 to 14) (size 15 to 20)
#    0.000    1.200    2.000    3.600    5.600    9.000 
#    0.000    1.000    0.000    0.000    0.000    0.000 
#    0.000    0.000    0.000    0.000    0.000    0.000 
#
# Total GULP energy -991618.949091 kJ/mol
# GULP energy per Si atom -12395.236864 kJ/mol
# Density = 2.107381 g / cm^3
# Si number density = 21.121881 Si / 1000 Ang^3
#
#
#
# Elastic Constant Matrix: (Units=GPa)
#
#
# Indices 1 2 3 4 5 6 
#
# 1 99.2805 31.0246 53.8814 0.0000 0.0000 0.0000
# 2 31.0246 99.2792 53.8809 0.0000 0.0000 0.0000
# 3 53.8814 53.8809 142.4368 0.0000 0.0000 0.0000
# 4 0.0000 0.0000 0.0000 36.9613 0.0000 0.0000
# 5 0.0000 0.0000 0.0000 0.0000 36.9609 0.0000
# 6 0.0000 0.0000 0.0000 0.0000 0.0000 119.4938
#
#
#
# Elastic Compliance Matrix: (Units=1/GPa)
#
#
# Indices 1 2 3 4 5 6 
#
# 1 0.012909 -0.001741 -0.004225 0.000000 0.000000 0.000000
# 2 -0.001741 0.012910 -0.004225 0.000000 0.000000 0.000000
# 3 -0.004225 -0.004225 0.010217 0.000000 0.000000 0.000000
# 4 0.000000 0.000000 0.000000 0.027055 0.000000 0.000000
# 5 0.000000 0.000000 0.000000 0.000000 0.027056 0.000000
# 6 0.000000 0.000000 0.000000 0.000000 0.000000 0.008369
#
#
# Mechanical properties :
#
#
# Convention : Reuss Voigt Hill
#
# Bulk Modulus (GPa) = 63.87967 68.73003 66.30485
# Shear Modulus (GPa) = 40.28514 52.16386 46.22450
#
# Velocity S-wave (km/s) = 4.37197 4.97496 4.68318
# Velocity P-wave (km/s) = 7.46957 8.10004 7.79119
#
# Compressibility (1/GPa) = 0.01565443
#
# Stress axis : x y z
#
# Youngs Moduli (GPa) = 77.46257 77.46169 97.87692
#
# Poissons Ratio (x) = 0.13489 0.41350
# Poissons Ratio (y) = 0.13489 0.41350
# Poissons Ratio (z) = 0.32726 0.32725
#
# Static dielectric constant tensor:
#      x y z
#    x 3.884540 0.000000 0.000000 
#    y 0.000000 3.884540 0.000000 
#    z 0.000000 0.000000 3.876220 
# 
# 
# High freq. dielectric constant tensor:
#      x y z
#    x 1.832570 0.000000 0.000000 
#    y 0.000000 1.832570 0.000000 
#    z 0.000000 0.000000 1.841040 
# 
# From -- ./inp_files/11274.got.cif
#   From: 2010.03.12/outbox.cif.g09.slc.cpg/sg134_6_cif.got.tgz:11274.got - 2010.04.06 18:17:22.
