data_PCOD8317618
_publ_section_title
;
Structure prediction by ZEFSAII (Michael W. Deem and Ramdas Pophale) SiO2 
 PCOD8317618
Probable space group: P 42/M B C
;
_chemical_formula_sum "Si O2"
_cell_formula_units_Z 128
_cell_length_a 18.750897
_cell_length_b 18.750897
_cell_length_c 22.334435
_cell_angle_alpha 90.000000
_cell_angle_beta 90.000000
_cell_angle_gamma 90.000000
_cell_volume 7852.701097
_symmetry_space_group_name_H-M "P 42/M B C"
_symmetry_group_IT_number 135
_symmetry_cell_setting 'tetragonal'
loop_
_space_group_symop_operation_xyz
x,y,z
-y,x,1/2+z
-x,-y,z
y,-x,1/2+z
1/2+x,1/2-y,-z
1/2-x,1/2+y,-z
1/2+y,1/2+x,1/2-z
1/2-y,1/2-x,1/2-z
-x,-y,-z
y,-x,1/2-z
x,y,-z
-y,x,1/2-z
1/2-x,1/2+y,z
1/2+x,1/2-y,z
1/2-y,1/2-x,1/2+z
1/2+y,1/2+x,1/2+z
loop_
_atom_site_type_symbol
_atom_site_label
_atom_site_fract_x
_atom_site_fract_y
_atom_site_fract_z
Si Si1 0.724948 0.829011 0.065490
Si Si2 0.421042 0.586849 0.254456
Si Si3 0.498169 0.420684 0.432722
Si Si4 0.782055 0.670723 0.934230
Si Si5 0.372232 0.356031 0.634690
Si Si6 0.077600 0.260296 0.070242
Si Si7 0.854413 0.126061 0.879182
Si Si8 0.916225 0.264889 0.930598
O O1 0.746695 0.747449 0.059101
O O2 0.772107 0.862908 0.118649
O O3 0.639586 0.830533 0.080440
O O4 0.738670 0.865963 0.000000
O O5 0.503627 0.597212 0.236595
O O6 0.369807 0.624527 0.205530
O O7 0.406197 0.629639 0.314749
O O8 0.500000 0.500000 0.405663
O O9 0.468273 0.421894 0.500000
O O10 0.448772 0.374994 0.390481
O O11 0.576472 0.387164 0.430910
O O12 0.863981 0.679384 0.910670
O O13 0.731891 0.627607 0.888064
O O14 0.782233 0.633697 0.000000
O O15 0.312358 0.406347 0.605469
O O16 0.997645 0.287882 0.084921
O O17 0.087376 0.243520 0.000000
O O18 0.892911 0.201777 0.886472
O O19 0.911593 0.240311 0.000000
#
# Coordination Sequence:
#
# PCOD8317618 Si02
#       8
#    16  16  16  16  16  16  16  16
#     4   8  15  28  45  66  91 116 149 196 243 283
#     4  11  22  34  43  56  90 134 171 194 231 290
#     4  11  20  28  42  66  89 113 155 203 236 278
#     4   8  15  28  45  66  91 116 149 196 243 283
#     4  11  19  30  44  62  90 127 160 194 234 285
#     4   9  16  28  48  71  93 118 151 195 246 294
#     4  11  19  30  44  62  90 127 160 194 234 285
#     4   9  16  28  48  71  93 118 151 195 246 294
#
# _framework density 16.300122999999999
#
# number of rings (size 3 to 8) (size 9 to 14) (size 15 to 20)
#    0.000    2.250    1.250    6.000    0.000    2.000 
#    0.000    5.625    0.000    0.000    0.000    0.875 
#    0.000    5.000    0.000    0.000   25.250    0.000 
#
# Total GULP energy -1586183.367615 kJ/mol
# GULP energy per Si atom -12392.057559 kJ/mol
# Density = 1.626302 g / cm^3
# Si number density = 16.300123 Si / 1000 Ang^3
#
#
#
# Elastic Constant Matrix: (Units=GPa)
#
#
# Indices 1 2 3 4 5 6 
#
# 1 94.1108 35.0746 30.9255 0.0000 0.0000 0.0000
# 2 35.0746 94.1108 30.9255 0.0000 0.0000 0.0000
# 3 30.9255 30.9255 69.4884 0.0000 0.0000 0.0000
# 4 0.0000 0.0000 0.0000 33.2697 0.0000 0.0000
# 5 0.0000 0.0000 0.0000 0.0000 33.2697 0.0000
# 6 0.0000 0.0000 0.0000 0.0000 0.0000 23.1353
#
#
#
# Elastic Compliance Matrix: (Units=1/GPa)
#
#
# Indices 1 2 3 4 5 6 
#
# 1 0.013388 -0.003551 -0.004378 0.000000 0.000000 0.000000
# 2 -0.003551 0.013388 -0.004378 0.000000 0.000000 0.000000
# 3 -0.004378 -0.004378 0.018288 0.000000 0.000000 0.000000
# 4 0.000000 0.000000 0.000000 0.030057 0.000000 0.000000
# 5 0.000000 0.000000 0.000000 0.000000 0.030057 0.000000
# 6 0.000000 0.000000 0.000000 0.000000 0.000000 0.043224
#
#
# Mechanical properties :
#
#
# Convention : Reuss Voigt Hill
#
# Bulk Modulus (GPa) = 48.90008 50.17347 49.53677
# Shear Modulus (GPa) = 27.80374 28.65388 28.22881
#
# Velocity S-wave (km/s) = 4.13454 4.19727 4.16602
# Velocity P-wave (km/s) = 7.27032 7.37139 7.32103
#
# Compressibility (1/GPa) = 0.02044987
#
# Stress axis : x y z
#
# Youngs Moduli (GPa) = 74.69487 74.69487 54.68198
#
# Poissons Ratio (x) = 0.26524 0.23939
# Poissons Ratio (y) = 0.26524 0.23939
# Poissons Ratio (z) = 0.32700 0.32700
#
# Static dielectric constant tensor:
#      x y z
#    x 3.202210 0.000000 0.000000 
#    y 0.000000 3.202210 0.000000 
#    z 0.000000 0.000000 2.939580 
# 
# 
# High freq. dielectric constant tensor:
#      x y z
#    x 1.608020 0.000000 0.000000 
#    y 0.000000 1.608020 0.000000 
#    z 0.000000 0.000000 1.610730 
# 
# From -- ./inp_files/6273.got.cif
#   From: 2010.03.12/outbox.cif.g09.slc.cpg/sg135_4_cif.got.tgz:6273.got - 2010.04.06 18:31:24.
