data_PCOD8317521
_publ_section_title
;
Structure prediction by ZEFSAII (Michael W. Deem and Ramdas Pophale) SiO2 
 PCOD8317521
Probable space group: P 42/M B C
;
_chemical_formula_sum "Si O2"
_cell_formula_units_Z 80
_cell_length_a 17.705353
_cell_length_b 17.705353
_cell_length_c 14.255575
_cell_angle_alpha 90.000000
_cell_angle_beta 90.000000
_cell_angle_gamma 90.000000
_cell_volume 4468.830878
_symmetry_space_group_name_H-M "P 42/M B C"
_symmetry_group_IT_number 135
_symmetry_cell_setting 'tetragonal'
loop_
_space_group_symop_operation_xyz
x,y,z
-y,x,1/2+z
-x,-y,z
y,-x,1/2+z
1/2+x,1/2-y,-z
1/2-x,1/2+y,-z
1/2+y,1/2+x,1/2-z
1/2-y,1/2-x,1/2-z
-x,-y,-z
y,-x,1/2-z
x,y,-z
-y,x,1/2-z
1/2-x,1/2+y,z
1/2+x,1/2-y,z
1/2-y,1/2-x,1/2+z
1/2+y,1/2+x,1/2+z
loop_
_atom_site_type_symbol
_atom_site_label
_atom_site_fract_x
_atom_site_fract_y
_atom_site_fract_z
Si Si1 0.439468 0.061122 0.390924
Si Si2 0.109827 0.271927 0.000000
Si Si3 0.731245 0.981599 0.858239
Si Si4 0.741300 0.110619 0.000000
Si Si5 0.361396 0.259722 0.000000
Si Si6 0.777901 0.480072 0.351747
Si Si7 0.140982 0.768877 0.500000
O O1 0.417938 0.052316 0.500000
O O2 0.472068 0.142228 0.368385
O O3 0.364222 0.043692 0.333029
O O4 0.500000 0.000000 0.358936
O O5 0.160652 0.347150 0.000000
O O6 0.161019 0.197394 0.000000
O O7 0.059206 0.271853 0.093485
O O8 0.759294 0.987250 0.750946
O O9 0.751011 0.060417 0.907387
O O10 0.773596 0.911333 0.907548
O O11 0.809314 0.168273 0.000000
O O12 0.413495 0.263617 0.092031
O O13 0.311653 0.183559 0.000000
#
# Coordination Sequence:
#
# PCOD8317521 Si02
#       7
#    16   8  16   8   8  16   8
#     4  11  19  31  53  80 115 149 176 211 265 335
#     4  10  22  37  55  80 115 147 180 227 273 324
#     4  11  21  35  55  81 110 145 184 223 273 326
#     4  10  22  37  55  80 115 147 180 227 273 324
#     4  10  20  38  56  77 110 149 186 224 271 324
#     4  11  21  35  55  81 110 145 184 223 273 326
#     4  10  20  38  56  77 110 149 186 224 271 324
#
# _framework density 17.901774
#
# number of rings (size 3 to 8) (size 9 to 14) (size 15 to 20)
#    0.000    1.400    6.000    1.800    0.000    5.600 
#    0.000    4.000    0.000    9.600    0.000   11.200 
#    0.000    0.000    0.000    0.000    0.000    0.000 
#
# Total GULP energy -992180.674931 kJ/mol
# GULP energy per Si atom -12402.258437 kJ/mol
# Density = 1.786103 g / cm^3
# Si number density = 17.901774 Si / 1000 Ang^3
#
#
#
# Elastic Constant Matrix: (Units=GPa)
#
#
# Indices 1 2 3 4 5 6 
#
# 1 85.0221 49.1259 37.3247 0.0000 0.0000 0.0000
# 2 49.1259 85.0221 37.3247 0.0000 0.0000 0.0000
# 3 37.3247 37.3247 148.7335 0.0000 0.0000 0.0000
# 4 0.0000 0.0000 0.0000 2.0291 0.0000 0.0000
# 5 0.0000 0.0000 0.0000 0.0000 2.0291 0.0000
# 6 0.0000 0.0000 0.0000 0.0000 0.0000 28.1365
#
#
#
# Elastic Compliance Matrix: (Units=1/GPa)
#
#
# Indices 1 2 3 4 5 6 
#
# 1 0.018261 -0.009597 -0.002174 0.000000 0.000000 0.000000
# 2 -0.009597 0.018261 -0.002174 0.000000 0.000000 0.000000
# 3 -0.002174 -0.002174 0.007815 0.000000 0.000000 0.000000
# 4 0.000000 0.000000 0.000000 0.492838 0.000000 0.000000
# 5 0.000000 0.000000 0.000000 0.000000 0.492838 0.000000
# 6 0.000000 0.000000 0.000000 0.000000 0.000000 0.035541
#
#
# Mechanical properties :
#
#
# Convention : Reuss Voigt Hill
#
# Bulk Modulus (GPa) = 60.80429 62.92536 61.86482
# Shear Modulus (GPa) = 4.54989 19.43908 11.99449
#
# Velocity S-wave (km/s) = 1.59597 3.29884 2.59128
# Velocity P-wave (km/s) = 6.11845 7.05240 6.60196
#
# Compressibility (1/GPa) = 0.01644621
#
# Stress axis : x y z
#
# Youngs Moduli (GPa) = 54.76069 54.76069 127.96347
#
# Poissons Ratio (x) = 0.52553 0.27823
# Poissons Ratio (y) = 0.52553 0.27823
# Poissons Ratio (z) = 0.11907 0.11907
#
# Static dielectric constant tensor:
#      x y z
#    x 3.216170 0.000000 0.000000 
#    y 0.000000 3.216170 0.000000 
#    z 0.000000 0.000000 3.587090 
# 
# 
# High freq. dielectric constant tensor:
#      x y z
#    x 1.682990 0.000000 0.000000 
#    y 0.000000 1.682990 0.000000 
#    z 0.000000 0.000000 1.699500 
# 
# From -- ./inp_files/3478.got.cif
#   From: 2010.03.12/outbox.cif.g09.slc.cpg/sg135_2_cif.got.tgz:3478.got - 2010.04.06 18:31:24.
