data_PCOD8317263
_publ_section_title
;
Structure prediction by ZEFSAII (Michael W. Deem and Ramdas Pophale) SiO2 
 PCOD8317263
Probable space group: P 42/N N M
;
_chemical_formula_sum "Si O2"
_cell_formula_units_Z 96
_cell_length_a 16.011143
_cell_length_b 16.011143
_cell_length_c 18.790954
_cell_angle_alpha 90.000000
_cell_angle_beta 90.000000
_cell_angle_gamma 90.000000
_cell_volume 4817.186960
_symmetry_space_group_name_H-M "P 42/N N M"
_symmetry_group_IT_number 134
_space_group.IT_coordinate_system_code '2'
_symmetry_cell_setting 'tetragonal'
loop_
_space_group_symop_operation_xyz
x,y,z
1/2-y,x,1/2+z
1/2-x,1/2-y,z
y,1/2-x,1/2+z
x,1/2-y,1/2-z
1/2-x,y,1/2-z
y,x,-z
1/2-y,1/2-x,-z
-x,-y,-z
1/2+y,-x,1/2-z
1/2+x,1/2+y,-z
-y,1/2+x,1/2-z
-x,1/2+y,1/2+z
1/2+x,-y,1/2+z
-y,-x,z
1/2+y,1/2+x,z
loop_
_atom_site_type_symbol
_atom_site_label
_atom_site_fract_x
_atom_site_fract_y
_atom_site_fract_z
Si Si1 0.752960 0.548676 0.166301
Si Si2 0.803958 0.063275 0.569769
Si Si3 0.201522 0.139165 0.180810
Si Si4 0.382226 0.352879 0.581570
Si Si5 0.614039 0.251353 0.417301
Si Si6 0.951292 0.316669 0.692839
O O1 0.750000 0.539252 0.250000
O O2 0.689860 0.623671 0.149360
O O3 0.841820 0.573730 0.130187
O O4 0.726240 0.457856 0.138137
O O5 0.855808 0.144193 0.592465
O O6 0.778325 0.066001 0.488024
O O7 0.718918 0.063497 0.614289
O O8 0.862090 0.982558 0.584235
O O9 0.250000 0.177995 0.250000
O O10 0.263381 0.139905 0.114354
O O11 0.166696 0.049159 0.204976
O O12 0.352435 0.352435 0.500000
O O13 0.672112 0.327889 0.389305
O O14 0.670516 0.170516 0.431870
O O15 0.917677 0.250000 0.750000
O O16 0.903600 0.403600 0.702709
#
# Coordination Sequence:
#
# PCOD8317263 Si02
#       6
#    16  16  16  16  16  16
#     4  12  24  40  65  93 125 169 209 256 319 374
#     4  10  21  39  63  90 123 161 205 261 318 370
#     4  10  22  40  61  88 127 162 198 250 309 370
#     4  11  22  39  63  96 122 156 207 260 308 372
#     4  10  23  44  66  91 126 167 214 264 313 373
#     4  10  21  37  58  89 124 160 203 251 308 374
#
# _framework density 19.928642
#
# number of rings (size 3 to 8) (size 9 to 14) (size 15 to 20)
#    0.000    1.500    3.333    1.500    0.000    5.500 
#    0.000    0.833    0.000    3.000    0.000    0.000 
#    0.000    0.000    0.000    0.000    0.000    0.000 
#
# Total GULP energy -1190189.515922 kJ/mol
# GULP energy per Si atom -12397.807458 kJ/mol
# Density = 1.988328 g / cm^3
# Si number density = 19.928642 Si / 1000 Ang^3
#
#
#
# Elastic Constant Matrix: (Units=GPa)
#
#
# Indices 1 2 3 4 5 6 
#
# 1 92.0255 38.9354 25.4629 0.0000 0.0000 0.0000
# 2 38.9354 92.0255 25.4629 0.0000 0.0000 0.0000
# 3 25.4629 25.4629 94.7979 0.0000 0.0000 0.0000
# 4 0.0000 0.0000 0.0000 29.8980 0.0000 0.0000
# 5 0.0000 0.0000 0.0000 0.0000 29.8980 0.0000
# 6 0.0000 0.0000 0.0000 0.0000 0.0000 20.7685
#
#
#
# Elastic Compliance Matrix: (Units=1/GPa)
#
#
# Indices 1 2 3 4 5 6 
#
# 1 0.013681 -0.005155 -0.002290 0.000000 0.000000 0.000000
# 2 -0.005155 0.013681 -0.002290 0.000000 0.000000 0.000000
# 3 -0.002290 -0.002290 0.011779 0.000000 0.000000 0.000000
# 4 0.000000 0.000000 0.000000 0.033447 0.000000 0.000000
# 5 0.000000 0.000000 0.000000 0.000000 0.033447 0.000000
# 6 0.000000 0.000000 0.000000 0.000000 0.000000 0.048150
#
#
# Mechanical properties :
#
#
# Convention : Reuss Voigt Hill
#
# Bulk Modulus (GPa) = 50.83604 50.95237 50.89420
# Shear Modulus (GPa) = 27.74498 28.71207 28.22853
#
# Velocity S-wave (km/s) = 3.73529 3.79983 3.76770
# Velocity P-wave (km/s) = 6.64587 6.69885 6.67241
#
# Compressibility (1/GPa) = 0.01967108
#
# Stress axis : x y z
#
# Youngs Moduli (GPa) = 73.09312 73.09312 84.89637
#
# Poissons Ratio (x) = 0.37678 0.19443
# Poissons Ratio (y) = 0.37678 0.19443
# Poissons Ratio (z) = 0.16740 0.16740
#
# Static dielectric constant tensor:
#      x y z
#    x 3.677580 0.000000 0.000000 
#    y 0.000000 3.677580 0.000000 
#    z 0.000000 0.000000 3.759850 
# 
# 
# High freq. dielectric constant tensor:
#      x y z
#    x 1.774140 0.000000 0.000000 
#    y 0.000000 1.774140 0.000000 
#    z 0.000000 0.000000 1.784230 
# 
# From -- ./inp_files/9170.got.cif
#   From: 2010.03.12/outbox.cif.g09.slc.cpg/sg134_5_cif.got.tgz:9170.got - 2010.04.06 18:17:22.
