data_PCOD8317364
_publ_section_title
;
Structure prediction by ZEFSAII (Michael W. Deem and Ramdas Pophale) SiO2 
 PCOD8317364
Probable space group: P 42/M B C
;
_chemical_formula_sum "Si O2"
_cell_formula_units_Z 128
_cell_length_a 18.645978
_cell_length_b 18.645978
_cell_length_c 23.146231
_cell_angle_alpha 90.000000
_cell_angle_beta 90.000000
_cell_angle_gamma 90.000000
_cell_volume 8047.307895
_symmetry_space_group_name_H-M "P 42/M B C"
_symmetry_group_IT_number 135
_symmetry_cell_setting 'tetragonal'
loop_
_space_group_symop_operation_xyz
x,y,z
-y,x,1/2+z
-x,-y,z
y,-x,1/2+z
1/2+x,1/2-y,-z
1/2-x,1/2+y,-z
1/2+y,1/2+x,1/2-z
1/2-y,1/2-x,1/2-z
-x,-y,-z
y,-x,1/2-z
x,y,-z
-y,x,1/2-z
1/2-x,1/2+y,z
1/2+x,1/2-y,z
1/2-y,1/2-x,1/2+z
1/2+y,1/2+x,1/2+z
loop_
_atom_site_type_symbol
_atom_site_label
_atom_site_fract_x
_atom_site_fract_y
_atom_site_fract_z
Si Si1 0.570146 0.039652 0.069124
Si Si2 0.534705 0.632301 0.569170
Si Si3 0.739720 0.659269 0.937163
Si Si4 0.100141 0.939641 0.250998
Si Si5 0.110629 0.886783 0.870939
Si Si6 0.495079 0.216870 0.437017
Si Si7 0.800751 0.605583 0.431626
Si Si8 0.338552 0.451303 0.627616
O O1 0.639509 0.996023 0.095343
O O2 0.571055 0.123047 0.087480
O O3 0.500000 0.000000 0.093662
O O4 0.574640 0.035591 0.000000
O O5 0.527516 0.631974 0.500000
O O6 0.461495 0.600359 0.595021
O O7 0.545010 0.715191 0.592647
O O8 0.602414 0.586033 0.587478
O O9 0.671977 0.666336 0.894861
O O10 0.760621 0.577134 0.943777
O O11 0.809851 0.702127 0.915371
O O12 0.716623 0.689231 0.000000
O O13 0.132838 0.900415 0.195407
O O14 0.151410 0.926899 0.305930
O O15 0.022787 0.907071 0.266024
O O16 0.036328 0.845512 0.876689
O O17 0.459941 0.205898 0.500000
O O18 0.787619 0.594535 0.500000
O O19 0.740232 0.567462 0.394163
#
# Coordination Sequence:
#
# PCOD8317364 Si02
#       8
#    16  16  16  16  16  16  16  16
#     4   8  13  25  46  66  86 120 162 198 230 279
#     4  10  18  27  42  68  97 124 154 190 237 294
#     4   8  15  29  46  62  87 120 151 188 239 290
#     4   9  17  31  46  64  94 129 165 196 233 268
#     4  10  18  30  48  67  88 127 169 197 222 277
#     4   7  12  23  39  60  86 113 145 183 225 275
#     4   9  18  31  44  65  99 128 150 194 258 299
#     4  11  20  29  44  68  98 128 154 198 244 290
#
# _framework density 15.905939999999999
#
# number of rings (size 3 to 8) (size 9 to 14) (size 15 to 20)
#    0.000    3.000    1.250    3.375    0.000    2.500 
#    0.000    1.875    0.000    3.000    0.000    0.000 
#    0.000    9.000    0.000    0.000    0.000    0.000 
#
# Total GULP energy -1585722.982558 kJ/mol
# GULP energy per Si atom -12388.460801 kJ/mol
# Density = 1.586974 g / cm^3
# Si number density = 15.905940 Si / 1000 Ang^3
#
#
#
# Elastic Constant Matrix: (Units=GPa)
#
#
# Indices 1 2 3 4 5 6 
#
# 1 87.3512 43.1466 45.7161 0.0000 0.0000 0.0000
# 2 43.1466 87.3512 45.7161 0.0000 0.0000 0.0000
# 3 45.7161 45.7161 74.3995 0.0000 0.0000 0.0000
# 4 0.0000 0.0000 0.0000 18.0854 0.0000 0.0000
# 5 0.0000 0.0000 0.0000 0.0000 18.0854 0.0000
# 6 0.0000 0.0000 0.0000 0.0000 0.0000 18.6791
#
#
#
# Elastic Compliance Matrix: (Units=1/GPa)
#
#
# Indices 1 2 3 4 5 6 
#
# 1 0.018039 -0.004583 -0.008268 0.000000 0.000000 0.000000
# 2 -0.004583 0.018039 -0.008268 0.000000 0.000000 0.000000
# 3 -0.008268 -0.008268 0.023602 0.000000 0.000000 0.000000
# 4 0.000000 0.000000 0.000000 0.055293 0.000000 0.000000
# 5 0.000000 0.000000 0.000000 0.000000 0.055293 0.000000
# 6 0.000000 0.000000 0.000000 0.000000 0.000000 0.053536
#
#
# Mechanical properties :
#
#
# Convention : Reuss Voigt Hill
#
# Bulk Modulus (GPa) = 57.33598 57.58438 57.46018
# Shear Modulus (GPa) = 18.39214 18.60488 18.49851
#
# Velocity S-wave (km/s) = 3.40414 3.42377 3.41397
# Velocity P-wave (km/s) = 7.18165 7.20495 7.19331
#
# Compressibility (1/GPa) = 0.01744106
#
# Stress axis : x y z
#
# Youngs Moduli (GPa) = 55.43521 55.43521 42.36899
#
# Poissons Ratio (x) = 0.25406 0.35032
# Poissons Ratio (y) = 0.25406 0.35032
# Poissons Ratio (z) = 0.45836 0.45836
#
# Static dielectric constant tensor:
#      x y z
#    x 3.080240 0.000000 0.000000 
#    y 0.000000 3.080240 0.000000 
#    z 0.000000 0.000000 2.870100 
# 
# 
# High freq. dielectric constant tensor:
#      x y z
#    x 1.598150 0.000000 0.000000 
#    y 0.000000 1.598150 0.000000 
#    z 0.000000 0.000000 1.580170 
# 
# From -- ./inp_files/6248.got.cif
#   From: 2010.03.12/outbox.cif.g09.slc.cpg/sg135_4_cif.got.tgz:6248.got - 2010.04.06 18:31:24.
