data_PCOD8317659
_publ_section_title
;
Structure prediction by ZEFSAII (Michael W. Deem and Ramdas Pophale) SiO2 
 PCOD8317659
Probable space group: P 42/M B C
;
_chemical_formula_sum "Si O2"
_cell_formula_units_Z 44
_cell_length_a 14.061063
_cell_length_b 14.061063
_cell_length_c 9.610337
_cell_angle_alpha 90.000000
_cell_angle_beta 90.000000
_cell_angle_gamma 90.000000
_cell_volume 1900.093294
_symmetry_space_group_name_H-M "P 42/M B C"
_symmetry_group_IT_number 135
_symmetry_cell_setting 'tetragonal'
loop_
_space_group_symop_operation_xyz
x,y,z
-y,x,1/2+z
-x,-y,z
y,-x,1/2+z
1/2+x,1/2-y,-z
1/2-x,1/2+y,-z
1/2+y,1/2+x,1/2-z
1/2-y,1/2-x,1/2-z
-x,-y,-z
y,-x,1/2-z
x,y,-z
-y,x,1/2-z
1/2-x,1/2+y,z
1/2+x,1/2-y,z
1/2-y,1/2-x,1/2+z
1/2+y,1/2+x,1/2+z
loop_
_atom_site_type_symbol
_atom_site_label
_atom_site_fract_x
_atom_site_fract_y
_atom_site_fract_z
Si Si1 0.500000 0.500000 0.750000
Si Si2 0.208292 0.000000 0.800231
Si Si3 0.793782 0.353415 0.000000
Si Si4 0.206218 0.353415 0.000000
Si Si5 0.215079 0.500000 0.500000
O O1 0.500000 0.596786 0.658173
O O2 0.216663 0.000000 0.633923
O O3 0.258325 0.093342 0.861732
O O4 0.258325 0.906658 0.861732
O O5 0.750000 0.250000 0.000000
O O6 0.908006 0.352590 0.000000
O O7 0.091994 0.352590 0.000000
#
# Coordination Sequence:
#
# PCOD8317659 Si02
#       5
#     4  16   8   8   8
#     4  12  24  46  68 102 140 174 236 298 360 430
#     4  11  26  42  72 103 134 186 234 293 364 432
#     4  11  25  47  69 101 141 186 236 288 359 435
#     4  11  25  47  69 101 141 186 236 288 359 435
#     4  12  24  44  70 100 142 184 234 300 356 432
#
# _framework density 23.156756999999999
#
# number of rings (size 3 to 8) (size 9 to 14) (size 15 to 20)
#    0.000    0.727    0.000    6.545    0.000   12.364 
#    0.000    7.273    0.000    0.000    0.000    0.000 
#    0.000    0.000    0.000    0.000    0.000    0.000 
#
# Total GULP energy -545789.478753 kJ/mol
# GULP energy per Si atom -12404.306335 kJ/mol
# Density = 2.310405 g / cm^3
# Si number density = 23.156757 Si / 1000 Ang^3
#
#
#
# Elastic Constant Matrix: (Units=GPa)
#
#
# Indices 1 2 3 4 5 6 
#
# 1 223.2653 87.6549 57.3986 0.0000 0.0000 0.0000
# 2 87.6549 223.2653 57.3986 0.0000 0.0000 0.0000
# 3 57.3986 57.3986 182.9639 0.0000 0.0000 0.0000
# 4 0.0000 0.0000 0.0000 26.8024 0.0000 0.0000
# 5 0.0000 0.0000 0.0000 0.0000 26.8024 0.0000
# 6 0.0000 0.0000 0.0000 0.0000 0.0000 41.5619
#
#
#
# Elastic Compliance Matrix: (Units=1/GPa)
#
#
# Indices 1 2 3 4 5 6 
#
# 1 0.005506 -0.001868 -0.001141 0.000000 0.000000 0.000000
# 2 -0.001868 0.005506 -0.001141 0.000000 0.000000 0.000000
# 3 -0.001141 -0.001141 0.006182 0.000000 0.000000 0.000000
# 4 0.000000 0.000000 0.000000 0.037310 0.000000 0.000000
# 5 0.000000 0.000000 0.000000 0.000000 0.037310 0.000000
# 6 0.000000 0.000000 0.000000 0.000000 0.000000 0.024060
#
#
# Mechanical properties :
#
#
# Convention : Reuss Voigt Hill
#
# Bulk Modulus (GPa) = 112.45964 114.93320 113.69642
# Shear Modulus (GPa) = 39.32700 47.50283 43.41491
#
# Velocity S-wave (km/s) = 4.12551 4.53411 4.33462
# Velocity P-wave (km/s) = 8.44766 8.78358 8.61726
#
# Compressibility (1/GPa) = 0.00889208
#
# Stress axis : x y z
#
# Youngs Moduli (GPa) = 181.62553 181.62553 161.77135
#
# Poissons Ratio (x) = 0.33932 0.18461
# Poissons Ratio (y) = 0.33932 0.18461
# Poissons Ratio (z) = 0.20727 0.20727
#
# Static dielectric constant tensor:
#      x y z
#    x 4.413200 0.000000 0.000000 
#    y 0.000000 4.413200 0.000000 
#    z 0.000000 0.000000 4.075450 
# 
# 
# High freq. dielectric constant tensor:
#      x y z
#    x 1.930340 0.000000 0.000000 
#    y 0.000000 1.930340 0.000000 
#    z 0.000000 0.000000 1.915370 
# 
# From -- ./inp_files/1924.got.cif
#   From: 2010.03.12/outbox.cif.g09.slc.cpg/sg135_1_cif.got.tgz:1924.got - 2010.04.06 18:31:24.
