data_PCOD8317584
_publ_section_title
;
Structure prediction by ZEFSAII (Michael W. Deem and Ramdas Pophale) SiO2 
 PCOD8317584
Probable space group: P 42/M B C
;
_chemical_formula_sum "Si O2"
_cell_formula_units_Z 116
_cell_length_a 17.607247
_cell_length_b 17.607247
_cell_length_c 17.845322
_cell_angle_alpha 90.000000
_cell_angle_beta 90.000000
_cell_angle_gamma 90.000000
_cell_volume 5532.320122
_symmetry_space_group_name_H-M "P 42/M B C"
_symmetry_group_IT_number 135
_symmetry_cell_setting 'tetragonal'
loop_
_space_group_symop_operation_xyz
x,y,z
-y,x,1/2+z
-x,-y,z
y,-x,1/2+z
1/2+x,1/2-y,-z
1/2-x,1/2+y,-z
1/2+y,1/2+x,1/2-z
1/2-y,1/2-x,1/2-z
-x,-y,-z
y,-x,1/2-z
x,y,-z
-y,x,1/2-z
1/2-x,1/2+y,z
1/2+x,1/2-y,z
1/2-y,1/2-x,1/2+z
1/2+y,1/2+x,1/2+z
loop_
_atom_site_type_symbol
_atom_site_label
_atom_site_fract_x
_atom_site_fract_y
_atom_site_fract_z
Si Si1 0.557912 0.352104 0.829728
Si Si2 0.705767 0.393659 0.912880
Si Si3 0.560815 0.057344 0.587823
Si Si4 0.227363 0.446145 0.913806
Si Si5 0.161497 0.229003 0.287895
Si Si6 0.500000 0.500000 0.250000
Si Si7 0.660489 0.814249 0.171691
Si Si8 0.785997 0.486657 0.411763
O O1 0.619431 0.377407 0.891030
O O2 0.596183 0.309372 0.760798
O O3 0.510881 0.425372 0.801657
O O4 0.501194 0.292711 0.869065
O O5 0.721465 0.481462 0.894505
O O6 0.760600 0.340383 0.864867
O O7 0.718443 0.375638 0.000000
O O8 0.560961 0.041426 0.500000
O O9 0.532284 0.141222 0.607967
O O10 0.500000 0.000000 0.626082
O O11 0.648290 0.045722 0.614203
O O12 0.252561 0.373039 0.868462
O O13 0.233736 0.422196 0.000000
O O14 0.194191 0.305810 0.250000
O O15 0.227471 0.168502 0.301496
O O16 0.641256 0.858745 0.250000
O O17 0.594845 0.820927 0.110628
O O18 0.770040 0.488694 0.500000
#
# Coordination Sequence:
#
# PCOD8317584 Si02
#       8
#    16  16  16  16  16   4  16  16
#     4  12  24  45  66  98 132 182 235 282 351 411
#     4  11  23  42  68  96 131 172 223 281 338 400
#     4   9  18  36  60  91 130 168 206 257 330 401
#     4  10  22  38  63  94 125 166 213 269 330 400
#     4  11  22  41  64  93 127 165 218 277 338 396
#     4  12  28  44  70  92 140 196 226 300 360 424
#     4  11  23  41  63  97 129 174 216 273 338 405
#     4  11  24  41  67  99 135 178 226 283 344 414
#
# _framework density 20.967694999999999
#
# number of rings (size 3 to 8) (size 9 to 14) (size 15 to 20)
#    0.000    1.241    2.759    4.138    1.931    3.310 
#    0.000    2.759    0.000    0.000    0.000    0.000 
#    0.000    0.000    0.000    0.000    0.000    0.000 
#
# Total GULP energy -1438545.247295 kJ/mol
# GULP energy per Si atom -12401.252132 kJ/mol
# Density = 2.091997 g / cm^3
# Si number density = 20.967695 Si / 1000 Ang^3
#
#
#
# Elastic Constant Matrix: (Units=GPa)
#
#
# Indices 1 2 3 4 5 6 
#
# 1 80.9375 24.6860 30.9843 0.0000 0.0000 0.0000
# 2 24.6860 80.9365 30.9845 0.0000 0.0000 0.0000
# 3 30.9843 30.9845 85.7747 0.0000 0.0000 0.0000
# 4 0.0000 0.0000 0.0000 37.3406 0.0000 0.0000
# 5 0.0000 0.0000 0.0000 0.0000 37.3409 0.0000
# 6 0.0000 0.0000 0.0000 0.0000 0.0000 36.9218
#
#
#
# Elastic Compliance Matrix: (Units=1/GPa)
#
#
# Indices 1 2 3 4 5 6 
#
# 1 0.014895 -0.002882 -0.004340 0.000000 0.000000 0.000000
# 2 -0.002882 0.014896 -0.004340 0.000000 0.000000 0.000000
# 3 -0.004340 -0.004340 0.014794 0.000000 0.000000 0.000000
# 4 0.000000 0.000000 0.000000 0.026780 0.000000 0.000000
# 5 0.000000 0.000000 0.000000 0.000000 0.026780 0.000000
# 6 0.000000 0.000000 0.000000 0.000000 0.000000 0.027084
#
#
# Mechanical properties :
#
#
# Convention : Reuss Voigt Hill
#
# Bulk Modulus (GPa) = 46.59330 46.77314 46.68322
# Shear Modulus (GPa) = 32.15296 33.05359 32.60328
#
# Velocity S-wave (km/s) = 3.92018 3.97470 3.94754
# Velocity P-wave (km/s) = 6.53912 6.58939 6.56430
#
# Compressibility (1/GPa) = 0.02146231
#
# Stress axis : x y z
#
# Youngs Moduli (GPa) = 67.13447 67.13338 67.59625
#
# Poissons Ratio (x) = 0.19347 0.29334
# Poissons Ratio (y) = 0.19347 0.29335
# Poissons Ratio (z) = 0.29134 0.29134
#
# Static dielectric constant tensor:
#      x y z
#    x 3.820470 0.000000 0.000000 
#    y 0.000000 3.820470 0.000000 
#    z 0.000000 0.000000 3.785650 
# 
# 
# High freq. dielectric constant tensor:
#      x y z
#    x 1.823390 0.000000 0.000000 
#    y 0.000000 1.823390 0.000000 
#    z 0.000000 0.000000 1.820910 
# 
# From -- ./inp_files/4599.got.cif
#   From: 2010.03.12/outbox.cif.g09.slc.cpg/sg135_3_cif.got.tgz:4599.got - 2010.04.06 18:31:24.
