data_PCOD8317061
_publ_section_title
;
Structure prediction by ZEFSAII (Michael W. Deem and Ramdas Pophale) SiO2 
 PCOD8317061
Probable space group: P 42/N B C
;
_chemical_formula_sum "Si O2"
_cell_formula_units_Z 64
_cell_length_a 10.264034
_cell_length_b 10.264034
_cell_length_c 25.637929
_cell_angle_alpha 90.000000
_cell_angle_beta 90.000000
_cell_angle_gamma 90.000000
_cell_volume 2700.965920
_symmetry_space_group_name_H-M "P 42/N B C"
_symmetry_group_IT_number 133
_space_group.IT_coordinate_system_code '2'
_symmetry_cell_setting 'tetragonal'
loop_
_space_group_symop_operation_xyz
x,y,z
1/2-y,x,1/2+z
1/2-x,1/2-y,z
y,1/2-x,1/2+z
x,1/2-y,-z
1/2-x,y,-z
y,x,1/2-z
1/2-y,1/2-x,1/2-z
-x,-y,-z
1/2+y,-x,1/2-z
1/2+x,1/2+y,-z
-y,1/2+x,1/2-z
-x,1/2+y,z
1/2+x,-y,z
-y,-x,1/2+z
1/2+y,1/2+x,1/2+z
loop_
_atom_site_type_symbol
_atom_site_label
_atom_site_fract_x
_atom_site_fract_y
_atom_site_fract_z
Si Si1 0.602489 0.108198 0.480935
Si Si2 0.253575 0.399317 0.664585
Si Si3 0.478059 0.570079 0.366512
Si Si4 0.547773 0.281175 0.736713
O O1 0.558868 0.250000 0.500000
O O2 0.750000 0.074299 0.500000
O O3 0.590130 0.120138 0.418810
O O4 0.500000 0.000000 0.500000
O O5 0.250000 0.250000 0.649931
O O6 0.109983 0.451443 0.652506
O O7 0.367953 0.467800 0.628721
O O8 0.281629 0.421198 0.726106
O O9 0.483115 0.684705 0.322962
O O10 0.640589 0.386606 0.764084
#
# Coordination Sequence:
#
# PCOD8317061 Si02
#       4
#    16  16  16  16
#     4  11  27  49  77 108 144 192 254 317 369 441
#     4  11  26  45  73 111 148 195 245 300 372 464
#     4  11  25  47  74 102 149 191 242 299 380 427
#     4   9  21  41  68 103 144 190 232 288 358 453
#
# _framework density 23.695226000000002
#
# number of rings (size 3 to 8) (size 9 to 14) (size 15 to 20)
#    0.000    1.500    0.000    2.250    7.000   10.500 
#    4.500    0.000    0.000    0.000    0.000    0.000 
#    0.000    0.000    0.000    0.000    0.000    0.000 
#
# Total GULP energy -793162.038432 kJ/mol
# GULP energy per Si atom -12393.156850 kJ/mol
# Density = 2.364129 g / cm^3
# Si number density = 23.695226 Si / 1000 Ang^3
#
#
#
# Elastic Constant Matrix: (Units=GPa)
#
#
# Indices 1 2 3 4 5 6 
#
# 1 155.8329 62.5188 39.3851 0.0000 0.0000 0.0000
# 2 62.5188 155.8329 39.3851 0.0000 0.0000 0.0000
# 3 39.3851 39.3851 148.6514 0.0000 0.0000 0.0000
# 4 0.0000 0.0000 0.0000 21.2629 0.0000 0.0000
# 5 0.0000 0.0000 0.0000 0.0000 21.2629 0.0000
# 6 0.0000 0.0000 0.0000 0.0000 0.0000 34.7661
#
#
#
# Elastic Compliance Matrix: (Units=1/GPa)
#
#
# Indices 1 2 3 4 5 6 
#
# 1 0.007890 -0.002826 -0.001342 0.000000 0.000000 0.000000
# 2 -0.002826 0.007890 -0.001342 0.000000 0.000000 0.000000
# 3 -0.001342 -0.001342 0.007438 0.000000 0.000000 0.000000
# 4 0.000000 0.000000 0.000000 0.047030 0.000000 0.000000
# 5 0.000000 0.000000 0.000000 0.000000 0.047030 0.000000
# 6 0.000000 0.000000 0.000000 0.000000 0.000000 0.028764
#
#
# Mechanical properties :
#
#
# Convention : Reuss Voigt Hill
#
# Bulk Modulus (GPa) = 81.97364 82.54392 82.25878
# Shear Modulus (GPa) = 31.03121 36.72693 33.87907
#
# Velocity S-wave (km/s) = 3.62276 3.94124 3.78535
# Velocity P-wave (km/s) = 7.22283 7.45805 7.34138
#
# Compressibility (1/GPa) = 0.01219904
#
# Stress axis : x y z
#
# Youngs Moduli (GPa) = 126.74067 126.74067 134.44326
#
# Poissons Ratio (x) = 0.35822 0.18037
# Poissons Ratio (y) = 0.35822 0.18037
# Poissons Ratio (z) = 0.17004 0.17004
#
# Static dielectric constant tensor:
#      x y z
#    x 4.555930 0.000000 0.000000 
#    y 0.000000 4.555930 0.000000 
#    z 0.000000 0.000000 4.283900 
# 
# 
# High freq. dielectric constant tensor:
#      x y z
#    x 1.951200 0.000000 0.000000 
#    y 0.000000 1.951200 0.000000 
#    z 0.000000 0.000000 1.927810 
# 
# From -- ./inp_files/6971.got.cif
#   From: 2010.03.12/outbox.cif.g09.slc.cpg/sg133_4_cif.got.tgz:6971.got - 2010.04.06 18:08:06.
