data_PCOD8317154
_publ_section_title
;
Structure prediction by ZEFSAII (Michael W. Deem and Ramdas Pophale) SiO2 
 PCOD8317154
Probable space group: P 42/N N M
;
_chemical_formula_sum "Si O2"
_cell_formula_units_Z 128
_cell_length_a 17.753930
_cell_length_b 17.753930
_cell_length_c 22.055826
_cell_angle_alpha 90.000000
_cell_angle_beta 90.000000
_cell_angle_gamma 90.000000
_cell_volume 6952.041138
_symmetry_space_group_name_H-M "P 42/N N M"
_symmetry_group_IT_number 134
_space_group.IT_coordinate_system_code '2'
_symmetry_cell_setting 'tetragonal'
loop_
_space_group_symop_operation_xyz
x,y,z
1/2-y,x,1/2+z
1/2-x,1/2-y,z
y,1/2-x,1/2+z
x,1/2-y,1/2-z
1/2-x,y,1/2-z
y,x,-z
1/2-y,1/2-x,-z
-x,-y,-z
1/2+y,-x,1/2-z
1/2+x,1/2+y,-z
-y,1/2+x,1/2-z
-x,1/2+y,1/2+z
1/2+x,-y,1/2+z
-y,-x,z
1/2+y,1/2+x,z
loop_
_atom_site_type_symbol
_atom_site_label
_atom_site_fract_x
_atom_site_fract_y
_atom_site_fract_z
Si Si1 0.518609 0.896818 0.316632
Si Si2 0.394668 0.014277 0.833365
Si Si3 0.873695 0.752155 0.496707
Si Si4 0.874560 0.248946 0.495609
Si Si5 0.635990 0.483886 0.687321
Si Si6 0.950399 0.822908 0.783878
Si Si7 0.999080 0.232578 0.903164
Si Si8 0.748557 0.995933 0.096225
O O1 0.481036 0.853187 0.259939
O O2 0.609288 0.896509 0.306373
O O3 0.500077 0.853011 0.378696
O O4 0.481060 0.981060 0.320658
O O5 0.440285 0.091384 0.829048
O O6 0.356165 0.995164 0.768328
O O7 0.337011 0.022534 0.887817
O O8 0.445748 0.945748 0.852436
O O9 0.834603 0.834603 0.500000
O O10 0.810361 0.689639 0.500000
O O11 0.921368 0.750558 0.434775
O O12 0.928933 0.729316 0.551330
O O13 0.830160 0.169841 0.497025
O O14 0.818006 0.318006 0.498199
O O15 0.929519 0.253745 0.552636
O O16 0.922321 0.255848 0.434024
O O17 0.589149 0.410852 0.665120
O O18 0.715623 0.486953 0.655152
O O19 0.909522 0.750000 0.750000
O O20 0.997154 0.798680 0.843032
#
# Coordination Sequence:
#
# PCOD8317154 Si02
#       8
#    16  16  16  16  16  16  16  16
#     4  10  20  34  53  78 107 136 169 213 260 309
#     4   9  17  31  52  77 102 127 158 202 256 309
#     4  10  21  35  50  71 101 135 169 209 254 298
#     4  10  22  37  51  71 100 134 174 221 266 304
#     4   9  18  32  52  78 104 129 162 208 260 311
#     4   9  18  32  52  77 104 132 163 202 252 308
#     4  11  20  34  55  74  99 136 177 213 255 312
#     4  10  19  33  53  74  97 131 171 207 249 307
#
# _framework density 18.411859
#
# number of rings (size 3 to 8) (size 9 to 14) (size 15 to 20)
#    0.000    2.250    0.000    4.125    0.000    1.000 
#    0.000    0.000    0.000   16.125    0.000   11.375 
#    0.000    0.000    0.000    0.000    0.000    0.000 
#
# Total GULP energy -1586291.424585 kJ/mol
# GULP energy per Si atom -12392.901755 kJ/mol
# Density = 1.836995 g / cm^3
# Si number density = 18.411859 Si / 1000 Ang^3
#
#
#
# Elastic Constant Matrix: (Units=GPa)
#
#
# Indices 1 2 3 4 5 6 
#
# 1 91.6424 33.6298 36.8132 0.0000 0.0000 0.0000
# 2 33.6298 91.6412 36.8129 0.0000 0.0000 0.0000
# 3 36.8132 36.8129 86.0050 0.0000 0.0000 0.0000
# 4 0.0000 0.0000 0.0000 23.5377 0.0000 0.0000
# 5 0.0000 0.0000 0.0000 0.0000 23.5368 0.0000
# 6 0.0000 0.0000 0.0000 0.0000 0.0000 14.7328
#
#
#
# Elastic Compliance Matrix: (Units=1/GPa)
#
#
# Indices 1 2 3 4 5 6 
#
# 1 0.013952 -0.003286 -0.004565 0.000000 0.000000 0.000000
# 2 -0.003286 0.013952 -0.004565 0.000000 0.000000 0.000000
# 3 -0.004565 -0.004565 0.015535 0.000000 0.000000 0.000000
# 4 0.000000 0.000000 0.000000 0.042485 0.000000 0.000000
# 5 0.000000 0.000000 0.000000 0.000000 0.042487 0.000000
# 6 0.000000 0.000000 0.000000 0.000000 0.000000 0.067876
#
#
# Mechanical properties :
#
#
# Convention : Reuss Voigt Hill
#
# Bulk Modulus (GPa) = 53.74668 53.75560 53.75114
# Shear Modulus (GPa) = 21.99525 23.16364 22.57944
#
# Velocity S-wave (km/s) = 3.46008 3.55079 3.50573
# Velocity P-wave (km/s) = 6.72440 6.78752 6.75604
#
# Compressibility (1/GPa) = 0.01860580
#
# Stress axis : x y z
#
# Youngs Moduli (GPa) = 71.67559 71.67468 64.36881
#
# Poissons Ratio (x) = 0.23552 0.29387
# Poissons Ratio (y) = 0.23552 0.29387
# Poissons Ratio (z) = 0.32722 0.32722
#
# Static dielectric constant tensor:
#      x y z
#    x 3.380740 0.000000 0.000000 
#    y 0.000000 3.380750 0.000000 
#    z 0.000000 0.000000 3.483710 
# 
# 
# High freq. dielectric constant tensor:
#      x y z
#    x 1.707420 0.000000 0.000000 
#    y 0.000000 1.707420 0.000000 
#    z 0.000000 0.000000 1.724120 
# 
# From -- ./inp_files/10312.got.cif
#   From: 2010.03.12/outbox.cif.g09.slc.cpg/sg134_6_cif.got.tgz:10312.got - 2010.04.06 18:17:22.
