data_PCOD8317699
_publ_section_title
;
Structure prediction by ZEFSAII (Michael W. Deem and Ramdas Pophale) SiO2 
 PCOD8317699
Probable space group: P 42/M N M
;
_chemical_formula_sum "Si O2"
_cell_formula_units_Z 96
_cell_length_a 18.648375
_cell_length_b 18.648375
_cell_length_c 20.247009
_cell_angle_alpha 90.000000
_cell_angle_beta 90.000000
_cell_angle_gamma 90.000000
_cell_volume 7041.138120
_symmetry_space_group_name_H-M "P 42/M N M"
_symmetry_group_IT_number 136
_symmetry_cell_setting 'tetragonal'
loop_
_space_group_symop_operation_xyz
x,y,z
1/2-y,1/2+x,1/2+z
-x,-y,z
1/2+y,1/2-x,1/2+z
1/2+x,1/2-y,1/2-z
1/2-x,1/2+y,1/2-z
y,x,-z
-y,-x,-z
-x,-y,-z
1/2+y,1/2-x,1/2-z
x,y,-z
1/2-y,1/2+x,1/2-z
1/2-x,1/2+y,1/2+z
1/2+x,1/2-y,1/2+z
-y,-x,z
y,x,z
loop_
_atom_site_type_symbol
_atom_site_label
_atom_site_fract_x
_atom_site_fract_y
_atom_site_fract_z
Si Si1 0.560331 0.095951 0.500000
Si Si2 0.814730 0.465242 0.377709
Si Si3 0.056383 0.394888 0.500000
Si Si4 0.781316 0.218685 0.921181
Si Si5 0.940688 0.599701 0.250938
Si Si6 0.351827 0.870610 0.121416
Si Si7 0.545258 0.336977 0.423808
Si Si8 0.899483 0.100518 0.077108
O O1 0.575224 0.141817 0.565183
O O2 0.478966 0.070440 0.500000
O O3 0.615538 0.029318 0.500000
O O4 0.845450 0.437882 0.308980
O O5 0.816476 0.551186 0.387033
O O6 0.733182 0.439649 0.380925
O O7 0.089682 0.357820 0.435524
O O8 0.808507 0.291874 0.886334
O O9 0.840602 0.159399 0.906287
O O10 0.770545 0.229456 0.000000
O O11 0.910192 0.523115 0.226063
O O12 0.892783 0.633834 0.308872
O O13 0.530707 0.315033 0.500000
O O14 0.613925 0.386076 0.416729
O O15 0.475976 0.376638 0.393005
O O16 0.910558 0.089443 0.000000
#
# Coordination Sequence:
#
# PCOD8317699 Si02
#       8
#     8  16   8   8  16  16  16   8
#     4   9  16  24  41  62  80  99 135 172 207 243
#     4  10  17  28  43  60  82 111 139 176 210 247
#     4   9  16  25  40  62  79 101 133 172 209 246
#     4  11  18  27  44  65  86 111 139 180 220 260
#     4   9  18  31  45  61  84 113 145 178 213 256
#     4  10  18  28  43  60  84 110 140 175 214 253
#     4  10  18  28  41  60  84 110 141 174 207 246
#     4   9  17  26  43  60  82 110 139 171 206 246
#
# _framework density 13.634159
#
# number of rings (size 3 to 8) (size 9 to 14) (size 15 to 20)
#    0.000    2.333    3.333    1.250    0.000    5.000 
#    1.500    0.000    0.000    0.000    0.000    0.000 
#    0.000    0.000    0.000    0.000    0.000    0.000 
#
# Total GULP energy -1190165.086572 kJ/mol
# GULP energy per Si atom -12397.552985 kJ/mol
# Density = 1.360313 g / cm^3
# Si number density = 13.634159 Si / 1000 Ang^3
#
#
#
# Elastic Constant Matrix: (Units=GPa)
#
#
# Indices 1 2 3 4 5 6 
#
# 1 81.6653 46.1408 46.3327 0.0000 0.0000 0.0000
# 2 46.1408 81.6659 46.3326 0.0000 0.0000 0.0000
# 3 46.3327 46.3326 80.0898 0.0000 0.0000 0.0000
# 4 0.0000 0.0000 0.0000 14.0838 0.0000 0.0000
# 5 0.0000 0.0000 0.0000 0.0000 14.0839 0.0000
# 6 0.0000 0.0000 0.0000 0.0000 0.0000 19.9069
#
#
#
# Elastic Compliance Matrix: (Units=1/GPa)
#
#
# Indices 1 2 3 4 5 6 
#
# 1 0.020813 -0.007336 -0.007797 0.000000 0.000000 0.000000
# 2 -0.007336 0.020813 -0.007797 0.000000 0.000000 0.000000
# 3 -0.007797 -0.007797 0.021507 0.000000 0.000000 0.000000
# 4 0.000000 0.000000 0.000000 0.071003 0.000000 0.000000
# 5 0.000000 0.000000 0.000000 0.000000 0.071003 0.000000
# 6 0.000000 0.000000 0.000000 0.000000 0.000000 0.050234
#
#
# Mechanical properties :
#
#
# Convention : Reuss Voigt Hill
#
# Bulk Modulus (GPa) = 57.88844 57.89259 57.89052
# Shear Modulus (GPa) = 16.28710 16.58924 16.43817
#
# Velocity S-wave (km/s) = 3.46002 3.49197 3.47603
# Velocity P-wave (km/s) = 7.64937 7.66890 7.65914
#
# Compressibility (1/GPa) = 0.01727460
#
# Stress axis : x y z
#
# Youngs Moduli (GPa) = 48.04577 48.04641 46.49658
#
# Poissons Ratio (x) = 0.35247 0.36253
# Poissons Ratio (y) = 0.35246 0.36252
# Poissons Ratio (z) = 0.37461 0.37460
#
# Static dielectric constant tensor:
#      x y z
#    x 2.616570 0.000000 0.000000 
#    y 0.000000 2.616570 0.000000 
#    z 0.000000 0.000000 2.564930 
# 
# 
# High freq. dielectric constant tensor:
#      x y z
#    x 1.505270 0.000000 0.000000 
#    y 0.000000 1.505270 0.000000 
#    z 0.000000 0.000000 1.503330 
# 
# From -- ./inp_files/7716.got.cif
#   From: 2010.03.12/outbox.cif.g09.slc.cpg/sg136_4_cif.got.tgz:7716.got - 2010.04.06 18:39:43.
