data_PCOD8317717
_publ_section_title
;
Structure prediction by ZEFSAII (Michael W. Deem and Ramdas Pophale) SiO2 
 PCOD8317717
Probable space group: P 42/M N M
;
_chemical_formula_sum "Si O2"
_cell_formula_units_Z 104
_cell_length_a 26.055219
_cell_length_b 26.055219
_cell_length_c 9.404595
_cell_angle_alpha 90.000000
_cell_angle_beta 90.000000
_cell_angle_gamma 90.000000
_cell_volume 6384.539137
_symmetry_space_group_name_H-M "P 42/M N M"
_symmetry_group_IT_number 136
_symmetry_cell_setting 'tetragonal'
loop_
_space_group_symop_operation_xyz
x,y,z
1/2-y,1/2+x,1/2+z
-x,-y,z
1/2+y,1/2-x,1/2+z
1/2+x,1/2-y,1/2-z
1/2-x,1/2+y,1/2-z
y,x,-z
-y,-x,-z
-x,-y,-z
1/2+y,1/2-x,1/2-z
x,y,-z
1/2-y,1/2+x,1/2-z
1/2-x,1/2+y,1/2+z
1/2+x,1/2-y,1/2+z
-y,-x,z
y,x,z
loop_
_atom_site_type_symbol
_atom_site_label
_atom_site_fract_x
_atom_site_fract_y
_atom_site_fract_z
Si Si1 0.542344 0.542344 0.168829
Si Si2 0.224466 0.618760 0.833977
Si Si3 0.381498 0.618503 0.658321
Si Si4 0.978201 0.753968 0.164189
Si Si5 0.864780 0.000538 0.838316
Si Si6 0.357498 0.989122 0.834321
Si Si7 0.113909 0.587075 0.833178
Si Si8 0.310108 0.689893 0.834488
O O1 0.500000 0.500000 0.217642
O O2 0.529372 0.598359 0.229176
O O3 0.545290 0.545290 0.000000
O O4 0.254715 0.573857 0.753993
O O5 0.164602 0.619744 0.790258
O O6 0.251613 0.673438 0.792832
O O7 0.229793 0.607004 0.000000
O O8 0.364947 0.635054 0.500000
O O9 0.371440 0.559321 0.683999
O O10 0.349567 0.650434 0.768988
O O11 0.011292 0.703259 0.200271
O O12 0.012440 0.804684 0.196988
O O13 0.961166 0.754529 0.000000
O O14 0.878551 0.017034 0.000000
O O15 0.386893 0.033155 0.748135
O O16 0.379582 0.934599 0.784378
O O17 0.367818 0.999003 0.000000
O O18 0.112503 0.575142 0.000000
O O19 0.317223 0.682778 0.000000
#
# Coordination Sequence:
#
# PCOD8317717 Si02
#       8
#     8  16   8  16  16  16  16   8
#     4  11  23  33  43  62  89 121 156 192 229 270
#     4   9  17  28  43  65  93 121 147 178 223 274
#     4  10  18  27  43  66  90 119 148 182 230 279
#     4   9  17  30  48  68  88 115 151 188 225 268
#     4  10  19  31  46  63  88 120 152 187 230 275
#     4   9  18  32  50  71  95 122 153 190 228 271
#     4   9  18  32  48  68  96 126 154 187 228 274
#     4  10  18  26  41  66  93 119 146 183 226 273
#
# _framework density 16.289352000000001
#
# number of rings (size 3 to 8) (size 9 to 14) (size 15 to 20)
#    0.000    2.538    2.308    0.231    0.000    2.462 
#    0.000    1.538    0.000    0.923    0.000    5.385 
#    0.000    1.231    0.000    0.000    0.000    0.000 
#
# Total GULP energy -1289053.995047 kJ/mol
# GULP energy per Si atom -12394.749952 kJ/mol
# Density = 1.625228 g / cm^3
# Si number density = 16.289352 Si / 1000 Ang^3
#
#
#
# Elastic Constant Matrix: (Units=GPa)
#
#
# Indices 1 2 3 4 5 6 
#
# 1 106.3809 73.1960 38.8095 0.0000 0.0000 0.0000
# 2 73.1960 106.3809 38.8079 0.0000 0.0000 0.0000
# 3 38.8095 38.8079 39.3625 0.0000 0.0000 0.0000
# 4 0.0000 0.0000 0.0000 22.8493 0.0000 0.0000
# 5 0.0000 0.0000 0.0000 0.0000 22.8490 0.0000
# 6 0.0000 0.0000 0.0000 0.0000 0.0000 26.3050
#
#
#
# Elastic Compliance Matrix: (Units=1/GPa)
#
#
# Indices 1 2 3 4 5 6 
#
# 1 0.019919 -0.010215 -0.009568 0.000000 0.000000 0.000000
# 2 -0.010215 0.019919 -0.009566 0.000000 0.000000 0.000000
# 3 -0.009568 -0.009566 0.044270 0.000000 0.000000 0.000000
# 4 0.000000 0.000000 0.000000 0.043765 0.000000 0.000000
# 5 0.000000 0.000000 0.000000 0.000000 0.043766 0.000000
# 6 0.000000 0.000000 0.000000 0.000000 0.000000 0.038016
#
#
# Mechanical properties :
#
#
# Convention : Reuss Voigt Hill
#
# Bulk Modulus (GPa) = 39.35654 61.52790 50.44222
# Shear Modulus (GPa) = 18.06203 21.15474 19.60839
#
# Velocity S-wave (km/s) = 3.33351 3.60764 3.47328
# Velocity P-wave (km/s) = 6.24738 7.43016 6.86429
#
# Compressibility (1/GPa) = 0.02540874
#
# Stress axis : x y z
#
# Youngs Moduli (GPa) = 50.20207 50.20432 22.58847
#
# Poissons Ratio (x) = 0.51285 0.21614
# Poissons Ratio (y) = 0.51282 0.21609
# Poissons Ratio (z) = 0.48035 0.48027
#
# Static dielectric constant tensor:
#      x y z
#    x 3.147270 0.000000 0.000000 
#    y 0.000000 3.147270 0.000000 
#    z 0.000000 0.000000 3.078830 
# 
# 
# High freq. dielectric constant tensor:
#      x y z
#    x 1.615100 0.000000 0.000000 
#    y 0.000000 1.615100 0.000000 
#    z 0.000000 0.000000 1.626150 
# 
# From -- ./inp_files/2260.got.cif
#   From: 2010.03.12/outbox.cif.g09.slc.cpg/sg136_2_cif.got.tgz:2260.got - 2010.04.06 18:39:43.
