data_PCOD8317919
_publ_section_title
;
Structure prediction by ZEFSAII (Michael W. Deem and Ramdas Pophale) SiO2 
 PCOD8317919
Probable space group: P 42/M N M
;
_chemical_formula_sum "Si O2"
_cell_formula_units_Z 112
_cell_length_a 19.124642
_cell_length_b 19.124642
_cell_length_c 17.685072
_cell_angle_alpha 90.000000
_cell_angle_beta 90.000000
_cell_angle_gamma 90.000000
_cell_volume 6468.349245
_symmetry_space_group_name_H-M "P 42/M N M"
_symmetry_group_IT_number 136
_symmetry_cell_setting 'tetragonal'
loop_
_space_group_symop_operation_xyz
x,y,z
1/2-y,1/2+x,1/2+z
-x,-y,z
1/2+y,1/2-x,1/2+z
1/2+x,1/2-y,1/2-z
1/2-x,1/2+y,1/2-z
y,x,-z
-y,-x,-z
-x,-y,-z
1/2+y,1/2-x,1/2-z
x,y,-z
1/2-y,1/2+x,1/2-z
1/2-x,1/2+y,1/2+z
1/2+x,1/2-y,1/2+z
-y,-x,z
y,x,z
loop_
_atom_site_type_symbol
_atom_site_label
_atom_site_fract_x
_atom_site_fract_y
_atom_site_fract_z
Si Si1 0.900467 0.615643 0.089448
Si Si2 0.001622 0.112525 0.282374
Si Si3 0.787694 0.003183 0.414118
Si Si4 0.645575 0.757900 0.849646
Si Si5 0.051733 0.668819 0.910637
Si Si6 0.706689 0.593731 0.692483
Si Si7 0.634157 0.963215 0.412018
O O1 0.838874 0.658554 0.130666
O O2 0.899437 0.535291 0.119662
O O3 0.972163 0.652717 0.112115
O O4 0.887156 0.616852 0.000000
O O5 0.067014 0.067014 0.252405
O O6 0.025019 0.152836 0.358140
O O7 0.977021 0.165823 0.217139
O O8 0.936358 0.063643 0.304849
O O9 0.811990 0.989869 0.500000
O O10 0.716777 0.960705 0.395794
O O11 0.774022 0.085485 0.403089
O O12 0.717100 0.717100 0.865875
O O13 0.622873 0.750744 0.762746
O O14 0.075362 0.741752 0.875227
O O15 0.098409 0.605499 0.876239
O O16 0.061046 0.676319 0.000000
O O17 0.651756 0.651756 0.663411
O O18 0.617027 0.961395 0.500000
#
# Coordination Sequence:
#
# PCOD8317919 Si02
#       7
#    16  16  16  16  16  16  16
#     4   9  17  30  50  76 103 131 163 199 241 293
#     4   9  18  33  52  71  95 131 166 199 247 297
#     4   9  16  27  47  75 103 132 165 196 229 283
#     4   9  17  31  48  69 102 138 164 193 241 298
#     4  10  19  33  54  74  95 127 167 213 255 290
#     4   9  19  36  53  69  94 127 168 210 246 298
#     4   8  15  29  49  71  99 132 159 188 234 291
#
# _framework density 17.315083000000001
#
# number of rings (size 3 to 8) (size 9 to 14) (size 15 to 20)
#    0.000    3.000    0.000    3.000    0.000    4.286 
#    7.714    2.143    0.000    3.857    0.000    2.000 
#    0.000    0.000    0.000    0.000    0.000    0.000 
#
# Total GULP energy -1388535.729170 kJ/mol
# GULP energy per Si atom -12397.640439 kJ/mol
# Density = 1.727567 g / cm^3
# Si number density = 17.315083 Si / 1000 Ang^3
#
#
#
# Elastic Constant Matrix: (Units=GPa)
#
#
# Indices 1 2 3 4 5 6 
#
# 1 109.4154 66.6250 42.8469 0.0000 0.0000 0.0000
# 2 66.6250 109.4154 42.8469 0.0000 0.0000 0.0000
# 3 42.8469 42.8469 40.8476 0.0000 0.0000 0.0000
# 4 0.0000 0.0000 0.0000 23.3097 0.0000 0.0000
# 5 0.0000 0.0000 0.0000 0.0000 23.3097 0.0000
# 6 0.0000 0.0000 0.0000 0.0000 0.0000 26.8325
#
#
#
# Elastic Compliance Matrix: (Units=1/GPa)
#
#
# Indices 1 2 3 4 5 6 
#
# 1 0.017489 -0.005881 -0.012175 0.000000 0.000000 0.000000
# 2 -0.005881 0.017489 -0.012175 0.000000 0.000000 0.000000
# 3 -0.012175 -0.012175 0.050024 0.000000 0.000000 0.000000
# 4 0.000000 0.000000 0.000000 0.042901 0.000000 0.000000
# 5 0.000000 0.000000 0.000000 0.000000 0.042901 0.000000
# 6 0.000000 0.000000 0.000000 0.000000 0.000000 0.037268
#
#
# Mechanical properties :
#
#
# Convention : Reuss Voigt Hill
#
# Bulk Modulus (GPa) = 40.75504 62.70178 51.72841
# Shear Modulus (GPa) = 18.06921 21.84767 19.95844
#
# Velocity S-wave (km/s) = 3.23391 3.55600 3.39877
# Velocity P-wave (km/s) = 6.12639 7.29047 6.73363
#
# Compressibility (1/GPa) = 0.02453684
#
# Stress axis : x y z
#
# Youngs Moduli (GPa) = 57.18025 57.18025 19.99040
#
# Poissons Ratio (x) = 0.33629 0.24339
# Poissons Ratio (y) = 0.33629 0.24339
# Poissons Ratio (z) = 0.69620 0.69620
#
# Static dielectric constant tensor:
#      x y z
#    x 3.257320 0.000000 0.000000 
#    y 0.000000 3.257320 0.000000 
#    z 0.000000 0.000000 2.916990 
# 
# 
# High freq. dielectric constant tensor:
#      x y z
#    x 1.663090 0.000000 0.000000 
#    y 0.000000 1.663090 0.000000 
#    z 0.000000 0.000000 1.640510 
# 
# From -- ./inp_files/7762.got.cif
#   From: 2010.03.12/outbox.cif.g09.slc.cpg/sg136_4_cif.got.tgz:7762.got - 2010.04.06 18:39:43.
