data_PCOD8317547
_publ_section_title
;
Structure prediction by ZEFSAII (Michael W. Deem and Ramdas Pophale) SiO2 
 PCOD8317547
Probable space group: P 42/M B C
;
_chemical_formula_sum "Si O2"
_cell_formula_units_Z 112
_cell_length_a 15.453452
_cell_length_b 15.453452
_cell_length_c 22.511571
_cell_angle_alpha 90.000000
_cell_angle_beta 90.000000
_cell_angle_gamma 90.000000
_cell_volume 5375.969782
_symmetry_space_group_name_H-M "P 42/M B C"
_symmetry_group_IT_number 135
_symmetry_cell_setting 'tetragonal'
loop_
_space_group_symop_operation_xyz
x,y,z
-y,x,1/2+z
-x,-y,z
y,-x,1/2+z
1/2+x,1/2-y,-z
1/2-x,1/2+y,-z
1/2+y,1/2+x,1/2-z
1/2-y,1/2-x,1/2-z
-x,-y,-z
y,-x,1/2-z
x,y,-z
-y,x,1/2-z
1/2-x,1/2+y,z
1/2+x,1/2-y,z
1/2-y,1/2-x,1/2+z
1/2+y,1/2+x,1/2+z
loop_
_atom_site_type_symbol
_atom_site_label
_atom_site_fract_x
_atom_site_fract_y
_atom_site_fract_z
Si Si1 0.452240 0.757161 0.137022
Si Si2 0.262892 0.609721 0.564755
Si Si3 0.527656 0.740344 0.644094
Si Si4 0.863564 0.994490 0.256221
Si Si5 0.443406 0.920789 0.319787
Si Si6 0.458835 0.588310 0.566523
Si Si7 0.693148 0.712938 0.569348
O O1 0.544672 0.785584 0.109134
O O2 0.467367 0.685326 0.187146
O O3 0.413647 0.844988 0.160783
O O4 0.382086 0.720393 0.090587
O O5 0.218546 0.601323 0.500000
O O6 0.358137 0.570812 0.562716
O O7 0.264469 0.711889 0.581800
O O8 0.545964 0.703214 0.709547
O O9 0.484681 0.832871 0.655336
O O10 0.470711 0.672031 0.607356
O O11 0.614428 0.751800 0.606991
O O12 0.928237 0.917508 0.275664
O O13 0.436248 0.936248 0.250000
O O14 0.500000 0.000000 0.346801
O O15 0.500000 0.500000 0.593843
O O16 0.497115 0.604985 0.500000
O O17 0.669951 0.704785 0.500000
#
# Coordination Sequence:
#
# PCOD8317547 Si02
#       7
#    16  16  16  16  16  16  16
#     4  12  22  43  67  95 128 182 220 273 343 401
#     4  10  22  40  61  92 127 163 214 272 323 390
#     4  12  22  41  63  94 129 173 219 274 332 405
#     4  11  24  39  61  98 138 168 212 274 337 399
#     4  11  25  44  65  90 132 181 236 287 337 404
#     4  10  21  37  63  96 129 166 208 264 339 410
#     4  11  24  42  67  98 132 172 221 277 339 409
#
# _framework density 20.833449000000002
#
# number of rings (size 3 to 8) (size 9 to 14) (size 15 to 20)
#    0.000    1.000    2.857    4.286    2.000    1.143 
#    0.000    2.143    0.000    5.143    0.000    0.000 
#    0.000    0.000    0.000    0.000    0.000    0.000 
#
# Total GULP energy -1388051.028567 kJ/mol
# GULP energy per Si atom -12393.312755 kJ/mol
# Density = 2.078603 g / cm^3
# Si number density = 20.833449 Si / 1000 Ang^3
#
#
#
# Elastic Constant Matrix: (Units=GPa)
#
#
# Indices 1 2 3 4 5 6 
#
# 1 127.5969 38.0201 53.0294 0.0000 0.0000 0.0000
# 2 38.0201 127.5969 53.0294 0.0000 0.0000 0.0000
# 3 53.0294 53.0294 98.7919 0.0000 0.0000 0.0000
# 4 0.0000 0.0000 0.0000 31.6072 0.0000 0.0000
# 5 0.0000 0.0000 0.0000 0.0000 31.6072 0.0000
# 6 0.0000 0.0000 0.0000 0.0000 0.0000 38.9273
#
#
#
# Elastic Compliance Matrix: (Units=1/GPa)
#
#
# Indices 1 2 3 4 5 6 
#
# 1 0.010182 -0.000981 -0.004939 0.000000 0.000000 0.000000
# 2 -0.000981 0.010182 -0.004939 0.000000 0.000000 0.000000
# 3 -0.004939 -0.004939 0.015424 0.000000 0.000000 0.000000
# 4 0.000000 0.000000 0.000000 0.031638 0.000000 0.000000
# 5 0.000000 0.000000 0.000000 0.000000 0.031638 0.000000
# 6 0.000000 0.000000 0.000000 0.000000 0.000000 0.025689
#
#
# Mechanical properties :
#
#
# Convention : Reuss Voigt Hill
#
# Bulk Modulus (GPa) = 71.06935 71.34928 71.20932
# Shear Modulus (GPa) = 33.07699 34.42213 33.74956
#
# Velocity S-wave (km/s) = 3.98890 4.06920 4.02925
# Velocity P-wave (km/s) = 7.44327 7.50997 7.47670
#
# Compressibility (1/GPa) = 0.01407076
#
# Stress axis : x y z
#
# Youngs Moduli (GPa) = 98.21081 98.21081 64.83254
#
# Poissons Ratio (x) = 0.09639 0.32019
# Poissons Ratio (y) = 0.09639 0.32019
# Poissons Ratio (z) = 0.48504 0.48504
#
# Static dielectric constant tensor:
#      x y z
#    x 3.771730 0.000000 0.000000 
#    y 0.000000 3.771730 0.000000 
#    z 0.000000 0.000000 3.913970 
# 
# 
# High freq. dielectric constant tensor:
#      x y z
#    x 1.819930 0.000000 0.000000 
#    y 0.000000 1.819930 0.000000 
#    z 0.000000 0.000000 1.821150 
# 
# From -- ./inp_files/6139.got.cif
#   From: 2010.03.12/outbox.cif.g09.slc.cpg/sg135_4_cif.got.tgz:6139.got - 2010.04.06 18:31:24.
