data_PCOD8317878
_publ_section_title
;
Structure prediction by ZEFSAII (Michael W. Deem and Ramdas Pophale) SiO2 
 PCOD8317878
Probable space group: P 42/M N M
;
_chemical_formula_sum "Si O2"
_cell_formula_units_Z 96
_cell_length_a 25.204973
_cell_length_b 25.204973
_cell_length_c 8.866166
_cell_angle_alpha 90.000000
_cell_angle_beta 90.000000
_cell_angle_gamma 90.000000
_cell_volume 5632.592485
_symmetry_space_group_name_H-M "P 42/M N M"
_symmetry_group_IT_number 136
_symmetry_cell_setting 'tetragonal'
loop_
_space_group_symop_operation_xyz
x,y,z
1/2-y,1/2+x,1/2+z
-x,-y,z
1/2+y,1/2-x,1/2+z
1/2+x,1/2-y,1/2-z
1/2-x,1/2+y,1/2-z
y,x,-z
-y,-x,-z
-x,-y,-z
1/2+y,1/2-x,1/2-z
x,y,-z
1/2-y,1/2+x,1/2-z
1/2-x,1/2+y,1/2+z
1/2+x,1/2-y,1/2+z
-y,-x,z
y,x,z
loop_
_atom_site_type_symbol
_atom_site_label
_atom_site_fract_x
_atom_site_fract_y
_atom_site_fract_z
Si Si1 0.812888 0.391949 0.179181
Si Si2 0.802229 0.111302 0.822401
Si Si3 0.107679 0.689290 0.321128
Si Si4 0.003780 0.188659 0.833690
Si Si5 0.499389 0.814677 0.330216
Si Si6 0.308469 0.608159 0.177152
O O1 0.844392 0.345447 0.259176
O O2 0.835098 0.448509 0.236827
O O3 0.751859 0.384111 0.231620
O O4 0.819250 0.388713 0.000000
O O5 0.842478 0.157523 0.777777
O O6 0.749327 0.119888 0.726916
O O7 0.830168 0.054811 0.780581
O O8 0.787745 0.111858 0.000000
O O9 0.104443 0.685618 0.500000
O O10 0.052955 0.666452 0.252367
O O11 0.050707 0.168631 0.725900
O O12 0.000809 0.251775 0.834239
O O13 0.016648 0.166756 0.000000
O O14 0.497799 0.838099 0.500000
O O15 0.345181 0.654820 0.246762
O O16 0.311295 0.610170 0.000000
#
# Coordination Sequence:
#
# PCOD8317878 Si02
#       6
#    16  16  16  16  16  16
#     4  10  19  32  50  72  98 129 163 200 241 284
#     4   9  18  33  51  70  95 127 161 200 247 294
#     4  11  21  32  48  73 102 130 161 197 238 289
#     4   8  15  28  47  69  90 117 156 198 238 282
#     4   9  17  32  51  70  93 124 163 203 240 281
#     4   9  18  31  47  68  94 125 159 194 235 284
#
# _framework density 17.043661
#
# number of rings (size 3 to 8) (size 9 to 14) (size 15 to 20)
#    0.000    2.667    0.000    3.500    0.000    6.000 
#    0.000    1.667    0.000    1.000    0.000    7.000 
#    0.000    0.000    0.000    0.000    0.000    0.000 
#
# Total GULP energy -1190034.385074 kJ/mol
# GULP energy per Si atom -12396.191511 kJ/mol
# Density = 1.700487 g / cm^3
# Si number density = 17.043661 Si / 1000 Ang^3
#
#
#
# Elastic Constant Matrix: (Units=GPa)
#
#
# Indices 1 2 3 4 5 6 
#
# 1 88.3357 53.8807 40.0044 0.0000 0.0000 0.0000
# 2 53.8807 88.3357 40.0044 0.0000 0.0000 0.0000
# 3 40.0044 40.0044 83.2682 0.0000 0.0000 0.0000
# 4 0.0000 0.0000 0.0000 25.8049 0.0000 0.0000
# 5 0.0000 0.0000 0.0000 0.0000 25.8049 0.0000
# 6 0.0000 0.0000 0.0000 0.0000 0.0000 2.3133
#
#
#
# Elastic Compliance Matrix: (Units=1/GPa)
#
#
# Indices 1 2 3 4 5 6 
#
# 1 0.019330 -0.009694 -0.004629 0.000000 0.000000 0.000000
# 2 -0.009694 0.019330 -0.004629 0.000000 0.000000 0.000000
# 3 -0.004629 -0.004629 0.016458 0.000000 0.000000 0.000000
# 4 0.000000 0.000000 0.000000 0.038752 0.000000 0.000000
# 5 0.000000 0.000000 0.000000 0.000000 0.038752 0.000000
# 6 0.000000 0.000000 0.000000 0.000000 0.000000 0.432283
#
#
# Mechanical properties :
#
#
# Convention : Reuss Voigt Hill
#
# Bulk Modulus (GPa) = 58.09922 58.63539 58.36731
# Shear Modulus (GPa) = 8.21629 19.18797 13.70213
#
# Velocity S-wave (km/s) = 2.19800 3.35895 2.83846
# Velocity P-wave (km/s) = 6.37213 7.03713 6.71287
#
# Compressibility (1/GPa) = 0.01721193
#
# Stress axis : x y z
#
# Youngs Moduli (GPa) = 51.73397 51.73397 60.76236
#
# Poissons Ratio (x) = 0.50149 0.28129
# Poissons Ratio (y) = 0.50149 0.28129
# Poissons Ratio (z) = 0.23950 0.23950
#
# Static dielectric constant tensor:
#      x y z
#    x 3.288060 0.000000 0.000000 
#    y 0.000000 3.288060 0.000000 
#    z 0.000000 0.000000 3.242150 
# 
# 
# High freq. dielectric constant tensor:
#      x y z
#    x 1.642240 0.000000 0.000000 
#    y 0.000000 1.642240 0.000000 
#    z 0.000000 0.000000 1.661360 
# 
# From -- ./inp_files/1961.got.cif
#   From: 2010.03.12/outbox.cif.g09.slc.cpg/sg136_1_cif.got.tgz:1961.got - 2010.04.06 18:39:43.
