data_PCOD8317345
_publ_section_title
;
Structure prediction by ZEFSAII (Michael W. Deem and Ramdas Pophale) SiO2 
 PCOD8317345
Probable space group: P 42/N N M
;
_chemical_formula_sum "Si O2"
_cell_formula_units_Z 36
_cell_length_a 10.230691
_cell_length_b 10.230691
_cell_length_c 17.333010
_cell_angle_alpha 90.000000
_cell_angle_beta 90.000000
_cell_angle_gamma 90.000000
_cell_volume 1814.194822
_symmetry_space_group_name_H-M "P 42/N N M"
_symmetry_group_IT_number 134
_space_group.IT_coordinate_system_code '2'
_symmetry_cell_setting 'tetragonal'
loop_
_space_group_symop_operation_xyz
x,y,z
1/2-y,x,1/2+z
1/2-x,1/2-y,z
y,1/2-x,1/2+z
x,1/2-y,1/2-z
1/2-x,y,1/2-z
y,x,-z
1/2-y,1/2-x,-z
-x,-y,-z
1/2+y,-x,1/2-z
1/2+x,1/2+y,-z
-y,1/2+x,1/2-z
-x,1/2+y,1/2+z
1/2+x,-y,1/2+z
-y,-x,z
1/2+y,1/2+x,z
loop_
_atom_site_type_symbol
_atom_site_label
_atom_site_fract_x
_atom_site_fract_y
_atom_site_fract_z
Si Si1 0.039716 0.960285 0.913756
Si Si2 0.924093 0.424093 0.935904
Si Si3 0.097875 0.231874 0.836636
Si Si4 0.750000 0.250000 0.459024
O O1 0.153398 0.846603 0.909722
O O2 0.913140 0.915684 0.868245
O O3 0.000000 0.000000 0.000000
O O4 0.840448 0.524295 0.885964
O O5 0.831113 0.331113 0.981428
O O6 0.000000 0.500000 0.000000
O O7 0.250000 0.250000 0.840484
O O8 0.043821 0.250000 0.750000
#
# Coordination Sequence:
#
# PCOD8317345 Si02
#       4
#     8   8  16   4
#     4  12  23  43  70 100 140 175 235 292 346 422
#     4  12  23  38  66  95 126 173 228 278 348 418
#     4  11  25  43  65  95 136 181 229 290 358 424
#     4  12  24  38  65 107 128 176 220 286 354 390
#
# _framework density 19.843513999999999
#
# number of rings (size 3 to 8) (size 9 to 14) (size 15 to 20)
#    0.000    0.444    4.444    4.000    0.000    0.000 
#    0.000    4.444    0.000    2.667    0.000    0.000 
#    0.000    0.000    0.000    0.000    0.000    0.000 
#
# Total GULP energy -446153.123891 kJ/mol
# GULP energy per Si atom -12393.142330 kJ/mol
# Density = 1.979835 g / cm^3
# Si number density = 19.843514 Si / 1000 Ang^3
#
#
#
# Elastic Constant Matrix: (Units=GPa)
#
#
# Indices 1 2 3 4 5 6 
#
# 1 109.5084 47.8220 92.5594 0.0000 0.0000 0.0000
# 2 47.8220 109.5084 92.5594 0.0000 0.0000 0.0000
# 3 92.5594 92.5594 171.0803 0.0000 0.0000 0.0000
# 4 0.0000 0.0000 0.0000 42.6083 0.0000 0.0000
# 5 0.0000 0.0000 0.0000 0.0000 42.6083 0.0000
# 6 0.0000 0.0000 0.0000 0.0000 0.0000 60.5037
#
#
#
# Elastic Compliance Matrix: (Units=1/GPa)
#
#
# Indices 1 2 3 4 5 6 
#
# 1 0.016850 0.000639 -0.009463 0.000000 0.000000 0.000000
# 2 0.000639 0.016850 -0.009463 0.000000 0.000000 0.000000
# 3 -0.009463 -0.009463 0.016084 0.000000 0.000000 0.000000
# 4 0.000000 0.000000 0.000000 0.023470 0.000000 0.000000
# 5 0.000000 0.000000 0.000000 0.000000 0.023470 0.000000
# 6 0.000000 0.000000 0.000000 0.000000 0.000000 0.016528
#
#
# Mechanical properties :
#
#
# Convention : Reuss Voigt Hill
#
# Bulk Modulus (GPa) = 75.67808 95.10873 85.39341
# Shear Modulus (GPa) = 32.41950 39.62117 36.02034
#
# Velocity S-wave (km/s) = 4.04636 4.47327 4.26516
# Velocity P-wave (km/s) = 7.74926 8.64371 8.20867
#
# Compressibility (1/GPa) = 0.01321387
#
# Stress axis : x y z
#
# Youngs Moduli (GPa) = 59.34554 59.34554 62.17272
#
# Poissons Ratio (x) = -0.03795 0.58831
# Poissons Ratio (y) = -0.03795 0.58831
# Poissons Ratio (z) = 0.56156 0.56156
#
# Static dielectric constant tensor:
#      x y z
#    x 4.012500 0.000000 0.000000 
#    y 0.000000 4.012500 0.000000 
#    z 0.000000 0.000000 4.008900 
# 
# 
# High freq. dielectric constant tensor:
#      x y z
#    x 1.797570 0.000000 0.000000 
#    y 0.000000 1.797570 0.000000 
#    z 0.000000 0.000000 1.783540 
# 
# From -- ./inp_files/5639.got.cif
#   From: 2010.03.12/outbox.cif.g09.slc.cpg/sg134_3_cif.got.tgz:5639.got - 2010.04.06 18:17:22.
