data_PCOD8317137
_publ_section_title
;
Structure prediction by ZEFSAII (Michael W. Deem and Ramdas Pophale) SiO2 
 PCOD8317137
Probable space group: P 42/N N M
;
_chemical_formula_sum "Si O2"
_cell_formula_units_Z 88
_cell_length_a 16.012233
_cell_length_b 16.012233
_cell_length_c 20.999095
_cell_angle_alpha 90.000000
_cell_angle_beta 90.000000
_cell_angle_gamma 90.000000
_cell_volume 5383.991684
_symmetry_space_group_name_H-M "P 42/N N M"
_symmetry_group_IT_number 134
_space_group.IT_coordinate_system_code '2'
_symmetry_cell_setting 'tetragonal'
loop_
_space_group_symop_operation_xyz
x,y,z
1/2-y,x,1/2+z
1/2-x,1/2-y,z
y,1/2-x,1/2+z
x,1/2-y,1/2-z
1/2-x,y,1/2-z
y,x,-z
1/2-y,1/2-x,-z
-x,-y,-z
1/2+y,-x,1/2-z
1/2+x,1/2+y,-z
-y,1/2+x,1/2-z
-x,1/2+y,1/2+z
1/2+x,-y,1/2+z
-y,-x,z
1/2+y,1/2+x,z
loop_
_atom_site_type_symbol
_atom_site_label
_atom_site_fract_x
_atom_site_fract_y
_atom_site_fract_z
Si Si1 0.017331 0.654085 0.262080
Si Si2 0.417874 0.051163 0.141165
Si Si3 0.939569 0.194243 0.549539
Si Si4 0.862259 0.494327 0.594057
Si Si5 0.922114 0.684852 0.955733
Si Si6 0.647728 0.852273 0.500000
O O1 0.038628 0.750000 0.250000
O O2 0.103722 0.603722 0.253055
O O3 0.948137 0.619364 0.212562
O O4 0.979442 0.641012 0.332124
O O5 0.423664 0.147082 0.115977
O O6 0.510054 0.010054 0.139722
O O7 0.356159 0.996979 0.098149
O O8 0.849253 0.150747 0.541632
O O9 0.930196 0.287006 0.578049
O O10 0.983877 0.202880 0.480203
O O11 0.857550 0.577324 0.553067
O O12 0.948713 0.448713 0.578115
O O13 0.861412 0.765151 0.961788
O O14 0.888684 0.611317 0.000000
#
# Coordination Sequence:
#
# PCOD8317137 Si02
#       6
#    16  16  16  16  16   8
#     4  10  19  31  46  66  93 123 152 183 222 270
#     4   9  16  28  46  66  90 117 146 186 229 268
#     4   9  16  27  45  68  91 116 147 186 226 267
#     4  10  20  32  47  65  91 125 155 185 222 270
#     4   9  17  29  46  66  88 114 151 191 230 266
#     4  10  20  34  48  64  88 120 160 196 224 264
#
# _framework density 16.344750000000001
#
# number of rings (size 3 to 8) (size 9 to 14) (size 15 to 20)
#    0.000    2.545    1.818    1.091    0.000    2.727 
#    0.000    2.727    0.000    1.091    0.000    0.000 
#    0.000    0.000    0.000    0.000    0.000  109.091 
#
# Total GULP energy -1090718.716746 kJ/mol
# GULP energy per Si atom -12394.530872 kJ/mol
# Density = 1.630755 g / cm^3
# Si number density = 16.344750 Si / 1000 Ang^3
#
#
#
# Elastic Constant Matrix: (Units=GPa)
#
#
# Indices 1 2 3 4 5 6 
#
# 1 58.6392 34.9014 47.9303 0.0000 0.0000 0.0000
# 2 34.9014 58.6390 47.9309 0.0000 0.0000 0.0000
# 3 47.9303 47.9309 104.0232 0.0000 0.0000 0.0000
# 4 0.0000 0.0000 0.0000 22.3235 0.0000 0.0000
# 5 0.0000 0.0000 0.0000 0.0000 22.3233 0.0000
# 6 0.0000 0.0000 0.0000 0.0000 0.0000 20.2774
#
#
#
# Elastic Compliance Matrix: (Units=1/GPa)
#
#
# Indices 1 2 3 4 5 6 
#
# 1 0.031191 -0.010936 -0.009333 0.000000 0.000000 0.000000
# 2 -0.010936 0.031191 -0.009333 0.000000 0.000000 0.000000
# 3 -0.009333 -0.009333 0.018214 0.000000 0.000000 0.000000
# 4 0.000000 0.000000 0.000000 0.044796 0.000000 0.000000
# 5 0.000000 0.000000 0.000000 0.000000 0.044796 0.000000
# 6 0.000000 0.000000 0.000000 0.000000 0.000000 0.049316
#
#
# Mechanical properties :
#
#
# Convention : Reuss Voigt Hill
#
# Bulk Modulus (GPa) = 46.74576 53.64740 50.19658
# Shear Modulus (GPa) = 17.49242 19.02075 18.25659
#
# Velocity S-wave (km/s) = 3.27496 3.41504 3.34573
# Velocity P-wave (km/s) = 6.55458 6.96015 6.76040
#
# Compressibility (1/GPa) = 0.02139231
#
# Stress axis : x y z
#
# Youngs Moduli (GPa) = 32.06089 32.06018 54.90343
#
# Poissons Ratio (x) = 0.35061 0.51239
# Poissons Ratio (y) = 0.35062 0.51242
# Poissons Ratio (z) = 0.29921 0.29922
#
# Static dielectric constant tensor:
#      x y z
#    x 3.022430 0.000000 0.000000 
#    y 0.000000 3.022430 0.000000 
#    z 0.000000 0.000000 3.224360 
# 
# 
# High freq. dielectric constant tensor:
#      x y z
#    x 1.613700 0.000000 0.000000 
#    y 0.000000 1.613700 0.000000 
#    z 0.000000 0.000000 1.620510 
# 
# From -- ./inp_files/9016.got.cif
#   From: 2010.03.12/outbox.cif.g09.slc.cpg/sg134_5_cif.got.tgz:9016.got - 2010.04.06 18:17:22.
