data_PCOD8317992
_publ_section_title
;
Structure prediction by ZEFSAII (Michael W. Deem and Ramdas Pophale) SiO2 
 PCOD8317992
Probable space group: P 42/M N M
;
_chemical_formula_sum "Si O2"
_cell_formula_units_Z 72
_cell_length_a 22.787151
_cell_length_b 22.787151
_cell_length_c 9.038238
_cell_angle_alpha 90.000000
_cell_angle_beta 90.000000
_cell_angle_gamma 90.000000
_cell_volume 4693.143500
_symmetry_space_group_name_H-M "P 42/M N M"
_symmetry_group_IT_number 136
_symmetry_cell_setting 'tetragonal'
loop_
_space_group_symop_operation_xyz
x,y,z
1/2-y,1/2+x,1/2+z
-x,-y,z
1/2+y,1/2-x,1/2+z
1/2+x,1/2-y,1/2-z
1/2-x,1/2+y,1/2-z
y,x,-z
-y,-x,-z
-x,-y,-z
1/2+y,1/2-x,1/2-z
x,y,-z
1/2-y,1/2+x,1/2-z
1/2-x,1/2+y,1/2+z
1/2+x,1/2-y,1/2+z
-y,-x,z
y,x,z
loop_
_atom_site_type_symbol
_atom_site_label
_atom_site_fract_x
_atom_site_fract_y
_atom_site_fract_z
Si Si1 0.783682 0.314614 0.163388
Si Si2 0.453554 0.453554 0.175846
Si Si3 0.702438 0.394957 0.328955
Si Si4 0.484439 0.324153 0.175565
Si Si5 0.126042 0.778948 0.174307
O O1 0.736587 0.263414 0.152616
O O2 0.763074 0.363714 0.279756
O O3 0.844383 0.283878 0.214275
O O4 0.790789 0.343189 0.000000
O O5 0.500000 0.500000 0.241421
O O6 0.470977 0.389521 0.234886
O O7 0.454720 0.454720 0.000000
O O8 0.707425 0.411722 0.500000
O O9 0.647458 0.352543 0.297668
O O10 0.695174 0.452565 0.232474
O O11 0.435148 0.280749 0.238957
O O12 0.484014 0.321067 0.000000
O O13 0.167496 0.832505 0.227816
O O14 0.114708 0.783562 0.000000
#
# Coordination Sequence:
#
# PCOD8317992 Si02
#       5
#    16   8  16  16  16
#     4   8  15  29  48  66  84 112 146 181 228 279
#     4   9  18  30  41  57  83 119 161 197 223 252
#     4  10  20  32  45  64  89 118 152 192 233 270
#     4  11  20  30  45  64  89 121 157 193 226 268
#     4   9  17  30  47  66  90 116 145 186 232 275
#
# _framework density 15.341531
#
# number of rings (size 3 to 8) (size 9 to 14) (size 15 to 20)
#    0.000    2.556    1.111    3.333    0.000    3.111 
#    0.000    2.222    0.000    2.667    0.000    0.000 
#    0.000    0.889    0.000    9.333    0.000    4.000 
#
# Total GULP energy -892678.892976 kJ/mol
# GULP energy per Si atom -12398.317958 kJ/mol
# Density = 1.530661 g / cm^3
# Si number density = 15.341531 Si / 1000 Ang^3
#
#
#
# Elastic Constant Matrix: (Units=GPa)
#
#
# Indices 1 2 3 4 5 6 
#
# 1 71.9283 60.2079 38.3683 0.0000 0.0000 0.0000
# 2 60.2079 71.9283 38.3683 0.0000 0.0000 0.0000
# 3 38.3683 38.3683 61.7983 0.0000 0.0000 0.0000
# 4 0.0000 0.0000 0.0000 23.0908 0.0000 0.0000
# 5 0.0000 0.0000 0.0000 0.0000 23.0908 0.0000
# 6 0.0000 0.0000 0.0000 0.0000 0.0000 23.9298
#
#
#
# Elastic Compliance Matrix: (Units=1/GPa)
#
#
# Indices 1 2 3 4 5 6 
#
# 1 0.048578 -0.036743 -0.007348 0.000000 0.000000 0.000000
# 2 -0.036743 0.048578 -0.007348 0.000000 0.000000 0.000000
# 3 -0.007348 -0.007348 0.025306 0.000000 0.000000 0.000000
# 4 0.000000 0.000000 0.000000 0.043307 0.000000 0.000000
# 5 0.000000 0.000000 0.000000 0.000000 0.043307 0.000000
# 6 0.000000 0.000000 0.000000 0.000000 0.000000 0.041789
#
#
# Mechanical properties :
#
#
# Convention : Reuss Voigt Hill
#
# Bulk Modulus (GPa) = 51.06159 53.28264 52.17211
# Shear Modulus (GPa) = 13.87841 18.60299 16.24070
#
# Velocity S-wave (km/s) = 3.01097 3.48600 3.25716
# Velocity P-wave (km/s) = 6.74117 7.14208 6.94452
#
# Compressibility (1/GPa) = 0.01958419
#
# Stress axis : x y z
#
# Youngs Moduli (GPa) = 20.58540 20.58540 39.51632
#
# Poissons Ratio (x) = 0.75637 0.29037
# Poissons Ratio (y) = 0.75637 0.29037
# Poissons Ratio (z) = 0.15126 0.15126
#
# Static dielectric constant tensor:
#      x y z
#    x 2.905650 0.000000 0.000000 
#    y 0.000000 2.905650 0.000000 
#    z 0.000000 0.000000 2.881150 
# 
# 
# High freq. dielectric constant tensor:
#      x y z
#    x 1.567770 0.000000 0.000000 
#    y 0.000000 1.567770 0.000000 
#    z 0.000000 0.000000 1.588060 
# 
# From -- ./inp_files/1558.got.cif
#   From: 2010.03.12/outbox.cif.g09.slc.cpg/sg136_1_cif.got.tgz:1558.got - 2010.04.06 18:39:43.
