data_PCOD8317519
_publ_section_title
;
Structure prediction by ZEFSAII (Michael W. Deem and Ramdas Pophale) SiO2 
 PCOD8317519
Probable space group: P 42/M B C
;
_chemical_formula_sum "Si O2"
_cell_formula_units_Z 96
_cell_length_a 16.054558
_cell_length_b 16.054558
_cell_length_c 17.907130
_cell_angle_alpha 90.000000
_cell_angle_beta 90.000000
_cell_angle_gamma 90.000000
_cell_volume 4615.541852
_symmetry_space_group_name_H-M "P 42/M B C"
_symmetry_group_IT_number 135
_symmetry_cell_setting 'tetragonal'
loop_
_space_group_symop_operation_xyz
x,y,z
-y,x,1/2+z
-x,-y,z
y,-x,1/2+z
1/2+x,1/2-y,-z
1/2-x,1/2+y,-z
1/2+y,1/2+x,1/2-z
1/2-y,1/2-x,1/2-z
-x,-y,-z
y,-x,1/2-z
x,y,-z
-y,x,1/2-z
1/2-x,1/2+y,z
1/2+x,1/2-y,z
1/2-y,1/2-x,1/2+z
1/2+y,1/2+x,1/2+z
loop_
_atom_site_type_symbol
_atom_site_label
_atom_site_fract_x
_atom_site_fract_y
_atom_site_fract_z
Si Si1 0.594090 0.978676 0.413026
Si Si2 0.859397 0.161018 0.586127
Si Si3 0.385801 0.444659 0.720187
Si Si4 0.821080 0.394198 0.182205
Si Si5 0.664800 0.149984 0.416868
Si Si6 0.292790 0.921823 0.214987
O O1 0.603943 0.960355 0.500000
O O2 0.625888 0.897204 0.371873
O O3 0.500000 0.000000 0.390888
O O4 0.652302 0.055417 0.386747
O O5 0.892264 0.157655 0.500000
O O6 0.890860 0.078994 0.631688
O O7 0.894168 0.237940 0.633497
O O8 0.760940 0.171814 0.586126
O O9 0.396666 0.543449 0.731481
O O10 0.297082 0.412296 0.748028
O O11 0.826377 0.326377 0.250000
O O12 0.828855 0.485167 0.219800
O O13 0.628418 0.155187 0.500000
O O14 0.608524 0.215215 0.370985
O O15 0.357300 0.857300 0.250000
#
# Coordination Sequence:
#
# PCOD8317519 Si02
#       6
#    16  16  16  16  16  16
#     4  10  20  37  61  92 135 175 218 276 342 412
#     4  11  25  47  69  95 137 182 230 285 345 410
#     4  11  25  47  70  98 128 173 227 284 343 404
#     4  12  26  38  64 104 135 179 227 281 340 415
#     4  10  22  39  62  93 133 180 222 276 343 406
#     4  12  23  40  67  97 138 176 222 280 339 413
#
# _framework density 20.799289999999999
#
# number of rings (size 3 to 8) (size 9 to 14) (size 15 to 20)
#    0.000    1.000    5.000    1.500    2.333    0.667 
#    0.000    2.500    0.000    0.000    0.000    0.000 
#    0.000    0.000    0.000    0.000    0.000    0.000 
#
# Total GULP energy -1190261.753426 kJ/mol
# GULP energy per Si atom -12398.559932 kJ/mol
# Density = 2.075195 g / cm^3
# Si number density = 20.799290 Si / 1000 Ang^3
#
#
#
# Elastic Constant Matrix: (Units=GPa)
#
#
# Indices 1 2 3 4 5 6 
#
# 1 91.8495 27.2730 43.1844 0.0000 0.0000 0.0000
# 2 27.2730 91.8495 43.1844 0.0000 0.0000 0.0000
# 3 43.1844 43.1844 129.3291 0.0000 0.0000 0.0000
# 4 0.0000 0.0000 0.0000 29.1539 0.0000 0.0000
# 5 0.0000 0.0000 0.0000 0.0000 29.1539 0.0000
# 6 0.0000 0.0000 0.0000 0.0000 0.0000 25.8475
#
#
#
# Elastic Compliance Matrix: (Units=1/GPa)
#
#
# Indices 1 2 3 4 5 6 
#
# 1 0.013281 -0.002205 -0.003698 0.000000 0.000000 0.000000
# 2 -0.002205 0.013281 -0.003698 0.000000 0.000000 0.000000
# 3 -0.003698 -0.003698 0.010202 0.000000 0.000000 0.000000
# 4 0.000000 0.000000 0.000000 0.034301 0.000000 0.000000
# 5 0.000000 0.000000 0.000000 0.000000 0.034301 0.000000
# 6 0.000000 0.000000 0.000000 0.000000 0.000000 0.038688
#
#
# Mechanical properties :
#
#
# Convention : Reuss Voigt Hill
#
# Bulk Modulus (GPa) = 56.94521 60.03465 58.48993
# Shear Modulus (GPa) = 29.56643 30.12346 29.84495
#
# Velocity S-wave (km/s) = 3.77438 3.80977 3.79212
# Velocity P-wave (km/s) = 6.81414 6.94831 6.88155
#
# Compressibility (1/GPa) = 0.01756074
#
# Stress axis : x y z
#
# Youngs Moduli (GPa) = 75.29605 75.29605 98.01852
#
# Poissons Ratio (x) = 0.16600 0.36252
# Poissons Ratio (y) = 0.16600 0.36252
# Poissons Ratio (z) = 0.27848 0.27848
#
# Static dielectric constant tensor:
#      x y z
#    x 3.726790 0.000000 0.000000 
#    y 0.000000 3.726790 0.000000 
#    z 0.000000 0.000000 4.368290 
# 
# 
# High freq. dielectric constant tensor:
#      x y z
#    x 1.807030 0.000000 0.000000 
#    y 0.000000 1.807030 0.000000 
#    z 0.000000 0.000000 1.832290 
# 
# From -- ./inp_files/5485.got.cif
#   From: 2010.03.12/outbox.cif.g09.slc.cpg/sg135_3_cif.got.tgz:5485.got - 2010.04.06 18:31:24.
