data_PCOD8317051
_publ_section_title
;
Structure prediction by ZEFSAII (Michael W. Deem and Ramdas Pophale) SiO2 
 PCOD8317051
Probable space group: P 42/N B C
;
_chemical_formula_sum "Si O2"
_cell_formula_units_Z 56
_cell_length_a 10.560970
_cell_length_b 10.560970
_cell_length_c 21.825156
_cell_angle_alpha 90.000000
_cell_angle_beta 90.000000
_cell_angle_gamma 90.000000
_cell_volume 2434.248856
_symmetry_space_group_name_H-M "P 42/N B C"
_symmetry_group_IT_number 133
_space_group.IT_coordinate_system_code '2'
_symmetry_cell_setting 'tetragonal'
loop_
_space_group_symop_operation_xyz
x,y,z
1/2-y,x,1/2+z
1/2-x,1/2-y,z
y,1/2-x,1/2+z
x,1/2-y,-z
1/2-x,y,-z
y,x,1/2-z
1/2-y,1/2-x,1/2-z
-x,-y,-z
1/2+y,-x,1/2-z
1/2+x,1/2+y,-z
-y,1/2+x,1/2-z
-x,1/2+y,z
1/2+x,-y,z
-y,-x,1/2+z
1/2+y,1/2+x,1/2+z
loop_
_atom_site_type_symbol
_atom_site_label
_atom_site_fract_x
_atom_site_fract_y
_atom_site_fract_z
Si Si1 0.015872 0.723361 0.825341
Si Si2 0.052400 0.750000 0.500000
Si Si3 0.619362 0.673852 0.052419
Si Si4 0.250000 0.750000 0.599597
Si Si5 0.034550 0.034550 0.250000
O O1 0.138783 0.788394 0.854688
O O2 0.934335 0.666239 0.880146
O O3 0.045936 0.602538 0.782424
O O4 0.948309 0.841199 0.792320
O O5 0.135733 0.800506 0.556847
O O6 0.968041 0.636235 0.526787
O O7 0.750000 0.750000 0.058121
O O8 0.536512 0.750000 0.000000
#
# Coordination Sequence:
#
# PCOD8317051 Si02
#       5
#    16   8  16   8   8
#     4  12  27  46  73 101 145 192 242 306 345 446
#     4   9  21  42  66 108 143 181 224 288 378 449
#     4   9  22  41  70 100 134 176 235 289 350 430
#     4  11  24  41  68 102 148 177 225 300 380 416
#     4  12  30  46  72 102 144 198 252 290 364 414
#
# _framework density 23.005044000000002
#
# number of rings (size 3 to 8) (size 9 to 14) (size 15 to 20)
#    0.000    1.714    0.000    3.429   16.000    1.143 
#    0.000    0.000    0.000    0.000    0.000    0.000 
#    0.000    0.000    0.000    0.000    0.000    0.000 
#
# Total GULP energy -693887.712254 kJ/mol
# GULP energy per Si atom -12390.852005 kJ/mol
# Density = 2.295268 g / cm^3
# Si number density = 23.005044 Si / 1000 Ang^3
#
#
#
# Elastic Constant Matrix: (Units=GPa)
#
#
# Indices 1 2 3 4 5 6 
#
# 1 116.2052 23.0490 57.6769 0.0000 0.0000 0.0000
# 2 23.0490 116.2052 57.6769 0.0000 0.0000 0.0000
# 3 57.6769 57.6769 151.2531 0.0000 0.0000 0.0000
# 4 0.0000 0.0000 0.0000 17.6188 0.0000 0.0000
# 5 0.0000 0.0000 0.0000 0.0000 17.6188 0.0000
# 6 0.0000 0.0000 0.0000 0.0000 0.0000 17.9963
#
#
#
# Elastic Compliance Matrix: (Units=1/GPa)
#
#
# Indices 1 2 3 4 5 6 
#
# 1 0.010616 -0.000119 -0.004003 0.000000 0.000000 0.000000
# 2 -0.000119 0.010616 -0.004003 0.000000 0.000000 0.000000
# 3 -0.004003 -0.004003 0.009664 0.000000 0.000000 0.000000
# 4 0.000000 0.000000 0.000000 0.056758 0.000000 0.000000
# 5 0.000000 0.000000 0.000000 0.000000 0.056758 0.000000
# 6 0.000000 0.000000 0.000000 0.000000 0.000000 0.055567
#
#
# Mechanical properties :
#
#
# Convention : Reuss Voigt Hill
#
# Bulk Modulus (GPa) = 68.27382 73.38547 70.82965
# Shear Modulus (GPa) = 22.61328 26.99748 24.80538
#
# Velocity S-wave (km/s) = 3.13864 3.42942 3.28725
# Velocity P-wave (km/s) = 6.54805 6.90291 6.72782
#
# Compressibility (1/GPa) = 0.01464690
#
# Stress axis : x y z
#
# Youngs Moduli (GPa) = 94.19959 94.19959 103.47539
#
# Poissons Ratio (x) = 0.01120 0.41418
# Poissons Ratio (y) = 0.01120 0.41418
# Poissons Ratio (z) = 0.37706 0.37706
#
# Static dielectric constant tensor:
#      x y z
#    x 4.141460 0.000000 0.000000 
#    y 0.000000 4.141460 0.000000 
#    z 0.000000 0.000000 4.809340 
# 
# 
# High freq. dielectric constant tensor:
#      x y z
#    x 1.906690 0.000000 0.000000 
#    y 0.000000 1.906690 0.000000 
#    z 0.000000 0.000000 1.930610 
# 
# From -- ./inp_files/6082.got.cif
#   From: 2010.03.12/outbox.cif.g09.slc.cpg/sg133_4_cif.got.tgz:6082.got - 2010.04.06 18:08:06.
