data_PCOD8317744
_publ_section_title
;
Structure prediction by ZEFSAII (Michael W. Deem and Ramdas Pophale) SiO2 
 PCOD8317744
Probable space group: P 42/M N M
;
_chemical_formula_sum "Si O2"
_cell_formula_units_Z 96
_cell_length_a 14.244592
_cell_length_b 14.244592
_cell_length_c 28.111004
_cell_angle_alpha 90.000000
_cell_angle_beta 90.000000
_cell_angle_gamma 90.000000
_cell_volume 5703.958879
_symmetry_space_group_name_H-M "P 42/M N M"
_symmetry_group_IT_number 136
_symmetry_cell_setting 'tetragonal'
loop_
_space_group_symop_operation_xyz
x,y,z
1/2-y,1/2+x,1/2+z
-x,-y,z
1/2+y,1/2-x,1/2+z
1/2+x,1/2-y,1/2-z
1/2-x,1/2+y,1/2-z
y,x,-z
-y,-x,-z
-x,-y,-z
1/2+y,1/2-x,1/2-z
x,y,-z
1/2-y,1/2+x,1/2-z
1/2-x,1/2+y,1/2+z
1/2+x,1/2-y,1/2+z
-y,-x,z
y,x,z
loop_
_atom_site_type_symbol
_atom_site_label
_atom_site_fract_x
_atom_site_fract_y
_atom_site_fract_z
Si Si1 0.579747 0.579747 0.618856
Si Si2 0.772206 0.613549 0.846683
Si Si3 0.661152 0.818698 0.948092
Si Si4 0.044442 0.197763 0.288227
Si Si5 0.378611 0.082883 0.237767
Si Si6 0.578256 0.578256 0.276223
Si Si7 0.691030 0.465501 0.552321
O O1 0.500000 0.500000 0.618552
O O2 0.610143 0.610143 0.671493
O O3 0.673186 0.544009 0.592139
O O4 0.702103 0.702103 0.840307
O O5 0.801691 0.597481 0.901725
O O6 0.723548 0.514453 0.835039
O O7 0.863630 0.628174 0.812872
O O8 0.742949 0.742949 0.949216
O O9 0.705658 0.922065 0.941624
O O10 0.607983 0.814250 0.000000
O O11 0.113068 0.113068 0.301581
O O12 0.105055 0.284588 0.267888
O O13 0.964966 0.168130 0.250018
O O14 0.469405 0.116416 0.268178
O O15 0.500000 0.500000 0.280832
O O16 0.679902 0.510912 0.500000
O O17 0.616243 0.383758 0.559355
#
# Coordination Sequence:
#
# PCOD8317744 Si02
#       7
#     8  16  16  16  16   8  16
#     4   9  15  20  31  52  80 119 154 183 226 273
#     4  10  18  29  49  71  95 131 161 191 243 291
#     4   8  15  26  40  62  91 122 159 199 235 279
#     4  10  19  32  47  67  96 126 159 200 237 283
#     4   9  19  33  48  69  94 125 162 198 233 278
#     4   9  18  27  38  61  93 122 151 191 229 279
#     4   8  13  21  32  49  77 113 154 191 222 266
#
# _framework density 16.830416
#
# number of rings (size 3 to 8) (size 9 to 14) (size 15 to 20)
#    0.000    3.000    0.833    1.750    2.333    1.000 
#    0.000    0.000    0.000    0.500    0.000   11.667 
#    0.000    0.000    0.000    0.000    0.000    0.000 
#
# Total GULP energy -1189290.341885 kJ/mol
# GULP energy per Si atom -12388.441061 kJ/mol
# Density = 1.679211 g / cm^3
# Si number density = 16.830416 Si / 1000 Ang^3
#
#
#
# Elastic Constant Matrix: (Units=GPa)
#
#
# Indices 1 2 3 4 5 6 
#
# 1 61.1027 30.4014 50.4954 0.0000 0.0000 0.0000
# 2 30.4014 61.1027 50.4954 0.0000 0.0000 0.0000
# 3 50.4954 50.4954 154.5945 0.0000 0.0000 0.0000
# 4 0.0000 0.0000 0.0000 15.5746 0.0000 0.0000
# 5 0.0000 0.0000 0.0000 0.0000 15.5746 0.0000
# 6 0.0000 0.0000 0.0000 0.0000 0.0000 18.9386
#
#
#
# Elastic Compliance Matrix: (Units=1/GPa)
#
#
# Indices 1 2 3 4 5 6 
#
# 1 0.024830 -0.007741 -0.005582 0.000000 0.000000 0.000000
# 2 -0.007741 0.024830 -0.005582 0.000000 0.000000 0.000000
# 3 -0.005582 -0.005582 0.010115 0.000000 0.000000 0.000000
# 4 0.000000 0.000000 0.000000 0.064207 0.000000 0.000000
# 5 0.000000 0.000000 0.000000 0.000000 0.064207 0.000000
# 6 0.000000 0.000000 0.000000 0.000000 0.000000 0.052802
#
#
# Mechanical properties :
#
#
# Convention : Reuss Voigt Hill
#
# Bulk Modulus (GPa) = 45.52560 59.95383 52.73972
# Shear Modulus (GPa) = 17.47490 19.71138 18.59314
#
# Velocity S-wave (km/s) = 3.22575 3.42596 3.32736
# Velocity P-wave (km/s) = 6.40174 7.16584 6.79454
#
# Compressibility (1/GPa) = 0.02196566
#
# Stress axis : x y z
#
# Youngs Moduli (GPa) = 40.27314 40.27314 98.86399
#
# Poissons Ratio (x) = 0.31177 0.55184
# Poissons Ratio (y) = 0.31177 0.55184
# Poissons Ratio (z) = 0.22480 0.22480
#
# Static dielectric constant tensor:
#      x y z
#    x 3.033980 0.000000 0.000000 
#    y 0.000000 3.033980 0.000000 
#    z 0.000000 0.000000 3.392480 
# 
# 
# High freq. dielectric constant tensor:
#      x y z
#    x 1.622440 0.000000 0.000000 
#    y 0.000000 1.622440 0.000000 
#    z 0.000000 0.000000 1.644300 
# 
# From -- ./inp_files/9120.got.cif
#   From: 2010.03.12/outbox.cif.g09.slc.cpg/sg136_5_cif.got.tgz:9120.got - 2010.04.06 18:39:43.
