data_PCOD8317737
_publ_section_title
;
Structure prediction by ZEFSAII (Michael W. Deem and Ramdas Pophale) SiO2 
 PCOD8317737
Probable space group: P 42/M N M
;
_chemical_formula_sum "Si O2"
_cell_formula_units_Z 104
_cell_length_a 26.582684
_cell_length_b 26.582684
_cell_length_c 9.051811
_cell_angle_alpha 90.000000
_cell_angle_beta 90.000000
_cell_angle_gamma 90.000000
_cell_volume 6396.363476
_symmetry_space_group_name_H-M "P 42/M N M"
_symmetry_group_IT_number 136
_symmetry_cell_setting 'tetragonal'
loop_
_space_group_symop_operation_xyz
x,y,z
1/2-y,1/2+x,1/2+z
-x,-y,z
1/2+y,1/2-x,1/2+z
1/2+x,1/2-y,1/2-z
1/2-x,1/2+y,1/2-z
y,x,-z
-y,-x,-z
-x,-y,-z
1/2+y,1/2-x,1/2-z
x,y,-z
1/2-y,1/2+x,1/2-z
1/2-x,1/2+y,1/2+z
1/2+x,1/2-y,1/2+z
-y,-x,z
y,x,z
loop_
_atom_site_type_symbol
_atom_site_label
_atom_site_fract_x
_atom_site_fract_y
_atom_site_fract_z
Si Si1 0.502767 0.582034 0.000000
Si Si2 0.202061 0.639946 0.675030
Si Si3 0.367715 0.632286 0.663101
Si Si4 0.971805 0.737543 0.172404
Si Si5 0.832426 0.963040 0.664178
Si Si6 0.357192 0.991614 0.671604
Si Si7 0.104909 0.603115 0.828053
Si Si8 0.284274 0.715727 0.662005
O O1 0.497186 0.617167 0.853802
O O2 0.557593 0.557593 0.000000
O O3 0.459441 0.540560 0.000000
O O4 0.193239 0.645489 0.500000
O O5 0.230822 0.587511 0.707763
O O6 0.148373 0.638321 0.757100
O O7 0.235467 0.687852 0.736989
O O8 0.385357 0.614644 0.500000
O O9 0.345028 0.587028 0.751651
O O10 0.326051 0.673950 0.644335
O O11 0.991281 0.790030 0.241083
O O12 0.006280 0.696497 0.250388
O O13 0.982982 0.736346 0.000000
O O14 0.811676 0.949390 0.500000
O O15 0.350252 0.979214 0.500000
O O16 0.388751 0.947831 0.747867
O O17 0.384737 0.044429 0.696797
O O18 0.101130 0.616941 0.000000
O O19 0.266591 0.733410 0.500000
#
# Coordination Sequence:
#
# PCOD8317737 Si02
#       8
#     8  16   8  16  16  16  16   8
#     4   9  18  32  48  66  98 140 178 211 254 308
#     4   9  17  30  48  71 103 137 162 194 242 303
#     4  11  17  27  43  70 105 134 166 206 258 310
#     4  10  18  30  50  76 103 128 160 206 255 300
#     4  10  18  29  45  71  95 131 170 207 249 303
#     4  10  21  36  54  76 104 135 170 207 251 308
#     4  10  21  36  52  75 103 133 172 215 252 297
#     4   9  16  27  45  71 104 139 166 192 242 311
#
# _framework density 16.259238
#
# number of rings (size 3 to 8) (size 9 to 14) (size 15 to 20)
#    0.462    1.769    2.308    2.077    0.000    2.769 
#    0.000    1.923    0.000    2.308    2.000    0.000 
#    0.000    0.000    0.000    0.000    0.000    0.000 
#
# Total GULP energy -1288674.215140 kJ/mol
# GULP energy per Si atom -12391.098223 kJ/mol
# Density = 1.622223 g / cm^3
# Si number density = 16.259238 Si / 1000 Ang^3
#
#
#
# Elastic Constant Matrix: (Units=GPa)
#
#
# Indices 1 2 3 4 5 6 
#
# 1 81.1876 47.7994 45.3702 0.0000 0.0000 0.0000
# 2 47.7994 81.1880 45.3702 0.0000 0.0000 0.0000
# 3 45.3702 45.3702 88.2654 0.0000 0.0000 0.0000
# 4 0.0000 0.0000 0.0000 20.5634 0.0000 0.0000
# 5 0.0000 0.0000 0.0000 0.0000 20.5599 0.0000
# 6 0.0000 0.0000 0.0000 0.0000 0.0000 22.8734
#
#
#
# Elastic Compliance Matrix: (Units=1/GPa)
#
#
# Indices 1 2 3 4 5 6 
#
# 1 0.021047 -0.008903 -0.006242 0.000000 0.000000 0.000000
# 2 -0.008903 0.021047 -0.006242 0.000000 0.000000 0.000000
# 3 -0.006242 -0.006242 0.017747 0.000000 0.000000 0.000000
# 4 0.000000 0.000000 0.000000 0.048630 0.000000 0.000000
# 5 0.000000 0.000000 0.000000 0.000000 0.048638 0.000000
# 6 0.000000 0.000000 0.000000 0.000000 0.000000 0.043719
#
#
# Mechanical properties :
#
#
# Convention : Reuss Voigt Hill
#
# Bulk Modulus (GPa) = 58.59693 58.63564 58.61629
# Shear Modulus (GPa) = 20.05672 20.27275 20.16474
#
# Velocity S-wave (km/s) = 3.51602 3.53490 3.52547
# Velocity P-wave (km/s) = 7.25262 7.26650 7.25956
#
# Compressibility (1/GPa) = 0.01706574
#
# Stress axis : x y z
#
# Youngs Moduli (GPa) = 47.51188 47.51217 56.34820
#
# Poissons Ratio (x) = 0.42301 0.35174
# Poissons Ratio (y) = 0.42301 0.35174
# Poissons Ratio (z) = 0.29658 0.29658
#
# Static dielectric constant tensor:
#      x y z
#    x 2.981750 0.000000 0.000000 
#    y 0.000000 2.981750 0.000000 
#    z 0.000000 0.000000 3.158720 
# 
# 
# High freq. dielectric constant tensor:
#      x y z
#    x 1.608700 0.000000 0.000000 
#    y 0.000000 1.608700 0.000000 
#    z 0.000000 0.000000 1.628090 
# 
# From -- ./inp_files/2256.got.cif
#   From: 2010.03.12/outbox.cif.g09.slc.cpg/sg136_2_cif.got.tgz:2256.got - 2010.04.06 18:39:43.
