data_PCOD8317461
_publ_section_title
;
Structure prediction by ZEFSAII (Michael W. Deem and Ramdas Pophale) SiO2 
 PCOD8317461
Probable space group: P 42/M B C
;
_chemical_formula_sum "Si O2"
_cell_formula_units_Z 112
_cell_length_a 13.736364
_cell_length_b 13.736364
_cell_length_c 28.862959
_cell_angle_alpha 90.000000
_cell_angle_beta 90.000000
_cell_angle_gamma 90.000000
_cell_volume 5446.085232
_symmetry_space_group_name_H-M "P 42/M B C"
_symmetry_group_IT_number 135
_symmetry_cell_setting 'tetragonal'
loop_
_space_group_symop_operation_xyz
x,y,z
-y,x,1/2+z
-x,-y,z
y,-x,1/2+z
1/2+x,1/2-y,-z
1/2-x,1/2+y,-z
1/2+y,1/2+x,1/2-z
1/2-y,1/2-x,1/2-z
-x,-y,-z
y,-x,1/2-z
x,y,-z
-y,x,1/2-z
1/2-x,1/2+y,z
1/2+x,1/2-y,z
1/2-y,1/2-x,1/2+z
1/2+y,1/2+x,1/2+z
loop_
_atom_site_type_symbol
_atom_site_label
_atom_site_fract_x
_atom_site_fract_y
_atom_site_fract_z
Si Si1 0.080472 0.167197 0.051925
Si Si2 0.788373 0.288373 0.750000
Si Si3 0.618019 0.118643 0.448253
Si Si4 0.006874 0.789320 0.411019
Si Si5 0.000000 0.500000 0.380157
Si Si6 0.663152 0.414966 0.371467
Si Si7 0.406567 0.392201 0.769926
Si Si8 0.661908 0.869692 0.153151
O O1 0.143001 0.267016 0.059503
O O2 0.999744 0.160988 0.091247
O O3 0.143708 0.069111 0.054551
O O4 0.034219 0.168917 0.000000
O O5 0.674565 0.311201 0.740130
O O6 0.854139 0.317285 0.706775
O O7 0.602876 0.078171 0.500000
O O8 0.544910 0.208264 0.442076
O O9 0.588789 0.036038 0.411986
O O10 0.919839 0.838903 0.383727
O O11 0.085769 0.753340 0.373644
O O12 0.952592 0.420247 0.347298
O O13 0.635431 0.452037 0.319995
O O14 0.769229 0.366192 0.372130
O O15 0.373459 0.505021 0.766566
#
# Coordination Sequence:
#
# PCOD8317461 Si02
#       8
#    16   8  16  16   8  16  16  16
#     4  11  24  40  62  92 127 165 206 260 316 373
#     4  10  22  41  60  95 132 158 212 266 320 380
#     4  10  21  39  61  87 120 162 212 254 303 373
#     4  11  23  38  64  89 124 165 205 260 314 371
#     4  10  19  39  62  88 118 164 206 251 313 370
#     4  11  23  41  62  91 127 162 205 264 312 374
#     4  10  23  41  67  95 122 169 216 258 319 388
#     4  10  22  40  62  91 123 164 208 260 315 379
#
# _framework density 20.565231000000001
#
# number of rings (size 3 to 8) (size 9 to 14) (size 15 to 20)
#    0.000    1.571    1.429    2.786    6.000    2.000 
#    0.000    3.571    0.000    0.000    0.000    0.000 
#    0.000    0.000    0.000    0.000    0.000    0.000 
#
# Total GULP energy -1388297.856981 kJ/mol
# GULP energy per Si atom -12395.516580 kJ/mol
# Density = 2.051842 g / cm^3
# Si number density = 20.565231 Si / 1000 Ang^3
#
#
#
# Elastic Constant Matrix: (Units=GPa)
#
#
# Indices 1 2 3 4 5 6 
#
# 1 85.9130 25.2169 22.9949 0.0000 0.0000 0.0000
# 2 25.2169 85.9130 22.9949 0.0000 0.0000 0.0000
# 3 22.9949 22.9949 94.8204 0.0000 0.0000 0.0000
# 4 0.0000 0.0000 0.0000 36.9296 0.0000 0.0000
# 5 0.0000 0.0000 0.0000 0.0000 36.9296 0.0000
# 6 0.0000 0.0000 0.0000 0.0000 0.0000 38.6892
#
#
#
# Elastic Compliance Matrix: (Units=1/GPa)
#
#
# Indices 1 2 3 4 5 6 
#
# 1 0.013239 -0.003237 -0.002426 0.000000 0.000000 0.000000
# 2 -0.003237 0.013239 -0.002426 0.000000 0.000000 0.000000
# 3 -0.002426 -0.002426 0.011723 0.000000 0.000000 0.000000
# 4 0.000000 0.000000 0.000000 0.027079 0.000000 0.000000
# 5 0.000000 0.000000 0.000000 0.000000 0.027079 0.000000
# 6 0.000000 0.000000 0.000000 0.000000 0.000000 0.025847
#
#
# Mechanical properties :
#
#
# Convention : Reuss Voigt Hill
#
# Bulk Modulus (GPa) = 45.40352 45.45109 45.42730
# Shear Modulus (GPa) = 35.28032 35.53901 35.40967
#
# Velocity S-wave (km/s) = 4.14639 4.16157 4.15399
# Velocity P-wave (km/s) = 6.71187 6.72610 6.71899
#
# Compressibility (1/GPa) = 0.02202473
#
# Stress axis : x y z
#
# Youngs Moduli (GPa) = 75.53488 75.53488 85.30425
#
# Poissons Ratio (x) = 0.24448 0.20692
# Poissons Ratio (y) = 0.24448 0.20692
# Poissons Ratio (z) = 0.18322 0.18322
#
# Static dielectric constant tensor:
#      x y z
#    x 3.856160 0.000000 0.000000 
#    y 0.000000 3.856160 0.000000 
#    z 0.000000 0.000000 3.751950 
# 
# 
# High freq. dielectric constant tensor:
#      x y z
#    x 1.804580 0.000000 0.000000 
#    y 0.000000 1.804580 0.000000 
#    z 0.000000 0.000000 1.812080 
# 
# From -- ./inp_files/6554.got.cif
#   From: 2010.03.12/outbox.cif.g09.slc.cpg/sg135_4_cif.got.tgz:6554.got - 2010.04.06 18:31:24.
