data_PCOD8317643
_publ_section_title
;
Structure prediction by ZEFSAII (Michael W. Deem and Ramdas Pophale) SiO2 
 PCOD8317643
Probable space group: P 42/M B C
;
_chemical_formula_sum "Si O2"
_cell_formula_units_Z 96
_cell_length_a 14.580341
_cell_length_b 14.580341
_cell_length_c 21.988916
_cell_angle_alpha 90.000000
_cell_angle_beta 90.000000
_cell_angle_gamma 90.000000
_cell_volume 4674.543254
_symmetry_space_group_name_H-M "P 42/M B C"
_symmetry_group_IT_number 135
_symmetry_cell_setting 'tetragonal'
loop_
_space_group_symop_operation_xyz
x,y,z
-y,x,1/2+z
-x,-y,z
y,-x,1/2+z
1/2+x,1/2-y,-z
1/2-x,1/2+y,-z
1/2+y,1/2+x,1/2-z
1/2-y,1/2-x,1/2-z
-x,-y,-z
y,-x,1/2-z
x,y,-z
-y,x,1/2-z
1/2-x,1/2+y,z
1/2+x,1/2-y,z
1/2-y,1/2-x,1/2+z
1/2+y,1/2+x,1/2+z
loop_
_atom_site_type_symbol
_atom_site_label
_atom_site_fract_x
_atom_site_fract_y
_atom_site_fract_z
Si Si1 0.961415 0.251953 0.139682
Si Si2 0.565171 0.916047 0.429008
Si Si3 0.605797 0.758933 0.266697
Si Si4 0.241320 0.458985 0.132738
Si Si5 0.577313 0.575368 0.067845
Si Si6 0.786216 0.662215 0.686386
O O1 0.914178 0.342145 0.110894
O O2 0.910194 0.213409 0.200237
O O3 0.962470 0.171388 0.091004
O O4 0.063899 0.277057 0.157256
O O5 0.591396 0.920330 0.500000
O O6 0.507975 0.824602 0.415547
O O7 0.500000 0.000000 0.409939
O O8 0.637452 0.862549 0.250000
O O9 0.511292 0.762224 0.302863
O O10 0.686082 0.707536 0.304145
O O11 0.343300 0.466228 0.108700
O O12 0.219092 0.350898 0.140179
O O13 0.500000 0.500000 0.069181
O O14 0.614276 0.592166 0.000000
O O15 0.840824 0.659177 0.750000
#
# Coordination Sequence:
#
# PCOD8317643 Si02
#       6
#    16  16  16  16  16  16
#     4  12  23  43  68  98 136 178 219 282 347 401
#     4  11  24  42  66  98 133 171 224 280 337 407
#     4  11  23  39  63  99 138 169 215 275 335 406
#     4  12  23  43  70  96 133 177 224 281 342 405
#     4  11  26  48  67  92 136 186 235 278 330 410
#     4  11  23  40  63 100 139 172 218 273 344 411
#
# _framework density 20.536764999999999
#
# number of rings (size 3 to 8) (size 9 to 14) (size 15 to 20)
#    0.000    0.667    5.000    4.000    0.000    0.000 
#    0.000    2.500    0.000    0.000    0.000    0.000 
#    0.000    0.000    0.000    0.000    0.000    0.000 
#
# Total GULP energy -1190436.029865 kJ/mol
# GULP energy per Si atom -12400.375311 kJ/mol
# Density = 2.049002 g / cm^3
# Si number density = 20.536765 Si / 1000 Ang^3
#
#
#
# Elastic Constant Matrix: (Units=GPa)
#
#
# Indices 1 2 3 4 5 6 
#
# 1 105.4188 31.0801 38.7553 0.0000 0.0000 0.0000
# 2 31.0801 105.4183 38.7553 0.0000 0.0000 0.0000
# 3 38.7553 38.7553 93.7869 0.0000 0.0000 0.0000
# 4 0.0000 0.0000 0.0000 26.3978 0.0000 0.0000
# 5 0.0000 0.0000 0.0000 0.0000 26.3979 0.0000
# 6 0.0000 0.0000 0.0000 0.0000 0.0000 30.9209
#
#
#
# Elastic Compliance Matrix: (Units=1/GPa)
#
#
# Indices 1 2 3 4 5 6 
#
# 1 0.011512 -0.001940 -0.003955 0.000000 0.000000 0.000000
# 2 -0.001940 0.011512 -0.003956 0.000000 0.000000 0.000000
# 3 -0.003955 -0.003956 0.013932 0.000000 0.000000 0.000000
# 4 0.000000 0.000000 0.000000 0.037882 0.000000 0.000000
# 5 0.000000 0.000000 0.000000 0.000000 0.037882 0.000000
# 6 0.000000 0.000000 0.000000 0.000000 0.000000 0.032341
#
#
# Mechanical properties :
#
#
# Convention : Reuss Voigt Hill
#
# Bulk Modulus (GPa) = 57.95780 57.97838 57.96809
# Shear Modulus (GPa) = 29.32326 29.81221 29.56774
#
# Velocity S-wave (km/s) = 3.78278 3.81419 3.79852
# Velocity P-wave (km/s) = 6.88200 6.90581 6.89392
#
# Compressibility (1/GPa) = 0.01725393
#
# Stress axis : x y z
#
# Youngs Moduli (GPa) = 86.86539 86.86491 71.77977
#
# Poissons Ratio (x) = 0.16851 0.28392
# Poissons Ratio (y) = 0.16851 0.28393
# Poissons Ratio (z) = 0.34359 0.34359
#
# Static dielectric constant tensor:
#      x y z
#    x 3.731860 0.000000 0.000000 
#    y 0.000000 3.731860 0.000000 
#    z 0.000000 0.000000 3.969470 
# 
# 
# High freq. dielectric constant tensor:
#      x y z
#    x 1.807820 0.000000 0.000000 
#    y 0.000000 1.807820 0.000000 
#    z 0.000000 0.000000 1.809570 
# 
# From -- ./inp_files/5425.got.cif
#   From: 2010.03.12/outbox.cif.g09.slc.cpg/sg135_3_cif.got.tgz:5425.got - 2010.04.06 18:31:24.
