data_PCOD8317503
_publ_section_title
;
Structure prediction by ZEFSAII (Michael W. Deem and Ramdas Pophale) SiO2 
 PCOD8317503
Probable space group: P 42/M B C
;
_chemical_formula_sum "Si O2"
_cell_formula_units_Z 72
_cell_length_a 20.290871
_cell_length_b 20.290871
_cell_length_c 9.386625
_cell_angle_alpha 90.000000
_cell_angle_beta 90.000000
_cell_angle_gamma 90.000000
_cell_volume 3864.656044
_symmetry_space_group_name_H-M "P 42/M B C"
_symmetry_group_IT_number 135
_symmetry_cell_setting 'tetragonal'
loop_
_space_group_symop_operation_xyz
x,y,z
-y,x,1/2+z
-x,-y,z
y,-x,1/2+z
1/2+x,1/2-y,-z
1/2-x,1/2+y,-z
1/2+y,1/2+x,1/2-z
1/2-y,1/2-x,1/2-z
-x,-y,-z
y,-x,1/2-z
x,y,-z
-y,x,1/2-z
1/2-x,1/2+y,z
1/2+x,1/2-y,z
1/2-y,1/2-x,1/2+z
1/2+y,1/2+x,1/2+z
loop_
_atom_site_type_symbol
_atom_site_label
_atom_site_fract_x
_atom_site_fract_y
_atom_site_fract_z
Si Si1 0.759558 0.904706 0.841593
Si Si2 0.892737 0.524354 0.341568
Si Si3 0.950027 0.730790 0.663032
Si Si4 0.882796 0.382796 0.250000
Si Si5 0.309368 0.712535 0.665931
O O1 0.682471 0.885171 0.845448
O O2 0.796722 0.860597 0.725532
O O3 0.769177 0.981827 0.800244
O O4 0.787805 0.891120 0.000000
O O5 0.957367 0.542634 0.250000
O O6 0.899223 0.553358 0.500000
O O7 0.831141 0.559177 0.265653
O O8 0.884298 0.445924 0.353089
O O9 0.953875 0.705661 0.500000
O O10 0.887255 0.777184 0.687199
O O11 0.266950 0.766950 0.750000
O O12 0.289135 0.715653 0.500000
#
# Coordination Sequence:
#
# PCOD8317503 Si02
#       5
#    16  16  16   8  16
#     4  10  20  36  57  80 109 141 179 228 279 326
#     4  11  22  34  51  75 106 147 189 226 268 322
#     4   9  21  39  56  78 110 144 181 230 280 329
#     4  10  21  34  52  76 108 140 182 223 270 322
#     4  11  22  36  57  84 113 145 184 227 276 332
#
# _framework density 18.630378
#
# number of rings (size 3 to 8) (size 9 to 14) (size 15 to 20)
#    0.000    1.778    1.111    3.000    0.000   10.667 
#    0.000    0.000    0.000    0.667    0.000    4.667 
#    0.000    0.000    0.000    0.000    0.000    0.000 
#
# Total GULP energy -892716.196354 kJ/mol
# GULP energy per Si atom -12398.836060 kJ/mol
# Density = 1.858797 g / cm^3
# Si number density = 18.630378 Si / 1000 Ang^3
#
#
#
# Elastic Constant Matrix: (Units=GPa)
#
#
# Indices 1 2 3 4 5 6 
#
# 1 100.5220 57.9393 53.1728 0.0000 0.0000 0.0000
# 2 57.9393 100.5248 53.1738 0.0000 0.0000 0.0000
# 3 53.1728 53.1738 136.5387 0.0000 0.0000 0.0000
# 4 0.0000 0.0000 0.0000 22.6951 0.0000 0.0000
# 5 0.0000 0.0000 0.0000 0.0000 22.6949 0.0000
# 6 0.0000 0.0000 0.0000 0.0000 0.0000 30.3238
#
#
#
# Elastic Compliance Matrix: (Units=1/GPa)
#
#
# Indices 1 2 3 4 5 6 
#
# 1 0.016013 -0.007470 -0.003327 0.000000 0.000000 0.000000
# 2 -0.007470 0.016013 -0.003327 0.000000 0.000000 0.000000
# 3 -0.003327 -0.003327 0.009915 0.000000 0.000000 0.000000
# 4 0.000000 0.000000 0.000000 0.044062 0.000000 0.000000
# 5 0.000000 0.000000 0.000000 0.000000 0.044063 0.000000
# 6 0.000000 0.000000 0.000000 0.000000 0.000000 0.032977
#
#
# Mechanical properties :
#
#
# Convention : Reuss Voigt Hill
#
# Bulk Modulus (GPa) = 73.02589 74.01747 73.52168
# Shear Modulus (GPa) = 25.52882 26.69607 26.11245
#
# Velocity S-wave (km/s) = 3.70574 3.78952 3.74786
# Velocity P-wave (km/s) = 7.58896 7.67873 7.63398
#
# Compressibility (1/GPa) = 0.01369377
#
# Stress axis : x y z
#
# Youngs Moduli (GPa) = 62.44749 62.44902 100.85337
#
# Poissons Ratio (x) = 0.46648 0.33556
# Poissons Ratio (y) = 0.46646 0.33556
# Poissons Ratio (z) = 0.20777 0.20778
#
# Static dielectric constant tensor:
#      x y z
#    x 3.390090 0.000000 0.000000 
#    y 0.000000 3.390090 0.000000 
#    z 0.000000 0.000000 3.408260 
# 
# 
# High freq. dielectric constant tensor:
#      x y z
#    x 1.709750 0.000000 0.000000 
#    y 0.000000 1.709750 0.000000 
#    z 0.000000 0.000000 1.729940 
# 
# From -- ./inp_files/1037.got.cif
#   From: 2010.03.12/outbox.cif.g09.slc.cpg/sg135_1_cif.got.tgz:1037.got - 2010.04.06 18:31:24.
