data_PCOD8317817
_publ_section_title
;
Structure prediction by ZEFSAII (Michael W. Deem and Ramdas Pophale) SiO2 
 PCOD8317817
Probable space group: P 42/M N M
;
_chemical_formula_sum "Si O2"
_cell_formula_units_Z 96
_cell_length_a 23.652046
_cell_length_b 23.652046
_cell_length_c 9.167291
_cell_angle_alpha 90.000000
_cell_angle_beta 90.000000
_cell_angle_gamma 90.000000
_cell_volume 5128.359331
_symmetry_space_group_name_H-M "P 42/M N M"
_symmetry_group_IT_number 136
_symmetry_cell_setting 'tetragonal'
loop_
_space_group_symop_operation_xyz
x,y,z
1/2-y,1/2+x,1/2+z
-x,-y,z
1/2+y,1/2-x,1/2+z
1/2+x,1/2-y,1/2-z
1/2-x,1/2+y,1/2-z
y,x,-z
-y,-x,-z
-x,-y,-z
1/2+y,1/2-x,1/2-z
x,y,-z
1/2-y,1/2+x,1/2-z
1/2-x,1/2+y,1/2+z
1/2+x,1/2-y,1/2+z
-y,-x,z
y,x,z
loop_
_atom_site_type_symbol
_atom_site_label
_atom_site_fract_x
_atom_site_fract_y
_atom_site_fract_z
Si Si1 0.726393 0.060326 0.173982
Si Si2 0.733971 0.932932 0.832464
Si Si3 0.841550 0.064762 0.331646
Si Si4 0.932485 0.464350 0.164040
Si Si5 0.350174 0.133937 0.662789
Si Si6 0.046048 0.137686 0.168997
O O1 0.784515 0.080256 0.246330
O O2 0.678654 0.104790 0.229050
O O3 0.712967 0.995411 0.222153
O O4 0.732958 0.062292 0.000000
O O5 0.706207 0.877758 0.755383
O O6 0.800593 0.927759 0.803298
O O7 0.718009 0.926419 0.000000
O O8 0.827339 0.052835 0.500000
O O9 0.882514 0.117487 0.312643
O O10 0.871762 0.009734 0.264614
O O11 0.925130 0.516855 0.273365
O O12 0.876447 0.428246 0.161693
O O13 0.947391 0.484542 0.000000
O O14 0.333420 0.153452 0.500000
O O15 0.091906 0.091906 0.218899
O O16 0.029353 0.130679 0.000000
#
# Coordination Sequence:
#
# PCOD8317817 Si02
#       6
#    16  16  16  16  16  16
#     4   9  19  36  54  73 102 140 179 216 256 306
#     4   9  18  33  53  75 101 135 173 215 259 300
#     4  10  21  36  55  82 112 136 163 206 258 306
#     4  10  19  30  43  62  90 122 159 207 260 307
#     4  10  20  32  48  71  98 131 173 217 257 301
#     4   9  19  37  59  81 106 138 173 205 245 305
#
# _framework density 18.719436999999999
#
# number of rings (size 3 to 8) (size 9 to 14) (size 15 to 20)
#    0.000    2.500    0.000    3.500    0.000    8.000 
#    0.000    2.500    0.000    3.000    0.000    0.000 
#    0.000    0.000    0.000    0.000    0.000    0.000 
#
# Total GULP energy -1189803.038040 kJ/mol
# GULP energy per Si atom -12393.781646 kJ/mol
# Density = 1.867683 g / cm^3
# Si number density = 18.719437 Si / 1000 Ang^3
#
#
#
# Elastic Constant Matrix: (Units=GPa)
#
#
# Indices 1 2 3 4 5 6 
#
# 1 71.5992 45.5373 32.5513 0.0000 0.0000 0.0000
# 2 45.5373 71.5992 32.5513 0.0000 0.0000 0.0000
# 3 32.5513 32.5513 64.1745 0.0000 0.0000 0.0000
# 4 0.0000 0.0000 0.0000 25.2396 0.0000 0.0000
# 5 0.0000 0.0000 0.0000 0.0000 25.2396 0.0000
# 6 0.0000 0.0000 0.0000 0.0000 0.0000 35.7655
#
#
#
# Elastic Compliance Matrix: (Units=1/GPa)
#
#
# Indices 1 2 3 4 5 6 
#
# 1 0.025129 -0.013241 -0.006030 0.000000 0.000000 0.000000
# 2 -0.013241 0.025129 -0.006030 0.000000 0.000000 0.000000
# 3 -0.006030 -0.006030 0.021700 0.000000 0.000000 0.000000
# 4 0.000000 0.000000 0.000000 0.039620 0.000000 0.000000
# 5 0.000000 0.000000 0.000000 0.000000 0.039620 0.000000
# 6 0.000000 0.000000 0.000000 0.000000 0.000000 0.027960
#
#
# Mechanical properties :
#
#
# Convention : Reuss Voigt Hill
#
# Bulk Modulus (GPa) = 46.82501 47.62808 47.22654
# Shear Modulus (GPa) = 21.10768 23.69780 22.40274
#
# Velocity S-wave (km/s) = 3.36159 3.56187 3.46318
# Velocity P-wave (km/s) = 6.33526 6.51262 6.42455
#
# Compressibility (1/GPa) = 0.02135611
#
# Stress axis : x y z
#
# Youngs Moduli (GPa) = 39.79402 39.79402 46.08295
#
# Poissons Ratio (x) = 0.52691 0.27789
# Poissons Ratio (y) = 0.52691 0.27789
# Poissons Ratio (z) = 0.23997 0.23997
#
# Static dielectric constant tensor:
#      x y z
#    x 3.353870 0.000000 0.000000 
#    y 0.000000 3.353870 0.000000 
#    z 0.000000 0.000000 3.490380 
# 
# 
# High freq. dielectric constant tensor:
#      x y z
#    x 1.716580 0.000000 0.000000 
#    y 0.000000 1.716580 0.000000 
#    z 0.000000 0.000000 1.723890 
# 
# From -- ./inp_files/2004.got.cif
#   From: 2010.03.12/outbox.cif.g09.slc.cpg/sg136_2_cif.got.tgz:2004.got - 2010.04.06 18:39:43.
