data_PCOD8317840
_publ_section_title
;
Structure prediction by ZEFSAII (Michael W. Deem and Ramdas Pophale) SiO2 
 PCOD8317840
Probable space group: P 42/M N M
;
_chemical_formula_sum "Si O2"
_cell_formula_units_Z 112
_cell_length_a 13.971351
_cell_length_b 13.971351
_cell_length_c 30.763676
_cell_angle_alpha 90.000000
_cell_angle_beta 90.000000
_cell_angle_gamma 90.000000
_cell_volume 6005.027986
_symmetry_space_group_name_H-M "P 42/M N M"
_symmetry_group_IT_number 136
_symmetry_cell_setting 'tetragonal'
loop_
_space_group_symop_operation_xyz
x,y,z
1/2-y,1/2+x,1/2+z
-x,-y,z
1/2+y,1/2-x,1/2+z
1/2+x,1/2-y,1/2-z
1/2-x,1/2+y,1/2-z
y,x,-z
-y,-x,-z
-x,-y,-z
1/2+y,1/2-x,1/2-z
x,y,-z
1/2-y,1/2+x,1/2-z
1/2-x,1/2+y,1/2+z
1/2+x,1/2-y,1/2+z
-y,-x,z
y,x,z
loop_
_atom_site_type_symbol
_atom_site_label
_atom_site_fract_x
_atom_site_fract_y
_atom_site_fract_z
Si Si1 0.712321 0.974733 0.372565
Si Si2 0.504624 0.655270 0.951490
Si Si3 0.037758 0.190026 0.191247
Si Si4 0.139041 0.708727 0.838505
Si Si5 0.001798 0.843587 0.288519
Si Si6 0.157661 0.693136 0.666333
Si Si7 0.078069 0.632769 0.751079
O O1 0.638046 0.884775 0.370250
O O2 0.761958 0.972508 0.419065
O O3 0.786774 0.972465 0.332418
O O4 0.659113 0.079226 0.369321
O O5 0.423996 0.576005 0.951245
O O6 0.605307 0.605307 0.937768
O O7 0.514220 0.699153 0.000000
O O8 0.081599 0.081599 0.185803
O O9 0.118441 0.261889 0.176296
O O10 0.949510 0.215484 0.158609
O O11 0.001038 0.211839 0.240687
O O12 0.236216 0.763785 0.849353
O O13 0.144456 0.664480 0.790532
O O14 0.103808 0.896192 0.294950
O O15 0.920179 0.920179 0.281145
O O16 0.206839 0.793161 0.652495
O O17 0.093703 0.708305 0.711001
O O18 0.118724 0.531252 0.733567
#
# Coordination Sequence:
#
# PCOD8317840 Si02
#       7
#    16  16  16  16  16  16  16
#     4  12  22  33  49  79 108 131 174 220 264 327
#     4   9  18  34  55  78 109 145 174 210 263 325
#     4  10  22  38  51  70  99 139 192 231 263 310
#     4  12  23  35  52  71  99 140 179 228 278 312
#     4  10  19  31  47  66  97 141 181 223 261 293
#     4  11  21  34  51  68  97 139 177 223 270 306
#     4  11  20  34  49  66  99 138 185 230 273 309
#
# _framework density 18.651038
#
# number of rings (size 3 to 8) (size 9 to 14) (size 15 to 20)
#    0.000    1.286    2.857    5.571    0.000    3.714 
#    0.000    0.000    0.000    0.000    0.000    2.000 
#    0.000    1.714    0.000    3.000    0.000    0.143 
#
# Total GULP energy -1387551.003068 kJ/mol
# GULP energy per Si atom -12388.848242 kJ/mol
# Density = 1.860859 g / cm^3
# Si number density = 18.651038 Si / 1000 Ang^3
#
#
#
# Elastic Constant Matrix: (Units=GPa)
#
#
# Indices 1 2 3 4 5 6 
#
# 1 22.9677 77.1561 26.5482 0.0000 0.0000 0.0000
# 2 77.1561 22.9677 26.5482 0.0000 0.0000 0.0000
# 3 26.5482 26.5482 73.6455 0.0000 0.0000 0.0000
# 4 0.0000 0.0000 0.0000 19.6270 0.0000 0.0000
# 5 0.0000 0.0000 0.0000 0.0000 19.6270 0.0000
# 6 0.0000 0.0000 0.0000 0.0000 0.0000 36.1664
#
#
#
# Elastic Compliance Matrix: (Units=1/GPa)
#
#
# Indices 1 2 3 4 5 6 
#
# 1 -0.003053 0.015401 -0.004451 0.000000 0.000000 0.000000
# 2 0.015401 -0.003053 -0.004451 0.000000 0.000000 0.000000
# 3 -0.004451 -0.004451 0.016788 0.000000 0.000000 0.000000
# 4 0.000000 0.000000 0.000000 0.050950 0.000000 0.000000
# 5 0.000000 0.000000 0.000000 0.000000 0.050950 0.000000
# 6 0.000000 0.000000 0.000000 0.000000 0.000000 0.027650
#
#
# Mechanical properties :
#
#
# Convention : Reuss Voigt Hill
#
# Bulk Modulus (GPa) = 42.23174 42.23175 42.23174
# Shear Modulus (GPa) = 37.00187 14.37264 25.68726
#
# Velocity S-wave (km/s) = 4.45894 2.77899 3.71517
# Velocity P-wave (km/s) = 7.01439 5.74364 6.41058
#
# Compressibility (1/GPa) = 0.02367887
#
# Stress axis : x y z
#
# Youngs Moduli (GPa) = -327.55209 -327.55209 59.56685
#
# Poissons Ratio (x) = 5.04469 0.26515
# Poissons Ratio (y) = 5.04469 0.26515
# Poissons Ratio (z) = -1.45805 -1.45805
#
# Static dielectric constant tensor:
#      x y z
#    x 3.865100 0.000000 0.000000 
#    y 0.000000 3.865100 0.000000 
#    z 0.000000 0.000000 3.026860 
# 
# 
# High freq. dielectric constant tensor:
#      x y z
#    x 1.742240 0.000000 0.000000 
#    y 0.000000 1.742240 0.000000 
#    z 0.000000 0.000000 1.647460 
# 
# From -- ./inp_files/9940.got.cif
#   From: 2010.03.12/outbox.cif.g09.slc.cpg/sg136_5_cif.got.tgz:9940.got - 2010.04.06 18:39:43.
