data_PCOD8317330
_publ_section_title
;
Structure prediction by ZEFSAII (Michael W. Deem and Ramdas Pophale) SiO2 
 PCOD8317330
Probable space group: P 42/N N M
;
_chemical_formula_sum "Si O2"
_cell_formula_units_Z 96
_cell_length_a 14.412746
_cell_length_b 14.412746
_cell_length_c 20.347564
_cell_angle_alpha 90.000000
_cell_angle_beta 90.000000
_cell_angle_gamma 90.000000
_cell_volume 4226.743458
_symmetry_space_group_name_H-M "P 42/N N M"
_symmetry_group_IT_number 134
_space_group.IT_coordinate_system_code '2'
_symmetry_cell_setting 'tetragonal'
loop_
_space_group_symop_operation_xyz
x,y,z
1/2-y,x,1/2+z
1/2-x,1/2-y,z
y,1/2-x,1/2+z
x,1/2-y,1/2-z
1/2-x,y,1/2-z
y,x,-z
1/2-y,1/2-x,-z
-x,-y,-z
1/2+y,-x,1/2-z
1/2+x,1/2+y,-z
-y,1/2+x,1/2-z
-x,1/2+y,1/2+z
1/2+x,-y,1/2+z
-y,-x,z
1/2+y,1/2+x,z
loop_
_atom_site_type_symbol
_atom_site_label
_atom_site_fract_x
_atom_site_fract_y
_atom_site_fract_z
Si Si1 0.248362 0.601083 0.455198
Si Si2 0.773251 0.588147 0.034139
Si Si3 0.179894 0.165633 0.857002
Si Si4 0.007913 0.743901 0.174152
Si Si5 0.554860 0.586733 0.645399
Si Si6 0.014461 0.659344 0.721340
O O1 0.345854 0.654147 0.467531
O O2 0.164184 0.664184 0.482803
O O3 0.246618 0.501706 0.492124
O O4 0.229111 0.588919 0.376949
O O5 0.685625 0.649364 0.062696
O O6 0.820132 0.562522 0.103809
O O7 0.847582 0.652419 0.000000
O O8 0.250000 0.250000 0.835095
O O9 0.077007 0.186266 0.834059
O O10 0.200629 0.065741 0.825002
O O11 0.043185 0.750000 0.250000
O O12 0.975681 0.645810 0.146593
O O13 0.473186 0.526815 0.611997
O O14 0.534777 0.604237 0.720919
O O15 0.068041 0.750000 0.750000
O O16 0.090618 0.590618 0.686953
#
# Coordination Sequence:
#
# PCOD8317330 Si02
#       6
#    16  16  16  16  16  16
#     4  11  27  49  69  95 136 184 234 286 346 420
#     4  12  24  42  70  99 129 179 231 282 337 416
#     4  12  24  41  68 103 141 178 227 291 365 421
#     4  12  24  41  70 102 135 175 222 286 360 423
#     4  11  22  39  66  98 129 169 228 283 333 407
#     4  11  23  41  65  99 139 185 234 290 355 426
#
# _framework density 22.712520999999999
#
# number of rings (size 3 to 8) (size 9 to 14) (size 15 to 20)
#    0.000    0.500    6.667    1.000    0.000    5.833 
#    0.000    1.667    0.000    0.000    0.000    0.000 
#    0.000    0.000    0.000    0.000    0.000    0.000 
#
# Total GULP energy -1189315.352316 kJ/mol
# GULP energy per Si atom -12388.701587 kJ/mol
# Density = 2.266083 g / cm^3
# Si number density = 22.712521 Si / 1000 Ang^3
#
#
#
# Elastic Constant Matrix: (Units=GPa)
#
#
# Indices 1 2 3 4 5 6 
#
# 1 78.4115 48.1672 25.6519 0.0000 0.0000 0.0000
# 2 48.1672 78.4100 25.6529 0.0000 0.0000 0.0000
# 3 25.6519 25.6529 99.9462 0.0000 0.0000 0.0000
# 4 0.0000 0.0000 0.0000 4.3133 0.0000 0.0000
# 5 0.0000 0.0000 0.0000 0.0000 4.3109 0.0000
# 6 0.0000 0.0000 0.0000 0.0000 0.0000 19.9806
#
#
#
# Elastic Compliance Matrix: (Units=1/GPa)
#
#
# Indices 1 2 3 4 5 6 
#
# 1 0.020941 -0.012124 -0.002263 0.000000 0.000000 0.000000
# 2 -0.012124 0.020942 -0.002263 0.000000 0.000000 0.000000
# 3 -0.002263 -0.002263 0.011167 0.000000 0.000000 0.000000
# 4 0.000000 0.000000 0.000000 0.231839 0.000000 0.000000
# 5 0.000000 0.000000 0.000000 0.000000 0.231969 0.000000
# 6 0.000000 0.000000 0.000000 0.000000 0.000000 0.050049
#
#
# Mechanical properties :
#
#
# Convention : Reuss Voigt Hill
#
# Bulk Modulus (GPa) = 50.63367 50.63463 50.63415
# Shear Modulus (GPa) = 8.24008 16.20734 12.22371
#
# Velocity S-wave (km/s) = 1.90680 2.67420 2.32241
# Velocity P-wave (km/s) = 5.21436 5.64599 5.43446
#
# Compressibility (1/GPa) = 0.01974970
#
# Stress axis : x y z
#
# Youngs Moduli (GPa) = 47.75333 47.75201 89.54865
#
# Poissons Ratio (x) = 0.57893 0.20264
# Poissons Ratio (y) = 0.57895 0.20268
# Poissons Ratio (z) = 0.10806 0.10808
#
# Static dielectric constant tensor:
#      x y z
#    x 4.293990 0.000000 0.000000 
#    y 0.000000 4.294000 0.000000 
#    z 0.000000 0.000000 4.278680 
# 
# 
# High freq. dielectric constant tensor:
#      x y z
#    x 1.895900 0.000000 0.000000 
#    y 0.000000 1.895900 0.000000 
#    z 0.000000 0.000000 1.897970 
# 
# From -- ./inp_files/9121.got.cif
#   From: 2010.03.12/outbox.cif.g09.slc.cpg/sg134_5_cif.got.tgz:9121.got - 2010.04.06 18:17:22.
