data_PCOD8317545
_publ_section_title
;
Structure prediction by ZEFSAII (Michael W. Deem and Ramdas Pophale) SiO2 
 PCOD8317545
Probable space group: P 42/M B C
;
_chemical_formula_sum "Si O2"
_cell_formula_units_Z 96
_cell_length_a 17.131957
_cell_length_b 17.131957
_cell_length_c 17.066517
_cell_angle_alpha 90.000000
_cell_angle_beta 90.000000
_cell_angle_gamma 90.000000
_cell_volume 5009.090163
_symmetry_space_group_name_H-M "P 42/M B C"
_symmetry_group_IT_number 135
_symmetry_cell_setting 'tetragonal'
loop_
_space_group_symop_operation_xyz
x,y,z
-y,x,1/2+z
-x,-y,z
y,-x,1/2+z
1/2+x,1/2-y,-z
1/2-x,1/2+y,-z
1/2+y,1/2+x,1/2-z
1/2-y,1/2-x,1/2-z
-x,-y,-z
y,-x,1/2-z
x,y,-z
-y,x,1/2-z
1/2-x,1/2+y,z
1/2+x,1/2-y,z
1/2-y,1/2-x,1/2+z
1/2+y,1/2+x,1/2+z
loop_
_atom_site_type_symbol
_atom_site_label
_atom_site_fract_x
_atom_site_fract_y
_atom_site_fract_z
Si Si1 0.678234 0.165157 0.409264
Si Si2 0.594173 0.420643 0.269542
Si Si3 0.576852 0.042099 0.840062
Si Si4 0.419836 0.682715 0.587023
Si Si5 0.559043 0.791523 0.589717
Si Si6 0.184902 0.781582 0.687225
O O1 0.701058 0.159921 0.500000
O O2 0.620774 0.093561 0.388943
O O3 0.636433 0.246474 0.387698
O O4 0.754953 0.160209 0.355833
O O5 0.513748 0.395883 0.227071
O O6 0.592589 0.391682 0.358708
O O7 0.666934 0.382162 0.226284
O O8 0.566136 0.066136 0.750000
O O9 0.500000 0.000000 0.873243
O O10 0.646308 0.980553 0.852192
O O11 0.398856 0.654533 0.500000
O O12 0.508925 0.711992 0.591442
O O13 0.563407 0.823136 0.500000
O O14 0.645367 0.774137 0.622057
O O15 0.227618 0.727618 0.750000
#
# Coordination Sequence:
#
# PCOD8317545 Si02
#       6
#    16  16  16  16  16  16
#     4  10  21  37  59  87 121 161 203 249 306 364
#     4  11  23  41  62  88 118 157 200 249 301 363
#     4  10  22  38  63  91 127 165 204 251 300 374
#     4   9  18  38  61  82 113 156 198 242 301 364
#     4  10  22  40  62  88 123 164 206 247 309 374
#     4  12  23  37  64  90 122 157 205 261 306 362
#
# _framework density 19.165156
#
# number of rings (size 3 to 8) (size 9 to 14) (size 15 to 20)
#    0.000    1.667    3.333    2.500    4.667    1.333 
#    0.000    3.333    0.000    0.000    0.000    0.000 
#    0.000    0.000    0.000    0.000    0.000    0.000 
#
# Total GULP energy -1190503.181115 kJ/mol
# GULP energy per Si atom -12401.074803 kJ/mol
# Density = 1.912154 g / cm^3
# Si number density = 19.165156 Si / 1000 Ang^3
#
#
#
# Elastic Constant Matrix: (Units=GPa)
#
#
# Indices 1 2 3 4 5 6 
#
# 1 78.6753 27.0653 38.8863 0.0000 0.0000 0.0000
# 2 27.0653 78.6753 38.8863 0.0000 0.0000 0.0000
# 3 38.8863 38.8863 108.3770 0.0000 0.0000 0.0000
# 4 0.0000 0.0000 0.0000 30.2185 0.0000 0.0000
# 5 0.0000 0.0000 0.0000 0.0000 30.2185 0.0000
# 6 0.0000 0.0000 0.0000 0.0000 0.0000 29.1757
#
#
#
# Elastic Compliance Matrix: (Units=1/GPa)
#
#
# Indices 1 2 3 4 5 6 
#
# 1 0.016112 -0.003264 -0.004610 0.000000 0.000000 0.000000
# 2 -0.003264 0.016112 -0.004610 0.000000 0.000000 0.000000
# 3 -0.004610 -0.004610 0.012535 0.000000 0.000000 0.000000
# 4 0.000000 0.000000 0.000000 0.033092 0.000000 0.000000
# 5 0.000000 0.000000 0.000000 0.000000 0.033092 0.000000
# 6 0.000000 0.000000 0.000000 0.000000 0.000000 0.034275
#
#
# Mechanical properties :
#
#
# Convention : Reuss Voigt Hill
#
# Bulk Modulus (GPa) = 50.52765 52.82259 51.67512
# Shear Modulus (GPa) = 28.28322 28.64853 28.46587
#
# Velocity S-wave (km/s) = 3.84573 3.87049 3.85813
# Velocity P-wave (km/s) = 6.79273 6.89898 6.84606
#
# Compressibility (1/GPa) = 0.01979115
#
# Stress axis : x y z
#
# Youngs Moduli (GPa) = 62.06605 62.06605 79.77599
#
# Poissons Ratio (x) = 0.20260 0.36775
# Poissons Ratio (y) = 0.20260 0.36775
# Poissons Ratio (z) = 0.28611 0.28611
#
# Static dielectric constant tensor:
#      x y z
#    x 3.458580 0.000000 0.000000 
#    y 0.000000 3.458580 0.000000 
#    z 0.000000 0.000000 3.521810 
# 
# 
# High freq. dielectric constant tensor:
#      x y z
#    x 1.737550 0.000000 0.000000 
#    y 0.000000 1.737550 0.000000 
#    z 0.000000 0.000000 1.753300 
# 
# From -- ./inp_files/4460.got.cif
#   From: 2010.03.12/outbox.cif.g09.slc.cpg/sg135_3_cif.got.tgz:4460.got - 2010.04.06 18:31:24.
