data_PCOD8317302
_publ_section_title
;
Structure prediction by ZEFSAII (Michael W. Deem and Ramdas Pophale) SiO2 
 PCOD8317302
Probable space group: P 42/N N M
;
_chemical_formula_sum "Si O2"
_cell_formula_units_Z 48
_cell_length_a 13.847231
_cell_length_b 13.847231
_cell_length_c 11.038423
_cell_angle_alpha 90.000000
_cell_angle_beta 90.000000
_cell_angle_gamma 90.000000
_cell_volume 2116.571319
_symmetry_space_group_name_H-M "P 42/N N M"
_symmetry_group_IT_number 134
_space_group.IT_coordinate_system_code '2'
_symmetry_cell_setting 'tetragonal'
loop_
_space_group_symop_operation_xyz
x,y,z
1/2-y,x,1/2+z
1/2-x,1/2-y,z
y,1/2-x,1/2+z
x,1/2-y,1/2-z
1/2-x,y,1/2-z
y,x,-z
1/2-y,1/2-x,-z
-x,-y,-z
1/2+y,-x,1/2-z
1/2+x,1/2+y,-z
-y,1/2+x,1/2-z
-x,1/2+y,1/2+z
1/2+x,-y,1/2+z
-y,-x,z
1/2+y,1/2+x,z
loop_
_atom_site_type_symbol
_atom_site_label
_atom_site_fract_x
_atom_site_fract_y
_atom_site_fract_z
Si Si1 0.706792 0.057357 0.129928
Si Si2 0.297881 0.437246 0.060803
Si Si3 0.054427 0.099443 0.691648
O O1 0.750000 0.106435 0.250000
O O2 0.635776 0.135776 0.067077
O O3 0.649061 0.964969 0.180905
O O4 0.790850 0.024848 0.036420
O O5 0.188878 0.422050 0.105193
O O6 0.367700 0.466183 0.170817
O O7 0.339698 0.339698 0.000000
O O8 0.959916 0.040085 0.647188
#
# Coordination Sequence:
#
# PCOD8317302 Si02
#       3
#    16  16  16
#     4  11  23  41  63  95 133 174 214 268 331 391
#     4  11  22  40  66 100 127 171 220 274 319 387
#     4  10  23  42  64  93 135 178 214 264 336 395
#
# _framework density 22.678184999999999
#
# number of rings (size 3 to 8) (size 9 to 14) (size 15 to 20)
#    0.000    1.333    3.333    2.000    0.000    7.667 
#    0.000    0.000    0.000   16.000    0.000    0.000 
#    0.000    0.000    0.000    0.000    0.000    0.000 
#
# Total GULP energy -594991.822488 kJ/mol
# GULP energy per Si atom -12395.662969 kJ/mol
# Density = 2.262657 g / cm^3
# Si number density = 22.678185 Si / 1000 Ang^3
#
#
#
# Elastic Constant Matrix: (Units=GPa)
#
#
# Indices 1 2 3 4 5 6 
#
# 1 92.2869 51.0593 29.4845 0.0000 0.0000 0.0000
# 2 51.0593 92.2869 29.4845 0.0000 0.0000 0.0000
# 3 29.4845 29.4845 124.1601 0.0000 0.0000 0.0000
# 4 0.0000 0.0000 0.0000 22.2941 0.0000 0.0000
# 5 0.0000 0.0000 0.0000 0.0000 22.2941 0.0000
# 6 0.0000 0.0000 0.0000 0.0000 0.0000 45.0832
#
#
#
# Elastic Compliance Matrix: (Units=1/GPa)
#
#
# Indices 1 2 3 4 5 6 
#
# 1 0.015994 -0.008262 -0.001836 0.000000 0.000000 0.000000
# 2 -0.008262 0.015994 -0.001836 0.000000 0.000000 0.000000
# 3 -0.001836 -0.001836 0.008926 0.000000 0.000000 0.000000
# 4 0.000000 0.000000 0.000000 0.044855 0.000000 0.000000
# 5 0.000000 0.000000 0.000000 0.000000 0.044855 0.000000
# 6 0.000000 0.000000 0.000000 0.000000 0.000000 0.022181
#
#
# Mechanical properties :
#
#
# Convention : Reuss Voigt Hill
#
# Bulk Modulus (GPa) = 58.66840 58.75450 58.71145
# Shear Modulus (GPa) = 27.41919 31.18131 29.30025
#
# Velocity S-wave (km/s) = 3.48092 3.71205 3.59834
# Velocity P-wave (km/s) = 6.48705 6.65857 6.57337
#
# Compressibility (1/GPa) = 0.01704495
#
# Stress axis : x y z
#
# Youngs Moduli (GPa) = 62.52536 62.52536 112.03092
#
# Poissons Ratio (x) = 0.51659 0.20569
# Poissons Ratio (y) = 0.51659 0.20569
# Poissons Ratio (z) = 0.11480 0.11480
#
# Static dielectric constant tensor:
#      x y z
#    x 3.953020 0.000000 0.000000 
#    y 0.000000 3.953020 0.000000 
#    z 0.000000 0.000000 4.504650 
# 
# 
# High freq. dielectric constant tensor:
#      x y z
#    x 1.885740 0.000000 0.000000 
#    y 0.000000 1.885740 0.000000 
#    z 0.000000 0.000000 1.909030 
# 
# From -- ./inp_files/2080.got.cif
#   From: 2010.03.12/outbox.cif.g09.slc.cpg/sg134_2_cif.got.tgz:2080.got - 2010.04.06 18:17:22.
