data_PCOD8317686
_publ_section_title
;
Structure prediction by ZEFSAII (Michael W. Deem and Ramdas Pophale) SiO2 
 PCOD8317686
Probable space group: P 42/M N M
;
_chemical_formula_sum "Si O2"
_cell_formula_units_Z 84
_cell_length_a 11.923421
_cell_length_b 11.923421
_cell_length_c 29.857877
_cell_angle_alpha 90.000000
_cell_angle_beta 90.000000
_cell_angle_gamma 90.000000
_cell_volume 4244.833712
_symmetry_space_group_name_H-M "P 42/M N M"
_symmetry_group_IT_number 136
_symmetry_cell_setting 'tetragonal'
loop_
_space_group_symop_operation_xyz
x,y,z
1/2-y,1/2+x,1/2+z
-x,-y,z
1/2+y,1/2-x,1/2+z
1/2+x,1/2-y,1/2-z
1/2-x,1/2+y,1/2-z
y,x,-z
-y,-x,-z
-x,-y,-z
1/2+y,1/2-x,1/2-z
x,y,-z
1/2-y,1/2+x,1/2-z
1/2-x,1/2+y,1/2+z
1/2+x,1/2-y,1/2+z
-y,-x,z
y,x,z
loop_
_atom_site_type_symbol
_atom_site_label
_atom_site_fract_x
_atom_site_fract_y
_atom_site_fract_z
Si Si1 0.328169 0.986288 0.098011
Si Si2 0.094024 0.905977 0.090874
Si Si3 0.016944 0.668833 0.369716
Si Si4 0.410537 0.410537 0.765189
Si Si5 0.910684 0.089317 0.371799
Si Si6 0.831167 0.519434 0.766565
Si Si7 0.869572 0.526373 0.500000
Si Si8 0.811324 0.188677 0.000000
O O1 0.205099 0.952865 0.116084
O O2 0.412906 0.879825 0.101721
O O3 0.375029 0.087835 0.127623
O O4 0.321826 0.027148 0.045930
O O5 0.129574 0.870427 0.041625
O O6 0.000000 0.000000 0.090376
O O7 0.052246 0.788968 0.389966
O O8 0.980678 0.677794 0.318038
O O9 0.500000 0.500000 0.747132
O O10 0.406743 0.406743 0.818494
O O11 0.288789 0.444834 0.746719
O O12 0.000000 0.000000 0.389800
O O13 0.875498 0.415320 0.737490
O O14 0.822495 0.657558 0.500000
O O15 0.000000 0.500000 0.500000
#
# Coordination Sequence:
#
# PCOD8317686 Si02
#       8
#    16   8  16   8   8  16   8   4
#     4  10  20  34  57  81 109 143 180 223 268 326
#     4  10  21  34  53  81 112 143 180 222 273 322
#     4  10  20  36  56  80 108 139 182 221 265 321
#     4   9  20  36  55  81 105 139 181 219 263 319
#     4   9  20  36  56  77 105 142 182 224 261 312
#     4  10  20  36  58  79 107 141 177 221 268 318
#     4  10  16  33  53  83 109 142 184 222 272 318
#     4   8  19  32  52  76 112 145 182 229 262 330
#
# _framework density 19.788761000000001
#
# number of rings (size 3 to 8) (size 9 to 14) (size 15 to 20)
#    0.000    2.286    1.905    2.429    4.000    0.000 
#    0.000    2.857    0.000    6.286    0.000    2.667 
#    0.000    0.000    0.000    0.000    0.000    0.000 
#
# Total GULP energy -1041021.046000 kJ/mol
# GULP energy per Si atom -12393.107690 kJ/mol
# Density = 1.974372 g / cm^3
# Si number density = 19.788761 Si / 1000 Ang^3
#
#
#
# Elastic Constant Matrix: (Units=GPa)
#
#
# Indices 1 2 3 4 5 6 
#
# 1 155.4854 90.8984 2.3018 0.0000 0.0000 0.0000
# 2 90.8984 155.4851 2.3018 0.0000 0.0000 0.0000
# 3 2.3018 2.3018 41.5736 0.0000 0.0000 0.0000
# 4 0.0000 0.0000 0.0000 18.9764 0.0000 0.0000
# 5 0.0000 0.0000 0.0000 0.0000 18.9763 0.0000
# 6 0.0000 0.0000 0.0000 0.0000 0.0000 32.5928
#
#
#
# Elastic Compliance Matrix: (Units=1/GPa)
#
#
# Indices 1 2 3 4 5 6 
#
# 1 0.009773 -0.005710 -0.000225 0.000000 0.000000 0.000000
# 2 -0.005710 0.009773 -0.000225 0.000000 0.000000 0.000000
# 3 -0.000225 -0.000225 0.024079 0.000000 0.000000 0.000000
# 4 0.000000 0.000000 0.000000 0.052697 0.000000 0.000000
# 5 0.000000 0.000000 0.000000 0.000000 0.052697 0.000000
# 6 0.000000 0.000000 0.000000 0.000000 0.000000 0.030682
#
#
# Mechanical properties :
#
#
# Convention : Reuss Voigt Hill
#
# Bulk Modulus (GPa) = 31.94411 60.39423 46.16917
# Shear Modulus (GPa) = 24.69680 31.24524 27.97102
#
# Velocity S-wave (km/s) = 3.53657 3.97790 3.76371
# Velocity P-wave (km/s) = 5.73184 7.18915 6.50146
#
# Compressibility (1/GPa) = 0.03130468
#
# Stress axis : x y z
#
# Youngs Moduli (GPa) = 102.32310 102.32292 41.53056
#
# Poissons Ratio (x) = 0.58427 0.00934
# Poissons Ratio (y) = 0.58427 0.00934
# Poissons Ratio (z) = 0.02302 0.02302
#
# Static dielectric constant tensor:
#      x y z
#    x 3.742480 0.000000 0.000000 
#    y 0.000000 3.742480 0.000000 
#    z 0.000000 0.000000 3.426720 
# 
# 
# High freq. dielectric constant tensor:
#      x y z
#    x 1.768080 0.000000 0.000000 
#    y 0.000000 1.768080 0.000000 
#    z 0.000000 0.000000 1.749540 
# 
# From -- ./inp_files/9839.got.cif
#   From: 2010.03.12/outbox.cif.g09.slc.cpg/sg136_5_cif.got.tgz:9839.got - 2010.04.06 18:39:43.
