data_PCOD8317283
_publ_section_title
;
Structure prediction by ZEFSAII (Michael W. Deem and Ramdas Pophale) SiO2 
 PCOD8317283
Probable space group: P 42/N N M
;
_chemical_formula_sum "Si O2"
_cell_formula_units_Z 96
_cell_length_a 24.874123
_cell_length_b 24.874123
_cell_length_c 9.512940
_cell_angle_alpha 90.000000
_cell_angle_beta 90.000000
_cell_angle_gamma 90.000000
_cell_volume 5885.865215
_symmetry_space_group_name_H-M "P 42/N N M"
_symmetry_group_IT_number 134
_space_group.IT_coordinate_system_code '2'
_symmetry_cell_setting 'tetragonal'
loop_
_space_group_symop_operation_xyz
x,y,z
1/2-y,x,1/2+z
1/2-x,1/2-y,z
y,1/2-x,1/2+z
x,1/2-y,1/2-z
1/2-x,y,1/2-z
y,x,-z
1/2-y,1/2-x,-z
-x,-y,-z
1/2+y,-x,1/2-z
1/2+x,1/2+y,-z
-y,1/2+x,1/2-z
-x,1/2+y,1/2+z
1/2+x,-y,1/2+z
-y,-x,z
1/2+y,1/2+x,z
loop_
_atom_site_type_symbol
_atom_site_label
_atom_site_fract_x
_atom_site_fract_y
_atom_site_fract_z
Si Si1 0.302927 0.322991 0.166543
Si Si2 0.124335 0.464029 0.541126
Si Si3 0.460532 0.960532 0.923743
Si Si4 0.036761 0.963240 0.902652
Si Si5 0.807795 0.918439 0.281447
Si Si6 0.036235 0.125196 0.517429
Si Si7 0.449133 0.308312 0.788371
O O1 0.250000 0.300640 0.250000
O O2 0.354202 0.302915 0.256127
O O3 0.302991 0.386685 0.176252
O O4 0.305132 0.305132 0.000000
O O5 0.081052 0.418949 0.500000
O O6 0.098073 0.522616 0.561768
O O7 0.146454 0.443918 0.687518
O O8 0.171935 0.475057 0.432706
O O9 0.472444 0.972444 0.761671
O O10 0.477494 0.898538 0.967518
O O11 0.500000 0.000000 0.000000
O O12 0.000000 0.000000 0.000000
O O13 0.750000 0.944191 0.250000
O O14 0.823800 0.937643 0.436801
O O15 0.076436 0.076436 0.500000
O O16 0.034669 0.146085 0.676526
O O17 0.473244 0.250000 0.750000
#
# Coordination Sequence:
#
# PCOD8317283 Si02
#       7
#    16  16   8   8  16  16  16
#     4  11  23  40  55  69  96 131 175 228 277 315
#     4  11  19  37  52  73 100 129 172 219 260 318
#     4  10  22  34  50  78 104 128 166 211 272 319
#     4  10  22  32  56  76 100 130 166 215 268 315
#     4  12  22  34  54  71  96 133 177 220 270 307
#     4  11  21  34  52  76 103 132 169 220 265 318
#     4  11  21  35  56  75 102 134 175 215 266 312
#
# _framework density 16.310261000000001
#
# number of rings (size 3 to 8) (size 9 to 14) (size 15 to 20)
#    0.000    1.000    6.667    1.000    9.333    0.333 
#    0.000    1.667    0.000    0.000    0.000    0.000 
#    0.000    0.000    0.000    0.000    0.000   58.333 
#
# Total GULP energy -1189379.503696 kJ/mol
# GULP energy per Si atom -12389.369830 kJ/mol
# Density = 1.627314 g / cm^3
# Si number density = 16.310261 Si / 1000 Ang^3
#
#
#
# Elastic Constant Matrix: (Units=GPa)
#
#
# Indices 1 2 3 4 5 6 
#
# 1 56.5053 41.7049 11.5850 0.0000 0.0000 0.0000
# 2 41.7049 56.5062 11.5854 0.0000 0.0000 0.0000
# 3 11.5850 11.5854 63.9922 0.0000 0.0000 0.0000
# 4 0.0000 0.0000 0.0000 12.5389 0.0000 0.0000
# 5 0.0000 0.0000 0.0000 0.0000 12.5387 0.0000
# 6 0.0000 0.0000 0.0000 0.0000 0.0000 12.6521
#
#
#
# Elastic Compliance Matrix: (Units=1/GPa)
#
#
# Indices 1 2 3 4 5 6 
#
# 1 0.039100 -0.028464 -0.001925 0.000000 0.000000 0.000000
# 2 -0.028464 0.039100 -0.001926 0.000000 0.000000 0.000000
# 3 -0.001925 -0.001926 0.016324 0.000000 0.000000 0.000000
# 4 0.000000 0.000000 0.000000 0.079752 0.000000 0.000000
# 5 0.000000 0.000000 0.000000 0.000000 0.079753 0.000000
# 6 0.000000 0.000000 0.000000 0.000000 0.000000 0.079038
#
#
# Mechanical properties :
#
#
# Convention : Reuss Voigt Hill
#
# Bulk Modulus (GPa) = 33.45089 34.08383 33.76736
# Shear Modulus (GPa) = 12.26507 15.02118 13.64313
#
# Velocity S-wave (km/s) = 2.74521 3.03803 2.89533
# Velocity P-wave (km/s) = 5.53189 5.76617 5.65025
#
# Compressibility (1/GPa) = 0.02989457
#
# Stress axis : x y z
#
# Youngs Moduli (GPa) = 25.57519 25.57555 61.25891
#
# Poissons Ratio (x) = 0.72797 0.11795
# Poissons Ratio (y) = 0.72796 0.11797
# Poissons Ratio (z) = 0.04924 0.04925
#
# Static dielectric constant tensor:
#      x y z
#    x 3.350460 0.000000 0.000000 
#    y 0.000000 3.350470 0.000000 
#    z 0.000000 0.000000 -2.472860 
# 
# 
# High freq. dielectric constant tensor:
#      x y z
#    x 1.599170 0.000000 0.000000 
#    y 0.000000 1.599170 0.000000 
#    z 0.000000 0.000000 1.651180 
# 
# From -- ./inp_files/3248.got.cif
#   From: 2010.03.12/outbox.cif.g09.slc.cpg/sg134_2_cif.got.tgz:3248.got - 2010.04.06 18:17:22.
