data_PCOD8317565
_publ_section_title
;
Structure prediction by ZEFSAII (Michael W. Deem and Ramdas Pophale) SiO2 
 PCOD8317565
Probable space group: P 42/M B C
;
_chemical_formula_sum "Si O2"
_cell_formula_units_Z 112
_cell_length_a 14.557482
_cell_length_b 14.557482
_cell_length_c 25.800525
_cell_angle_alpha 90.000000
_cell_angle_beta 90.000000
_cell_angle_gamma 90.000000
_cell_volume 5467.654538
_symmetry_space_group_name_H-M "P 42/M B C"
_symmetry_group_IT_number 135
_symmetry_cell_setting 'tetragonal'
loop_
_space_group_symop_operation_xyz
x,y,z
-y,x,1/2+z
-x,-y,z
y,-x,1/2+z
1/2+x,1/2-y,-z
1/2-x,1/2+y,-z
1/2+y,1/2+x,1/2-z
1/2-y,1/2-x,1/2-z
-x,-y,-z
y,-x,1/2-z
x,y,-z
-y,x,1/2-z
1/2-x,1/2+y,z
1/2+x,1/2-y,z
1/2-y,1/2-x,1/2+z
1/2+y,1/2+x,1/2+z
loop_
_atom_site_type_symbol
_atom_site_label
_atom_site_fract_x
_atom_site_fract_y
_atom_site_fract_z
Si Si1 0.281429 0.527426 0.296892
Si Si2 0.427171 0.430170 0.365916
Si Si3 0.128499 0.555725 0.057848
Si Si4 0.325686 0.427641 0.801476
Si Si5 0.321118 0.300197 0.441597
Si Si6 0.004348 0.599652 0.153110
Si Si7 0.186484 0.373808 0.888977
O O1 0.336825 0.478918 0.343324
O O2 0.341044 0.615722 0.281007
O O3 0.265950 0.461120 0.247451
O O4 0.178645 0.558349 0.315142
O O5 0.500000 0.500000 0.392918
O O6 0.483909 0.384788 0.318736
O O7 0.391701 0.360719 0.408842
O O8 0.197967 0.640264 0.059893
O O9 0.047200 0.580850 0.096751
O O10 0.177793 0.460323 0.072733
O O11 0.087583 0.546365 0.000000
O O12 0.268512 0.392597 0.849890
O O13 0.318981 0.339480 0.500000
O O14 0.218064 0.294873 0.420696
O O15 0.000000 0.500000 0.182415
O O16 0.903451 0.640513 0.145715
#
# Coordination Sequence:
#
# PCOD8317565 Si02
#       7
#    16  16  16  16  16  16  16
#     4  11  21  41  65  97 128 167 214 264 322 397
#     4  10  21  39  65  96 127 159 212 268 322 393
#     4  10  22  41  63  88 123 170 215 263 326 384
#     4  11  22  38  69  96 126 168 213 265 331 378
#     4  11  22  40  65  93 128 168 212 268 333 384
#     4  10  23  41  62  87 126 166 209 261 309 378
#     4  11  22  39  63  91 127 165 217 265 310 388
#
# _framework density 20.484102
#
# number of rings (size 3 to 8) (size 9 to 14) (size 15 to 20)
#    0.000    1.429    4.286    1.286    0.000    4.000 
#    0.000    5.000    0.000    0.000    0.000    0.000 
#    0.000    0.000    0.000    0.000    0.000    0.000 
#
# Total GULP energy -1388558.634827 kJ/mol
# GULP energy per Si atom -12397.844954 kJ/mol
# Density = 2.043748 g / cm^3
# Si number density = 20.484102 Si / 1000 Ang^3
#
#
#
# Elastic Constant Matrix: (Units=GPa)
#
#
# Indices 1 2 3 4 5 6 
#
# 1 111.3168 30.9024 35.9893 0.0000 0.0000 0.0000
# 2 30.9024 111.3168 35.9893 0.0000 0.0000 0.0000
# 3 35.9893 35.9893 82.4433 0.0000 0.0000 0.0000
# 4 0.0000 0.0000 0.0000 22.7580 0.0000 0.0000
# 5 0.0000 0.0000 0.0000 0.0000 22.7580 0.0000
# 6 0.0000 0.0000 0.0000 0.0000 0.0000 31.6022
#
#
#
# Elastic Compliance Matrix: (Units=1/GPa)
#
#
# Indices 1 2 3 4 5 6 
#
# 1 0.010731 -0.001705 -0.003940 0.000000 0.000000 0.000000
# 2 -0.001705 0.010731 -0.003940 0.000000 0.000000 0.000000
# 3 -0.003940 -0.003940 0.015569 0.000000 0.000000 0.000000
# 4 0.000000 0.000000 0.000000 0.043941 0.000000 0.000000
# 5 0.000000 0.000000 0.000000 0.000000 0.043941 0.000000
# 6 0.000000 0.000000 0.000000 0.000000 0.000000 0.031643
#
#
# Mechanical properties :
#
#
# Convention : Reuss Voigt Hill
#
# Bulk Modulus (GPa) = 55.98923 56.75990 56.37457
# Shear Modulus (GPa) = 27.52118 28.90337 28.21228
#
# Velocity S-wave (km/s) = 3.66941 3.76042 3.71519
# Velocity P-wave (km/s) = 6.73388 6.82816 6.78118
#
# Compressibility (1/GPa) = 0.01786058
#
# Stress axis : x y z
#
# Youngs Moduli (GPa) = 93.19230 93.19230 64.22875
#
# Poissons Ratio (x) = 0.15890 0.25306
# Poissons Ratio (y) = 0.15890 0.25306
# Poissons Ratio (z) = 0.36717 0.36717
#
# Static dielectric constant tensor:
#      x y z
#    x 3.797410 0.000000 0.000000 
#    y 0.000000 3.797410 0.000000 
#    z 0.000000 0.000000 3.565090 
# 
# 
# High freq. dielectric constant tensor:
#      x y z
#    x 1.806440 0.000000 0.000000 
#    y 0.000000 1.806440 0.000000 
#    z 0.000000 0.000000 1.792780 
# 
# From -- ./inp_files/6094.got.cif
#   From: 2010.03.12/outbox.cif.g09.slc.cpg/sg135_4_cif.got.tgz:6094.got - 2010.04.06 18:31:24.
