data_PCOD8317889
_publ_section_title
;
Structure prediction by ZEFSAII (Michael W. Deem and Ramdas Pophale) SiO2 
 PCOD8317889
Probable space group: P 42/M N M
;
_chemical_formula_sum "Si O2"
_cell_formula_units_Z 96
_cell_length_a 23.049834
_cell_length_b 23.049834
_cell_length_c 9.252991
_cell_angle_alpha 90.000000
_cell_angle_beta 90.000000
_cell_angle_gamma 90.000000
_cell_volume 4916.066442
_symmetry_space_group_name_H-M "P 42/M N M"
_symmetry_group_IT_number 136
_symmetry_cell_setting 'tetragonal'
loop_
_space_group_symop_operation_xyz
x,y,z
1/2-y,1/2+x,1/2+z
-x,-y,z
1/2+y,1/2-x,1/2+z
1/2+x,1/2-y,1/2-z
1/2-x,1/2+y,1/2-z
y,x,-z
-y,-x,-z
-x,-y,-z
1/2+y,1/2-x,1/2-z
x,y,-z
1/2-y,1/2+x,1/2-z
1/2-x,1/2+y,1/2+z
1/2+x,1/2-y,1/2+z
-y,-x,z
y,x,z
loop_
_atom_site_type_symbol
_atom_site_label
_atom_site_fract_x
_atom_site_fract_y
_atom_site_fract_z
Si Si1 0.940918 0.450672 0.161596
Si Si2 0.068347 0.068347 0.330360
Si Si3 0.221443 0.609424 0.335777
Si Si4 0.634813 0.542903 0.168955
Si Si5 0.149020 0.149020 0.839892
Si Si6 0.874887 0.336799 0.839405
Si Si7 0.745214 0.020586 0.827531
O O1 0.921442 0.501328 0.270561
O O2 0.891595 0.403786 0.153748
O O3 0.953784 0.474339 0.000000
O O4 0.068076 0.068076 0.500000
O O5 0.114852 0.114852 0.280490
O O6 0.004699 0.087666 0.276848
O O7 0.200018 0.606231 0.500000
O O8 0.283996 0.636821 0.318461
O O9 0.181753 0.658629 0.259324
O O10 0.222446 0.542835 0.273347
O O11 0.606102 0.606102 0.196301
O O12 0.692838 0.535947 0.260472
O O13 0.649795 0.534547 0.000000
O O14 0.128940 0.128940 0.000000
O O15 0.927925 0.298300 0.776675
O O16 0.858785 0.314071 0.000000
O O17 0.751552 0.019007 0.000000
#
# Coordination Sequence:
#
# PCOD8317889 Si02
#       7
#    16   8  16  16   8  16  16
#     4  10  19  32  51  76 106 139 178 227 281 337
#     4  10  19  34  60  90 120 150 182 228 283 339
#     4  10  21  38  61  84 112 149 191 239 287 336
#     4  10  21  37  58  87 120 152 186 228 282 344
#     4  10  20  37  61  87 112 148 194 237 281 334
#     4  10  22  37  54  80 111 146 189 233 282 337
#     4  10  21  39  60  83 114 152 193 239 287 338
#
# _framework density 19.527806999999999
#
# number of rings (size 3 to 8) (size 9 to 14) (size 15 to 20)
#    0.000    2.000    1.667    2.250    0.000    6.000 
#    1.500    0.000    0.000    1.500    0.000    0.000 
#    0.000    0.000    0.000    0.000    0.000    0.000 
#
# Total GULP energy -1189519.828535 kJ/mol
# GULP energy per Si atom -12390.831547 kJ/mol
# Density = 1.948336 g / cm^3
# Si number density = 19.527807 Si / 1000 Ang^3
#
#
#
# Elastic Constant Matrix: (Units=GPa)
#
#
# Indices 1 2 3 4 5 6 
#
# 1 75.2926 50.0195 21.0212 0.0000 0.0000 0.0000
# 2 50.0195 75.2926 21.0212 0.0000 0.0000 0.0000
# 3 21.0212 21.0212 38.5110 0.0000 0.0000 0.0000
# 4 0.0000 0.0000 0.0000 4.5551 0.0000 0.0000
# 5 0.0000 0.0000 0.0000 0.0000 4.5551 0.0000
# 6 0.0000 0.0000 0.0000 0.0000 0.0000 38.6591
#
#
#
# Elastic Compliance Matrix: (Units=1/GPa)
#
#
# Indices 1 2 3 4 5 6 
#
# 1 0.024668 -0.014899 -0.005332 0.000000 0.000000 0.000000
# 2 -0.014899 0.024668 -0.005332 0.000000 0.000000 0.000000
# 3 -0.005332 -0.005332 0.031788 0.000000 0.000000 0.000000
# 4 0.000000 0.000000 0.000000 0.219534 0.000000 0.000000
# 5 0.000000 0.000000 0.000000 0.000000 0.219534 0.000000
# 6 0.000000 0.000000 0.000000 0.000000 0.000000 0.025867
#
#
# Mechanical properties :
#
#
# Convention : Reuss Voigt Hill
#
# Bulk Modulus (GPa) = 33.33726 41.46886 37.40306
# Shear Modulus (GPa) = 8.23469 16.02281 12.12875
#
# Velocity S-wave (km/s) = 2.05574 2.86757 2.49489
# Velocity P-wave (km/s) = 4.76901 5.67854 5.24353
#
# Compressibility (1/GPa) = 0.02999646
#
# Stress axis : x y z
#
# Youngs Moduli (GPa) = 40.53757 40.53757 31.45834
#
# Poissons Ratio (x) = 0.60398 0.16775
# Poissons Ratio (y) = 0.60398 0.16775
# Poissons Ratio (z) = 0.21617 0.21617
#
# Static dielectric constant tensor:
#      x y z
#    x 3.500780 0.000000 0.000000 
#    y 0.000000 3.500780 0.000000 
#    z 0.000000 0.000000 3.673680 
# 
# 
# High freq. dielectric constant tensor:
#      x y z
#    x 1.759350 0.000000 0.000000 
#    y 0.000000 1.759350 0.000000 
#    z 0.000000 0.000000 1.750550 
# 
# From -- ./inp_files/2030.got.cif
#   From: 2010.03.12/outbox.cif.g09.slc.cpg/sg136_2_cif.got.tgz:2030.got - 2010.04.06 18:39:43.
