data_PCOD8317856
_publ_section_title
;
Structure prediction by ZEFSAII (Michael W. Deem and Ramdas Pophale) SiO2 
 PCOD8317856
Probable space group: P 42/M N M
;
_chemical_formula_sum "Si O2"
_cell_formula_units_Z 80
_cell_length_a 19.634318
_cell_length_b 19.634318
_cell_length_c 12.630962
_cell_angle_alpha 90.000000
_cell_angle_beta 90.000000
_cell_angle_gamma 90.000000
_cell_volume 4869.317236
_symmetry_space_group_name_H-M "P 42/M N M"
_symmetry_group_IT_number 136
_symmetry_cell_setting 'tetragonal'
loop_
_space_group_symop_operation_xyz
x,y,z
1/2-y,1/2+x,1/2+z
-x,-y,z
1/2+y,1/2-x,1/2+z
1/2+x,1/2-y,1/2-z
1/2-x,1/2+y,1/2-z
y,x,-z
-y,-x,-z
-x,-y,-z
1/2+y,1/2-x,1/2-z
x,y,-z
1/2-y,1/2+x,1/2-z
1/2-x,1/2+y,1/2+z
1/2+x,1/2-y,1/2+z
-y,-x,z
y,x,z
loop_
_atom_site_type_symbol
_atom_site_label
_atom_site_fract_x
_atom_site_fract_y
_atom_site_fract_z
Si Si1 0.744129 0.977211 0.123926
Si Si2 0.106321 0.999503 0.874645
Si Si3 0.923169 0.347081 0.260533
Si Si4 0.575004 0.973977 0.619938
Si Si5 0.291610 0.179491 0.123181
O O1 0.818335 0.994373 0.171092
O O2 0.695145 0.027369 0.185660
O O3 0.730121 0.898034 0.145176
O O4 0.737211 0.994001 0.000000
O O5 0.073305 0.926696 0.843316
O O6 0.108738 0.007930 0.000000
O O7 0.060031 0.060031 0.827009
O O8 0.900083 0.412624 0.193668
O O9 0.857547 0.305313 0.303036
O O10 0.963822 0.372654 0.364055
O O11 0.577207 0.948625 0.500000
O O12 0.500000 0.000000 0.651206
O O13 0.230564 0.230564 0.156307
O O14 0.310005 0.189995 0.000000
#
# Coordination Sequence:
#
# PCOD8317856 Si02
#       5
#    16  16  16  16  16
#     4  10  19  31  50  73 102 136 171 206 254 313
#     4   8  14  26  45  69  95 122 156 201 250 297
#     4  12  19  33  49  75 100 134 169 210 258 300
#     4  11  20  32  50  73 102 132 168 209 250 297
#     4  10  21  36  53  74 102 138 178 218 260 310
#
# _framework density 16.429407999999999
#
# number of rings (size 3 to 8) (size 9 to 14) (size 15 to 20)
#    0.000    1.800    4.000    2.400    0.000    6.400 
#    0.000    0.000    0.000    1.800    0.000    0.000 
#    0.000    0.000    0.000    9.600    0.000    0.800 
#
# Total GULP energy -991637.668162 kJ/mol
# GULP energy per Si atom -12395.470852 kJ/mol
# Density = 1.639201 g / cm^3
# Si number density = 16.429408 Si / 1000 Ang^3
#
#
#
# Elastic Constant Matrix: (Units=GPa)
#
#
# Indices 1 2 3 4 5 6 
#
# 1 103.9963 43.7686 35.3483 0.0000 0.0000 0.0000
# 2 43.7686 103.9963 35.3483 0.0000 0.0000 0.0000
# 3 35.3483 35.3483 60.7889 0.0000 0.0000 0.0000
# 4 0.0000 0.0000 0.0000 16.9270 0.0000 0.0000
# 5 0.0000 0.0000 0.0000 0.0000 16.9270 0.0000
# 6 0.0000 0.0000 0.0000 0.0000 0.0000 32.4581
#
#
#
# Elastic Compliance Matrix: (Units=1/GPa)
#
#
# Indices 1 2 3 4 5 6 
#
# 1 0.012990 -0.003614 -0.005452 0.000000 0.000000 0.000000
# 2 -0.003614 0.012990 -0.005452 0.000000 0.000000 0.000000
# 3 -0.005452 -0.005452 0.022791 0.000000 0.000000 0.000000
# 4 0.000000 0.000000 0.000000 0.059077 0.000000 0.000000
# 5 0.000000 0.000000 0.000000 0.000000 0.059077 0.000000
# 6 0.000000 0.000000 0.000000 0.000000 0.000000 0.030809
#
#
# Mechanical properties :
#
#
# Convention : Reuss Voigt Hill
#
# Bulk Modulus (GPa) = 50.67202 55.30132 52.98667
# Shear Modulus (GPa) = 21.42718 23.55017 22.48867
#
# Velocity S-wave (km/s) = 3.61528 3.79015 3.70375
# Velocity P-wave (km/s) = 6.95243 7.27233 7.11418
#
# Compressibility (1/GPa) = 0.01973476
#
# Stress axis : x y z
#
# Youngs Moduli (GPa) = 76.98332 76.98332 43.87682
#
# Poissons Ratio (x) = 0.27820 0.23922
# Poissons Ratio (y) = 0.27820 0.23922
# Poissons Ratio (z) = 0.41972 0.41972
#
# Static dielectric constant tensor:
#      x y z
#    x 3.212650 0.000000 0.000000 
#    y 0.000000 3.212650 0.000000 
#    z 0.000000 0.000000 2.823370 
# 
# 
# High freq. dielectric constant tensor:
#      x y z
#    x 1.632160 0.000000 0.000000 
#    y 0.000000 1.632160 0.000000 
#    z 0.000000 0.000000 1.603380 
# 
# From -- ./inp_files/4911.got.cif
#   From: 2010.03.12/outbox.cif.g09.slc.cpg/sg136_3_cif.got.tgz:4911.got - 2010.04.06 18:39:43.
