data_PCOD8317456
_publ_section_title
;
Structure prediction by ZEFSAII (Michael W. Deem and Ramdas Pophale) SiO2 
 PCOD8317456
Probable space group: P 42/M B C
;
_chemical_formula_sum "Si O2"
_cell_formula_units_Z 120
_cell_length_a 20.182697
_cell_length_b 20.182697
_cell_length_c 15.669317
_cell_angle_alpha 90.000000
_cell_angle_beta 90.000000
_cell_angle_gamma 90.000000
_cell_volume 6382.759302
_symmetry_space_group_name_H-M "P 42/M B C"
_symmetry_group_IT_number 135
_symmetry_cell_setting 'tetragonal'
loop_
_space_group_symop_operation_xyz
x,y,z
-y,x,1/2+z
-x,-y,z
y,-x,1/2+z
1/2+x,1/2-y,-z
1/2-x,1/2+y,-z
1/2+y,1/2+x,1/2-z
1/2-y,1/2-x,1/2-z
-x,-y,-z
y,-x,1/2-z
x,y,-z
-y,x,1/2-z
1/2-x,1/2+y,z
1/2+x,1/2-y,z
1/2-y,1/2-x,1/2+z
1/2+y,1/2+x,1/2+z
loop_
_atom_site_type_symbol
_atom_site_label
_atom_site_fract_x
_atom_site_fract_y
_atom_site_fract_z
Si Si1 0.474690 0.123344 0.727816
Si Si2 0.642534 0.692244 0.691476
Si Si3 0.370017 0.765011 0.102960
Si Si4 0.306557 0.506035 0.594664
Si Si5 0.191178 0.599294 0.095237
Si Si6 0.384326 0.219148 0.841195
Si Si7 0.628484 0.128484 0.250000
Si Si8 0.910062 0.954434 0.735161
O O1 0.452686 0.047315 0.750000
O O2 0.452821 0.138202 0.631368
O O3 0.432384 0.172477 0.786628
O O4 0.551465 0.138767 0.732353
O O5 0.707912 0.679421 0.635483
O O6 0.591831 0.736922 0.637482
O O7 0.657976 0.731918 0.779435
O O8 0.602699 0.625430 0.710829
O O9 0.444053 0.739201 0.122104
O O10 0.354394 0.828829 0.164256
O O11 0.359933 0.780045 0.000000
O O12 0.334579 0.493863 0.500000
O O13 0.260775 0.571113 0.593894
O O14 0.368756 0.518898 0.655079
O O15 0.167361 0.675402 0.106175
O O16 0.199624 0.578146 0.000000
O O17 0.980820 0.923900 0.705356
#
# Coordination Sequence:
#
# PCOD8317456 Si02
#       8
#    16  16  16  16  16  16   8  16
#     4   9  19  36  56  82 110 149 199 242 294 343
#     4  10  20  36  58  82 117 150 195 237 287 349
#     4  11  24  39  59  88 119 158 198 236 294 357
#     4  10  19  36  58  84 114 146 193 245 288 343
#     4  10  20  34  57  85 115 150 196 246 292 346
#     4   9  18  35  58  82 109 152 197 238 285 349
#     4  12  23  38  62  82 122 164 192 243 300 358
#     4  10  20  37  61  85 110 150 194 236 293 356
#
# _framework density 18.800647000000001
#
# number of rings (size 3 to 8) (size 9 to 14) (size 15 to 20)
#    0.000    2.000    2.667    2.200    1.867    0.533 
#    0.000    2.667    0.000    2.400    0.000    0.000 
#    0.000    0.000    0.000    0.000    0.000    0.000 
#
# Total GULP energy -1486685.275239 kJ/mol
# GULP energy per Si atom -12389.043960 kJ/mol
# Density = 1.875786 g / cm^3
# Si number density = 18.800647 Si / 1000 Ang^3
#
#
#
# Elastic Constant Matrix: (Units=GPa)
#
#
# Indices 1 2 3 4 5 6 
#
# 1 71.9534 19.1128 19.6743 0.0000 0.0000 0.0000
# 2 19.1128 71.9564 19.6753 0.0000 0.0000 0.0000
# 3 19.6743 19.6753 83.5964 0.0000 0.0000 0.0000
# 4 0.0000 0.0000 0.0000 21.2147 0.0000 0.0000
# 5 0.0000 0.0000 0.0000 0.0000 21.2142 0.0000
# 6 0.0000 0.0000 0.0000 0.0000 0.0000 24.8862
#
#
#
# Elastic Compliance Matrix: (Units=1/GPa)
#
#
# Indices 1 2 3 4 5 6 
#
# 1 0.015574 -0.003350 -0.002877 0.000000 0.000000 0.000000
# 2 -0.003350 0.015574 -0.002877 0.000000 0.000000 0.000000
# 3 -0.002877 -0.002877 0.013316 0.000000 0.000000 0.000000
# 4 0.000000 0.000000 0.000000 0.047137 0.000000 0.000000
# 5 0.000000 0.000000 0.000000 0.000000 0.047138 0.000000
# 6 0.000000 0.000000 0.000000 0.000000 0.000000 0.040183
#
#
# Mechanical properties :
#
#
# Convention : Reuss Voigt Hill
#
# Bulk Modulus (GPa) = 38.08581 38.27012 38.17797
# Shear Modulus (GPa) = 24.28558 24.73259 24.50908
#
# Velocity S-wave (km/s) = 3.59798 3.63094 3.61450
# Velocity P-wave (km/s) = 6.12881 6.16265 6.14575
#
# Compressibility (1/GPa) = 0.02625650
#
# Stress axis : x y z
#
# Youngs Moduli (GPa) = 64.20779 64.21028 75.09509
#
# Poissons Ratio (x) = 0.21512 0.21604
# Poissons Ratio (y) = 0.21511 0.21605
# Poissons Ratio (z) = 0.18472 0.18473
#
# Static dielectric constant tensor:
#      x y z
#    x 3.531590 0.000000 0.000000 
#    y 0.000000 3.531580 0.000000 
#    z 0.000000 0.000000 3.403390 
# 
# 
# High freq. dielectric constant tensor:
#      x y z
#    x 1.731020 0.000000 0.000000 
#    y 0.000000 1.731020 0.000000 
#    z 0.000000 0.000000 1.715760 
# 
# From -- ./inp_files/3716.got.cif
#   From: 2010.03.12/outbox.cif.g09.slc.cpg/sg135_2_cif.got.tgz:3716.got - 2010.04.06 18:31:24.
