data_PCOD8317596
_publ_section_title
;
Structure prediction by ZEFSAII (Michael W. Deem and Ramdas Pophale) SiO2 
 PCOD8317596
Probable space group: P 42/M B C
;
_chemical_formula_sum "Si O2"
_cell_formula_units_Z 112
_cell_length_a 13.812614
_cell_length_b 13.812614
_cell_length_c 26.949695
_cell_angle_alpha 90.000000
_cell_angle_beta 90.000000
_cell_angle_gamma 90.000000
_cell_volume 5141.686643
_symmetry_space_group_name_H-M "P 42/M B C"
_symmetry_group_IT_number 135
_symmetry_cell_setting 'tetragonal'
loop_
_space_group_symop_operation_xyz
x,y,z
-y,x,1/2+z
-x,-y,z
y,-x,1/2+z
1/2+x,1/2-y,-z
1/2-x,1/2+y,-z
1/2+y,1/2+x,1/2-z
1/2-y,1/2-x,1/2-z
-x,-y,-z
y,-x,1/2-z
x,y,-z
-y,x,1/2-z
1/2-x,1/2+y,z
1/2+x,1/2-y,z
1/2-y,1/2-x,1/2+z
1/2+y,1/2+x,1/2+z
loop_
_atom_site_type_symbol
_atom_site_label
_atom_site_fract_x
_atom_site_fract_y
_atom_site_fract_z
Si Si1 0.777211 0.310313 0.374125
Si Si2 0.108219 0.349285 0.633859
Si Si3 0.511831 0.644921 0.764263
Si Si4 0.437539 0.166092 0.290443
Si Si5 0.546638 0.791914 0.444119
Si Si6 0.276595 0.480898 0.632075
Si Si7 0.575243 0.577436 0.444240
O O1 0.696766 0.227383 0.366143
O O2 0.846918 0.322473 0.326995
O O3 0.844833 0.298932 0.422380
O O4 0.714868 0.406903 0.381487
O O5 0.162614 0.452588 0.633597
O O6 0.040899 0.347131 0.682601
O O7 0.038000 0.345025 0.586299
O O8 0.598442 0.567606 0.772775
O O9 0.560507 0.736257 0.740040
O O10 0.459855 0.670837 0.815876
O O11 0.419227 0.080774 0.250000
O O12 0.547355 0.834236 0.500000
O O13 0.519505 0.679011 0.443911
O O14 0.330546 0.417402 0.590480
O O15 0.500000 0.500000 0.422390
O O16 0.608158 0.549422 0.500000
#
# Coordination Sequence:
#
# PCOD8317596 Si02
#       7
#    16  16  16  16  16  16  16
#     4  11  23  45  67  98 136 181 225 281 339 407
#     4  11  25  43  69  97 136 184 223 281 342 404
#     4  11  25  42  67 100 129 179 229 285 340 396
#     4  11  24  45  63  93 138 175 230 275 334 412
#     4  10  23  43  69 100 137 179 225 282 346 411
#     4  12  24  42  69  98 134 178 225 273 343 410
#     4  10  22  41  69 102 132 170 227 287 339 395
#
# _framework density 21.782734000000001
#
# number of rings (size 3 to 8) (size 9 to 14) (size 15 to 20)
#    0.000    1.143    2.857    2.571    4.000    4.571 
#    2.571    0.714    0.000    0.000    0.000    0.000 
#    0.000    0.000    0.000    0.000    0.000    0.000 
#
# Total GULP energy -1388708.513759 kJ/mol
# GULP energy per Si atom -12399.183159 kJ/mol
# Density = 2.173316 g / cm^3
# Si number density = 21.782734 Si / 1000 Ang^3
#
#
#
# Elastic Constant Matrix: (Units=GPa)
#
#
# Indices 1 2 3 4 5 6 
#
# 1 93.0507 30.5462 46.2642 0.0000 0.0000 0.0000
# 2 30.5462 93.0525 46.2642 0.0000 0.0000 0.0000
# 3 46.2642 46.2642 135.6840 0.0000 0.0000 0.0000
# 4 0.0000 0.0000 0.0000 27.7151 0.0000 0.0000
# 5 0.0000 0.0000 0.0000 0.0000 27.7160 0.0000
# 6 0.0000 0.0000 0.0000 0.0000 0.0000 46.7541
#
#
#
# Elastic Compliance Matrix: (Units=1/GPa)
#
#
# Indices 1 2 3 4 5 6 
#
# 1 0.013431 -0.002567 -0.003704 0.000000 0.000000 0.000000
# 2 -0.002567 0.013431 -0.003704 0.000000 0.000000 0.000000
# 3 -0.003704 -0.003704 0.009896 0.000000 0.000000 0.000000
# 4 0.000000 0.000000 0.000000 0.036081 0.000000 0.000000
# 5 0.000000 0.000000 0.000000 0.000000 0.036080 0.000000
# 6 0.000000 0.000000 0.000000 0.000000 0.000000 0.021388
#
#
# Mechanical properties :
#
#
# Convention : Reuss Voigt Hill
#
# Bulk Modulus (GPa) = 59.49955 63.10405 61.30180
# Shear Modulus (GPa) = 32.07948 33.68454 32.88201
#
# Velocity S-wave (km/s) = 3.84174 3.93668 3.88950
# Velocity P-wave (km/s) = 6.85952 7.04953 6.95517
#
# Compressibility (1/GPa) = 0.01680685
#
# Stress axis : x y z
#
# Youngs Moduli (GPa) = 74.45247 74.45418 101.04941
#
# Poissons Ratio (x) = 0.19115 0.37432
# Poissons Ratio (y) = 0.19115 0.37431
# Poissons Ratio (z) = 0.27580 0.27579
#
# Static dielectric constant tensor:
#      x y z
#    x 3.956860 0.000000 0.000000 
#    y 0.000000 3.956860 0.000000 
#    z 0.000000 0.000000 4.140210 
# 
# 
# High freq. dielectric constant tensor:
#      x y z
#    x 1.861520 0.000000 0.000000 
#    y 0.000000 1.861520 0.000000 
#    z 0.000000 0.000000 1.854750 
# 
# From -- ./inp_files/6110.got.cif
#   From: 2010.03.12/outbox.cif.g09.slc.cpg/sg135_4_cif.got.tgz:6110.got - 2010.04.06 18:31:24.
