data_PCOD8317921
_publ_section_title
;
Structure prediction by ZEFSAII (Michael W. Deem and Ramdas Pophale) SiO2 
 PCOD8317921
Probable space group: P 42/M N M
;
_chemical_formula_sum "Si O2"
_cell_formula_units_Z 72
_cell_length_a 18.299577
_cell_length_b 18.299577
_cell_length_c 12.916559
_cell_angle_alpha 90.000000
_cell_angle_beta 90.000000
_cell_angle_gamma 90.000000
_cell_volume 4325.426474
_symmetry_space_group_name_H-M "P 42/M N M"
_symmetry_group_IT_number 136
_symmetry_cell_setting 'tetragonal'
loop_
_space_group_symop_operation_xyz
x,y,z
1/2-y,1/2+x,1/2+z
-x,-y,z
1/2+y,1/2-x,1/2+z
1/2+x,1/2-y,1/2-z
1/2-x,1/2+y,1/2-z
y,x,-z
-y,-x,-z
-x,-y,-z
1/2+y,1/2-x,1/2-z
x,y,-z
1/2-y,1/2+x,1/2-z
1/2-x,1/2+y,1/2+z
1/2+x,1/2-y,1/2+z
-y,-x,z
y,x,z
loop_
_atom_site_type_symbol
_atom_site_label
_atom_site_fract_x
_atom_site_fract_y
_atom_site_fract_z
Si Si1 0.218984 0.018840 0.119320
Si Si2 0.291483 0.172669 0.883011
Si Si3 0.558631 0.441370 0.623050
Si Si4 0.673556 0.072959 0.757713
Si Si5 0.079590 0.530647 0.120607
O O1 0.272018 0.088021 0.129936
O O2 0.138733 0.036857 0.164091
O O3 0.252210 0.954678 0.189180
O O4 0.214238 0.993249 0.000000
O O5 0.219578 0.219578 0.858958
O O6 0.353540 0.194536 0.802213
O O7 0.319236 0.187187 0.000000
O O8 0.500000 0.500000 0.664266
O O9 0.561238 0.438763 0.500000
O O10 0.614916 0.086830 0.848051
O O11 0.642141 0.015069 0.676614
O O12 0.000000 0.500000 0.151508
O O13 0.093757 0.522792 0.000000
#
# Coordination Sequence:
#
# PCOD8317921 Si02
#       5
#    16  16   8  16  16
#     4  10  19  33  54  77 106 141 176 215 264 320
#     4  10  20  35  54  76 103 140 183 223 262 311
#     4   9  18  34  56  80 103 131 175 226 272 311
#     4  12  19  32  50  78 104 140 176 210 261 314
#     4  11  20  31  46  72 109 143 174 207 249 312
#
# _framework density 16.645757
#
# number of rings (size 3 to 8) (size 9 to 14) (size 15 to 20)
#    0.000    1.444    5.556    1.333    0.000    4.444 
#    0.000    0.000    0.000    2.000    0.000    2.333 
#    0.000    5.333    0.000    0.000    0.000    0.000 
#
# Total GULP energy -893030.708972 kJ/mol
# GULP energy per Si atom -12403.204291 kJ/mol
# Density = 1.660787 g / cm^3
# Si number density = 16.645757 Si / 1000 Ang^3
#
#
#
# Elastic Constant Matrix: (Units=GPa)
#
#
# Indices 1 2 3 4 5 6 
#
# 1 70.9569 14.4007 28.3299 0.0000 0.0000 0.0000
# 2 14.4007 70.9571 28.3300 0.0000 0.0000 0.0000
# 3 28.3299 28.3300 70.9623 0.0000 0.0000 0.0000
# 4 0.0000 0.0000 0.0000 14.6981 0.0000 0.0000
# 5 0.0000 0.0000 0.0000 0.0000 14.6980 0.0000
# 6 0.0000 0.0000 0.0000 0.0000 0.0000 30.1217
#
#
#
# Elastic Compliance Matrix: (Units=1/GPa)
#
#
# Indices 1 2 3 4 5 6 
#
# 1 0.016810 -0.000871 -0.006363 0.000000 0.000000 0.000000
# 2 -0.000871 0.016810 -0.006363 0.000000 0.000000 0.000000
# 3 -0.006363 -0.006363 0.019173 0.000000 0.000000 0.000000
# 4 0.000000 0.000000 0.000000 0.068036 0.000000 0.000000
# 5 0.000000 0.000000 0.000000 0.000000 0.068036 0.000000
# 6 0.000000 0.000000 0.000000 0.000000 0.000000 0.033199
#
#
# Mechanical properties :
#
#
# Convention : Reuss Voigt Hill
#
# Bulk Modulus (GPa) = 39.06553 39.44416 39.25485
# Shear Modulus (GPa) = 19.39538 21.35795 20.37666
#
# Velocity S-wave (km/s) = 3.41718 3.58591 3.50256
# Velocity P-wave (km/s) = 6.25214 6.39473 6.32384
#
# Compressibility (1/GPa) = 0.02559801
#
# Stress axis : x y z
#
# Youngs Moduli (GPa) = 59.48681 59.48689 52.15711
#
# Poissons Ratio (x) = 0.05182 0.33190
# Poissons Ratio (y) = 0.05182 0.33190
# Poissons Ratio (z) = 0.37854 0.37854
#
# Static dielectric constant tensor:
#      x y z
#    x 3.082020 0.000000 0.000000 
#    y 0.000000 3.082010 0.000000 
#    z 0.000000 0.000000 3.042060 
# 
# 
# High freq. dielectric constant tensor:
#      x y z
#    x 1.635100 0.000000 0.000000 
#    y 0.000000 1.635100 0.000000 
#    z 0.000000 0.000000 1.629640 
# 
# From -- ./inp_files/3437.got.cif
#   From: 2010.03.12/outbox.cif.g09.slc.cpg/sg136_2_cif.got.tgz:3437.got - 2010.04.06 18:39:43.
