data_PCOD8317896
_publ_section_title
;
Structure prediction by ZEFSAII (Michael W. Deem and Ramdas Pophale) SiO2 
 PCOD8317896
Probable space group: P 42/M N M
;
_chemical_formula_sum "Si O2"
_cell_formula_units_Z 96
_cell_length_a 24.493596
_cell_length_b 24.493596
_cell_length_c 8.796458
_cell_angle_alpha 90.000000
_cell_angle_beta 90.000000
_cell_angle_gamma 90.000000
_cell_volume 5277.313982
_symmetry_space_group_name_H-M "P 42/M N M"
_symmetry_group_IT_number 136
_symmetry_cell_setting 'tetragonal'
loop_
_space_group_symop_operation_xyz
x,y,z
1/2-y,1/2+x,1/2+z
-x,-y,z
1/2+y,1/2-x,1/2+z
1/2+x,1/2-y,1/2-z
1/2-x,1/2+y,1/2-z
y,x,-z
-y,-x,-z
-x,-y,-z
1/2+y,1/2-x,1/2-z
x,y,-z
1/2-y,1/2+x,1/2-z
1/2-x,1/2+y,1/2+z
1/2+x,1/2-y,1/2+z
-y,-x,z
y,x,z
loop_
_atom_site_type_symbol
_atom_site_label
_atom_site_fract_x
_atom_site_fract_y
_atom_site_fract_z
Si Si1 0.701146 0.910400 0.673415
Si Si2 0.380612 0.380612 0.174820
Si Si3 0.277042 0.970667 0.674375
Si Si4 0.335220 0.479437 0.671566
Si Si5 0.296900 0.296900 0.679894
Si Si6 0.901950 0.813931 0.826321
Si Si7 0.690612 0.149921 0.324475
O O1 0.690011 0.894096 0.500000
O O2 0.764747 0.901836 0.708543
O O3 0.666296 0.870473 0.778264
O O4 0.686259 0.974659 0.702416
O O5 0.443722 0.370509 0.212714
O O6 0.341403 0.341403 0.270820
O O7 0.368520 0.368520 0.000000
O O8 0.255184 0.971488 0.500000
O O9 0.228253 0.971172 0.793524
O O10 0.309093 0.914918 0.707657
O O11 0.346597 0.459676 0.500000
O O12 0.349930 0.543067 0.692669
O O13 0.294296 0.294296 0.500000
O O14 0.315307 0.237113 0.737939
O O15 0.851048 0.851048 0.783536
O O16 0.898042 0.792134 0.000000
O O17 0.700237 0.162993 0.500000
#
# Coordination Sequence:
#
# PCOD8317896 Si02
#       7
#    16   8  16  16   8  16  16
#     4  10  21  36  55  82 111 143 181 224 266 319
#     4  12  22  34  51  75 108 143 174 218 275 331
#     4   9  19  36  56  76 106 144 181 219 270 323
#     4  10  19  32  53  77 100 134 182 228 268 320
#     4  12  24  36  54  83 113 142 178 224 269 320
#     4   9  19  36  55  75 103 140 182 226 273 324
#     4  11  22  37  57  82 113 148 178 218 271 327
#
# _framework density 18.191071999999998
#
# number of rings (size 3 to 8) (size 9 to 14) (size 15 to 20)
#    0.000    1.833    1.667    3.000    1.167    2.333 
#    0.000    0.417    0.000    3.000    0.000    3.500 
#    0.000    0.000    0.000    0.000    0.000    0.000 
#
# Total GULP energy -1190145.507597 kJ/mol
# GULP energy per Si atom -12397.349037 kJ/mol
# Density = 1.814967 g / cm^3
# Si number density = 18.191072 Si / 1000 Ang^3
#
#
#
# Elastic Constant Matrix: (Units=GPa)
#
#
# Indices 1 2 3 4 5 6 
#
# 1 84.7066 46.5053 31.2246 0.0000 0.0000 0.0000
# 2 46.5053 84.7066 31.2246 0.0000 0.0000 0.0000
# 3 31.2246 31.2246 83.5935 0.0000 0.0000 0.0000
# 4 0.0000 0.0000 0.0000 25.9420 0.0000 0.0000
# 5 0.0000 0.0000 0.0000 0.0000 25.9420 0.0000
# 6 0.0000 0.0000 0.0000 0.0000 0.0000 23.4843
#
#
#
# Elastic Compliance Matrix: (Units=1/GPa)
#
#
# Indices 1 2 3 4 5 6 
#
# 1 0.017723 -0.008454 -0.003462 0.000000 0.000000 0.000000
# 2 -0.008454 0.017723 -0.003462 0.000000 0.000000 0.000000
# 3 -0.003462 -0.003462 0.014549 0.000000 0.000000 0.000000
# 4 0.000000 0.000000 0.000000 0.038547 0.000000 0.000000
# 5 0.000000 0.000000 0.000000 0.000000 0.038547 0.000000
# 6 0.000000 0.000000 0.000000 0.000000 0.000000 0.042582
#
#
# Mechanical properties :
#
#
# Convention : Reuss Voigt Hill
#
# Bulk Modulus (GPa) = 51.97975 52.32398 52.15187
# Shear Modulus (GPa) = 24.17307 24.67717 24.42512
#
# Velocity S-wave (km/s) = 3.64928 3.68714 3.66826
# Velocity P-wave (km/s) = 6.81122 6.85220 6.83174
#
# Compressibility (1/GPa) = 0.01923826
#
# Stress axis : x y z
#
# Youngs Moduli (GPa) = 56.42359 56.42359 68.73245
#
# Poissons Ratio (x) = 0.47700 0.23797
# Poissons Ratio (y) = 0.47700 0.23797
# Poissons Ratio (z) = 0.19535 0.19535
#
# Static dielectric constant tensor:
#      x y z
#    x 3.384180 0.000000 0.000000 
#    y 0.000000 3.384180 0.000000 
#    z 0.000000 0.000000 3.432330 
# 
# 
# High freq. dielectric constant tensor:
#      x y z
#    x 1.692340 0.000000 0.000000 
#    y 0.000000 1.692340 0.000000 
#    z 0.000000 0.000000 1.716230 
# 
# From -- ./inp_files/2057.got.cif
#   From: 2010.03.12/outbox.cif.g09.slc.cpg/sg136_2_cif.got.tgz:2057.got - 2010.04.06 18:39:43.
