data_PCOD8317241
_publ_section_title
;
Structure prediction by ZEFSAII (Michael W. Deem and Ramdas Pophale) SiO2 
 PCOD8317241
Probable space group: P 42/N N M
;
_chemical_formula_sum "Si O2"
_cell_formula_units_Z 80
_cell_length_a 25.382427
_cell_length_b 25.382427
_cell_length_c 5.788185
_cell_angle_alpha 90.000000
_cell_angle_beta 90.000000
_cell_angle_gamma 90.000000
_cell_volume 3729.140061
_symmetry_space_group_name_H-M "P 42/N N M"
_symmetry_group_IT_number 134
_space_group.IT_coordinate_system_code '2'
_symmetry_cell_setting 'tetragonal'
loop_
_space_group_symop_operation_xyz
x,y,z
1/2-y,x,1/2+z
1/2-x,1/2-y,z
y,1/2-x,1/2+z
x,1/2-y,1/2-z
1/2-x,y,1/2-z
y,x,-z
1/2-y,1/2-x,-z
-x,-y,-z
1/2+y,-x,1/2-z
1/2+x,1/2+y,-z
-y,1/2+x,1/2-z
-x,1/2+y,1/2+z
1/2+x,-y,1/2+z
-y,-x,z
1/2+y,1/2+x,z
loop_
_atom_site_type_symbol
_atom_site_label
_atom_site_fract_x
_atom_site_fract_y
_atom_site_fract_z
Si Si1 0.880055 0.463516 0.532176
Si Si2 0.690486 0.653074 0.758122
Si Si3 0.193173 0.608131 0.161904
Si Si4 0.989896 0.304784 0.144374
Si Si5 0.874084 0.942413 0.657884
O O1 0.931050 0.431050 0.452880
O O2 0.837334 0.424640 0.644295
O O3 0.853319 0.491243 0.317842
O O4 0.899969 0.510772 0.694458
O O5 0.750000 0.632899 0.750000
O O6 0.678485 0.678485 0.500000
O O7 0.649808 0.605560 0.803967
O O8 0.687088 0.687088 0.000000
O O9 0.250000 0.627878 0.250000
O O10 0.159082 0.659082 0.085719
O O11 0.202379 0.569564 0.946822
O O12 0.009648 0.250000 0.250000
O O13 0.033332 0.321724 0.960391
O O14 0.921436 0.921436 0.500000
#
# Coordination Sequence:
#
# PCOD8317241 Si02
#       5
#    16  16  16  16  16
#     4  10  22  40  65  91 125 169 215 270 333 398
#     4  11  26  45  71 102 140 181 227 281 341 407
#     4  10  20  37  58  91 128 164 215 273 334 404
#     4  11  22  38  67  93 122 172 225 274 333 405
#     4  10  26  41  62  97 132 167 217 279 334 402
#
# _framework density 21.452667000000002
#
# number of rings (size 3 to 8) (size 9 to 14) (size 15 to 20)
#    0.000    1.600    2.000    1.200    8.400    2.600 
#    0.000    1.000    0.000    0.000    0.000    0.000 
#    0.000    0.000    0.000    0.000    0.000    0.000 
#
# Total GULP energy -991316.808110 kJ/mol
# GULP energy per Si atom -12391.460101 kJ/mol
# Density = 2.140384 g / cm^3
# Si number density = 21.452667 Si / 1000 Ang^3
#
#
#
# Elastic Constant Matrix: (Units=GPa)
#
#
# Indices 1 2 3 4 5 6 
#
# 1 95.1540 31.2828 19.5720 0.0000 0.0000 0.0000
# 2 31.2828 95.1540 19.5720 0.0000 0.0000 0.0000
# 3 19.5720 19.5720 91.2999 0.0000 0.0000 0.0000
# 4 0.0000 0.0000 0.0000 33.0907 0.0000 0.0000
# 5 0.0000 0.0000 0.0000 0.0000 33.0907 0.0000
# 6 0.0000 0.0000 0.0000 0.0000 0.0000 50.5582
#
#
#
# Elastic Compliance Matrix: (Units=1/GPa)
#
#
# Indices 1 2 3 4 5 6 
#
# 1 0.012064 -0.003593 -0.001816 0.000000 0.000000 0.000000
# 2 -0.003593 0.012064 -0.001816 0.000000 0.000000 0.000000
# 3 -0.001816 -0.001816 0.011732 0.000000 0.000000 0.000000
# 4 0.000000 0.000000 0.000000 0.030220 0.000000 0.000000
# 5 0.000000 0.000000 0.000000 0.000000 0.030220 0.000000
# 6 0.000000 0.000000 0.000000 0.000000 0.000000 0.019779
#
#
# Mechanical properties :
#
#
# Convention : Reuss Voigt Hill
#
# Bulk Modulus (GPa) = 46.70686 46.94017 46.82352
# Shear Modulus (GPa) = 36.32021 37.42665 36.87343
#
# Velocity S-wave (km/s) = 4.11912 4.18139 4.15037
# Velocity P-wave (km/s) = 6.66650 6.72609 6.69636
#
# Compressibility (1/GPa) = 0.02141013
#
# Stress axis : x y z
#
# Youngs Moduli (GPa) = 82.89181 82.89181 85.24058
#
# Poissons Ratio (x) = 0.29780 0.15480
# Poissons Ratio (y) = 0.29780 0.15480
# Poissons Ratio (z) = 0.15053 0.15053
#
# Static dielectric constant tensor:
#      x y z
#    x 3.816390 0.000000 0.000000 
#    y 0.000000 3.816390 0.000000 
#    z 0.000000 0.000000 4.158530 
# 
# 
# High freq. dielectric constant tensor:
#      x y z
#    x 1.840640 0.000000 0.000000 
#    y 0.000000 1.840640 0.000000 
#    z 0.000000 0.000000 1.840700 
# 
# From -- ./inp_files/1155.got.cif
#   From: 2010.03.12/outbox.cif.g09.slc.cpg/sg134_1_cif.got.tgz:1155.got - 2010.04.06 18:17:22.
