data_PCOD8317180
_publ_section_title
;
Structure prediction by ZEFSAII (Michael W. Deem and Ramdas Pophale) SiO2 
 PCOD8317180
Probable space group: P 42/N N M
;
_chemical_formula_sum "Si O2"
_cell_formula_units_Z 96
_cell_length_a 14.970942
_cell_length_b 14.970942
_cell_length_c 20.075193
_cell_angle_alpha 90.000000
_cell_angle_beta 90.000000
_cell_angle_gamma 90.000000
_cell_volume 4499.435027
_symmetry_space_group_name_H-M "P 42/N N M"
_symmetry_group_IT_number 134
_space_group.IT_coordinate_system_code '2'
_symmetry_cell_setting 'tetragonal'
loop_
_space_group_symop_operation_xyz
x,y,z
1/2-y,x,1/2+z
1/2-x,1/2-y,z
y,1/2-x,1/2+z
x,1/2-y,1/2-z
1/2-x,y,1/2-z
y,x,-z
1/2-y,1/2-x,-z
-x,-y,-z
1/2+y,-x,1/2-z
1/2+x,1/2+y,-z
-y,1/2+x,1/2-z
-x,1/2+y,1/2+z
1/2+x,-y,1/2+z
-y,-x,z
1/2+y,1/2+x,z
loop_
_atom_site_type_symbol
_atom_site_label
_atom_site_fract_x
_atom_site_fract_y
_atom_site_fract_z
Si Si1 0.107968 0.749810 0.844447
Si Si2 0.496596 0.855615 0.236450
Si Si3 0.644142 0.495072 0.449894
Si Si4 0.830478 0.682354 0.425230
Si Si5 0.162389 0.447945 0.091846
Si Si6 0.570322 0.677232 0.798688
O O1 0.176640 0.823361 0.869236
O O2 0.165705 0.665705 0.811763
O O3 0.057775 0.719050 0.910601
O O4 0.035576 0.797661 0.796027
O O5 0.492039 0.750000 0.250000
O O6 0.502927 0.871485 0.157452
O O7 0.579546 0.905942 0.271397
O O8 0.405882 0.905882 0.260464
O O9 0.546793 0.453208 0.436134
O O10 0.636951 0.597674 0.425445
O O11 0.665704 0.486838 0.528201
O O12 0.750000 0.750000 0.428404
O O13 0.852840 0.647161 0.500000
O O14 0.914042 0.737099 0.395596
O O15 0.812024 0.601207 0.375057
O O16 0.618608 0.750000 0.750000
#
# Coordination Sequence:
#
# PCOD8317180 Si02
#       6
#    16  16  16  16  16  16
#     4  10  22  41  64  94 132 171 209 253 318 404
#     4  12  26  45  66  91 127 176 230 282 330 380
#     4  10  19  35  63  97 127 164 206 261 326 391
#     4  11  21  35  60  94 130 164 203 259 330 394
#     4  11  20  37  61  94 126 161 209 268 326 384
#     4  12  25  41  66  96 134 170 216 265 330 399
#
# _framework density 21.336012
#
# number of rings (size 3 to 8) (size 9 to 14) (size 15 to 20)
#    0.000    1.000    1.667    8.500    0.000    2.833 
#    0.000    1.667    0.000    4.000    0.000    0.000 
#    0.000    0.000    0.000    0.000    0.000    0.000 
#
# Total GULP energy -1189614.617260 kJ/mol
# GULP energy per Si atom -12391.818930 kJ/mol
# Density = 2.128745 g / cm^3
# Si number density = 21.336012 Si / 1000 Ang^3
#
#
#
# Elastic Constant Matrix: (Units=GPa)
#
#
# Indices 1 2 3 4 5 6 
#
# 1 123.7135 66.8227 42.7067 0.0000 0.0000 0.0000
# 2 66.8227 123.7136 42.7068 0.0000 0.0000 0.0000
# 3 42.7067 42.7068 116.5059 0.0000 0.0000 0.0000
# 4 0.0000 0.0000 0.0000 16.2594 0.0000 0.0000
# 5 0.0000 0.0000 0.0000 0.0000 16.2594 0.0000
# 6 0.0000 0.0000 0.0000 0.0000 0.0000 33.2262
#
#
#
# Elastic Compliance Matrix: (Units=1/GPa)
#
#
# Indices 1 2 3 4 5 6 
#
# 1 0.011929 -0.005649 -0.002302 0.000000 0.000000 0.000000
# 2 -0.005649 0.011929 -0.002302 0.000000 0.000000 0.000000
# 3 -0.002302 -0.002302 0.010271 0.000000 0.000000 0.000000
# 4 0.000000 0.000000 0.000000 0.061503 0.000000 0.000000
# 5 0.000000 0.000000 0.000000 0.000000 0.061503 0.000000
# 6 0.000000 0.000000 0.000000 0.000000 0.000000 0.030097
#
#
# Mechanical properties :
#
#
# Convention : Reuss Voigt Hill
#
# Bulk Modulus (GPa) = 73.40449 74.26725 73.83587
# Shear Modulus (GPa) = 23.55399 27.26211 25.40805
#
# Velocity S-wave (km/s) = 3.32619 3.57844 3.45462
# Velocity P-wave (km/s) = 7.01641 7.20816 7.11294
#
# Compressibility (1/GPa) = 0.01362314
#
# Stress axis : x y z
#
# Youngs Moduli (GPa) = 83.82979 83.82982 97.36129
#
# Poissons Ratio (x) = 0.47352 0.22414
# Poissons Ratio (y) = 0.47352 0.22414
# Poissons Ratio (z) = 0.19299 0.19299
#
# Static dielectric constant tensor:
#      x y z
#    x 3.930510 0.000000 0.000000 
#    y 0.000000 3.930510 0.000000 
#    z 0.000000 0.000000 3.954100 
# 
# 
# High freq. dielectric constant tensor:
#      x y z
#    x 1.828960 0.000000 0.000000 
#    y 0.000000 1.828960 0.000000 
#    z 0.000000 0.000000 1.845210 
# 
# From -- ./inp_files/9127.got.cif
#   From: 2010.03.12/outbox.cif.g09.slc.cpg/sg134_5_cif.got.tgz:9127.got - 2010.04.06 18:17:22.
