data_PCOD8317045
_publ_section_title
;
Structure prediction by ZEFSAII (Michael W. Deem and Ramdas Pophale) SiO2 
 PCOD8317045
Probable space group: P 42/N B C
;
_chemical_formula_sum "Si O2"
_cell_formula_units_Z 48
_cell_length_a 8.875381
_cell_length_b 8.875381
_cell_length_c 24.361072
_cell_angle_alpha 90.000000
_cell_angle_beta 90.000000
_cell_angle_gamma 90.000000
_cell_volume 1918.979813
_symmetry_space_group_name_H-M "P 42/N B C"
_symmetry_group_IT_number 133
_space_group.IT_coordinate_system_code '2'
_symmetry_cell_setting 'tetragonal'
loop_
_space_group_symop_operation_xyz
x,y,z
1/2-y,x,1/2+z
1/2-x,1/2-y,z
y,1/2-x,1/2+z
x,1/2-y,-z
1/2-x,y,-z
y,x,1/2-z
1/2-y,1/2-x,1/2-z
-x,-y,-z
1/2+y,-x,1/2-z
1/2+x,1/2+y,-z
-y,1/2+x,1/2-z
-x,1/2+y,z
1/2+x,-y,z
-y,-x,1/2+z
1/2+y,1/2+x,1/2+z
loop_
_atom_site_type_symbol
_atom_site_label
_atom_site_fract_x
_atom_site_fract_y
_atom_site_fract_z
Si Si1 0.523254 0.693784 0.895999
Si Si2 0.034551 0.198834 0.562285
Si Si3 0.695954 0.472049 0.728926
O O1 0.370279 0.626045 0.921389
O O2 0.568457 0.839535 0.931317
O O3 0.660030 0.572362 0.898208
O O4 0.490134 0.743402 0.834044
O O5 0.033259 0.250000 0.500000
O O6 0.630026 0.630026 0.750000
O O7 0.841574 0.430392 0.765052
#
# Coordination Sequence:
#
# PCOD8317045 Si02
#       3
#    16  16  16
#     4  11  23  44  68  98 138 179 227 284 340 407
#     4  11  25  45  70 104 139 182 229 282 347 412
#     4  11  24  42  65  98 132 176 229 279 336 401
#
# _framework density 25.013290999999999
#
# number of rings (size 3 to 8) (size 9 to 14) (size 15 to 20)
#    0.000    1.000    0.000    7.000    0.000    7.333 
#    0.000    3.333    0.000    0.000    0.000    0.000 
#    0.000    0.000    0.000    0.000    0.000    0.000 
#
# Total GULP energy -595520.396521 kJ/mol
# GULP energy per Si atom -12406.674928 kJ/mol
# Density = 2.495636 g / cm^3
# Si number density = 25.013291 Si / 1000 Ang^3
#
#
#
# Elastic Constant Matrix: (Units=GPa)
#
#
# Indices 1 2 3 4 5 6 
#
# 1 47.7866 30.3650 31.2408 0.0000 0.0000 0.0000
# 2 30.3650 47.7866 31.2408 0.0000 0.0000 0.0000
# 3 31.2408 31.2408 153.7227 0.0000 0.0000 0.0000
# 4 0.0000 0.0000 0.0000 27.6074 0.0000 0.0000
# 5 0.0000 0.0000 0.0000 0.0000 27.6074 0.0000
# 6 0.0000 0.0000 0.0000 0.0000 0.0000 69.4877
#
#
#
# Elastic Compliance Matrix: (Units=1/GPa)
#
#
# Indices 1 2 3 4 5 6 
#
# 1 0.036339 -0.021061 -0.003105 0.000000 0.000000 0.000000
# 2 -0.021061 0.036339 -0.003105 0.000000 0.000000 0.000000
# 3 -0.003105 -0.003105 0.007767 0.000000 0.000000 0.000000
# 4 0.000000 0.000000 0.000000 0.036222 0.000000 0.000000
# 5 0.000000 0.000000 0.000000 0.000000 0.036222 0.000000
# 6 0.000000 0.000000 0.000000 0.000000 0.000000 0.014391
#
#
# Mechanical properties :
#
#
# Convention : Reuss Voigt Hill
#
# Bulk Modulus (GPa) = 38.60474 48.33212 43.46843
# Shear Modulus (GPa) = 21.69601 35.37043 28.53322
#
# Velocity S-wave (km/s) = 2.94833 3.76449 3.38112
# Velocity P-wave (km/s) = 5.20167 6.18544 5.71476
#
# Compressibility (1/GPa) = 0.02590355
#
# Stress axis : x y z
#
# Youngs Moduli (GPa) = 27.51861 27.51861 128.74596
#
# Poissons Ratio (x) = 0.57957 0.39975
# Poissons Ratio (y) = 0.57957 0.39975
# Poissons Ratio (z) = 0.08544 0.08544
#
# Static dielectric constant tensor:
#      x y z
#    x 4.692690 0.000000 0.000000 
#    y 0.000000 4.692690 0.000000 
#    z 0.000000 0.000000 4.265980 
# 
# 
# High freq. dielectric constant tensor:
#      x y z
#    x 2.004980 0.000000 0.000000 
#    y 0.000000 2.004980 0.000000 
#    z 0.000000 0.000000 1.992600 
# 
# From -- ./inp_files/7755.got.cif
#   From: 2010.03.12/outbox.cif.g09.slc.cpg/sg133_4_cif.got.tgz:7755.got - 2010.04.06 18:08:06.
