data_PCOD8317049
_publ_section_title
;
Structure prediction by ZEFSAII (Michael W. Deem and Ramdas Pophale) SiO2 
 PCOD8317049
Probable space group: P 42/N B C
;
_chemical_formula_sum "Si O2"
_cell_formula_units_Z 128
_cell_length_a 20.166472
_cell_length_b 20.166472
_cell_length_c 16.906279
_cell_angle_alpha 90.000000
_cell_angle_beta 90.000000
_cell_angle_gamma 90.000000
_cell_volume 6875.557006
_symmetry_space_group_name_H-M "P 42/N B C"
_symmetry_group_IT_number 133
_space_group.IT_coordinate_system_code '2'
_symmetry_cell_setting 'tetragonal'
loop_
_space_group_symop_operation_xyz
x,y,z
1/2-y,x,1/2+z
1/2-x,1/2-y,z
y,1/2-x,1/2+z
x,1/2-y,-z
1/2-x,y,-z
y,x,1/2-z
1/2-y,1/2-x,1/2-z
-x,-y,-z
1/2+y,-x,1/2-z
1/2+x,1/2+y,-z
-y,1/2+x,1/2-z
-x,1/2+y,z
1/2+x,-y,z
-y,-x,1/2+z
1/2+y,1/2+x,1/2+z
loop_
_atom_site_type_symbol
_atom_site_label
_atom_site_fract_x
_atom_site_fract_y
_atom_site_fract_z
Si Si1 0.741090 0.354697 0.230401
Si Si2 0.491429 0.095283 0.101166
Si Si3 0.291884 0.511479 0.292015
Si Si4 0.387758 0.691252 0.438419
Si Si5 0.005817 0.887766 0.365951
Si Si6 0.927646 0.037024 0.764112
Si Si7 0.053439 0.821887 0.964287
Si Si8 0.822520 0.579341 0.730655
O O1 0.811736 0.317419 0.230649
O O2 0.743504 0.425632 0.275438
O O3 0.724959 0.362251 0.139942
O O4 0.554350 0.075094 0.155157
O O5 0.446845 0.148326 0.148020
O O6 0.445852 0.030664 0.084790
O O7 0.515937 0.124226 0.018300
O O8 0.352034 0.512991 0.229363
O O9 0.321071 0.516125 0.380177
O O10 0.254897 0.440874 0.275203
O O11 0.388091 0.750000 0.500000
O O12 0.462815 0.663667 0.428024
O O13 0.339001 0.631160 0.460926
O O14 0.066736 0.915395 0.312794
O O15 0.955331 0.855059 0.305828
O O16 0.975748 0.975748 0.750000
O O17 0.045782 0.750000 0.000000
O O18 0.842740 0.657261 0.750000
#
# Coordination Sequence:
#
# PCOD8317049 Si02
#       8
#    16  16  16  16  16  16  16  16
#     4  11  24  39  54  73 107 162 197 225 271 327
#     4   9  20  35  59  80 113 143 186 241 299 336
#     4  12  21  36  60  79 114 147 197 236 280 353
#     4  12  26  37  54  82 117 152 198 234 273 336
#     4   9  17  39  56  80 110 149 191 234 286 343
#     4   9  19  37  60  84 108 148 193 238 290 341
#     4  12  25  36  51  83 115 151 192 238 291 338
#     4   9  18  33  60  82 103 146 192 232 280 351
#
# _framework density 18.616672999999999
#
# number of rings (size 3 to 8) (size 9 to 14) (size 15 to 20)
#    0.000    1.625    5.000    1.500    5.250    0.750 
#    0.000    0.000    0.000    0.375    0.000    0.000 
#    0.000    0.500    0.000    0.000    0.000    0.000 
#
# Total GULP energy -1586456.855050 kJ/mol
# GULP energy per Si atom -12394.194180 kJ/mol
# Density = 1.857430 g / cm^3
# Si number density = 18.616673 Si / 1000 Ang^3
#
#
#
# Elastic Constant Matrix: (Units=GPa)
#
#
# Indices 1 2 3 4 5 6 
#
# 1 67.2353 31.1992 45.0021 0.0000 0.0000 0.0000
# 2 31.1992 67.2346 45.0021 0.0000 0.0000 0.0000
# 3 45.0021 45.0021 98.0169 0.0000 0.0000 0.0000
# 4 0.0000 0.0000 0.0000 31.3551 0.0000 0.0000
# 5 0.0000 0.0000 0.0000 0.0000 31.3611 0.0000
# 6 0.0000 0.0000 0.0000 0.0000 0.0000 29.0250
#
#
#
# Elastic Compliance Matrix: (Units=1/GPa)
#
#
# Indices 1 2 3 4 5 6 
#
# 1 0.022630 -0.005120 -0.008039 0.000000 0.000000 0.000000
# 2 -0.005120 0.022630 -0.008039 0.000000 0.000000 0.000000
# 3 -0.008039 -0.008039 0.017584 0.000000 0.000000 0.000000
# 4 0.000000 0.000000 0.000000 0.031893 0.000000 0.000000
# 5 0.000000 0.000000 0.000000 0.000000 0.031887 0.000000
# 6 0.000000 0.000000 0.000000 0.000000 0.000000 0.034453
#
#
# Mechanical properties :
#
#
# Convention : Reuss Voigt Hill
#
# Bulk Modulus (GPa) = 48.90665 52.76598 50.83632
# Shear Modulus (GPa) = 23.77670 25.76712 24.77191
#
# Velocity S-wave (km/s) = 3.57763 3.72437 3.65174
# Velocity P-wave (km/s) = 6.58736 6.84832 6.71911
#
# Compressibility (1/GPa) = 0.02044712
#
# Stress axis : x y z
#
# Youngs Moduli (GPa) = 44.18940 44.18871 56.86877
#
# Poissons Ratio (x) = 0.22626 0.45718
# Poissons Ratio (y) = 0.22626 0.45718
# Poissons Ratio (z) = 0.35524 0.35525
#
# Static dielectric constant tensor:
#      x y z
#    x 3.435810 0.000000 0.000000 
#    y 0.000000 3.435780 0.000000 
#    z 0.000000 0.000000 3.387510 
# 
# 
# High freq. dielectric constant tensor:
#      x y z
#    x 1.710570 0.000000 0.000000 
#    y 0.000000 1.710570 0.000000 
#    z 0.000000 0.000000 1.716450 
# 
# From -- ./inp_files/5756.got.cif
#   From: 2010.03.12/outbox.cif.g09.slc.cpg/sg133_3_cif.got.tgz:5756.got - 2010.04.06 18:08:06.
