data_PCOD8317284
_publ_section_title
;
Structure prediction by ZEFSAII (Michael W. Deem and Ramdas Pophale) SiO2 
 PCOD8317284
Probable space group: P 42/N N M
;
_chemical_formula_sum "Si O2"
_cell_formula_units_Z 80
_cell_length_a 12.451112
_cell_length_b 12.451112
_cell_length_c 27.897336
_cell_angle_alpha 90.000000
_cell_angle_beta 90.000000
_cell_angle_gamma 90.000000
_cell_volume 4324.929302
_symmetry_space_group_name_H-M "P 42/N N M"
_symmetry_group_IT_number 134
_space_group.IT_coordinate_system_code '2'
_symmetry_cell_setting 'tetragonal'
loop_
_space_group_symop_operation_xyz
x,y,z
1/2-y,x,1/2+z
1/2-x,1/2-y,z
y,1/2-x,1/2+z
x,1/2-y,1/2-z
1/2-x,y,1/2-z
y,x,-z
1/2-y,1/2-x,-z
-x,-y,-z
1/2+y,-x,1/2-z
1/2+x,1/2+y,-z
-y,1/2+x,1/2-z
-x,1/2+y,1/2+z
1/2+x,-y,1/2+z
-y,-x,z
1/2+y,1/2+x,z
loop_
_atom_site_type_symbol
_atom_site_label
_atom_site_fract_x
_atom_site_fract_y
_atom_site_fract_z
Si Si1 0.560464 0.615298 0.446359
Si Si2 0.664643 0.502006 0.790021
Si Si3 0.241024 0.126854 0.878735
Si Si4 0.488396 0.680080 0.795777
Si Si5 0.009881 0.330865 0.600598
O O1 0.602570 0.602570 0.500000
O O2 0.475415 0.524586 0.432699
O O3 0.665861 0.600264 0.415256
O O4 0.504172 0.730661 0.436049
O O5 0.750000 0.528430 0.750000
O O6 0.614852 0.385149 0.780006
O O7 0.575836 0.591809 0.782701
O O8 0.711469 0.502517 0.844263
O O9 0.250000 0.250000 0.859521
O O10 0.255302 0.039668 0.836650
O O11 0.125457 0.110594 0.904751
O O12 0.458269 0.750000 0.750000
O O13 0.379906 0.620095 0.813672
O O14 0.915256 0.415256 0.588503
#
# Coordination Sequence:
#
# PCOD8317284 Si02
#       5
#    16  16  16  16  16
#     4  10  22  39  58  84 115 145 184 232 284 342
#     4   9  19  33  51  80 113 143 179 222 272 331
#     4   9  19  35  58  83 108 143 182 232 277 330
#     4  10  22  35  51  76 110 148 187 227 266 317
#     4   9  19  37  59  83 112 145 184 234 284 333
#
# _framework density 18.497413000000002
#
# number of rings (size 3 to 8) (size 9 to 14) (size 15 to 20)
#    0.000    2.600    0.000    1.800    8.400    6.000 
#    0.000    5.000    0.000    4.200    0.000    0.000 
#    0.000    0.000    0.000    0.000    0.000    0.000 
#
# Total GULP energy -991546.868319 kJ/mol
# GULP energy per Si atom -12394.335854 kJ/mol
# Density = 1.845531 g / cm^3
# Si number density = 18.497413 Si / 1000 Ang^3
#
#
#
# Elastic Constant Matrix: (Units=GPa)
#
#
# Indices 1 2 3 4 5 6 
#
# 1 93.5650 63.0988 64.3526 0.0000 0.0000 0.0000
# 2 63.0988 93.5650 64.3526 0.0000 0.0000 0.0000
# 3 64.3526 64.3526 88.1400 0.0000 0.0000 0.0000
# 4 0.0000 0.0000 0.0000 22.1980 0.0000 0.0000
# 5 0.0000 0.0000 0.0000 0.0000 22.1980 0.0000
# 6 0.0000 0.0000 0.0000 0.0000 0.0000 19.0594
#
#
#
# Elastic Compliance Matrix: (Units=1/GPa)
#
#
# Indices 1 2 3 4 5 6 
#
# 1 0.024387 -0.008436 -0.011646 0.000000 0.000000 0.000000
# 2 -0.008436 0.024387 -0.011646 0.000000 0.000000 0.000000
# 3 -0.011646 -0.011646 0.028351 0.000000 0.000000 0.000000
# 4 0.000000 0.000000 0.000000 0.045049 0.000000 0.000000
# 5 0.000000 0.000000 0.000000 0.000000 0.045049 0.000000
# 6 0.000000 0.000000 0.000000 0.000000 0.000000 0.052468
#
#
# Mechanical properties :
#
#
# Convention : Reuss Voigt Hill
#
# Bulk Modulus (GPa) = 73.15745 73.20864 73.18305
# Shear Modulus (GPa) = 17.37903 18.25546 17.81724
#
# Velocity S-wave (km/s) = 3.06851 3.14494 3.10696
# Velocity P-wave (km/s) = 7.22429 7.26988 7.24712
#
# Compressibility (1/GPa) = 0.01366915
#
# Stress axis : x y z
#
# Youngs Moduli (GPa) = 41.00561 41.00561 35.27200
#
# Poissons Ratio (x) = 0.34594 0.41077
# Poissons Ratio (y) = 0.34594 0.41077
# Poissons Ratio (z) = 0.47754 0.47754
#
# Static dielectric constant tensor:
#      x y z
#    x 3.545960 0.000000 0.000000 
#    y 0.000000 3.545960 0.000000 
#    z 0.000000 0.000000 3.410320 
# 
# 
# High freq. dielectric constant tensor:
#      x y z
#    x 1.718050 0.000000 0.000000 
#    y 0.000000 1.718050 0.000000 
#    z 0.000000 0.000000 1.701610 
# 
# From -- ./inp_files/11275.got.cif
#   From: 2010.03.12/outbox.cif.g09.slc.cpg/sg134_6_cif.got.tgz:11275.got - 2010.04.06 18:17:22.
