data_PCOD8317429
_publ_section_title
;
Structure prediction by ZEFSAII (Michael W. Deem and Ramdas Pophale) SiO2 
 PCOD8317429
Probable space group: P 42/M B C
;
_chemical_formula_sum "Si O2"
_cell_formula_units_Z 96
_cell_length_a 17.469135
_cell_length_b 17.469135
_cell_length_c 18.167887
_cell_angle_alpha 90.000000
_cell_angle_beta 90.000000
_cell_angle_gamma 90.000000
_cell_volume 5544.306387
_symmetry_space_group_name_H-M "P 42/M B C"
_symmetry_group_IT_number 135
_symmetry_cell_setting 'tetragonal'
loop_
_space_group_symop_operation_xyz
x,y,z
-y,x,1/2+z
-x,-y,z
y,-x,1/2+z
1/2+x,1/2-y,-z
1/2-x,1/2+y,-z
1/2+y,1/2+x,1/2-z
1/2-y,1/2-x,1/2-z
-x,-y,-z
y,-x,1/2-z
x,y,-z
-y,x,1/2-z
1/2-x,1/2+y,z
1/2+x,1/2-y,z
1/2-y,1/2-x,1/2+z
1/2+y,1/2+x,1/2+z
loop_
_atom_site_type_symbol
_atom_site_label
_atom_site_fract_x
_atom_site_fract_y
_atom_site_fract_z
Si Si1 0.764022 0.482588 0.916655
Si Si2 0.698407 0.131769 0.349871
Si Si3 0.266492 0.392971 0.799809
Si Si4 0.416984 0.586864 0.227937
Si Si5 0.957825 0.573458 0.584969
Si Si6 0.355430 0.639804 0.917649
O O1 0.724013 0.536740 0.856244
O O2 0.854922 0.485214 0.901822
O O3 0.730571 0.396198 0.908307
O O4 0.747610 0.513212 0.000000
O O5 0.676568 0.220886 0.336985
O O6 0.720814 0.085884 0.275595
O O7 0.625794 0.086484 0.381009
O O8 0.769272 0.139532 0.405618
O O9 0.350996 0.366235 0.773048
O O10 0.504652 0.607224 0.244295
O O11 0.408338 0.594689 0.140145
O O12 0.942857 0.557407 0.500000
O O13 0.000000 0.500000 0.621053
O O14 0.385669 0.622937 0.000000
#
# Coordination Sequence:
#
# PCOD8317429 Si02
#       6
#    16  16  16  16  16  16
#     4   9  17  31  51  73  99 131 171 214 259 311
#     4   9  18  31  53  73 103 138 174 215 260 319
#     4   9  17  33  50  73 100 133 172 210 255 312
#     4  10  19  33  53  75 104 138 172 214 264 312
#     4   9  17  31  52  77 107 141 174 216 268 319
#     4  10  19  33  53  77 103 137 178 221 266 320
#
# _framework density 17.315059999999999
#
# number of rings (size 3 to 8) (size 9 to 14) (size 15 to 20)
#    0.000    2.667    1.667    0.500    0.000    0.667 
#    0.000   12.500    3.667    2.000    0.000    0.000 
#    0.000    0.000    0.000    0.000    0.000    0.000 
#
# Total GULP energy -1189319.702666 kJ/mol
# GULP energy per Si atom -12388.746903 kJ/mol
# Density = 1.727565 g / cm^3
# Si number density = 17.315060 Si / 1000 Ang^3
#
#
#
# Elastic Constant Matrix: (Units=GPa)
#
#
# Indices 1 2 3 4 5 6 
#
# 1 92.8393 36.1283 48.2785 0.0000 0.0000 0.0000
# 2 36.1283 92.8393 48.2785 0.0000 0.0000 0.0000
# 3 48.2785 48.2785 106.7427 0.0000 0.0000 0.0000
# 4 0.0000 0.0000 0.0000 22.5664 0.0000 0.0000
# 5 0.0000 0.0000 0.0000 0.0000 22.5664 0.0000
# 6 0.0000 0.0000 0.0000 0.0000 0.0000 21.0920
#
#
#
# Elastic Compliance Matrix: (Units=1/GPa)
#
#
# Indices 1 2 3 4 5 6 
#
# 1 0.014679 -0.002955 -0.005303 0.000000 0.000000 0.000000
# 2 -0.002955 0.014679 -0.005303 0.000000 0.000000 0.000000
# 3 -0.005303 -0.005303 0.014165 0.000000 0.000000 0.000000
# 4 0.000000 0.000000 0.000000 0.044314 0.000000 0.000000
# 5 0.000000 0.000000 0.000000 0.000000 0.044314 0.000000
# 6 0.000000 0.000000 0.000000 0.000000 0.000000 0.047411
#
#
# Mechanical properties :
#
#
# Convention : Reuss Voigt Hill
#
# Bulk Modulus (GPa) = 60.96682 61.97689 61.47186
# Shear Modulus (GPa) = 23.56846 23.89402 23.73124
#
# Velocity S-wave (km/s) = 3.69338 3.71881 3.70612
# Velocity P-wave (km/s) = 7.31265 7.36958 7.34117
#
# Compressibility (1/GPa) = 0.01640236
#
# Stress axis : x y z
#
# Youngs Moduli (GPa) = 68.12644 68.12644 70.59695
#
# Poissons Ratio (x) = 0.20129 0.37435
# Poissons Ratio (y) = 0.20129 0.37435
# Poissons Ratio (z) = 0.36125 0.36125
#
# Static dielectric constant tensor:
#      x y z
#    x 3.206720 0.000000 0.000000 
#    y 0.000000 3.206720 0.000000 
#    z 0.000000 0.000000 3.412500 
# 
# 
# High freq. dielectric constant tensor:
#      x y z
#    x 1.654710 0.000000 0.000000 
#    y 0.000000 1.654710 0.000000 
#    z 0.000000 0.000000 1.680510 
# 
# From -- ./inp_files/4464.got.cif
#   From: 2010.03.12/outbox.cif.g09.slc.cpg/sg135_3_cif.got.tgz:4464.got - 2010.04.06 18:31:24.
