data_PCOD8317990
_publ_section_title
;
Structure prediction by ZEFSAII (Michael W. Deem and Ramdas Pophale) SiO2 
 PCOD8317990
Probable space group: P 42/M N M
;
_chemical_formula_sum "Si O2"
_cell_formula_units_Z 96
_cell_length_a 25.093989
_cell_length_b 25.093989
_cell_length_c 8.894625
_cell_angle_alpha 90.000000
_cell_angle_beta 90.000000
_cell_angle_gamma 90.000000
_cell_volume 5601.019045
_symmetry_space_group_name_H-M "P 42/M N M"
_symmetry_group_IT_number 136
_symmetry_cell_setting 'tetragonal'
loop_
_space_group_symop_operation_xyz
x,y,z
1/2-y,1/2+x,1/2+z
-x,-y,z
1/2+y,1/2-x,1/2+z
1/2+x,1/2-y,1/2-z
1/2-x,1/2+y,1/2-z
y,x,-z
-y,-x,-z
-x,-y,-z
1/2+y,1/2-x,1/2-z
x,y,-z
1/2-y,1/2+x,1/2-z
1/2-x,1/2+y,1/2+z
1/2+x,1/2-y,1/2+z
-y,-x,z
y,x,z
loop_
_atom_site_type_symbol
_atom_site_label
_atom_site_fract_x
_atom_site_fract_y
_atom_site_fract_z
Si Si1 0.559962 0.756591 0.666534
Si Si2 0.942124 0.381187 0.838219
Si Si3 0.635940 0.945463 0.169872
Si Si4 0.678913 0.766156 0.322989
Si Si5 0.655339 0.257483 0.323244
Si Si6 0.245341 0.546394 0.176109
O O1 0.558406 0.730326 0.500000
O O2 0.548555 0.818558 0.654548
O O3 0.619600 0.750512 0.737416
O O4 0.510890 0.731816 0.763506
O O5 0.902219 0.395900 0.705974
O O6 0.002427 0.401896 0.811563
O O7 0.920197 0.401729 0.000000
O O8 0.683167 0.947046 0.289322
O O9 0.658196 0.938745 0.000000
O O10 0.675633 0.778822 0.500000
O O11 0.715982 0.715982 0.285770
O O12 0.702784 0.819277 0.244451
O O13 0.649381 0.248907 0.500000
O O14 0.693619 0.306382 0.282116
O O15 0.597791 0.272733 0.254029
O O16 0.256424 0.548427 0.000000
#
# Coordination Sequence:
#
# PCOD8317990 Si02
#       6
#    16  16  16  16  16  16
#     4   9  18  32  47  65  92 122 152 187 225 269
#     4   9  18  30  42  58  80 109 145 184 227 269
#     4  10  20  32  45  60  80 108 143 185 230 273
#     4   9  17  30  50  75 101 129 159 192 233 280
#     4  10  20  33  50  72  98 127 157 192 236 284
#     4  11  21  32  48  67  89 119 154 191 229 272
#
# _framework density 17.139738000000001
#
# number of rings (size 3 to 8) (size 9 to 14) (size 15 to 20)
#    0.000    2.333    0.000    4.500    0.000    6.667 
#    0.000    1.667    0.000    0.000    0.000    0.000 
#    0.000    0.667    0.000    7.667    0.000    2.167 
#
# Total GULP energy -1189463.360816 kJ/mol
# GULP energy per Si atom -12390.243342 kJ/mol
# Density = 1.710073 g / cm^3
# Si number density = 17.139738 Si / 1000 Ang^3
#
#
#
# Elastic Constant Matrix: (Units=GPa)
#
#
# Indices 1 2 3 4 5 6 
#
# 1 70.8512 9.1203 22.9526 0.0000 0.0000 0.0000
# 2 9.1203 70.8512 22.9526 0.0000 0.0000 0.0000
# 3 22.9526 22.9526 76.0148 0.0000 0.0000 0.0000
# 4 0.0000 0.0000 0.0000 21.9726 0.0000 0.0000
# 5 0.0000 0.0000 0.0000 0.0000 21.9726 0.0000
# 6 0.0000 0.0000 0.0000 0.0000 0.0000 18.8723
#
#
#
# Elastic Compliance Matrix: (Units=1/GPa)
#
#
# Indices 1 2 3 4 5 6 
#
# 1 0.015663 -0.000537 -0.004567 0.000000 0.000000 0.000000
# 2 -0.000537 0.015663 -0.004567 0.000000 0.000000 0.000000
# 3 -0.004567 -0.004567 0.015914 0.000000 0.000000 0.000000
# 4 0.000000 0.000000 0.000000 0.045511 0.000000 0.000000
# 5 0.000000 0.000000 0.000000 0.000000 0.045511 0.000000
# 6 0.000000 0.000000 0.000000 0.000000 0.000000 0.052988
#
#
# Mechanical properties :
#
#
# Convention : Reuss Voigt Hill
#
# Bulk Modulus (GPa) = 35.84668 36.41866 36.13267
# Shear Modulus (GPa) = 22.73856 23.40960 23.07408
#
# Velocity S-wave (km/s) = 3.64628 3.69969 3.67309
# Velocity P-wave (km/s) = 6.21988 6.28844 6.25426
#
# Compressibility (1/GPa) = 0.02789659
#
# Stress axis : x y z
#
# Youngs Moduli (GPa) = 63.84570 63.84570 62.83955
#
# Poissons Ratio (x) = 0.03426 0.28701
# Poissons Ratio (y) = 0.03426 0.28701
# Poissons Ratio (z) = 0.29160 0.29160
#
# Static dielectric constant tensor:
#      x y z
#    x 3.198840 0.000000 0.000000 
#    y 0.000000 3.198840 0.000000 
#    z 0.000000 0.000000 3.247640 
# 
# 
# High freq. dielectric constant tensor:
#      x y z
#    x 1.637310 0.000000 0.000000 
#    y 0.000000 1.637310 0.000000 
#    z 0.000000 0.000000 1.663720 
# 
# From -- ./inp_files/1983.got.cif
#   From: 2010.03.12/outbox.cif.g09.slc.cpg/sg136_1_cif.got.tgz:1983.got - 2010.04.06 18:39:43.
