data_PCOD8317531
_publ_section_title
;
Structure prediction by ZEFSAII (Michael W. Deem and Ramdas Pophale) SiO2 
 PCOD8317531
Probable space group: P 42/M B C
;
_chemical_formula_sum "Si O2"
_cell_formula_units_Z 88
_cell_length_a 13.841618
_cell_length_b 13.841618
_cell_length_c 23.544365
_cell_angle_alpha 90.000000
_cell_angle_beta 90.000000
_cell_angle_gamma 90.000000
_cell_volume 4510.874046
_symmetry_space_group_name_H-M "P 42/M B C"
_symmetry_group_IT_number 135
_symmetry_cell_setting 'tetragonal'
loop_
_space_group_symop_operation_xyz
x,y,z
-y,x,1/2+z
-x,-y,z
y,-x,1/2+z
1/2+x,1/2-y,-z
1/2-x,1/2+y,-z
1/2+y,1/2+x,1/2-z
1/2-y,1/2-x,1/2-z
-x,-y,-z
y,-x,1/2-z
x,y,-z
-y,x,1/2-z
1/2-x,1/2+y,z
1/2+x,1/2-y,z
1/2-y,1/2-x,1/2+z
1/2+y,1/2+x,1/2+z
loop_
_atom_site_type_symbol
_atom_site_label
_atom_site_fract_x
_atom_site_fract_y
_atom_site_fract_z
Si Si1 0.148777 0.583446 0.000000
Si Si2 0.315696 0.330920 0.091687
Si Si3 0.148138 0.679408 0.185350
Si Si4 0.962235 0.224786 0.000000
Si Si5 0.232761 0.809306 0.500000
Si Si6 0.811767 0.508276 0.885710
Si Si7 0.447309 0.898387 0.192048
O O1 0.064339 0.662430 0.000000
O O2 0.255849 0.629394 0.000000
O O3 0.136343 0.519306 0.055716
O O4 0.319681 0.273086 0.150794
O O5 0.294279 0.444383 0.104468
O O6 0.415460 0.323344 0.056377
O O7 0.225053 0.290506 0.055564
O O8 0.186047 0.686047 0.250000
O O9 0.193291 0.583285 0.156298
O O10 0.030850 0.681161 0.184485
O O11 0.076771 0.212505 0.000000
O O12 0.874389 0.597795 0.860664
O O13 0.385173 0.885173 0.250000
O O14 0.500000 0.000000 0.195584
#
# Coordination Sequence:
#
# PCOD8317531 Si02
#       7
#     8  16  16   8   8  16  16
#     4  10  20  40  63  88 127 156 192 262 298 358
#     4  10  23  38  56  92 120 156 199 248 298 366
#     4  11  20  39  58  85 128 154 199 253 301 352
#     4  10  21  39  59  83 118 157 203 246 300 355
#     4  10  21  39  60  86 122 160 198 236 310 367
#     4  11  20  37  62  88 124 149 203 244 306 357
#     4   9  17  31  56  86 110 148 188 246 296 348
#
# _framework density 19.508413999999998
#
# number of rings (size 3 to 8) (size 9 to 14) (size 15 to 20)
#    0.000    2.000    7.273    1.091    2.545    2.182 
#    0.000    6.818    0.000    0.000    0.000    0.000 
#    0.000    0.000    0.000    0.000    0.000    0.000 
#
# Total GULP energy -1090601.498838 kJ/mol
# GULP energy per Si atom -12393.198850 kJ/mol
# Density = 1.946401 g / cm^3
# Si number density = 19.508414 Si / 1000 Ang^3
#
#
#
# Elastic Constant Matrix: (Units=GPa)
#
#
# Indices 1 2 3 4 5 6 
#
# 1 67.1919 12.1519 25.6365 0.0000 0.0000 0.0000
# 2 12.1519 67.1919 25.6365 0.0000 0.0000 0.0000
# 3 25.6365 25.6365 148.4721 0.0000 0.0000 0.0000
# 4 0.0000 0.0000 0.0000 15.6554 0.0000 0.0000
# 5 0.0000 0.0000 0.0000 0.0000 15.6554 0.0000
# 6 0.0000 0.0000 0.0000 0.0000 0.0000 24.4669
#
#
#
# Elastic Compliance Matrix: (Units=1/GPa)
#
#
# Indices 1 2 3 4 5 6 
#
# 1 0.016177 -0.001991 -0.002450 0.000000 0.000000 0.000000
# 2 -0.001991 0.016177 -0.002450 0.000000 0.000000 0.000000
# 3 -0.002450 -0.002450 0.007581 0.000000 0.000000 0.000000
# 4 0.000000 0.000000 0.000000 0.063876 0.000000 0.000000
# 5 0.000000 0.000000 0.000000 0.000000 0.063876 0.000000
# 6 0.000000 0.000000 0.000000 0.000000 0.000000 0.040872
#
#
# Mechanical properties :
#
#
# Convention : Reuss Voigt Hill
#
# Bulk Modulus (GPa) = 38.23262 45.52283 41.87772
# Shear Modulus (GPa) = 21.63957 25.78427 23.71192
#
# Velocity S-wave (km/s) = 3.33414 3.63946 3.49014
# Velocity P-wave (km/s) = 5.87048 6.40676 6.14447
#
# Compressibility (1/GPa) = 0.02615567
#
# Stress axis : x y z
#
# Youngs Moduli (GPa) = 61.81444 61.81444 131.90545
#
# Poissons Ratio (x) = 0.12308 0.32311
# Poissons Ratio (y) = 0.12308 0.32311
# Poissons Ratio (z) = 0.15142 0.15142
#
# Static dielectric constant tensor:
#      x y z
#    x 3.523020 0.000000 0.000000 
#    y 0.000000 3.523020 0.000000 
#    z 0.000000 0.000000 4.054100 
# 
# 
# High freq. dielectric constant tensor:
#      x y z
#    x 1.730610 0.000000 0.000000 
#    y 0.000000 1.730610 0.000000 
#    z 0.000000 0.000000 1.781330 
# 
# From -- ./inp_files/6043.got.cif
#   From: 2010.03.12/outbox.cif.g09.slc.cpg/sg135_4_cif.got.tgz:6043.got - 2010.04.06 18:31:24.
