data_PCOD8317828
_publ_section_title
;
Structure prediction by ZEFSAII (Michael W. Deem and Ramdas Pophale) SiO2 
 PCOD8317828
Probable space group: P 42/M N M
;
_chemical_formula_sum "Si O2"
_cell_formula_units_Z 80
_cell_length_a 18.580702
_cell_length_b 18.580702
_cell_length_c 13.953549
_cell_angle_alpha 90.000000
_cell_angle_beta 90.000000
_cell_angle_gamma 90.000000
_cell_volume 4817.357957
_symmetry_space_group_name_H-M "P 42/M N M"
_symmetry_group_IT_number 136
_symmetry_cell_setting 'tetragonal'
loop_
_space_group_symop_operation_xyz
x,y,z
1/2-y,1/2+x,1/2+z
-x,-y,z
1/2+y,1/2-x,1/2+z
1/2+x,1/2-y,1/2-z
1/2-x,1/2+y,1/2-z
y,x,-z
-y,-x,-z
-x,-y,-z
1/2+y,1/2-x,1/2-z
x,y,-z
1/2-y,1/2+x,1/2-z
1/2-x,1/2+y,1/2+z
1/2+x,1/2-y,1/2+z
-y,-x,z
y,x,z
loop_
_atom_site_type_symbol
_atom_site_label
_atom_site_fract_x
_atom_site_fract_y
_atom_site_fract_z
Si Si1 0.684446 0.103494 0.105524
Si Si2 0.420989 0.017048 0.606666
Si Si3 0.224235 0.660625 0.755750
Si Si4 0.006796 0.714114 0.726396
Si Si5 0.246100 0.364002 0.889234
O O1 0.601088 0.088330 0.097655
O O2 0.694261 0.181593 0.153951
O O3 0.720410 0.039967 0.167507
O O4 0.720326 0.104086 0.000000
O O5 0.408667 0.982821 0.500000
O O6 0.500000 0.000000 0.645343
O O7 0.366601 0.984502 0.684621
O O8 0.301890 0.698111 0.748569
O O9 0.239319 0.575702 0.768859
O O10 0.175486 0.678150 0.662274
O O11 0.056525 0.761856 0.654896
O O12 0.318085 0.318085 0.872566
O O13 0.226043 0.371034 0.000000
#
# Coordination Sequence:
#
# PCOD8317828 Si02
#       5
#    16  16  16  16  16
#     4   9  19  30  41  64  93 125 158 190 230 278
#     4   9  18  27  39  62  92 122 151 185 228 277
#     4   9  19  34  50  70  96 128 165 201 238 287
#     4  10  19  30  48  69  94 125 162 199 239 288
#     4   9  18  33  52  73  98 127 161 203 248 290
#
# _framework density 16.606614
#
# number of rings (size 3 to 8) (size 9 to 14) (size 15 to 20)
#    0.000    2.800    0.000    0.600    8.400    2.000 
#    0.000    0.000    0.000    0.600    0.000    1.400 
#    0.000    0.000    0.000   15.000    0.000    0.000 
#
# Total GULP energy -991526.485682 kJ/mol
# GULP energy per Si atom -12394.081071 kJ/mol
# Density = 1.656882 g / cm^3
# Si number density = 16.606614 Si / 1000 Ang^3
#
#
#
# Elastic Constant Matrix: (Units=GPa)
#
#
# Indices 1 2 3 4 5 6 
#
# 1 80.9880 40.0114 38.9129 0.0000 0.0000 0.0000
# 2 40.0114 80.9880 38.9129 0.0000 0.0000 0.0000
# 3 38.9129 38.9129 134.0567 0.0000 0.0000 0.0000
# 4 0.0000 0.0000 0.0000 18.4810 0.0000 0.0000
# 5 0.0000 0.0000 0.0000 0.0000 18.4810 0.0000
# 6 0.0000 0.0000 0.0000 0.0000 0.0000 14.5385
#
#
#
# Elastic Compliance Matrix: (Units=1/GPa)
#
#
# Indices 1 2 3 4 5 6 
#
# 1 0.017283 -0.007121 -0.002950 0.000000 0.000000 0.000000
# 2 -0.007121 0.017283 -0.002950 0.000000 0.000000 0.000000
# 3 -0.002950 -0.002950 0.009172 0.000000 0.000000 0.000000
# 4 0.000000 0.000000 0.000000 0.054110 0.000000 0.000000
# 5 0.000000 0.000000 0.000000 0.000000 0.054110 0.000000
# 6 0.000000 0.000000 0.000000 0.000000 0.000000 0.068783
#
#
# Mechanical properties :
#
#
# Convention : Reuss Voigt Hill
#
# Bulk Modulus (GPa) = 56.50769 59.07857 57.79313
# Shear Modulus (GPa) = 19.78788 22.17980 20.98384
#
# Velocity S-wave (km/s) = 3.45565 3.65855 3.55855
# Velocity P-wave (km/s) = 7.07270 7.31432 7.19452
#
# Compressibility (1/GPa) = 0.01769671
#
# Stress axis : x y z
#
# Youngs Moduli (GPa) = 57.86049 57.86049 109.02830
#
# Poissons Ratio (x) = 0.41204 0.32160
# Poissons Ratio (y) = 0.41204 0.32160
# Poissons Ratio (z) = 0.17067 0.17067
#
# Static dielectric constant tensor:
#      x y z
#    x 2.641330 0.000000 0.000000 
#    y 0.000000 2.641330 0.000000 
#    z 0.000000 0.000000 3.620890 
# 
# 
# High freq. dielectric constant tensor:
#      x y z
#    x 1.612060 0.000000 0.000000 
#    y 0.000000 1.612060 0.000000 
#    z 0.000000 0.000000 1.658150 
# 
# From -- ./inp_files/4877.got.cif
#   From: 2010.03.12/outbox.cif.g09.slc.cpg/sg136_3_cif.got.tgz:4877.got - 2010.04.06 18:39:43.
