data_PCOD8317733
_publ_section_title
;
Structure prediction by ZEFSAII (Michael W. Deem and Ramdas Pophale) SiO2 
 PCOD8317733
Probable space group: P 42/M N M
;
_chemical_formula_sum "Si O2"
_cell_formula_units_Z 80
_cell_length_a 27.516244
_cell_length_b 27.516244
_cell_length_c 7.911484
_cell_angle_alpha 90.000000
_cell_angle_beta 90.000000
_cell_angle_gamma 90.000000
_cell_volume 5990.130141
_symmetry_space_group_name_H-M "P 42/M N M"
_symmetry_group_IT_number 136
_symmetry_cell_setting 'tetragonal'
loop_
_space_group_symop_operation_xyz
x,y,z
1/2-y,1/2+x,1/2+z
-x,-y,z
1/2+y,1/2-x,1/2+z
1/2+x,1/2-y,1/2-z
1/2-x,1/2+y,1/2-z
y,x,-z
-y,-x,-z
-x,-y,-z
1/2+y,1/2-x,1/2-z
x,y,-z
1/2-y,1/2+x,1/2-z
1/2-x,1/2+y,1/2+z
1/2+x,1/2-y,1/2+z
-y,-x,z
y,x,z
loop_
_atom_site_type_symbol
_atom_site_label
_atom_site_fract_x
_atom_site_fract_y
_atom_site_fract_z
Si Si1 0.554094 0.866040 0.193545
Si Si2 0.554769 0.126088 0.197346
Si Si3 0.750799 0.171218 0.500000
Si Si4 0.371393 0.207918 0.684235
Si Si5 0.709324 0.874195 0.312699
Si Si6 0.253368 0.668674 0.500000
O O1 0.500138 0.874418 0.266809
O O2 0.584485 0.915679 0.205691
O O3 0.578740 0.821706 0.293054
O O4 0.550918 0.849799 0.000000
O O5 0.577208 0.179365 0.233047
O O6 0.557765 0.113488 0.000000
O O7 0.803117 0.196884 0.500000
O O8 0.747044 0.137376 0.332967
O O9 0.708090 0.210636 0.500000
O O10 0.373226 0.234024 0.500000
O O11 0.327547 0.170308 0.686508
O O12 0.733620 0.878719 0.500000
O O13 0.749680 0.864772 0.168329
O O14 0.305707 0.694294 0.500000
#
# Coordination Sequence:
#
# PCOD8317733 Si02
#       6
#    16  16   8  16  16   8
#     4  10  18  29  42  53  71  96 125 164 201 235
#     4   9  19  30  39  54  71  93 128 162 197 240
#     4   9  16  26  40  58  75  93 117 141 179 230
#     4   9  16  27  40  54  74  95 116 146 185 227
#     4   8  15  27  38  50  72  93 111 143 182 221
#     4   9  16  24  38  58  71  87 115 137 173 230
#
# _framework density 13.355302999999999
#
# number of rings (size 3 to 8) (size 9 to 14) (size 15 to 20)
#    0.000    3.000    1.000    1.800    4.200    2.800 
#    0.000    6.000    0.000    0.000    0.000    0.000 
#    0.000    0.000    0.000    0.000    0.000    0.000 
#
# Total GULP energy -991544.921782 kJ/mol
# GULP energy per Si atom -12394.311522 kJ/mol
# Density = 1.332491 g / cm^3
# Si number density = 13.355303 Si / 1000 Ang^3
#
#
#
# Elastic Constant Matrix: (Units=GPa)
#
#
# Indices 1 2 3 4 5 6 
#
# 1 42.2926 41.0626 34.7662 0.0000 0.0000 0.0000
# 2 41.0626 42.2932 34.7671 0.0000 0.0000 0.0000
# 3 34.7662 34.7671 97.6680 0.0000 0.0000 0.0000
# 4 0.0000 0.0000 0.0000 13.3922 0.0000 0.0000
# 5 0.0000 0.0000 0.0000 0.0000 13.3917 0.0000
# 6 0.0000 0.0000 0.0000 0.0000 0.0000 10.9963
#
#
#
# Elastic Compliance Matrix: (Units=1/GPa)
#
#
# Indices 1 2 3 4 5 6 
#
# 1 0.414950 -0.397887 -0.006070 0.000000 0.000000 0.000000
# 2 -0.397887 0.414951 -0.006078 0.000000 0.000000 0.000000
# 3 -0.006070 -0.006078 0.014563 0.000000 0.000000 0.000000
# 4 0.000000 0.000000 0.000000 0.074670 0.000000 0.000000
# 5 0.000000 0.000000 0.000000 0.000000 0.074673 0.000000
# 6 0.000000 0.000000 0.000000 0.000000 0.000000 0.090940
#
#
# Mechanical properties :
#
#
# Convention : Reuss Voigt Hill
#
# Bulk Modulus (GPa) = 40.99357 44.82727 42.91042
# Shear Modulus (GPa) = 2.61376 12.33323 7.47350
#
# Velocity S-wave (km/s) = 1.40048 3.04216 2.36813
# Velocity P-wave (km/s) = 5.77723 6.78068 6.29897
#
# Compressibility (1/GPa) = 0.02439407
#
# Stress axis : x y z
#
# Youngs Moduli (GPa) = 2.40993 2.40992 68.66650
#
# Poissons Ratio (x) = 0.95888 0.41683
# Poissons Ratio (y) = 0.95888 0.41735
# Poissons Ratio (z) = 0.01463 0.01465
#
# Static dielectric constant tensor:
#      x y z
#    x 2.454150 0.000000 0.000000 
#    y 0.000000 2.454150 0.000000 
#    z 0.000000 0.000000 2.984250 
# 
# 
# High freq. dielectric constant tensor:
#      x y z
#    x 1.463170 0.000000 0.000000 
#    y 0.000000 1.463170 0.000000 
#    z 0.000000 0.000000 1.530270 
# 
# From -- ./inp_files/1859.got.cif
#   From: 2010.03.12/outbox.cif.g09.slc.cpg/sg136_1_cif.got.tgz:1859.got - 2010.04.06 18:39:43.
