data_PCOD8317042
_publ_section_title
;
Structure prediction by ZEFSAII (Michael W. Deem and Ramdas Pophale) SiO2 
 PCOD8317042
Probable space group: P 42/N B C
;
_chemical_formula_sum "Si O2"
_cell_formula_units_Z 96
_cell_length_a 14.251473
_cell_length_b 14.251473
_cell_length_c 23.577307
_cell_angle_alpha 90.000000
_cell_angle_beta 90.000000
_cell_angle_gamma 90.000000
_cell_volume 4788.656741
_symmetry_space_group_name_H-M "P 42/N B C"
_symmetry_group_IT_number 133
_space_group.IT_coordinate_system_code '2'
_symmetry_cell_setting 'tetragonal'
loop_
_space_group_symop_operation_xyz
x,y,z
1/2-y,x,1/2+z
1/2-x,1/2-y,z
y,1/2-x,1/2+z
x,1/2-y,-z
1/2-x,y,-z
y,x,1/2-z
1/2-y,1/2-x,1/2-z
-x,-y,-z
1/2+y,-x,1/2-z
1/2+x,1/2+y,-z
-y,1/2+x,1/2-z
-x,1/2+y,z
1/2+x,-y,z
-y,-x,1/2+z
1/2+y,1/2+x,1/2+z
loop_
_atom_site_type_symbol
_atom_site_label
_atom_site_fract_x
_atom_site_fract_y
_atom_site_fract_z
Si Si1 0.145566 0.004579 0.271148
Si Si2 0.504579 0.645566 0.228852
Si Si3 0.495002 0.391262 0.101156
Si Si4 0.852641 0.250000 0.065097
Si Si5 0.891262 0.995002 0.398844
Si Si6 0.357787 0.146742 0.500000
O O1 0.101269 0.101269 0.250000
O O2 0.156826 0.018499 0.338381
O O3 0.083890 0.916110 0.250000
O O4 0.250000 0.991506 0.245659
O O5 0.601269 0.601269 0.250000
O O6 0.518500 0.656826 0.161619
O O7 0.590160 0.345275 0.077560
O O8 0.500000 0.500000 0.113570
O O9 0.410274 0.380333 0.056980
O O10 0.750000 0.250000 0.096593
O O11 0.909840 0.345274 0.077560
O O12 0.830708 0.250000 0.000000
O O13 0.880333 0.910273 0.443020
O O14 0.408757 0.250000 0.500000
O O15 0.250000 0.167370 0.500000
#
# Coordination Sequence:
#
# PCOD8317042 Si02
#       6
#    16  16  16  16  16  16
#     4  11  24  45  68  94 130 173 222 275 328 383
#     4  11  24  45  68  94 130 173 222 275 328 383
#     4  12  22  44  68  91 135 172 213 276 326 389
#     4  11  24  42  68 102 134 170 214 267 336 401
#     4  12  22  44  68  91 135 172 213 276 326 389
#     4  11  23  40  66  99 132 172 214 262 334 404
#
# _framework density 20.047374000000001
#
# number of rings (size 3 to 8) (size 9 to 14) (size 15 to 20)
#    0.000    0.667    8.333    0.500    0.000    4.667 
#    0.000    0.000    0.000    0.000    0.000    0.000 
#    0.000    0.000    0.000    0.000    0.000    0.000 
#
# Total GULP energy -1189402.031923 kJ/mol
# GULP energy per Si atom -12389.604499 kJ/mol
# Density = 2.000175 g / cm^3
# Si number density = 20.047374 Si / 1000 Ang^3
#
#
#
# Elastic Constant Matrix: (Units=GPa)
#
#
# Indices 1 2 3 4 5 6 
#
# 1 151.5459 44.4524 22.8473 0.0000 0.0000 0.0000
# 2 44.4524 151.5459 22.8473 0.0000 0.0000 0.0000
# 3 22.8473 22.8473 110.8151 0.0000 0.0000 0.0000
# 4 0.0000 0.0000 0.0000 16.7752 0.0000 0.0000
# 5 0.0000 0.0000 0.0000 0.0000 16.7752 0.0000
# 6 0.0000 0.0000 0.0000 0.0000 0.0000 -16.8460
#
#
#
# Elastic Compliance Matrix: (Units=1/GPa)
#
#
# Indices 1 2 3 4 5 6 
#
# 1 0.007349 -0.001989 -0.001105 0.000000 0.000000 0.000000
# 2 -0.001989 0.007349 -0.001105 0.000000 0.000000 0.000000
# 3 -0.001105 -0.001105 0.009480 0.000000 0.000000 0.000000
# 4 0.000000 0.000000 0.000000 0.059612 0.000000 0.000000
# 5 0.000000 0.000000 0.000000 0.000000 0.059612 0.000000
# 6 0.000000 0.000000 0.000000 0.000000 0.000000 -0.059361
#
#
# Mechanical properties :
#
#
# Convention : Reuss Voigt Hill
#
# Bulk Modulus (GPa) = 63.37547 66.02231 64.69889
# Shear Modulus (GPa) = 51.17869 24.92488 38.05179
#
# Velocity S-wave (km/s) = 5.05809 3.52987 4.36144
# Velocity P-wave (km/s) = 8.11134 7.04400 7.59644
#
# Compressibility (1/GPa) = 0.01577897
#
# Stress axis : x y z
#
# Youngs Moduli (GPa) = 136.07900 136.07900 105.48848
#
# Poissons Ratio (x) = 0.27066 0.11657
# Poissons Ratio (y) = 0.27066 0.11657
# Poissons Ratio (z) = 0.15037 0.15037
#
# Static dielectric constant tensor:
#      x y z
#    x 3.562910 0.000000 0.000000 
#    y 0.000000 3.562910 0.000000 
#    z 0.000000 0.000000 3.743900 
# 
# 
# High freq. dielectric constant tensor:
#      x y z
#    x 1.787080 0.000000 0.000000 
#    y 0.000000 1.787080 0.000000 
#    z 0.000000 0.000000 1.791190 
# 
# From -- ./inp_files/6541.got.cif
#   From: 2010.03.12/outbox.cif.g09.slc.cpg/sg133_4_cif.got.tgz:6541.got - 2010.04.06 18:08:06.
