data_PCOD8317413
_publ_section_title
;
Structure prediction by ZEFSAII (Michael W. Deem and Ramdas Pophale) SiO2 
 PCOD8317413
Probable space group: P 42/M B C
;
_chemical_formula_sum "Si O2"
_cell_formula_units_Z 112
_cell_length_a 14.642654
_cell_length_b 14.642654
_cell_length_c 27.706274
_cell_angle_alpha 90.000000
_cell_angle_beta 90.000000
_cell_angle_gamma 90.000000
_cell_volume 5940.427849
_symmetry_space_group_name_H-M "P 42/M B C"
_symmetry_group_IT_number 135
_symmetry_cell_setting 'tetragonal'
loop_
_space_group_symop_operation_xyz
x,y,z
-y,x,1/2+z
-x,-y,z
y,-x,1/2+z
1/2+x,1/2-y,-z
1/2-x,1/2+y,-z
1/2+y,1/2+x,1/2-z
1/2-y,1/2-x,1/2-z
-x,-y,-z
y,-x,1/2-z
x,y,-z
-y,x,1/2-z
1/2-x,1/2+y,z
1/2+x,1/2-y,z
1/2-y,1/2-x,1/2+z
1/2+y,1/2+x,1/2+z
loop_
_atom_site_type_symbol
_atom_site_label
_atom_site_fract_x
_atom_site_fract_y
_atom_site_fract_z
Si Si1 0.361261 0.829346 0.555185
Si Si2 0.474343 0.232074 0.739972
Si Si3 0.097725 0.524343 0.424493
Si Si4 0.698538 0.663871 0.272170
Si Si5 0.104566 0.627120 0.173156
Si Si6 0.770625 0.791075 0.874206
Si Si7 0.718260 0.930733 0.946696
O O1 0.339643 0.801318 0.500000
O O2 0.297192 0.774311 0.591718
O O3 0.465191 0.802736 0.569121
O O4 0.338955 0.937954 0.561694
O O5 0.577534 0.266735 0.742111
O O6 0.408818 0.320552 0.737697
O O7 0.455806 0.167902 0.693356
O O8 0.458099 0.171083 0.786645
O O9 0.089471 0.535486 0.366771
O O10 0.126409 0.621979 0.447387
O O11 0.000000 0.500000 0.446992
O O12 0.747324 0.752677 0.250000
O O13 0.714067 0.655387 0.330381
O O14 0.170875 0.704509 0.150471
O O15 0.785005 0.882090 0.907827
O O16 0.762652 0.926383 0.000000
#
# Coordination Sequence:
#
# PCOD8317413 Si02
#       7
#    16  16  16  16  16  16  16
#     4  10  19  31  52  82 110 142 183 224 274 338
#     4  10  20  37  55  75 112 142 186 231 281 326
#     4   9  17  29  48  76 108 136 173 217 275 328
#     4  11  22  38  58  81 110 150 183 236 285 331
#     4   9  18  35  50  76 110 141 178 234 266 333
#     4  10  19  33  52  77 106 143 182 220 274 326
#     4   9  18  32  50  74 107 141 171 219 271 318
#
# _framework density 18.853860999999998
#
# number of rings (size 3 to 8) (size 9 to 14) (size 15 to 20)
#    0.000    2.286    2.857    1.714    0.000    7.714 
#    0.000    1.429    0.000    0.000    0.000    0.000 
#    0.000   17.143    0.000    0.000    0.000    0.000 
#
# Total GULP energy -1387823.161957 kJ/mol
# GULP energy per Si atom -12391.278232 kJ/mol
# Density = 1.881095 g / cm^3
# Si number density = 18.853861 Si / 1000 Ang^3
#
#
#
# Elastic Constant Matrix: (Units=GPa)
#
#
# Indices 1 2 3 4 5 6 
#
# 1 57.0661 14.6430 25.0205 0.0000 0.0000 0.0000
# 2 14.6430 57.0655 25.0210 0.0000 0.0000 0.0000
# 3 25.0205 25.0210 116.1854 0.0000 0.0000 0.0000
# 4 0.0000 0.0000 0.0000 29.1795 0.0000 0.0000
# 5 0.0000 0.0000 0.0000 0.0000 29.1794 0.0000
# 6 0.0000 0.0000 0.0000 0.0000 0.0000 14.7577
#
#
#
# Elastic Compliance Matrix: (Units=1/GPa)
#
#
# Indices 1 2 3 4 5 6 
#
# 1 0.019992 -0.003580 -0.003534 0.000000 0.000000 0.000000
# 2 -0.003580 0.019992 -0.003534 0.000000 0.000000 0.000000
# 3 -0.003534 -0.003534 0.010129 0.000000 0.000000 0.000000
# 4 0.000000 0.000000 0.000000 0.034271 0.000000 0.000000
# 5 0.000000 0.000000 0.000000 0.000000 0.034271 0.000000
# 6 0.000000 0.000000 0.000000 0.000000 0.000000 0.067761
#
#
# Mechanical properties :
#
#
# Convention : Reuss Voigt Hill
#
# Bulk Modulus (GPa) = 34.70373 39.96512 37.33442
# Shear Modulus (GPa) = 23.00773 25.66551 24.33662
#
# Velocity S-wave (km/s) = 3.49710 3.69356 3.59667
# Velocity P-wave (km/s) = 5.89516 6.27959 6.09041
#
# Compressibility (1/GPa) = 0.02881535
#
# Stress axis : x y z
#
# Youngs Moduli (GPa) = 50.02054 50.01971 98.72488
#
# Poissons Ratio (x) = 0.17909 0.34891
# Poissons Ratio (y) = 0.17909 0.34893
# Poissons Ratio (z) = 0.17678 0.17679
#
# Static dielectric constant tensor:
#      x y z
#    x 3.238760 0.000000 0.000000 
#    y 0.000000 3.238770 0.000000 
#    z 0.000000 0.000000 3.764800 
# 
# 
# High freq. dielectric constant tensor:
#      x y z
#    x 1.702430 0.000000 0.000000 
#    y 0.000000 1.702430 0.000000 
#    z 0.000000 0.000000 1.756860 
# 
# From -- ./inp_files/6874.got.cif
#   From: 2010.03.12/outbox.cif.g09.slc.cpg/sg135_4_cif.got.tgz:6874.got - 2010.04.06 18:31:24.
