data_PCOD8317151
_publ_section_title
;
Structure prediction by ZEFSAII (Michael W. Deem and Ramdas Pophale) SiO2 
 PCOD8317151
Probable space group: P 42/N N M
;
_chemical_formula_sum "Si O2"
_cell_formula_units_Z 56
_cell_length_a 10.709636
_cell_length_b 10.709636
_cell_length_c 22.010964
_cell_angle_alpha 90.000000
_cell_angle_beta 90.000000
_cell_angle_gamma 90.000000
_cell_volume 2524.576202
_symmetry_space_group_name_H-M "P 42/N N M"
_symmetry_group_IT_number 134
_space_group.IT_coordinate_system_code '2'
_symmetry_cell_setting 'tetragonal'
loop_
_space_group_symop_operation_xyz
x,y,z
1/2-y,x,1/2+z
1/2-x,1/2-y,z
y,1/2-x,1/2+z
x,1/2-y,1/2-z
1/2-x,y,1/2-z
y,x,-z
1/2-y,1/2-x,-z
-x,-y,-z
1/2+y,-x,1/2-z
1/2+x,1/2+y,-z
-y,1/2+x,1/2-z
-x,1/2+y,1/2+z
1/2+x,-y,1/2+z
-y,-x,z
1/2+y,1/2+x,z
loop_
_atom_site_type_symbol
_atom_site_label
_atom_site_fract_x
_atom_site_fract_y
_atom_site_fract_z
Si Si1 0.250000 0.955662 0.750000
Si Si2 0.695574 0.000670 0.476135
Si Si3 0.361309 0.070939 0.864626
Si Si4 0.747821 0.055506 0.606847
O O1 0.369606 0.869606 0.735392
O O2 0.274500 0.047027 0.806623
O O3 0.604735 0.895266 0.500000
O O4 0.782316 0.941163 0.425534
O O5 0.617348 0.117348 0.448356
O O6 0.772934 0.046180 0.534612
O O7 0.423520 0.211144 0.861961
O O8 0.470232 0.970232 0.867582
O O9 0.838460 0.161540 0.633067
O O10 0.603394 0.103394 0.619738
#
# Coordination Sequence:
#
# PCOD8317151 Si02
#       4
#     8  16  16  16
#     4   9  18  32  52  81 114 146 184 232 288 354
#     4  10  20  32  49  77 112 147 183 229 284 339
#     4  10  19  32  53  81 113 148 185 230 284 339
#     4   9  18  32  50  75 108 147 190 230 271 327
#
# _framework density 22.181940000000001
#
# number of rings (size 3 to 8) (size 9 to 14) (size 15 to 20)
#    0.000    2.429    0.000    2.571    0.000    7.429 
#    0.000    0.000    0.000    3.429    0.000    8.000 
#    0.000   29.714    0.000    0.857    0.000    1.143 
#
# Total GULP energy -693794.579847 kJ/mol
# GULP energy per Si atom -12389.188926 kJ/mol
# Density = 2.213145 g / cm^3
# Si number density = 22.181940 Si / 1000 Ang^3
#
#
#
# Elastic Constant Matrix: (Units=GPa)
#
#
# Indices 1 2 3 4 5 6 
#
# 1 88.3130 49.3810 44.4088 0.0000 0.0000 0.0000
# 2 49.3810 88.3131 44.4094 0.0000 0.0000 0.0000
# 3 44.4088 44.4094 91.7115 0.0000 0.0000 0.0000
# 4 0.0000 0.0000 0.0000 14.8504 0.0000 0.0000
# 5 0.0000 0.0000 0.0000 0.0000 14.8422 0.0000
# 6 0.0000 0.0000 0.0000 0.0000 0.0000 38.1027
#
#
#
# Elastic Compliance Matrix: (Units=1/GPa)
#
#
# Indices 1 2 3 4 5 6 
#
# 1 0.018123 -0.007562 -0.005114 0.000000 0.000000 0.000000
# 2 -0.007562 0.018124 -0.005114 0.000000 0.000000 0.000000
# 3 -0.005114 -0.005114 0.015856 0.000000 0.000000 0.000000
# 4 0.000000 0.000000 0.000000 0.067338 0.000000 0.000000
# 5 0.000000 0.000000 0.000000 0.000000 0.067376 0.000000
# 6 0.000000 0.000000 0.000000 0.000000 0.000000 0.026245
#
#
# Mechanical properties :
#
#
# Convention : Reuss Voigt Hill
#
# Bulk Modulus (GPa) = 60.52238 60.52621 60.52430
# Shear Modulus (GPa) = 19.67337 22.23493 20.95415
#
# Velocity S-wave (km/s) = 2.98133 3.16949 3.07685
# Velocity P-wave (km/s) = 6.26058 6.38277 6.32197
#
# Compressibility (1/GPa) = 0.01652281
#
# Stress axis : x y z
#
# Youngs Moduli (GPa) = 55.17711 55.17679 63.06580
#
# Poissons Ratio (x) = 0.41726 0.32251
# Poissons Ratio (y) = 0.41726 0.32253
# Poissons Ratio (z) = 0.28217 0.28218
#
# Static dielectric constant tensor:
#      x y z
#    x 4.285760 0.000000 0.000000 
#    y 0.000000 4.285760 0.000000 
#    z 0.000000 0.000000 3.960040 
# 
# 
# High freq. dielectric constant tensor:
#      x y z
#    x 1.876210 0.000000 0.000000 
#    y 0.000000 1.876210 0.000000 
#    z 0.000000 0.000000 1.834300 
# 
# From -- ./inp_files/8575.got.cif
#   From: 2010.03.12/outbox.cif.g09.slc.cpg/sg134_5_cif.got.tgz:8575.got - 2010.04.06 18:17:22.
