data_PCOD8317138
_publ_section_title
;
Structure prediction by ZEFSAII (Michael W. Deem and Ramdas Pophale) SiO2 
 PCOD8317138
Probable space group: P 42/N N M
;
_chemical_formula_sum "Si O2"
_cell_formula_units_Z 72
_cell_length_a 23.334056
_cell_length_b 23.334056
_cell_length_c 7.896896
_cell_angle_alpha 90.000000
_cell_angle_beta 90.000000
_cell_angle_gamma 90.000000
_cell_volume 4299.687478
_symmetry_space_group_name_H-M "P 42/N N M"
_symmetry_group_IT_number 134
_space_group.IT_coordinate_system_code '2'
_symmetry_cell_setting 'tetragonal'
loop_
_space_group_symop_operation_xyz
x,y,z
1/2-y,x,1/2+z
1/2-x,1/2-y,z
y,1/2-x,1/2+z
x,1/2-y,1/2-z
1/2-x,y,1/2-z
y,x,-z
1/2-y,1/2-x,-z
-x,-y,-z
1/2+y,-x,1/2-z
1/2+x,1/2+y,-z
-y,1/2+x,1/2-z
-x,1/2+y,1/2+z
1/2+x,-y,1/2+z
-y,-x,z
1/2+y,1/2+x,z
loop_
_atom_site_type_symbol
_atom_site_label
_atom_site_fract_x
_atom_site_fract_y
_atom_site_fract_z
Si Si1 0.367171 0.539043 0.720999
Si Si2 0.131770 0.537308 0.168359
Si Si3 0.953919 0.545538 0.300644
Si Si4 0.750000 0.078274 0.750000
Si Si5 0.787634 0.381704 0.404384
O O1 0.418506 0.581495 0.770917
O O2 0.350717 0.544173 0.525906
O O3 0.389663 0.473668 0.747305
O O4 0.313362 0.556565 0.839460
O O5 0.088111 0.588111 0.225492
O O6 0.105063 0.475003 0.215730
O O7 0.191675 0.541607 0.268005
O O8 0.952297 0.547704 0.500000
O O9 0.998635 0.498635 0.230889
O O10 0.750868 0.114540 0.575033
O O11 0.750000 0.356771 0.250000
O O12 0.838383 0.338383 0.445265
#
# Coordination Sequence:
#
# PCOD8317138 Si02
#       5
#    16  16  16   8  16
#     4   9  17  32  51  70  93 120 156 204 253 301
#     4  10  19  31  48  70  95 127 165 200 241 295
#     4   9  16  27  46  72  96 118 151 194 243 302
#     4  12  22  34  52  71  96 130 167 204 250 294
#     4  11  23  38  53  69  93 127 170 217 258 294
#
# _framework density 16.745403
#
# number of rings (size 3 to 8) (size 9 to 14) (size 15 to 20)
#    0.000    2.000    2.222    2.667    0.000    7.333 
#    0.000    0.000    0.000    3.000    0.000    0.000 
#    0.000    0.000    0.000    1.000    7.556    3.111 
#
# Total GULP energy -892058.679393 kJ/mol
# GULP energy per Si atom -12389.703880 kJ/mol
# Density = 1.670729 g / cm^3
# Si number density = 16.745403 Si / 1000 Ang^3
#
#
#
# Elastic Constant Matrix: (Units=GPa)
#
#
# Indices 1 2 3 4 5 6 
#
# 1 47.1239 36.2821 19.8796 0.0000 0.0000 0.0000
# 2 36.2821 47.1239 19.8801 0.0000 0.0000 0.0000
# 3 19.8796 19.8801 92.4059 0.0000 0.0000 0.0000
# 4 0.0000 0.0000 0.0000 24.5071 0.0000 0.0000
# 5 0.0000 0.0000 0.0000 0.0000 24.5070 0.0000
# 6 0.0000 0.0000 0.0000 0.0000 0.0000 17.2461
#
#
#
# Elastic Compliance Matrix: (Units=1/GPa)
#
#
# Indices 1 2 3 4 5 6 
#
# 1 0.052797 -0.039438 -0.002874 0.000000 0.000000 0.000000
# 2 -0.039438 0.052798 -0.002874 0.000000 0.000000 0.000000
# 3 -0.002874 -0.002874 0.012058 0.000000 0.000000 0.000000
# 4 0.000000 0.000000 0.000000 0.040805 0.000000 0.000000
# 5 0.000000 0.000000 0.000000 0.000000 0.040805 0.000000
# 6 0.000000 0.000000 0.000000 0.000000 0.000000 0.057984
#
#
# Mechanical properties :
#
#
# Convention : Reuss Voigt Hill
#
# Bulk Modulus (GPa) = 36.65527 37.63748 37.14638
# Shear Modulus (GPa) = 14.01686 20.62615 17.32151
#
# Velocity S-wave (km/s) = 2.89633 3.51344 3.21970
# Velocity P-wave (km/s) = 5.75519 6.24372 6.00443
#
# Compressibility (1/GPa) = 0.02728121
#
# Stress axis : x y z
#
# Youngs Moduli (GPa) = 18.94030 18.94025 82.92912
#
# Poissons Ratio (x) = 0.74696 0.23833
# Poissons Ratio (y) = 0.74697 0.23837
# Poissons Ratio (z) = 0.05443 0.05444
#
# Static dielectric constant tensor:
#      x y z
#    x 3.059200 0.000000 0.000000 
#    y 0.000000 3.059210 0.000000 
#    z 0.000000 0.000000 3.257550 
# 
# 
# High freq. dielectric constant tensor:
#      x y z
#    x 1.607590 0.000000 0.000000 
#    y 0.000000 1.607590 0.000000 
#    z 0.000000 0.000000 1.669410 
# 
# From -- ./inp_files/3052.got.cif
#   From: 2010.03.12/outbox.cif.g09.slc.cpg/sg134_2_cif.got.tgz:3052.got - 2010.04.06 18:17:22.
