data_PCOD8317250
_publ_section_title
;
Structure prediction by ZEFSAII (Michael W. Deem and Ramdas Pophale) SiO2 
 PCOD8317250
Probable space group: P 42/N N M
;
_chemical_formula_sum "Si O2"
_cell_formula_units_Z 112
_cell_length_a 16.241921
_cell_length_b 16.241921
_cell_length_c 22.428605
_cell_angle_alpha 90.000000
_cell_angle_beta 90.000000
_cell_angle_gamma 90.000000
_cell_volume 5916.665949
_symmetry_space_group_name_H-M "P 42/N N M"
_symmetry_group_IT_number 134
_space_group.IT_coordinate_system_code '2'
_symmetry_cell_setting 'tetragonal'
loop_
_space_group_symop_operation_xyz
x,y,z
1/2-y,x,1/2+z
1/2-x,1/2-y,z
y,1/2-x,1/2+z
x,1/2-y,1/2-z
1/2-x,y,1/2-z
y,x,-z
1/2-y,1/2-x,-z
-x,-y,-z
1/2+y,-x,1/2-z
1/2+x,1/2+y,-z
-y,1/2+x,1/2-z
-x,1/2+y,1/2+z
1/2+x,-y,1/2+z
-y,-x,z
1/2+y,1/2+x,z
loop_
_atom_site_type_symbol
_atom_site_label
_atom_site_fract_x
_atom_site_fract_y
_atom_site_fract_z
Si Si1 0.285899 0.456534 0.601598
Si Si2 0.946307 0.308686 0.306496
Si Si3 0.004188 0.632640 0.011115
Si Si4 0.582993 0.668804 0.377405
Si Si5 0.470564 0.663240 0.266613
Si Si6 0.071013 0.058370 0.162166
Si Si7 0.152187 0.331779 0.571800
O O1 0.252879 0.534709 0.638726
O O2 0.293281 0.493002 0.535193
O O3 0.372534 0.420753 0.626139
O O4 0.229634 0.375729 0.601929
O O5 0.935002 0.250000 0.250000
O O6 0.863546 0.363546 0.316076
O O7 0.027959 0.365560 0.302360
O O8 0.994219 0.667196 0.077483
O O9 0.094420 0.594420 0.003255
O O10 0.934007 0.565994 0.000000
O O11 0.543213 0.684012 0.313313
O O12 0.646313 0.738149 0.403523
O O13 0.427041 0.750000 0.250000
O O14 0.402344 0.597657 0.289934
O O15 0.514058 0.631092 0.207538
O O16 0.119260 0.075952 0.100655
O O17 0.999690 0.000311 0.138499
O O18 0.160237 0.339764 0.500000
#
# Coordination Sequence:
#
# PCOD8317250 Si02
#       7
#    16  16  16  16  16  16  16
#     4  10  21  34  55  83 114 150 188 236 289 344
#     4  10  21  38  58  81 110 147 193 241 290 348
#     4   9  18  32  51  78 110 145 186 226 275 340
#     4  11  20  34  56  85 117 151 189 236 295 352
#     4  11  22  38  60  84 112 150 195 245 296 350
#     4   9  20  38  57  81 114 153 198 240 289 353
#     4  11  20  33  56  86 120 155 189 237 294 354
#
# _framework density 18.929580000000001
#
# number of rings (size 3 to 8) (size 9 to 14) (size 15 to 20)
#    0.000    1.857    2.857    1.714    0.000    2.286 
#    0.000    0.000    0.000    0.857    0.000    0.000 
#    0.000    0.000    0.000    0.000    0.000    0.000 
#
# Total GULP energy -1387559.132555 kJ/mol
# GULP energy per Si atom -12388.920826 kJ/mol
# Density = 1.888650 g / cm^3
# Si number density = 18.929580 Si / 1000 Ang^3
#
#
#
# Elastic Constant Matrix: (Units=GPa)
#
#
# Indices 1 2 3 4 5 6 
#
# 1 77.1940 34.4312 31.5826 0.0000 0.0000 0.0000
# 2 34.4312 77.1940 31.5826 0.0000 0.0000 0.0000
# 3 31.5826 31.5826 81.6278 0.0000 0.0000 0.0000
# 4 0.0000 0.0000 0.0000 24.6994 0.0000 0.0000
# 5 0.0000 0.0000 0.0000 0.0000 24.6994 0.0000
# 6 0.0000 0.0000 0.0000 0.0000 0.0000 29.6208
#
#
#
# Elastic Compliance Matrix: (Units=1/GPa)
#
#
# Indices 1 2 3 4 5 6 
#
# 1 0.017427 -0.005958 -0.004438 0.000000 0.000000 0.000000
# 2 -0.005958 0.017427 -0.004438 0.000000 0.000000 0.000000
# 3 -0.004438 -0.004438 0.015685 0.000000 0.000000 0.000000
# 4 0.000000 0.000000 0.000000 0.040487 0.000000 0.000000
# 5 0.000000 0.000000 0.000000 0.000000 0.040487 0.000000
# 6 0.000000 0.000000 0.000000 0.000000 0.000000 0.033760
#
#
# Mechanical properties :
#
#
# Convention : Reuss Voigt Hill
#
# Bulk Modulus (GPa) = 47.90829 47.91205 47.91017
# Shear Modulus (GPa) = 24.76513 25.03188 24.89850
#
# Velocity S-wave (km/s) = 3.62093 3.64038 3.63067
# Velocity P-wave (km/s) = 6.54562 6.56014 6.55289
#
# Compressibility (1/GPa) = 0.02087321
#
# Stress axis : x y z
#
# Youngs Moduli (GPa) = 57.38134 57.38133 63.75614
#
# Poissons Ratio (x) = 0.34185 0.28293
# Poissons Ratio (y) = 0.34185 0.28293
# Poissons Ratio (z) = 0.25464 0.25464
#
# Static dielectric constant tensor:
#      x y z
#    x 3.500190 0.000000 0.000000 
#    y 0.000000 3.500190 0.000000 
#    z 0.000000 0.000000 3.469400 
# 
# 
# High freq. dielectric constant tensor:
#      x y z
#    x 1.727050 0.000000 0.000000 
#    y 0.000000 1.727050 0.000000 
#    z 0.000000 0.000000 1.733880 
# 
# From -- ./inp_files/10135.got.cif
#   From: 2010.03.12/outbox.cif.g09.slc.cpg/sg134_6_cif.got.tgz:10135.got - 2010.04.06 18:17:22.
