data_PCOD8317086
_publ_section_title
;
Structure prediction by ZEFSAII (Michael W. Deem and Ramdas Pophale) SiO2 
 PCOD8317086
Probable space group: P 42/N N M
;
_chemical_formula_sum "Si O2"
_cell_formula_units_Z 96
_cell_length_a 22.246224
_cell_length_b 22.246224
_cell_length_c 10.137306
_cell_angle_alpha 90.000000
_cell_angle_beta 90.000000
_cell_angle_gamma 90.000000
_cell_volume 5016.896804
_symmetry_space_group_name_H-M "P 42/N N M"
_symmetry_group_IT_number 134
_space_group.IT_coordinate_system_code '2'
_symmetry_cell_setting 'tetragonal'
loop_
_space_group_symop_operation_xyz
x,y,z
1/2-y,x,1/2+z
1/2-x,1/2-y,z
y,1/2-x,1/2+z
x,1/2-y,1/2-z
1/2-x,y,1/2-z
y,x,-z
1/2-y,1/2-x,-z
-x,-y,-z
1/2+y,-x,1/2-z
1/2+x,1/2+y,-z
-y,1/2+x,1/2-z
-x,1/2+y,1/2+z
1/2+x,-y,1/2+z
-y,-x,z
1/2+y,1/2+x,z
loop_
_atom_site_type_symbol
_atom_site_label
_atom_site_fract_x
_atom_site_fract_y
_atom_site_fract_z
Si Si1 0.611045 0.111045 0.538344
Si Si2 0.557844 0.625108 0.224306
Si Si3 0.536282 0.463719 0.753203
Si Si4 0.320211 0.820211 0.257450
Si Si5 0.998537 0.817371 0.483151
Si Si6 0.896175 0.396175 0.951750
Si Si7 0.582309 0.815419 0.769193
Si Si8 0.498896 0.682479 0.976247
O O1 0.576783 0.076783 0.652988
O O2 0.657907 0.157907 0.599891
O O3 0.646375 0.062495 0.451740
O O4 0.533887 0.554791 0.225080
O O5 0.523206 0.661197 0.338629
O O6 0.629742 0.628073 0.243126
O O7 0.543687 0.652546 0.081971
O O8 0.556499 0.443502 0.609350
O O9 0.334411 0.750000 0.250000
O O10 0.355764 0.855764 0.144460
O O11 0.058978 0.852213 0.532712
O O12 0.016968 0.748236 0.470337
O O13 0.943910 0.825401 0.584957
O O14 0.615086 0.750000 0.750000
O O15 0.528342 0.815591 0.666150
#
# Coordination Sequence:
#
# PCOD8317086 Si02
#       8
#     8  16   8   8  16   8  16  16
#     4   9  17  30  48  73 103 137 169 204 251 308
#     4  10  18  34  56  76 100 135 173 213 263 314
#     4   7  16  27  46  77  98 116 158 209 248 295
#     4  10  18  27  44  72 104 138 182 234 266 283
#     4  10  20  34  53  77 106 139 173 211 258 310
#     4   9  17  30  48  73 103 137 169 204 251 308
#     4  10  22  36  50  75 106 134 170 215 260 310
#     4  10  20  34  53  77 106 139 173 211 258 310
#
# _framework density 19.135335999999999
#
# number of rings (size 3 to 8) (size 9 to 14) (size 15 to 20)
#    0.000    2.417    0.000    3.500    0.000    2.000 
#    0.000    5.000    0.000    2.000    0.000    9.333 
#    0.000   10.667    0.000    0.000    0.000    0.000 
#
# Total GULP energy -1189535.858545 kJ/mol
# GULP energy per Si atom -12390.998527 kJ/mol
# Density = 1.909178 g / cm^3
# Si number density = 19.135336 Si / 1000 Ang^3
#
#
#
# Elastic Constant Matrix: (Units=GPa)
#
#
# Indices 1 2 3 4 5 6 
#
# 1 89.1801 36.1529 -3.6310 0.0000 0.0000 0.0000
# 2 36.1529 89.1801 -3.6310 0.0000 0.0000 0.0000
# 3 -3.6310 -3.6310 39.1449 0.0000 0.0000 0.0000
# 4 0.0000 0.0000 0.0000 16.6804 0.0000 0.0000
# 5 0.0000 0.0000 0.0000 0.0000 16.6804 0.0000
# 6 0.0000 0.0000 0.0000 0.0000 0.0000 27.9904
#
#
#
# Elastic Compliance Matrix: (Units=1/GPa)
#
#
# Indices 1 2 3 4 5 6 
#
# 1 0.013440 -0.005418 0.000744 0.000000 0.000000 0.000000
# 2 -0.005418 0.013440 0.000744 0.000000 0.000000 0.000000
# 3 0.000744 0.000744 0.025684 0.000000 0.000000 0.000000
# 4 0.000000 0.000000 0.000000 0.059951 0.000000 0.000000
# 5 0.000000 0.000000 0.000000 0.000000 0.059951 0.000000
# 6 0.000000 0.000000 0.000000 0.000000 0.000000 0.035727
#
#
# Mechanical properties :
#
#
# Convention : Reuss Voigt Hill
#
# Bulk Modulus (GPa) = 22.36921 30.58742 26.47831
# Shear Modulus (GPa) = 21.64940 24.84453 23.24696
#
# Velocity S-wave (km/s) = 3.36725 3.60718 3.48928
# Velocity P-wave (km/s) = 5.18008 5.77655 5.48643
#
# Compressibility (1/GPa) = 0.04470431
#
# Stress axis : x y z
#
# Youngs Moduli (GPa) = 74.40445 74.40445 38.93446
#
# Poissons Ratio (x) = 0.40314 -0.02897
# Poissons Ratio (y) = 0.40314 -0.02897
# Poissons Ratio (z) = -0.05536 -0.05536
#
# Static dielectric constant tensor:
#      x y z
#    x 3.662830 0.000000 0.000000 
#    y 0.000000 3.662830 0.000000 
#    z 0.000000 0.000000 3.274810 
# 
# 
# High freq. dielectric constant tensor:
#      x y z
#    x 1.739350 0.000000 0.000000 
#    y 0.000000 1.739350 0.000000 
#    z 0.000000 0.000000 1.730320 
# 
# From -- ./inp_files/3275.got.cif
#   From: 2010.03.12/outbox.cif.g09.slc.cpg/sg134_2_cif.got.tgz:3275.got - 2010.04.06 18:17:22.
