data_PCOD8317333
_publ_section_title
;
Structure prediction by ZEFSAII (Michael W. Deem and Ramdas Pophale) SiO2 
 PCOD8317333
Probable space group: P 42/N N M
;
_chemical_formula_sum "Si O2"
_cell_formula_units_Z 48
_cell_length_a 8.897990
_cell_length_b 8.897990
_cell_length_c 31.607367
_cell_angle_alpha 90.000000
_cell_angle_beta 90.000000
_cell_angle_gamma 90.000000
_cell_volume 2502.488819
_symmetry_space_group_name_H-M "P 42/N N M"
_symmetry_group_IT_number 134
_space_group.IT_coordinate_system_code '2'
_symmetry_cell_setting 'tetragonal'
loop_
_space_group_symop_operation_xyz
x,y,z
1/2-y,x,1/2+z
1/2-x,1/2-y,z
y,1/2-x,1/2+z
x,1/2-y,1/2-z
1/2-x,y,1/2-z
y,x,-z
1/2-y,1/2-x,-z
-x,-y,-z
1/2+y,-x,1/2-z
1/2+x,1/2+y,-z
-y,1/2+x,1/2-z
-x,1/2+y,1/2+z
1/2+x,-y,1/2+z
-y,-x,z
1/2+y,1/2+x,z
loop_
_atom_site_type_symbol
_atom_site_label
_atom_site_fract_x
_atom_site_fract_y
_atom_site_fract_z
Si Si1 0.864616 0.364616 0.572414
Si Si2 0.426856 0.573145 0.870732
Si Si3 0.426309 0.926309 0.295907
Si Si4 0.421071 0.578930 0.623091
Si Si5 0.067712 0.567712 0.042022
Si Si6 0.920364 0.079637 0.699283
O O1 0.750000 0.250000 0.599386
O O2 0.963051 0.249442 0.543317
O O3 0.969064 0.469064 0.600060
O O4 0.465275 0.534726 0.822393
O O5 0.460240 0.745979 0.879637
O O6 0.462863 0.962863 0.247300
O O7 0.253882 0.959371 0.307585
O O8 0.495892 0.504109 0.583138
O O9 0.482536 0.517465 0.667234
O O10 0.000000 0.500000 0.000000
#
# Coordination Sequence:
#
# PCOD8317333 Si02
#       6
#     8   8   8   8   8   8
#     4   8  21  39  63  85 114 148 192 237 284 350
#     4  11  23  38  55  88 119 160 189 241 294 349
#     4   9  19  35  60  83 117 146 207 239 289 352
#     4  11  24  37  56  83 126 152 196 242 297 348
#     4   9  20  41  64  88 114 147 192 241 290 350
#     4   9  19  37  58  87 109 157 195 251 286 343
#
# _framework density 19.180907000000001
#
# number of rings (size 3 to 8) (size 9 to 14) (size 15 to 20)
#    1.000    1.333    0.000    3.000    2.333    9.333 
#    0.000   10.000    0.000    0.000    0.000    0.000 
#    0.000    0.000    0.000    0.000    0.000    0.000 
#
# Total GULP energy -594683.337940 kJ/mol
# GULP energy per Si atom -12389.236207 kJ/mol
# Density = 1.913725 g / cm^3
# Si number density = 19.180907 Si / 1000 Ang^3
#
#
#
# Elastic Constant Matrix: (Units=GPa)
#
#
# Indices 1 2 3 4 5 6 
#
# 1 99.5143 91.7292 70.8897 0.0000 0.0000 0.0000
# 2 91.7292 99.5143 70.8897 0.0000 0.0000 0.0000
# 3 70.8897 70.8897 122.6127 0.0000 0.0000 0.0000
# 4 0.0000 0.0000 0.0000 18.8253 0.0000 0.0000
# 5 0.0000 0.0000 0.0000 0.0000 18.8253 0.0000
# 6 0.0000 0.0000 0.0000 0.0000 0.0000 37.6133
#
#
#
# Elastic Compliance Matrix: (Units=1/GPa)
#
#
# Indices 1 2 3 4 5 6 
#
# 1 0.068801 -0.059650 -0.005291 0.000000 0.000000 0.000000
# 2 -0.059650 0.068801 -0.005291 0.000000 0.000000 0.000000
# 3 -0.005291 -0.005291 0.014274 0.000000 0.000000 0.000000
# 4 0.000000 0.000000 0.000000 0.053120 0.000000 0.000000
# 5 0.000000 0.000000 0.000000 0.000000 0.053120 0.000000
# 6 0.000000 0.000000 0.000000 0.000000 0.000000 0.026586
#
#
# Mechanical properties :
#
#
# Convention : Reuss Voigt Hill
#
# Bulk Modulus (GPa) = 87.62129 87.62871 87.62500
# Shear Modulus (GPa) = 11.65583 20.92830 16.29207
#
# Velocity S-wave (km/s) = 2.46779 3.30676 2.91759
# Velocity P-wave (km/s) = 7.34171 7.76944 7.55860
#
# Compressibility (1/GPa) = 0.01141275
#
# Stress axis : x y z
#
# Youngs Moduli (GPa) = 14.53466 14.53466 70.05824
#
# Poissons Ratio (x) = 0.86699 0.37068
# Poissons Ratio (y) = 0.86699 0.37068
# Poissons Ratio (z) = 0.07690 0.07690
#
# Static dielectric constant tensor:
#      x y z
#    x 3.530340 0.000000 0.000000 
#    y 0.000000 3.530340 0.000000 
#    z 0.000000 0.000000 3.456650 
# 
# 
# High freq. dielectric constant tensor:
#      x y z
#    x 1.744070 0.000000 0.000000 
#    y 0.000000 1.744070 0.000000 
#    z 0.000000 0.000000 1.740310 
# 
# From -- ./inp_files/11114.got.cif
#   From: 2010.03.12/outbox.cif.g09.slc.cpg/sg134_6_cif.got.tgz:11114.got - 2010.04.06 18:17:22.
