data_PCOD8317179
_publ_section_title
;
Structure prediction by ZEFSAII (Michael W. Deem and Ramdas Pophale) SiO2 
 PCOD8317179
Probable space group: P 42/N N M
;
_chemical_formula_sum "Si O2"
_cell_formula_units_Z 72
_cell_length_a 19.841116
_cell_length_b 19.841116
_cell_length_c 9.432852
_cell_angle_alpha 90.000000
_cell_angle_beta 90.000000
_cell_angle_gamma 90.000000
_cell_volume 3713.429754
_symmetry_space_group_name_H-M "P 42/N N M"
_symmetry_group_IT_number 134
_space_group.IT_coordinate_system_code '2'
_symmetry_cell_setting 'tetragonal'
loop_
_space_group_symop_operation_xyz
x,y,z
1/2-y,x,1/2+z
1/2-x,1/2-y,z
y,1/2-x,1/2+z
x,1/2-y,1/2-z
1/2-x,y,1/2-z
y,x,-z
1/2-y,1/2-x,-z
-x,-y,-z
1/2+y,-x,1/2-z
1/2+x,1/2+y,-z
-y,1/2+x,1/2-z
-x,1/2+y,1/2+z
1/2+x,-y,1/2+z
-y,-x,z
1/2+y,1/2+x,z
loop_
_atom_site_type_symbol
_atom_site_label
_atom_site_fract_x
_atom_site_fract_y
_atom_site_fract_z
Si Si1 0.627658 0.018128 0.211784
Si Si2 0.354968 0.041913 0.485231
Si Si3 0.862497 0.250000 0.750000
Si Si4 0.912932 0.517818 0.803689
Si Si5 0.718235 0.017616 0.955397
O O1 0.587742 0.087742 0.200338
O O2 0.643183 0.003858 0.374959
O O3 0.583161 0.956142 0.150844
O O4 0.695652 0.026585 0.119225
O O5 0.379714 0.120287 0.500000
O O6 0.405503 0.012269 0.366697
O O7 0.277863 0.036687 0.436952
O O8 0.815871 0.184130 0.775556
O O9 0.910011 0.238342 0.612470
O O10 0.840549 0.520034 0.872634
O O11 0.950905 0.450905 0.857112
#
# Coordination Sequence:
#
# PCOD8317179 Si02
#       5
#    16  16   8  16  16
#     4  10  21  35  57  87 115 142 186 248 303 347
#     4  10  21  36  54  81 117 154 190 237 301 357
#     4  11  24  38  56  84 120 161 200 234 282 363
#     4  10  19  35  59  86 112 143 189 245 297 347
#     4  12  21  36  58  83 113 151 194 239 289 348
#
# _framework density 19.389082999999999
#
# number of rings (size 3 to 8) (size 9 to 14) (size 15 to 20)
#    0.000    1.444    2.222    4.000    0.000    5.333 
#    0.000    0.000    0.000    2.667    0.000   15.556 
#    0.000    0.000    0.000    0.000    0.000    0.000 
#
# Total GULP energy -892347.376166 kJ/mol
# GULP energy per Si atom -12393.713558 kJ/mol
# Density = 1.934495 g / cm^3
# Si number density = 19.389083 Si / 1000 Ang^3
#
#
#
# Elastic Constant Matrix: (Units=GPa)
#
#
# Indices 1 2 3 4 5 6 
#
# 1 103.2163 64.6512 24.8418 0.0000 0.0000 0.0000
# 2 64.6512 103.2163 24.8419 0.0000 0.0000 0.0000
# 3 24.8418 24.8419 84.4660 0.0000 0.0000 0.0000
# 4 0.0000 0.0000 0.0000 33.4969 0.0000 0.0000
# 5 0.0000 0.0000 0.0000 0.0000 33.4976 0.0000
# 6 0.0000 0.0000 0.0000 0.0000 0.0000 27.6588
#
#
#
# Elastic Compliance Matrix: (Units=1/GPa)
#
#
# Indices 1 2 3 4 5 6 
#
# 1 0.016228 -0.009703 -0.001919 0.000000 0.000000 0.000000
# 2 -0.009703 0.016228 -0.001919 0.000000 0.000000 0.000000
# 3 -0.001919 -0.001919 0.012968 0.000000 0.000000 0.000000
# 4 0.000000 0.000000 0.000000 0.029854 0.000000 0.000000
# 5 0.000000 0.000000 0.000000 0.000000 0.029853 0.000000
# 6 0.000000 0.000000 0.000000 0.000000 0.000000 0.036155
#
#
# Mechanical properties :
#
#
# Convention : Reuss Voigt Hill
#
# Bulk Modulus (GPa) = 54.52028 57.72983 56.12506
# Shear Modulus (GPa) = 28.65664 30.70156 29.67910
#
# Velocity S-wave (km/s) = 3.84862 3.98357 3.91668
# Velocity P-wave (km/s) = 6.92310 7.14125 7.03302
#
# Compressibility (1/GPa) = 0.01834180
#
# Stress axis : x y z
#
# Youngs Moduli (GPa) = 61.62344 61.62338 77.11358
#
# Poissons Ratio (x) = 0.59790 0.14798
# Poissons Ratio (y) = 0.59790 0.14799
# Poissons Ratio (z) = 0.11826 0.11826
#
# Static dielectric constant tensor:
#      x y z
#    x 3.567740 0.000000 0.000000 
#    y 0.000000 3.567750 0.000000 
#    z 0.000000 0.000000 3.834990 
# 
# 
# High freq. dielectric constant tensor:
#      x y z
#    x 1.742480 0.000000 0.000000 
#    y 0.000000 1.742480 0.000000 
#    z 0.000000 0.000000 1.776560 
# 
# From -- ./inp_files/2926.got.cif
#   From: 2010.03.12/outbox.cif.g09.slc.cpg/sg134_2_cif.got.tgz:2926.got - 2010.04.06 18:17:22.
