data_PCOD8317468
_publ_section_title
;
Structure prediction by ZEFSAII (Michael W. Deem and Ramdas Pophale) SiO2 
 PCOD8317468
Probable space group: P 42/M B C
;
_chemical_formula_sum "Si O2"
_cell_formula_units_Z 80
_cell_length_a 22.553674
_cell_length_b 22.553674
_cell_length_c 10.100732
_cell_angle_alpha 90.000000
_cell_angle_beta 90.000000
_cell_angle_gamma 90.000000
_cell_volume 5137.921275
_symmetry_space_group_name_H-M "P 42/M B C"
_symmetry_group_IT_number 135
_symmetry_cell_setting 'tetragonal'
loop_
_space_group_symop_operation_xyz
x,y,z
-y,x,1/2+z
-x,-y,z
y,-x,1/2+z
1/2+x,1/2-y,-z
1/2-x,1/2+y,-z
1/2+y,1/2+x,1/2-z
1/2-y,1/2-x,1/2-z
-x,-y,-z
y,-x,1/2-z
x,y,-z
-y,x,1/2-z
1/2-x,1/2+y,z
1/2+x,1/2-y,z
1/2-y,1/2-x,1/2+z
1/2+y,1/2+x,1/2+z
loop_
_atom_site_type_symbol
_atom_site_label
_atom_site_fract_x
_atom_site_fract_y
_atom_site_fract_z
Si Si1 0.765076 0.360307 0.000000
Si Si2 0.737065 0.867543 0.500000
Si Si3 0.213977 0.185652 0.254633
Si Si4 0.636878 0.216998 0.343073
Si Si5 0.962035 0.637092 0.733330
Si Si6 0.631600 0.949218 0.000000
Si Si7 0.349630 0.031765 0.500000
O O1 0.719665 0.353070 0.877861
O O2 0.815884 0.311401 0.000000
O O3 0.801337 0.422274 0.000000
O O4 0.776757 0.861284 0.370587
O O5 0.711861 0.933342 0.500000
O O6 0.262925 0.237075 0.250000
O O7 0.150412 0.217332 0.283664
O O8 0.672070 0.172070 0.250000
O O9 0.654969 0.213448 0.500000
O O10 0.568854 0.197099 0.323843
O O11 0.917433 0.582568 0.750000
O O12 0.013084 0.619976 0.631061
O O13 0.989715 0.649484 0.874535
O O14 0.580312 0.900833 0.000000
#
# Coordination Sequence:
#
# PCOD8317468 Si02
#       7
#     8   8  16  16  16   8   8
#     4   9  18  28  46  69  88 115 142 190 240 291
#     4   9  16  30  44  65  88 109 144 186 236 287
#     4   9  16  27  47  68  89 106 136 181 238 297
#     4  10  20  32  49  67  88 114 148 194 243 291
#     4  11  23  35  48  64  90 125 171 213 244 272
#     4  11  21  37  49  64  94 125 171 211 249 276
#     4  11  23  33  49  66  86 125 167 211 243 272
#
# _framework density 15.570499999999999
#
# number of rings (size 3 to 8) (size 9 to 14) (size 15 to 20)
#    0.000    2.000    2.000    2.400    8.400    5.600 
#    0.000    0.000    0.000    0.000    0.000    0.000 
#    0.000    0.000    0.000    0.000    0.000   70.000 
#
# Total GULP energy -991250.903502 kJ/mol
# GULP energy per Si atom -12390.636294 kJ/mol
# Density = 1.553506 g / cm^3
# Si number density = 15.570500 Si / 1000 Ang^3
#
#
#
# Elastic Constant Matrix: (Units=GPa)
#
#
# Indices 1 2 3 4 5 6 
#
# 1 47.2437 47.3352 34.0837 0.0000 0.0000 0.0000
# 2 47.3352 47.2427 34.0832 0.0000 0.0000 0.0000
# 3 34.0837 34.0832 139.9654 0.0000 0.0000 0.0000
# 4 0.0000 0.0000 0.0000 23.2580 0.0000 0.0000
# 5 0.0000 0.0000 0.0000 0.0000 23.2587 0.0000
# 6 0.0000 0.0000 0.0000 0.0000 0.0000 28.8615
#
#
#
# Elastic Compliance Matrix: (Units=1/GPa)
#
#
# Indices 1 2 3 4 5 6 
#
# 1 -5.429815 5.442693 -0.003117 0.000000 0.000000 0.000000
# 2 5.442693 -5.429924 -0.003128 0.000000 0.000000 0.000000
# 3 -0.003117 -0.003128 0.008666 0.000000 0.000000 0.000000
# 4 0.000000 0.000000 0.000000 0.042996 0.000000 0.000000
# 5 0.000000 0.000000 0.000000 0.000000 0.042995 0.000000
# 6 0.000000 0.000000 0.000000 0.000000 0.000000 0.034648
#
#
# Mechanical properties :
#
#
# Convention : Reuss Voigt Hill
#
# Bulk Modulus (GPa) = 45.82482 51.71734 48.77108
# Shear Modulus (GPa) = -0.23152 23.00563 11.38705
#
# Velocity S-wave (km/s) = -0.38603 3.84801 2.70723
# Velocity P-wave (km/s) = 5.41255 7.28217 6.41583
#
# Compressibility (1/GPa) = 0.02182224
#
# Stress axis : x y z
#
# Youngs Moduli (GPa) = -0.18417 -0.18416 115.39995
#
# Poissons Ratio (x) = 1.00235 0.35975
# Poissons Ratio (y) = 1.00237 0.36100
# Poissons Ratio (z) = -0.00057 -0.00058
#
# Static dielectric constant tensor:
#      x y z
#    x 2.997300 0.000000 0.000000 
#    y 0.000000 2.997290 0.000000 
#    z 0.000000 0.000000 3.234040 
# 
# 
# High freq. dielectric constant tensor:
#      x y z
#    x 1.565120 0.000000 0.000000 
#    y 0.000000 1.565120 0.000000 
#    z 0.000000 0.000000 1.625660 
# 
# From -- ./inp_files/1187.got.cif
#   From: 2010.03.12/outbox.cif.g09.slc.cpg/sg135_1_cif.got.tgz:1187.got - 2010.04.06 18:31:24.
