data_PCOD8317136
_publ_section_title
;
Structure prediction by ZEFSAII (Michael W. Deem and Ramdas Pophale) SiO2 
 PCOD8317136
Probable space group: P 42/N N M
;
_chemical_formula_sum "Si O2"
_cell_formula_units_Z 56
_cell_length_a 15.872412
_cell_length_b 15.872412
_cell_length_c 11.984533
_cell_angle_alpha 90.000000
_cell_angle_beta 90.000000
_cell_angle_gamma 90.000000
_cell_volume 3019.304898
_symmetry_space_group_name_H-M "P 42/N N M"
_symmetry_group_IT_number 134
_space_group.IT_coordinate_system_code '2'
_symmetry_cell_setting 'tetragonal'
loop_
_space_group_symop_operation_xyz
x,y,z
1/2-y,x,1/2+z
1/2-x,1/2-y,z
y,1/2-x,1/2+z
x,1/2-y,1/2-z
1/2-x,y,1/2-z
y,x,-z
1/2-y,1/2-x,-z
-x,-y,-z
1/2+y,-x,1/2-z
1/2+x,1/2+y,-z
-y,1/2+x,1/2-z
-x,1/2+y,1/2+z
1/2+x,-y,1/2+z
-y,-x,z
1/2+y,1/2+x,z
loop_
_atom_site_type_symbol
_atom_site_label
_atom_site_fract_x
_atom_site_fract_y
_atom_site_fract_z
Si Si1 0.883900 0.247484 0.452247
Si Si2 0.046807 0.821751 0.165498
Si Si3 0.048706 0.413097 0.377680
Si Si4 0.750000 0.006847 0.250000
O O1 0.829667 0.170334 0.504331
O O2 0.821766 0.321766 0.412024
O O3 0.951823 0.284097 0.539980
O O4 0.934719 0.211272 0.346762
O O5 0.024985 0.750000 0.250000
O O6 0.139019 0.860982 0.188944
O O7 0.976405 0.891469 0.188957
O O8 0.092505 0.407496 0.500000
O O9 0.047179 0.325130 0.308829
O O10 0.954264 0.454264 0.388735
#
# Coordination Sequence:
#
# PCOD8317136 Si02
#       4
#    16  16  16   8
#     4  10  19  30  51  85 118 147 187 245 305 358
#     4  10  20  36  57  81 115 154 196 241 298 367
#     4  10  20  37  59  84 116 158 198 242 302 360
#     4  12  20  33  57  84 118 156 198 242 292 355
#
# _framework density 18.547315000000001
#
# number of rings (size 3 to 8) (size 9 to 14) (size 15 to 20)
#    0.000    1.714    2.857    3.429    0.000    2.571 
#    0.000    2.143    0.000    6.857    0.000    0.000 
#    0.000    0.000    0.000    0.000    0.000    0.000 
#
# Total GULP energy -693921.669615 kJ/mol
# GULP energy per Si atom -12391.458386 kJ/mol
# Density = 1.850510 g / cm^3
# Si number density = 18.547315 Si / 1000 Ang^3
#
#
#
# Elastic Constant Matrix: (Units=GPa)
#
#
# Indices 1 2 3 4 5 6 
#
# 1 94.4582 41.4466 45.9462 0.0000 0.0000 0.0000
# 2 41.4466 94.4585 45.9464 0.0000 0.0000 0.0000
# 3 45.9462 45.9464 95.1873 0.0000 0.0000 0.0000
# 4 0.0000 0.0000 0.0000 236.5293 0.0000 0.0000
# 5 0.0000 0.0000 0.0000 0.0000 236.5636 0.0000
# 6 0.0000 0.0000 0.0000 0.0000 0.0000 18.0761
#
#
#
# Elastic Compliance Matrix: (Units=1/GPa)
#
#
# Indices 1 2 3 4 5 6 
#
# 1 0.014893 -0.003970 -0.005273 0.000000 0.000000 0.000000
# 2 -0.003970 0.014893 -0.005273 0.000000 0.000000 0.000000
# 3 -0.005273 -0.005273 0.015596 0.000000 0.000000 0.000000
# 4 0.000000 0.000000 0.000000 0.004228 0.000000 0.000000
# 5 0.000000 0.000000 0.000000 0.000000 0.004227 0.000000
# 6 0.000000 0.000000 0.000000 0.000000 0.000000 0.055322
#
#
# Mechanical properties :
#
#
# Convention : Reuss Voigt Hill
#
# Bulk Modulus (GPa) = 61.15541 61.19805 61.17673
# Shear Modulus (GPa) = 34.80911 108.28479 71.54695
#
# Velocity S-wave (km/s) = 4.33687 7.64917 6.21765
# Velocity P-wave (km/s) = 7.62379 10.53946 9.19789
#
# Compressibility (1/GPa) = 0.01635178
#
# Stress axis : x y z
#
# Youngs Moduli (GPa) = 67.14362 67.14379 64.12057
#
# Poissons Ratio (x) = 0.26658 0.33808
# Poissons Ratio (y) = 0.26658 0.33808
# Poissons Ratio (z) = 0.35402 0.35402
#
# Static dielectric constant tensor:
#      x y z
#    x 3.293900 0.000000 0.000000 
#    y 0.000000 3.293890 0.000000 
#    z 0.000000 0.000000 3.458150 
# 
# 
# High freq. dielectric constant tensor:
#      x y z
#    x 1.703600 0.000000 0.000000 
#    y 0.000000 1.703600 0.000000 
#    z 0.000000 0.000000 1.716380 
# 
# From -- ./inp_files/4337.got.cif
#   From: 2010.03.12/outbox.cif.g09.slc.cpg/sg134_3_cif.got.tgz:4337.got - 2010.04.06 18:17:22.
