data_PCOD8317271
_publ_section_title
;
Structure prediction by ZEFSAII (Michael W. Deem and Ramdas Pophale) SiO2 
 PCOD8317271
Probable space group: P 42/N N M
;
_chemical_formula_sum "Si O2"
_cell_formula_units_Z 112
_cell_length_a 13.542150
_cell_length_b 13.542150
_cell_length_c 31.063048
_cell_angle_alpha 90.000000
_cell_angle_beta 90.000000
_cell_angle_gamma 90.000000
_cell_volume 5696.646987
_symmetry_space_group_name_H-M "P 42/N N M"
_symmetry_group_IT_number 134
_space_group.IT_coordinate_system_code '2'
_symmetry_cell_setting 'tetragonal'
loop_
_space_group_symop_operation_xyz
x,y,z
1/2-y,x,1/2+z
1/2-x,1/2-y,z
y,1/2-x,1/2+z
x,1/2-y,1/2-z
1/2-x,y,1/2-z
y,x,-z
1/2-y,1/2-x,-z
-x,-y,-z
1/2+y,-x,1/2-z
1/2+x,1/2+y,-z
-y,1/2+x,1/2-z
-x,1/2+y,1/2+z
1/2+x,-y,1/2+z
-y,-x,z
1/2+y,1/2+x,z
loop_
_atom_site_type_symbol
_atom_site_label
_atom_site_fract_x
_atom_site_fract_y
_atom_site_fract_z
Si Si1 0.140154 0.485542 0.833070
Si Si2 0.516720 0.862118 0.334617
Si Si3 0.997044 0.655533 0.121325
Si Si4 0.152542 0.487448 0.023615
Si Si5 0.502077 0.655984 0.879573
Si Si6 0.846862 0.512127 0.476887
Si Si7 0.366879 0.138913 0.749253
O O1 0.087854 0.423903 0.870193
O O2 0.255711 0.490698 0.844509
O O3 0.107209 0.430939 0.789119
O O4 0.096791 0.596791 0.831211
O O5 0.509599 0.745955 0.344785
O O6 0.581754 0.899476 0.293933
O O7 0.405927 0.905927 0.329993
O O8 0.573893 0.913633 0.373488
O O9 0.972312 0.686691 0.072813
O O10 0.105155 0.605155 0.126127
O O11 0.071156 0.571156 0.020200
O O12 0.111636 0.388365 0.000000
O O13 0.250398 0.525803 0.000885
O O14 0.393681 0.606320 0.874854
O O15 0.525582 0.690349 0.927909
O O16 0.928752 0.428752 0.479654
O O17 0.888413 0.611588 0.500000
O O18 0.409547 0.250000 0.750000
O O19 0.250000 0.141633 0.750000
#
# Coordination Sequence:
#
# PCOD8317271 Si02
#       7
#    16  16  16  16  16  16  16
#     4  11  22  39  62  86 119 158 195 242 296 352
#     4  11  22  39  62  86 119 158 195 242 296 352
#     4  10  22  38  59  88 119 154 200 248 297 353
#     4  10  21  38  58  84 119 157 199 247 298 354
#     4  10  22  38  59  88 119 154 200 248 297 353
#     4  10  21  38  58  84 119 157 199 247 298 354
#     4  11  21  38  62  90 119 151 190 242 290 350
#
# _framework density 19.660689000000001
#
# number of rings (size 3 to 8) (size 9 to 14) (size 15 to 20)
#    0.000    1.571    2.857    2.143    0.000    5.143 
#    0.000    5.714    0.000    0.000    0.000    0.000 
#    0.000    0.000    0.000    0.000    0.000    0.000 
#
# Total GULP energy -1387939.132126 kJ/mol
# GULP energy per Si atom -12392.313680 kJ/mol
# Density = 1.961594 g / cm^3
# Si number density = 19.660689 Si / 1000 Ang^3
#
#
#
# Elastic Constant Matrix: (Units=GPa)
#
#
# Indices 1 2 3 4 5 6 
#
# 1 78.7486 21.7055 30.6091 0.0000 0.0000 0.0000
# 2 21.7055 78.7486 30.6092 0.0000 0.0000 0.0000
# 3 30.6091 30.6092 119.7315 0.0000 0.0000 0.0000
# 4 0.0000 0.0000 0.0000 26.5958 0.0000 0.0000
# 5 0.0000 0.0000 0.0000 0.0000 26.5958 0.0000
# 6 0.0000 0.0000 0.0000 0.0000 0.0000 15.1282
#
#
#
# Elastic Compliance Matrix: (Units=1/GPa)
#
#
# Indices 1 2 3 4 5 6 
#
# 1 0.014661 -0.002869 -0.003015 0.000000 0.000000 0.000000
# 2 -0.002869 0.014661 -0.003015 0.000000 0.000000 0.000000
# 3 -0.003015 -0.003015 0.009893 0.000000 0.000000 0.000000
# 4 0.000000 0.000000 0.000000 0.037600 0.000000 0.000000
# 5 0.000000 0.000000 0.000000 0.000000 0.037600 0.000000
# 6 0.000000 0.000000 0.000000 0.000000 0.000000 0.066102
#
#
# Mechanical properties :
#
#
# Convention : Reuss Voigt Hill
#
# Bulk Modulus (GPa) = 46.68778 49.23070 47.95924
# Shear Modulus (GPa) = 24.33632 26.61761 25.47696
#
# Velocity S-wave (km/s) = 3.52208 3.68346 3.60367
# Velocity P-wave (km/s) = 6.35125 6.57153 6.46233
#
# Compressibility (1/GPa) = 0.02141888
#
# Stress axis : x y z
#
# Youngs Moduli (GPa) = 68.20697 68.20689 101.07783
#
# Poissons Ratio (x) = 0.19571 0.30471
# Poissons Ratio (y) = 0.19571 0.30471
# Poissons Ratio (z) = 0.20562 0.20562
#
# Static dielectric constant tensor:
#      x y z
#    x 3.473330 0.000000 0.000000 
#    y 0.000000 3.473330 0.000000 
#    z 0.000000 0.000000 3.773900 
# 
# 
# High freq. dielectric constant tensor:
#      x y z
#    x 1.759240 0.000000 0.000000 
#    y 0.000000 1.759240 0.000000 
#    z 0.000000 0.000000 1.780750 
# 
# From -- ./inp_files/10866.got.cif
#   From: 2010.03.12/outbox.cif.g09.slc.cpg/sg134_6_cif.got.tgz:10866.got - 2010.04.06 18:17:22.
