data_PCOD8317109
_publ_section_title
;
Structure prediction by ZEFSAII (Michael W. Deem and Ramdas Pophale) SiO2 
 PCOD8317109
Probable space group: P 42/N N M
;
_chemical_formula_sum "Si O2"
_cell_formula_units_Z 96
_cell_length_a 21.675625
_cell_length_b 21.675625
_cell_length_c 9.674363
_cell_angle_alpha 90.000000
_cell_angle_beta 90.000000
_cell_angle_gamma 90.000000
_cell_volume 4545.332274
_symmetry_space_group_name_H-M "P 42/N N M"
_symmetry_group_IT_number 134
_space_group.IT_coordinate_system_code '2'
_symmetry_cell_setting 'tetragonal'
loop_
_space_group_symop_operation_xyz
x,y,z
1/2-y,x,1/2+z
1/2-x,1/2-y,z
y,1/2-x,1/2+z
x,1/2-y,1/2-z
1/2-x,y,1/2-z
y,x,-z
1/2-y,1/2-x,-z
-x,-y,-z
1/2+y,-x,1/2-z
1/2+x,1/2+y,-z
-y,1/2+x,1/2-z
-x,1/2+y,1/2+z
1/2+x,-y,1/2+z
-y,-x,z
1/2+y,1/2+x,z
loop_
_atom_site_type_symbol
_atom_site_label
_atom_site_fract_x
_atom_site_fract_y
_atom_site_fract_z
Si Si1 0.579036 0.825538 0.476105
Si Si2 0.971981 0.622513 0.735999
Si Si3 0.408489 0.811422 0.159483
Si Si4 0.377101 0.028895 0.205984
Si Si5 0.185143 0.095459 0.537146
Si Si6 0.188107 0.589743 0.839642
O O1 0.646919 0.853082 0.500000
O O2 0.529888 0.862177 0.572764
O O3 0.559229 0.831704 0.318231
O O4 0.580658 0.754920 0.512740
O O5 0.948077 0.551519 0.762699
O O6 0.921213 0.668269 0.805196
O O7 0.039647 0.636583 0.794551
O O8 0.415297 0.750000 0.250000
O O9 0.340199 0.840199 0.177992
O O10 0.455615 0.865279 0.208869
O O11 0.420486 0.793666 0.999449
O O12 0.357892 0.051459 0.055148
O O13 0.166436 0.166436 0.500000
O O14 0.250000 0.584328 0.750000
O O15 0.156689 0.656689 0.818139
#
# Coordination Sequence:
#
# PCOD8317109 Si02
#       6
#    16  16  16  16  16  16
#     4  10  20  33  51  79 120 164 206 256 309 364
#     4  10  21  37  59  90 122 159 206 255 309 369
#     4  11  25  44  68  96 127 166 208 257 315 373
#     4  10  21  37  59  90 122 159 206 255 309 369
#     4  10  18  31  53  79 114 158 206 258 309 364
#     4  11  25  44  68  96 127 166 208 257 315 373
#
# _framework density 21.120567999999999
#
# number of rings (size 3 to 8) (size 9 to 14) (size 15 to 20)
#    0.000    1.667    1.667    3.000    2.333    2.000 
#    0.000    3.333    0.000    9.000    0.000    0.000 
#    0.000    0.000    0.000    0.000    0.000    0.000 
#
# Total GULP energy -1189796.036548 kJ/mol
# GULP energy per Si atom -12393.708714 kJ/mol
# Density = 2.107250 g / cm^3
# Si number density = 21.120568 Si / 1000 Ang^3
#
#
#
# Elastic Constant Matrix: (Units=GPa)
#
#
# Indices 1 2 3 4 5 6 
#
# 1 68.7384 67.4124 32.3053 0.0000 0.0000 0.0000
# 2 67.4124 68.7417 32.3109 0.0000 0.0000 0.0000
# 3 32.3053 32.3109 81.8602 0.0000 0.0000 0.0000
# 4 0.0000 0.0000 0.0000 25.6374 0.0000 0.0000
# 5 0.0000 0.0000 0.0000 0.0000 25.6368 0.0000
# 6 0.0000 0.0000 0.0000 0.0000 0.0000 23.4958
#
#
#
# Elastic Compliance Matrix: (Units=1/GPa)
#
#
# Indices 1 2 3 4 5 6 
#
# 1 0.381107 -0.372073 -0.003540 0.000000 0.000000 0.000000
# 2 -0.372073 0.381115 -0.003594 0.000000 0.000000 0.000000
# 3 -0.003540 -0.003594 0.015031 0.000000 0.000000 0.000000
# 4 0.000000 0.000000 0.000000 0.039005 0.000000 0.000000
# 5 0.000000 0.000000 0.000000 0.000000 0.039006 0.000000
# 6 0.000000 0.000000 0.000000 0.000000 0.000000 0.042561
#
#
# Mechanical properties :
#
#
# Convention : Reuss Voigt Hill
#
# Bulk Modulus (GPa) = 53.08145 53.71084 53.39614
# Shear Modulus (GPa) = 3.00748 20.77478 11.89113
#
# Velocity S-wave (km/s) = 1.19459 3.13969 2.37536
# Velocity P-wave (km/s) = 5.20479 6.21525 5.73233
#
# Compressibility (1/GPa) = 0.01883897
#
# Stress axis : x y z
#
# Youngs Moduli (GPa) = 2.62394 2.62388 66.52715
#
# Poissons Ratio (x) = 0.97628 0.23549
# Poissons Ratio (y) = 0.97630 0.23910
# Poissons Ratio (z) = 0.00929 0.00943
#
# Static dielectric constant tensor:
#      x y z
#    x 3.667640 0.000000 0.000000 
#    y 0.000000 3.667640 0.000000 
#    z 0.000000 0.000000 4.044420 
# 
# 
# High freq. dielectric constant tensor:
#      x y z
#    x 1.811950 0.000000 0.000000 
#    y 0.000000 1.811940 0.000000 
#    z 0.000000 0.000000 1.845500 
# 
# From -- ./inp_files/3207.got.cif
#   From: 2010.03.12/outbox.cif.g09.slc.cpg/sg134_2_cif.got.tgz:3207.got - 2010.04.06 18:17:22.
