data_PCOD8317454
_publ_section_title
;
Structure prediction by ZEFSAII (Michael W. Deem and Ramdas Pophale) SiO2 
 PCOD8317454
Probable space group: P 42/M B C
;
_chemical_formula_sum "Si O2"
_cell_formula_units_Z 88
_cell_length_a 14.173494
_cell_length_b 14.173494
_cell_length_c 21.660426
_cell_angle_alpha 90.000000
_cell_angle_beta 90.000000
_cell_angle_gamma 90.000000
_cell_volume 4351.318189
_symmetry_space_group_name_H-M "P 42/M B C"
_symmetry_group_IT_number 135
_symmetry_cell_setting 'tetragonal'
loop_
_space_group_symop_operation_xyz
x,y,z
-y,x,1/2+z
-x,-y,z
y,-x,1/2+z
1/2+x,1/2-y,-z
1/2-x,1/2+y,-z
1/2+y,1/2+x,1/2-z
1/2-y,1/2-x,1/2-z
-x,-y,-z
y,-x,1/2-z
x,y,-z
-y,x,1/2-z
1/2-x,1/2+y,z
1/2+x,1/2-y,z
1/2-y,1/2-x,1/2+z
1/2+y,1/2+x,1/2+z
loop_
_atom_site_type_symbol
_atom_site_label
_atom_site_fract_x
_atom_site_fract_y
_atom_site_fract_z
Si Si1 0.548384 0.092263 0.930135
Si Si2 0.295416 0.795416 0.750000
Si Si3 0.678260 0.732771 0.428328
Si Si4 0.854540 0.182799 0.853364
Si Si5 0.259221 0.462665 0.931045
Si Si6 0.757338 0.058983 0.349197
O O1 0.661641 0.094197 0.924942
O O2 0.509945 0.176594 0.889488
O O3 0.500000 0.000000 0.902067
O O4 0.513517 0.106046 0.000000
O O5 0.202258 0.794081 0.791474
O O6 0.289560 0.892607 0.711045
O O7 0.702111 0.711932 0.500000
O O8 0.743145 0.818946 0.405267
O O9 0.571141 0.765213 0.418641
O O10 0.687852 0.636601 0.389260
O O11 0.831360 0.078646 0.880446
O O12 0.965726 0.180339 0.835191
O O13 0.301635 0.450367 0.000000
#
# Coordination Sequence:
#
# PCOD8317454 Si02
#       6
#    16   8  16  16  16  16
#     4  10  19  35  61  93 123 153 195 250 313 375
#     4  10  24  44  59  83 120 160 220 264 296 354
#     4  10  21  38  63  95 129 161 196 246 314 387
#     4  11  23  41  64  86 121 165 209 260 313 362
#     4  10  20  36  61  93 129 159 194 250 312 379
#     4  11  23  41  62  88 120 164 208 259 308 367
#
# _framework density 20.223758
#
# number of rings (size 3 to 8) (size 9 to 14) (size 15 to 20)
#    0.000    1.636    3.636    2.182    0.000    8.000 
#    3.273    1.818    0.000    0.000    0.000    0.000 
#    0.000    0.000    0.000    0.000    0.000    0.000 
#
# Total GULP energy -1090985.249785 kJ/mol
# GULP energy per Si atom -12397.559657 kJ/mol
# Density = 2.017773 g / cm^3
# Si number density = 20.223758 Si / 1000 Ang^3
#
#
#
# Elastic Constant Matrix: (Units=GPa)
#
#
# Indices 1 2 3 4 5 6 
#
# 1 78.1946 -5.9803 24.2990 0.0000 0.0000 0.0000
# 2 -5.9803 78.1946 24.2990 0.0000 0.0000 0.0000
# 3 24.2990 24.2990 90.0719 0.0000 0.0000 0.0000
# 4 0.0000 0.0000 0.0000 22.8160 0.0000 0.0000
# 5 0.0000 0.0000 0.0000 0.0000 22.8160 0.0000
# 6 0.0000 0.0000 0.0000 0.0000 0.0000 33.5896
#
#
#
# Elastic Compliance Matrix: (Units=1/GPa)
#
#
# Indices 1 2 3 4 5 6 
#
# 1 0.014400 0.002520 -0.004564 0.000000 0.000000 0.000000
# 2 0.002520 0.014400 -0.004564 0.000000 0.000000 0.000000
# 3 -0.004564 -0.004564 0.013565 0.000000 0.000000 0.000000
# 4 0.000000 0.000000 0.000000 0.043829 0.000000 0.000000
# 5 0.000000 0.000000 0.000000 0.000000 0.043829 0.000000
# 6 0.000000 0.000000 0.000000 0.000000 0.000000 0.029771
#
#
# Mechanical properties :
#
#
# Convention : Reuss Voigt Hill
#
# Bulk Modulus (GPa) = 34.30991 36.85519 35.58255
# Shear Modulus (GPa) = 27.36323 29.43387 28.39855
#
# Velocity S-wave (km/s) = 3.68234 3.81912 3.75135
# Velocity P-wave (km/s) = 5.92296 6.14092 6.03292
#
# Compressibility (1/GPa) = 0.02914609
#
# Stress axis : x y z
#
# Youngs Moduli (GPa) = 69.44587 69.44587 73.71938
#
# Poissons Ratio (x) = -0.17498 0.33649
# Poissons Ratio (y) = -0.17498 0.33649
# Poissons Ratio (z) = 0.31698 0.31698
#
# Static dielectric constant tensor:
#      x y z
#    x 3.578090 0.000000 0.000000 
#    y 0.000000 3.578090 0.000000 
#    z 0.000000 0.000000 3.722340 
# 
# 
# High freq. dielectric constant tensor:
#      x y z
#    x 1.786280 0.000000 0.000000 
#    y 0.000000 1.786280 0.000000 
#    z 0.000000 0.000000 1.785040 
# 
# From -- ./inp_files/5312.got.cif
#   From: 2010.03.12/outbox.cif.g09.slc.cpg/sg135_3_cif.got.tgz:5312.got - 2010.04.06 18:31:24.
