data_PCOD8317022
_publ_section_title
;
Structure prediction by ZEFSAII (Michael W. Deem and Ramdas Pophale) SiO2 
 PCOD8317022
Probable space group: P 42/N B C
;
_chemical_formula_sum "Si O2"
_cell_formula_units_Z 48
_cell_length_a 13.056461
_cell_length_b 13.056461
_cell_length_c 13.887761
_cell_angle_alpha 90.000000
_cell_angle_beta 90.000000
_cell_angle_gamma 90.000000
_cell_volume 2367.462920
_symmetry_space_group_name_H-M "P 42/N B C"
_symmetry_group_IT_number 133
_space_group.IT_coordinate_system_code '2'
_symmetry_cell_setting 'tetragonal'
loop_
_space_group_symop_operation_xyz
x,y,z
1/2-y,x,1/2+z
1/2-x,1/2-y,z
y,1/2-x,1/2+z
x,1/2-y,-z
1/2-x,y,-z
y,x,1/2-z
1/2-y,1/2-x,1/2-z
-x,-y,-z
1/2+y,-x,1/2-z
1/2+x,1/2+y,-z
-y,1/2+x,1/2-z
-x,1/2+y,z
1/2+x,-y,z
-y,-x,1/2+z
1/2+y,1/2+x,1/2+z
loop_
_atom_site_type_symbol
_atom_site_label
_atom_site_fract_x
_atom_site_fract_y
_atom_site_fract_z
Si Si1 0.479866 0.414508 0.146865
Si Si2 0.990995 0.635625 0.526992
Si Si3 0.294607 0.140464 0.351962
O O1 0.467487 0.467487 0.250000
O O2 0.595906 0.423463 0.104394
O O3 0.442727 0.296767 0.150499
O O4 0.420151 0.491121 0.075473
O O5 0.018483 0.750000 0.500000
O O6 0.876827 0.614157 0.567343
O O7 0.250000 0.250000 0.379757
O O8 0.352579 0.147422 0.250000
#
# Coordination Sequence:
#
# PCOD8317022 Si02
#       3
#    16  16  16
#     4  11  22  35  57  93 126 166 217 268 323 380
#     4  11  22  36  59  90 124 165 212 271 325 388
#     4  11  19  36  64  91 127 168 220 263 318 389
#
# _framework density 20.274868999999999
#
# number of rings (size 3 to 8) (size 9 to 14) (size 15 to 20)
#    0.000    1.000    6.667    2.000    0.000    0.000 
#    0.000    0.000    0.000   16.000    0.000   14.000 
#    0.000    0.000    0.000    0.000    0.000    0.000 
#
# Total GULP energy -594853.097386 kJ/mol
# GULP energy per Si atom -12392.772862 kJ/mol
# Density = 2.022872 g / cm^3
# Si number density = 20.274869 Si / 1000 Ang^3
#
#
#
# Elastic Constant Matrix: (Units=GPa)
#
#
# Indices 1 2 3 4 5 6 
#
# 1 96.0012 66.8692 52.3709 0.0000 0.0000 0.0000
# 2 66.8692 96.0021 52.3710 0.0000 0.0000 0.0000
# 3 52.3709 52.3710 160.9543 0.0000 0.0000 0.0000
# 4 0.0000 0.0000 0.0000 31.6123 0.0000 0.0000
# 5 0.0000 0.0000 0.0000 0.0000 31.6131 0.0000
# 6 0.0000 0.0000 0.0000 0.0000 0.0000 24.9025
#
#
#
# Elastic Compliance Matrix: (Units=1/GPa)
#
#
# Indices 1 2 3 4 5 6 
#
# 1 0.021045 -0.013281 -0.002526 0.000000 0.000000 0.000000
# 2 -0.013281 0.021045 -0.002526 0.000000 0.000000 0.000000
# 3 -0.002526 -0.002526 0.007857 0.000000 0.000000 0.000000
# 4 0.000000 0.000000 0.000000 0.031633 0.000000 0.000000
# 5 0.000000 0.000000 0.000000 0.000000 0.031632 0.000000
# 6 0.000000 0.000000 0.000000 0.000000 0.000000 0.040157
#
#
# Mechanical properties :
#
#
# Convention : Reuss Voigt Hill
#
# Bulk Modulus (GPa) = 75.29842 77.35331 76.32587
# Shear Modulus (GPa) = 25.71173 29.71534 27.71353
#
# Velocity S-wave (km/s) = 3.56498 3.83250 3.70116
# Velocity P-wave (km/s) = 7.35968 7.60389 7.48278
#
# Compressibility (1/GPa) = 0.01328049
#
# Stress axis : x y z
#
# Youngs Moduli (GPa) = 47.51636 47.51685 127.27461
#
# Poissons Ratio (x) = 0.63106 0.32155
# Poissons Ratio (y) = 0.63105 0.32155
# Poissons Ratio (z) = 0.12005 0.12005
#
# Static dielectric constant tensor:
#      x y z
#    x 3.806610 0.000000 0.000000 
#    y 0.000000 3.806610 0.000000 
#    z 0.000000 0.000000 4.047500 
# 
# 
# High freq. dielectric constant tensor:
#      x y z
#    x 1.771690 0.000000 0.000000 
#    y 0.000000 1.771690 0.000000 
#    z 0.000000 0.000000 1.822880 
# 
# From -- ./inp_files/3860.got.cif
#   From: 2010.03.12/outbox.cif.g09.slc.cpg/sg133_2_cif.got.tgz:3860.got - 2010.04.06 18:08:06.
