data_PCOD8317543
_publ_section_title
;
Structure prediction by ZEFSAII (Michael W. Deem and Ramdas Pophale) SiO2 
 PCOD8317543
Probable space group: P 42/M B C
;
_chemical_formula_sum "Si O2"
_cell_formula_units_Z 96
_cell_length_a 23.786544
_cell_length_b 23.786544
_cell_length_c 8.653043
_cell_angle_alpha 90.000000
_cell_angle_beta 90.000000
_cell_angle_gamma 90.000000
_cell_volume 4895.888921
_symmetry_space_group_name_H-M "P 42/M B C"
_symmetry_group_IT_number 135
_symmetry_cell_setting 'tetragonal'
loop_
_space_group_symop_operation_xyz
x,y,z
-y,x,1/2+z
-x,-y,z
y,-x,1/2+z
1/2+x,1/2-y,-z
1/2-x,1/2+y,-z
1/2+y,1/2+x,1/2-z
1/2-y,1/2-x,1/2-z
-x,-y,-z
y,-x,1/2-z
x,y,-z
-y,x,1/2-z
1/2-x,1/2+y,z
1/2+x,1/2-y,z
1/2-y,1/2-x,1/2+z
1/2+y,1/2+x,1/2+z
loop_
_atom_site_type_symbol
_atom_site_label
_atom_site_fract_x
_atom_site_fract_y
_atom_site_fract_z
Si Si1 0.563619 0.556435 0.682536
Si Si2 0.266104 0.150471 0.318532
Si Si3 0.551141 0.132503 0.175488
Si Si4 0.850862 0.434141 0.181398
Si Si5 0.144968 0.273098 0.175530
Si Si6 0.363205 0.656373 0.319214
O O1 0.578427 0.493754 0.739726
O O2 0.555172 0.555379 0.500000
O O3 0.614040 0.597781 0.725223
O O4 0.292260 0.207741 0.250000
O O5 0.275505 0.151776 0.500000
O O6 0.296313 0.096028 0.250091
O O7 0.201185 0.144971 0.273532
O O8 0.575873 0.075873 0.250000
O O9 0.499000 0.152710 0.275973
O O10 0.596257 0.181513 0.182934
O O11 0.532814 0.119816 0.000000
O O12 0.907705 0.407705 0.250000
O O13 0.850995 0.425761 0.000000
O O14 0.201835 0.298166 0.250000
O O15 0.122558 0.219922 0.271102
O O16 0.158622 0.255555 0.000000
O O17 0.374536 0.648196 0.500000
#
# Coordination Sequence:
#
# PCOD8317543 Si02
#       6
#    16  16  16  16  16  16
#     4  11  23  42  65  87 116 150 187 233 286 340
#     4  10  21  37  57  82 115 151 187 232 282 332
#     4  10  21  38  58  82 113 148 189 235 283 335
#     4  11  22  37  58  82 111 148 189 234 284 336
#     4  10  21  37  58  84 117 154 190 235 288 339
#     4  11  23  38  60  89 118 151 193 234 278 339
#
# _framework density 19.608288999999999
#
# number of rings (size 3 to 8) (size 9 to 14) (size 15 to 20)
#    0.000    1.500    0.000    7.000    0.000    7.667 
#    0.000    3.333    0.000    0.000    0.000    0.000 
#    0.000    0.000    0.000    0.000    0.000    0.000 
#
# Total GULP energy -1190893.554685 kJ/mol
# GULP energy per Si atom -12405.141195 kJ/mol
# Density = 1.956366 g / cm^3
# Si number density = 19.608289 Si / 1000 Ang^3
#
#
#
# Elastic Constant Matrix: (Units=GPa)
#
#
# Indices 1 2 3 4 5 6 
#
# 1 -117.6526 221.7090 28.0873 0.0000 0.0000 0.0000
# 2 221.7090 -117.7878 27.9134 0.0000 0.0000 0.0000
# 3 28.0873 27.9134 85.5552 0.0000 0.0000 0.0000
# 4 0.0000 0.0000 0.0000 34.5048 0.0000 0.0000
# 5 0.0000 0.0000 0.0000 0.0000 34.5048 0.0000
# 6 0.0000 0.0000 0.0000 0.0000 0.0000 25.6927
#
#
#
# Elastic Compliance Matrix: (Units=1/GPa)
#
#
# Indices 1 2 3 4 5 6 
#
# 1 0.004364 0.007310 -0.003818 0.000000 0.000000 0.000000
# 2 0.007310 0.004364 -0.003823 0.000000 0.000000 0.000000
# 3 -0.003818 -0.003823 0.014189 0.000000 0.000000 0.000000
# 4 0.000000 0.000000 0.000000 0.028981 0.000000 0.000000
# 5 0.000000 0.000000 0.000000 0.000000 0.028981 0.000000
# 6 0.000000 0.000000 0.000000 0.000000 0.000000 0.038922
#
#
# Mechanical properties :
#
#
# Convention : Reuss Voigt Hill
#
# Bulk Modulus (GPa) = 44.93467 45.05935 44.99701
# Shear Modulus (GPa) = 39.09851 -9.56587 14.76632
#
# Velocity S-wave (km/s) = 4.47024 -2.21112 2.74718
# Velocity P-wave (km/s) = 7.04344 4.06336 5.74982
#
# Compressibility (1/GPa) = 0.02225453
#
# Stress axis : x y z
#
# Youngs Moduli (GPa) = 229.13370 229.17219 70.47636
#
# Poissons Ratio (x) = -1.67525 0.26906
# Poissons Ratio (y) = -1.67497 0.26947
# Poissons Ratio (z) = 0.87477 0.87624
#
# Static dielectric constant tensor:
#      x y z
#    x 3.568320 0.000000 0.000000 
#    y 0.000000 3.568320 0.000000 
#    z 0.000000 0.000000 3.827570 
# 
# 
# High freq. dielectric constant tensor:
#      x y z
#    x 1.765710 0.000000 0.000000 
#    y 0.000000 1.765710 0.000000 
#    z 0.000000 0.000000 1.785220 
# 
# From -- ./inp_files/1241.got.cif
#   From: 2010.03.12/outbox.cif.g09.slc.cpg/sg135_1_cif.got.tgz:1241.got - 2010.04.06 18:31:24.
