data_PCOD8317857
_publ_section_title
;
Structure prediction by ZEFSAII (Michael W. Deem and Ramdas Pophale) SiO2 
 PCOD8317857
Probable space group: P 42/M N M
;
_chemical_formula_sum "Si O2"
_cell_formula_units_Z 120
_cell_length_a 14.982648
_cell_length_b 14.982648
_cell_length_c 30.696246
_cell_angle_alpha 90.000000
_cell_angle_beta 90.000000
_cell_angle_gamma 90.000000
_cell_volume 6890.685355
_symmetry_space_group_name_H-M "P 42/M N M"
_symmetry_group_IT_number 136
_symmetry_cell_setting 'tetragonal'
loop_
_space_group_symop_operation_xyz
x,y,z
1/2-y,1/2+x,1/2+z
-x,-y,z
1/2+y,1/2-x,1/2+z
1/2+x,1/2-y,1/2-z
1/2-x,1/2+y,1/2-z
y,x,-z
-y,-x,-z
-x,-y,-z
1/2+y,1/2-x,1/2-z
x,y,-z
1/2-y,1/2+x,1/2-z
1/2-x,1/2+y,1/2+z
1/2+x,1/2-y,1/2+z
-y,-x,z
y,x,z
loop_
_atom_site_type_symbol
_atom_site_label
_atom_site_fract_x
_atom_site_fract_y
_atom_site_fract_z
Si Si1 0.127215 0.424420 0.703834
Si Si2 0.920097 0.381539 0.299077
Si Si3 0.129541 0.276907 0.451512
Si Si4 0.199912 0.941290 0.449604
Si Si5 0.503330 0.642549 0.500000
Si Si6 0.128833 0.726043 0.120869
Si Si7 0.950379 0.802183 0.091844
Si Si8 0.192801 0.334925 0.881152
O O1 0.163254 0.397295 0.752085
O O2 0.139711 0.529742 0.695332
O O3 0.179078 0.370041 0.667522
O O4 0.023499 0.403245 0.700967
O O5 0.899069 0.318640 0.339761
O O6 0.112713 0.318115 0.500000
O O7 0.214471 0.214471 0.453649
O O8 0.150738 0.358266 0.417534
O O9 0.045486 0.213494 0.437681
O O10 0.221266 0.924500 0.500000
O O11 0.100119 0.899882 0.439070
O O12 0.273885 0.888909 0.422589
O O13 0.607171 0.607171 0.500000
O O14 0.445127 0.554874 0.500000
O O15 0.479719 0.701769 0.458384
O O16 0.216636 0.783365 0.119772
O O17 0.043235 0.791910 0.117649
O O18 0.893325 0.893325 0.102715
O O19 0.896304 0.713544 0.102879
O O20 0.262790 0.262790 0.864735
#
# Coordination Sequence:
#
# PCOD8317857 Si02
#       8
#    16  16  16  16   8  16  16  16
#     4   9  18  32  52  74  94 126 162 202 252 301
#     4   9  17  33  53  71  97 125 161 203 246 308
#     4   9  19  34  50  72 103 135 167 207 253 298
#     4   9  18  32  51  75 102 132 165 201 247 303
#     4   9  18  32  48  66  91 132 180 212 239 290
#     4  11  21  33  51  74 103 131 167 215 256 295
#     4  10  21  34  50  72 101 139 179 212 251 299
#     4  10  19  31  50  74 101 129 161 207 253 295
#
# _framework density 17.414812999999999
#
# number of rings (size 3 to 8) (size 9 to 14) (size 15 to 20)
#    0.000    2.467    1.333    2.000    1.867    1.600 
#    0.000    1.333    0.000    1.600    0.000    0.000 
#    0.000    2.133    0.000    0.000    0.000    0.000 
#
# Total GULP energy -1486691.205799 kJ/mol
# GULP energy per Si atom -12389.093382 kJ/mol
# Density = 1.737518 g / cm^3
# Si number density = 17.414813 Si / 1000 Ang^3
#
#
#
# Elastic Constant Matrix: (Units=GPa)
#
#
# Indices 1 2 3 4 5 6 
#
# 1 55.0603 17.1329 36.0182 0.0000 0.0000 0.0000
# 2 17.1329 55.0604 36.0182 0.0000 0.0000 0.0000
# 3 36.0182 36.0182 108.5868 0.0000 0.0000 0.0000
# 4 0.0000 0.0000 0.0000 33.1330 0.0000 0.0000
# 5 0.0000 0.0000 0.0000 0.0000 33.1275 0.0000
# 6 0.0000 0.0000 0.0000 0.0000 0.0000 20.0954
#
#
#
# Elastic Compliance Matrix: (Units=1/GPa)
#
#
# Indices 1 2 3 4 5 6 
#
# 1 0.023535 -0.002831 -0.006868 0.000000 0.000000 0.000000
# 2 -0.002831 0.023535 -0.006868 0.000000 0.000000 0.000000
# 3 -0.006868 -0.006868 0.013765 0.000000 0.000000 0.000000
# 4 0.000000 0.000000 0.000000 0.030181 0.000000 0.000000
# 5 0.000000 0.000000 0.000000 0.000000 0.030186 0.000000
# 6 0.000000 0.000000 0.000000 0.000000 0.000000 0.049763
#
#
# Mechanical properties :
#
#
# Convention : Reuss Voigt Hill
#
# Bulk Modulus (GPa) = 36.09652 44.11623 40.10638
# Shear Modulus (GPa) = 23.43752 25.90705 24.67228
#
# Velocity S-wave (km/s) = 3.67255 3.86118 3.76805
# Velocity P-wave (km/s) = 6.22543 6.72799 6.48158
#
# Compressibility (1/GPa) = 0.02770350
#
# Stress axis : x y z
#
# Youngs Moduli (GPa) = 42.48933 42.48941 72.64680
#
# Poissons Ratio (x) = 0.12028 0.49891
# Poissons Ratio (y) = 0.12028 0.49891
# Poissons Ratio (z) = 0.29180 0.29180
#
# Static dielectric constant tensor:
#      x y z
#    x 3.235390 0.000000 0.000000 
#    y 0.000000 3.235390 0.000000 
#    z 0.000000 0.000000 3.505840 
# 
# 
# High freq. dielectric constant tensor:
#      x y z
#    x 1.659410 0.000000 0.000000 
#    y 0.000000 1.659410 0.000000 
#    z 0.000000 0.000000 1.677280 
# 
# From -- ./inp_files/10028.got.cif
#   From: 2010.03.12/outbox.cif.g09.slc.cpg/sg136_6_cif.got.tgz:10028.got - 2010.04.06 18:39:43.
