data_PCOD8317693
_publ_section_title
;
Structure prediction by ZEFSAII (Michael W. Deem and Ramdas Pophale) SiO2 
 PCOD8317693
Probable space group: P 42/M N M
;
_chemical_formula_sum "Si O2"
_cell_formula_units_Z 96
_cell_length_a 24.741716
_cell_length_b 24.741716
_cell_length_c 12.062886
_cell_angle_alpha 90.000000
_cell_angle_beta 90.000000
_cell_angle_gamma 90.000000
_cell_volume 7384.325950
_symmetry_space_group_name_H-M "P 42/M N M"
_symmetry_group_IT_number 136
_symmetry_cell_setting 'tetragonal'
loop_
_space_group_symop_operation_xyz
x,y,z
1/2-y,1/2+x,1/2+z
-x,-y,z
1/2+y,1/2-x,1/2+z
1/2+x,1/2-y,1/2-z
1/2-x,1/2+y,1/2-z
y,x,-z
-y,-x,-z
-x,-y,-z
1/2+y,1/2-x,1/2-z
x,y,-z
1/2-y,1/2+x,1/2-z
1/2-x,1/2+y,1/2+z
1/2+x,1/2-y,1/2+z
-y,-x,z
y,x,z
loop_
_atom_site_type_symbol
_atom_site_label
_atom_site_fract_x
_atom_site_fract_y
_atom_site_fract_z
Si Si1 0.369853 0.279014 0.874479
Si Si2 0.225355 0.134548 0.122417
Si Si3 0.938070 0.152128 0.778853
Si Si4 0.795051 0.703821 0.740175
Si Si5 0.306948 0.397342 0.500000
Si Si6 0.813361 0.277615 0.000000
Si Si7 0.549631 0.361300 0.370259
O O1 0.322323 0.322323 0.874427
O O2 0.423123 0.307289 0.821682
O O3 0.349946 0.227422 0.802298
O O4 0.383453 0.260618 0.000000
O O5 0.181850 0.181850 0.121133
O O6 0.274699 0.150013 0.203187
O O7 0.195278 0.079517 0.157849
O O8 0.250259 0.127952 0.000000
O O9 0.900905 0.099096 0.775498
O O10 0.000375 0.133352 0.782584
O O11 0.932579 0.186163 0.891068
O O12 0.748539 0.748539 0.745310
O O13 0.812117 0.692054 0.612842
O O14 0.349209 0.349209 0.500000
O O15 0.247170 0.373154 0.500000
O O16 0.769249 0.230752 0.000000
O O17 0.531761 0.362881 0.500000
O O18 0.588502 0.411499 0.345283
#
# Coordination Sequence:
#
# PCOD8317693 Si02
#       7
#    16  16  16  16   8   8  16
#     4   9  16  24  36  54  71  88 111 140 178 223
#     4   8  14  24  36  49  66  89 116 146 176 208
#     4  10  17  25  38  53  72  93 116 155 198 227
#     4   9  14  21  35  53  72  89 106 134 172 217
#     4   9  14  22  33  52  75  92 106 134 188 232
#     4   9  14  20  32  53  76  91 103 127 173 223
#     4   9  17  27  38  52  69  92 125 161 193 221
#
# _framework density 13.000508999999999
#
# number of rings (size 3 to 8) (size 9 to 14) (size 15 to 20)
#    0.000    3.000    2.500    1.500    0.000    2.333 
#    0.000    0.833    1.833    0.500    0.000    2.333 
#    0.000    0.000    0.000    0.000    0.000    0.833 
#
# Total GULP energy -1189390.576546 kJ/mol
# GULP energy per Si atom -12389.485172 kJ/mol
# Density = 1.297092 g / cm^3
# Si number density = 13.000509 Si / 1000 Ang^3
#
#
#
# Elastic Constant Matrix: (Units=GPa)
#
#
# Indices 1 2 3 4 5 6 
#
# 1 39.0441 37.7711 32.1903 0.0000 0.0000 0.0000
# 2 37.7711 39.0441 32.1900 0.0000 0.0000 0.0000
# 3 32.1903 32.1900 97.9022 0.0000 0.0000 0.0000
# 4 0.0000 0.0000 0.0000 14.2083 0.0000 0.0000
# 5 0.0000 0.0000 0.0000 0.0000 14.2084 0.0000
# 6 0.0000 0.0000 0.0000 0.0000 0.0000 12.6373
#
#
#
# Elastic Compliance Matrix: (Units=1/GPa)
#
#
# Indices 1 2 3 4 5 6 
#
# 1 0.401752 -0.383780 -0.005910 0.000000 0.000000 0.000000
# 2 -0.383780 0.401749 -0.005907 0.000000 0.000000 0.000000
# 3 -0.005910 -0.005907 0.014100 0.000000 0.000000 0.000000
# 4 0.000000 0.000000 0.000000 0.070382 0.000000 0.000000
# 5 0.000000 0.000000 0.000000 0.000000 0.070381 0.000000
# 6 0.000000 0.000000 0.000000 0.000000 0.000000 0.079131
#
#
# Mechanical properties :
#
#
# Convention : Reuss Voigt Hill
#
# Bulk Modulus (GPa) = 37.87015 42.25480 40.06248
# Shear Modulus (GPa) = 2.72110 13.13338 7.92724
#
# Velocity S-wave (km/s) = 1.44832 3.18185 2.47202
# Velocity P-wave (km/s) = 5.65595 6.78762 6.24747
#
# Compressibility (1/GPa) = 0.02640602
#
# Stress axis : x y z
#
# Youngs Moduli (GPa) = 2.48910 2.48912 70.92298
#
# Poissons Ratio (x) = 0.95527 0.41917
# Poissons Ratio (y) = 0.95527 0.41895
# Poissons Ratio (z) = 0.01471 0.01470
#
# Static dielectric constant tensor:
#      x y z
#    x 2.415590 0.000000 0.000000 
#    y 0.000000 2.415590 0.000000 
#    z 0.000000 0.000000 2.810490 
# 
# 
# High freq. dielectric constant tensor:
#      x y z
#    x 1.456580 0.000000 0.000000 
#    y 0.000000 1.456580 0.000000 
#    z 0.000000 0.000000 1.495780 
# 
# From -- ./inp_files/3949.got.cif
#   From: 2010.03.12/outbox.cif.g09.slc.cpg/sg136_2_cif.got.tgz:3949.got - 2010.04.06 18:39:43.
