data_PCOD8317965
_publ_section_title
;
Structure prediction by ZEFSAII (Michael W. Deem and Ramdas Pophale) SiO2 
 PCOD8317965
Probable space group: P 42/M N M
;
_chemical_formula_sum "Si O2"
_cell_formula_units_Z 120
_cell_length_a 26.236347
_cell_length_b 26.236347
_cell_length_c 8.935440
_cell_angle_alpha 90.000000
_cell_angle_beta 90.000000
_cell_angle_gamma 90.000000
_cell_volume 6150.673524
_symmetry_space_group_name_H-M "P 42/M N M"
_symmetry_group_IT_number 136
_symmetry_cell_setting 'tetragonal'
loop_
_space_group_symop_operation_xyz
x,y,z
1/2-y,1/2+x,1/2+z
-x,-y,z
1/2+y,1/2-x,1/2+z
1/2+x,1/2-y,1/2-z
1/2-x,1/2+y,1/2-z
y,x,-z
-y,-x,-z
-x,-y,-z
1/2+y,1/2-x,1/2-z
x,y,-z
1/2-y,1/2+x,1/2-z
1/2-x,1/2+y,1/2+z
1/2+x,1/2-y,1/2+z
-y,-x,z
y,x,z
loop_
_atom_site_type_symbol
_atom_site_label
_atom_site_fract_x
_atom_site_fract_y
_atom_site_fract_z
Si Si1 0.535858 0.721648 0.821412
Si Si2 0.957167 0.957167 0.330867
Si Si3 0.876449 0.287689 0.168647
Si Si4 0.315549 0.765700 0.821610
Si Si5 0.390320 0.931801 0.164545
Si Si6 0.233064 0.570995 0.174712
Si Si7 0.635455 0.956774 0.170613
Si Si8 0.029809 0.884852 0.172767
O O1 0.582971 0.756581 0.767744
O O2 0.479713 0.739070 0.757728
O O3 0.546255 0.665403 0.760602
O O4 0.536170 0.722007 0.000000
O O5 0.941777 0.941777 0.500000
O O6 0.978203 0.907597 0.245110
O O7 0.000000 0.000000 0.332386
O O8 0.818822 0.289675 0.236628
O O9 0.889773 0.346860 0.165260
O O10 0.877577 0.264590 0.000000
O O11 0.279903 0.720098 0.764946
O O12 0.372855 0.751268 0.762120
O O13 0.317875 0.770048 0.000000
O O14 0.432820 0.919381 0.289026
O O15 0.363879 0.984193 0.207558
O O16 0.415887 0.936083 0.000000
O O17 0.173911 0.568329 0.213527
O O18 0.242198 0.569469 0.000000
O O19 0.650604 0.945073 0.000000
O O20 0.075770 0.924231 0.190526
O O21 0.018780 0.872457 0.000000
#
# Coordination Sequence:
#
# PCOD8317965 Si02
#       8
#    16   8  16  16  16  16  16  16
#     4  11  23  36  56  88 121 153 192 245 303 351
#     4   9  17  33  59  87 115 147 185 231 285 343
#     4  10  19  35  58  81 110 149 192 238 285 343
#     4   9  18  35  60  85 109 145 193 238 283 343
#     4  10  21  37  55  79 111 145 183 230 283 338
#     4  10  20  37  58  83 115 151 190 235 289 351
#     4  11  22  35  57  83 108 147 190 231 284 343
#     4  10  21  38  60  84 115 157 199 237 285 351
#
# _framework density 19.510058000000001
#
# number of rings (size 3 to 8) (size 9 to 14) (size 15 to 20)
#    0.000    1.933    2.667    1.400    0.000    4.533 
#    1.200    2.667    0.000    1.200    0.000    0.000 
#    0.000    0.000    0.000    0.000    0.000    0.000 
#
# Total GULP energy -1487130.347229 kJ/mol
# GULP energy per Si atom -12392.752894 kJ/mol
# Density = 1.946565 g / cm^3
# Si number density = 19.510058 Si / 1000 Ang^3
#
#
#
# Elastic Constant Matrix: (Units=GPa)
#
#
# Indices 1 2 3 4 5 6 
#
# 1 101.2540 37.1161 28.9019 0.0000 0.0000 0.0000
# 2 37.1161 101.2540 28.9019 0.0000 0.0000 0.0000
# 3 28.9019 28.9019 47.0675 0.0000 0.0000 0.0000
# 4 0.0000 0.0000 0.0000 26.8094 0.0000 0.0000
# 5 0.0000 0.0000 0.0000 0.0000 26.8094 0.0000
# 6 0.0000 0.0000 0.0000 0.0000 0.0000 29.9363
#
#
#
# Elastic Compliance Matrix: (Units=1/GPa)
#
#
# Indices 1 2 3 4 5 6 
#
# 1 0.012656 -0.002935 -0.005969 0.000000 0.000000 0.000000
# 2 -0.002935 0.012656 -0.005969 0.000000 0.000000 0.000000
# 3 -0.005969 -0.005969 0.028576 0.000000 0.000000 0.000000
# 4 0.000000 0.000000 0.000000 0.037300 0.000000 0.000000
# 5 0.000000 0.000000 0.000000 0.000000 0.037300 0.000000
# 6 0.000000 0.000000 0.000000 0.000000 0.000000 0.033404
#
#
# Mechanical properties :
#
#
# Convention : Reuss Voigt Hill
#
# Bulk Modulus (GPa) = 41.42172 48.82391 45.12281
# Shear Modulus (GPa) = 25.03915 27.02137 26.03026
#
# Velocity S-wave (km/s) = 3.58634 3.72559 3.65663
# Velocity P-wave (km/s) = 6.19888 6.60197 6.40360
#
# Compressibility (1/GPa) = 0.02414193
#
# Stress axis : x y z
#
# Youngs Moduli (GPa) = 79.01423 79.01423 34.99381
#
# Poissons Ratio (x) = 0.23194 0.20887
# Poissons Ratio (y) = 0.23194 0.20887
# Poissons Ratio (z) = 0.47163 0.47163
#
# Static dielectric constant tensor:
#      x y z
#    x 3.619040 0.000000 0.000000 
#    y 0.000000 3.619040 0.000000 
#    z 0.000000 0.000000 3.442460 
# 
# 
# High freq. dielectric constant tensor:
#      x y z
#    x 1.759510 0.000000 0.000000 
#    y 0.000000 1.759510 0.000000 
#    z 0.000000 0.000000 1.740130 
# 
# From -- ./inp_files/2287.got.cif
#   From: 2010.03.12/outbox.cif.g09.slc.cpg/sg136_2_cif.got.tgz:2287.got - 2010.04.06 18:39:43.
