data_PCOD8317883
_publ_section_title
;
Structure prediction by ZEFSAII (Michael W. Deem and Ramdas Pophale) SiO2 
 PCOD8317883
Probable space group: P 42/M N M
;
_chemical_formula_sum "Si O2"
_cell_formula_units_Z 80
_cell_length_a 13.310499
_cell_length_b 13.310499
_cell_length_c 26.219284
_cell_angle_alpha 90.000000
_cell_angle_beta 90.000000
_cell_angle_gamma 90.000000
_cell_volume 4645.254385
_symmetry_space_group_name_H-M "P 42/M N M"
_symmetry_group_IT_number 136
_symmetry_cell_setting 'tetragonal'
loop_
_space_group_symop_operation_xyz
x,y,z
1/2-y,1/2+x,1/2+z
-x,-y,z
1/2+y,1/2-x,1/2+z
1/2+x,1/2-y,1/2-z
1/2-x,1/2+y,1/2-z
y,x,-z
-y,-x,-z
-x,-y,-z
1/2+y,1/2-x,1/2-z
x,y,-z
1/2-y,1/2+x,1/2-z
1/2-x,1/2+y,1/2+z
1/2+x,1/2-y,1/2+z
-y,-x,z
y,x,z
loop_
_atom_site_type_symbol
_atom_site_label
_atom_site_fract_x
_atom_site_fract_y
_atom_site_fract_z
Si Si1 0.707592 0.126848 0.634560
Si Si2 0.255675 0.581404 0.178756
Si Si3 0.757202 0.922089 0.796473
Si Si4 0.113046 0.533487 0.440792
Si Si5 0.764789 0.602442 0.632447
O O1 0.796679 0.203322 0.625317
O O2 0.635183 0.159740 0.681114
O O3 0.643757 0.125137 0.582769
O O4 0.757709 0.019991 0.646277
O O5 0.361356 0.638644 0.170799
O O6 0.237258 0.554880 0.237619
O O7 0.164128 0.648447 0.160050
O O8 0.855502 0.855502 0.804570
O O9 0.777954 0.025137 0.825989
O O10 0.138934 0.539793 0.500000
O O11 0.190675 0.454271 0.416503
O O12 0.000000 0.500000 0.430085
O O13 0.674606 0.674606 0.614008
#
# Coordination Sequence:
#
# PCOD8317883 Si02
#       5
#    16  16  16  16  16
#     4  10  20  35  53  77 107 139 175 218 263 310
#     4  10  19  32  50  77 109 144 181 213 255 310
#     4   9  19  32  50  76 108 145 181 215 255 308
#     4  10  20  37  59  79  99 131 175 220 267 317
#     4  10  20  34  53  79 110 139 173 219 266 311
#
# _framework density 17.221876999999999
#
# number of rings (size 3 to 8) (size 9 to 14) (size 15 to 20)
#    0.000    2.200    2.000    1.200    0.000    4.000 
#    0.000    4.000    0.000    0.600    0.000    7.000 
#    0.000    0.000    0.000    0.000    0.000    0.000 
#
# Total GULP energy -992207.773365 kJ/mol
# GULP energy per Si atom -12402.597167 kJ/mol
# Density = 1.718268 g / cm^3
# Si number density = 17.221877 Si / 1000 Ang^3
#
#
#
# Elastic Constant Matrix: (Units=GPa)
#
#
# Indices 1 2 3 4 5 6 
#
# 1 102.8354 60.7003 62.2980 0.0000 0.0000 0.0000
# 2 60.7003 102.8354 62.2980 0.0000 0.0000 0.0000
# 3 62.2980 62.2980 119.9205 0.0000 0.0000 0.0000
# 4 0.0000 0.0000 0.0000 22.0136 0.0000 0.0000
# 5 0.0000 0.0000 0.0000 0.0000 22.0136 0.0000
# 6 0.0000 0.0000 0.0000 0.0000 0.0000 22.4421
#
#
#
# Elastic Compliance Matrix: (Units=1/GPa)
#
#
# Indices 1 2 3 4 5 6 
#
# 1 0.016927 -0.006806 -0.005258 0.000000 0.000000 0.000000
# 2 -0.006806 0.016927 -0.005258 0.000000 0.000000 0.000000
# 3 -0.005258 -0.005258 0.013801 0.000000 0.000000 0.000000
# 4 0.000000 0.000000 0.000000 0.045426 0.000000 0.000000
# 5 0.000000 0.000000 0.000000 0.000000 0.045426 0.000000
# 6 0.000000 0.000000 0.000000 0.000000 0.000000 0.044559
#
#
# Mechanical properties :
#
#
# Convention : Reuss Voigt Hill
#
# Bulk Modulus (GPa) = 76.85070 77.35377 77.10223
# Shear Modulus (GPa) = 22.51771 22.64686 22.58229
#
# Velocity S-wave (km/s) = 3.61987 3.63023 3.62506
# Velocity P-wave (km/s) = 7.88619 7.91107 7.89864
#
# Compressibility (1/GPa) = 0.01301224
#
# Stress axis : x y z
#
# Youngs Moduli (GPa) = 59.07768 59.07768 72.45632
#
# Poissons Ratio (x) = 0.40210 0.38094
# Poissons Ratio (y) = 0.40210 0.38094
# Poissons Ratio (z) = 0.31061 0.31061
#
# Static dielectric constant tensor:
#      x y z
#    x 3.324540 0.000000 0.000000 
#    y 0.000000 3.324540 0.000000 
#    z 0.000000 0.000000 3.115310 
# 
# 
# High freq. dielectric constant tensor:
#      x y z
#    x 1.669750 0.000000 0.000000 
#    y 0.000000 1.669750 0.000000 
#    z 0.000000 0.000000 1.655880 
# 
# From -- ./inp_files/9505.got.cif
#   From: 2010.03.12/outbox.cif.g09.slc.cpg/sg136_5_cif.got.tgz:9505.got - 2010.04.06 18:39:43.
