data_PCOD8317322
_publ_section_title
;
Structure prediction by ZEFSAII (Michael W. Deem and Ramdas Pophale) SiO2 
 PCOD8317322
Probable space group: P 42/N N M
;
_chemical_formula_sum "Si O2"
_cell_formula_units_Z 88
_cell_length_a 12.287558
_cell_length_b 12.287558
_cell_length_c 28.938593
_cell_angle_alpha 90.000000
_cell_angle_beta 90.000000
_cell_angle_gamma 90.000000
_cell_volume 4369.266887
_symmetry_space_group_name_H-M "P 42/N N M"
_symmetry_group_IT_number 134
_space_group.IT_coordinate_system_code '2'
_symmetry_cell_setting 'tetragonal'
loop_
_space_group_symop_operation_xyz
x,y,z
1/2-y,x,1/2+z
1/2-x,1/2-y,z
y,1/2-x,1/2+z
x,1/2-y,1/2-z
1/2-x,y,1/2-z
y,x,-z
1/2-y,1/2-x,-z
-x,-y,-z
1/2+y,-x,1/2-z
1/2+x,1/2+y,-z
-y,1/2+x,1/2-z
-x,1/2+y,1/2+z
1/2+x,-y,1/2+z
-y,-x,z
1/2+y,1/2+x,z
loop_
_atom_site_type_symbol
_atom_site_label
_atom_site_fract_x
_atom_site_fract_y
_atom_site_fract_z
Si Si1 0.913828 0.771824 0.801769
Si Si2 0.466224 0.352929 0.569995
Si Si3 0.838108 0.161893 0.074653
Si Si4 0.839163 0.160838 0.182843
Si Si5 0.777660 0.581316 0.832177
Si Si6 0.807499 0.010186 0.470786
Si Si7 0.750000 0.422752 0.750000
O O1 0.873825 0.750000 0.750000
O O2 0.882266 0.662420 0.829577
O O3 0.840924 0.867423 0.823163
O O4 0.041375 0.802735 0.800359
O O5 0.553837 0.446164 0.579853
O O6 0.462860 0.277364 0.615403
O O7 0.348632 0.402849 0.555954
O O8 0.497487 0.280939 0.525192
O O9 0.750000 0.250000 0.057971
O O10 0.844540 0.155461 0.128689
O O11 0.803634 0.045649 0.054225
O O12 0.750000 0.250000 0.199999
O O13 0.794452 0.489796 0.793634
O O14 0.903681 0.096320 0.464775
O O15 0.849417 0.349417 0.731774
#
# Coordination Sequence:
#
# PCOD8317322 Si02
#       7
#    16  16   8   8  16  16   8
#     4  11  24  41  61  87 119 162 207 251 315 384
#     4   9  17  31  56  87 112 155 205 251 294 359
#     4   9  16  32  53  83 119 148 177 241 312 364
#     4  11  26  40  65  99 122 152 207 266 324 383
#     4  11  21  41  62  83 121 167 208 243 310 372
#     4   8  15  29  52  84 122 151 193 247 308 360
#     4  11  24  39  58  88 118 157 208 257 294 352
#
# _framework density 20.140678999999999
#
# number of rings (size 3 to 8) (size 9 to 14) (size 15 to 20)
#    0.000    2.091    1.818    3.273    2.545    2.909 
#    1.636    0.000    0.000   19.636    0.000    0.000 
#    0.000    0.000    0.000    0.000    0.000    0.000 
#
# Total GULP energy -1090590.067857 kJ/mol
# GULP energy per Si atom -12393.068953 kJ/mol
# Density = 2.009484 g / cm^3
# Si number density = 20.140679 Si / 1000 Ang^3
#
#
#
# Elastic Constant Matrix: (Units=GPa)
#
#
# Indices 1 2 3 4 5 6 
#
# 1 81.5273 32.7298 24.1932 0.0000 0.0000 0.0000
# 2 32.7298 81.5273 24.1932 0.0000 0.0000 0.0000
# 3 24.1932 24.1932 126.6564 0.0000 0.0000 0.0000
# 4 0.0000 0.0000 0.0000 36.9495 0.0000 0.0000
# 5 0.0000 0.0000 0.0000 0.0000 36.9495 0.0000
# 6 0.0000 0.0000 0.0000 0.0000 0.0000 23.5504
#
#
#
# Elastic Compliance Matrix: (Units=1/GPa)
#
#
# Indices 1 2 3 4 5 6 
#
# 1 0.015008 -0.005485 -0.001819 0.000000 0.000000 0.000000
# 2 -0.005485 0.015008 -0.001819 0.000000 0.000000 0.000000
# 3 -0.001819 -0.001819 0.008590 0.000000 0.000000 0.000000
# 4 0.000000 0.000000 0.000000 0.027064 0.000000 0.000000
# 5 0.000000 0.000000 0.000000 0.000000 0.027064 0.000000
# 6 0.000000 0.000000 0.000000 0.000000 0.000000 0.042462
#
#
# Mechanical properties :
#
#
# Convention : Reuss Voigt Hill
#
# Bulk Modulus (GPa) = 49.11709 50.21591 49.66650
# Shear Modulus (GPa) = 31.20549 33.39620 32.30084
#
# Velocity S-wave (km/s) = 3.94048 4.07645 4.00904
# Velocity P-wave (km/s) = 6.71887 6.86610 6.79288
#
# Compressibility (1/GPa) = 0.02035951
#
# Stress axis : x y z
#
# Youngs Moduli (GPa) = 66.63267 66.63267 116.41088
#
# Poissons Ratio (x) = 0.36549 0.21174
# Poissons Ratio (y) = 0.36549 0.21174
# Poissons Ratio (z) = 0.12120 0.12120
#
# Static dielectric constant tensor:
#      x y z
#    x 3.631810 0.000000 0.000000 
#    y 0.000000 3.631810 0.000000 
#    z 0.000000 0.000000 3.690510 
# 
# 
# High freq. dielectric constant tensor:
#      x y z
#    x 1.767380 0.000000 0.000000 
#    y 0.000000 1.767380 0.000000 
#    z 0.000000 0.000000 1.799880 
# 
# From -- ./inp_files/11487.got.cif
#   From: 2010.03.12/outbox.cif.g09.slc.cpg/sg134_6_cif.got.tgz:11487.got - 2010.04.06 18:17:22.
