data_PCOD8317516
_publ_section_title
;
Structure prediction by ZEFSAII (Michael W. Deem and Ramdas Pophale) SiO2 
 PCOD8317516
Probable space group: P 42/M B C
;
_chemical_formula_sum "Si O2"
_cell_formula_units_Z 96
_cell_length_a 14.849959
_cell_length_b 14.849959
_cell_length_c 21.479919
_cell_angle_alpha 90.000000
_cell_angle_beta 90.000000
_cell_angle_gamma 90.000000
_cell_volume 4736.779282
_symmetry_space_group_name_H-M "P 42/M B C"
_symmetry_group_IT_number 135
_symmetry_cell_setting 'tetragonal'
loop_
_space_group_symop_operation_xyz
x,y,z
-y,x,1/2+z
-x,-y,z
y,-x,1/2+z
1/2+x,1/2-y,-z
1/2-x,1/2+y,-z
1/2+y,1/2+x,1/2-z
1/2-y,1/2-x,1/2-z
-x,-y,-z
y,-x,1/2-z
x,y,-z
-y,x,1/2-z
1/2-x,1/2+y,z
1/2+x,1/2-y,z
1/2-y,1/2-x,1/2+z
1/2+y,1/2+x,1/2+z
loop_
_atom_site_type_symbol
_atom_site_label
_atom_site_fract_x
_atom_site_fract_y
_atom_site_fract_z
Si Si1 0.740715 0.512318 0.625819
Si Si2 0.579987 0.065369 0.428512
Si Si3 0.177084 0.754740 0.928179
Si Si4 0.453910 0.363957 0.753863
Si Si5 0.767731 0.054806 0.929362
Si Si6 0.123853 0.816953 0.629085
O O1 0.840974 0.554240 0.622711
O O2 0.746255 0.430689 0.576893
O O3 0.709227 0.472808 0.692292
O O4 0.674021 0.592657 0.605633
O O5 0.614369 0.050303 0.500000
O O6 0.535312 0.162687 0.421862
O O7 0.500000 0.000000 0.410236
O O8 0.210449 0.848762 0.898494
O O9 0.226080 0.675328 0.890240
O O10 0.205545 0.742623 0.000000
O O11 0.398321 0.451991 0.777132
O O12 0.390640 0.315008 0.703306
O O13 0.823973 0.974750 0.899878
O O14 0.799583 0.061417 0.000000
#
# Coordination Sequence:
#
# PCOD8317516 Si02
#       6
#    16  16  16  16  16  16
#     4  11  22  39  64  90 120 168 217 257 315 382
#     4  10  20  37  60  88 126 166 206 256 318 380
#     4  11  23  37  58  92 124 158 211 261 313 387
#     4   9  20  39  63  93 125 164 217 266 312 374
#     4  10  21  36  56  88 124 156 201 258 314 376
#     4  11  22  40  63  87 126 169 205 264 323 370
#
# _framework density 20.266936000000001
#
# number of rings (size 3 to 8) (size 9 to 14) (size 15 to 20)
#    0.000    1.667    1.667    3.000    0.000    6.000 
#    0.000    2.500    0.000    1.000    0.000    0.000 
#    0.000    0.000    0.000    0.000    0.000    0.000 
#
# Total GULP energy -1190007.360404 kJ/mol
# GULP energy per Si atom -12395.910004 kJ/mol
# Density = 2.022081 g / cm^3
# Si number density = 20.266936 Si / 1000 Ang^3
#
#
#
# Elastic Constant Matrix: (Units=GPa)
#
#
# Indices 1 2 3 4 5 6 
#
# 1 104.8142 37.4351 44.9316 0.0000 0.0000 0.0000
# 2 37.4351 104.8142 44.9316 0.0000 0.0000 0.0000
# 3 44.9316 44.9316 64.5149 0.0000 0.0000 0.0000
# 4 0.0000 0.0000 0.0000 28.9597 0.0000 0.0000
# 5 0.0000 0.0000 0.0000 0.0000 28.9597 0.0000
# 6 0.0000 0.0000 0.0000 0.0000 0.0000 39.9209
#
#
#
# Elastic Compliance Matrix: (Units=1/GPa)
#
#
# Indices 1 2 3 4 5 6 
#
# 1 0.013697 -0.001144 -0.008742 0.000000 0.000000 0.000000
# 2 -0.001144 0.013697 -0.008742 0.000000 0.000000 0.000000
# 3 -0.008742 -0.008742 0.027678 0.000000 0.000000 0.000000
# 4 0.000000 0.000000 0.000000 0.034531 0.000000 0.000000
# 5 0.000000 0.000000 0.000000 0.000000 0.034531 0.000000
# 6 0.000000 0.000000 0.000000 0.000000 0.000000 0.025050
#
#
# Mechanical properties :
#
#
# Convention : Reuss Voigt Hill
#
# Bulk Modulus (GPa) = 56.13709 58.74887 57.44298
# Shear Modulus (GPa) = 25.99037 29.35772 27.67404
#
# Velocity S-wave (km/s) = 3.58495 3.81011 3.69925
# Velocity P-wave (km/s) = 6.70036 6.95747 6.83013
#
# Compressibility (1/GPa) = 0.01781353
#
# Stress axis : x y z
#
# Youngs Moduli (GPa) = 73.00826 73.00826 36.13022
#
# Poissons Ratio (x) = 0.08354 0.31587
# Poissons Ratio (y) = 0.08354 0.31587
# Poissons Ratio (z) = 0.63827 0.63827
#
# Static dielectric constant tensor:
#      x y z
#    x 3.733580 0.000000 0.000000 
#    y 0.000000 3.733580 0.000000 
#    z 0.000000 0.000000 3.383130 
# 
# 
# High freq. dielectric constant tensor:
#      x y z
#    x 1.801720 0.000000 0.000000 
#    y 0.000000 1.801720 0.000000 
#    z 0.000000 0.000000 1.762590 
# 
# From -- ./inp_files/5458.got.cif
#   From: 2010.03.12/outbox.cif.g09.slc.cpg/sg135_3_cif.got.tgz:5458.got - 2010.04.06 18:31:24.
