data_PCOD8317368
_publ_section_title
;
Structure prediction by ZEFSAII (Michael W. Deem and Ramdas Pophale) SiO2 
 PCOD8317368
Probable space group: P 42/M B C
;
_chemical_formula_sum "Si O2"
_cell_formula_units_Z 116
_cell_length_a 28.856935
_cell_length_b 28.856935
_cell_length_c 9.277654
_cell_angle_alpha 90.000000
_cell_angle_beta 90.000000
_cell_angle_gamma 90.000000
_cell_volume 7725.713066
_symmetry_space_group_name_H-M "P 42/M B C"
_symmetry_group_IT_number 135
_symmetry_cell_setting 'tetragonal'
loop_
_space_group_symop_operation_xyz
x,y,z
-y,x,1/2+z
-x,-y,z
y,-x,1/2+z
1/2+x,1/2-y,-z
1/2-x,1/2+y,-z
1/2+y,1/2+x,1/2-z
1/2-y,1/2-x,1/2-z
-x,-y,-z
y,-x,1/2-z
x,y,-z
-y,x,1/2-z
1/2-x,1/2+y,z
1/2+x,1/2-y,z
1/2-y,1/2-x,1/2+z
1/2+y,1/2+x,1/2+z
loop_
_atom_site_type_symbol
_atom_site_label
_atom_site_fract_x
_atom_site_fract_y
_atom_site_fract_z
Si Si1 0.907604 0.221815 0.337185
Si Si2 0.000000 0.000000 0.250000
Si Si3 0.029349 0.904380 0.159611
Si Si4 0.005999 0.802134 0.165369
Si Si5 0.403036 0.715276 0.832391
Si Si6 0.755815 0.677878 0.831961
Si Si7 0.246224 0.679453 0.330983
Si Si8 0.885786 0.114581 0.339740
O O1 0.908737 0.242170 0.500000
O O2 0.870925 0.249261 0.239958
O O3 0.894270 0.168681 0.341520
O O4 0.958067 0.225629 0.264995
O O5 0.001068 0.048453 0.162055
O O6 0.001782 0.857356 0.207531
O O7 0.074770 0.912410 0.254703
O O8 0.047968 0.896422 0.000000
O O9 0.957541 0.775562 0.187929
O O10 0.022274 0.798050 0.000000
O O11 0.373163 0.750598 0.736652
O O12 0.393726 0.664093 0.769709
O O13 0.387878 0.719345 0.000000
O O14 0.798096 0.701905 0.750000
O O15 0.708730 0.706844 0.807009
O O16 0.768095 0.673691 0.000000
O O17 0.204074 0.704074 0.250000
O O18 0.234751 0.674671 0.500000
O O19 0.885890 0.092953 0.500000
#
# Coordination Sequence:
#
# PCOD8317368 Si02
#       8
#    16   4  16  16  16  16  16  16
#     4  10  18  30  47  65  87 113 142 180 220 262
#     4  12  22  32  44  58  74  96 128 178 234 276
#     4  10  21  34  46  58  75  99 134 175 221 273
#     4   9  19  33  47  62  82 110 143 178 218 266
#     4  10  18  31  48  64  86 114 142 177 221 266
#     4  10  20  31  46  68  92 115 142 177 217 266
#     4  10  19  30  46  68  93 117 143 175 216 267
#     4   9  18  31  47  63  81 104 133 173 223 268
#
# _framework density 15.014794999999999
#
# number of rings (size 3 to 8) (size 9 to 14) (size 15 to 20)
#    0.000    2.207    1.379    2.276    0.000    4.966 
#    0.000    2.759    0.000    0.000    0.000    0.000 
#    0.000    0.000    0.000    0.000    0.000    0.690 
#
# Total GULP energy -1437929.268917 kJ/mol
# GULP energy per Si atom -12395.941973 kJ/mol
# Density = 1.498062 g / cm^3
# Si number density = 15.014795 Si / 1000 Ang^3
#
#
#
# Elastic Constant Matrix: (Units=GPa)
#
#
# Indices 1 2 3 4 5 6 
#
# 1 65.9678 38.2496 43.0974 0.0000 0.0000 0.0000
# 2 38.2496 65.9680 43.0981 0.0000 0.0000 0.0000
# 3 43.0974 43.0981 95.5974 0.0000 0.0000 0.0000
# 4 0.0000 0.0000 0.0000 21.4156 0.0000 0.0000
# 5 0.0000 0.0000 0.0000 0.0000 21.4155 0.0000
# 6 0.0000 0.0000 0.0000 0.0000 0.0000 19.9256
#
#
#
# Elastic Compliance Matrix: (Units=1/GPa)
#
#
# Indices 1 2 3 4 5 6 
#
# 1 0.025689 -0.010389 -0.006898 0.000000 0.000000 0.000000
# 2 -0.010389 0.025689 -0.006898 0.000000 0.000000 0.000000
# 3 -0.006898 -0.006898 0.016680 0.000000 0.000000 0.000000
# 4 0.000000 0.000000 0.000000 0.046695 0.000000 0.000000
# 5 0.000000 0.000000 0.000000 0.000000 0.046695 0.000000
# 6 0.000000 0.000000 0.000000 0.000000 0.000000 0.050187
#
#
# Mechanical properties :
#
#
# Convention : Reuss Voigt Hill
#
# Bulk Modulus (GPa) = 50.78868 52.93593 51.86230
# Shear Modulus (GPa) = 18.75712 19.42388 19.09050
#
# Velocity S-wave (km/s) = 3.53830 3.60064 3.56960
# Velocity P-wave (km/s) = 7.11280 7.25386 7.18368
#
# Compressibility (1/GPa) = 0.01968943
#
# Stress axis : x y z
#
# Youngs Moduli (GPa) = 38.92768 38.92738 59.95240
#
# Poissons Ratio (x) = 0.40440 0.41353
# Poissons Ratio (y) = 0.40440 0.41355
# Poissons Ratio (z) = 0.26851 0.26852
#
# Static dielectric constant tensor:
#      x y z
#    x 2.686960 0.000000 0.000000 
#    y 0.000000 2.686960 0.000000 
#    z 0.000000 0.000000 3.066760 
# 
# 
# High freq. dielectric constant tensor:
#      x y z
#    x 1.544680 0.000000 0.000000 
#    y 0.000000 1.544680 0.000000 
#    z 0.000000 0.000000 1.584560 
# 
# From -- ./inp_files/1514.got.cif
#   From: 2010.03.12/outbox.cif.g09.slc.cpg/sg135_1_cif.got.tgz:1514.got - 2010.04.06 18:31:24.
