data_PCOD8317169
_publ_section_title
;
Structure prediction by ZEFSAII (Michael W. Deem and Ramdas Pophale) SiO2 
 PCOD8317169
Probable space group: P 42/N N M
;
_chemical_formula_sum "Si O2"
_cell_formula_units_Z 80
_cell_length_a 17.779885
_cell_length_b 17.779885
_cell_length_c 12.472925
_cell_angle_alpha 90.000000
_cell_angle_beta 90.000000
_cell_angle_gamma 90.000000
_cell_volume 3942.994817
_symmetry_space_group_name_H-M "P 42/N N M"
_symmetry_group_IT_number 134
_space_group.IT_coordinate_system_code '2'
_symmetry_cell_setting 'tetragonal'
loop_
_space_group_symop_operation_xyz
x,y,z
1/2-y,x,1/2+z
1/2-x,1/2-y,z
y,1/2-x,1/2+z
x,1/2-y,1/2-z
1/2-x,y,1/2-z
y,x,-z
1/2-y,1/2-x,-z
-x,-y,-z
1/2+y,-x,1/2-z
1/2+x,1/2+y,-z
-y,1/2+x,1/2-z
-x,1/2+y,1/2+z
1/2+x,-y,1/2+z
-y,-x,z
1/2+y,1/2+x,z
loop_
_atom_site_type_symbol
_atom_site_label
_atom_site_fract_x
_atom_site_fract_y
_atom_site_fract_z
Si Si1 0.681290 0.648859 0.168534
Si Si2 0.534337 0.347327 0.480459
Si Si3 0.393875 0.012563 0.749533
Si Si4 0.600476 0.284055 0.143361
Si Si5 0.109766 0.229911 0.533337
O O1 0.750000 0.662147 0.250000
O O2 0.612957 0.600404 0.220812
O O3 0.641973 0.728193 0.138594
O O4 0.710794 0.603252 0.064166
O O5 0.587416 0.412585 0.534560
O O6 0.494695 0.382394 0.376424
O O7 0.586756 0.278356 0.446057
O O8 0.469283 0.313437 0.557727
O O9 0.474061 0.974061 0.718128
O O10 0.325876 0.974474 0.684315
O O11 0.638605 0.250000 0.250000
O O12 0.657302 0.342699 0.089003
O O13 0.170648 0.170648 0.500000
#
# Coordination Sequence:
#
# PCOD8317169 Si02
#       5
#    16  16  16  16  16
#     4  11  19  37  57  78 117 146 189 244 286 341
#     4  10  19  34  52  74 111 151 187 236 287 345
#     4   9  16  30  54  78 108 154 193 228 285 342
#     4   9  15  25  44  74 107 144 193 234 272 332
#     4  11  24  36  52  83 107 143 197 238 295 347
#
# _framework density 20.289147
#
# number of rings (size 3 to 8) (size 9 to 14) (size 15 to 20)
#    0.000    2.000    4.000    3.600    0.000    3.400 
#    0.000    3.000    0.000    0.000    0.000    0.000 
#    0.000    0.000    0.000    0.800    0.000    1.600 
#
# Total GULP energy -991297.242272 kJ/mol
# GULP energy per Si atom -12391.215528 kJ/mol
# Density = 2.024297 g / cm^3
# Si number density = 20.289147 Si / 1000 Ang^3
#
#
#
# Elastic Constant Matrix: (Units=GPa)
#
#
# Indices 1 2 3 4 5 6 
#
# 1 83.8336 105.3055 29.8159 0.0000 0.0000 0.0000
# 2 105.3055 83.8336 29.8159 0.0000 0.0000 0.0000
# 3 29.8159 29.8159 47.5874 0.0000 0.0000 0.0000
# 4 0.0000 0.0000 0.0000 47.6213 0.0000 0.0000
# 5 0.0000 0.0000 0.0000 0.0000 47.6213 0.0000
# 6 0.0000 0.0000 0.0000 0.0000 0.0000 38.2531
#
#
#
# Elastic Compliance Matrix: (Units=1/GPa)
#
#
# Indices 1 2 3 4 5 6 
#
# 1 -0.019992 0.026580 -0.004128 0.000000 0.000000 0.000000
# 2 0.026580 -0.019992 -0.004128 0.000000 0.000000 0.000000
# 3 -0.004128 -0.004128 0.026187 0.000000 0.000000 0.000000
# 4 0.000000 0.000000 0.000000 0.020999 0.000000 0.000000
# 5 0.000000 0.000000 0.000000 0.000000 0.020999 0.000000
# 6 0.000000 0.000000 0.000000 0.000000 0.000000 0.026142
#
#
# Mechanical properties :
#
#
# Convention : Reuss Voigt Hill
#
# Bulk Modulus (GPa) = 43.76037 60.56993 52.16515
# Shear Modulus (GPa) = 197.53795 30.05363 113.79579
#
# Velocity S-wave (km/s) = 9.87789 3.85290 7.49725
# Velocity P-wave (km/s) = 12.31715 7.05062 10.03552
#
# Compressibility (1/GPa) = 0.02285172
#
# Stress axis : x y z
#
# Youngs Moduli (GPa) = -50.02036 -50.02036 38.18700
#
# Poissons Ratio (x) = 1.32957 0.15764
# Poissons Ratio (y) = 1.32957 0.15764
# Poissons Ratio (z) = -0.20649 -0.20649
#
# Static dielectric constant tensor:
#      x y z
#    x 4.277210 0.000000 0.000000 
#    y 0.000000 4.277210 0.000000 
#    z 0.000000 0.000000 3.619910 
# 
# 
# High freq. dielectric constant tensor:
#      x y z
#    x 1.791490 0.000000 0.000000 
#    y 0.000000 1.791490 0.000000 
#    z 0.000000 0.000000 1.733980 
# 
# From -- ./inp_files/6323.got.cif
#   From: 2010.03.12/outbox.cif.g09.slc.cpg/sg134_4_cif.got.tgz:6323.got - 2010.04.06 18:17:22.
