data_PCOD8317846
_publ_section_title
;
Structure prediction by ZEFSAII (Michael W. Deem and Ramdas Pophale) SiO2 
 PCOD8317846
Probable space group: P 42/M N M
;
_chemical_formula_sum "Si O2"
_cell_formula_units_Z 72
_cell_length_a 22.679650
_cell_length_b 22.679650
_cell_length_c 8.946611
_cell_angle_alpha 90.000000
_cell_angle_beta 90.000000
_cell_angle_gamma 90.000000
_cell_volume 4601.837203
_symmetry_space_group_name_H-M "P 42/M N M"
_symmetry_group_IT_number 136
_symmetry_cell_setting 'tetragonal'
loop_
_space_group_symop_operation_xyz
x,y,z
1/2-y,1/2+x,1/2+z
-x,-y,z
1/2+y,1/2-x,1/2+z
1/2+x,1/2-y,1/2-z
1/2-x,1/2+y,1/2-z
y,x,-z
-y,-x,-z
-x,-y,-z
1/2+y,1/2-x,1/2-z
x,y,-z
1/2-y,1/2+x,1/2-z
1/2-x,1/2+y,1/2+z
1/2+x,1/2-y,1/2+z
-y,-x,z
y,x,z
loop_
_atom_site_type_symbol
_atom_site_label
_atom_site_fract_x
_atom_site_fract_y
_atom_site_fract_z
Si Si1 0.793383 0.694556 0.164778
Si Si2 0.102742 0.800642 0.324843
Si Si3 0.950675 0.950675 0.670352
Si Si4 0.723940 0.374517 0.171315
Si Si5 0.482953 0.670078 0.676336
O O1 0.743582 0.743582 0.155214
O O2 0.761439 0.634302 0.216076
O O3 0.843954 0.714622 0.279847
O O4 0.821601 0.686507 0.000000
O O5 0.086633 0.803054 0.500000
O O6 0.144410 0.855590 0.282803
O O7 0.044883 0.802669 0.224708
O O8 0.934313 0.934313 0.500000
O O9 0.975401 0.893313 0.749769
O O10 0.000000 0.000000 0.677229
O O11 0.669181 0.330820 0.197060
O O12 0.714307 0.431864 0.271568
O O13 0.729662 0.393478 0.000000
O O14 0.480263 0.662709 0.500000
#
# Coordination Sequence:
#
# PCOD8317846 Si02
#       5
#    16  16   8  16  16
#     4   8  15  29  49  69  89 114 148 189 235 283
#     4   9  18  33  50  67  91 125 157 190 235 284
#     4  11  23  37  49  61  85 125 167 203 239 280
#     4  10  19  31  48  67  90 120 154 193 237 283
#     4  12  23  32  46  67  93 123 159 201 235 274
#
# _framework density 15.645925
#
# number of rings (size 3 to 8) (size 9 to 14) (size 15 to 20)
#    0.000    2.111    1.111    5.000    0.000    5.778 
#    0.000    2.222    0.000    0.000    0.000    0.000 
#    0.000    0.889    0.000    9.333    0.000    4.000 
#
# Total GULP energy -892776.593030 kJ/mol
# GULP energy per Si atom -12399.674903 kJ/mol
# Density = 1.561031 g / cm^3
# Si number density = 15.645925 Si / 1000 Ang^3
#
#
#
# Elastic Constant Matrix: (Units=GPa)
#
#
# Indices 1 2 3 4 5 6 
#
# 1 65.3345 59.1822 53.3678 0.0000 0.0000 0.0000
# 2 59.1822 65.3345 53.3678 0.0000 0.0000 0.0000
# 3 53.3678 53.3678 119.3003 0.0000 0.0000 0.0000
# 4 0.0000 0.0000 0.0000 23.1308 0.0000 0.0000
# 5 0.0000 0.0000 0.0000 0.0000 23.1308 0.0000
# 6 0.0000 0.0000 0.0000 0.0000 0.0000 24.2511
#
#
#
# Elastic Compliance Matrix: (Units=1/GPa)
#
#
# Indices 1 2 3 4 5 6 
#
# 1 0.087783 -0.074757 -0.005827 0.000000 0.000000 0.000000
# 2 -0.074757 0.087783 -0.005827 0.000000 0.000000 0.000000
# 3 -0.005827 -0.005827 0.013596 0.000000 0.000000 0.000000
# 4 0.000000 0.000000 0.000000 0.043232 0.000000 0.000000
# 5 0.000000 0.000000 0.000000 0.000000 0.043232 0.000000
# 6 0.000000 0.000000 0.000000 0.000000 0.000000 0.041235
#
#
# Mechanical properties :
#
#
# Convention : Reuss Voigt Hill
#
# Bulk Modulus (GPa) = 61.20196 64.64497 62.92346
# Shear Modulus (GPa) = 10.09835 19.70597 14.90216
#
# Velocity S-wave (km/s) = 2.54329 3.55279 3.08955
# Velocity P-wave (km/s) = 6.91565 7.63131 7.28228
#
# Compressibility (1/GPa) = 0.01633935
#
# Stress axis : x y z
#
# Youngs Moduli (GPa) = 11.39173 11.39173 73.55349
#
# Poissons Ratio (x) = 0.85161 0.42860
# Poissons Ratio (y) = 0.85161 0.42860
# Poissons Ratio (z) = 0.06638 0.06638
#
# Static dielectric constant tensor:
#      x y z
#    x 2.994520 0.000000 0.000000 
#    y 0.000000 2.994520 0.000000 
#    z 0.000000 0.000000 3.084470 
# 
# 
# High freq. dielectric constant tensor:
#      x y z
#    x 1.580160 0.000000 0.000000 
#    y 0.000000 1.580160 0.000000 
#    z 0.000000 0.000000 1.609750 
# 
# From -- ./inp_files/1569.got.cif
#   From: 2010.03.12/outbox.cif.g09.slc.cpg/sg136_1_cif.got.tgz:1569.got - 2010.04.06 18:39:43.
