data_PCOD8317494
_publ_section_title
;
Structure prediction by ZEFSAII (Michael W. Deem and Ramdas Pophale) SiO2 
 PCOD8317494
Probable space group: P 42/M B C
;
_chemical_formula_sum "Si O2"
_cell_formula_units_Z 104
_cell_length_a 16.627159
_cell_length_b 16.627159
_cell_length_c 19.945294
_cell_angle_alpha 90.000000
_cell_angle_beta 90.000000
_cell_angle_gamma 90.000000
_cell_volume 5514.124175
_symmetry_space_group_name_H-M "P 42/M B C"
_symmetry_group_IT_number 135
_symmetry_cell_setting 'tetragonal'
loop_
_space_group_symop_operation_xyz
x,y,z
-y,x,1/2+z
-x,-y,z
y,-x,1/2+z
1/2+x,1/2-y,-z
1/2-x,1/2+y,-z
1/2+y,1/2+x,1/2-z
1/2-y,1/2-x,1/2-z
-x,-y,-z
y,-x,1/2-z
x,y,-z
-y,x,1/2-z
1/2-x,1/2+y,z
1/2+x,1/2-y,z
1/2-y,1/2-x,1/2+z
1/2+y,1/2+x,1/2+z
loop_
_atom_site_type_symbol
_atom_site_label
_atom_site_fract_x
_atom_site_fract_y
_atom_site_fract_z
Si Si1 0.784677 0.637763 0.127524
Si Si2 0.404140 0.380353 0.500000
Si Si3 0.689215 0.580862 0.000000
Si Si4 0.957047 0.193757 0.000000
Si Si5 0.146956 0.187486 0.129976
Si Si6 0.831822 0.206099 0.768981
Si Si7 0.977706 0.257608 0.140537
Si Si8 0.075421 0.452199 0.327442
O O1 0.742657 0.591033 0.066557
O O2 0.806635 0.730232 0.111209
O O3 0.728684 0.642501 0.194201
O O4 0.865272 0.586788 0.139305
O O5 0.499053 0.363241 0.500000
O O6 0.375496 0.473634 0.500000
O O7 0.369549 0.338999 0.433376
O O8 0.628085 0.652917 0.000000
O O9 0.958434 0.254502 0.937967
O O10 0.175330 0.140502 0.196241
O O11 0.055656 0.203677 0.149954
O O12 0.789336 0.289336 0.750000
O O13 0.907509 0.218422 0.816148
O O14 0.990298 0.348653 0.162457
O O15 0.061291 0.438710 0.250000
O O16 0.000000 0.500000 0.359674
#
# Coordination Sequence:
#
# PCOD8317494 Si02
#       8
#    16   8   8   8  16  16  16  16
#     4  10  20  39  59  86 118 160 203 250 310 362
#     4  10  22  37  57  88 117 159 196 248 309 362
#     4  12  22  37  62  87 120 159 200 268 299 352
#     4  10  21  42  61  83 121 166 210 241 309 375
#     4   9  20  38  58  82 121 156 196 246 301 368
#     4  10  20  35  60  89 115 152 208 255 289 363
#     4  10  20  39  63  86 118 167 203 246 307 373
#     4  10  22  39  61  90 126 164 199 257 317 374
#
# _framework density 18.860655999999999
#
# number of rings (size 3 to 8) (size 9 to 14) (size 15 to 20)
#    0.000    2.000    1.538    3.000    2.154    4.308 
#    2.769    1.538    0.000    0.000    0.000    0.000 
#    0.000    0.000    0.000    0.000    0.000    0.000 
#
# Total GULP energy -1288987.064894 kJ/mol
# GULP energy per Si atom -12394.106393 kJ/mol
# Density = 1.881773 g / cm^3
# Si number density = 18.860656 Si / 1000 Ang^3
#
#
#
# Elastic Constant Matrix: (Units=GPa)
#
#
# Indices 1 2 3 4 5 6 
#
# 1 73.9174 53.2205 46.5982 0.0000 0.0000 0.0000
# 2 53.2205 73.9167 46.5991 0.0000 0.0000 0.0000
# 3 46.5982 46.5991 133.7917 0.0000 0.0000 0.0000
# 4 0.0000 0.0000 0.0000 32.8265 0.0000 0.0000
# 5 0.0000 0.0000 0.0000 0.0000 32.8264 0.0000
# 6 0.0000 0.0000 0.0000 0.0000 0.0000 24.5093
#
#
#
# Elastic Compliance Matrix: (Units=1/GPa)
#
#
# Indices 1 2 3 4 5 6 
#
# 1 0.029439 -0.018878 -0.003678 0.000000 0.000000 0.000000
# 2 -0.018878 0.029440 -0.003679 0.000000 0.000000 0.000000
# 3 -0.003678 -0.003679 0.010037 0.000000 0.000000 0.000000
# 4 0.000000 0.000000 0.000000 0.030463 0.000000 0.000000
# 5 0.000000 0.000000 0.000000 0.000000 0.030463 0.000000
# 6 0.000000 0.000000 0.000000 0.000000 0.000000 0.040801
#
#
# Mechanical properties :
#
#
# Convention : Reuss Voigt Hill
#
# Bulk Modulus (GPa) = 60.80403 63.82904 62.31653
# Shear Modulus (GPa) = 21.87268 27.04629 24.45949
#
# Velocity S-wave (km/s) = 3.40913 3.79094 3.60509
# Velocity P-wave (km/s) = 6.91410 7.28543 7.10219
#
# Compressibility (1/GPa) = 0.01644628
#
# Stress axis : x y z
#
# Youngs Moduli (GPa) = 33.96814 33.96737 99.63282
#
# Poissons Ratio (x) = 0.64122 0.36649
# Poissons Ratio (y) = 0.64123 0.36655
# Poissons Ratio (z) = 0.12495 0.12497
#
# Static dielectric constant tensor:
#      x y z
#    x 3.518800 0.000000 0.000000 
#    y 0.000000 3.518800 0.000000 
#    z 0.000000 0.000000 3.514190 
# 
# 
# High freq. dielectric constant tensor:
#      x y z
#    x 1.727170 0.000000 0.000000 
#    y 0.000000 1.727170 0.000000 
#    z 0.000000 0.000000 1.746200 
# 
# From -- ./inp_files/4582.got.cif
#   From: 2010.03.12/outbox.cif.g09.slc.cpg/sg135_3_cif.got.tgz:4582.got - 2010.04.06 18:31:24.
