data_PCOD8317836
_publ_section_title
;
Structure prediction by ZEFSAII (Michael W. Deem and Ramdas Pophale) SiO2 
 PCOD8317836
Probable space group: P 42/M N M
;
_chemical_formula_sum "Si O2"
_cell_formula_units_Z 84
_cell_length_a 24.494374
_cell_length_b 24.494374
_cell_length_c 9.563572
_cell_angle_alpha 90.000000
_cell_angle_beta 90.000000
_cell_angle_gamma 90.000000
_cell_volume 5737.897968
_symmetry_space_group_name_H-M "P 42/M N M"
_symmetry_group_IT_number 136
_symmetry_cell_setting 'tetragonal'
loop_
_space_group_symop_operation_xyz
x,y,z
1/2-y,1/2+x,1/2+z
-x,-y,z
1/2+y,1/2-x,1/2+z
1/2+x,1/2-y,1/2-z
1/2-x,1/2+y,1/2-z
y,x,-z
-y,-x,-z
-x,-y,-z
1/2+y,1/2-x,1/2-z
x,y,-z
1/2-y,1/2+x,1/2-z
1/2-x,1/2+y,1/2+z
1/2+x,1/2-y,1/2+z
-y,-x,z
y,x,z
loop_
_atom_site_type_symbol
_atom_site_label
_atom_site_fract_x
_atom_site_fract_y
_atom_site_fract_z
Si Si1 0.000000 0.500000 0.250000
Si Si2 0.204028 0.447286 0.664506
Si Si3 0.085099 0.414279 0.658582
Si Si4 0.321695 0.763451 0.339752
Si Si5 0.755026 0.160308 0.835566
Si Si6 0.564900 0.192060 0.336433
O O1 0.962759 0.459440 0.158021
O O2 0.201906 0.443614 0.500000
O O3 0.143007 0.435137 0.720177
O O4 0.248464 0.402343 0.717434
O O5 0.221797 0.508370 0.710202
O O6 0.091147 0.393172 0.500000
O O7 0.067864 0.364442 0.755283
O O8 0.312015 0.781668 0.500000
O O9 0.297779 0.702222 0.315767
O O10 0.291433 0.805408 0.240167
O O11 0.385880 0.766057 0.302102
O O12 0.815064 0.184937 0.798311
O O13 0.743834 0.165489 0.000000
O O14 0.563600 0.176960 0.500000
#
# Coordination Sequence:
#
# PCOD8317836 Si02
#       6
#     4  16  16  16  16  16
#     4  12  22  32  40  54  78 116 148 174 206 228
#     4   9  17  29  41  57  79 103 131 168 203 234
#     4  11  21  31  42  56  78 106 143 179 202 231
#     4   9  17  28  43  62  81 102 131 165 203 247
#     4   9  16  27  44  61  77 100 131 167 207 244
#     4  10  19  31  44  58  81 108 134 168 208 241
#
# _framework density 14.639507
#
# number of rings (size 3 to 8) (size 9 to 14) (size 15 to 20)
#    0.000    2.286    3.810    0.286    0.000    0.762 
#    0.000    0.952    0.000    0.000    0.000    0.000 
#    0.000    0.762    0.000   10.667    0.000    0.000 
#
# Total GULP energy -1040656.190299 kJ/mol
# GULP energy per Si atom -12388.764170 kJ/mol
# Density = 1.460619 g / cm^3
# Si number density = 14.639507 Si / 1000 Ang^3
#
#
#
# Elastic Constant Matrix: (Units=GPa)
#
#
# Indices 1 2 3 4 5 6 
#
# 1 96.6565 65.2431 18.8594 0.0000 0.0000 0.0000
# 2 65.2431 96.6565 18.8594 0.0000 0.0000 0.0000
# 3 18.8594 18.8594 30.3643 0.0000 0.0000 0.0000
# 4 0.0000 0.0000 0.0000 12.7569 0.0000 0.0000
# 5 0.0000 0.0000 0.0000 0.0000 12.7569 0.0000
# 6 0.0000 0.0000 0.0000 0.0000 0.0000 27.6760
#
#
#
# Elastic Compliance Matrix: (Units=1/GPa)
#
#
# Indices 1 2 3 4 5 6 
#
# 1 0.019528 -0.012306 -0.004485 0.000000 0.000000 0.000000
# 2 -0.012306 0.019528 -0.004485 0.000000 0.000000 0.000000
# 3 -0.004485 -0.004485 0.038505 0.000000 0.000000 0.000000
# 4 0.000000 0.000000 0.000000 0.078389 0.000000 0.000000
# 5 0.000000 0.000000 0.000000 0.000000 0.078389 0.000000
# 6 0.000000 0.000000 0.000000 0.000000 0.000000 0.036132
#
#
# Mechanical properties :
#
#
# Convention : Reuss Voigt Hill
#
# Bulk Modulus (GPa) = 28.56579 47.73346 38.14962
# Shear Modulus (GPa) = 15.39916 18.68566 17.04241
#
# Velocity S-wave (km/s) = 3.24680 3.57653 3.41565
# Velocity P-wave (km/s) = 5.79748 7.05210 6.45534
#
# Compressibility (1/GPa) = 0.03500691
#
# Stress axis : x y z
#
# Youngs Moduli (GPa) = 51.20956 51.20956 25.97053
#
# Poissons Ratio (x) = 0.63018 0.11649
# Poissons Ratio (y) = 0.63018 0.11649
# Poissons Ratio (z) = 0.22970 0.22970
#
# Static dielectric constant tensor:
#      x y z
#    x 3.138250 0.000000 0.000000 
#    y 0.000000 3.138250 0.000000 
#    z 0.000000 0.000000 2.738080 
# 
# 
# High freq. dielectric constant tensor:
#      x y z
#    x 1.544130 0.000000 0.000000 
#    y 0.000000 1.544130 0.000000 
#    z 0.000000 0.000000 1.549710 
# 
# From -- ./inp_files/1869.got.cif
#   From: 2010.03.12/outbox.cif.g09.slc.cpg/sg136_1_cif.got.tgz:1869.got - 2010.04.06 18:39:43.
