data_PCOD8317050
_publ_section_title
;
Structure prediction by ZEFSAII (Michael W. Deem and Ramdas Pophale) SiO2 
 PCOD8317050
Probable space group: P 42/N B C
;
_chemical_formula_sum "Si O2"
_cell_formula_units_Z 64
_cell_length_a 12.709926
_cell_length_b 12.709926
_cell_length_c 17.940444
_cell_angle_alpha 90.000000
_cell_angle_beta 90.000000
_cell_angle_gamma 90.000000
_cell_volume 2898.139132
_symmetry_space_group_name_H-M "P 42/N B C"
_symmetry_group_IT_number 133
_space_group.IT_coordinate_system_code '2'
_symmetry_cell_setting 'tetragonal'
loop_
_space_group_symop_operation_xyz
x,y,z
1/2-y,x,1/2+z
1/2-x,1/2-y,z
y,1/2-x,1/2+z
x,1/2-y,-z
1/2-x,y,-z
y,x,1/2-z
1/2-y,1/2-x,1/2-z
-x,-y,-z
1/2+y,-x,1/2-z
1/2+x,1/2+y,-z
-y,1/2+x,1/2-z
-x,1/2+y,z
1/2+x,-y,z
-y,-x,1/2+z
1/2+y,1/2+x,1/2+z
loop_
_atom_site_type_symbol
_atom_site_label
_atom_site_fract_x
_atom_site_fract_y
_atom_site_fract_z
Si Si1 0.123480 0.751878 0.178288
Si Si2 0.149194 0.061101 0.961399
Si Si3 0.574215 0.143449 0.034392
Si Si4 0.882858 0.025626 0.196835
O O1 0.250000 0.750000 0.182896
O O2 0.088381 0.844242 0.122687
O O3 0.068325 0.783406 0.256342
O O4 0.073792 0.635608 0.159691
O O5 0.048241 0.128351 0.984416
O O6 0.155147 0.049293 0.871214
O O7 0.250000 0.117573 0.000000
O O8 0.144529 0.949198 0.002707
O O9 0.618972 0.250000 0.000000
O O10 0.967129 0.967129 0.250000
#
# Coordination Sequence:
#
# PCOD8317050 Si02
#       4
#    16  16  16  16
#     4  12  23  40  66  98 131 174 225 278 340 404
#     4  11  25  41  66  95 134 177 222 283 348 409
#     4  11  24  41  64  97 127 170 226 281 337 405
#     4  12  23  40  66  97 133 172 224 283 342 402
#
# _framework density 22.083137000000001
#
# number of rings (size 3 to 8) (size 9 to 14) (size 15 to 20)
#    0.000    0.500    7.500    1.500    0.000    0.500 
#    0.000    0.000    0.000    0.750    0.000    0.000 
#    0.000    0.000    0.000    0.000    0.000    0.000 
#
# Total GULP energy -792918.996639 kJ/mol
# GULP energy per Si atom -12389.359322 kJ/mol
# Density = 2.203287 g / cm^3
# Si number density = 22.083137 Si / 1000 Ang^3
#
#
#
# Elastic Constant Matrix: (Units=GPa)
#
#
# Indices 1 2 3 4 5 6 
#
# 1 76.1983 9.6652 14.8210 0.0000 0.0000 0.0000
# 2 9.6652 76.1983 14.8210 0.0000 0.0000 0.0000
# 3 14.8210 14.8210 108.9511 0.0000 0.0000 0.0000
# 4 0.0000 0.0000 0.0000 39.8696 0.0000 0.0000
# 5 0.0000 0.0000 0.0000 0.0000 39.8696 0.0000
# 6 0.0000 0.0000 0.0000 0.0000 0.0000 10.2334
#
#
#
# Elastic Compliance Matrix: (Units=1/GPa)
#
#
# Indices 1 2 3 4 5 6 
#
# 1 0.013625 -0.001405 -0.001662 0.000000 0.000000 0.000000
# 2 -0.001405 0.013625 -0.001662 0.000000 0.000000 0.000000
# 3 -0.001662 -0.001662 0.009631 0.000000 0.000000 0.000000
# 4 0.000000 0.000000 0.000000 0.025082 0.000000 0.000000
# 5 0.000000 0.000000 0.000000 0.000000 0.025082 0.000000
# 6 0.000000 0.000000 0.000000 0.000000 0.000000 0.097719
#
#
# Mechanical properties :
#
#
# Convention : Reuss Voigt Hill
#
# Bulk Modulus (GPa) = 36.46736 37.77358 37.12047
# Shear Modulus (GPa) = 24.58651 32.79722 28.69186
#
# Velocity S-wave (km/s) = 3.34033 3.85797 3.60844
# Velocity P-wave (km/s) = 5.60594 6.08174 5.84868
#
# Compressibility (1/GPa) = 0.02742179
#
# Stress axis : x y z
#
# Youngs Moduli (GPa) = 73.39342 73.39342 103.83452
#
# Poissons Ratio (x) = 0.10311 0.17261
# Poissons Ratio (y) = 0.10311 0.17261
# Poissons Ratio (z) = 0.12201 0.12201
#
# Static dielectric constant tensor:
#      x y z
#    x 4.039060 0.000000 0.000000 
#    y 0.000000 4.039060 0.000000 
#    z 0.000000 0.000000 4.413360 
# 
# 
# High freq. dielectric constant tensor:
#      x y z
#    x 1.855200 0.000000 0.000000 
#    y 0.000000 1.855200 0.000000 
#    z 0.000000 0.000000 1.891910 
# 
# From -- ./inp_files/6173.got.cif
#   From: 2010.03.12/outbox.cif.g09.slc.cpg/sg133_4_cif.got.tgz:6173.got - 2010.04.06 18:08:06.
