data_PCOD8317355
_publ_section_title
;
Structure prediction by ZEFSAII (Michael W. Deem and Ramdas Pophale) SiO2 
 PCOD8317355
Probable space group: P 42/M B C
;
_chemical_formula_sum "Si O2"
_cell_formula_units_Z 96
_cell_length_a 28.971789
_cell_length_b 28.971789
_cell_length_c 8.883091
_cell_angle_alpha 90.000000
_cell_angle_beta 90.000000
_cell_angle_gamma 90.000000
_cell_volume 7456.151750
_symmetry_space_group_name_H-M "P 42/M B C"
_symmetry_group_IT_number 135
_symmetry_cell_setting 'tetragonal'
loop_
_space_group_symop_operation_xyz
x,y,z
-y,x,1/2+z
-x,-y,z
y,-x,1/2+z
1/2+x,1/2-y,-z
1/2-x,1/2+y,-z
1/2+y,1/2+x,1/2-z
1/2-y,1/2-x,1/2-z
-x,-y,-z
y,-x,1/2-z
x,y,-z
-y,x,1/2-z
1/2-x,1/2+y,z
1/2+x,1/2-y,z
1/2-y,1/2-x,1/2+z
1/2+y,1/2+x,1/2+z
loop_
_atom_site_type_symbol
_atom_site_label
_atom_site_fract_x
_atom_site_fract_y
_atom_site_fract_z
Si Si1 0.807826 0.113837 0.830385
Si Si2 0.049477 0.125323 0.824141
Si Si3 0.753478 0.315385 0.322281
Si Si4 0.818571 0.746008 0.821557
Si Si5 0.122387 0.047036 0.825786
Si Si6 0.812924 0.889831 0.333053
O O1 0.828136 0.067648 0.754906
O O2 0.762541 0.131569 0.740915
O O3 0.846599 0.152932 0.826345
O O4 0.792970 0.102026 0.000000
O O5 0.998468 0.113581 0.769774
O O6 0.081280 0.081688 0.782589
O O7 0.049908 0.134672 0.000000
O O8 0.804296 0.304296 0.250000
O O9 0.751312 0.303501 0.500000
O O10 0.719003 0.283375 0.228219
O O11 0.738112 0.368904 0.295824
O O12 0.803470 0.696531 0.750000
O O13 0.820975 0.741812 0.000000
O O14 0.171477 0.070764 0.783546
O O15 0.123038 0.034025 0.000000
O O16 0.813476 0.911801 0.500000
#
# Coordination Sequence:
#
# PCOD8317355 Si02
#       6
#    16  16  16  16  16  16
#     4   9  16  27  40  53  69  87 108 134 165 202
#     4  10  20  32  44  56  69  86 109 140 180 222
#     4   9  15  22  33  50  70  91 111 131 157 190
#     4  10  16  22  33  50  71  92 112 131 155 189
#     4  10  20  31  43  56  67  84 110 141 179 220
#     4   8  15  26  38  51  68  88 107 131 164 201
#
# _framework density 12.875275
#
# number of rings (size 3 to 8) (size 9 to 14) (size 15 to 20)
#    0.000    2.667    0.000    5.500    0.000    7.000 
#    0.000    1.667    0.000    0.000    0.000    0.000 
#    0.000    0.000    0.000    0.000    0.000    0.000 
#
# Total GULP energy -1189596.831524 kJ/mol
# GULP energy per Si atom -12391.633662 kJ/mol
# Density = 1.284597 g / cm^3
# Si number density = 12.875275 Si / 1000 Ang^3
#
#
#
# Elastic Constant Matrix: (Units=GPa)
#
#
# Indices 1 2 3 4 5 6 
#
# 1 42.3567 42.0238 34.3603 0.0000 0.0000 0.0000
# 2 42.0238 42.3573 34.3604 0.0000 0.0000 0.0000
# 3 34.3603 34.3604 89.3265 0.0000 0.0000 0.0000
# 4 0.0000 0.0000 0.0000 19.8585 0.0000 0.0000
# 5 0.0000 0.0000 0.0000 0.0000 19.8584 0.0000
# 6 0.0000 0.0000 0.0000 0.0000 0.0000 12.8798
#
#
#
# Elastic Compliance Matrix: (Units=1/GPa)
#
#
# Indices 1 2 3 4 5 6 
#
# 1 1.509250 -1.491978 -0.006643 0.000000 0.000000 0.000000
# 2 -1.491978 1.509220 -0.006633 0.000000 0.000000 0.000000
# 3 -0.006643 -0.006633 0.016302 0.000000 0.000000 0.000000
# 4 0.000000 0.000000 0.000000 0.050356 0.000000 0.000000
# 5 0.000000 0.000000 0.000000 0.000000 0.050357 0.000000
# 6 0.000000 0.000000 0.000000 0.000000 0.000000 0.077641
#
#
# Mechanical properties :
#
#
# Convention : Reuss Voigt Hill
#
# Bulk Modulus (GPa) = 41.21405 43.94772 42.58089
# Shear Modulus (GPa) = 0.80235 14.73906 7.77070
#
# Velocity S-wave (km/s) = 0.79027 3.38710 2.45936
# Velocity P-wave (km/s) = 5.73693 7.03591 6.41937
#
# Compressibility (1/GPa) = 0.02426357
#
# Stress axis : x y z
#
# Youngs Moduli (GPa) = 0.66258 0.66259 61.34305
#
# Poissons Ratio (x) = 0.98858 0.40751
# Poissons Ratio (y) = 0.98856 0.40691
# Poissons Ratio (z) = 0.00440 0.00440
#
# Static dielectric constant tensor:
#      x y z
#    x 2.635600 0.000000 0.000000 
#    y 0.000000 2.635590 0.000000 
#    z 0.000000 0.000000 2.751480 
# 
# 
# High freq. dielectric constant tensor:
#      x y z
#    x 1.451970 0.000000 0.000000 
#    y 0.000000 1.451970 0.000000 
#    z 0.000000 0.000000 1.509750 
# 
# From -- ./inp_files/1386.got.cif
#   From: 2010.03.12/outbox.cif.g09.slc.cpg/sg135_1_cif.got.tgz:1386.got - 2010.04.06 18:31:24.
