data_PCOD8317043
_publ_section_title
;
Structure prediction by ZEFSAII (Michael W. Deem and Ramdas Pophale) SiO2 
 PCOD8317043
Probable space group: P 42/N B C
;
_chemical_formula_sum "Si O2"
_cell_formula_units_Z 96
_cell_length_a 14.677744
_cell_length_b 14.677744
_cell_length_c 20.198046
_cell_angle_alpha 90.000000
_cell_angle_beta 90.000000
_cell_angle_gamma 90.000000
_cell_volume 4351.389650
_symmetry_space_group_name_H-M "P 42/N B C"
_symmetry_group_IT_number 133
_space_group.IT_coordinate_system_code '2'
_symmetry_cell_setting 'tetragonal'
loop_
_space_group_symop_operation_xyz
x,y,z
1/2-y,x,1/2+z
1/2-x,1/2-y,z
y,1/2-x,1/2+z
x,1/2-y,-z
1/2-x,y,-z
y,x,1/2-z
1/2-y,1/2-x,1/2-z
-x,-y,-z
1/2+y,-x,1/2-z
1/2+x,1/2+y,-z
-y,1/2+x,1/2-z
-x,1/2+y,z
1/2+x,-y,z
-y,-x,1/2+z
1/2+y,1/2+x,1/2+z
loop_
_atom_site_type_symbol
_atom_site_label
_atom_site_fract_x
_atom_site_fract_y
_atom_site_fract_z
Si Si1 0.679430 0.125331 0.245441
Si Si2 0.250318 0.024558 0.573571
Si Si3 0.512416 0.222495 0.619077
Si Si4 0.910287 0.081463 0.622875
Si Si5 0.047071 0.959437 0.565085
Si Si6 0.175549 0.325902 0.674871
O O1 0.638787 0.221557 0.221423
O O2 0.682962 0.061001 0.183322
O O3 0.616107 0.082677 0.300897
O O4 0.250000 0.070375 0.500000
O O5 0.149348 0.986653 0.583493
O O6 0.281138 0.091137 0.632798
O O7 0.324410 0.941725 0.574612
O O8 0.547175 0.322374 0.598637
O O9 0.405236 0.221436 0.633564
O O10 0.536283 0.150151 0.561215
O O11 0.985113 0.001392 0.623395
O O12 0.000000 0.000000 0.500000
O O13 0.250000 0.250000 0.682401
O O14 0.145062 0.354939 0.750000
#
# Coordination Sequence:
#
# PCOD8317043 Si02
#       6
#    16  16  16  16  16  16
#     4   9  19  37  64 100 137 174 226 290 363 432
#     4  12  24  46  71  99 147 189 235 305 364 433
#     4  11  23  41  69  99 138 181 231 293 360 433
#     4  11  23  43  67 101 137 180 236 293 360 433
#     4  12  25  44  67 102 138 185 242 291 357 447
#     4  11  24  44  69 104 144 189 246 299 362 440
#
# _framework density 22.061917999999999
#
# number of rings (size 3 to 8) (size 9 to 14) (size 15 to 20)
#    0.000    1.000    3.333    3.000    0.000    4.333 
#    0.000    4.167    0.000    0.000    0.000    0.000 
#    0.000    0.000    0.000    0.000    0.000    0.000 
#
# Total GULP energy -1189924.919430 kJ/mol
# GULP energy per Si atom -12395.051244 kJ/mol
# Density = 2.201170 g / cm^3
# Si number density = 22.061918 Si / 1000 Ang^3
#
#
#
# Elastic Constant Matrix: (Units=GPa)
#
#
# Indices 1 2 3 4 5 6 
#
# 1 129.4826 35.9928 23.8261 0.0000 0.0000 0.0000
# 2 35.9928 129.4823 23.8260 0.0000 0.0000 0.0000
# 3 23.8261 23.8260 85.2713 0.0000 0.0000 0.0000
# 4 0.0000 0.0000 0.0000 36.3485 0.0000 0.0000
# 5 0.0000 0.0000 0.0000 0.0000 36.3485 0.0000
# 6 0.0000 0.0000 0.0000 0.0000 0.0000 42.6368
#
#
#
# Elastic Compliance Matrix: (Units=1/GPa)
#
#
# Indices 1 2 3 4 5 6 
#
# 1 0.008634 -0.002062 -0.001836 0.000000 0.000000 0.000000
# 2 -0.002062 0.008634 -0.001836 0.000000 0.000000 0.000000
# 3 -0.001836 -0.001836 0.012753 0.000000 0.000000 0.000000
# 4 0.000000 0.000000 0.000000 0.027511 0.000000 0.000000
# 5 0.000000 0.000000 0.000000 0.000000 0.027511 0.000000
# 6 0.000000 0.000000 0.000000 0.000000 0.000000 0.023454
#
#
# Mechanical properties :
#
#
# Convention : Reuss Voigt Hill
#
# Bulk Modulus (GPa) = 53.90193 56.83624 55.36908
# Shear Modulus (GPa) = 39.63460 40.43950 40.03705
#
# Velocity S-wave (km/s) = 4.24313 4.28600 4.26462
# Velocity P-wave (km/s) = 6.96353 7.09303 7.02858
#
# Compressibility (1/GPa) = 0.01855221
#
# Stress axis : x y z
#
# Youngs Moduli (GPa) = 115.81874 115.81854 78.41003
#
# Poissons Ratio (x) = 0.23884 0.14399
# Poissons Ratio (y) = 0.23884 0.14399
# Poissons Ratio (z) = 0.21268 0.21268
#
# Static dielectric constant tensor:
#      x y z
#    x 4.344870 0.000000 0.000000 
#    y 0.000000 4.344860 0.000000 
#    z 0.000000 0.000000 4.062200 
# 
# 
# High freq. dielectric constant tensor:
#      x y z
#    x 1.877430 0.000000 0.000000 
#    y 0.000000 1.877430 0.000000 
#    z 0.000000 0.000000 1.866130 
# 
# From -- ./inp_files/6547.got.cif
#   From: 2010.03.12/outbox.cif.g09.slc.cpg/sg133_4_cif.got.tgz:6547.got - 2010.04.06 18:08:06.
