data_PCOD8317492
_publ_section_title
;
Structure prediction by ZEFSAII (Michael W. Deem and Ramdas Pophale) SiO2 
 PCOD8317492
Probable space group: P 42/M B C
;
_chemical_formula_sum "Si O2"
_cell_formula_units_Z 112
_cell_length_a 13.976541
_cell_length_b 13.976541
_cell_length_c 26.917411
_cell_angle_alpha 90.000000
_cell_angle_beta 90.000000
_cell_angle_gamma 90.000000
_cell_volume 5258.146614
_symmetry_space_group_name_H-M "P 42/M B C"
_symmetry_group_IT_number 135
_symmetry_cell_setting 'tetragonal'
loop_
_space_group_symop_operation_xyz
x,y,z
-y,x,1/2+z
-x,-y,z
y,-x,1/2+z
1/2+x,1/2-y,-z
1/2-x,1/2+y,-z
1/2+y,1/2+x,1/2-z
1/2-y,1/2-x,1/2-z
-x,-y,-z
y,-x,1/2-z
x,y,-z
-y,x,1/2-z
1/2-x,1/2+y,z
1/2+x,1/2-y,z
1/2-y,1/2-x,1/2+z
1/2+y,1/2+x,1/2+z
loop_
_atom_site_type_symbol
_atom_site_label
_atom_site_fract_x
_atom_site_fract_y
_atom_site_fract_z
Si Si1 0.412876 0.862252 0.555522
Si Si2 0.962419 0.095251 0.610648
Si Si3 0.532031 0.803102 0.355691
Si Si4 0.759130 0.379439 0.349062
Si Si5 0.577315 0.248724 0.879626
Si Si6 0.355989 0.648306 0.445844
Si Si7 0.286538 0.839448 0.805203
O O1 0.444051 0.896026 0.500000
O O2 0.506283 0.851343 0.590918
O O3 0.335113 0.934952 0.579181
O O4 0.358715 0.762233 0.553312
O O5 0.852266 0.080353 0.592926
O O6 0.965351 0.188353 0.644629
O O7 0.037383 0.107761 0.565400
O O8 0.000000 0.000000 0.639928
O O9 0.633729 0.842307 0.338252
O O10 0.446684 0.824159 0.316548
O O11 0.757976 0.492566 0.338427
O O12 0.726524 0.377825 0.406875
O O13 0.680738 0.326867 0.313936
O O14 0.671448 0.233595 0.846292
O O15 0.325899 0.609110 0.500000
O O16 0.314990 0.814990 0.750000
#
# Coordination Sequence:
#
# PCOD8317492 Si02
#       7
#    16  16  16  16  16  16  16
#     4   9  19  37  58  85 122 166 212 250 297 362
#     4  11  18  36  63  89 127 164 209 258 313 363
#     4  10  21  40  64  89 123 168 206 260 317 375
#     4  12  22  41  64  92 128 166 206 258 318 379
#     4  11  22  39  63  91 124 169 204 258 320 376
#     4  10  20  35  57  90 128 168 210 253 305 367
#     4  11  24  44  65  90 123 155 208 268 323 388
#
# _framework density 21.300280000000001
#
# number of rings (size 3 to 8) (size 9 to 14) (size 15 to 20)
#    0.000    1.429    7.143    0.000    0.000    5.429 
#    0.000    4.286    0.000    0.000    0.000    0.000 
#    0.000    0.000    0.000    0.000    0.000    0.000 
#
# Total GULP energy -1387670.154396 kJ/mol
# GULP energy per Si atom -12389.912093 kJ/mol
# Density = 2.125180 g / cm^3
# Si number density = 21.300280 Si / 1000 Ang^3
#
#
#
# Elastic Constant Matrix: (Units=GPa)
#
#
# Indices 1 2 3 4 5 6 
#
# 1 98.5366 22.4956 16.9757 0.0000 0.0000 0.0000
# 2 22.4956 98.5366 16.9757 0.0000 0.0000 0.0000
# 3 16.9757 16.9757 95.9025 0.0000 0.0000 0.0000
# 4 0.0000 0.0000 0.0000 14.4377 0.0000 0.0000
# 5 0.0000 0.0000 0.0000 0.0000 14.4377 0.0000
# 6 0.0000 0.0000 0.0000 0.0000 0.0000 33.8650
#
#
#
# Elastic Compliance Matrix: (Units=1/GPa)
#
#
# Indices 1 2 3 4 5 6 
#
# 1 0.010922 -0.002228 -0.001539 0.000000 0.000000 0.000000
# 2 -0.002228 0.010922 -0.001539 0.000000 0.000000 0.000000
# 3 -0.001539 -0.001539 0.010972 0.000000 0.000000 0.000000
# 4 0.000000 0.000000 0.000000 0.069263 0.000000 0.000000
# 5 0.000000 0.000000 0.000000 0.000000 0.069263 0.000000
# 6 0.000000 0.000000 0.000000 0.000000 0.000000 0.029529
#
#
# Mechanical properties :
#
#
# Convention : Reuss Voigt Hill
#
# Bulk Modulus (GPa) = 45.03630 45.09663 45.06647
# Shear Modulus (GPa) = 22.84290 28.31665 25.57977
#
# Velocity S-wave (km/s) = 3.27834 3.65005 3.46918
# Velocity P-wave (km/s) = 5.95982 6.24353 6.10332
#
# Compressibility (1/GPa) = 0.02220431
#
# Stress axis : x y z
#
# Youngs Moduli (GPa) = 91.55514 91.55514 91.14054
#
# Poissons Ratio (x) = 0.20402 0.14026
# Poissons Ratio (y) = 0.20402 0.14026
# Poissons Ratio (z) = 0.14090 0.14090
#
# Static dielectric constant tensor:
#      x y z
#    x 4.070700 0.000000 0.000000 
#    y 0.000000 4.070700 0.000000 
#    z 0.000000 0.000000 3.579200 
# 
# 
# High freq. dielectric constant tensor:
#      x y z
#    x 1.844260 0.000000 0.000000 
#    y 0.000000 1.844260 0.000000 
#    z 0.000000 0.000000 1.786090 
# 
# From -- ./inp_files/6881.got.cif
#   From: 2010.03.12/outbox.cif.g09.slc.cpg/sg135_4_cif.got.tgz:6881.got - 2010.04.06 18:31:24.
