data_PCOD8317038
_publ_section_title
;
Structure prediction by ZEFSAII (Michael W. Deem and Ramdas Pophale) SiO2 
 PCOD8317038
Probable space group: P 42/N B C
;
_chemical_formula_sum "Si O2"
_cell_formula_units_Z 112
_cell_length_a 14.715955
_cell_length_b 14.715955
_cell_length_c 23.703698
_cell_angle_alpha 90.000000
_cell_angle_beta 90.000000
_cell_angle_gamma 90.000000
_cell_volume 5133.256994
_symmetry_space_group_name_H-M "P 42/N B C"
_symmetry_group_IT_number 133
_space_group.IT_coordinate_system_code '2'
_symmetry_cell_setting 'tetragonal'
loop_
_space_group_symop_operation_xyz
x,y,z
1/2-y,x,1/2+z
1/2-x,1/2-y,z
y,1/2-x,1/2+z
x,1/2-y,-z
1/2-x,y,-z
y,x,1/2-z
1/2-y,1/2-x,1/2-z
-x,-y,-z
1/2+y,-x,1/2-z
1/2+x,1/2+y,-z
-y,1/2+x,1/2-z
-x,1/2+y,z
1/2+x,-y,z
-y,-x,1/2+z
1/2+y,1/2+x,1/2+z
loop_
_atom_site_type_symbol
_atom_site_label
_atom_site_fract_x
_atom_site_fract_y
_atom_site_fract_z
Si Si1 0.642946 0.647590 0.503761
Si Si2 0.276122 0.002929 0.654482
Si Si3 0.095221 0.428101 0.391526
Si Si4 0.914293 0.549752 0.114387
Si Si5 0.341356 0.793908 0.063695
Si Si6 0.241419 0.889531 0.759517
Si Si7 0.536639 0.278460 0.622555
O O1 0.600077 0.750000 0.500000
O O2 0.750000 0.658089 0.500000
O O3 0.615525 0.574733 0.457281
O O4 0.605051 0.595439 0.557082
O O5 0.276159 0.926148 0.604817
O O6 0.269099 0.970552 0.718596
O O7 0.186185 0.061492 0.644465
O O8 0.367168 0.064684 0.656928
O O9 0.018697 0.502468 0.381225
O O10 0.059303 0.328429 0.376199
O O11 0.827946 0.485953 0.124567
O O12 0.250000 0.750000 0.089459
O O13 0.315102 0.902190 0.068927
O O14 0.357930 0.750000 0.000000
O O15 0.330536 0.831622 0.774868
O O16 0.195521 0.915703 0.818664
#
# Coordination Sequence:
#
# PCOD8317038 Si02
#       7
#    16  16  16  16  16  16  16
#     4  11  23  42  68  94 135 197 234 285 353 441
#     4  12  26  44  71 109 137 196 236 297 368 429
#     4  12  25  43  69 100 146 185 245 296 361 432
#     4  12  25  45  69 100 147 183 246 293 369 431
#     4  11  24  44  70 101 142 176 243 304 354 416
#     4  11  22  44  76 101 141 184 248 304 367 425
#     4  12  26  46  69 109 140 193 241 301 365 438
#
# _framework density 21.818504999999998
#
# number of rings (size 3 to 8) (size 9 to 14) (size 15 to 20)
#    0.000    0.429    5.714    3.000    2.000    5.143 
#    0.000    2.857    0.000    1.714    0.000    0.000 
#    0.000    0.000    0.000    0.000    0.000    0.000 
#
# Total GULP energy -1387644.598617 kJ/mol
# GULP energy per Si atom -12389.683916 kJ/mol
# Density = 2.176885 g / cm^3
# Si number density = 21.818505 Si / 1000 Ang^3
#
#
#
# Elastic Constant Matrix: (Units=GPa)
#
#
# Indices 1 2 3 4 5 6 
#
# 1 75.8908 21.2425 19.5276 0.0000 0.0000 0.0000
# 2 21.2425 75.8908 19.5276 0.0000 0.0000 0.0000
# 3 19.5276 19.5276 89.0617 0.0000 0.0000 0.0000
# 4 0.0000 0.0000 0.0000 20.3030 0.0000 0.0000
# 5 0.0000 0.0000 0.0000 0.0000 20.3030 0.0000
# 6 0.0000 0.0000 0.0000 0.0000 0.0000 34.7944
#
#
#
# Elastic Compliance Matrix: (Units=1/GPa)
#
#
# Indices 1 2 3 4 5 6 
#
# 1 0.014795 -0.003504 -0.002476 0.000000 0.000000 0.000000
# 2 -0.003504 0.014795 -0.002476 0.000000 0.000000 0.000000
# 3 -0.002476 -0.002476 0.012314 0.000000 0.000000 0.000000
# 4 0.000000 0.000000 0.000000 0.049254 0.000000 0.000000
# 5 0.000000 0.000000 0.000000 0.000000 0.049254 0.000000
# 6 0.000000 0.000000 0.000000 0.000000 0.000000 0.028740
#
#
# Mechanical properties :
#
#
# Convention : Reuss Voigt Hill
#
# Bulk Modulus (GPa) = 40.01192 40.15985 40.08588
# Shear Modulus (GPa) = 25.72118 27.11646 26.41882
#
# Velocity S-wave (km/s) = 3.43719 3.52919 3.48349
# Velocity P-wave (km/s) = 5.84215 5.92057 5.88149
#
# Compressibility (1/GPa) = 0.02499255
#
# Stress axis : x y z
#
# Youngs Moduli (GPa) = 67.59197 67.59197 81.21008
#
# Poissons Ratio (x) = 0.23685 0.20104
# Poissons Ratio (y) = 0.23685 0.20104
# Poissons Ratio (z) = 0.16733 0.16733
#
# Static dielectric constant tensor:
#      x y z
#    x 4.154160 0.000000 0.000000 
#    y 0.000000 4.154160 0.000000 
#    z 0.000000 0.000000 3.791740 
# 
# 
# High freq. dielectric constant tensor:
#      x y z
#    x 1.869070 0.000000 0.000000 
#    y 0.000000 1.869070 0.000000 
#    z 0.000000 0.000000 1.841820 
# 
# From -- ./inp_files/7250.got.cif
#   From: 2010.03.12/outbox.cif.g09.slc.cpg/sg133_4_cif.got.tgz:7250.got - 2010.04.06 18:08:06.
