data_PCOD8317989
_publ_section_title
;
Structure prediction by ZEFSAII (Michael W. Deem and Ramdas Pophale) SiO2 
 PCOD8317989
Probable space group: P 42/M N M
;
_chemical_formula_sum "Si O2"
_cell_formula_units_Z 72
_cell_length_a 25.379771
_cell_length_b 25.379771
_cell_length_c 7.632914
_cell_angle_alpha 90.000000
_cell_angle_beta 90.000000
_cell_angle_gamma 90.000000
_cell_volume 4916.610084
_symmetry_space_group_name_H-M "P 42/M N M"
_symmetry_group_IT_number 136
_symmetry_cell_setting 'tetragonal'
loop_
_space_group_symop_operation_xyz
x,y,z
1/2-y,1/2+x,1/2+z
-x,-y,z
1/2+y,1/2-x,1/2+z
1/2+x,1/2-y,1/2-z
1/2-x,1/2+y,1/2-z
y,x,-z
-y,-x,-z
-x,-y,-z
1/2+y,1/2-x,1/2-z
x,y,-z
1/2-y,1/2+x,1/2-z
1/2-x,1/2+y,1/2+z
1/2+x,1/2-y,1/2+z
-y,-x,z
y,x,z
loop_
_atom_site_type_symbol
_atom_site_label
_atom_site_fract_x
_atom_site_fract_y
_atom_site_fract_z
Si Si1 0.188840 0.099393 0.500000
Si Si2 0.340796 0.521482 0.292306
Si Si3 0.315213 0.773462 0.000000
Si Si4 0.959206 0.959206 0.206245
Si Si5 0.680752 0.597219 0.293481
Si Si6 0.824374 0.263832 0.306679
O O1 0.139867 0.139867 0.500000
O O2 0.244787 0.128886 0.500000
O O3 0.189869 0.064563 0.323022
O O4 0.332411 0.532858 0.500000
O O5 0.401122 0.525816 0.233196
O O6 0.322473 0.463387 0.235542
O O7 0.310179 0.811205 0.169963
O O8 0.269639 0.730362 0.000000
O O9 0.963511 0.963511 0.000000
O O10 0.000000 0.000000 0.294334
O O11 0.678781 0.601530 0.500000
O O12 0.631624 0.631624 0.216590
O O13 0.736872 0.618967 0.226323
O O14 0.822972 0.289020 0.500000
O O15 0.781911 0.218090 0.283949
#
# Coordination Sequence:
#
# PCOD8317989 Si02
#       6
#     8  16   8   8  16  16
#     4  11  22  34  46  60  84 120 162 194 220 255
#     4  10  20  32  44  61  86 118 154 190 226 265
#     4   9  18  32  46  60  82 109 143 189 225 263
#     4   9  16  29  45  57  80 117 159 198 229 255
#     4   9  16  28  46  65  89 114 141 184 235 274
#     4   9  16  27  44  66  85 102 133 180 231 275
#
# _framework density 14.644237
#
# number of rings (size 3 to 8) (size 9 to 14) (size 15 to 20)
#    0.000    2.556    2.222    0.667    1.556    3.556 
#    0.000    4.444    0.000    0.000    0.000    0.000 
#    0.000    0.000    0.000    0.000    0.000    3.333 
#
# Total GULP energy -892450.348578 kJ/mol
# GULP energy per Si atom -12395.143730 kJ/mol
# Density = 1.461091 g / cm^3
# Si number density = 14.644237 Si / 1000 Ang^3
#
#
#
# Elastic Constant Matrix: (Units=GPa)
#
#
# Indices 1 2 3 4 5 6 
#
# 1 72.5401 58.5311 46.4921 0.0000 0.0000 0.0000
# 2 58.5311 72.5401 46.4919 0.0000 0.0000 0.0000
# 3 46.4921 46.4919 79.0709 0.0000 0.0000 0.0000
# 4 0.0000 0.0000 0.0000 12.4891 0.0000 0.0000
# 5 0.0000 0.0000 0.0000 0.0000 12.4889 0.0000
# 6 0.0000 0.0000 0.0000 0.0000 0.0000 30.9131
#
#
#
# Elastic Compliance Matrix: (Units=1/GPa)
#
#
# Indices 1 2 3 4 5 6 
#
# 1 0.042236 -0.029147 -0.007696 0.000000 0.000000 0.000000
# 2 -0.029147 0.042236 -0.007696 0.000000 0.000000 0.000000
# 3 -0.007696 -0.007696 0.021697 0.000000 0.000000 0.000000
# 4 0.000000 0.000000 0.000000 0.080070 0.000000 0.000000
# 5 0.000000 0.000000 0.000000 0.000000 0.080071 0.000000
# 6 0.000000 0.000000 0.000000 0.000000 0.000000 0.032349
#
#
# Mechanical properties :
#
#
# Convention : Reuss Voigt Hill
#
# Bulk Modulus (GPa) = 58.51038 58.57569 58.54303
# Shear Modulus (GPa) = 12.70860 16.02061 14.36461
#
# Velocity S-wave (km/s) = 2.94908 3.31114 3.13534
# Velocity P-wave (km/s) = 7.18592 7.39622 7.29183
#
# Compressibility (1/GPa) = 0.01709098
#
# Stress axis : x y z
#
# Youngs Moduli (GPa) = 23.67640 23.67653 46.08869
#
# Poissons Ratio (x) = 0.69009 0.35472
# Poissons Ratio (y) = 0.69009 0.35470
# Poissons Ratio (z) = 0.18222 0.18222
#
# Static dielectric constant tensor:
#      x y z
#    x 2.752800 0.000000 0.000000 
#    y 0.000000 2.752790 0.000000 
#    z 0.000000 0.000000 2.911980 
# 
# 
# High freq. dielectric constant tensor:
#      x y z
#    x 1.525590 0.000000 0.000000 
#    y 0.000000 1.525590 0.000000 
#    z 0.000000 0.000000 1.573040 
# 
# From -- ./inp_files/1790.got.cif
#   From: 2010.03.12/outbox.cif.g09.slc.cpg/sg136_1_cif.got.tgz:1790.got - 2010.04.06 18:39:43.
