data_PCOD8317724
_publ_section_title
;
Structure prediction by ZEFSAII (Michael W. Deem and Ramdas Pophale) SiO2 
 PCOD8317724
Probable space group: P 42/M N M
;
_chemical_formula_sum "Si O2"
_cell_formula_units_Z 128
_cell_length_a 17.109216
_cell_length_b 17.109216
_cell_length_c 24.394875
_cell_angle_alpha 90.000000
_cell_angle_beta 90.000000
_cell_angle_gamma 90.000000
_cell_volume 7140.996423
_symmetry_space_group_name_H-M "P 42/M N M"
_symmetry_group_IT_number 136
_symmetry_cell_setting 'tetragonal'
loop_
_space_group_symop_operation_xyz
x,y,z
1/2-y,1/2+x,1/2+z
-x,-y,z
1/2+y,1/2-x,1/2+z
1/2+x,1/2-y,1/2-z
1/2-x,1/2+y,1/2-z
y,x,-z
-y,-x,-z
-x,-y,-z
1/2+y,1/2-x,1/2-z
x,y,-z
1/2-y,1/2+x,1/2-z
1/2-x,1/2+y,1/2+z
1/2+x,1/2-y,1/2+z
-y,-x,z
y,x,z
loop_
_atom_site_type_symbol
_atom_site_label
_atom_site_fract_x
_atom_site_fract_y
_atom_site_fract_z
Si Si1 0.938533 0.604684 0.870259
Si Si2 0.573055 0.307580 0.763274
Si Si3 0.565605 0.109184 0.131414
Si Si4 0.096139 0.219857 0.609768
Si Si5 0.404246 0.277859 0.776032
Si Si6 0.318890 0.805661 0.438425
Si Si7 0.424488 0.300792 0.901923
Si Si8 0.638781 0.892116 0.752752
O O1 0.899487 0.523294 0.890365
O O2 0.891407 0.676342 0.897900
O O3 0.936983 0.603076 0.804397
O O4 0.030341 0.611348 0.886370
O O5 0.616642 0.383359 0.738965
O O6 0.585997 0.303376 0.827844
O O7 0.481513 0.316476 0.750047
O O8 0.610829 0.231395 0.736108
O O9 0.606867 0.185661 0.104143
O O10 0.561306 0.119299 0.197325
O O11 0.170918 0.170918 0.585526
O O12 0.015168 0.195000 0.579627
O O13 0.331215 0.331215 0.761080
O O14 0.414505 0.264917 0.840895
O O15 0.393391 0.195149 0.746996
O O16 0.351262 0.794026 0.500000
O O17 0.272707 0.727293 0.418489
O O18 0.257583 0.877215 0.440866
O O19 0.388165 0.388165 0.904350
#
# Coordination Sequence:
#
# PCOD8317724 Si02
#       8
#    16  16  16  16  16  16  16  16
#     4  11  19  32  49  68  99 127 162 202 247 296
#     4   9  18  28  40  62  90 122 159 196 231 275
#     4  10  20  30  45  71  98 131 165 196 237 289
#     4   9  16  29  45  65  96 127 161 198 234 282
#     4  10  18  28  44  63  88 123 160 195 235 281
#     4  10  20  34  53  75  98 126 162 208 258 299
#     4   9  16  29  47  68  92 123 163 203 246 287
#     4  11  18  29  44  68  97 127 162 198 236 283
#
# _framework density 17.924669000000002
#
# number of rings (size 3 to 8) (size 9 to 14) (size 15 to 20)
#    0.000    2.125    2.500    3.375    0.000    2.500 
#    0.000    3.750    0.000    0.375    0.000    1.750 
#    0.000    0.500    0.000    1.375    0.000    1.250 
#
# Total GULP energy -1586459.877747 kJ/mol
# GULP energy per Si atom -12394.217795 kJ/mol
# Density = 1.788387 g / cm^3
# Si number density = 17.924669 Si / 1000 Ang^3
#
#
#
# Elastic Constant Matrix: (Units=GPa)
#
#
# Indices 1 2 3 4 5 6 
#
# 1 88.3771 43.8377 14.9230 0.0000 0.0000 0.0000
# 2 43.8377 88.3771 14.9230 0.0000 0.0000 0.0000
# 3 14.9230 14.9230 27.1713 0.0000 0.0000 0.0000
# 4 0.0000 0.0000 0.0000 9.0718 0.0000 0.0000
# 5 0.0000 0.0000 0.0000 0.0000 9.0718 0.0000
# 6 0.0000 0.0000 0.0000 0.0000 0.0000 27.2737
#
#
#
# Elastic Compliance Matrix: (Units=1/GPa)
#
#
# Indices 1 2 3 4 5 6 
#
# 1 0.015543 -0.006909 -0.004742 0.000000 0.000000 0.000000
# 2 -0.006909 0.015543 -0.004742 0.000000 0.000000 0.000000
# 3 -0.004742 -0.004742 0.042012 0.000000 0.000000 0.000000
# 4 0.000000 0.000000 0.000000 0.110232 0.000000 0.000000
# 5 0.000000 0.000000 0.000000 0.000000 0.110232 0.000000
# 6 0.000000 0.000000 0.000000 0.000000 0.000000 0.036665
#
#
# Mechanical properties :
#
#
# Convention : Reuss Voigt Hill
#
# Bulk Modulus (GPa) = 24.80629 39.03254 31.91941
# Shear Modulus (GPa) = 13.28199 17.76625 15.52412
#
# Velocity S-wave (km/s) = 2.72506 3.15169 2.94611
# Velocity P-wave (km/s) = 4.87550 5.92177 5.42392
#
# Compressibility (1/GPa) = 0.04031236
#
# Stress axis : x y z
#
# Youngs Moduli (GPa) = 64.33783 64.33783 23.80265
#
# Poissons Ratio (x) = 0.44451 0.11287
# Poissons Ratio (y) = 0.44451 0.11287
# Poissons Ratio (z) = 0.30508 0.30508
#
# Static dielectric constant tensor:
#      x y z
#    x 3.473590 0.000000 0.000000 
#    y 0.000000 3.473590 0.000000 
#    z 0.000000 0.000000 2.830710 
# 
# 
# High freq. dielectric constant tensor:
#      x y z
#    x 1.690680 0.000000 0.000000 
#    y 0.000000 1.690680 0.000000 
#    z 0.000000 0.000000 1.636750 
# 
# From -- ./inp_files/8669.got.cif
#   From: 2010.03.12/outbox.cif.g09.slc.cpg/sg136_5_cif.got.tgz:8669.got - 2010.04.06 18:39:43.
