data_PCOD8317117
_publ_section_title
;
Structure prediction by ZEFSAII (Michael W. Deem and Ramdas Pophale) SiO2 
 PCOD8317117
Probable space group: P 42/N N M
;
_chemical_formula_sum "Si O2"
_cell_formula_units_Z 88
_cell_length_a 17.338554
_cell_length_b 17.338554
_cell_length_c 16.330410
_cell_angle_alpha 90.000000
_cell_angle_beta 90.000000
_cell_angle_gamma 90.000000
_cell_volume 4909.336933
_symmetry_space_group_name_H-M "P 42/N N M"
_symmetry_group_IT_number 134
_space_group.IT_coordinate_system_code '2'
_symmetry_cell_setting 'tetragonal'
loop_
_space_group_symop_operation_xyz
x,y,z
1/2-y,x,1/2+z
1/2-x,1/2-y,z
y,1/2-x,1/2+z
x,1/2-y,1/2-z
1/2-x,y,1/2-z
y,x,-z
1/2-y,1/2-x,-z
-x,-y,-z
1/2+y,-x,1/2-z
1/2+x,1/2+y,-z
-y,1/2+x,1/2-z
-x,1/2+y,1/2+z
1/2+x,-y,1/2+z
-y,-x,z
1/2+y,1/2+x,z
loop_
_atom_site_type_symbol
_atom_site_label
_atom_site_fract_x
_atom_site_fract_y
_atom_site_fract_z
Si Si1 0.973840 0.899898 0.148205
Si Si2 0.848207 0.465838 0.934483
Si Si3 0.696733 0.587136 0.448874
Si Si4 0.427697 0.054689 0.821681
Si Si5 0.220320 0.600795 0.336329
Si Si6 0.637500 0.637500 0.000000
O O1 0.921168 0.927498 0.224768
O O2 0.019868 0.824074 0.175758
O O3 0.924434 0.875004 0.070356
O O4 0.031015 0.968986 0.122583
O O5 0.920969 0.420969 0.974513
O O6 0.878704 0.521704 0.863273
O O7 0.792165 0.403538 0.895855
O O8 0.798252 0.506500 0.004158
O O9 0.638193 0.638193 0.500000
O O10 0.659105 0.564457 0.360178
O O11 0.780260 0.628520 0.452189
O O12 0.470892 0.970892 0.834869
O O13 0.250000 0.630590 0.250000
O O14 0.163232 0.663232 0.375573
#
# Coordination Sequence:
#
# PCOD8317117 Si02
#       6
#    16  16  16  16  16   8
#     4  10  21  36  55  75 102 141 182 220 269 326
#     4  10  18  32  53  76 104 137 169 210 262 317
#     4  10  21  35  52  77 105 138 180 222 266 313
#     4   9  18  35  57  77 100 135 182 225 261 316
#     4  11  20  32  50  78 110 138 168 208 265 335
#     4  12  22  36  54  74 108 140 174 232 278 328
#
# _framework density 17.925028000000001
#
# number of rings (size 3 to 8) (size 9 to 14) (size 15 to 20)
#    0.000    1.818    3.636    1.636    0.000    4.182 
#    0.000    0.000    0.000    2.182    0.000    0.000 
#    0.000    0.000    0.000    8.364    0.000    0.000 
#
# Total GULP energy -1090214.466310 kJ/mol
# GULP energy per Si atom -12388.800754 kJ/mol
# Density = 1.788423 g / cm^3
# Si number density = 17.925028 Si / 1000 Ang^3
#
#
#
# Elastic Constant Matrix: (Units=GPa)
#
#
# Indices 1 2 3 4 5 6 
#
# 1 70.9586 31.9107 27.5330 0.0000 0.0000 0.0000
# 2 31.9107 70.9586 27.5330 0.0000 0.0000 0.0000
# 3 27.5330 27.5330 67.6025 0.0000 0.0000 0.0000
# 4 0.0000 0.0000 0.0000 26.1991 0.0000 0.0000
# 5 0.0000 0.0000 0.0000 0.0000 26.1991 0.0000
# 6 0.0000 0.0000 0.0000 0.0000 0.0000 20.4620
#
#
#
# Elastic Compliance Matrix: (Units=1/GPa)
#
#
# Indices 1 2 3 4 5 6 
#
# 1 0.019020 -0.006589 -0.005063 0.000000 0.000000 0.000000
# 2 -0.006589 0.019020 -0.005063 0.000000 0.000000 0.000000
# 3 -0.005063 -0.005063 0.018916 0.000000 0.000000 0.000000
# 4 0.000000 0.000000 0.000000 0.038169 0.000000 0.000000
# 5 0.000000 0.000000 0.000000 0.000000 0.038169 0.000000
# 6 0.000000 0.000000 0.000000 0.000000 0.000000 0.048871
#
#
# Mechanical properties :
#
#
# Convention : Reuss Voigt Hill
#
# Bulk Modulus (GPa) = 42.50426 42.60815 42.55620
# Shear Modulus (GPa) = 22.37742 22.74157 22.55949
#
# Velocity S-wave (km/s) = 3.53709 3.56575 3.55145
# Velocity P-wave (km/s) = 6.35964 6.38550 6.37258
#
# Compressibility (1/GPa) = 0.02352705
#
# Stress axis : x y z
#
# Youngs Moduli (GPa) = 52.57496 52.57496 52.86405
#
# Poissons Ratio (x) = 0.34642 0.26765
# Poissons Ratio (y) = 0.34642 0.26765
# Poissons Ratio (z) = 0.26619 0.26619
#
# Static dielectric constant tensor:
#      x y z
#    x 3.393080 0.000000 0.000000 
#    y 0.000000 3.393080 0.000000 
#    z 0.000000 0.000000 3.226780 
# 
# 
# High freq. dielectric constant tensor:
#      x y z
#    x 1.688910 0.000000 0.000000 
#    y 0.000000 1.688910 0.000000 
#    z 0.000000 0.000000 1.674370 
# 
# From -- ./inp_files/6479.got.cif
#   From: 2010.03.12/outbox.cif.g09.slc.cpg/sg134_4_cif.got.tgz:6479.got - 2010.04.06 18:17:22.
