data_PCOD8317233
_publ_section_title
;
Structure prediction by ZEFSAII (Michael W. Deem and Ramdas Pophale) SiO2 
 PCOD8317233
Probable space group: P 42/N N M
;
_chemical_formula_sum "Si O2"
_cell_formula_units_Z 80
_cell_length_a 13.283127
_cell_length_b 13.283127
_cell_length_c 21.873483
_cell_angle_alpha 90.000000
_cell_angle_beta 90.000000
_cell_angle_gamma 90.000000
_cell_volume 3859.389339
_symmetry_space_group_name_H-M "P 42/N N M"
_symmetry_group_IT_number 134
_space_group.IT_coordinate_system_code '2'
_symmetry_cell_setting 'tetragonal'
loop_
_space_group_symop_operation_xyz
x,y,z
1/2-y,x,1/2+z
1/2-x,1/2-y,z
y,1/2-x,1/2+z
x,1/2-y,1/2-z
1/2-x,y,1/2-z
y,x,-z
1/2-y,1/2-x,-z
-x,-y,-z
1/2+y,-x,1/2-z
1/2+x,1/2+y,-z
-y,1/2+x,1/2-z
-x,1/2+y,1/2+z
1/2+x,-y,1/2+z
-y,-x,z
1/2+y,1/2+x,z
loop_
_atom_site_type_symbol
_atom_site_label
_atom_site_fract_x
_atom_site_fract_y
_atom_site_fract_z
Si Si1 0.603172 0.552801 0.897251
Si Si2 0.566264 0.910230 0.861369
Si Si3 0.210663 0.552294 0.063111
Si Si4 0.400085 0.259554 0.461375
Si Si5 0.970196 0.635567 0.263203
O O1 0.489618 0.510383 0.906186
O O2 0.677830 0.457974 0.909225
O O3 0.625264 0.641574 0.946536
O O4 0.620704 0.588752 0.827456
O O5 0.583466 0.804274 0.893952
O O6 0.451680 0.951680 0.867368
O O7 0.638248 0.990758 0.892958
O O8 0.594461 0.897357 0.790185
O O9 0.166950 0.666950 0.058074
O O10 0.217100 0.504367 0.995442
O O11 0.308382 0.308382 0.500000
O O12 0.998886 0.750000 0.250000
O O13 0.074762 0.574762 0.264270
#
# Coordination Sequence:
#
# PCOD8317233 Si02
#       5
#    16  16  16  16  16
#     4  11  24  39  57  85 123 158 192 242 302 354
#     4   9  18  35  59  86 115 147 197 248 289 347
#     4  10  20  36  58  83 113 151 196 244 292 344
#     4  10  22  39  60  86 118 156 199 243 296 350
#     4  10  20  37  57  84 119 157 192 240 300 353
#
# _framework density 20.728667000000002
#
# number of rings (size 3 to 8) (size 9 to 14) (size 15 to 20)
#    0.000    2.000    2.000    1.200    0.000   11.000 
#    0.000    3.000    0.000    1.800    0.000    0.000 
#    0.000    9.600    0.000    0.000    0.000    0.000 
#
# Total GULP energy -991286.751639 kJ/mol
# GULP energy per Si atom -12391.084395 kJ/mol
# Density = 2.068149 g / cm^3
# Si number density = 20.728667 Si / 1000 Ang^3
#
#
#
# Elastic Constant Matrix: (Units=GPa)
#
#
# Indices 1 2 3 4 5 6 
#
# 1 65.6202 42.6802 47.6178 0.0000 0.0000 0.0000
# 2 42.6802 65.6202 47.6178 0.0000 0.0000 0.0000
# 3 47.6178 47.6178 163.5598 0.0000 0.0000 0.0000
# 4 0.0000 0.0000 0.0000 9.8568 0.0000 0.0000
# 5 0.0000 0.0000 0.0000 0.0000 9.8568 0.0000
# 6 0.0000 0.0000 0.0000 0.0000 0.0000 27.2471
#
#
#
# Elastic Compliance Matrix: (Units=1/GPa)
#
#
# Indices 1 2 3 4 5 6 
#
# 1 0.028001 -0.015591 -0.003613 0.000000 0.000000 0.000000
# 2 -0.015591 0.028001 -0.003613 0.000000 0.000000 0.000000
# 3 -0.003613 -0.003613 0.008218 0.000000 0.000000 0.000000
# 4 0.000000 0.000000 0.000000 0.101452 0.000000 0.000000
# 5 0.000000 0.000000 0.000000 0.000000 0.101452 0.000000
# 6 0.000000 0.000000 0.000000 0.000000 0.000000 0.036701
#
#
# Mechanical properties :
#
#
# Convention : Reuss Voigt Hill
#
# Bulk Modulus (GPa) = 53.80176 63.40350 58.60263
# Shear Modulus (GPa) = 14.05852 19.85113 16.95482
#
# Velocity S-wave (km/s) = 2.60708 3.09797 2.86307
# Velocity P-wave (km/s) = 5.92234 6.59169 6.26596
#
# Compressibility (1/GPa) = 0.01858675
#
# Stress axis : x y z
#
# Youngs Moduli (GPa) = 35.71242 35.71242 121.68638
#
# Poissons Ratio (x) = 0.55678 0.43968
# Poissons Ratio (y) = 0.55678 0.43968
# Poissons Ratio (z) = 0.12904 0.12904
#
# Static dielectric constant tensor:
#      x y z
#    x 3.588130 0.000000 0.000000 
#    y 0.000000 3.588130 0.000000 
#    z 0.000000 0.000000 4.134790 
# 
# 
# High freq. dielectric constant tensor:
#      x y z
#    x 1.787770 0.000000 0.000000 
#    y 0.000000 1.787770 0.000000 
#    z 0.000000 0.000000 1.833130 
# 
# From -- ./inp_files/8915.got.cif
#   From: 2010.03.12/outbox.cif.g09.slc.cpg/sg134_5_cif.got.tgz:8915.got - 2010.04.06 18:17:22.
