data_PCOD8317046
_publ_section_title
;
Structure prediction by ZEFSAII (Michael W. Deem and Ramdas Pophale) SiO2 
 PCOD8317046
Probable space group: P 42/N B C
;
_chemical_formula_sum "Si O2"
_cell_formula_units_Z 36
_cell_length_a 11.080786
_cell_length_b 11.080786
_cell_length_c 10.184586
_cell_angle_alpha 90.000000
_cell_angle_beta 90.000000
_cell_angle_gamma 90.000000
_cell_volume 1250.502358
_symmetry_space_group_name_H-M "P 42/N B C"
_symmetry_group_IT_number 133
_space_group.IT_coordinate_system_code '2'
_symmetry_cell_setting 'tetragonal'
loop_
_space_group_symop_operation_xyz
x,y,z
1/2-y,x,1/2+z
1/2-x,1/2-y,z
y,1/2-x,1/2+z
x,1/2-y,-z
1/2-x,y,-z
y,x,1/2-z
1/2-y,1/2-x,1/2-z
-x,-y,-z
1/2+y,-x,1/2-z
1/2+x,1/2+y,-z
-y,1/2+x,1/2-z
-x,1/2+y,z
1/2+x,-y,z
-y,-x,1/2+z
1/2+y,1/2+x,1/2+z
loop_
_atom_site_type_symbol
_atom_site_label
_atom_site_fract_x
_atom_site_fract_y
_atom_site_fract_z
Si Si1 0.250000 0.250000 0.750000
Si Si2 0.178222 0.006289 0.164504
Si Si3 0.879173 0.095965 0.568316
O O1 0.367035 0.249587 0.654788
O O2 0.276212 0.899517 0.143270
O O3 0.119676 0.003158 0.313172
O O4 0.081739 0.983509 0.045661
O O5 0.750000 0.090460 0.500000
#
# Coordination Sequence:
#
# PCOD8317046 Si02
#       3
#     4  16  16
#     4  12  32  54  64 118 176 218 244 322 420 514
#     4  11  25  48  80 114 160 199 268 327 406 472
#     4  11  23  46  86 117 138 200 276 339 379 463
#
# _framework density 28.788432
#
# number of rings (size 3 to 8) (size 9 to 14) (size 15 to 20)
#    0.000    0.889    4.444    2.667    0.000    7.111 
#   16.000    0.000    0.000    0.000    0.000    0.000 
#    0.000    0.000    0.000    0.000    0.000    0.000 
#
# Total GULP energy -446370.712822 kJ/mol
# GULP energy per Si atom -12399.186467 kJ/mol
# Density = 2.872291 g / cm^3
# Si number density = 28.788432 Si / 1000 Ang^3
#
#
#
# Elastic Constant Matrix: (Units=GPa)
#
#
# Indices 1 2 3 4 5 6 
#
# 1 183.8240 45.6700 120.7111 0.0000 0.0000 0.0000
# 2 45.6700 183.8240 120.7111 0.0000 0.0000 0.0000
# 3 120.7111 120.7111 281.5821 0.0000 0.0000 0.0000
# 4 0.0000 0.0000 0.0000 78.6997 0.0000 0.0000
# 5 0.0000 0.0000 0.0000 0.0000 78.6997 0.0000
# 6 0.0000 0.0000 0.0000 0.0000 0.0000 20.8828
#
#
#
# Elastic Compliance Matrix: (Units=1/GPa)
#
#
# Indices 1 2 3 4 5 6 
#
# 1 0.007587 0.000349 -0.003402 0.000000 0.000000 0.000000
# 2 0.000349 0.007587 -0.003402 0.000000 0.000000 0.000000
# 3 -0.003402 -0.003402 0.006468 0.000000 0.000000 0.000000
# 4 0.000000 0.000000 0.000000 0.012707 0.000000 0.000000
# 5 0.000000 0.000000 0.000000 0.000000 0.012707 0.000000
# 6 0.000000 0.000000 0.000000 0.000000 0.000000 0.047886
#
#
# Mechanical properties :
#
#
# Convention : Reuss Voigt Hill
#
# Bulk Modulus (GPa) = 114.51736 135.93493 125.22614
# Shear Modulus (GPa) = 45.14086 59.79899 52.46992
#
# Velocity S-wave (km/s) = 3.96412 4.56256 4.27383
# Velocity P-wave (km/s) = 7.79857 8.66470 8.24302
#
# Compressibility (1/GPa) = 0.00873230
#
# Stress axis : x y z
#
# Youngs Moduli (GPa) = 131.79685 131.79685 154.59691
#
# Poissons Ratio (x) = -0.04602 0.52599
# Poissons Ratio (y) = -0.04602 0.52599
# Poissons Ratio (z) = 0.44841 0.44841
#
# Static dielectric constant tensor:
#      x y z
#    x 5.262510 0.000000 0.000000 
#    y 0.000000 5.262510 0.000000 
#    z 0.000000 0.000000 5.949130 
# 
# 
# High freq. dielectric constant tensor:
#      x y z
#    x 2.197170 0.000000 0.000000 
#    y 0.000000 2.197170 0.000000 
#    z 0.000000 0.000000 2.195850 
# 
# From -- ./inp_files/2347.got.cif
#   From: 2010.03.12/outbox.cif.g09.slc.cpg/sg133_2_cif.got.tgz:2347.got - 2010.04.06 18:08:06.
