data_PCOD8317759
_publ_section_title
;
Structure prediction by ZEFSAII (Michael W. Deem and Ramdas Pophale) SiO2 
 PCOD8317759
Probable space group: P 42/M N M
;
_chemical_formula_sum "Si O2"
_cell_formula_units_Z 112
_cell_length_a 14.768747
_cell_length_b 14.768747
_cell_length_c 28.438807
_cell_angle_alpha 90.000000
_cell_angle_beta 90.000000
_cell_angle_gamma 90.000000
_cell_volume 6202.955641
_symmetry_space_group_name_H-M "P 42/M N M"
_symmetry_group_IT_number 136
_symmetry_cell_setting 'tetragonal'
loop_
_space_group_symop_operation_xyz
x,y,z
1/2-y,1/2+x,1/2+z
-x,-y,z
1/2+y,1/2-x,1/2+z
1/2+x,1/2-y,1/2-z
1/2-x,1/2+y,1/2-z
y,x,-z
-y,-x,-z
-x,-y,-z
1/2+y,1/2-x,1/2-z
x,y,-z
1/2-y,1/2+x,1/2-z
1/2-x,1/2+y,1/2+z
1/2+x,1/2-y,1/2+z
-y,-x,z
y,x,z
loop_
_atom_site_type_symbol
_atom_site_label
_atom_site_fract_x
_atom_site_fract_y
_atom_site_fract_z
Si Si1 0.924400 0.924400 0.201795
Si Si2 0.442380 0.133589 0.693070
Si Si3 0.057827 0.633853 0.697567
Si Si4 0.584071 0.265830 0.554159
Si Si5 0.076700 0.076700 0.308741
Si Si6 0.305563 0.456999 0.638097
Si Si7 0.879901 0.272616 0.551500
Si Si8 0.700487 0.550513 0.859805
O O1 0.896124 0.896124 0.255150
O O2 0.963998 0.838676 0.173636
O O3 0.000000 0.000000 0.205586
O O4 0.432885 0.154438 0.747774
O O5 0.547716 0.115797 0.681742
O O6 0.409504 0.218286 0.661925
O O7 0.381932 0.046104 0.681452
O O8 0.095730 0.722601 0.672349
O O9 0.551008 0.267706 0.500000
O O10 0.651686 0.348315 0.563948
O O11 0.497781 0.277538 0.587822
O O12 0.633086 0.169700 0.564892
O O13 0.043279 0.165502 0.337217
O O14 0.000000 0.000000 0.307477
O O15 0.382679 0.382679 0.629603
O O16 0.925395 0.280299 0.500000
O O17 0.803054 0.196947 0.550790
O O18 0.959199 0.244913 0.588167
O O19 0.616987 0.616987 0.862256
#
# Coordination Sequence:
#
# PCOD8317759 Si02
#       8
#     8  16  16  16   8  16  16  16
#     4   9  18  30  43  63 101 139 162 193 239 289
#     4   9  19  34  51  70  97 131 168 207 251 296
#     4   9  18  35  53  69  94 131 169 209 251 297
#     4   9  17  30  48  72 102 134 170 209 251 299
#     4   9  18  30  43  67 101 133 158 197 252 302
#     4  11  20  31  48  73 103 136 169 203 249 301
#     4   8  15  28  47  72  99 124 158 210 256 290
#     4  10  18  30  51  74  98 129 165 204 254 307
#
# _framework density 18.055909
#
# number of rings (size 3 to 8) (size 9 to 14) (size 15 to 20)
#    0.000    2.714    0.714    3.429    0.000    2.000 
#    2.571    1.071    0.000    3.000    0.000    4.000 
#    0.000    0.000    0.000    0.000    0.000    0.000 
#
# Total GULP energy -1388147.710237 kJ/mol
# GULP energy per Si atom -12394.175984 kJ/mol
# Density = 1.801481 g / cm^3
# Si number density = 18.055909 Si / 1000 Ang^3
#
#
#
# Elastic Constant Matrix: (Units=GPa)
#
#
# Indices 1 2 3 4 5 6 
#
# 1 36.1957 6.5121 36.5656 0.0000 0.0000 0.0000
# 2 6.5121 36.1957 36.5656 0.0000 0.0000 0.0000
# 3 36.5656 36.5656 115.4654 0.0000 0.0000 0.0000
# 4 0.0000 0.0000 0.0000 21.6744 0.0000 0.0000
# 5 0.0000 0.0000 0.0000 0.0000 21.6744 0.0000
# 6 0.0000 0.0000 0.0000 0.0000 0.0000 12.9000
#
#
#
# Elastic Compliance Matrix: (Units=1/GPa)
#
#
# Indices 1 2 3 4 5 6 
#
# 1 0.042422 0.008733 -0.016200 0.000000 0.000000 0.000000
# 2 0.008733 0.042422 -0.016200 0.000000 0.000000 0.000000
# 3 -0.016200 -0.016200 0.018921 0.000000 0.000000 0.000000
# 4 0.000000 0.000000 0.000000 0.046137 0.000000 0.000000
# 5 0.000000 0.000000 0.000000 0.000000 0.046137 0.000000
# 6 0.000000 0.000000 0.000000 0.000000 0.000000 0.077519
#
#
# Mechanical properties :
#
#
# Convention : Reuss Voigt Hill
#
# Bulk Modulus (GPa) = 17.72068 38.57148 28.14608
# Shear Modulus (GPa) = 14.71885 18.46402 16.59143
#
# Velocity S-wave (km/s) = 2.85824 3.20128 3.03461
# Velocity P-wave (km/s) = 4.55284 5.92224 5.28210
#
# Compressibility (1/GPa) = 0.05643123
#
# Stress axis : x y z
#
# Youngs Moduli (GPa) = 23.57294 23.57294 52.85201
#
# Poissons Ratio (x) = -0.20586 0.85618
# Poissons Ratio (y) = -0.20586 0.85618
# Poissons Ratio (z) = 0.38187 0.38187
#
# Static dielectric constant tensor:
#      x y z
#    x 3.154970 0.000000 0.000000 
#    y 0.000000 3.154970 0.000000 
#    z 0.000000 0.000000 3.574780 
# 
# 
# High freq. dielectric constant tensor:
#      x y z
#    x 1.674800 0.000000 0.000000 
#    y 0.000000 1.674800 0.000000 
#    z 0.000000 0.000000 1.703570 
# 
# From -- ./inp_files/9244.got.cif
#   From: 2010.03.12/outbox.cif.g09.slc.cpg/sg136_5_cif.got.tgz:9244.got - 2010.04.06 18:39:43.
