data_PCOD8317740
_publ_section_title
;
Structure prediction by ZEFSAII (Michael W. Deem and Ramdas Pophale) SiO2 
 PCOD8317740
Probable space group: P 42/M N M
;
_chemical_formula_sum "Si O2"
_cell_formula_units_Z 104
_cell_length_a 26.230164
_cell_length_b 26.230164
_cell_length_c 9.005299
_cell_angle_alpha 90.000000
_cell_angle_beta 90.000000
_cell_angle_gamma 90.000000
_cell_volume 6195.839357
_symmetry_space_group_name_H-M "P 42/M N M"
_symmetry_group_IT_number 136
_symmetry_cell_setting 'tetragonal'
loop_
_space_group_symop_operation_xyz
x,y,z
1/2-y,1/2+x,1/2+z
-x,-y,z
1/2+y,1/2-x,1/2+z
1/2+x,1/2-y,1/2-z
1/2-x,1/2+y,1/2-z
y,x,-z
-y,-x,-z
-x,-y,-z
1/2+y,1/2-x,1/2-z
x,y,-z
1/2-y,1/2+x,1/2-z
1/2-x,1/2+y,1/2+z
1/2+x,1/2-y,1/2+z
-y,-x,z
y,x,z
loop_
_atom_site_type_symbol
_atom_site_label
_atom_site_fract_x
_atom_site_fract_y
_atom_site_fract_z
Si Si1 0.143425 0.456551 0.826207
Si Si2 0.122137 0.573287 0.828628
Si Si3 0.827446 0.909802 0.829518
Si Si4 0.541533 0.541533 0.823769
Si Si5 0.281732 0.084283 0.836424
Si Si6 0.533973 0.754883 0.667933
Si Si7 0.013250 0.845057 0.675051
O O1 0.126603 0.513956 0.787718
O O2 0.097287 0.422604 0.767288
O O3 0.196937 0.440117 0.750781
O O4 0.150468 0.448849 0.000000
O O5 0.176007 0.599224 0.784643
O O6 0.110716 0.583192 0.000000
O O7 0.864746 0.864746 0.790481
O O8 0.770837 0.885860 0.805292
O O9 0.839529 0.954255 0.714580
O O10 0.833124 0.929606 0.000000
O O11 0.500000 0.500000 0.760707
O O12 0.529808 0.598879 0.767802
O O13 0.539068 0.539068 0.000000
O O14 0.264185 0.025910 0.827176
O O15 0.304152 0.096414 0.000000
O O16 0.554980 0.752653 0.500000
O O17 0.545868 0.700521 0.747213
O O18 0.021181 0.839439 0.500000
#
# Coordination Sequence:
#
# PCOD8317740 Si02
#       7
#    16  16  16   8  16  16  16
#     4  10  20  33  50  72  97 126 159 192 231 281
#     4  10  20  32  47  69  96 125 157 193 232 276
#     4   9  17  29  45  67  94 123 155 194 241 289
#     4   9  18  30  43  65  99 135 165 197 239 285
#     4   8  15  28  45  64  89 120 151 187 230 278
#     4   9  17  31  49  68  91 119 155 197 237 274
#     4  10  18  29  46  67  93 126 164 200 235 280
#
# _framework density 16.785457999999998
#
# number of rings (size 3 to 8) (size 9 to 14) (size 15 to 20)
#    0.000    2.692    0.000    3.231    0.000    6.769 
#    0.000    3.077    0.000    2.769    2.000    0.000 
#    0.000    0.000    0.000    0.000    0.000    0.000 
#
# Total GULP energy -1289020.781738 kJ/mol
# GULP energy per Si atom -12394.430594 kJ/mol
# Density = 1.674725 g / cm^3
# Si number density = 16.785458 Si / 1000 Ang^3
#
#
#
# Elastic Constant Matrix: (Units=GPa)
#
#
# Indices 1 2 3 4 5 6 
#
# 1 82.5984 45.7356 43.3635 0.0000 0.0000 0.0000
# 2 45.7356 82.5984 43.3635 0.0000 0.0000 0.0000
# 3 43.3635 43.3635 79.5442 0.0000 0.0000 0.0000
# 4 0.0000 0.0000 0.0000 24.4868 0.0000 0.0000
# 5 0.0000 0.0000 0.0000 0.0000 24.4868 0.0000
# 6 0.0000 0.0000 0.0000 0.0000 0.0000 11.0150
#
#
#
# Elastic Compliance Matrix: (Units=1/GPa)
#
#
# Indices 1 2 3 4 5 6 
#
# 1 0.019732 -0.007395 -0.006726 0.000000 0.000000 0.000000
# 2 -0.007395 0.019732 -0.006726 0.000000 0.000000 0.000000
# 3 -0.006726 -0.006726 0.019905 0.000000 0.000000 0.000000
# 4 0.000000 0.000000 0.000000 0.040838 0.000000 0.000000
# 5 0.000000 0.000000 0.000000 0.000000 0.040838 0.000000
# 6 0.000000 0.000000 0.000000 0.000000 0.000000 0.090786
#
#
# Mechanical properties :
#
#
# Convention : Reuss Voigt Hill
#
# Bulk Modulus (GPa) = 56.57215 56.62957 56.60086
# Shear Modulus (GPa) = 17.89440 19.48294 18.68867
#
# Velocity S-wave (km/s) = 3.26861 3.41061 3.34036
# Velocity P-wave (km/s) = 6.92974 7.02283 6.97644
#
# Compressibility (1/GPa) = 0.01767654
#
# Stress axis : x y z
#
# Youngs Moduli (GPa) = 50.67793 50.67793 50.23959
#
# Poissons Ratio (x) = 0.37477 0.33790
# Poissons Ratio (y) = 0.37477 0.33790
# Poissons Ratio (z) = 0.34084 0.34084
#
# Static dielectric constant tensor:
#      x y z
#    x 3.173830 0.000000 0.000000 
#    y 0.000000 3.173830 0.000000 
#    z 0.000000 0.000000 3.200580 
# 
# 
# High freq. dielectric constant tensor:
#      x y z
#    x 1.628300 0.000000 0.000000 
#    y 0.000000 1.628300 0.000000 
#    z 0.000000 0.000000 1.651320 
# 
# From -- ./inp_files/2209.got.cif
#   From: 2010.03.12/outbox.cif.g09.slc.cpg/sg136_2_cif.got.tgz:2209.got - 2010.04.06 18:39:43.
