data_PCOD8317610
_publ_section_title
;
Structure prediction by ZEFSAII (Michael W. Deem and Ramdas Pophale) SiO2 
 PCOD8317610
Probable space group: P 42/M B C
;
_chemical_formula_sum "Si O2"
_cell_formula_units_Z 96
_cell_length_a 14.199895
_cell_length_b 14.199895
_cell_length_c 21.479131
_cell_angle_alpha 90.000000
_cell_angle_beta 90.000000
_cell_angle_gamma 90.000000
_cell_volume 4330.987924
_symmetry_space_group_name_H-M "P 42/M B C"
_symmetry_group_IT_number 135
_symmetry_cell_setting 'tetragonal'
loop_
_space_group_symop_operation_xyz
x,y,z
-y,x,1/2+z
-x,-y,z
y,-x,1/2+z
1/2+x,1/2-y,-z
1/2-x,1/2+y,-z
1/2+y,1/2+x,1/2-z
1/2-y,1/2-x,1/2-z
-x,-y,-z
y,-x,1/2-z
x,y,-z
-y,x,1/2-z
1/2-x,1/2+y,z
1/2+x,1/2-y,z
1/2-y,1/2-x,1/2+z
1/2+y,1/2+x,1/2+z
loop_
_atom_site_type_symbol
_atom_site_label
_atom_site_fract_x
_atom_site_fract_y
_atom_site_fract_z
Si Si1 0.936133 0.353427 0.930776
Si Si2 0.192212 0.823907 0.931133
Si Si3 0.017965 0.608404 0.317828
Si Si4 0.590889 0.566037 0.836984
Si Si5 0.874464 0.680372 0.138189
Si Si6 0.728222 0.498053 0.267049
O O1 0.887948 0.253479 0.933937
O O2 0.884294 0.416348 0.878488
O O3 0.044055 0.337768 0.912133
O O4 0.932196 0.400900 0.000000
O O5 0.148346 0.918670 0.900674
O O6 0.281793 0.779314 0.895001
O O7 0.225017 0.853304 0.000000
O O8 0.919039 0.657554 0.333083
O O9 0.050550 0.673039 0.257633
O O10 0.000000 0.500000 0.298532
O O11 0.500000 0.500000 0.847820
O O12 0.570304 0.672953 0.814076
O O13 0.656485 0.513443 0.788534
O O14 0.907282 0.749053 0.193822
#
# Coordination Sequence:
#
# PCOD8317610 Si02
#       6
#    16  16  16  16  16  16
#     4  10  23  43  65  95 134 179 231 280 340 415
#     4  11  25  46  69  99 134 182 235 284 352 415
#     4  10  24  41  63  99 132 175 219 270 333 410
#     4  12  25  45  72 100 135 183 228 292 353 417
#     4  11  23  41  68  96 135 177 219 286 345 403
#     4  12  23  43  67 101 141 173 229 283 351 421
#
# _framework density 22.165842999999999
#
# number of rings (size 3 to 8) (size 9 to 14) (size 15 to 20)
#    0.000    1.000    5.000    1.000    2.333    8.667 
#    0.000    0.000    0.000    0.000    0.000    0.000 
#    0.000    0.000    0.000    0.000    0.000    0.000 
#
# Total GULP energy -1189955.803031 kJ/mol
# GULP energy per Si atom -12395.372948 kJ/mol
# Density = 2.211539 g / cm^3
# Si number density = 22.165843 Si / 1000 Ang^3
#
#
#
# Elastic Constant Matrix: (Units=GPa)
#
#
# Indices 1 2 3 4 5 6 
#
# 1 74.8292 13.5451 23.9350 0.0000 0.0000 0.0000
# 2 13.5451 74.8292 23.9350 0.0000 0.0000 0.0000
# 3 23.9350 23.9350 134.6031 0.0000 0.0000 0.0000
# 4 0.0000 0.0000 0.0000 31.6091 0.0000 0.0000
# 5 0.0000 0.0000 0.0000 0.0000 31.6091 0.0000
# 6 0.0000 0.0000 0.0000 0.0000 0.0000 26.4118
#
#
#
# Elastic Compliance Matrix: (Units=1/GPa)
#
#
# Indices 1 2 3 4 5 6 
#
# 1 0.014420 -0.001898 -0.002227 0.000000 0.000000 0.000000
# 2 -0.001898 0.014420 -0.002227 0.000000 0.000000 0.000000
# 3 -0.002227 -0.002227 0.008221 0.000000 0.000000 0.000000
# 4 0.000000 0.000000 0.000000 0.031636 0.000000 0.000000
# 5 0.000000 0.000000 0.000000 0.000000 0.031636 0.000000
# 6 0.000000 0.000000 0.000000 0.000000 0.000000 0.037862
#
#
# Mechanical properties :
#
#
# Convention : Reuss Voigt Hill
#
# Bulk Modulus (GPa) = 41.05433 45.23241 43.14337
# Shear Modulus (GPa) = 31.44331 32.78244 32.11287
#
# Velocity S-wave (km/s) = 3.77045 3.84990 3.81038
# Velocity P-wave (km/s) = 6.12509 6.34137 6.23417
#
# Compressibility (1/GPa) = 0.02435796
#
# Stress axis : x y z
#
# Youngs Moduli (GPa) = 69.35051 69.35051 121.63817
#
# Poissons Ratio (x) = 0.13162 0.27084
# Poissons Ratio (y) = 0.13162 0.27084
# Poissons Ratio (z) = 0.15441 0.15441
#
# Static dielectric constant tensor:
#      x y z
#    x 3.975340 0.000000 0.000000 
#    y 0.000000 3.975340 0.000000 
#    z 0.000000 0.000000 4.644110 
# 
# 
# High freq. dielectric constant tensor:
#      x y z
#    x 1.865780 0.000000 0.000000 
#    y 0.000000 1.865780 0.000000 
#    z 0.000000 0.000000 1.889910 
# 
# From -- ./inp_files/5453.got.cif
#   From: 2010.03.12/outbox.cif.g09.slc.cpg/sg135_3_cif.got.tgz:5453.got - 2010.04.06 18:31:24.
