data_PCOD8317130
_publ_section_title
;
Structure prediction by ZEFSAII (Michael W. Deem and Ramdas Pophale) SiO2 
 PCOD8317130
Probable space group: P 42/N N M
;
_chemical_formula_sum "Si O2"
_cell_formula_units_Z 48
_cell_length_a 24.092399
_cell_length_b 24.092399
_cell_length_c 4.955767
_cell_angle_alpha 90.000000
_cell_angle_beta 90.000000
_cell_angle_gamma 90.000000
_cell_volume 2876.543682
_symmetry_space_group_name_H-M "P 42/N N M"
_symmetry_group_IT_number 134
_space_group.IT_coordinate_system_code '2'
_symmetry_cell_setting 'tetragonal'
loop_
_space_group_symop_operation_xyz
x,y,z
1/2-y,x,1/2+z
1/2-x,1/2-y,z
y,1/2-x,1/2+z
x,1/2-y,1/2-z
1/2-x,y,1/2-z
y,x,-z
1/2-y,1/2-x,-z
-x,-y,-z
1/2+y,-x,1/2-z
1/2+x,1/2+y,-z
-y,1/2+x,1/2-z
-x,1/2+y,1/2+z
1/2+x,-y,1/2+z
-y,-x,z
1/2+y,1/2+x,z
loop_
_atom_site_type_symbol
_atom_site_label
_atom_site_fract_x
_atom_site_fract_y
_atom_site_fract_z
Si Si1 0.838105 0.250000 0.250000
Si Si2 0.494876 0.083109 0.378997
Si Si3 0.134707 0.954876 0.393962
Si Si4 0.750000 0.090351 0.750000
O O1 0.800671 0.199330 0.357865
O O2 0.873267 0.273030 0.502212
O O3 0.434063 0.065938 0.500000
O O4 0.527932 0.117456 0.597881
O O5 0.525834 0.025834 0.300524
O O6 0.495317 0.120695 0.107177
O O7 0.101554 0.898447 0.480074
O O8 0.200616 0.945801 0.381146
#
# Coordination Sequence:
#
# PCOD8317130 Si02
#       4
#     8  16  16   8
#     4  11  22  34  46  58  78 116 162 202 234 263
#     4   9  17  30  47  65  83 105 140 185 229 275
#     4  10  19  30  45  64  86 114 146 184 230 272
#     4  12  22  33  46  64  90 116 150 193 236 280
#
# _framework density 16.686691
#
# number of rings (size 3 to 8) (size 9 to 14) (size 15 to 20)
#    0.000    1.833    0.000    6.000    0.000    8.000 
#    0.000    0.000    0.000    0.000    0.000    0.000 
#    0.000    0.000    0.000    0.000    0.000   23.333 
#
# Total GULP energy -594900.892388 kJ/mol
# GULP energy per Si atom -12393.768591 kJ/mol
# Density = 1.664871 g / cm^3
# Si number density = 16.686691 Si / 1000 Ang^3
#
#
#
# Elastic Constant Matrix: (Units=GPa)
#
#
# Indices 1 2 3 4 5 6 
#
# 1 54.8658 34.0491 13.9437 0.0000 0.0000 0.0000
# 2 34.0491 54.8647 13.9437 0.0000 0.0000 0.0000
# 3 13.9437 13.9437 90.0269 0.0000 0.0000 0.0000
# 4 0.0000 0.0000 0.0000 25.7987 0.0000 0.0000
# 5 0.0000 0.0000 0.0000 0.0000 25.7988 0.0000
# 6 0.0000 0.0000 0.0000 0.0000 0.0000 15.2875
#
#
#
# Elastic Compliance Matrix: (Units=1/GPa)
#
#
# Indices 1 2 3 4 5 6 
#
# 1 0.029930 -0.018109 -0.001831 0.000000 0.000000 0.000000
# 2 -0.018109 0.029931 -0.001831 0.000000 0.000000 0.000000
# 3 -0.001831 -0.001831 0.011675 0.000000 0.000000 0.000000
# 4 0.000000 0.000000 0.000000 0.038762 0.000000 0.000000
# 5 0.000000 0.000000 0.000000 0.000000 0.038761 0.000000
# 6 0.000000 0.000000 0.000000 0.000000 0.000000 0.065413
#
#
# Mechanical properties :
#
#
# Convention : Reuss Voigt Hill
#
# Bulk Modulus (GPa) = 35.72265 35.95895 35.84080
# Shear Modulus (GPa) = 18.70245 22.56507 20.63376
#
# Velocity S-wave (km/s) = 3.35147 3.68132 3.52026
# Velocity P-wave (km/s) = 6.03579 6.29808 6.16833
#
# Compressibility (1/GPa) = 0.02799344
#
# Stress axis : x y z
#
# Youngs Moduli (GPa) = 33.41134 33.41063 85.65356
#
# Poissons Ratio (x) = 0.60504 0.15682
# Poissons Ratio (y) = 0.60505 0.15683
# Poissons Ratio (z) = 0.06117 0.06117
#
# Static dielectric constant tensor:
#      x y z
#    x 2.904390 0.000000 0.000000 
#    y 0.000000 2.904400 0.000000 
#    z 0.000000 0.000000 3.350430 
# 
# 
# High freq. dielectric constant tensor:
#      x y z
#    x 1.599500 0.000000 0.000000 
#    y 0.000000 1.599500 0.000000 
#    z 0.000000 0.000000 1.672810 
# 
# From -- ./inp_files/662.got.cif
#   From: 2010.03.12/outbox.cif.g09.slc.cpg/sg134_1_cif.got.tgz:662.got - 2010.04.06 18:17:22.
