data_PCOD8317132
_publ_section_title
;
Structure prediction by ZEFSAII (Michael W. Deem and Ramdas Pophale) SiO2 
 PCOD8317132
Probable space group: P 42/N N M
;
_chemical_formula_sum "Si O2"
_cell_formula_units_Z 96
_cell_length_a 20.818844
_cell_length_b 20.818844
_cell_length_c 11.970587
_cell_angle_alpha 90.000000
_cell_angle_beta 90.000000
_cell_angle_gamma 90.000000
_cell_volume 5188.342878
_symmetry_space_group_name_H-M "P 42/N N M"
_symmetry_group_IT_number 134
_space_group.IT_coordinate_system_code '2'
_symmetry_cell_setting 'tetragonal'
loop_
_space_group_symop_operation_xyz
x,y,z
1/2-y,x,1/2+z
1/2-x,1/2-y,z
y,1/2-x,1/2+z
x,1/2-y,1/2-z
1/2-x,y,1/2-z
y,x,-z
1/2-y,1/2-x,-z
-x,-y,-z
1/2+y,-x,1/2-z
1/2+x,1/2+y,-z
-y,1/2+x,1/2-z
-x,1/2+y,1/2+z
1/2+x,-y,1/2+z
-y,-x,z
1/2+y,1/2+x,z
loop_
_atom_site_type_symbol
_atom_site_label
_atom_site_fract_x
_atom_site_fract_y
_atom_site_fract_z
Si Si1 0.545093 0.942799 0.657214
Si Si2 0.107353 0.792147 0.149216
Si Si3 0.982373 0.912089 0.597142
Si Si4 0.249031 0.852958 0.577273
Si Si5 0.235052 0.996528 0.627698
Si Si6 0.008092 0.152047 0.981813
O O1 0.552673 0.923714 0.785489
O O2 0.616379 0.942131 0.601844
O O3 0.498658 0.893333 0.591062
O O4 0.513584 0.013584 0.646476
O O5 0.077491 0.750000 0.250000
O O6 0.162685 0.837316 0.200669
O O7 0.055853 0.837988 0.089685
O O8 0.137199 0.745026 0.056309
O O9 0.934674 0.934674 0.500000
O O10 0.995527 0.837026 0.584398
O O11 0.049743 0.950258 0.590923
O O12 0.185949 0.814052 0.616082
O O13 0.313019 0.813019 0.609474
O O14 0.252818 0.921297 0.637870
O O15 0.250000 0.026900 0.750000
O O16 0.279432 0.031174 0.533051
#
# Coordination Sequence:
#
# PCOD8317132 Si02
#       6
#    16  16  16  16  16  16
#     4  10  19  35  58  82 113 150 194 243 295 358
#     4  10  19  30  46  68 100 143 188 234 280 328
#     4  10  22  39  60  87 122 162 201 247 304 360
#     4   9  19  32  45  68 105 151 198 235 271 330
#     4  11  21  36  55  81 114 150 194 239 297 352
#     4  10  20  34  54  80 108 141 188 240 292 351
#
# _framework density 18.503017
#
# number of rings (size 3 to 8) (size 9 to 14) (size 15 to 20)
#    0.000    2.000    1.667    3.000    0.000    6.167 
#    0.000    5.833    0.000    0.000    0.000    2.333 
#    0.000    0.000    0.000    0.000    0.000    0.000 
#
# Total GULP energy -1189687.357126 kJ/mol
# GULP energy per Si atom -12392.576637 kJ/mol
# Density = 1.846090 g / cm^3
# Si number density = 18.503017 Si / 1000 Ang^3
#
#
#
# Elastic Constant Matrix: (Units=GPa)
#
#
# Indices 1 2 3 4 5 6 
#
# 1 92.0302 38.0376 47.2713 0.0000 0.0000 0.0000
# 2 38.0376 92.0302 47.2713 0.0000 0.0000 0.0000
# 3 47.2713 47.2713 132.4223 0.0000 0.0000 0.0000
# 4 0.0000 0.0000 0.0000 26.1516 0.0000 0.0000
# 5 0.0000 0.0000 0.0000 0.0000 26.1516 0.0000
# 6 0.0000 0.0000 0.0000 0.0000 0.0000 23.8588
#
#
#
# Elastic Compliance Matrix: (Units=1/GPa)
#
#
# Indices 1 2 3 4 5 6 
#
# 1 0.014452 -0.004069 -0.003706 0.000000 0.000000 0.000000
# 2 -0.004069 0.014452 -0.003706 0.000000 0.000000 0.000000
# 3 -0.003706 -0.003706 0.010198 0.000000 0.000000 0.000000
# 4 0.000000 0.000000 0.000000 0.038239 0.000000 0.000000
# 5 0.000000 0.000000 0.000000 0.000000 0.038239 0.000000
# 6 0.000000 0.000000 0.000000 0.000000 0.000000 0.041913
#
#
# Mechanical properties :
#
#
# Convention : Reuss Voigt Hill
#
# Bulk Modulus (GPa) = 61.96813 64.62701 63.29757
# Shear Modulus (GPa) = 26.90573 27.49256 27.19915
#
# Velocity S-wave (km/s) = 3.81744 3.85884 3.83820
# Velocity P-wave (km/s) = 7.27970 7.40661 7.34343
#
# Compressibility (1/GPa) = 0.01613733
#
# Stress axis : x y z
#
# Youngs Moduli (GPa) = 69.19626 69.19626 98.06216
#
# Poissons Ratio (x) = 0.28159 0.36344
# Poissons Ratio (y) = 0.28159 0.36344
# Poissons Ratio (z) = 0.25645 0.25645
#
# Static dielectric constant tensor:
#      x y z
#    x 3.259160 0.000000 0.000000 
#    y 0.000000 3.259160 0.000000 
#    z 0.000000 0.000000 3.519330 
# 
# 
# High freq. dielectric constant tensor:
#      x y z
#    x 1.690810 0.000000 0.000000 
#    y 0.000000 1.690810 0.000000 
#    z 0.000000 0.000000 1.733230 
# 
# From -- ./inp_files/5089.got.cif
#   From: 2010.03.12/outbox.cif.g09.slc.cpg/sg134_3_cif.got.tgz:5089.got - 2010.04.06 18:17:22.
