data_PCOD8317850
_publ_section_title
;
Structure prediction by ZEFSAII (Michael W. Deem and Ramdas Pophale) SiO2 
 PCOD8317850
Probable space group: P 42/M N M
;
_chemical_formula_sum "Si O2"
_cell_formula_units_Z 80
_cell_length_a 15.975261
_cell_length_b 15.975261
_cell_length_c 18.434846
_cell_angle_alpha 90.000000
_cell_angle_beta 90.000000
_cell_angle_gamma 90.000000
_cell_volume 4704.737949
_symmetry_space_group_name_H-M "P 42/M N M"
_symmetry_group_IT_number 136
_symmetry_cell_setting 'tetragonal'
loop_
_space_group_symop_operation_xyz
x,y,z
1/2-y,1/2+x,1/2+z
-x,-y,z
1/2+y,1/2-x,1/2+z
1/2+x,1/2-y,1/2-z
1/2-x,1/2+y,1/2-z
y,x,-z
-y,-x,-z
-x,-y,-z
1/2+y,1/2-x,1/2-z
x,y,-z
1/2-y,1/2+x,1/2-z
1/2-x,1/2+y,1/2+z
1/2+x,1/2-y,1/2+z
-y,-x,z
y,x,z
loop_
_atom_site_type_symbol
_atom_site_label
_atom_site_fract_x
_atom_site_fract_y
_atom_site_fract_z
Si Si1 0.637410 0.500323 0.660023
Si Si2 0.091363 0.225313 0.277601
Si Si3 0.354873 0.782379 0.079396
Si Si4 0.027711 0.689461 0.916007
Si Si5 0.608778 0.947296 0.215541
O O1 0.576450 0.423551 0.637097
O O2 0.587060 0.587060 0.660317
O O3 0.674022 0.485611 0.741696
O O4 0.714608 0.505408 0.604318
O O5 0.177023 0.177023 0.264705
O O6 0.078307 0.243433 0.363458
O O7 0.108139 0.312095 0.236609
O O8 0.269475 0.730526 0.079954
O O9 0.327823 0.875609 0.100348
O O10 0.397657 0.779179 0.000000
O O11 0.977260 0.621542 0.867524
O O12 0.004311 0.675112 0.000000
O O13 0.524557 0.894123 0.226191
#
# Coordination Sequence:
#
# PCOD8317850 Si02
#       5
#    16  16  16  16  16
#     4   9  18  31  48  72 102 133 163 197 241 296
#     4   9  17  31  49  69  94 129 168 203 241 290
#     4   9  16  27  45  69  94 121 158 204 244 278
#     4  10  19  31  48  72 100 127 160 199 243 294
#     4  10  19  33  49  69  98 130 163 201 243 293
#
# _framework density 17.004135000000002
#
# number of rings (size 3 to 8) (size 9 to 14) (size 15 to 20)
#    0.000    2.600    2.000    0.600    0.000    1.600 
#    0.000    4.000    0.000    0.600    0.000    4.200 
#    0.000    3.600    0.000    0.200    0.000    0.000 
#
# Total GULP energy -991234.165529 kJ/mol
# GULP energy per Si atom -12390.427069 kJ/mol
# Density = 1.696543 g / cm^3
# Si number density = 17.004135 Si / 1000 Ang^3
#
#
#
# Elastic Constant Matrix: (Units=GPa)
#
#
# Indices 1 2 3 4 5 6 
#
# 1 53.7343 16.4725 37.4807 0.0000 0.0000 0.0000
# 2 16.4725 53.7343 37.4807 0.0000 0.0000 0.0000
# 3 37.4807 37.4807 131.9223 0.0000 0.0000 0.0000
# 4 0.0000 0.0000 0.0000 24.1309 0.0000 0.0000
# 5 0.0000 0.0000 0.0000 0.0000 24.1309 0.0000
# 6 0.0000 0.0000 0.0000 0.0000 0.0000 14.9742
#
#
#
# Elastic Compliance Matrix: (Units=1/GPa)
#
#
# Indices 1 2 3 4 5 6 
#
# 1 0.023642 -0.003196 -0.005809 0.000000 0.000000 0.000000
# 2 -0.003196 0.023642 -0.005809 0.000000 0.000000 0.000000
# 3 -0.005809 -0.005809 0.010881 0.000000 0.000000 0.000000
# 4 0.000000 0.000000 0.000000 0.041441 0.000000 0.000000
# 5 0.000000 0.000000 0.000000 0.000000 0.041441 0.000000
# 6 0.000000 0.000000 0.000000 0.000000 0.000000 0.066781
#
#
# Mechanical properties :
#
#
# Convention : Reuss Voigt Hill
#
# Bulk Modulus (GPa) = 35.04202 46.91764 40.97983
# Shear Modulus (GPa) = 20.24571 22.51103 21.37837
#
# Velocity S-wave (km/s) = 3.45430 3.64243 3.54961
# Velocity P-wave (km/s) = 6.04667 6.73361 6.39937
#
# Compressibility (1/GPa) = 0.02853717
#
# Stress axis : x y z
#
# Youngs Moduli (GPa) = 42.29844 42.29844 91.90322
#
# Poissons Ratio (x) = 0.13517 0.53386
# Poissons Ratio (y) = 0.13517 0.53386
# Poissons Ratio (z) = 0.24571 0.24571
#
# Static dielectric constant tensor:
#      x y z
#    x 3.164400 0.000000 0.000000 
#    y 0.000000 3.164400 0.000000 
#    z 0.000000 0.000000 3.406370 
# 
# 
# High freq. dielectric constant tensor:
#      x y z
#    x 1.645280 0.000000 0.000000 
#    y 0.000000 1.645280 0.000000 
#    z 0.000000 0.000000 1.655720 
# 
# From -- ./inp_files/4873.got.cif
#   From: 2010.03.12/outbox.cif.g09.slc.cpg/sg136_3_cif.got.tgz:4873.got - 2010.04.06 18:39:43.
