data_PCOD8317103
_publ_section_title
;
Structure prediction by ZEFSAII (Michael W. Deem and Ramdas Pophale) SiO2 
 PCOD8317103
Probable space group: P 42/N N M
;
_chemical_formula_sum "Si O2"
_cell_formula_units_Z 48
_cell_length_a 10.539445
_cell_length_b 10.539445
_cell_length_c 19.666070
_cell_angle_alpha 90.000000
_cell_angle_beta 90.000000
_cell_angle_gamma 90.000000
_cell_volume 2184.505107
_symmetry_space_group_name_H-M "P 42/N N M"
_symmetry_group_IT_number 134
_space_group.IT_coordinate_system_code '2'
_symmetry_cell_setting 'tetragonal'
loop_
_space_group_symop_operation_xyz
x,y,z
1/2-y,x,1/2+z
1/2-x,1/2-y,z
y,1/2-x,1/2+z
x,1/2-y,1/2-z
1/2-x,y,1/2-z
y,x,-z
1/2-y,1/2-x,-z
-x,-y,-z
1/2+y,-x,1/2-z
1/2+x,1/2+y,-z
-y,1/2+x,1/2-z
-x,1/2+y,1/2+z
1/2+x,-y,1/2+z
-y,-x,z
1/2+y,1/2+x,z
loop_
_atom_site_type_symbol
_atom_site_label
_atom_site_fract_x
_atom_site_fract_y
_atom_site_fract_z
Si Si1 0.597314 0.402687 0.030763
Si Si2 0.152800 0.847201 0.112545
Si Si3 0.338238 0.049855 0.934586
Si Si4 0.968089 0.816839 0.318142
O O1 0.519025 0.297933 0.072904
O O2 0.500000 0.500000 0.000000
O O3 0.666139 0.333861 0.968321
O O4 0.250000 0.750000 0.147175
O O5 0.015446 0.803123 0.137145
O O6 0.355152 0.123422 0.862997
O O7 0.444635 0.944635 0.942361
O O8 0.354862 0.145139 0.000000
O O9 0.915719 0.750000 0.250000
O O10 0.077686 0.922315 0.302858
#
# Coordination Sequence:
#
# PCOD8317103 Si02
#       4
#     8   8  16  16
#     4  12  24  38  58  86 134 177 215 272 337 397
#     4  10  18  32  58  92 129 167 214 268 321 397
#     4  10  20  36  60  93 128 171 219 274 332 396
#     4  10  18  30  57  98 134 171 219 273 339 406
#
# _framework density 21.972939
#
# number of rings (size 3 to 8) (size 9 to 14) (size 15 to 20)
#    0.000    1.667    5.000    1.500    0.000    0.667 
#    0.000    0.000    0.000    4.000    0.000    0.000 
#   15.000    0.000    0.000    0.167    0.000    0.167 
#
# Total GULP energy -594639.964758 kJ/mol
# GULP energy per Si atom -12388.332599 kJ/mol
# Density = 2.192293 g / cm^3
# Si number density = 21.972939 Si / 1000 Ang^3
#
#
#
# Elastic Constant Matrix: (Units=GPa)
#
#
# Indices 1 2 3 4 5 6 
#
# 1 94.9102 65.1910 68.8182 0.0000 0.0000 0.0000
# 2 65.1910 94.9088 68.8183 0.0000 0.0000 0.0000
# 3 68.8182 68.8183 154.2651 0.0000 0.0000 0.0000
# 4 0.0000 0.0000 0.0000 33.0988 0.0000 0.0000
# 5 0.0000 0.0000 0.0000 0.0000 33.0988 0.0000
# 6 0.0000 0.0000 0.0000 0.0000 0.0000 43.2954
#
#
#
# Elastic Compliance Matrix: (Units=1/GPa)
#
#
# Indices 1 2 3 4 5 6 
#
# 1 0.021890 -0.011759 -0.004520 0.000000 0.000000 0.000000
# 2 -0.011759 0.021891 -0.004520 0.000000 0.000000 0.000000
# 3 -0.004520 -0.004520 0.010515 0.000000 0.000000 0.000000
# 4 0.000000 0.000000 0.000000 0.030213 0.000000 0.000000
# 5 0.000000 0.000000 0.000000 0.000000 0.030213 0.000000
# 6 0.000000 0.000000 0.000000 0.000000 0.000000 0.023097
#
#
# Mechanical properties :
#
#
# Convention : Reuss Voigt Hill
#
# Bulk Modulus (GPa) = 78.74533 83.30435 81.02484
# Shear Modulus (GPa) = 27.22606 31.31569 29.27088
#
# Velocity S-wave (km/s) = 3.52386 3.77927 3.65380
# Velocity P-wave (km/s) = 7.24376 7.55238 7.39968
#
# Compressibility (1/GPa) = 0.01269917
#
# Stress axis : x y z
#
# Youngs Moduli (GPa) = 45.68272 45.68166 95.10284
#
# Poissons Ratio (x) = 0.53716 0.42983
# Poissons Ratio (y) = 0.53717 0.42986
# Poissons Ratio (z) = 0.20647 0.20648
#
# Static dielectric constant tensor:
#      x y z
#    x 4.073400 0.000000 0.000000 
#    y 0.000000 4.073410 0.000000 
#    z 0.000000 0.000000 4.268770 
# 
# 
# High freq. dielectric constant tensor:
#      x y z
#    x 1.855700 0.000000 0.000000 
#    y 0.000000 1.855700 0.000000 
#    z 0.000000 0.000000 1.847190 
# 
# From -- ./inp_files/7264.got.cif
#   From: 2010.03.12/outbox.cif.g09.slc.cpg/sg134_4_cif.got.tgz:7264.got - 2010.04.06 18:17:22.
