data_PCOD8317893
_publ_section_title
;
Structure prediction by ZEFSAII (Michael W. Deem and Ramdas Pophale) SiO2 
 PCOD8317893
Probable space group: P 42/M N M
;
_chemical_formula_sum "Si O2"
_cell_formula_units_Z 112
_cell_length_a 16.739729
_cell_length_b 16.739729
_cell_length_c 23.783714
_cell_angle_alpha 90.000000
_cell_angle_beta 90.000000
_cell_angle_gamma 90.000000
_cell_volume 6664.637304
_symmetry_space_group_name_H-M "P 42/M N M"
_symmetry_group_IT_number 136
_symmetry_cell_setting 'tetragonal'
loop_
_space_group_symop_operation_xyz
x,y,z
1/2-y,1/2+x,1/2+z
-x,-y,z
1/2+y,1/2-x,1/2+z
1/2+x,1/2-y,1/2-z
1/2-x,1/2+y,1/2-z
y,x,-z
-y,-x,-z
-x,-y,-z
1/2+y,1/2-x,1/2-z
x,y,-z
1/2-y,1/2+x,1/2-z
1/2-x,1/2+y,1/2+z
1/2+x,1/2-y,1/2+z
-y,-x,z
y,x,z
loop_
_atom_site_type_symbol
_atom_site_label
_atom_site_fract_x
_atom_site_fract_y
_atom_site_fract_z
Si Si1 0.130254 0.998256 0.607273
Si Si2 0.079602 0.542700 0.158449
Si Si3 0.290836 0.166112 0.821277
Si Si4 0.298894 0.005003 0.437771
Si Si5 0.501699 0.166749 0.269599
Si Si6 0.583446 0.705855 0.210247
Si Si7 0.683066 0.810368 0.938962
O O1 0.077622 0.922379 0.584913
O O2 0.166988 0.979215 0.667867
O O3 0.204289 0.022442 0.567594
O O4 0.075326 0.075326 0.613076
O O5 0.146171 0.549121 0.109407
O O6 0.113764 0.494142 0.212474
O O7 0.000000 0.500000 0.134840
O O8 0.049420 0.629016 0.179679
O O9 0.208666 0.208666 0.799836
O O10 0.317423 0.094338 0.781947
O O11 0.362102 0.230520 0.822869
O O12 0.281338 0.138061 0.886785
O O13 0.325709 0.034542 0.500000
O O14 0.308675 0.911099 0.432082
O O15 0.464107 0.253447 0.260696
O O16 0.637850 0.637850 0.238415
O O17 0.720793 0.720793 0.935147
O O18 0.705518 0.848547 0.000000
#
# Coordination Sequence:
#
# PCOD8317893 Si02
#       7
#    16  16  16  16  16  16  16
#     4  10  20  34  54  78 106 143 185 225 266 317
#     4  12  21  33  52  76 102 138 176 218 268 314
#     4  10  19  32  52  77 102 130 170 216 260 316
#     4  11  22  35  49  71 105 142 181 220 260 309
#     4  12  19  34  53  77 102 135 174 220 267 324
#     4  10  19  33  51  74 104 132 170 221 265 307
#     4   9  16  28  48  71  97 131 168 211 259 302
#
# _framework density 16.805115000000001
#
# number of rings (size 3 to 8) (size 9 to 14) (size 15 to 20)
#    0.000    1.429    5.714    1.286    0.000    2.000 
#    0.000    2.143    0.000    0.000    0.000    0.000 
#    0.000    1.714    0.000    3.571    0.000    0.000 
#
# Total GULP energy -1387746.632615 kJ/mol
# GULP energy per Si atom -12390.594934 kJ/mol
# Density = 1.676687 g / cm^3
# Si number density = 16.805115 Si / 1000 Ang^3
#
#
#
# Elastic Constant Matrix: (Units=GPa)
#
#
# Indices 1 2 3 4 5 6 
#
# 1 71.0684 33.2368 39.1694 0.0000 0.0000 0.0000
# 2 33.2368 71.0684 39.1694 0.0000 0.0000 0.0000
# 3 39.1694 39.1694 85.4598 0.0000 0.0000 0.0000
# 4 0.0000 0.0000 0.0000 18.8094 0.0000 0.0000
# 5 0.0000 0.0000 0.0000 0.0000 18.8094 0.0000
# 6 0.0000 0.0000 0.0000 0.0000 0.0000 25.2859
#
#
#
# Elastic Compliance Matrix: (Units=1/GPa)
#
#
# Indices 1 2 3 4 5 6 
#
# 1 0.020526 -0.005906 -0.006701 0.000000 0.000000 0.000000
# 2 -0.005906 0.020526 -0.006701 0.000000 0.000000 0.000000
# 3 -0.006701 -0.006701 0.017844 0.000000 0.000000 0.000000
# 4 0.000000 0.000000 0.000000 0.053165 0.000000 0.000000
# 5 0.000000 0.000000 0.000000 0.000000 0.053165 0.000000
# 6 0.000000 0.000000 0.000000 0.000000 0.000000 0.039548
#
#
# Mechanical properties :
#
#
# Convention : Reuss Voigt Hill
#
# Bulk Modulus (GPa) = 49.30877 50.08309 49.69593
# Shear Modulus (GPa) = 19.98793 20.31568 20.15181
#
# Velocity S-wave (km/s) = 3.45250 3.48069 3.46663
# Velocity P-wave (km/s) = 6.73040 6.78385 6.75718
#
# Compressibility (1/GPa) = 0.02028037
#
# Stress axis : x y z
#
# Youngs Moduli (GPa) = 48.71762 48.71762 56.04147
#
# Poissons Ratio (x) = 0.28775 0.37553
# Poissons Ratio (y) = 0.28775 0.37553
# Poissons Ratio (z) = 0.32645 0.32645
#
# Static dielectric constant tensor:
#      x y z
#    x 3.140270 0.000000 0.000000 
#    y 0.000000 3.140270 0.000000 
#    z 0.000000 0.000000 3.214110 
# 
# 
# High freq. dielectric constant tensor:
#      x y z
#    x 1.630390 0.000000 0.000000 
#    y 0.000000 1.630390 0.000000 
#    z 0.000000 0.000000 1.635600 
# 
# From -- ./inp_files/7743.got.cif
#   From: 2010.03.12/outbox.cif.g09.slc.cpg/sg136_4_cif.got.tgz:7743.got - 2010.04.06 18:39:43.
