data_PCOD8317757
_publ_section_title
;
Structure prediction by ZEFSAII (Michael W. Deem and Ramdas Pophale) SiO2 
 PCOD8317757
Probable space group: P 42/M N M
;
_chemical_formula_sum "Si O2"
_cell_formula_units_Z 36
_cell_length_a 17.046213
_cell_length_b 17.046213
_cell_length_c 7.648235
_cell_angle_alpha 90.000000
_cell_angle_beta 90.000000
_cell_angle_gamma 90.000000
_cell_volume 2222.373477
_symmetry_space_group_name_H-M "P 42/M N M"
_symmetry_group_IT_number 136
_symmetry_cell_setting 'tetragonal'
loop_
_space_group_symop_operation_xyz
x,y,z
1/2-y,1/2+x,1/2+z
-x,-y,z
1/2+y,1/2-x,1/2+z
1/2+x,1/2-y,1/2-z
1/2-x,1/2+y,1/2-z
y,x,-z
-y,-x,-z
-x,-y,-z
1/2+y,1/2-x,1/2-z
x,y,-z
1/2-y,1/2+x,1/2-z
1/2-x,1/2+y,1/2+z
1/2+x,1/2-y,1/2+z
-y,-x,z
y,x,z
loop_
_atom_site_type_symbol
_atom_site_label
_atom_site_fract_x
_atom_site_fract_y
_atom_site_fract_z
Si Si1 0.621692 0.621692 0.699121
Si Si2 0.790050 0.209951 0.500000
Si Si3 0.677778 0.453737 0.193414
Si Si4 0.877579 0.754442 0.000000
O O1 0.643386 0.643386 0.500000
O O2 0.674888 0.674888 0.824081
O O3 0.530929 0.636620 0.733700
O O4 0.806653 0.304602 0.500000
O O5 0.613586 0.386415 0.179248
O O6 0.750111 0.429705 0.322703
O O7 0.713333 0.469576 0.000000
O O8 0.843181 0.843181 0.000000
#
# Coordination Sequence:
#
# PCOD8317757 Si02
#       4
#     8   4  16   8
#     4  12  21  29  49  76 109 132 167 203 249 282
#     4  10  22  36  43  73 108 134 160 226 240 284
#     4  10  18  30  50  74  99 138 168 194 236 307
#     4   8  18  33  48  63  98 139 163 197 240 294
#
# _framework density 16.198896000000001
#
# number of rings (size 3 to 8) (size 9 to 14) (size 15 to 20)
#    0.667    1.333    4.444    0.667    0.000    4.444 
#    0.000    0.000    0.000    0.000    0.000    0.000 
#    0.000    5.333    0.000    0.000    0.000    0.000 
#
# Total GULP energy -445983.970066 kJ/mol
# GULP energy per Si atom -12388.443613 kJ/mol
# Density = 1.616203 g / cm^3
# Si number density = 16.198896 Si / 1000 Ang^3
#
#
#
# Elastic Constant Matrix: (Units=GPa)
#
#
# Indices 1 2 3 4 5 6 
#
# 1 17.8529 15.6322 23.6961 0.0000 0.0000 0.0000
# 2 15.6322 17.8536 23.6966 0.0000 0.0000 0.0000
# 3 23.6961 23.6966 170.6321 0.0000 0.0000 0.0000
# 4 0.0000 0.0000 0.0000 18.2945 0.0000 0.0000
# 5 0.0000 0.0000 0.0000 0.0000 18.2945 0.0000
# 6 0.0000 0.0000 0.0000 0.0000 0.0000 13.9780
#
#
#
# Elastic Compliance Matrix: (Units=1/GPa)
#
#
# Indices 1 2 3 4 5 6 
#
# 1 0.243716 -0.206542 -0.005162 0.000000 0.000000 0.000000
# 2 -0.206542 0.243706 -0.005162 0.000000 0.000000 0.000000
# 3 -0.005162 -0.005162 0.007294 0.000000 0.000000 0.000000
# 4 0.000000 0.000000 0.000000 0.054661 0.000000 0.000000
# 5 0.000000 0.000000 0.000000 0.000000 0.054661 0.000000
# 6 0.000000 0.000000 0.000000 0.000000 0.000000 0.071541
#
#
# Mechanical properties :
#
#
# Convention : Reuss Voigt Hill
#
# Bulk Modulus (GPa) = 16.39731 36.93204 26.66468
# Shear Modulus (GPa) = 4.42619 19.66764 12.04691
#
# Velocity S-wave (km/s) = 1.65479 3.48822 2.73002
# Velocity P-wave (km/s) = 3.71424 6.25078 5.14139
#
# Compressibility (1/GPa) = 0.06098559
#
# Stress axis : x y z
#
# Youngs Moduli (GPa) = 4.10313 4.10330 137.09418
#
# Poissons Ratio (x) = 0.84750 0.70768
# Poissons Ratio (y) = 0.84747 0.70765
# Poissons Ratio (z) = 0.02118 0.02118
#
# Static dielectric constant tensor:
#      x y z
#    x 2.706740 0.000000 0.000000 
#    y 0.000000 2.706730 0.000000 
#    z 0.000000 0.000000 3.704150 
# 
# 
# High freq. dielectric constant tensor:
#      x y z
#    x 1.580160 0.000000 0.000000 
#    y 0.000000 1.580160 0.000000 
#    z 0.000000 0.000000 1.656830 
# 
# From -- ./inp_files/592.got.cif
#   From: 2010.03.12/outbox.cif.g09.slc.cpg/sg136_1_cif.got.tgz:592.got - 2010.04.06 18:39:43.
