data_PCOD8317848
_publ_section_title
;
Structure prediction by ZEFSAII (Michael W. Deem and Ramdas Pophale) SiO2 
 PCOD8317848
Probable space group: P 42/M N M
;
_chemical_formula_sum "Si O2"
_cell_formula_units_Z 96
_cell_length_a 24.539677
_cell_length_b 24.539677
_cell_length_c 9.483061
_cell_angle_alpha 90.000000
_cell_angle_beta 90.000000
_cell_angle_gamma 90.000000
_cell_volume 5710.659005
_symmetry_space_group_name_H-M "P 42/M N M"
_symmetry_group_IT_number 136
_symmetry_cell_setting 'tetragonal'
loop_
_space_group_symop_operation_xyz
x,y,z
1/2-y,1/2+x,1/2+z
-x,-y,z
1/2+y,1/2-x,1/2+z
1/2+x,1/2-y,1/2-z
1/2-x,1/2+y,1/2-z
y,x,-z
-y,-x,-z
-x,-y,-z
1/2+y,1/2-x,1/2-z
x,y,-z
1/2-y,1/2+x,1/2-z
1/2-x,1/2+y,1/2+z
1/2+x,1/2-y,1/2+z
-y,-x,z
y,x,z
loop_
_atom_site_type_symbol
_atom_site_label
_atom_site_fract_x
_atom_site_fract_y
_atom_site_fract_z
Si Si1 0.422085 0.422085 0.333474
Si Si2 0.084185 0.625418 0.338179
Si Si3 0.464426 0.624724 0.665414
Si Si4 0.271630 0.516903 0.836596
Si Si5 0.666598 0.666598 0.666927
Si Si6 0.149886 0.537674 0.165262
Si Si7 0.607288 0.751483 0.839348
O O1 0.425829 0.425829 0.500000
O O2 0.404938 0.481290 0.274582
O O3 0.377880 0.377880 0.285383
O O4 0.087690 0.606895 0.500000
O O5 0.115767 0.582686 0.244576
O O6 0.111955 0.684021 0.317972
O O7 0.021553 0.628092 0.288620
O O8 0.470430 0.636513 0.500000
O O9 0.413008 0.586993 0.698913
O O10 0.454882 0.681938 0.743197
O O11 0.213685 0.543675 0.796330
O O12 0.269461 0.452947 0.802347
O O13 0.284955 0.526802 0.000000
O O14 0.672053 0.672053 0.500000
O O15 0.649662 0.724450 0.731829
O O16 0.141508 0.545663 0.000000
O O17 0.621950 0.735736 0.000000
#
# Coordination Sequence:
#
# PCOD8317848 Si02
#       7
#     8  16  16  16   8  16  16
#     4   9  17  29  44  69 103 131 159 205 255 293
#     4   9  19  35  54  78 105 135 167 201 247 302
#     4  10  19  31  48  70  99 134 169 207 252 299
#     4   9  18  33  51  70  96 131 166 203 247 294
#     4  11  19  28  49  77 100 128 170 215 255 298
#     4   9  19  35  54  77 105 133 163 203 251 298
#     4   9  18  33  51  71  99 132 165 203 251 299
#
# _framework density 16.810669000000001
#
# number of rings (size 3 to 8) (size 9 to 14) (size 15 to 20)
#    0.000    2.667    1.667    2.500    0.000    3.667 
#    0.000    5.417    1.833    1.000    0.000    0.000 
#    0.000    0.000    0.000    0.000    0.000    0.000 
#
# Total GULP energy -1190400.441297 kJ/mol
# GULP energy per Si atom -12400.004597 kJ/mol
# Density = 1.677241 g / cm^3
# Si number density = 16.810669 Si / 1000 Ang^3
#
#
#
# Elastic Constant Matrix: (Units=GPa)
#
#
# Indices 1 2 3 4 5 6 
#
# 1 101.6198 63.9804 55.3591 0.0000 0.0000 0.0000
# 2 63.9804 101.6198 55.3591 0.0000 0.0000 0.0000
# 3 55.3591 55.3591 66.6571 0.0000 0.0000 0.0000
# 4 0.0000 0.0000 0.0000 32.1886 0.0000 0.0000
# 5 0.0000 0.0000 0.0000 0.0000 32.1886 0.0000
# 6 0.0000 0.0000 0.0000 0.0000 0.0000 26.2501
#
#
#
# Elastic Compliance Matrix: (Units=1/GPa)
#
#
# Indices 1 2 3 4 5 6 
#
# 1 0.020073 -0.006495 -0.011277 0.000000 0.000000 0.000000
# 2 -0.006495 0.020073 -0.011277 0.000000 0.000000 0.000000
# 3 -0.011277 -0.011277 0.033733 0.000000 0.000000 0.000000
# 4 0.000000 0.000000 0.000000 0.031067 0.000000 0.000000
# 5 0.000000 0.000000 0.000000 0.000000 0.031067 0.000000
# 6 0.000000 0.000000 0.000000 0.000000 0.000000 0.038095
#
#
# Mechanical properties :
#
#
# Convention : Reuss Voigt Hill
#
# Bulk Modulus (GPa) = 63.36211 68.81041 66.08626
# Shear Modulus (GPa) = 21.05574 24.47199 22.76386
#
# Velocity S-wave (km/s) = 3.54294 3.81956 3.68385
# Velocity P-wave (km/s) = 7.38309 7.77647 7.58233
#
# Compressibility (1/GPa) = 0.01578230
#
# Stress axis : x y z
#
# Youngs Moduli (GPa) = 49.81820 49.81820 29.64476
#
# Poissons Ratio (x) = 0.32357 0.33429
# Poissons Ratio (y) = 0.32357 0.33429
# Poissons Ratio (z) = 0.56178 0.56178
#
# Static dielectric constant tensor:
#      x y z
#    x 3.067610 0.000000 0.000000 
#    y 0.000000 3.067610 0.000000 
#    z 0.000000 0.000000 2.992410 
# 
# 
# High freq. dielectric constant tensor:
#      x y z
#    x 1.640980 0.000000 0.000000 
#    y 0.000000 1.640980 0.000000 
#    z 0.000000 0.000000 1.639910 
# 
# From -- ./inp_files/2072.got.cif
#   From: 2010.03.12/outbox.cif.g09.slc.cpg/sg136_2_cif.got.tgz:2072.got - 2010.04.06 18:39:43.
