data_PCOD8317502
_publ_section_title
;
Structure prediction by ZEFSAII (Michael W. Deem and Ramdas Pophale) SiO2 
 PCOD8317502
Probable space group: P 42/M B C
;
_chemical_formula_sum "Si O2"
_cell_formula_units_Z 112
_cell_length_a 13.601652
_cell_length_b 13.601652
_cell_length_c 27.712483
_cell_angle_alpha 90.000000
_cell_angle_beta 90.000000
_cell_angle_gamma 90.000000
_cell_volume 5126.946175
_symmetry_space_group_name_H-M "P 42/M B C"
_symmetry_group_IT_number 135
_symmetry_cell_setting 'tetragonal'
loop_
_space_group_symop_operation_xyz
x,y,z
-y,x,1/2+z
-x,-y,z
y,-x,1/2+z
1/2+x,1/2-y,-z
1/2-x,1/2+y,-z
1/2+y,1/2+x,1/2-z
1/2-y,1/2-x,1/2-z
-x,-y,-z
y,-x,1/2-z
x,y,-z
-y,x,1/2-z
1/2-x,1/2+y,z
1/2+x,1/2-y,z
1/2-y,1/2-x,1/2+z
1/2+y,1/2+x,1/2+z
loop_
_atom_site_type_symbol
_atom_site_label
_atom_site_fract_x
_atom_site_fract_y
_atom_site_fract_z
Si Si1 0.344823 0.180523 0.698435
Si Si2 0.604565 0.961707 0.556392
Si Si3 0.752790 0.306236 0.944000
Si Si4 0.176759 0.148202 0.372405
Si Si5 0.947891 0.794701 0.899844
Si Si6 0.222791 0.444536 0.193427
Si Si7 0.747397 0.112827 0.296988
O O1 0.369875 0.130126 0.750000
O O2 0.271206 0.122595 0.662628
O O3 0.450511 0.189220 0.672473
O O4 0.299334 0.284416 0.712816
O O5 0.612959 0.981660 0.500000
O O6 0.619617 0.844053 0.566572
O O7 0.500000 0.000000 0.576283
O O8 0.685688 0.031341 0.580581
O O9 0.768123 0.209368 0.910919
O O10 0.644350 0.346201 0.927525
O O11 0.749090 0.277243 0.000000
O O12 0.087138 0.186892 0.340853
O O13 0.145698 0.051531 0.403626
O O14 0.934502 0.798464 0.842566
O O15 0.133122 0.367540 0.191380
O O16 0.260491 0.453673 0.249129
#
# Coordination Sequence:
#
# PCOD8317502 Si02
#       7
#    16  16  16  16  16  16  16
#     4  11  19  37  61  84 121 161 198 256 311 373
#     4   9  20  38  62  96 129 162 215 270 319 385
#     4  10  20  37  61  89 122 165 205 256 324 379
#     4  10  21  39  59  89 120 161 207 259 314 391
#     4  11  20  36  61  86 124 164 205 257 320 379
#     4  10  20  37  60  84 118 160 201 253 318 368
#     4  10  20  36  56  84 118 157 203 255 305 375
#
# _framework density 21.845362000000002
#
# number of rings (size 3 to 8) (size 9 to 14) (size 15 to 20)
#    0.000    1.857    5.714    1.286    0.000    2.857 
#    0.000    5.000    0.000    0.000    0.000    1.000 
#    0.000    0.000    0.000    0.000    0.000    0.000 
#
# Total GULP energy -1387599.531518 kJ/mol
# GULP energy per Si atom -12389.281531 kJ/mol
# Density = 2.179564 g / cm^3
# Si number density = 21.845362 Si / 1000 Ang^3
#
#
#
# Elastic Constant Matrix: (Units=GPa)
#
#
# Indices 1 2 3 4 5 6 
#
# 1 98.7366 25.9153 15.3864 0.0000 0.0000 0.0000
# 2 25.9153 98.7364 15.3864 0.0000 0.0000 0.0000
# 3 15.3864 15.3864 104.2785 0.0000 0.0000 0.0000
# 4 0.0000 0.0000 0.0000 23.1820 0.0000 0.0000
# 5 0.0000 0.0000 0.0000 0.0000 23.1819 0.0000
# 6 0.0000 0.0000 0.0000 0.0000 0.0000 16.6847
#
#
#
# Elastic Compliance Matrix: (Units=1/GPa)
#
#
# Indices 1 2 3 4 5 6 
#
# 1 0.011029 -0.002703 -0.001228 0.000000 0.000000 0.000000
# 2 -0.002703 0.011029 -0.001228 0.000000 0.000000 0.000000
# 3 -0.001228 -0.001228 0.009952 0.000000 0.000000 0.000000
# 4 0.000000 0.000000 0.000000 0.043137 0.000000 0.000000
# 5 0.000000 0.000000 0.000000 0.000000 0.043137 0.000000
# 6 0.000000 0.000000 0.000000 0.000000 0.000000 0.059935
#
#
# Mechanical properties :
#
#
# Convention : Reuss Voigt Hill
#
# Bulk Modulus (GPa) = 46.10494 46.12528 46.11511
# Shear Modulus (GPa) = 25.54022 28.94728 27.24375
#
# Velocity S-wave (km/s) = 3.42297 3.64414 3.53529
# Velocity P-wave (km/s) = 6.06410 6.23431 6.14979
#
# Compressibility (1/GPa) = 0.02168965
#
# Stress axis : x y z
#
# Youngs Moduli (GPa) = 90.67066 90.67043 100.48012
#
# Poissons Ratio (x) = 0.24511 0.12343
# Poissons Ratio (y) = 0.24511 0.12344
# Poissons Ratio (z) = 0.11138 0.11138
#
# Static dielectric constant tensor:
#      x y z
#    x 3.800250 0.000000 0.000000 
#    y 0.000000 3.800250 0.000000 
#    z 0.000000 0.000000 4.101370 
# 
# 
# High freq. dielectric constant tensor:
#      x y z
#    x 1.834120 0.000000 0.000000 
#    y 0.000000 1.834120 0.000000 
#    z 0.000000 0.000000 1.873230 
# 
# From -- ./inp_files/6880.got.cif
#   From: 2010.03.12/outbox.cif.g09.slc.cpg/sg135_4_cif.got.tgz:6880.got - 2010.04.06 18:31:24.
