data_PCOD8317843
_publ_section_title
;
Structure prediction by ZEFSAII (Michael W. Deem and Ramdas Pophale) SiO2 
 PCOD8317843
Probable space group: P 42/M N M
;
_chemical_formula_sum "Si O2"
_cell_formula_units_Z 72
_cell_length_a 19.640248
_cell_length_b 19.640248
_cell_length_c 9.110563
_cell_angle_alpha 90.000000
_cell_angle_beta 90.000000
_cell_angle_gamma 90.000000
_cell_volume 3514.302572
_symmetry_space_group_name_H-M "P 42/M N M"
_symmetry_group_IT_number 136
_symmetry_cell_setting 'tetragonal'
loop_
_space_group_symop_operation_xyz
x,y,z
1/2-y,1/2+x,1/2+z
-x,-y,z
1/2+y,1/2-x,1/2+z
1/2+x,1/2-y,1/2-z
1/2-x,1/2+y,1/2-z
y,x,-z
-y,-x,-z
-x,-y,-z
1/2+y,1/2-x,1/2-z
x,y,-z
1/2-y,1/2+x,1/2-z
1/2-x,1/2+y,1/2+z
1/2+x,1/2-y,1/2+z
-y,-x,z
y,x,z
loop_
_atom_site_type_symbol
_atom_site_label
_atom_site_fract_x
_atom_site_fract_y
_atom_site_fract_z
Si Si1 0.946013 0.053988 0.825565
Si Si2 0.722905 0.905731 0.664617
Si Si3 0.233095 0.342890 0.674150
Si Si4 0.203908 0.982667 0.174120
Si Si5 0.985326 0.590513 0.663759
O O1 0.965058 0.128759 0.768622
O O2 0.946657 0.053343 0.000000
O O3 0.000000 0.000000 0.761529
O O4 0.750410 0.890215 0.500000
O O5 0.690965 0.836983 0.736435
O O6 0.668080 0.965445 0.659279
O O7 0.780450 0.941668 0.762821
O O8 0.226750 0.343951 0.500000
O O9 0.296163 0.296163 0.725211
O O10 0.246423 0.420552 0.728767
O O11 0.207437 0.988176 0.000000
O O12 0.004196 0.565276 0.500000
O O13 0.920792 0.547556 0.724604
#
# Coordination Sequence:
#
# PCOD8317843 Si02
#       5
#     8  16  16  16  16
#     4   9  18  34  59  89 113 137 179 236 285 332
#     4  10  21  33  49  77 108 136 174 228 277 320
#     4   9  17  33  56  77 101 142 193 228 261 328
#     4  10  19  35  59  82 107 145 189 227 275 337
#     4  10  19  31  47  70 102 139 178 218 266 320
#
# _framework density 20.487707
#
# number of rings (size 3 to 8) (size 9 to 14) (size 15 to 20)
#    0.000    2.333    1.111    2.667    0.000    4.444 
#    0.000    1.667    0.000    2.000    0.000    0.000 
#    0.000    0.000    0.000    0.000    0.000    0.000 
#
# Total GULP energy -892079.400501 kJ/mol
# GULP energy per Si atom -12389.991674 kJ/mol
# Density = 2.044108 g / cm^3
# Si number density = 20.487707 Si / 1000 Ang^3
#
#
#
# Elastic Constant Matrix: (Units=GPa)
#
#
# Indices 1 2 3 4 5 6 
#
# 1 103.5660 46.2456 16.3464 0.0000 0.0000 0.0000
# 2 46.2456 103.5660 16.3463 0.0000 0.0000 0.0000
# 3 16.3464 16.3463 48.1543 0.0000 0.0000 0.0000
# 4 0.0000 0.0000 0.0000 18.4831 0.0000 0.0000
# 5 0.0000 0.0000 0.0000 0.0000 18.4832 0.0000
# 6 0.0000 0.0000 0.0000 0.0000 0.0000 34.5057
#
#
#
# Elastic Compliance Matrix: (Units=1/GPa)
#
#
# Indices 1 2 3 4 5 6 
#
# 1 0.012327 -0.005118 -0.002447 0.000000 0.000000 0.000000
# 2 -0.005118 0.012327 -0.002447 0.000000 0.000000 0.000000
# 3 -0.002447 -0.002447 0.022428 0.000000 0.000000 0.000000
# 4 0.000000 0.000000 0.000000 0.054103 0.000000 0.000000
# 5 0.000000 0.000000 0.000000 0.000000 0.054103 0.000000
# 6 0.000000 0.000000 0.000000 0.000000 0.000000 0.028981
#
#
# Mechanical properties :
#
#
# Convention : Reuss Voigt Hill
#
# Bulk Modulus (GPa) = 36.95838 45.90700 41.43269
# Shear Modulus (GPa) = 23.43951 26.05092 24.74521
#
# Velocity S-wave (km/s) = 3.38609 3.56973 3.47912
# Velocity P-wave (km/s) = 5.77632 6.28064 6.03375
#
# Compressibility (1/GPa) = 0.02705746
#
# Stress axis : x y z
#
# Youngs Moduli (GPa) = 81.11981 81.11981 44.58706
#
# Poissons Ratio (x) = 0.41520 0.10911
# Poissons Ratio (y) = 0.41520 0.10911
# Poissons Ratio (z) = 0.19852 0.19851
#
# Static dielectric constant tensor:
#      x y z
#    x 3.792440 0.000000 0.000000 
#    y 0.000000 3.792440 0.000000 
#    z 0.000000 0.000000 3.386540 
# 
# 
# High freq. dielectric constant tensor:
#      x y z
#    x 1.803720 0.000000 0.000000 
#    y 0.000000 1.803720 0.000000 
#    z 0.000000 0.000000 1.750150 
# 
# From -- ./inp_files/1562.got.cif
#   From: 2010.03.12/outbox.cif.g09.slc.cpg/sg136_1_cif.got.tgz:1562.got - 2010.04.06 18:39:43.
