data_PCOD8317940
_publ_section_title
;
Structure prediction by ZEFSAII (Michael W. Deem and Ramdas Pophale) SiO2 
 PCOD8317940
Probable space group: P 42/M N M
;
_chemical_formula_sum "Si O2"
_cell_formula_units_Z 128
_cell_length_a 24.185425
_cell_length_b 24.185425
_cell_length_c 11.932349
_cell_angle_alpha 90.000000
_cell_angle_beta 90.000000
_cell_angle_gamma 90.000000
_cell_volume 6979.645966
_symmetry_space_group_name_H-M "P 42/M N M"
_symmetry_group_IT_number 136
_symmetry_cell_setting 'tetragonal'
loop_
_space_group_symop_operation_xyz
x,y,z
1/2-y,1/2+x,1/2+z
-x,-y,z
1/2+y,1/2-x,1/2+z
1/2+x,1/2-y,1/2-z
1/2-x,1/2+y,1/2-z
y,x,-z
-y,-x,-z
-x,-y,-z
1/2+y,1/2-x,1/2-z
x,y,-z
1/2-y,1/2+x,1/2-z
1/2-x,1/2+y,1/2+z
1/2+x,1/2-y,1/2+z
-y,-x,z
y,x,z
loop_
_atom_site_type_symbol
_atom_site_label
_atom_site_fract_x
_atom_site_fract_y
_atom_site_fract_z
Si Si1 0.944847 0.140335 0.630696
Si Si2 0.675226 0.172263 0.372243
Si Si3 0.125290 0.550312 0.873304
Si Si4 0.156940 0.067371 0.632027
Si Si5 0.219009 0.869561 0.247983
Si Si6 0.125689 0.435043 0.211987
Si Si7 0.274573 0.965165 0.870446
Si Si8 0.234261 0.579443 0.743259
O O1 0.951492 0.132537 0.500000
O O2 0.913917 0.086084 0.681640
O O3 0.907039 0.194347 0.651615
O O4 0.005919 0.146622 0.682382
O O5 0.692594 0.185610 0.500000
O O6 0.729303 0.166042 0.294030
O O7 0.641815 0.115204 0.368375
O O8 0.634344 0.220273 0.328289
O O9 0.079864 0.573464 0.788051
O O10 0.114659 0.484920 0.872511
O O11 0.186431 0.566927 0.833195
O O12 0.117228 0.572291 0.000000
O O13 0.167961 0.065535 0.500000
O O14 0.103796 0.103796 0.662370
O O15 0.210442 0.093934 0.689346
O O16 0.173922 0.826079 0.201018
O O17 0.232445 0.914007 0.150388
O O18 0.172119 0.451554 0.299401
O O19 0.253399 0.026034 0.834842
O O20 0.289944 0.966945 0.000000
#
# Coordination Sequence:
#
# PCOD8317940 Si02
#       8
#    16  16  16  16  16  16  16  16
#     4   9  17  31  53  81 111 139 170 214 271 328
#     4  10  20  34  53  77 108 141 178 223 273 322
#     4  10  19  34  53  71 100 136 173 217 269 322
#     4  10  20  34  54  81 111 142 177 219 268 323
#     4  10  20  34  53  81 110 138 177 226 274 323
#     4   9  20  33  50  77 101 130 175 219 268 326
#     4  10  19  34  55  76 103 139 180 224 267 316
#     4  10  20  35  53  78 104 143 184 221 259 321
#
# _framework density 18.339039
#
# number of rings (size 3 to 8) (size 9 to 14) (size 15 to 20)
#    0.000    2.250    1.250    1.875    0.000    2.000 
#    0.000    4.375    0.000    1.125    0.000    0.000 
#    0.000    2.000    0.000    0.000    0.000    0.000 
#
# Total GULP energy -1586618.755072 kJ/mol
# GULP energy per Si atom -12395.459024 kJ/mol
# Density = 1.829730 g / cm^3
# Si number density = 18.339039 Si / 1000 Ang^3
#
#
#
# Elastic Constant Matrix: (Units=GPa)
#
#
# Indices 1 2 3 4 5 6 
#
# 1 85.9785 43.5472 14.2959 0.0000 0.0000 0.0000
# 2 43.5472 85.9785 14.2959 0.0000 0.0000 0.0000
# 3 14.2959 14.2959 61.1309 0.0000 0.0000 0.0000
# 4 0.0000 0.0000 0.0000 8.1765 0.0000 0.0000
# 5 0.0000 0.0000 0.0000 0.0000 8.1765 0.0000
# 6 0.0000 0.0000 0.0000 0.0000 0.0000 25.9404
#
#
#
# Elastic Compliance Matrix: (Units=1/GPa)
#
#
# Indices 1 2 3 4 5 6 
#
# 1 0.015854 -0.007713 -0.001904 0.000000 0.000000 0.000000
# 2 -0.007713 0.015854 -0.001904 0.000000 0.000000 0.000000
# 3 -0.001904 -0.001904 0.017249 0.000000 0.000000 0.000000
# 4 0.000000 0.000000 0.000000 0.122302 0.000000 0.000000
# 5 0.000000 0.000000 0.000000 0.000000 0.122302 0.000000
# 6 0.000000 0.000000 0.000000 0.000000 0.000000 0.038550
#
#
# Mechanical properties :
#
#
# Convention : Reuss Voigt Hill
#
# Bulk Modulus (GPa) = 38.58751 41.92956 40.25853
# Shear Modulus (GPa) = 13.74417 19.18860 16.46639
#
# Velocity S-wave (km/s) = 2.74058 3.23820 2.99973
# Velocity P-wave (km/s) = 5.57685 6.07408 5.83077
#
# Compressibility (1/GPa) = 0.02591512
#
# Stress axis : x y z
#
# Youngs Moduli (GPa) = 63.07515 63.07515 57.97523
#
# Poissons Ratio (x) = 0.48652 0.11037
# Poissons Ratio (y) = 0.48652 0.11037
# Poissons Ratio (z) = 0.12008 0.12008
#
# Static dielectric constant tensor:
#      x y z
#    x 3.515200 0.000000 0.000000 
#    y 0.000000 3.515200 0.000000 
#    z 0.000000 0.000000 3.087280 
# 
# 
# High freq. dielectric constant tensor:
#      x y z
#    x 1.710880 0.000000 0.000000 
#    y 0.000000 1.710880 0.000000 
#    z 0.000000 0.000000 1.688890 
# 
# From -- ./inp_files/4067.got.cif
#   From: 2010.03.12/outbox.cif.g09.slc.cpg/sg136_3_cif.got.tgz:4067.got - 2010.04.06 18:39:43.
