data_PCOD8317786
_publ_section_title
;
Structure prediction by ZEFSAII (Michael W. Deem and Ramdas Pophale) SiO2 
 PCOD8317786
Probable space group: P 42/M N M
;
_chemical_formula_sum "Si O2"
_cell_formula_units_Z 68
_cell_length_a 17.677285
_cell_length_b 17.677285
_cell_length_c 12.414550
_cell_angle_alpha 90.000000
_cell_angle_beta 90.000000
_cell_angle_gamma 90.000000
_cell_volume 3879.378099
_symmetry_space_group_name_H-M "P 42/M N M"
_symmetry_group_IT_number 136
_symmetry_cell_setting 'tetragonal'
loop_
_space_group_symop_operation_xyz
x,y,z
1/2-y,1/2+x,1/2+z
-x,-y,z
1/2+y,1/2-x,1/2+z
1/2+x,1/2-y,1/2-z
1/2-x,1/2+y,1/2-z
y,x,-z
-y,-x,-z
-x,-y,-z
1/2+y,1/2-x,1/2-z
x,y,-z
1/2-y,1/2+x,1/2-z
1/2-x,1/2+y,1/2+z
1/2+x,1/2-y,1/2+z
-y,-x,z
y,x,z
loop_
_atom_site_type_symbol
_atom_site_label
_atom_site_fract_x
_atom_site_fract_y
_atom_site_fract_z
Si Si1 0.280618 0.162438 0.500000
Si Si2 0.436613 0.563388 0.231347
Si Si3 0.708726 0.832637 0.879701
Si Si4 0.203964 0.019185 0.875872
Si Si5 0.618634 0.381367 0.000000
Si Si6 0.358288 0.231960 0.683076
O O1 0.247180 0.247180 0.500000
O O2 0.210283 0.103054 0.500000
O O3 0.331225 0.161328 0.607827
O O4 0.500000 0.500000 0.227054
O O5 0.469252 0.635096 0.294378
O O6 0.416385 0.583616 0.107857
O O7 0.784955 0.784955 0.859289
O O8 0.731485 0.918645 0.855743
O O9 0.641745 0.803535 0.802743
O O10 0.677524 0.822116 0.000000
O O11 0.243425 0.940492 0.852098
O O12 0.174951 0.022856 0.000000
O O13 0.305051 0.305051 0.678839
#
# Coordination Sequence:
#
# PCOD8317786 Si02
#       6
#     8   8  16  16   4  16
#     4   8  16  29  54  75  95 129 192 243 254 296
#     4  12  24  36  51  81 126 164 181 217 272 363
#     4   9  18  34  55  76 105 144 185 227 271 333
#     4  11  21  35  56  84 113 145 188 229 288 334
#     4  10  21  40  56  72 106 167 206 220 262 322
#     4  10  18  32  54  81 107 137 184 236 277 317
#
# _framework density 17.528582
#
# number of rings (size 3 to 8) (size 9 to 14) (size 15 to 20)
#    0.353    1.647    2.353    2.647    0.000    1.882 
#    2.118    0.000    0.000    0.706    0.000    3.294 
#    0.000    0.000    0.000    0.000    0.000    0.000 
#
# Total GULP energy -842671.143540 kJ/mol
# GULP energy per Si atom -12392.222699 kJ/mol
# Density = 1.748869 g / cm^3
# Si number density = 17.528582 Si / 1000 Ang^3
#
#
#
# Elastic Constant Matrix: (Units=GPa)
#
#
# Indices 1 2 3 4 5 6 
#
# 1 54.0308 8.0451 37.1603 0.0000 0.0000 0.0000
# 2 8.0451 54.0304 37.1602 0.0000 0.0000 0.0000
# 3 37.1603 37.1602 133.4898 0.0000 0.0000 0.0000
# 4 0.0000 0.0000 0.0000 23.4929 0.0000 0.0000
# 5 0.0000 0.0000 0.0000 0.0000 23.4930 0.0000
# 6 0.0000 0.0000 0.0000 0.0000 0.0000 15.3622
#
#
#
# Elastic Compliance Matrix: (Units=1/GPa)
#
#
# Indices 1 2 3 4 5 6 
#
# 1 0.022954 0.001208 -0.006726 0.000000 0.000000 0.000000
# 2 0.001208 0.022954 -0.006726 0.000000 0.000000 0.000000
# 3 -0.006726 -0.006726 0.011236 0.000000 0.000000 0.000000
# 4 0.000000 0.000000 0.000000 0.042566 0.000000 0.000000
# 5 0.000000 0.000000 0.000000 0.000000 0.042566 0.000000
# 6 0.000000 0.000000 0.000000 0.000000 0.000000 0.065095
#
#
# Mechanical properties :
#
#
# Convention : Reuss Voigt Hill
#
# Bulk Modulus (GPa) = 30.62231 45.14248 37.88240
# Shear Modulus (GPa) = 20.59775 23.08198 21.83986
#
# Velocity S-wave (km/s) = 3.43169 3.63274 3.53364
# Velocity P-wave (km/s) = 5.76280 6.58827 6.18931
#
# Compressibility (1/GPa) = 0.03265593
#
# Stress axis : x y z
#
# Youngs Moduli (GPa) = 43.56528 43.56488 88.99946
#
# Poissons Ratio (x) = -0.05263 0.59863
# Poissons Ratio (y) = -0.05264 0.59863
# Poissons Ratio (z) = 0.29303 0.29303
#
# Static dielectric constant tensor:
#      x y z
#    x 3.023450 0.000000 0.000000 
#    y 0.000000 3.023450 0.000000 
#    z 0.000000 0.000000 3.610750 
# 
# 
# High freq. dielectric constant tensor:
#      x y z
#    x 1.651520 0.000000 0.000000 
#    y 0.000000 1.651520 0.000000 
#    z 0.000000 0.000000 1.701130 
# 
# From -- ./inp_files/3477.got.cif
#   From: 2010.03.12/outbox.cif.g09.slc.cpg/sg136_2_cif.got.tgz:3477.got - 2010.04.06 18:39:43.
