data_PCOD8317426
_publ_section_title
;
Structure prediction by ZEFSAII (Michael W. Deem and Ramdas Pophale) SiO2 
 PCOD8317426
Probable space group: P 42/M B C
;
_chemical_formula_sum "Si O2"
_cell_formula_units_Z 96
_cell_length_a 13.136441
_cell_length_b 13.136441
_cell_length_c 31.012942
_cell_angle_alpha 90.000000
_cell_angle_beta 90.000000
_cell_angle_gamma 90.000000
_cell_volume 5351.781897
_symmetry_space_group_name_H-M "P 42/M B C"
_symmetry_group_IT_number 135
_symmetry_cell_setting 'tetragonal'
loop_
_space_group_symop_operation_xyz
x,y,z
-y,x,1/2+z
-x,-y,z
y,-x,1/2+z
1/2+x,1/2-y,-z
1/2-x,1/2+y,-z
1/2+y,1/2+x,1/2-z
1/2-y,1/2-x,1/2-z
-x,-y,-z
y,-x,1/2-z
x,y,-z
-y,x,1/2-z
1/2-x,1/2+y,z
1/2+x,1/2-y,z
1/2-y,1/2-x,1/2+z
1/2+y,1/2+x,1/2+z
loop_
_atom_site_type_symbol
_atom_site_label
_atom_site_fract_x
_atom_site_fract_y
_atom_site_fract_z
Si Si1 0.863458 0.706925 0.110118
Si Si2 0.983292 0.837375 0.246274
Si Si3 0.059031 0.762457 0.157759
Si Si4 0.116284 0.713174 0.382477
Si Si5 0.616664 0.025223 0.047816
Si Si6 0.075587 0.226361 0.665085
O O1 0.784292 0.795223 0.099315
O O2 0.869913 0.636933 0.068041
O O3 0.826073 0.637620 0.150339
O O4 0.970476 0.758006 0.122255
O O5 0.937109 0.765692 0.283469
O O6 0.080627 0.896595 0.266378
O O7 0.012244 0.765971 0.205930
O O8 0.128625 0.662439 0.150376
O O9 0.123982 0.865224 0.150721
O O10 0.063565 0.665984 0.424121
O O11 0.035096 0.779655 0.356328
O O12 0.500000 0.000000 0.044306
O O13 0.666109 0.026296 0.000000
#
# Coordination Sequence:
#
# PCOD8317426 Si02
#       6
#    16  16  16  16  16  16
#     4  10  20  34  56  79 104 138 176 213 265 315
#     4   9  17  30  48  71 104 145 179 213 259 303
#     4  10  19  33  52  75 107 141 178 221 256 306
#     4  10  20  35  55  80 104 138 175 215 263 316
#     4  10  20  37  59  79 105 137 170 215 266 321
#     4   9  20  33  49  78 105 139 182 216 259 310
#
# _framework density 17.937949
#
# number of rings (size 3 to 8) (size 9 to 14) (size 15 to 20)
#    0.000    2.333    1.667    1.000    0.000    4.000 
#    0.000    5.000    0.000    2.000    0.000    4.667 
#    0.000    0.000    0.000    0.000    0.000    0.000 
#
# Total GULP energy -1190240.306193 kJ/mol
# GULP energy per Si atom -12398.336523 kJ/mol
# Density = 1.789712 g / cm^3
# Si number density = 17.937949 Si / 1000 Ang^3
#
#
#
# Elastic Constant Matrix: (Units=GPa)
#
#
# Indices 1 2 3 4 5 6 
#
# 1 89.6697 42.0275 55.2244 0.0000 0.0000 0.0000
# 2 42.0275 89.6697 55.2244 0.0000 0.0000 0.0000
# 3 55.2244 55.2244 122.5652 0.0000 0.0000 0.0000
# 4 0.0000 0.0000 0.0000 17.9672 0.0000 0.0000
# 5 0.0000 0.0000 0.0000 0.0000 17.9672 0.0000
# 6 0.0000 0.0000 0.0000 0.0000 0.0000 20.9201
#
#
#
# Elastic Compliance Matrix: (Units=1/GPa)
#
#
# Indices 1 2 3 4 5 6 
#
# 1 0.016598 -0.004392 -0.005499 0.000000 0.000000 0.000000
# 2 -0.004392 0.016598 -0.005499 0.000000 0.000000 0.000000
# 3 -0.005499 -0.005499 0.013115 0.000000 0.000000 0.000000
# 4 0.000000 0.000000 0.000000 0.055657 0.000000 0.000000
# 5 0.000000 0.000000 0.000000 0.000000 0.055657 0.000000
# 6 0.000000 0.000000 0.000000 0.000000 0.000000 0.047801
#
#
# Mechanical properties :
#
#
# Convention : Reuss Voigt Hill
#
# Bulk Modulus (GPa) = 64.40085 67.42857 65.91471
# Shear Modulus (GPa) = 20.71403 21.33279 21.02341
#
# Velocity S-wave (km/s) = 3.40186 3.45230 3.42717
# Velocity P-wave (km/s) = 7.17009 7.31865 7.24475
#
# Compressibility (1/GPa) = 0.01552775
#
# Stress axis : x y z
#
# Youngs Moduli (GPa) = 60.25003 60.25003 76.25092
#
# Poissons Ratio (x) = 0.26464 0.41933
# Poissons Ratio (y) = 0.26464 0.41933
# Poissons Ratio (z) = 0.33133 0.33133
#
# Static dielectric constant tensor:
#      x y z
#    x 3.347840 0.000000 0.000000 
#    y 0.000000 3.347840 0.000000 
#    z 0.000000 0.000000 3.338220 
# 
# 
# High freq. dielectric constant tensor:
#      x y z
#    x 1.696830 0.000000 0.000000 
#    y 0.000000 1.696830 0.000000 
#    z 0.000000 0.000000 1.679350 
# 
# From -- ./inp_files/6850.got.cif
#   From: 2010.03.12/outbox.cif.g09.slc.cpg/sg135_4_cif.got.tgz:6850.got - 2010.04.06 18:31:24.
