data_PCOD8317869
_publ_section_title
;
Structure prediction by ZEFSAII (Michael W. Deem and Ramdas Pophale) SiO2 
 PCOD8317869
Probable space group: P 42/M N M
;
_chemical_formula_sum "Si O2"
_cell_formula_units_Z 72
_cell_length_a 23.314019
_cell_length_b 23.314019
_cell_length_c 8.102113
_cell_angle_alpha 90.000000
_cell_angle_beta 90.000000
_cell_angle_gamma 90.000000
_cell_volume 4403.850711
_symmetry_space_group_name_H-M "P 42/M N M"
_symmetry_group_IT_number 136
_symmetry_cell_setting 'tetragonal'
loop_
_space_group_symop_operation_xyz
x,y,z
1/2-y,1/2+x,1/2+z
-x,-y,z
1/2+y,1/2-x,1/2+z
1/2+x,1/2-y,1/2-z
1/2-x,1/2+y,1/2-z
y,x,-z
-y,-x,-z
-x,-y,-z
1/2+y,1/2-x,1/2-z
x,y,-z
1/2-y,1/2+x,1/2-z
1/2-x,1/2+y,1/2+z
1/2+x,1/2-y,1/2+z
-y,-x,z
y,x,z
loop_
_atom_site_type_symbol
_atom_site_label
_atom_site_fract_x
_atom_site_fract_y
_atom_site_fract_z
Si Si1 0.376989 0.714238 0.692224
Si Si2 0.800300 0.294525 0.186142
Si Si3 0.615863 0.709506 0.811076
Si Si4 0.091787 0.003005 0.500000
Si Si5 0.499232 0.328025 0.310727
O O1 0.366737 0.717234 0.500000
O O2 0.339976 0.660025 0.763708
O O3 0.357010 0.775869 0.765061
O O4 0.443978 0.707857 0.735988
O O5 0.747164 0.252837 0.215982
O O6 0.853601 0.271665 0.294553
O O7 0.822300 0.295108 0.000000
O O8 0.659321 0.659321 0.748940
O O9 0.558206 0.710449 0.701183
O O10 0.598717 0.698711 0.000000
O O11 0.067829 0.067829 0.500000
O O12 0.123752 0.992364 0.672485
O O13 0.040932 0.959069 0.500000
O O14 0.504603 0.352028 0.500000
#
# Coordination Sequence:
#
# PCOD8317869 Si02
#       5
#    16  16  16   8  16
#     4   9  18  32  48  68  94 125 161 201 250 299
#     4   9  17  28  46  71  94 120 154 197 248 303
#     4  10  19  32  49  69  96 128 163 204 251 299
#     4  11  24  38  50  68  94 130 178 219 252 290
#     4  11  22  35  52  72  97 131 169 212 255 297
#
# _framework density 16.349326999999999
#
# number of rings (size 3 to 8) (size 9 to 14) (size 15 to 20)
#    0.000    2.111    1.111    2.667    1.556    6.667 
#    0.000    1.111    0.000    0.000    0.000    0.000 
#    0.000    0.889    0.000    9.333    0.000    4.000 
#
# Total GULP energy -892269.684990 kJ/mol
# GULP energy per Si atom -12392.634514 kJ/mol
# Density = 1.631212 g / cm^3
# Si number density = 16.349327 Si / 1000 Ang^3
#
#
#
# Elastic Constant Matrix: (Units=GPa)
#
#
# Indices 1 2 3 4 5 6 
#
# 1 81.8108 52.4551 27.4939 0.0000 0.0000 0.0000
# 2 52.4551 81.8109 27.4939 0.0000 0.0000 0.0000
# 3 27.4939 27.4939 69.4999 0.0000 0.0000 0.0000
# 4 0.0000 0.0000 0.0000 23.4839 0.0000 0.0000
# 5 0.0000 0.0000 0.0000 0.0000 23.4837 0.0000
# 6 0.0000 0.0000 0.0000 0.0000 0.0000 21.0090
#
#
#
# Elastic Compliance Matrix: (Units=1/GPa)
#
#
# Indices 1 2 3 4 5 6 
#
# 1 0.021476 -0.012589 -0.003516 0.000000 0.000000 0.000000
# 2 -0.012589 0.021476 -0.003516 0.000000 0.000000 0.000000
# 3 -0.003516 -0.003516 0.017170 0.000000 0.000000 0.000000
# 4 0.000000 0.000000 0.000000 0.042582 0.000000 0.000000
# 5 0.000000 0.000000 0.000000 0.000000 0.042583 0.000000
# 6 0.000000 0.000000 0.000000 0.000000 0.000000 0.047599
#
#
# Mechanical properties :
#
#
# Convention : Reuss Voigt Hill
#
# Bulk Modulus (GPa) = 47.88801 49.77860 48.83330
# Shear Modulus (GPa) = 20.91274 21.97389 21.44331
#
# Velocity S-wave (km/s) = 3.58036 3.67007 3.62549
# Velocity P-wave (km/s) = 6.81513 6.96220 6.88906
#
# Compressibility (1/GPa) = 0.02088205
#
# Stress axis : x y z
#
# Youngs Moduli (GPa) = 46.56276 46.56276 58.23991
#
# Poissons Ratio (x) = 0.58616 0.20477
# Poissons Ratio (y) = 0.58616 0.20477
# Poissons Ratio (z) = 0.16371 0.16372
#
# Static dielectric constant tensor:
#      x y z
#    x 3.060890 0.000000 0.000000 
#    y 0.000000 3.060890 0.000000 
#    z 0.000000 0.000000 3.208140 
# 
# 
# High freq. dielectric constant tensor:
#      x y z
#    x 1.603520 0.000000 0.000000 
#    y 0.000000 1.603520 0.000000 
#    z 0.000000 0.000000 1.643230 
# 
# From -- ./inp_files/1597.got.cif
#   From: 2010.03.12/outbox.cif.g09.slc.cpg/sg136_1_cif.got.tgz:1597.got - 2010.04.06 18:39:43.
