data_PCOD8317384
_publ_section_title
;
Structure prediction by ZEFSAII (Michael W. Deem and Ramdas Pophale) SiO2 
 PCOD8317384
Probable space group: P 42/M B C
;
_chemical_formula_sum "Si O2"
_cell_formula_units_Z 80
_cell_length_a 13.198051
_cell_length_b 13.198051
_cell_length_c 26.425683
_cell_angle_alpha 90.000000
_cell_angle_beta 90.000000
_cell_angle_gamma 90.000000
_cell_volume 4603.051410
_symmetry_space_group_name_H-M "P 42/M B C"
_symmetry_group_IT_number 135
_symmetry_cell_setting 'tetragonal'
loop_
_space_group_symop_operation_xyz
x,y,z
-y,x,1/2+z
-x,-y,z
y,-x,1/2+z
1/2+x,1/2-y,-z
1/2-x,1/2+y,-z
1/2+y,1/2+x,1/2-z
1/2-y,1/2-x,1/2-z
-x,-y,-z
y,-x,1/2-z
x,y,-z
-y,x,1/2-z
1/2-x,1/2+y,z
1/2+x,1/2-y,z
1/2-y,1/2-x,1/2+z
1/2+y,1/2+x,1/2+z
loop_
_atom_site_type_symbol
_atom_site_label
_atom_site_fract_x
_atom_site_fract_y
_atom_site_fract_z
Si Si1 0.962981 0.886604 0.556727
Si Si2 0.427011 0.756479 0.813259
Si Si3 0.219931 0.108481 0.133059
Si Si4 0.128209 0.784798 0.132145
Si Si5 0.923047 0.736575 0.303709
O O1 0.950819 0.843441 0.500000
O O2 0.852936 0.886676 0.582616
O O3 0.047544 0.819285 0.584473
O O4 0.000000 0.000000 0.555899
O O5 0.370864 0.658099 0.835173
O O6 0.527839 0.768839 0.846468
O O7 0.364181 0.860275 0.816882
O O8 0.448098 0.740146 0.754280
O O9 0.296013 0.195955 0.115455
O O10 0.277641 0.030312 0.169304
O O11 0.168731 0.857640 0.176540
#
# Coordination Sequence:
#
# PCOD8317384 Si02
#       5
#    16  16  16  16  16
#     4  10  20  37  59  80 100 132 178 222 268 316
#     4  10  18  33  50  76 111 143 177 217 256 305
#     4  10  20  35  52  79 107 138 175 217 262 315
#     4  10  20  34  54  77 107 141 175 218 266 310
#     4   9  20  31  50  78 107 145 182 211 255 315
#
# _framework density 17.379774000000001
#
# number of rings (size 3 to 8) (size 9 to 14) (size 15 to 20)
#    0.000    2.200    2.000    1.200    0.000    4.000 
#    0.000    4.000    0.000    0.000    0.000    5.600 
#    0.000    0.000    0.000    0.000    0.000    0.000 
#
# Total GULP energy -991898.132694 kJ/mol
# GULP energy per Si atom -12398.726659 kJ/mol
# Density = 1.734022 g / cm^3
# Si number density = 17.379774 Si / 1000 Ang^3
#
#
#
# Elastic Constant Matrix: (Units=GPa)
#
#
# Indices 1 2 3 4 5 6 
#
# 1 85.3071 37.2750 54.2130 0.0000 0.0000 0.0000
# 2 37.2750 85.3071 54.2130 0.0000 0.0000 0.0000
# 3 54.2130 54.2130 141.7039 0.0000 0.0000 0.0000
# 4 0.0000 0.0000 0.0000 22.6493 0.0000 0.0000
# 5 0.0000 0.0000 0.0000 0.0000 22.6493 0.0000
# 6 0.0000 0.0000 0.0000 0.0000 0.0000 21.5167
#
#
#
# Elastic Compliance Matrix: (Units=1/GPa)
#
#
# Indices 1 2 3 4 5 6 
#
# 1 0.016575 -0.004245 -0.004717 0.000000 0.000000 0.000000
# 2 -0.004245 0.016575 -0.004717 0.000000 0.000000 0.000000
# 3 -0.004717 -0.004717 0.010666 0.000000 0.000000 0.000000
# 4 0.000000 0.000000 0.000000 0.044151 0.000000 0.000000
# 5 0.000000 0.000000 0.000000 0.000000 0.044151 0.000000
# 6 0.000000 0.000000 0.000000 0.000000 0.000000 0.046476
#
#
# Mechanical properties :
#
#
# Convention : Reuss Voigt Hill
#
# Bulk Modulus (GPa) = 60.76128 67.07999 63.92064
# Shear Modulus (GPa) = 23.64747 24.47087 24.05917
#
# Velocity S-wave (km/s) = 3.69268 3.75641 3.72468
# Velocity P-wave (km/s) = 7.29506 7.58252 7.44018
#
# Compressibility (1/GPa) = 0.01645785
#
# Stress axis : x y z
#
# Youngs Moduli (GPa) = 60.33222 60.33222 93.75162
#
# Poissons Ratio (x) = 0.25608 0.44226
# Poissons Ratio (y) = 0.25608 0.44226
# Poissons Ratio (z) = 0.28461 0.28461
#
# Static dielectric constant tensor:
#      x y z
#    x 3.223270 0.000000 0.000000 
#    y 0.000000 3.223270 0.000000 
#    z 0.000000 0.000000 3.312140 
# 
# 
# High freq. dielectric constant tensor:
#      x y z
#    x 1.673720 0.000000 0.000000 
#    y 0.000000 1.673720 0.000000 
#    z 0.000000 0.000000 1.665620 
# 
# From -- ./inp_files/6677.got.cif
#   From: 2010.03.12/outbox.cif.g09.slc.cpg/sg135_4_cif.got.tgz:6677.got - 2010.04.06 18:31:24.
