data_PCOD8317656
_publ_section_title
;
Structure prediction by ZEFSAII (Michael W. Deem and Ramdas Pophale) SiO2 
 PCOD8317656
Probable space group: P 42/M B C
;
_chemical_formula_sum "Si O2"
_cell_formula_units_Z 48
_cell_length_a 8.824387
_cell_length_b 8.824387
_cell_length_c 24.275748
_cell_angle_alpha 90.000000
_cell_angle_beta 90.000000
_cell_angle_gamma 90.000000
_cell_volume 1890.347785
_symmetry_space_group_name_H-M "P 42/M B C"
_symmetry_group_IT_number 135
_symmetry_cell_setting 'tetragonal'
loop_
_space_group_symop_operation_xyz
x,y,z
-y,x,1/2+z
-x,-y,z
y,-x,1/2+z
1/2+x,1/2-y,-z
1/2-x,1/2+y,-z
1/2+y,1/2+x,1/2-z
1/2-y,1/2-x,1/2-z
-x,-y,-z
y,-x,1/2-z
x,y,-z
-y,x,1/2-z
1/2-x,1/2+y,z
1/2+x,1/2-y,z
1/2-y,1/2-x,1/2+z
1/2+y,1/2+x,1/2+z
loop_
_atom_site_type_symbol
_atom_site_label
_atom_site_fract_x
_atom_site_fract_y
_atom_site_fract_z
Si Si1 0.718308 0.050540 0.936882
Si Si2 0.053597 0.726985 0.894177
Si Si3 0.221725 0.950568 0.729236
O O1 0.879828 0.117212 0.918612
O O2 0.592732 0.182235 0.929677
O O3 0.678109 0.907441 0.898488
O O4 0.721970 0.997130 0.000000
O O5 0.013235 0.754624 0.831335
O O6 0.378769 0.878769 0.750000
O O7 0.088380 0.824178 0.730178
#
# Coordination Sequence:
#
# PCOD8317656 Si02
#       3
#    16  16  16
#     4  11  24  47  74 107 144 188 241 306 374 445
#     4  11  25  45  72 104 143 191 242 301 369 444
#     4  11  27  49  73 107 148 196 247 302 363 435
#
# _framework density 25.392151999999999
#
# number of rings (size 3 to 8) (size 9 to 14) (size 15 to 20)
#    0.000    1.000    0.000    6.000    0.000   23.333 
#    0.000    3.333    0.000    0.000    0.000    0.000 
#    0.000    0.000    0.000    0.000    0.000    0.000 
#
# Total GULP energy -595460.927368 kJ/mol
# GULP energy per Si atom -12405.435987 kJ/mol
# Density = 2.533436 g / cm^3
# Si number density = 25.392152 Si / 1000 Ang^3
#
#
#
# Elastic Constant Matrix: (Units=GPa)
#
#
# Indices 1 2 3 4 5 6 
#
# 1 82.9783 64.8245 76.9498 0.0000 0.0000 0.0000
# 2 64.8245 82.9783 76.9498 0.0000 0.0000 0.0000
# 3 76.9498 76.9498 207.3455 0.0000 0.0000 0.0000
# 4 0.0000 0.0000 0.0000 12.7346 0.0000 0.0000
# 5 0.0000 0.0000 0.0000 0.0000 12.7346 0.0000
# 6 0.0000 0.0000 0.0000 0.0000 0.0000 72.4013
#
#
#
# Elastic Compliance Matrix: (Units=1/GPa)
#
#
# Indices 1 2 3 4 5 6 
#
# 1 0.033056 -0.022029 -0.004092 0.000000 0.000000 0.000000
# 2 -0.022029 0.033056 -0.004092 0.000000 0.000000 0.000000
# 3 -0.004092 -0.004092 0.007860 0.000000 0.000000 0.000000
# 4 0.000000 0.000000 0.000000 0.078526 0.000000 0.000000
# 5 0.000000 0.000000 0.000000 0.000000 0.078526 0.000000
# 6 0.000000 0.000000 0.000000 0.000000 0.000000 0.013812
#
#
# Mechanical properties :
#
#
# Convention : Reuss Voigt Hill
#
# Bulk Modulus (GPa) = 73.82843 90.08337 81.95590
# Shear Modulus (GPa) = 16.14057 29.87932 23.00995
#
# Velocity S-wave (km/s) = 2.52395 3.43405 3.01355
# Velocity P-wave (km/s) = 6.13451 7.16083 6.66744
#
# Compressibility (1/GPa) = 0.01354492
#
# Stress axis : x y z
#
# Youngs Moduli (GPa) = 30.25171 30.25171 127.22158
#
# Poissons Ratio (x) = 0.66642 0.52062
# Poissons Ratio (y) = 0.66642 0.52062
# Poissons Ratio (z) = 0.12380 0.12380
#
# Static dielectric constant tensor:
#      x y z
#    x 5.005850 0.000000 0.000000 
#    y 0.000000 5.005850 0.000000 
#    z 0.000000 0.000000 4.341070 
# 
# 
# High freq. dielectric constant tensor:
#      x y z
#    x 2.026360 0.000000 0.000000 
#    y 0.000000 2.026360 0.000000 
#    z 0.000000 0.000000 2.007940 
# 
# From -- ./inp_files/6604.got.cif
#   From: 2010.03.12/outbox.cif.g09.slc.cpg/sg135_4_cif.got.tgz:6604.got - 2010.04.06 18:31:24.
