data_PCOD8317875
_publ_section_title
;
Structure prediction by ZEFSAII (Michael W. Deem and Ramdas Pophale) SiO2 
 PCOD8317875
Probable space group: P 42/M N M
;
_chemical_formula_sum "Si O2"
_cell_formula_units_Z 96
_cell_length_a 24.786124
_cell_length_b 24.786124
_cell_length_c 8.958446
_cell_angle_alpha 90.000000
_cell_angle_beta 90.000000
_cell_angle_gamma 90.000000
_cell_volume 5503.638706
_symmetry_space_group_name_H-M "P 42/M N M"
_symmetry_group_IT_number 136
_symmetry_cell_setting 'tetragonal'
loop_
_space_group_symop_operation_xyz
x,y,z
1/2-y,1/2+x,1/2+z
-x,-y,z
1/2+y,1/2-x,1/2+z
1/2+x,1/2-y,1/2-z
1/2-x,1/2+y,1/2-z
y,x,-z
-y,-x,-z
-x,-y,-z
1/2+y,1/2-x,1/2-z
x,y,-z
1/2-y,1/2+x,1/2-z
1/2-x,1/2+y,1/2+z
1/2+x,1/2-y,1/2+z
-y,-x,z
y,x,z
loop_
_atom_site_type_symbol
_atom_site_label
_atom_site_fract_x
_atom_site_fract_y
_atom_site_fract_z
Si Si1 0.582683 0.417318 0.826320
Si Si2 0.835734 0.835734 0.176438
Si Si3 0.876671 0.035662 0.325738
Si Si4 0.228655 0.990966 0.824053
Si Si5 0.421923 0.871443 0.174357
Si Si6 0.468747 0.150927 0.675226
Si Si7 0.249141 0.601286 0.825190
O O1 0.620626 0.379374 0.728779
O O2 0.520765 0.405243 0.785204
O O3 0.594315 0.405686 0.000000
O O4 0.848984 0.776766 0.241326
O O5 0.833863 0.833863 0.000000
O O6 0.862909 0.038667 0.500000
O O7 0.916825 0.083176 0.277150
O O8 0.821243 0.044888 0.233561
O O9 0.285849 0.963172 0.781829
O O10 0.223952 0.047292 0.738284
O O11 0.224192 0.001093 0.000000
O O12 0.380548 0.916319 0.235312
O O13 0.479291 0.877244 0.253466
O O14 0.395437 0.813972 0.211654
O O15 0.432521 0.878042 0.000000
O O16 0.474750 0.144346 0.500000
O O17 0.261381 0.603788 0.000000
#
# Coordination Sequence:
#
# PCOD8317875 Si02
#       7
#     8   8  16  16  16  16  16
#     4  10  19  32  50  72 101 135 168 208 256 306
#     4  12  22  31  49  77 105 131 166 218 270 306
#     4  10  20  33  50  72 100 136 175 212 253 305
#     4  10  19  32  51  74 101 133 167 209 257 300
#     4   9  19  35  55  79 105 137 174 207 248 310
#     4   9  19  35  54  78 108 136 167 210 257 304
#     4  10  19  33  53  74  98 132 173 210 249 304
#
# _framework density 17.443004999999999
#
# number of rings (size 3 to 8) (size 9 to 14) (size 15 to 20)
#    0.000    2.167    1.667    2.000    0.000    3.667 
#    0.000    1.667    1.833    1.500    0.000    0.000 
#    0.000    0.000    0.000    0.000    0.000    0.000 
#
# Total GULP energy -1190531.793731 kJ/mol
# GULP energy per Si atom -12401.372851 kJ/mol
# Density = 1.740330 g / cm^3
# Si number density = 17.443005 Si / 1000 Ang^3
#
#
#
# Elastic Constant Matrix: (Units=GPa)
#
#
# Indices 1 2 3 4 5 6 
#
# 1 118.7781 79.3226 46.5325 0.0000 0.0000 0.0000
# 2 79.3226 118.7781 46.5323 0.0000 0.0000 0.0000
# 3 46.5325 46.5323 70.1663 0.0000 0.0000 0.0000
# 4 0.0000 0.0000 0.0000 24.1008 0.0000 0.0000
# 5 0.0000 0.0000 0.0000 0.0000 24.1008 0.0000
# 6 0.0000 0.0000 0.0000 0.0000 0.0000 31.2850
#
#
#
# Elastic Compliance Matrix: (Units=1/GPa)
#
#
# Indices 1 2 3 4 5 6 
#
# 1 0.016339 -0.009006 -0.004863 0.000000 0.000000 0.000000
# 2 -0.009006 0.016339 -0.004863 0.000000 0.000000 0.000000
# 3 -0.004863 -0.004863 0.020701 0.000000 0.000000 0.000000
# 4 0.000000 0.000000 0.000000 0.041492 0.000000 0.000000
# 5 0.000000 0.000000 0.000000 0.000000 0.041492 0.000000
# 6 0.000000 0.000000 0.000000 0.000000 0.000000 0.031964
#
#
# Mechanical properties :
#
#
# Convention : Reuss Voigt Hill
#
# Bulk Modulus (GPa) = 62.83147 72.49972 67.66559
# Shear Modulus (GPa) = 23.68591 24.91965 24.30278
#
# Velocity S-wave (km/s) = 3.68897 3.78383 3.73670
# Velocity P-wave (km/s) = 7.36505 7.79383 7.58247
#
# Compressibility (1/GPa) = 0.01591559
#
# Stress axis : x y z
#
# Youngs Moduli (GPa) = 61.20444 61.20464 48.30600
#
# Poissons Ratio (x) = 0.55123 0.23490
# Poissons Ratio (y) = 0.55123 0.23489
# Poissons Ratio (z) = 0.29762 0.29761
#
# Static dielectric constant tensor:
#      x y z
#    x 3.388210 0.000000 0.000000 
#    y 0.000000 3.388210 0.000000 
#    z 0.000000 0.000000 3.204800 
# 
# 
# High freq. dielectric constant tensor:
#      x y z
#    x 1.667150 0.000000 0.000000 
#    y 0.000000 1.667150 0.000000 
#    z 0.000000 0.000000 1.675310 
# 
# From -- ./inp_files/2080.got.cif
#   From: 2010.03.12/outbox.cif.g09.slc.cpg/sg136_2_cif.got.tgz:2080.got - 2010.04.06 18:39:43.
