data_PCOD8317703
_publ_section_title
;
Structure prediction by ZEFSAII (Michael W. Deem and Ramdas Pophale) SiO2 
 PCOD8317703
Probable space group: P 42/M N M
;
_chemical_formula_sum "Si O2"
_cell_formula_units_Z 68
_cell_length_a 18.603657
_cell_length_b 18.603657
_cell_length_c 11.589975
_cell_angle_alpha 90.000000
_cell_angle_beta 90.000000
_cell_angle_gamma 90.000000
_cell_volume 4011.244611
_symmetry_space_group_name_H-M "P 42/M N M"
_symmetry_group_IT_number 136
_symmetry_cell_setting 'tetragonal'
loop_
_space_group_symop_operation_xyz
x,y,z
1/2-y,1/2+x,1/2+z
-x,-y,z
1/2+y,1/2-x,1/2+z
1/2+x,1/2-y,1/2-z
1/2-x,1/2+y,1/2-z
y,x,-z
-y,-x,-z
-x,-y,-z
1/2+y,1/2-x,1/2-z
x,y,-z
1/2-y,1/2+x,1/2-z
1/2-x,1/2+y,1/2+z
1/2+x,1/2-y,1/2+z
-y,-x,z
y,x,z
loop_
_atom_site_type_symbol
_atom_site_label
_atom_site_fract_x
_atom_site_fract_y
_atom_site_fract_z
Si Si1 0.269710 0.611511 0.273560
Si Si2 0.570655 0.570655 0.500000
Si Si3 0.293536 0.478863 0.134417
Si Si4 0.168585 0.048087 0.000000
Si Si5 0.835758 0.281233 0.631964
Si Si6 0.554864 0.554864 0.758511
O O1 0.335018 0.664982 0.246197
O O2 0.260554 0.556115 0.168040
O O3 0.284493 0.567116 0.389309
O O4 0.195700 0.655936 0.287034
O O5 0.539245 0.652811 0.500000
O O6 0.541814 0.541814 0.622470
O O7 0.233976 0.418434 0.163674
O O8 0.364590 0.464760 0.207706
O O9 0.313460 0.476720 0.000000
O O10 0.093218 0.093218 0.000000
O O11 0.826845 0.306476 0.500000
O O12 0.792516 0.207485 0.652011
O O13 0.500000 0.500000 0.821782
#
# Coordination Sequence:
#
# PCOD8317703 Si02
#       6
#    16   4  16   8  16   8
#     4  10  19  32  54  76 101 138 181 220 261 312
#     4  12  21  30  48  76 114 142 176 216 258 309
#     4  11  22  34  51  77 110 144 174 212 271 330
#     4  10  17  28  46  74  98 132 172 217 257 293
#     4   9  17  33  55  76 100 136 187 227 252 308
#     4  12  22  32  49  77 114 148 176 211 258 322
#
# _framework density 16.952342999999999
#
# number of rings (size 3 to 8) (size 9 to 14) (size 15 to 20)
#    0.000    1.647    4.706    2.118    0.000    2.353 
#    0.000    0.000    5.176    0.706    0.000    3.294 
#    0.000    0.000    0.000    0.000    0.000    0.000 
#
# Total GULP energy -842541.019030 kJ/mol
# GULP energy per Si atom -12390.309103 kJ/mol
# Density = 1.691376 g / cm^3
# Si number density = 16.952343 Si / 1000 Ang^3
#
#
#
# Elastic Constant Matrix: (Units=GPa)
#
#
# Indices 1 2 3 4 5 6 
#
# 1 85.9279 56.7927 37.5860 0.0000 0.0000 0.0000
# 2 56.7927 85.9279 37.5860 0.0000 0.0000 0.0000
# 3 37.5860 37.5860 69.6071 0.0000 0.0000 0.0000
# 4 0.0000 0.0000 0.0000 16.5707 0.0000 0.0000
# 5 0.0000 0.0000 0.0000 0.0000 16.5707 0.0000
# 6 0.0000 0.0000 0.0000 0.0000 0.0000 24.7267
#
#
#
# Elastic Compliance Matrix: (Units=1/GPa)
#
#
# Indices 1 2 3 4 5 6 
#
# 1 0.022057 -0.012266 -0.005287 0.000000 0.000000 0.000000
# 2 -0.012266 0.022057 -0.005287 0.000000 0.000000 0.000000
# 3 -0.005287 -0.005287 0.020076 0.000000 0.000000 0.000000
# 4 0.000000 0.000000 0.000000 0.060347 0.000000 0.000000
# 5 0.000000 0.000000 0.000000 0.000000 0.060347 0.000000
# 6 0.000000 0.000000 0.000000 0.000000 0.000000 0.040442
#
#
# Mechanical properties :
#
#
# Convention : Reuss Voigt Hill
#
# Bulk Modulus (GPa) = 54.02315 56.15469 55.08892
# Shear Modulus (GPa) = 18.03900 18.87352 18.45626
#
# Velocity S-wave (km/s) = 3.26559 3.34028 3.30315
# Velocity P-wave (km/s) = 6.79380 6.93351 6.86401
#
# Compressibility (1/GPa) = 0.01851058
#
# Stress axis : x y z
#
# Youngs Moduli (GPa) = 45.33685 45.33685 49.81033
#
# Poissons Ratio (x) = 0.55609 0.26335
# Poissons Ratio (y) = 0.55609 0.26335
# Poissons Ratio (z) = 0.23970 0.23970
#
# Static dielectric constant tensor:
#      x y z
#    x 3.093530 0.000000 0.000000 
#    y 0.000000 3.093530 0.000000 
#    z 0.000000 0.000000 3.144850 
# 
# 
# High freq. dielectric constant tensor:
#      x y z
#    x 1.632890 0.000000 0.000000 
#    y 0.000000 1.632890 0.000000 
#    z 0.000000 0.000000 1.649300 
# 
# From -- ./inp_files/3494.got.cif
#   From: 2010.03.12/outbox.cif.g09.slc.cpg/sg136_2_cif.got.tgz:3494.got - 2010.04.06 18:39:43.
