data_PCOD8317741
_publ_section_title
;
Structure prediction by ZEFSAII (Michael W. Deem and Ramdas Pophale) SiO2 
 PCOD8317741
Probable space group: P 42/M N M
;
_chemical_formula_sum "Si O2"
_cell_formula_units_Z 96
_cell_length_a 25.369632
_cell_length_b 25.369632
_cell_length_c 8.952861
_cell_angle_alpha 90.000000
_cell_angle_beta 90.000000
_cell_angle_gamma 90.000000
_cell_volume 5762.224531
_symmetry_space_group_name_H-M "P 42/M N M"
_symmetry_group_IT_number 136
_symmetry_cell_setting 'tetragonal'
loop_
_space_group_symop_operation_xyz
x,y,z
1/2-y,1/2+x,1/2+z
-x,-y,z
1/2+y,1/2-x,1/2+z
1/2+x,1/2-y,1/2-z
1/2-x,1/2+y,1/2-z
y,x,-z
-y,-x,-z
-x,-y,-z
1/2+y,1/2-x,1/2-z
x,y,-z
1/2-y,1/2+x,1/2-z
1/2-x,1/2+y,1/2+z
1/2+x,1/2-y,1/2+z
-y,-x,z
y,x,z
loop_
_atom_site_type_symbol
_atom_site_label
_atom_site_fract_x
_atom_site_fract_y
_atom_site_fract_z
Si Si1 0.062024 0.642129 0.326641
Si Si2 0.060803 0.366807 0.330464
Si Si3 0.638601 0.443056 0.826729
Si Si4 0.059879 0.747178 0.174792
Si Si5 0.747183 0.951490 0.670472
Si Si6 0.146941 0.937986 0.676752
O O1 0.070177 0.652553 0.500000
O O2 0.094632 0.590869 0.279880
O O3 0.084807 0.693313 0.240444
O O4 0.000892 0.631721 0.288962
O O5 0.070027 0.385850 0.500000
O O6 0.082355 0.306346 0.309082
O O7 0.596319 0.403682 0.747816
O O8 0.698175 0.419729 0.802478
O O9 0.634774 0.502690 0.763393
O O10 0.624906 0.445317 0.000000
O O11 0.084730 0.799600 0.249238
O O12 0.998181 0.746190 0.210860
O O13 0.070529 0.748913 0.000000
O O14 0.747470 0.974961 0.500000
O O15 0.155040 0.937886 0.500000
O O16 0.098554 0.901447 0.726703
#
# Coordination Sequence:
#
# PCOD8317741 Si02
#       6
#    16  16  16  16  16  16
#     4  10  20  33  49  69  94 122 151 185 228 276
#     4   9  18  31  46  66  92 121 153 189 228 271
#     4   8  13  23  43  70  95 120 153 190 226 267
#     4  10  18  29  47  67  88 117 156 195 227 267
#     4   8  15  29  46  65  91 121 155 192 228 268
#     4   9  17  29  45  66  94 125 154 188 232 278
#
# _framework density 16.660233000000002
#
# number of rings (size 3 to 8) (size 9 to 14) (size 15 to 20)
#    0.000    3.000    0.000    4.000    0.000    4.333 
#    0.000    3.333    0.000    9.000    0.000    7.000 
#    0.000    0.000    0.000    0.000    0.000    0.000 
#
# Total GULP energy -1189419.211682 kJ/mol
# GULP energy per Si atom -12389.783455 kJ/mol
# Density = 1.662231 g / cm^3
# Si number density = 16.660233 Si / 1000 Ang^3
#
#
#
# Elastic Constant Matrix: (Units=GPa)
#
#
# Indices 1 2 3 4 5 6 
#
# 1 95.0702 61.4629 35.3714 0.0000 0.0000 0.0000
# 2 61.4629 95.0702 35.3714 0.0000 0.0000 0.0000
# 3 35.3714 35.3714 58.6923 0.0000 0.0000 0.0000
# 4 0.0000 0.0000 0.0000 18.3874 0.0000 0.0000
# 5 0.0000 0.0000 0.0000 0.0000 18.3874 0.0000
# 6 0.0000 0.0000 0.0000 0.0000 0.0000 4.8181
#
#
#
# Elastic Compliance Matrix: (Units=1/GPa)
#
#
# Indices 1 2 3 4 5 6 
#
# 1 0.019268 -0.010488 -0.005291 0.000000 0.000000 0.000000
# 2 -0.010488 0.019268 -0.005291 0.000000 0.000000 0.000000
# 3 -0.005291 -0.005291 0.023416 0.000000 0.000000 0.000000
# 4 0.000000 0.000000 0.000000 0.054385 0.000000 0.000000
# 5 0.000000 0.000000 0.000000 0.000000 0.054385 0.000000
# 6 0.000000 0.000000 0.000000 0.000000 0.000000 0.207550
#
#
# Mechanical properties :
#
#
# Convention : Reuss Voigt Hill
#
# Bulk Modulus (GPa) = 50.47882 57.02713 53.75297
# Shear Modulus (GPa) = 11.70922 16.09372 13.90147
#
# Velocity S-wave (km/s) = 2.65396 3.11142 2.89175
# Velocity P-wave (km/s) = 6.30524 6.87108 6.59423
#
# Compressibility (1/GPa) = 0.01981029
#
# Stress axis : x y z
#
# Youngs Moduli (GPa) = 51.90067 51.90067 42.70672
#
# Poissons Ratio (x) = 0.54433 0.22597
# Poissons Ratio (y) = 0.54433 0.22597
# Poissons Ratio (z) = 0.27461 0.27461
#
# Static dielectric constant tensor:
#      x y z
#    x 3.226930 0.000000 0.000000 
#    y 0.000000 3.226930 0.000000 
#    z 0.000000 0.000000 2.893040 
# 
# 
# High freq. dielectric constant tensor:
#      x y z
#    x 1.626680 0.000000 0.000000 
#    y 0.000000 1.626680 0.000000 
#    z 0.000000 0.000000 1.624250 
# 
# From -- ./inp_files/2124.got.cif
#   From: 2010.03.12/outbox.cif.g09.slc.cpg/sg136_2_cif.got.tgz:2124.got - 2010.04.06 18:39:43.
