data_PCOD8317167
_publ_section_title
;
Structure prediction by ZEFSAII (Michael W. Deem and Ramdas Pophale) SiO2 
 PCOD8317167
Probable space group: P 42/N N M
;
_chemical_formula_sum "Si O2"
_cell_formula_units_Z 120
_cell_length_a 21.196636
_cell_length_b 21.196636
_cell_length_c 13.410187
_cell_angle_alpha 90.000000
_cell_angle_beta 90.000000
_cell_angle_gamma 90.000000
_cell_volume 6025.161854
_symmetry_space_group_name_H-M "P 42/N N M"
_symmetry_group_IT_number 134
_space_group.IT_coordinate_system_code '2'
_symmetry_cell_setting 'tetragonal'
loop_
_space_group_symop_operation_xyz
x,y,z
1/2-y,x,1/2+z
1/2-x,1/2-y,z
y,1/2-x,1/2+z
x,1/2-y,1/2-z
1/2-x,y,1/2-z
y,x,-z
1/2-y,1/2-x,-z
-x,-y,-z
1/2+y,-x,1/2-z
1/2+x,1/2+y,-z
-y,1/2+x,1/2-z
-x,1/2+y,1/2+z
1/2+x,-y,1/2+z
-y,-x,z
1/2+y,1/2+x,z
loop_
_atom_site_type_symbol
_atom_site_label
_atom_site_fract_x
_atom_site_fract_y
_atom_site_fract_z
Si Si1 0.161075 0.338926 0.000000
Si Si2 0.355005 0.286687 0.912214
Si Si3 0.962094 0.809937 0.616012
Si Si4 0.603568 0.879239 0.710565
Si Si5 0.876316 0.022159 0.735188
Si Si6 0.080364 0.817229 0.077451
Si Si7 0.570744 0.326685 0.530406
Si Si8 0.823676 0.963951 0.043125
O O1 0.212734 0.335017 0.091238
O O2 0.092934 0.332292 0.044312
O O3 0.346726 0.326495 0.808535
O O4 0.311385 0.311385 0.000000
O O5 0.427840 0.297801 0.944743
O O6 0.945152 0.839492 0.722601
O O7 0.965973 0.734210 0.622544
O O8 0.028081 0.833978 0.568883
O O9 0.571196 0.881115 0.599960
O O10 0.611993 0.948408 0.752780
O O11 0.942775 0.057226 0.751916
O O12 0.825502 0.050268 0.812761
O O13 0.851629 0.031280 0.623953
O O14 0.146550 0.853451 0.068567
O O15 0.092278 0.744354 0.053476
O O16 0.032502 0.845473 0.994322
O O17 0.633871 0.366130 0.512473
#
# Coordination Sequence:
#
# PCOD8317167 Si02
#       8
#     8  16  16  16  16  16  16  16
#     4  10  19  34  49  76 112 152 202 246 289 327
#     4   9  18  32  51  74 108 151 194 244 286 330
#     4  10  21  35  54  80 111 157 199 235 284 345
#     4  11  20  34  55  83 113 157 197 233 283 341
#     4  10  21  35  56  87 116 147 190 234 287 358
#     4  10  20  37  61  89 114 143 189 243 300 356
#     4  10  22  41  60  82 117 154 189 238 295 357
#     4   9  19  36  53  78 117 148 186 243 290 334
#
# _framework density 19.916477
#
# number of rings (size 3 to 8) (size 9 to 14) (size 15 to 20)
#    0.000    2.133    1.333    1.800    0.000    1.867 
#    2.400    3.000    0.000    7.200    0.000    0.000 
#    0.000    4.267    0.000    0.000    0.000    0.000 
#
# Total GULP energy -1486877.889971 kJ/mol
# GULP energy per Si atom -12390.649083 kJ/mol
# Density = 1.987115 g / cm^3
# Si number density = 19.916477 Si / 1000 Ang^3
#
#
#
# Elastic Constant Matrix: (Units=GPa)
#
#
# Indices 1 2 3 4 5 6 
#
# 1 65.4641 35.0641 22.6344 0.0000 0.0000 0.0000
# 2 35.0641 65.4634 22.6330 0.0000 0.0000 0.0000
# 3 22.6344 22.6330 68.8126 0.0000 0.0000 0.0000
# 4 0.0000 0.0000 0.0000 27.7441 0.0000 0.0000
# 5 0.0000 0.0000 0.0000 0.0000 27.7442 0.0000
# 6 0.0000 0.0000 0.0000 0.0000 0.0000 23.0218
#
#
#
# Elastic Compliance Matrix: (Units=1/GPa)
#
#
# Indices 1 2 3 4 5 6 
#
# 1 0.022286 -0.010609 -0.003841 0.000000 0.000000 0.000000
# 2 -0.010609 0.022286 -0.003840 0.000000 0.000000 0.000000
# 3 -0.003841 -0.003840 0.017059 0.000000 0.000000 0.000000
# 4 0.000000 0.000000 0.000000 0.036044 0.000000 0.000000
# 5 0.000000 0.000000 0.000000 0.000000 0.036044 0.000000
# 6 0.000000 0.000000 0.000000 0.000000 0.000000 0.043437
#
#
# Mechanical properties :
#
#
# Convention : Reuss Voigt Hill
#
# Bulk Modulus (GPa) = 39.92062 40.04478 39.98270
# Shear Modulus (GPa) = 22.51377 23.66261 23.08819
#
# Velocity S-wave (km/s) = 3.36580 3.45061 3.40847
# Velocity P-wave (km/s) = 5.93232 6.00213 5.96733
#
# Compressibility (1/GPa) = 0.02504971
#
# Stress axis : x y z
#
# Youngs Moduli (GPa) = 44.87106 44.87118 58.62074
#
# Poissons Ratio (x) = 0.47604 0.22517
# Poissons Ratio (y) = 0.47604 0.22513
# Poissons Ratio (z) = 0.17235 0.17232
#
# Static dielectric constant tensor:
#      x y z
#    x 3.661460 0.000000 0.000000 
#    y 0.000000 3.661430 0.000000 
#    z 0.000000 0.000000 3.656960 
# 
# 
# High freq. dielectric constant tensor:
#      x y z
#    x 1.768060 0.000000 0.000000 
#    y 0.000000 1.768050 0.000000 
#    z 0.000000 0.000000 1.768540 
# 
# From -- ./inp_files/6743.got.cif
#   From: 2010.03.12/outbox.cif.g09.slc.cpg/sg134_4_cif.got.tgz:6743.got - 2010.04.06 18:17:22.
