data_PCOD8317276
_publ_section_title
;
Structure prediction by ZEFSAII (Michael W. Deem and Ramdas Pophale) SiO2 
 PCOD8317276
Probable space group: P 42/N N M
;
_chemical_formula_sum "Si O2"
_cell_formula_units_Z 52
_cell_length_a 16.841450
_cell_length_b 16.841450
_cell_length_c 9.158660
_cell_angle_alpha 90.000000
_cell_angle_beta 90.000000
_cell_angle_gamma 90.000000
_cell_volume 2597.711383
_symmetry_space_group_name_H-M "P 42/N N M"
_symmetry_group_IT_number 134
_space_group.IT_coordinate_system_code '2'
_symmetry_cell_setting 'tetragonal'
loop_
_space_group_symop_operation_xyz
x,y,z
1/2-y,x,1/2+z
1/2-x,1/2-y,z
y,1/2-x,1/2+z
x,1/2-y,1/2-z
1/2-x,y,1/2-z
y,x,-z
1/2-y,1/2-x,-z
-x,-y,-z
1/2+y,-x,1/2-z
1/2+x,1/2+y,-z
-y,1/2+x,1/2-z
-x,1/2+y,1/2+z
1/2+x,-y,1/2+z
-y,-x,z
1/2+y,1/2+x,z
loop_
_atom_site_type_symbol
_atom_site_label
_atom_site_fract_x
_atom_site_fract_y
_atom_site_fract_z
Si Si1 0.328507 0.540556 0.185563
Si Si2 0.877101 0.869812 0.336670
Si Si3 0.750000 0.750000 0.750000
Si Si4 0.492325 0.116624 0.398099
O O1 0.250000 0.583155 0.250000
O O2 0.405715 0.594286 0.216031
O O3 0.335795 0.456984 0.267594
O O4 0.317166 0.527118 0.010125
O O5 0.897653 0.897653 0.500000
O O6 0.807396 0.804555 0.348163
O O7 0.846042 0.943336 0.236337
O O8 0.436789 0.063212 0.500000
O O9 0.563195 0.063195 0.331588
#
# Coordination Sequence:
#
# PCOD8317276 Si02
#       4
#    16  16   4  16
#     4  10  21  39  61  85 118 158 205 252 303 359
#     4  11  23  36  59  86 120 159 199 243 300 373
#     4  12  26  36  52  90 132 156 184 240 306 372
#     4   8  17  35  57  79 111 153 191 236 292 349
#
# _framework density 20.017620000000001
#
# number of rings (size 3 to 8) (size 9 to 14) (size 15 to 20)
#    0.000    2.154    1.538    3.231    4.308    5.231 
#    0.000    0.000    0.000    0.000    0.000    0.000 
#    0.000    4.923    0.000    0.000    0.000    0.000 
#
# Total GULP energy -644346.123959 kJ/mol
# GULP energy per Si atom -12391.271615 kJ/mol
# Density = 1.997206 g / cm^3
# Si number density = 20.017620 Si / 1000 Ang^3
#
#
#
# Elastic Constant Matrix: (Units=GPa)
#
#
# Indices 1 2 3 4 5 6 
#
# 1 92.2707 43.2986 52.0815 0.0000 0.0000 0.0000
# 2 43.2986 92.2711 52.0819 0.0000 0.0000 0.0000
# 3 52.0815 52.0819 149.0070 0.0000 0.0000 0.0000
# 4 0.0000 0.0000 0.0000 18.0515 0.0000 0.0000
# 5 0.0000 0.0000 0.0000 0.0000 18.0511 0.0000
# 6 0.0000 0.0000 0.0000 0.0000 0.0000 31.0040
#
#
#
# Elastic Compliance Matrix: (Units=1/GPa)
#
#
# Indices 1 2 3 4 5 6 
#
# 1 0.015252 -0.005168 -0.003525 0.000000 0.000000 0.000000
# 2 -0.005168 0.015252 -0.003525 0.000000 0.000000 0.000000
# 3 -0.003525 -0.003525 0.009175 0.000000 0.000000 0.000000
# 4 0.000000 0.000000 0.000000 0.055397 0.000000 0.000000
# 5 0.000000 0.000000 0.000000 0.000000 0.055398 0.000000
# 6 0.000000 0.000000 0.000000 0.000000 0.000000 0.032254
#
#
# Mechanical properties :
#
#
# Convention : Reuss Voigt Hill
#
# Bulk Modulus (GPa) = 65.59538 69.83032 67.71285
# Shear Modulus (GPa) = 23.55771 25.82710 24.69240
#
# Velocity S-wave (km/s) = 3.43424 3.59586 3.51598
# Velocity P-wave (km/s) = 6.96888 7.22499 7.09809
#
# Compressibility (1/GPa) = 0.01524497
#
# Stress axis : x y z
#
# Youngs Moduli (GPa) = 65.56459 65.56474 108.99058
#
# Poissons Ratio (x) = 0.33881 0.38417
# Poissons Ratio (y) = 0.33881 0.38417
# Poissons Ratio (z) = 0.23110 0.23110
#
# Static dielectric constant tensor:
#      x y z
#    x 3.657110 0.000000 0.000000 
#    y 0.000000 3.657110 0.000000 
#    z 0.000000 0.000000 3.889760 
# 
# 
# High freq. dielectric constant tensor:
#      x y z
#    x 1.762490 0.000000 0.000000 
#    y 0.000000 1.762490 0.000000 
#    z 0.000000 0.000000 1.776770 
# 
# From -- ./inp_files/2253.got.cif
#   From: 2010.03.12/outbox.cif.g09.slc.cpg/sg134_2_cif.got.tgz:2253.got - 2010.04.06 18:17:22.
