data_PCOD8317721
_publ_section_title
;
Structure prediction by ZEFSAII (Michael W. Deem and Ramdas Pophale) SiO2 
 PCOD8317721
Probable space group: P 42/M N M
;
_chemical_formula_sum "Si O2"
_cell_formula_units_Z 96
_cell_length_a 21.137131
_cell_length_b 21.137131
_cell_length_c 14.461119
_cell_angle_alpha 90.000000
_cell_angle_beta 90.000000
_cell_angle_gamma 90.000000
_cell_volume 6460.914263
_symmetry_space_group_name_H-M "P 42/M N M"
_symmetry_group_IT_number 136
_symmetry_cell_setting 'tetragonal'
loop_
_space_group_symop_operation_xyz
x,y,z
1/2-y,1/2+x,1/2+z
-x,-y,z
1/2+y,1/2-x,1/2+z
1/2+x,1/2-y,1/2-z
1/2-x,1/2+y,1/2-z
y,x,-z
-y,-x,-z
-x,-y,-z
1/2+y,1/2-x,1/2-z
x,y,-z
1/2-y,1/2+x,1/2-z
1/2-x,1/2+y,1/2+z
1/2+x,1/2-y,1/2+z
-y,-x,z
y,x,z
loop_
_atom_site_type_symbol
_atom_site_label
_atom_site_fract_x
_atom_site_fract_y
_atom_site_fract_z
Si Si1 0.727154 0.624425 0.603016
Si Si2 0.814820 0.983290 0.895396
Si Si3 0.683876 0.577161 0.103919
Si Si4 0.898745 0.998012 0.272881
Si Si5 0.251113 0.645743 0.394256
Si Si6 0.164849 0.730581 0.289847
O O1 0.754432 0.637552 0.500000
O O2 0.659186 0.659186 0.615678
O O3 0.718770 0.550346 0.620391
O O4 0.775772 0.651089 0.679875
O O5 0.872450 0.975243 0.825469
O O6 0.764028 0.928078 0.876516
O O7 0.841368 0.977755 0.000000
O O8 0.630341 0.630341 0.102677
O O9 0.657315 0.514696 0.155547
O O10 0.746335 0.601574 0.157345
O O11 0.703007 0.557936 0.000000
O O12 0.941485 0.941485 0.315030
O O13 0.940093 0.059908 0.253767
O O14 0.231311 0.658616 0.500000
O O15 0.314059 0.685942 0.369375
O O16 0.191210 0.664534 0.329812
O O17 0.218368 0.781633 0.311198
#
# Coordination Sequence:
#
# PCOD8317721 Si02
#       6
#    16  16  16  16  16  16
#     4   9  16  26  43  65  86 111 144 177 208 247
#     4  10  18  28  41  59  87 116 142 173 210 251
#     4   9  16  26  40  56  74 100 138 183 220 243
#     4  10  19  28  38  55  81 115 152 179 202 241
#     4   9  17  27  40  60  84 111 141 174 216 258
#     4   9  15  26  43  61  79 102 139 183 217 247
#
# _framework density 14.858578
#
# number of rings (size 3 to 8) (size 9 to 14) (size 15 to 20)
#    0.000    2.667    1.667    1.500    0.000    4.333 
#    0.000    2.500    0.000    1.000    0.000    2.333 
#    0.000    0.667    0.000    6.000    0.000    0.000 
#
# Total GULP energy -1189973.949576 kJ/mol
# GULP energy per Si atom -12395.561975 kJ/mol
# Density = 1.482476 g / cm^3
# Si number density = 14.858578 Si / 1000 Ang^3
#
#
#
# Elastic Constant Matrix: (Units=GPa)
#
#
# Indices 1 2 3 4 5 6 
#
# 1 52.3458 37.2826 41.2824 0.0000 0.0000 0.0000
# 2 37.2826 52.3458 41.2824 0.0000 0.0000 0.0000
# 3 41.2824 41.2824 110.0411 0.0000 0.0000 0.0000
# 4 0.0000 0.0000 0.0000 18.4615 0.0000 0.0000
# 5 0.0000 0.0000 0.0000 0.0000 18.4615 0.0000
# 6 0.0000 0.0000 0.0000 0.0000 0.0000 19.4985
#
#
#
# Elastic Compliance Matrix: (Units=1/GPa)
#
#
# Indices 1 2 3 4 5 6 
#
# 1 0.041718 -0.024669 -0.006396 0.000000 0.000000 0.000000
# 2 -0.024669 0.041718 -0.006396 0.000000 0.000000 0.000000
# 3 -0.006396 -0.006396 0.013887 0.000000 0.000000 0.000000
# 4 0.000000 0.000000 0.000000 0.054167 0.000000 0.000000
# 5 0.000000 0.000000 0.000000 0.000000 0.054167 0.000000
# 6 0.000000 0.000000 0.000000 0.000000 0.000000 0.051286
#
#
# Mechanical properties :
#
#
# Convention : Reuss Voigt Hill
#
# Bulk Modulus (GPa) = 44.64164 50.49194 47.56679
# Shear Modulus (GPa) = 14.73484 17.60998 16.17241
#
# Velocity S-wave (km/s) = 3.15250 3.44637 3.30270
# Velocity P-wave (km/s) = 6.58488 7.06343 6.82835
#
# Compressibility (1/GPa) = 0.02240061
#
# Stress axis : x y z
#
# Youngs Moduli (GPa) = 23.97036 23.97036 72.01217
#
# Poissons Ratio (x) = 0.59132 0.46060
# Poissons Ratio (y) = 0.59132 0.46060
# Poissons Ratio (z) = 0.15332 0.15332
#
# Static dielectric constant tensor:
#      x y z
#    x 2.662520 0.000000 0.000000 
#    y 0.000000 2.662520 0.000000 
#    z 0.000000 0.000000 3.091470 
# 
# 
# High freq. dielectric constant tensor:
#      x y z
#    x 1.531970 0.000000 0.000000 
#    y 0.000000 1.531970 0.000000 
#    z 0.000000 0.000000 1.580940 
# 
# From -- ./inp_files/5190.got.cif
#   From: 2010.03.12/outbox.cif.g09.slc.cpg/sg136_3_cif.got.tgz:5190.got - 2010.04.06 18:39:43.
