data_PCOD8317423
_publ_section_title
;
Structure prediction by ZEFSAII (Michael W. Deem and Ramdas Pophale) SiO2 
 PCOD8317423
Probable space group: P 42/M B C
;
_chemical_formula_sum "Si O2"
_cell_formula_units_Z 128
_cell_length_a 22.364625
_cell_length_b 22.364625
_cell_length_c 15.001007
_cell_angle_alpha 90.000000
_cell_angle_beta 90.000000
_cell_angle_gamma 90.000000
_cell_volume 7503.150449
_symmetry_space_group_name_H-M "P 42/M B C"
_symmetry_group_IT_number 135
_symmetry_cell_setting 'tetragonal'
loop_
_space_group_symop_operation_xyz
x,y,z
-y,x,1/2+z
-x,-y,z
y,-x,1/2+z
1/2+x,1/2-y,-z
1/2-x,1/2+y,-z
1/2+y,1/2+x,1/2-z
1/2-y,1/2-x,1/2-z
-x,-y,-z
y,-x,1/2-z
x,y,-z
-y,x,1/2-z
1/2-x,1/2+y,z
1/2+x,1/2-y,z
1/2-y,1/2-x,1/2+z
1/2+y,1/2+x,1/2+z
loop_
_atom_site_type_symbol
_atom_site_label
_atom_site_fract_x
_atom_site_fract_y
_atom_site_fract_z
Si Si1 0.278727 0.874691 0.601610
Si Si2 0.284483 0.881436 0.899116
Si Si3 0.477394 0.434821 0.101041
Si Si4 0.794841 0.824799 0.596854
Si Si5 0.261644 0.710593 0.161283
Si Si6 0.795095 0.907659 0.240136
Si Si7 0.889946 0.073099 0.259986
Si Si8 0.458234 0.743142 0.250765
O O1 0.270819 0.894862 0.500000
O O2 0.343033 0.844244 0.617729
O O3 0.226584 0.827186 0.624582
O O4 0.273891 0.934841 0.660086
O O5 0.227103 0.841026 0.876808
O O6 0.284213 0.938241 0.833916
O O7 0.282394 0.905141 0.000000
O O8 0.500000 0.500000 0.082480
O O9 0.525669 0.398937 0.160284
O O10 0.419113 0.441699 0.163694
O O11 0.466267 0.406802 0.000000
O O12 0.808176 0.851256 0.500000
O O13 0.729236 0.792541 0.595590
O O14 0.800362 0.881300 0.660612
O O15 0.249311 0.749311 0.250000
O O16 0.259003 0.639177 0.178309
O O17 0.863060 0.915239 0.205015
O O18 0.760758 0.970148 0.245594
O O19 0.820120 0.074677 0.240028
#
# Coordination Sequence:
#
# PCOD8317423 Si02
#       8
#    16  16  16  16  16  16  16  16
#     4  10  19  32  53  76  96 125 169 213 255 304
#     4   9  18  34  55  74  92 126 174 212 252 308
#     4  11  22  37  53  60  79 131 189 228 257 287
#     4   9  17  32  54  74  93 125 170 213 254 307
#     4   9  16  32  51  70  93 127 168 211 259 298
#     4  11  21  31  48  72 102 135 163 209 252 301
#     4  12  20  36  46  66 102 129 173 216 252 290
#     4  12  21  32  50  70 106 136 161 209 257 293
#
# _framework density 17.059501000000001
#
# number of rings (size 3 to 8) (size 9 to 14) (size 15 to 20)
#    0.000    1.625    5.000    3.000    0.000    2.000 
#    0.000    1.875    0.000    0.000    0.000    0.000 
#    0.000   18.000    0.000   29.250    0.000    0.000 
#
# Total GULP energy -1586154.703200 kJ/mol
# GULP energy per Si atom -12391.833619 kJ/mol
# Density = 1.702067 g / cm^3
# Si number density = 17.059501 Si / 1000 Ang^3
#
#
#
# Elastic Constant Matrix: (Units=GPa)
#
#
# Indices 1 2 3 4 5 6 
#
# 1 45.4375 -2.8442 16.7845 0.0000 0.0000 0.0000
# 2 -2.8442 45.4375 16.7845 0.0000 0.0000 0.0000
# 3 16.7845 16.7845 95.5386 0.0000 0.0000 0.0000
# 4 0.0000 0.0000 0.0000 23.5429 0.0000 0.0000
# 5 0.0000 0.0000 0.0000 0.0000 23.5429 0.0000
# 6 0.0000 0.0000 0.0000 0.0000 0.0000 20.7127
#
#
#
# Elastic Compliance Matrix: (Units=1/GPa)
#
#
# Indices 1 2 3 4 5 6 
#
# 1 0.023981 0.003270 -0.004788 0.000000 0.000000 0.000000
# 2 0.003270 0.023981 -0.004788 0.000000 0.000000 0.000000
# 3 -0.004788 -0.004788 0.012149 0.000000 0.000000 0.000000
# 4 0.000000 0.000000 0.000000 0.042476 0.000000 0.000000
# 5 0.000000 0.000000 0.000000 0.000000 0.042476 0.000000
# 6 0.000000 0.000000 0.000000 0.000000 0.000000 0.048279
#
#
# Mechanical properties :
#
#
# Convention : Reuss Voigt Hill
#
# Bulk Modulus (GPa) = 21.05216 27.54037 24.29626
# Shear Modulus (GPa) = 22.54412 23.93896 23.24154
#
# Velocity S-wave (km/s) = 3.63919 3.75008 3.69505
# Velocity P-wave (km/s) = 5.47955 5.91012 5.69890
#
# Compressibility (1/GPa) = 0.04750106
#
# Stress axis : x y z
#
# Youngs Moduli (GPa) = 41.69898 41.69898 82.31034
#
# Poissons Ratio (x) = -0.13634 0.39406
# Poissons Ratio (y) = -0.13634 0.39406
# Poissons Ratio (z) = 0.19964 0.19964
#
# Static dielectric constant tensor:
#      x y z
#    x 3.075450 0.000000 0.000000 
#    y 0.000000 3.075450 0.000000 
#    z 0.000000 0.000000 3.483360 
# 
# 
# High freq. dielectric constant tensor:
#      x y z
#    x 1.630260 0.000000 0.000000 
#    y 0.000000 1.630260 0.000000 
#    z 0.000000 0.000000 1.670290 
# 
# From -- ./inp_files/4747.got.cif
#   From: 2010.03.12/outbox.cif.g09.slc.cpg/sg135_3_cif.got.tgz:4747.got - 2010.04.06 18:31:24.
