data_PCOD8317935
_publ_section_title
;
Structure prediction by ZEFSAII (Michael W. Deem and Ramdas Pophale) SiO2 
 PCOD8317935
Probable space group: P 42/M N M
;
_chemical_formula_sum "Si O2"
_cell_formula_units_Z 96
_cell_length_a 23.950543
_cell_length_b 23.950543
_cell_length_c 8.874397
_cell_angle_alpha 90.000000
_cell_angle_beta 90.000000
_cell_angle_gamma 90.000000
_cell_volume 5090.607128
_symmetry_space_group_name_H-M "P 42/M N M"
_symmetry_group_IT_number 136
_symmetry_cell_setting 'tetragonal'
loop_
_space_group_symop_operation_xyz
x,y,z
1/2-y,1/2+x,1/2+z
-x,-y,z
1/2+y,1/2-x,1/2+z
1/2+x,1/2-y,1/2-z
1/2-x,1/2+y,1/2-z
y,x,-z
-y,-x,-z
-x,-y,-z
1/2+y,1/2-x,1/2-z
x,y,-z
1/2-y,1/2+x,1/2-z
1/2-x,1/2+y,1/2+z
1/2+x,1/2-y,1/2+z
-y,-x,z
y,x,z
loop_
_atom_site_type_symbol
_atom_site_label
_atom_site_fract_x
_atom_site_fract_y
_atom_site_fract_z
Si Si1 0.204459 0.372171 0.323591
Si Si2 0.622739 0.204019 0.324090
Si Si3 0.193415 0.806586 0.324722
Si Si4 0.816956 0.816956 0.825344
Si Si5 0.487596 0.349121 0.167936
Si Si6 0.614372 0.614372 0.670181
Si Si7 0.262578 0.998124 0.173952
Si Si8 0.894499 0.894499 0.336879
O O1 0.210247 0.362938 0.500000
O O2 0.144838 0.350593 0.263548
O O3 0.250496 0.331877 0.247237
O O4 0.207680 0.438776 0.286111
O O5 0.635414 0.197986 0.500000
O O6 0.657714 0.258424 0.260453
O O7 0.555468 0.203173 0.297425
O O8 0.204763 0.795238 0.500000
O O9 0.147163 0.852838 0.298530
O O10 0.863513 0.863513 0.797517
O O11 0.808580 0.808580 0.000000
O O12 0.449571 0.372623 0.301215
O O13 0.505033 0.287003 0.209019
O O14 0.540145 0.388375 0.174361
O O15 0.460584 0.350148 0.000000
O O16 0.631370 0.631370 0.500000
O O17 0.242513 0.996529 0.000000
O O18 0.872229 0.872229 0.500000
#
# Coordination Sequence:
#
# PCOD8317935 Si02
#       8
#    16  16   8   8  16   8  16   8
#     4  11  23  38  59  89 121 153 190 239 290 343
#     4  10  21  37  58  87 119 154 193 236 287 349
#     4  12  23  37  59  88 119 154 192 235 287 349
#     4  10  19  33  57  84 111 150 192 231 284 344
#     4  11  22  37  57  81 111 152 197 243 291 343
#     4  12  24  38  56  80 112 151 199 248 289 339
#     4  10  21  38  60  84 115 152 191 237 290 347
#     4  10  22  36  54  82 114 147 191 244 290 336
#
# _framework density 18.858262
#
# number of rings (size 3 to 8) (size 9 to 14) (size 15 to 20)
#    0.000    1.333    3.333    3.000    0.000    3.667 
#    0.000    1.667    0.000    0.500    0.000    3.500 
#    0.000    0.000    0.000    0.000    0.000    0.000 
#
# Total GULP energy -1189394.873001 kJ/mol
# GULP energy per Si atom -12389.529927 kJ/mol
# Density = 1.881534 g / cm^3
# Si number density = 18.858262 Si / 1000 Ang^3
#
#
#
# Elastic Constant Matrix: (Units=GPa)
#
#
# Indices 1 2 3 4 5 6 
#
# 1 90.7126 73.5181 40.9312 0.0000 0.0000 0.0000
# 2 73.5181 90.7127 40.9315 0.0000 0.0000 0.0000
# 3 40.9312 40.9315 71.9263 0.0000 0.0000 0.0000
# 4 0.0000 0.0000 0.0000 27.1860 0.0000 0.0000
# 5 0.0000 0.0000 0.0000 0.0000 27.1860 0.0000
# 6 0.0000 0.0000 0.0000 0.0000 0.0000 32.6327
#
#
#
# Elastic Compliance Matrix: (Units=1/GPa)
#
#
# Indices 1 2 3 4 5 6 
#
# 1 0.033329 -0.024829 -0.004837 0.000000 0.000000 0.000000
# 2 -0.024829 0.033329 -0.004837 0.000000 0.000000 0.000000
# 3 -0.004837 -0.004837 0.019409 0.000000 0.000000 0.000000
# 4 0.000000 0.000000 0.000000 0.036784 0.000000 0.000000
# 5 0.000000 0.000000 0.000000 0.000000 0.036784 0.000000
# 6 0.000000 0.000000 0.000000 0.000000 0.000000 0.030644
#
#
# Mechanical properties :
#
#
# Convention : Reuss Voigt Hill
#
# Bulk Modulus (GPa) = 58.61653 62.67926 60.64789
# Shear Modulus (GPa) = 18.86994 23.93232 21.40113
#
# Velocity S-wave (km/s) = 3.16669 3.56626 3.37240
# Velocity P-wave (km/s) = 6.67238 7.08991 6.88431
#
# Compressibility (1/GPa) = 0.01706003
#
# Stress axis : x y z
#
# Youngs Moduli (GPa) = 30.00386 30.00375 51.52364
#
# Poissons Ratio (x) = 0.74496 0.24922
# Poissons Ratio (y) = 0.74496 0.24924
# Poissons Ratio (z) = 0.14513 0.14514
#
# Static dielectric constant tensor:
#      x y z
#    x 3.540500 0.000000 0.000000 
#    y 0.000000 3.540500 0.000000 
#    z 0.000000 0.000000 3.519280 
# 
# 
# High freq. dielectric constant tensor:
#      x y z
#    x 1.724830 0.000000 0.000000 
#    y 0.000000 1.724830 0.000000 
#    z 0.000000 0.000000 1.736460 
# 
# From -- ./inp_files/2109.got.cif
#   From: 2010.03.12/outbox.cif.g09.slc.cpg/sg136_2_cif.got.tgz:2109.got - 2010.04.06 18:39:43.
