data_PCOD8317449
_publ_section_title
;
Structure prediction by ZEFSAII (Michael W. Deem and Ramdas Pophale) SiO2 
 PCOD8317449
Probable space group: P 42/M B C
;
_chemical_formula_sum "Si O2"
_cell_formula_units_Z 64
_cell_length_a 13.615393
_cell_length_b 13.615393
_cell_length_c 18.952284
_cell_angle_alpha 90.000000
_cell_angle_beta 90.000000
_cell_angle_gamma 90.000000
_cell_volume 3513.354063
_symmetry_space_group_name_H-M "P 42/M B C"
_symmetry_group_IT_number 135
_symmetry_cell_setting 'tetragonal'
loop_
_space_group_symop_operation_xyz
x,y,z
-y,x,1/2+z
-x,-y,z
y,-x,1/2+z
1/2+x,1/2-y,-z
1/2-x,1/2+y,-z
1/2+y,1/2+x,1/2-z
1/2-y,1/2-x,1/2-z
-x,-y,-z
y,-x,1/2-z
x,y,-z
-y,x,1/2-z
1/2-x,1/2+y,z
1/2+x,1/2-y,z
1/2-y,1/2-x,1/2+z
1/2+y,1/2+x,1/2+z
loop_
_atom_site_type_symbol
_atom_site_label
_atom_site_fract_x
_atom_site_fract_y
_atom_site_fract_z
Si Si1 0.019282 0.612600 0.577597
Si Si2 0.792439 0.354865 0.325836
Si Si3 0.874936 0.706663 0.679219
Si Si4 0.346353 0.506036 0.255311
O O1 0.027092 0.662572 0.500000
O O2 0.122263 0.631933 0.617400
O O3 0.000000 0.500000 0.567561
O O4 0.918546 0.644150 0.615827
O O5 0.842544 0.342544 0.250000
O O6 0.726303 0.259444 0.344343
O O7 0.719345 0.449553 0.319365
O O8 0.857429 0.642572 0.750000
O O9 0.963938 0.781451 0.692563
O O10 0.414668 0.587980 0.217008
#
# Coordination Sequence:
#
# PCOD8317449 Si02
#       4
#    16  16  16  16
#     4  11  24  38  53  80 114 150 183 224 287 343
#     4  10  19  34  58  84 107 144 192 229 274 328
#     4  10  20  34  58  84 110 144 189 234 277 325
#     4   9  17  30  52  84 112 136 179 233 275 318
#
# _framework density 18.216211999999999
#
# number of rings (size 3 to 8) (size 9 to 14) (size 15 to 20)
#    0.000    2.000    2.500    1.500    0.000    1.000 
#    0.000    0.000    0.000    0.000    0.000    7.000 
#    0.000    0.000    0.000    0.000    0.000    0.000 
#
# Total GULP energy -792889.932048 kJ/mol
# GULP energy per Si atom -12388.905188 kJ/mol
# Density = 1.817475 g / cm^3
# Si number density = 18.216212 Si / 1000 Ang^3
#
#
#
# Elastic Constant Matrix: (Units=GPa)
#
#
# Indices 1 2 3 4 5 6 
#
# 1 93.0742 38.4219 55.4405 0.0000 0.0000 0.0000
# 2 38.4219 93.0742 55.4405 0.0000 0.0000 0.0000
# 3 55.4405 55.4405 124.2736 0.0000 0.0000 0.0000
# 4 0.0000 0.0000 0.0000 -16.6919 0.0000 0.0000
# 5 0.0000 0.0000 0.0000 0.0000 -16.6964 0.0000
# 6 0.0000 0.0000 0.0000 0.0000 0.0000 33.8274
#
#
#
# Elastic Compliance Matrix: (Units=1/GPa)
#
#
# Indices 1 2 3 4 5 6 
#
# 1 0.015244 -0.003053 -0.005438 0.000000 0.000000 0.000000
# 2 -0.003053 0.015244 -0.005438 0.000000 0.000000 0.000000
# 3 -0.005438 -0.005438 0.012899 0.000000 0.000000 0.000000
# 4 0.000000 0.000000 0.000000 -0.059909 0.000000 0.000000
# 5 0.000000 0.000000 0.000000 0.000000 -0.059893 0.000000
# 6 0.000000 0.000000 0.000000 0.000000 0.000000 0.029562
#
#
# Mechanical properties :
#
#
# Convention : Reuss Voigt Hill
#
# Bulk Modulus (GPa) = 64.40555 67.66974 66.03764
# Shear Modulus (GPa) = -361.86765 10.82909 -175.51928
#
# Velocity S-wave (km/s) = -14.10967 2.44083 -9.82662
# Velocity P-wave (km/s) = 15.16610 6.72103 9.61349
#
# Compressibility (1/GPa) = 0.01552661
#
# Stress axis : x y z
#
# Youngs Moduli (GPa) = 65.59932 65.59936 77.52469
#
# Poissons Ratio (x) = 0.20030 0.42161
# Poissons Ratio (y) = 0.20030 0.42161
# Poissons Ratio (z) = 0.35676 0.35676
#
# Static dielectric constant tensor:
#      x y z
#    x 3.692530 0.000000 0.000000 
#    y 0.000000 3.692530 0.000000 
#    z 0.000000 0.000000 3.158650 
# 
# 
# High freq. dielectric constant tensor:
#      x y z
#    x 1.724910 0.000000 0.000000 
#    y 0.000000 1.724910 0.000000 
#    z 0.000000 0.000000 1.653040 
# 
# From -- ./inp_files/3116.got.cif
#   From: 2010.03.12/outbox.cif.g09.slc.cpg/sg135_2_cif.got.tgz:3116.got - 2010.04.06 18:31:24.
