data_PCOD8317522
_publ_section_title
;
Structure prediction by ZEFSAII (Michael W. Deem and Ramdas Pophale) SiO2 
 PCOD8317522
Probable space group: P 42/M B C
;
_chemical_formula_sum "Si O2"
_cell_formula_units_Z 96
_cell_length_a 14.656687
_cell_length_b 14.656687
_cell_length_c 21.532188
_cell_angle_alpha 90.000000
_cell_angle_beta 90.000000
_cell_angle_gamma 90.000000
_cell_volume 4625.511764
_symmetry_space_group_name_H-M "P 42/M B C"
_symmetry_group_IT_number 135
_symmetry_cell_setting 'tetragonal'
loop_
_space_group_symop_operation_xyz
x,y,z
-y,x,1/2+z
-x,-y,z
y,-x,1/2+z
1/2+x,1/2-y,-z
1/2-x,1/2+y,-z
1/2+y,1/2+x,1/2-z
1/2-y,1/2-x,1/2-z
-x,-y,-z
y,-x,1/2-z
x,y,-z
-y,x,1/2-z
1/2-x,1/2+y,z
1/2+x,1/2-y,z
1/2-y,1/2-x,1/2+z
1/2+y,1/2+x,1/2+z
loop_
_atom_site_type_symbol
_atom_site_label
_atom_site_fract_x
_atom_site_fract_y
_atom_site_fract_z
Si Si1 0.916276 0.266870 0.122596
Si Si2 0.546820 0.906982 0.430472
Si Si3 0.711196 0.734397 0.315529
Si Si4 0.263770 0.508262 0.152245
Si Si5 0.577104 0.573668 0.072612
Si Si6 0.810049 0.560175 0.724305
O O1 0.922155 0.344115 0.070058
O O2 0.808920 0.251249 0.135958
O O3 0.957652 0.171871 0.097749
O O4 0.969708 0.307580 0.182598
O O5 0.518082 0.877817 0.500000
O O6 0.513059 0.833326 0.381292
O O7 0.500000 0.000000 0.409887
O O8 0.713850 0.786151 0.250000
O O9 0.609777 0.701572 0.332633
O O10 0.774367 0.645170 0.316757
O O11 0.332807 0.456459 0.107951
O O12 0.256245 0.453032 0.216553
O O13 0.500000 0.500000 0.086858
O O14 0.599319 0.580343 0.000000
O O15 0.911470 0.588531 0.750000
#
# Coordination Sequence:
#
# PCOD8317522 Si02
#       6
#    16  16  16  16  16  16
#     4  11  22  40  63  90 125 167 204 256 318 375
#     4  10  22  40  63  90 120 158 212 263 309 370
#     4  10  20  38  56  88 124 157 202 251 308 374
#     4  11  22  38  61  86 122 161 200 254 313 364
#     4  11  24  42  62  89 125 168 213 253 301 371
#     4  11  22  36  60  90 126 158 200 256 309 372
#
# _framework density 20.754460000000002
#
# number of rings (size 3 to 8) (size 9 to 14) (size 15 to 20)
#    0.000    1.333    1.667    5.000    0.000    0.000 
#    0.000    2.500    0.000    8.000    0.000    0.000 
#    0.000    0.000    0.000    0.000    0.000    0.000 
#
# Total GULP energy -1190359.897341 kJ/mol
# GULP energy per Si atom -12399.582264 kJ/mol
# Density = 2.070722 g / cm^3
# Si number density = 20.754460 Si / 1000 Ang^3
#
#
#
# Elastic Constant Matrix: (Units=GPa)
#
#
# Indices 1 2 3 4 5 6 
#
# 1 81.6000 36.5602 19.8364 0.0000 0.0000 0.0000
# 2 36.5602 81.6002 19.8366 0.0000 0.0000 0.0000
# 3 19.8364 19.8366 68.5166 0.0000 0.0000 0.0000
# 4 0.0000 0.0000 0.0000 14.5986 0.0000 0.0000
# 5 0.0000 0.0000 0.0000 0.0000 14.5977 0.0000
# 6 0.0000 0.0000 0.0000 0.0000 0.0000 26.0711
#
#
#
# Elastic Compliance Matrix: (Units=1/GPa)
#
#
# Indices 1 2 3 4 5 6 
#
# 1 0.015788 -0.006414 -0.002714 0.000000 0.000000 0.000000
# 2 -0.006414 0.015788 -0.002714 0.000000 0.000000 0.000000
# 3 -0.002714 -0.002714 0.016166 0.000000 0.000000 0.000000
# 4 0.000000 0.000000 0.000000 0.068500 0.000000 0.000000
# 5 0.000000 0.000000 0.000000 0.000000 0.068504 0.000000
# 6 0.000000 0.000000 0.000000 0.000000 0.000000 0.038357
#
#
# Mechanical properties :
#
#
# Convention : Reuss Voigt Hill
#
# Bulk Modulus (GPa) = 41.56426 42.68704 42.12565
# Shear Modulus (GPa) = 19.62264 21.41905 20.52084
#
# Velocity S-wave (km/s) = 3.07818 3.21599 3.14784
# Velocity P-wave (km/s) = 5.71872 5.86536 5.79250
#
# Compressibility (1/GPa) = 0.02405913
#
# Stress axis : x y z
#
# Youngs Moduli (GPa) = 63.33750 63.33755 61.85636
#
# Poissons Ratio (x) = 0.40625 0.16788
# Poissons Ratio (y) = 0.40625 0.16788
# Poissons Ratio (z) = 0.17190 0.17190
#
# Static dielectric constant tensor:
#      x y z
#    x 3.742870 0.000000 0.000000 
#    y 0.000000 3.742860 0.000000 
#    z 0.000000 0.000000 3.682820 
# 
# 
# High freq. dielectric constant tensor:
#      x y z
#    x 1.814950 0.000000 0.000000 
#    y 0.000000 1.814950 0.000000 
#    z 0.000000 0.000000 1.810520 
# 
# From -- ./inp_files/5469.got.cif
#   From: 2010.03.12/outbox.cif.g09.slc.cpg/sg135_3_cif.got.tgz:5469.got - 2010.04.06 18:31:24.
