data_PCOD8317743
_publ_section_title
;
Structure prediction by ZEFSAII (Michael W. Deem and Ramdas Pophale) SiO2 
 PCOD8317743
Probable space group: P 42/M N M
;
_chemical_formula_sum "Si O2"
_cell_formula_units_Z 96
_cell_length_a 16.974284
_cell_length_b 16.974284
_cell_length_c 20.366130
_cell_angle_alpha 90.000000
_cell_angle_beta 90.000000
_cell_angle_gamma 90.000000
_cell_volume 5868.018035
_symmetry_space_group_name_H-M "P 42/M N M"
_symmetry_group_IT_number 136
_symmetry_cell_setting 'tetragonal'
loop_
_space_group_symop_operation_xyz
x,y,z
1/2-y,1/2+x,1/2+z
-x,-y,z
1/2+y,1/2-x,1/2+z
1/2+x,1/2-y,1/2-z
1/2-x,1/2+y,1/2-z
y,x,-z
-y,-x,-z
-x,-y,-z
1/2+y,1/2-x,1/2-z
x,y,-z
1/2-y,1/2+x,1/2-z
1/2-x,1/2+y,1/2+z
1/2+x,1/2-y,1/2+z
-y,-x,z
y,x,z
loop_
_atom_site_type_symbol
_atom_site_label
_atom_site_fract_x
_atom_site_fract_y
_atom_site_fract_z
Si Si1 0.207616 0.920123 0.376639
Si Si2 0.278914 0.591607 0.074347
Si Si3 0.276606 0.591245 0.686609
Si Si4 0.918106 0.209643 0.778546
Si Si5 0.666077 0.202249 0.807818
Si Si6 0.172066 0.304183 0.926810
O O1 0.135996 0.864005 0.398932
O O2 0.209573 0.929349 0.299049
O O3 0.291307 0.885792 0.400793
O O4 0.194097 0.003338 0.410982
O O5 0.355807 0.644194 0.086550
O O6 0.209277 0.620081 0.123039
O O7 0.247509 0.599681 0.000000
O O8 0.352983 0.647018 0.688857
O O9 0.305359 0.501407 0.686713
O O10 0.219141 0.605893 0.748501
O O11 0.225578 0.603063 0.620733
O O12 0.860958 0.139043 0.801059
O O13 0.883785 0.294588 0.801260
O O14 0.735930 0.264071 0.801365
O O15 0.240963 0.240963 0.925817
O O16 0.137442 0.315509 0.000000
#
# Coordination Sequence:
#
# PCOD8317743 Si02
#       6
#    16  16  16  16  16  16
#     4  10  18  29  48  75 103 130 161 200 246 289
#     4  10  20  32  47  69 101 139 169 196 235 287
#     4  10  18  31  52  74  98 129 161 200 244 287
#     4  10  19  31  51  77 102 127 160 204 245 284
#     4   9  17  32  49  67  94 130 171 203 228 275
#     4   9  17  30  49  72  96 124 162 205 246 290
#
# _framework density 16.359867999999999
#
# number of rings (size 3 to 8) (size 9 to 14) (size 15 to 20)
#    0.000    2.333    3.333    0.500    0.000    1.667 
#    0.000    3.333    0.000    5.000    0.000    4.667 
#    0.000    0.000    0.000    0.000    0.000    0.000 
#
# Total GULP energy -1190312.476677 kJ/mol
# GULP energy per Si atom -12399.088299 kJ/mol
# Density = 1.632263 g / cm^3
# Si number density = 16.359868 Si / 1000 Ang^3
#
#
#
# Elastic Constant Matrix: (Units=GPa)
#
#
# Indices 1 2 3 4 5 6 
#
# 1 64.6546 51.1306 38.7539 0.0000 0.0000 0.0000
# 2 51.1306 64.6546 38.7539 0.0000 0.0000 0.0000
# 3 38.7539 38.7539 102.2612 0.0000 0.0000 0.0000
# 4 0.0000 0.0000 0.0000 22.0022 0.0000 0.0000
# 5 0.0000 0.0000 0.0000 0.0000 22.0022 0.0000
# 6 0.0000 0.0000 0.0000 0.0000 0.0000 15.1038
#
#
#
# Elastic Compliance Matrix: (Units=1/GPa)
#
#
# Indices 1 2 3 4 5 6 
#
# 1 0.042758 -0.031185 -0.004386 0.000000 0.000000 0.000000
# 2 -0.031185 0.042758 -0.004386 0.000000 0.000000 0.000000
# 3 -0.004386 -0.004386 0.013103 0.000000 0.000000 0.000000
# 4 0.000000 0.000000 0.000000 0.045450 0.000000 0.000000
# 5 0.000000 0.000000 0.000000 0.000000 0.045450 0.000000
# 6 0.000000 0.000000 0.000000 0.000000 0.000000 0.066208
#
#
# Mechanical properties :
#
#
# Convention : Reuss Voigt Hill
#
# Bulk Modulus (GPa) = 53.46054 54.31633 53.88844
# Shear Modulus (GPa) = 14.62526 18.68379 16.65452
#
# Velocity S-wave (km/s) = 2.99318 3.38309 3.19409
# Velocity P-wave (km/s) = 6.68538 6.96659 6.82743
#
# Compressibility (1/GPa) = 0.01870538
#
# Stress axis : x y z
#
# Youngs Moduli (GPa) = 23.38763 23.38763 76.31897
#
# Poissons Ratio (x) = 0.72935 0.33470
# Poissons Ratio (y) = 0.72935 0.33470
# Poissons Ratio (z) = 0.10257 0.10257
#
# Static dielectric constant tensor:
#      x y z
#    x 2.968620 0.000000 0.000000 
#    y 0.000000 2.968620 0.000000 
#    z 0.000000 0.000000 3.300500 
# 
# 
# High freq. dielectric constant tensor:
#      x y z
#    x 1.609370 0.000000 0.000000 
#    y 0.000000 1.609370 0.000000 
#    z 0.000000 0.000000 1.635420 
# 
# From -- ./inp_files/6299.got.cif
#   From: 2010.03.12/outbox.cif.g09.slc.cpg/sg136_4_cif.got.tgz:6299.got - 2010.04.06 18:39:43.
