data_PCOD8317080
_publ_section_title
;
Structure prediction by ZEFSAII (Michael W. Deem and Ramdas Pophale) SiO2 
 PCOD8317080
Probable space group: P 42/N N M
;
_chemical_formula_sum "Si O2"
_cell_formula_units_Z 88
_cell_length_a 18.083598
_cell_length_b 18.083598
_cell_length_c 14.618790
_cell_angle_alpha 90.000000
_cell_angle_beta 90.000000
_cell_angle_gamma 90.000000
_cell_volume 4780.585783
_symmetry_space_group_name_H-M "P 42/N N M"
_symmetry_group_IT_number 134
_space_group.IT_coordinate_system_code '2'
_symmetry_cell_setting 'tetragonal'
loop_
_space_group_symop_operation_xyz
x,y,z
1/2-y,x,1/2+z
1/2-x,1/2-y,z
y,1/2-x,1/2+z
x,1/2-y,1/2-z
1/2-x,y,1/2-z
y,x,-z
1/2-y,1/2-x,-z
-x,-y,-z
1/2+y,-x,1/2-z
1/2+x,1/2+y,-z
-y,1/2+x,1/2-z
-x,1/2+y,1/2+z
1/2+x,-y,1/2+z
-y,-x,z
1/2+y,1/2+x,z
loop_
_atom_site_type_symbol
_atom_site_label
_atom_site_fract_x
_atom_site_fract_y
_atom_site_fract_z
Si Si1 0.250000 0.560967 0.250000
Si Si2 0.890627 0.513943 0.751450
Si Si3 0.116368 0.497411 0.041725
Si Si4 0.504384 0.129567 0.291921
Si Si5 0.308439 0.691562 0.581833
Si Si6 0.690392 0.309609 0.633881
Si Si7 0.721714 0.472215 0.385111
O O1 0.186000 0.510675 0.297040
O O2 0.213107 0.609752 0.170194
O O3 0.867395 0.530834 0.856278
O O4 0.947168 0.447168 0.749796
O O5 0.928050 0.582999 0.699492
O O6 0.079863 0.579863 0.039002
O O7 0.059322 0.440679 0.000000
O O8 0.192179 0.498725 0.982906
O O9 0.575750 0.075750 0.299830
O O10 0.498152 0.167606 0.193351
O O11 0.504333 0.192534 0.370481
O O12 0.250000 0.750000 0.617299
O O13 0.312424 0.687577 0.473442
O O14 0.384687 0.718391 0.623790
O O15 0.750000 0.250000 0.669274
#
# Coordination Sequence:
#
# PCOD8317080 Si02
#       7
#     8  16  16  16   8   8  16
#     4  12  19  34  54  83 110 138 178 236 292 345
#     4  10  20  33  55  81 109 143 185 231 284 334
#     4  10  17  30  53  81 107 133 186 241 277 323
#     4  10  20  34  50  77 114 156 186 227 275 343
#     4  11  22  32  48  80 112 158 183 216 275 352
#     4  11  20  34  53  79 119 140 174 224 293 351
#     4  11  19  32  51  76 115 149 190 230 280 328
#
# _framework density 18.407785000000001
#
# number of rings (size 3 to 8) (size 9 to 14) (size 15 to 20)
#    0.000    1.455    5.455    1.636    0.000    0.000 
#    0.000    0.000    0.000    6.545    0.000   14.000 
#    0.000    0.000    0.000    0.000    0.000    0.000 
#
# Total GULP energy -1090935.906790 kJ/mol
# GULP energy per Si atom -12396.998941 kJ/mol
# Density = 1.836589 g / cm^3
# Si number density = 18.407785 Si / 1000 Ang^3
#
#
#
# Elastic Constant Matrix: (Units=GPa)
#
#
# Indices 1 2 3 4 5 6 
#
# 1 108.3688 62.4758 23.6118 0.0000 0.0000 0.0000
# 2 62.4758 108.3643 23.6117 0.0000 0.0000 0.0000
# 3 23.6118 23.6117 42.1641 0.0000 0.0000 0.0000
# 4 0.0000 0.0000 0.0000 26.4191 0.0000 0.0000
# 5 0.0000 0.0000 0.0000 0.0000 26.4185 0.0000
# 6 0.0000 0.0000 0.0000 0.0000 0.0000 35.4244
#
#
#
# Elastic Compliance Matrix: (Units=1/GPa)
#
#
# Indices 1 2 3 4 5 6 
#
# 1 0.014358 -0.007433 -0.003878 0.000000 0.000000 0.000000
# 2 -0.007433 0.014358 -0.003878 0.000000 0.000000 0.000000
# 3 -0.003878 -0.003878 0.028060 0.000000 0.000000 0.000000
# 4 0.000000 0.000000 0.000000 0.037851 0.000000 0.000000
# 5 0.000000 0.000000 0.000000 0.000000 0.037852 0.000000
# 6 0.000000 0.000000 0.000000 0.000000 0.000000 0.028229
#
#
# Mechanical properties :
#
#
# Convention : Reuss Voigt Hill
#
# Bulk Modulus (GPa) = 37.88110 53.14396 45.51253
# Shear Modulus (GPa) = 25.01414 27.59894 26.30654
#
# Velocity S-wave (km/s) = 3.69031 3.87629 3.78444
# Velocity P-wave (km/s) = 6.22747 6.99766 6.62377
#
# Compressibility (1/GPa) = 0.02639839
#
# Stress axis : x y z
#
# Youngs Moduli (GPa) = 69.64874 69.64553 35.63748
#
# Poissons Ratio (x) = 0.51766 0.13820
# Poissons Ratio (y) = 0.51768 0.13821
# Poissons Ratio (z) = 0.27010 0.27011
#
# Static dielectric constant tensor:
#      x y z
#    x 3.574850 0.000000 0.000000 
#    y 0.000000 3.574850 0.000000 
#    z 0.000000 0.000000 3.254470 
# 
# 
# High freq. dielectric constant tensor:
#      x y z
#    x 1.706290 0.000000 0.000000 
#    y 0.000000 1.706290 0.000000 
#    z 0.000000 0.000000 1.695560 
# 
# From -- ./inp_files/6517.got.cif
#   From: 2010.03.12/outbox.cif.g09.slc.cpg/sg134_4_cif.got.tgz:6517.got - 2010.04.06 18:17:22.
