data_PCOD8317541
_publ_section_title
;
Structure prediction by ZEFSAII (Michael W. Deem and Ramdas Pophale) SiO2 
 PCOD8317541
Probable space group: P 42/M B C
;
_chemical_formula_sum "Si O2"
_cell_formula_units_Z 52
_cell_length_a 11.812654
_cell_length_b 11.812654
_cell_length_c 21.913048
_cell_angle_alpha 90.000000
_cell_angle_beta 90.000000
_cell_angle_gamma 90.000000
_cell_volume 3057.720302
_symmetry_space_group_name_H-M "P 42/M B C"
_symmetry_group_IT_number 135
_symmetry_cell_setting 'tetragonal'
loop_
_space_group_symop_operation_xyz
x,y,z
-y,x,1/2+z
-x,-y,z
y,-x,1/2+z
1/2+x,1/2-y,-z
1/2-x,1/2+y,-z
1/2+y,1/2+x,1/2-z
1/2-y,1/2-x,1/2-z
-x,-y,-z
y,-x,1/2-z
x,y,-z
-y,x,1/2-z
1/2-x,1/2+y,z
1/2+x,1/2-y,z
1/2-y,1/2-x,1/2+z
1/2+y,1/2+x,1/2+z
loop_
_atom_site_type_symbol
_atom_site_label
_atom_site_fract_x
_atom_site_fract_y
_atom_site_fract_z
Si Si1 0.181150 0.536476 0.069898
Si Si2 0.500000 0.500000 0.750000
Si Si3 0.411240 0.588762 0.133078
Si Si4 0.036473 0.318852 0.930102
O O1 0.284942 0.557345 0.114368
O O2 0.131228 0.412851 0.083231
O O3 0.087228 0.631345 0.083157
O O4 0.221971 0.545441 0.000000
O O5 0.420959 0.420967 0.706844
O O6 0.500000 0.500000 0.102359
O O7 0.442658 0.715058 0.114366
O O8 0.045628 0.278072 0.000000
#
# Coordination Sequence:
#
# PCOD8317541 Si02
#       4
#    16   4  16  16
#     4   9  19  35  56  85 114 135 166 218 273 325
#     4   8  24  40  46  76 108 140 188 234 252 288
#     4  10  21  37  55  74 104 149 182 216 264 310
#     4   9  19  35  56  85 114 135 166 218 273 325
#
# _framework density 17.006132999999998
#
# number of rings (size 3 to 8) (size 9 to 14) (size 15 to 20)
#    0.923    1.846    0.000    2.769    4.308    2.462 
#    0.000    6.154    0.000    3.692    0.000    0.000 
#    0.000    0.000    0.000    0.000    0.000    0.000 
#
# Total GULP energy -644581.473881 kJ/mol
# GULP energy per Si atom -12395.797575 kJ/mol
# Density = 1.696743 g / cm^3
# Si number density = 17.006133 Si / 1000 Ang^3
#
#
#
# Elastic Constant Matrix: (Units=GPa)
#
#
# Indices 1 2 3 4 5 6 
#
# 1 124.5923 56.4513 72.8426 0.0000 0.0000 0.0000
# 2 56.4513 124.5923 72.8426 0.0000 0.0000 0.0000
# 3 72.8426 72.8426 125.4164 0.0000 0.0000 0.0000
# 4 0.0000 0.0000 0.0000 9.2697 0.0000 0.0000
# 5 0.0000 0.0000 0.0000 0.0000 9.2697 0.0000
# 6 0.0000 0.0000 0.0000 0.0000 0.0000 16.7718
#
#
#
# Elastic Compliance Matrix: (Units=1/GPa)
#
#
# Indices 1 2 3 4 5 6 
#
# 1 0.012523 -0.002153 -0.006023 0.000000 0.000000 0.000000
# 2 -0.002153 0.012523 -0.006023 0.000000 0.000000 0.000000
# 3 -0.006023 -0.006023 0.014970 0.000000 0.000000 0.000000
# 4 0.000000 0.000000 0.000000 0.107878 0.000000 0.000000
# 5 0.000000 0.000000 0.000000 0.000000 0.107878 0.000000
# 6 0.000000 0.000000 0.000000 0.000000 0.000000 0.059624
#
#
# Mechanical properties :
#
#
# Convention : Reuss Voigt Hill
#
# Bulk Modulus (GPa) = 86.07283 86.54156 86.30719
# Shear Modulus (GPa) = 14.38157 18.55987 16.47072
#
# Velocity S-wave (km/s) = 2.91119 3.30716 3.11548
# Velocity P-wave (km/s) = 7.87545 8.09827 7.98764
#
# Compressibility (1/GPa) = 0.01161807
#
# Stress axis : x y z
#
# Youngs Moduli (GPa) = 79.85373 79.85373 66.80014
#
# Poissons Ratio (x) = 0.17189 0.40235
# Poissons Ratio (y) = 0.17189 0.40235
# Poissons Ratio (z) = 0.48097 0.48097
#
# Static dielectric constant tensor:
#      x y z
#    x 3.125350 0.000000 0.000000 
#    y 0.000000 3.125350 0.000000 
#    z 0.000000 0.000000 2.917640 
# 
# 
# High freq. dielectric constant tensor:
#      x y z
#    x 1.661500 0.000000 0.000000 
#    y 0.000000 1.661500 0.000000 
#    z 0.000000 0.000000 1.630520 
# 
# From -- ./inp_files/4978.got.cif
#   From: 2010.03.12/outbox.cif.g09.slc.cpg/sg135_3_cif.got.tgz:4978.got - 2010.04.06 18:31:24.
