data_PCOD8317986
_publ_section_title
;
Structure prediction by ZEFSAII (Michael W. Deem and Ramdas Pophale) SiO2 
 PCOD8317986
Probable space group: P 42/M N M
;
_chemical_formula_sum "Si O2"
_cell_formula_units_Z 112
_cell_length_a 14.320040
_cell_length_b 14.320040
_cell_length_c 31.293893
_cell_angle_alpha 90.000000
_cell_angle_beta 90.000000
_cell_angle_gamma 90.000000
_cell_volume 6417.236654
_symmetry_space_group_name_H-M "P 42/M N M"
_symmetry_group_IT_number 136
_symmetry_cell_setting 'tetragonal'
loop_
_space_group_symop_operation_xyz
x,y,z
1/2-y,1/2+x,1/2+z
-x,-y,z
1/2+y,1/2-x,1/2+z
1/2+x,1/2-y,1/2-z
1/2-x,1/2+y,1/2-z
y,x,-z
-y,-x,-z
-x,-y,-z
1/2+y,1/2-x,1/2-z
x,y,-z
1/2-y,1/2+x,1/2-z
1/2-x,1/2+y,1/2+z
1/2+x,1/2-y,1/2+z
-y,-x,z
y,x,z
loop_
_atom_site_type_symbol
_atom_site_label
_atom_site_fract_x
_atom_site_fract_y
_atom_site_fract_z
Si Si1 0.506364 0.105923 0.950985
Si Si2 0.746488 0.406785 0.663263
Si Si3 0.768522 0.613002 0.683115
Si Si4 0.167711 0.689082 0.412295
Si Si5 0.208522 0.363883 0.777225
Si Si6 0.371855 0.776529 0.886472
Si Si7 0.808814 0.045429 0.348269
O O1 0.402447 0.148372 0.947412
O O2 0.581585 0.166780 0.925132
O O3 0.500000 0.000000 0.933598
O O4 0.538621 0.108001 0.000000
O O5 0.653068 0.346933 0.672377
O O6 0.724539 0.515461 0.668317
O O7 0.780131 0.391795 0.614360
O O8 0.830061 0.382344 0.696546
O O9 0.683038 0.683038 0.685919
O O10 0.818179 0.603911 0.729445
O O11 0.845651 0.648529 0.649656
O O12 0.244339 0.755662 0.435476
O O13 0.113190 0.748946 0.377630
O O14 0.275789 0.275789 0.775993
O O15 0.262488 0.448978 0.801092
O O16 0.280740 0.719261 0.902833
O O17 0.440953 0.698673 0.866229
O O18 0.916374 0.083627 0.347614
#
# Coordination Sequence:
#
# PCOD8317986 Si02
#       7
#    16  16  16  16  16  16  16
#     4  10  20  34  54  77 100 129 167 209 248 298
#     4   9  17  31  51  67  90 129 165 203 253 306
#     4  10  20  31  45  68  98 129 165 210 254 296
#     4   8  15  30  51  72  93 122 157 198 249 296
#     4   8  16  30  46  65  91 125 164 207 250 288
#     4  10  21  34  50  73 104 136 162 204 256 301
#     4   8  15  30  50  68  91 128 169 200 235 291
#
# _framework density 17.452994
#
# number of rings (size 3 to 8) (size 9 to 14) (size 15 to 20)
#    0.000    3.000    0.000    2.571    2.000    1.143 
#    0.000    0.000    0.000    2.571    0.000    4.000 
#    0.000    0.000    0.000   26.571    0.000    0.000 
#
# Total GULP energy -1388055.080796 kJ/mol
# GULP energy per Si atom -12393.348936 kJ/mol
# Density = 1.741327 g / cm^3
# Si number density = 17.452994 Si / 1000 Ang^3
#
#
#
# Elastic Constant Matrix: (Units=GPa)
#
#
# Indices 1 2 3 4 5 6 
#
# 1 79.7890 28.8098 34.2002 0.0000 0.0000 0.0000
# 2 28.8098 79.7890 34.2002 0.0000 0.0000 0.0000
# 3 34.2002 34.2002 74.2900 0.0000 0.0000 0.0000
# 4 0.0000 0.0000 0.0000 20.6788 0.0000 0.0000
# 5 0.0000 0.0000 0.0000 0.0000 20.6788 0.0000
# 6 0.0000 0.0000 0.0000 0.0000 0.0000 17.6556
#
#
#
# Elastic Compliance Matrix: (Units=1/GPa)
#
#
# Indices 1 2 3 4 5 6 
#
# 1 0.016292 -0.003324 -0.005970 0.000000 0.000000 0.000000
# 2 -0.003324 0.016292 -0.005970 0.000000 0.000000 0.000000
# 3 -0.005970 -0.005970 0.018958 0.000000 0.000000 0.000000
# 4 0.000000 0.000000 0.000000 0.048359 0.000000 0.000000
# 5 0.000000 0.000000 0.000000 0.000000 0.048359 0.000000
# 6 0.000000 0.000000 0.000000 0.000000 0.000000 0.056639
#
#
# Mechanical properties :
#
#
# Convention : Reuss Voigt Hill
#
# Bulk Modulus (GPa) = 47.58759 47.58761 47.58760
# Shear Modulus (GPa) = 20.62439 20.91315 20.76877
#
# Velocity S-wave (km/s) = 3.44133 3.46534 3.45336
# Velocity P-wave (km/s) = 6.56625 6.58307 6.57467
#
# Compressibility (1/GPa) = 0.02101388
#
# Stress axis : x y z
#
# Youngs Moduli (GPa) = 61.37920 61.37920 52.74912
#
# Poissons Ratio (x) = 0.20400 0.31492
# Poissons Ratio (y) = 0.20400 0.31492
# Poissons Ratio (z) = 0.36645 0.36645
#
# Static dielectric constant tensor:
#      x y z
#    x 3.218950 0.000000 0.000000 
#    y 0.000000 3.218950 0.000000 
#    z 0.000000 0.000000 3.178800 
# 
# 
# High freq. dielectric constant tensor:
#      x y z
#    x 1.664150 0.000000 0.000000 
#    y 0.000000 1.664150 0.000000 
#    z 0.000000 0.000000 1.658210 
# 
# From -- ./inp_files/9181.got.cif
#   From: 2010.03.12/outbox.cif.g09.slc.cpg/sg136_5_cif.got.tgz:9181.got - 2010.04.06 18:39:43.
