data_PCOD8317788
_publ_section_title
;
Structure prediction by ZEFSAII (Michael W. Deem and Ramdas Pophale) SiO2 
 PCOD8317788
Probable space group: P 42/M N M
;
_chemical_formula_sum "Si O2"
_cell_formula_units_Z 96
_cell_length_a 14.090442
_cell_length_b 14.090442
_cell_length_c 28.328453
_cell_angle_alpha 90.000000
_cell_angle_beta 90.000000
_cell_angle_gamma 90.000000
_cell_volume 5624.346802
_symmetry_space_group_name_H-M "P 42/M N M"
_symmetry_group_IT_number 136
_symmetry_cell_setting 'tetragonal'
loop_
_space_group_symop_operation_xyz
x,y,z
1/2-y,1/2+x,1/2+z
-x,-y,z
1/2+y,1/2-x,1/2+z
1/2+x,1/2-y,1/2-z
1/2-x,1/2+y,1/2-z
y,x,-z
-y,-x,-z
-x,-y,-z
1/2+y,1/2-x,1/2-z
x,y,-z
1/2-y,1/2+x,1/2-z
1/2-x,1/2+y,1/2+z
1/2+x,1/2-y,1/2+z
-y,-x,z
y,x,z
loop_
_atom_site_type_symbol
_atom_site_label
_atom_site_fract_x
_atom_site_fract_y
_atom_site_fract_z
Si Si1 0.271736 0.121477 0.199580
Si Si2 0.064471 0.784686 0.150966
Si Si3 0.139770 0.289177 0.308861
Si Si4 0.109628 0.466819 0.850554
Si Si5 0.388610 0.002174 0.549629
Si Si6 0.719792 0.125903 0.052960
O O1 0.220049 0.220049 0.187960
O O2 0.278518 0.106161 0.255235
O O3 0.378091 0.127460 0.181818
O O4 0.212030 0.039004 0.173911
O O5 0.110607 0.889394 0.153124
O O6 0.125147 0.712968 0.183100
O O7 0.056605 0.751697 0.095806
O O8 0.191004 0.191004 0.325556
O O9 0.046322 0.313388 0.337951
O O10 0.135125 0.438594 0.904766
O O11 0.000000 0.500000 0.845350
O O12 0.343026 0.964223 0.500000
O O13 0.352813 0.109090 0.559054
O O14 0.500000 0.000000 0.542809
O O15 0.774542 0.225459 0.059441
O O16 0.740318 0.082985 0.000000
#
# Coordination Sequence:
#
# PCOD8317788 Si02
#       6
#    16  16  16  16  16  16
#     4  11  23  35  48  73 104 136 174 214 248 293
#     4  10  18  33  53  74 103 137 165 203 258 307
#     4  10  20  33  51  76 102 126 166 217 255 293
#     4  11  19  31  54  76  96 133 167 208 252 298
#     4   9  16  26  42  69 100 125 156 197 246 292
#     4   9  16  27  47  76 104 127 158 204 253 300
#
# _framework density 17.068649000000001
#
# number of rings (size 3 to 8) (size 9 to 14) (size 15 to 20)
#    0.000    2.000    3.333    2.000    0.000    0.333 
#    0.000    0.000    0.000    3.500    0.000    2.333 
#    0.000    0.000    0.000    5.667    0.000    0.000 
#
# Total GULP energy -1189259.188831 kJ/mol
# GULP energy per Si atom -12388.116550 kJ/mol
# Density = 1.702980 g / cm^3
# Si number density = 17.068649 Si / 1000 Ang^3
#
#
#
# Elastic Constant Matrix: (Units=GPa)
#
#
# Indices 1 2 3 4 5 6 
#
# 1 56.5322 22.1047 23.1557 0.0000 0.0000 0.0000
# 2 22.1047 56.5322 23.1557 0.0000 0.0000 0.0000
# 3 23.1557 23.1557 98.4039 0.0000 0.0000 0.0000
# 4 0.0000 0.0000 0.0000 22.3248 0.0000 0.0000
# 5 0.0000 0.0000 0.0000 0.0000 22.3248 0.0000
# 6 0.0000 0.0000 0.0000 0.0000 0.0000 26.2983
#
#
#
# Elastic Compliance Matrix: (Units=1/GPa)
#
#
# Indices 1 2 3 4 5 6 
#
# 1 0.021905 -0.007142 -0.003474 0.000000 0.000000 0.000000
# 2 -0.007142 0.021905 -0.003474 0.000000 0.000000 0.000000
# 3 -0.003474 -0.003474 0.011797 0.000000 0.000000 0.000000
# 4 0.000000 0.000000 0.000000 0.044793 0.000000 0.000000
# 5 0.000000 0.000000 0.000000 0.000000 0.044793 0.000000
# 6 0.000000 0.000000 0.000000 0.000000 0.000000 0.038025
#
#
# Mechanical properties :
#
#
# Convention : Reuss Voigt Hill
#
# Bulk Modulus (GPa) = 36.46063 38.70004 37.58033
# Shear Modulus (GPa) = 22.67166 23.72637 23.19901
#
# Velocity S-wave (km/s) = 3.64849 3.73239 3.69068
# Velocity P-wave (km/s) = 6.25749 6.42625 6.34243
#
# Compressibility (1/GPa) = 0.02742684
#
# Stress axis : x y z
#
# Youngs Moduli (GPa) = 45.65261 45.65261 84.76686
#
# Poissons Ratio (x) = 0.32605 0.29446
# Poissons Ratio (y) = 0.32605 0.29446
# Poissons Ratio (z) = 0.15859 0.15859
#
# Static dielectric constant tensor:
#      x y z
#    x 3.064000 0.000000 0.000000 
#    y 0.000000 3.064000 0.000000 
#    z 0.000000 0.000000 3.752750 
# 
# 
# High freq. dielectric constant tensor:
#      x y z
#    x 1.630830 0.000000 0.000000 
#    y 0.000000 1.630830 0.000000 
#    z 0.000000 0.000000 1.687620 
# 
# From -- ./inp_files/9889.got.cif
#   From: 2010.03.12/outbox.cif.g09.slc.cpg/sg136_5_cif.got.tgz:9889.got - 2010.04.06 18:39:43.
