data_PCOD8317952
_publ_section_title
;
Structure prediction by ZEFSAII (Michael W. Deem and Ramdas Pophale) SiO2 
 PCOD8317952
Probable space group: P 42/M N M
;
_chemical_formula_sum "Si O2"
_cell_formula_units_Z 72
_cell_length_a 12.614249
_cell_length_b 12.614249
_cell_length_c 23.842321
_cell_angle_alpha 90.000000
_cell_angle_beta 90.000000
_cell_angle_gamma 90.000000
_cell_volume 3793.772899
_symmetry_space_group_name_H-M "P 42/M N M"
_symmetry_group_IT_number 136
_symmetry_cell_setting 'tetragonal'
loop_
_space_group_symop_operation_xyz
x,y,z
1/2-y,1/2+x,1/2+z
-x,-y,z
1/2+y,1/2-x,1/2+z
1/2+x,1/2-y,1/2-z
1/2-x,1/2+y,1/2-z
y,x,-z
-y,-x,-z
-x,-y,-z
1/2+y,1/2-x,1/2-z
x,y,-z
1/2-y,1/2+x,1/2-z
1/2-x,1/2+y,1/2+z
1/2+x,1/2-y,1/2+z
-y,-x,z
y,x,z
loop_
_atom_site_type_symbol
_atom_site_label
_atom_site_fract_x
_atom_site_fract_y
_atom_site_fract_z
Si Si1 0.325990 0.016157 0.253857
Si Si2 0.410951 0.410951 0.062408
Si Si3 0.235111 0.056946 0.627298
Si Si4 0.296234 0.881323 0.062760
Si Si5 0.172735 0.000336 0.151347
O O1 0.405485 0.114651 0.253933
O O2 0.264827 0.014158 0.312078
O O3 0.241419 0.031527 0.204876
O O4 0.500000 0.500000 0.059931
O O5 0.455999 0.308382 0.093742
O O6 0.377090 0.377090 0.000000
O O7 0.148330 0.148330 0.633775
O O8 0.338244 0.099380 0.594311
O O9 0.212556 0.787445 0.058243
O O10 0.248324 0.978961 0.098005
O O11 0.325940 0.920533 0.000000
O O12 0.104229 0.895772 0.165981
O O13 0.097618 0.097618 0.134702
#
# Coordination Sequence:
#
# PCOD8317952 Si02
#       5
#    16   8  16  16  16
#     4  11  23  38  56  79 110 150 192 235 288 347
#     4   9  18  32  54  88 120 146 188 240 287 344
#     4  10  19  34  56  84 114 150 190 237 290 339
#     4   9  17  32  56  84 114 148 187 230 283 342
#     4  10  21  36  56  84 114 145 187 239 288 336
#
# _framework density 18.978467999999999
#
# number of rings (size 3 to 8) (size 9 to 14) (size 15 to 20)
#    0.000    2.111    2.222    1.333    1.556    4.000 
#    0.000    2.222    0.000    4.000    0.000    0.000 
#    0.000    0.000    0.000    0.000    0.000    0.000 
#
# Total GULP energy -892972.611196 kJ/mol
# GULP energy per Si atom -12402.397378 kJ/mol
# Density = 1.893527 g / cm^3
# Si number density = 18.978468 Si / 1000 Ang^3
#
#
#
# Elastic Constant Matrix: (Units=GPa)
#
#
# Indices 1 2 3 4 5 6 
#
# 1 73.0627 39.3782 45.6061 0.0000 0.0000 0.0000
# 2 39.3782 73.0627 45.6061 0.0000 0.0000 0.0000
# 3 45.6061 45.6061 166.2754 0.0000 0.0000 0.0000
# 4 0.0000 0.0000 0.0000 27.3758 0.0000 0.0000
# 5 0.0000 0.0000 0.0000 0.0000 27.3758 0.0000
# 6 0.0000 0.0000 0.0000 0.0000 0.0000 29.0874
#
#
#
# Elastic Compliance Matrix: (Units=1/GPa)
#
#
# Indices 1 2 3 4 5 6 
#
# 1 0.020563 -0.009124 -0.003137 0.000000 0.000000 0.000000
# 2 -0.009124 0.020563 -0.003137 0.000000 0.000000 0.000000
# 3 -0.003137 -0.003137 0.007735 0.000000 0.000000 0.000000
# 4 0.000000 0.000000 0.000000 0.036529 0.000000 0.000000
# 5 0.000000 0.000000 0.000000 0.000000 0.036529 0.000000
# 6 0.000000 0.000000 0.000000 0.000000 0.000000 0.034379
#
#
# Mechanical properties :
#
#
# Convention : Reuss Voigt Hill
#
# Bulk Modulus (GPa) = 55.36225 63.73126 59.54676
# Shear Modulus (GPa) = 25.89110 28.88849 27.38979
#
# Velocity S-wave (km/s) = 3.69756 3.90573 3.80307
# Velocity P-wave (km/s) = 6.88939 7.34802 7.12240
#
# Compressibility (1/GPa) = 0.01806285
#
# Stress axis : x y z
#
# Youngs Moduli (GPa) = 48.63123 48.63123 129.27977
#
# Poissons Ratio (x) = 0.44373 0.40560
# Poissons Ratio (y) = 0.44373 0.40560
# Poissons Ratio (z) = 0.15257 0.15257
#
# Static dielectric constant tensor:
#      x y z
#    x 3.364950 0.000000 0.000000 
#    y 0.000000 3.364950 0.000000 
#    z 0.000000 0.000000 3.657060 
# 
# 
# High freq. dielectric constant tensor:
#      x y z
#    x 1.722940 0.000000 0.000000 
#    y 0.000000 1.722940 0.000000 
#    z 0.000000 0.000000 1.751960 
# 
# From -- ./inp_files/8922.got.cif
#   From: 2010.03.12/outbox.cif.g09.slc.cpg/sg136_5_cif.got.tgz:8922.got - 2010.04.06 18:39:43.
