data_PCOD8317289
_publ_section_title
;
Structure prediction by ZEFSAII (Michael W. Deem and Ramdas Pophale) SiO2 
 PCOD8317289
Probable space group: P 42/N N M
;
_chemical_formula_sum "Si O2"
_cell_formula_units_Z 52
_cell_length_a 15.314445
_cell_length_b 15.314445
_cell_length_c 11.128342
_cell_angle_alpha 90.000000
_cell_angle_beta 90.000000
_cell_angle_gamma 90.000000
_cell_volume 2609.954817
_symmetry_space_group_name_H-M "P 42/N N M"
_symmetry_group_IT_number 134
_space_group.IT_coordinate_system_code '2'
_symmetry_cell_setting 'tetragonal'
loop_
_space_group_symop_operation_xyz
x,y,z
1/2-y,x,1/2+z
1/2-x,1/2-y,z
y,1/2-x,1/2+z
x,1/2-y,1/2-z
1/2-x,y,1/2-z
y,x,-z
1/2-y,1/2-x,-z
-x,-y,-z
1/2+y,-x,1/2-z
1/2+x,1/2+y,-z
-y,1/2+x,1/2-z
-x,1/2+y,1/2+z
1/2+x,-y,1/2+z
-y,-x,z
1/2+y,1/2+x,z
loop_
_atom_site_type_symbol
_atom_site_label
_atom_site_fract_x
_atom_site_fract_y
_atom_site_fract_z
Si Si1 0.239660 0.440080 0.067716
Si Si2 0.023980 0.668414 0.824383
Si Si3 0.392475 0.034159 0.274946
Si Si4 0.750000 0.750000 0.000000
O O1 0.171921 0.475672 0.163540
O O2 0.338563 0.468214 0.100189
O O3 0.245359 0.335713 0.081869
O O4 0.206933 0.475018 0.940270
O O5 0.062811 0.750000 0.750000
O O6 0.102797 0.602797 0.860685
O O7 0.953189 0.619615 0.740558
O O8 0.447844 0.947844 0.276188
#
# Coordination Sequence:
#
# PCOD8317289 Si02
#       4
#    16  16  16   4
#     4  11  22  37  64  92 124 157 201 263 312 376
#     4  11  23  41  61  87 124 165 208 252 306 366
#     4  10  22  39  62  90 124 164 204 251 313 375
#     4  12  20  34  60  96 122 144 198 252 328 370
#
# _framework density 19.923715999999999
#
# number of rings (size 3 to 8) (size 9 to 14) (size 15 to 20)
#    0.000    1.231    3.077    2.769    0.000    5.231 
#    0.000    3.846    0.000   14.769    0.000    0.000 
#    0.000    0.000    0.000    0.000    0.000    0.000 
#
# Total GULP energy -644544.737042 kJ/mol
# GULP energy per Si atom -12395.091097 kJ/mol
# Density = 1.987837 g / cm^3
# Si number density = 19.923716 Si / 1000 Ang^3
#
#
#
# Elastic Constant Matrix: (Units=GPa)
#
#
# Indices 1 2 3 4 5 6 
#
# 1 141.2356 80.7819 54.8145 0.0000 0.0000 0.0000
# 2 80.7819 141.2356 54.8145 0.0000 0.0000 0.0000
# 3 54.8145 54.8145 52.2215 0.0000 0.0000 0.0000
# 4 0.0000 0.0000 0.0000 33.3318 0.0000 0.0000
# 5 0.0000 0.0000 0.0000 0.0000 33.3318 0.0000
# 6 0.0000 0.0000 0.0000 0.0000 0.0000 31.4840
#
#
#
# Elastic Compliance Matrix: (Units=1/GPa)
#
#
# Indices 1 2 3 4 5 6 
#
# 1 0.012946 -0.003595 -0.009815 0.000000 0.000000 0.000000
# 2 -0.003595 0.012946 -0.009815 0.000000 0.000000 0.000000
# 3 -0.009815 -0.009815 0.039754 0.000000 0.000000 0.000000
# 4 0.000000 0.000000 0.000000 0.030001 0.000000 0.000000
# 5 0.000000 0.000000 0.000000 0.000000 0.030001 0.000000
# 6 0.000000 0.000000 0.000000 0.000000 0.000000 0.031762
#
#
# Mechanical properties :
#
#
# Convention : Reuss Voigt Hill
#
# Bulk Modulus (GPa) = 52.09607 79.50161 65.79884
# Shear Modulus (GPa) = 23.78010 29.24830 26.51420
#
# Velocity S-wave (km/s) = 3.45854 3.83562 3.65195
# Velocity P-wave (km/s) = 6.49255 7.72047 7.13298
#
# Compressibility (1/GPa) = 0.01919531
#
# Stress axis : x y z
#
# Youngs Moduli (GPa) = 77.24334 77.24334 25.15490
#
# Poissons Ratio (x) = 0.27773 0.24689
# Poissons Ratio (y) = 0.27773 0.24689
# Poissons Ratio (z) = 0.75814 0.75814
#
# Static dielectric constant tensor:
#      x y z
#    x 3.781220 0.000000 0.000000 
#    y 0.000000 3.781220 0.000000 
#    z 0.000000 0.000000 3.598810 
# 
# 
# High freq. dielectric constant tensor:
#      x y z
#    x 1.782950 0.000000 0.000000 
#    y 0.000000 1.782950 0.000000 
#    z 0.000000 0.000000 1.772540 
# 
# From -- ./inp_files/4313.got.cif
#   From: 2010.03.12/outbox.cif.g09.slc.cpg/sg134_3_cif.got.tgz:4313.got - 2010.04.06 18:17:22.
