data_PCOD8317078
_publ_section_title
;
Structure prediction by ZEFSAII (Michael W. Deem and Ramdas Pophale) SiO2 
 PCOD8317078
Probable space group: P 42/N N M
;
_chemical_formula_sum "Si O2"
_cell_formula_units_Z 96
_cell_length_a 18.267349
_cell_length_b 18.267349
_cell_length_c 17.318185
_cell_angle_alpha 90.000000
_cell_angle_beta 90.000000
_cell_angle_gamma 90.000000
_cell_volume 5779.009746
_symmetry_space_group_name_H-M "P 42/N N M"
_symmetry_group_IT_number 134
_space_group.IT_coordinate_system_code '2'
_symmetry_cell_setting 'tetragonal'
loop_
_space_group_symop_operation_xyz
x,y,z
1/2-y,x,1/2+z
1/2-x,1/2-y,z
y,1/2-x,1/2+z
x,1/2-y,1/2-z
1/2-x,y,1/2-z
y,x,-z
1/2-y,1/2-x,-z
-x,-y,-z
1/2+y,-x,1/2-z
1/2+x,1/2+y,-z
-y,1/2+x,1/2-z
-x,1/2+y,1/2+z
1/2+x,-y,1/2+z
-y,-x,z
1/2+y,1/2+x,z
loop_
_atom_site_type_symbol
_atom_site_label
_atom_site_fract_x
_atom_site_fract_y
_atom_site_fract_z
Si Si1 0.330872 0.228232 0.839447
Si Si2 0.208267 0.585934 0.830615
Si Si3 0.174718 0.426216 0.794407
Si Si4 0.423275 0.171809 0.552815
Si Si5 0.043443 0.428318 0.336984
Si Si6 0.946252 0.329926 0.442072
O O1 0.250000 0.250000 0.867350
O O2 0.343617 0.250000 0.750000
O O3 0.336741 0.140727 0.853457
O O4 0.393032 0.264062 0.892957
O O5 0.250000 0.598259 0.750000
O O6 0.143339 0.643339 0.838074
O O7 0.174876 0.504278 0.836545
O O8 0.261845 0.596542 0.903712
O O9 0.250000 0.411430 0.750000
O O10 0.106927 0.418819 0.736626
O O11 0.356341 0.143660 0.500000
O O12 0.452928 0.103711 0.601886
O O13 0.494558 0.198169 0.504843
O O14 0.000213 0.500213 0.310987
O O15 0.988815 0.368328 0.372113
O O16 0.886591 0.386591 0.477888
#
# Coordination Sequence:
#
# PCOD8317078 Si02
#       6
#    16  16  16  16  16  16
#     4  11  20  33  53  77 104 143 183 221 261 318
#     4  11  22  35  55  81 109 141 180 222 272 331
#     4  11  18  31  51  73 108 138 172 216 260 317
#     4  10  21  34  50  78 106 136 177 224 266 315
#     4  10  17  30  51  75 103 134 164 209 272 320
#     4  10  20  34  52  76 106 136 172 222 274 320
#
# _framework density 16.611841999999999
#
# number of rings (size 3 to 8) (size 9 to 14) (size 15 to 20)
#    0.000    1.500    6.667    1.500    2.333    3.500 
#    0.000    0.000    0.000    3.000    0.000    0.000 
#    0.000    0.000    0.000    0.000    0.000    0.000 
#
# Total GULP energy -1190225.073718 kJ/mol
# GULP energy per Si atom -12398.177851 kJ/mol
# Density = 1.657403 g / cm^3
# Si number density = 16.611842 Si / 1000 Ang^3
#
#
#
# Elastic Constant Matrix: (Units=GPa)
#
#
# Indices 1 2 3 4 5 6 
#
# 1 100.4816 65.7227 42.0383 0.0000 0.0000 0.0000
# 2 65.7227 100.4811 42.0385 0.0000 0.0000 0.0000
# 3 42.0383 42.0385 59.5133 0.0000 0.0000 0.0000
# 4 0.0000 0.0000 0.0000 18.2206 0.0000 0.0000
# 5 0.0000 0.0000 0.0000 0.0000 18.2209 0.0000
# 6 0.0000 0.0000 0.0000 0.0000 0.0000 6.5039
#
#
#
# Elastic Compliance Matrix: (Units=1/GPa)
#
#
# Indices 1 2 3 4 5 6 
#
# 1 0.019066 -0.009704 -0.006613 0.000000 0.000000 0.000000
# 2 -0.009704 0.019066 -0.006613 0.000000 0.000000 0.000000
# 3 -0.006613 -0.006613 0.026145 0.000000 0.000000 0.000000
# 4 0.000000 0.000000 0.000000 0.054883 0.000000 0.000000
# 5 0.000000 0.000000 0.000000 0.000000 0.054882 0.000000
# 6 0.000000 0.000000 0.000000 0.000000 0.000000 0.153755
#
#
# Mechanical properties :
#
#
# Convention : Reuss Voigt Hill
#
# Bulk Modulus (GPa) = 54.29673 62.23057 58.26365
# Shear Modulus (GPa) = 13.16496 15.96752 14.56624
#
# Velocity S-wave (km/s) = 2.81820 3.10371 2.96439
# Velocity P-wave (km/s) = 6.58378 7.09837 6.84591
#
# Compressibility (1/GPa) = 0.01841732
#
# Stress axis : x y z
#
# Youngs Moduli (GPa) = 52.45001 52.44940 38.24758
#
# Poissons Ratio (x) = 0.50896 0.25293
# Poissons Ratio (y) = 0.50897 0.25294
# Poissons Ratio (z) = 0.34685 0.34686
#
# Static dielectric constant tensor:
#      x y z
#    x 3.124640 0.000000 0.000000 
#    y 0.000000 3.124640 0.000000 
#    z 0.000000 0.000000 2.919730 
# 
# 
# High freq. dielectric constant tensor:
#      x y z
#    x 1.632830 0.000000 0.000000 
#    y 0.000000 1.632830 0.000000 
#    z 0.000000 0.000000 1.609500 
# 
# From -- ./inp_files/7887.got.cif
#   From: 2010.03.12/outbox.cif.g09.slc.cpg/sg134_4_cif.got.tgz:7887.got - 2010.04.06 18:17:22.
