data_PCOD8317789
_publ_section_title
;
Structure prediction by ZEFSAII (Michael W. Deem and Ramdas Pophale) SiO2 
 PCOD8317789
Probable space group: P 42/M N M
;
_chemical_formula_sum "Si O2"
_cell_formula_units_Z 96
_cell_length_a 14.385467
_cell_length_b 14.385467
_cell_length_c 25.374307
_cell_angle_alpha 90.000000
_cell_angle_beta 90.000000
_cell_angle_gamma 90.000000
_cell_volume 5251.001232
_symmetry_space_group_name_H-M "P 42/M N M"
_symmetry_group_IT_number 136
_symmetry_cell_setting 'tetragonal'
loop_
_space_group_symop_operation_xyz
x,y,z
1/2-y,1/2+x,1/2+z
-x,-y,z
1/2+y,1/2-x,1/2+z
1/2+x,1/2-y,1/2-z
1/2-x,1/2+y,1/2-z
y,x,-z
-y,-x,-z
-x,-y,-z
1/2+y,1/2-x,1/2-z
x,y,-z
1/2-y,1/2+x,1/2-z
1/2-x,1/2+y,1/2+z
1/2+x,1/2-y,1/2+z
-y,-x,z
y,x,z
loop_
_atom_site_type_symbol
_atom_site_label
_atom_site_fract_x
_atom_site_fract_y
_atom_site_fract_z
Si Si1 0.545054 0.146474 0.254014
Si Si2 0.351702 0.800901 0.942634
Si Si3 0.921939 0.078062 0.210850
Si Si4 0.935106 0.778517 0.345546
Si Si5 0.790281 0.942026 0.160443
Si Si6 0.922719 0.077282 0.327046
Si Si7 0.546893 0.698176 0.439969
O O1 0.438771 0.113872 0.255449
O O2 0.559511 0.221947 0.208413
O O3 0.571486 0.191367 0.310817
O O4 0.292946 0.707055 0.945344
O O5 0.425696 0.790995 0.895335
O O6 0.285744 0.887033 0.930488
O O7 0.400962 0.814605 0.000000
O O8 0.891000 0.109000 0.269018
O O9 0.960907 0.168734 0.182146
O O10 0.000000 0.000000 0.210643
O O11 0.847960 0.847960 0.339994
O O12 0.031319 0.834751 0.356560
O O13 0.853119 0.853119 0.173746
O O14 0.786213 0.957196 0.097300
O O15 0.000000 0.000000 0.319218
O O16 0.511030 0.694962 0.500000
O O17 0.602455 0.602455 0.427194
#
# Coordination Sequence:
#
# PCOD8317789 Si02
#       7
#    16  16   8  16  16   8  16
#     4  11  24  39  52  72 105 138 173 218 259 306
#     4   8  15  28  47  73 105 138 173 212 251 301
#     4   9  16  28  47  71 105 135 158 203 253 305
#     4  10  18  33  54  78 104 134 171 213 264 313
#     4  11  20  34  53  78 107 138 174 213 259 311
#     4   9  16  28  47  73 105 133 162 209 262 312
#     4   9  17  29  48  77 110 143 176 211 257 309
#
# _framework density 18.282228
#
# number of rings (size 3 to 8) (size 9 to 14) (size 15 to 20)
#    0.000    2.333    2.500    2.500    0.000    0.333 
#    6.000    1.250    0.000    3.500    0.000    4.667 
#    0.000    0.000    0.000    0.000    0.000    0.000 
#
# Total GULP energy -1189843.332265 kJ/mol
# GULP energy per Si atom -12394.201378 kJ/mol
# Density = 1.824062 g / cm^3
# Si number density = 18.282228 Si / 1000 Ang^3
#
#
#
# Elastic Constant Matrix: (Units=GPa)
#
#
# Indices 1 2 3 4 5 6 
#
# 1 63.6534 31.3865 35.7847 0.0000 0.0000 0.0000
# 2 31.3865 63.6534 35.7847 0.0000 0.0000 0.0000
# 3 35.7847 35.7847 107.4449 0.0000 0.0000 0.0000
# 4 0.0000 0.0000 0.0000 22.1586 0.0000 0.0000
# 5 0.0000 0.0000 0.0000 0.0000 22.1586 0.0000
# 6 0.0000 0.0000 0.0000 0.0000 0.0000 17.1264
#
#
#
# Elastic Compliance Matrix: (Units=1/GPa)
#
#
# Indices 1 2 3 4 5 6 
#
# 1 0.022518 -0.008474 -0.004677 0.000000 0.000000 0.000000
# 2 -0.008474 0.022518 -0.004677 0.000000 0.000000 0.000000
# 3 -0.004677 -0.004677 0.012423 0.000000 0.000000 0.000000
# 4 0.000000 0.000000 0.000000 0.045129 0.000000 0.000000
# 5 0.000000 0.000000 0.000000 0.000000 0.045129 0.000000
# 6 0.000000 0.000000 0.000000 0.000000 0.000000 0.058389
#
#
# Mechanical properties :
#
#
# Convention : Reuss Voigt Hill
#
# Bulk Modulus (GPa) = 45.86859 48.96261 47.41560
# Shear Modulus (GPa) = 20.07786 21.07511 20.57648
#
# Velocity S-wave (km/s) = 3.31753 3.39892 3.35847
# Velocity P-wave (km/s) = 6.31018 6.49948 6.40553
#
# Compressibility (1/GPa) = 0.02180141
#
# Stress axis : x y z
#
# Youngs Moduli (GPa) = 44.40908 44.40908 80.49737
#
# Poissons Ratio (x) = 0.37631 0.37652
# Poissons Ratio (y) = 0.37631 0.37652
# Poissons Ratio (z) = 0.20772 0.20772
#
# Static dielectric constant tensor:
#      x y z
#    x 3.210340 0.000000 0.000000 
#    y 0.000000 3.210340 0.000000 
#    z 0.000000 0.000000 3.647370 
# 
# 
# High freq. dielectric constant tensor:
#      x y z
#    x 1.682060 0.000000 0.000000 
#    y 0.000000 1.682060 0.000000 
#    z 0.000000 0.000000 1.714450 
# 
# From -- ./inp_files/8428.got.cif
#   From: 2010.03.12/outbox.cif.g09.slc.cpg/sg136_5_cif.got.tgz:8428.got - 2010.04.06 18:39:43.
