data_PCOD8317729
_publ_section_title
;
Structure prediction by ZEFSAII (Michael W. Deem and Ramdas Pophale) SiO2 
 PCOD8317729
Probable space group: P 42/M N M
;
_chemical_formula_sum "Si O2"
_cell_formula_units_Z 112
_cell_length_a 16.865096
_cell_length_b 16.865096
_cell_length_c 23.306312
_cell_angle_alpha 90.000000
_cell_angle_beta 90.000000
_cell_angle_gamma 90.000000
_cell_volume 6629.048421
_symmetry_space_group_name_H-M "P 42/M N M"
_symmetry_group_IT_number 136
_symmetry_cell_setting 'tetragonal'
loop_
_space_group_symop_operation_xyz
x,y,z
1/2-y,1/2+x,1/2+z
-x,-y,z
1/2+y,1/2-x,1/2+z
1/2+x,1/2-y,1/2-z
1/2-x,1/2+y,1/2-z
y,x,-z
-y,-x,-z
-x,-y,-z
1/2+y,1/2-x,1/2-z
x,y,-z
1/2-y,1/2+x,1/2-z
1/2-x,1/2+y,1/2+z
1/2+x,1/2-y,1/2+z
-y,-x,z
y,x,z
loop_
_atom_site_type_symbol
_atom_site_label
_atom_site_fract_x
_atom_site_fract_y
_atom_site_fract_z
Si Si1 0.905423 0.645572 0.566253
Si Si2 0.993141 0.291404 0.066690
Si Si3 0.500027 0.630636 0.363381
Si Si4 0.409993 0.287910 0.932614
Si Si5 0.303453 0.564333 0.126363
Si Si6 0.004366 0.871775 0.734018
Si Si7 0.078373 0.612181 0.567224
O O1 0.911077 0.676164 0.500000
O O2 0.826302 0.594813 0.575360
O O3 0.899219 0.718132 0.610682
O O4 0.985104 0.593339 0.579447
O O5 0.002058 0.207080 0.096535
O O6 0.051712 0.357921 0.094560
O O7 0.011328 0.277381 0.000000
O O8 0.419666 0.580335 0.372838
O O9 0.575655 0.575655 0.378409
O O10 0.506519 0.662867 0.298322
O O11 0.340584 0.340584 0.904692
O O12 0.495169 0.325799 0.918242
O O13 0.403847 0.199391 0.907105
O O14 0.400540 0.285542 0.000000
O O15 0.367366 0.632635 0.120832
O O16 0.303547 0.523639 0.189741
O O17 0.942603 0.942603 0.732149
O O18 0.090686 0.909315 0.717870
O O19 0.093558 0.609179 0.500000
#
# Coordination Sequence:
#
# PCOD8317729 Si02
#       7
#    16  16  16  16  16  16  16
#     4   9  18  31  47  71 102 131 161 200 242 284
#     4  10  19  31  52  76  94 124 165 198 241 303
#     4   9  19  35  52  71  97 125 155 201 254 295
#     4   9  17  27  40  65 101 129 151 191 241 279
#     4  10  18  28  46  68  93 128 166 196 227 278
#     4   8  15  30  51  69  86 119 165 201 232 280
#     4   8  15  29  47  67  92 124 160 193 228 277
#
# _framework density 16.895337000000001
#
# number of rings (size 3 to 8) (size 9 to 14) (size 15 to 20)
#    0.000    3.000    0.000    3.000    0.000    5.429 
#    0.000    4.286    6.286    0.000    0.000    0.000 
#    0.000    0.000    0.000    0.000    0.000    0.000 
#
# Total GULP energy -1387696.873168 kJ/mol
# GULP energy per Si atom -12390.150653 kJ/mol
# Density = 1.685688 g / cm^3
# Si number density = 16.895337 Si / 1000 Ang^3
#
#
#
# Elastic Constant Matrix: (Units=GPa)
#
#
# Indices 1 2 3 4 5 6 
#
# 1 87.4313 47.1300 42.2601 0.0000 0.0000 0.0000
# 2 47.1300 87.4313 42.2601 0.0000 0.0000 0.0000
# 3 42.2601 42.2601 59.0332 0.0000 0.0000 0.0000
# 4 0.0000 0.0000 0.0000 18.8708 0.0000 0.0000
# 5 0.0000 0.0000 0.0000 0.0000 18.8708 0.0000
# 6 0.0000 0.0000 0.0000 0.0000 0.0000 21.5312
#
#
#
# Elastic Compliance Matrix: (Units=1/GPa)
#
#
# Indices 1 2 3 4 5 6 
#
# 1 0.019158 -0.005655 -0.009667 0.000000 0.000000 0.000000
# 2 -0.005655 0.019158 -0.009667 0.000000 0.000000 0.000000
# 3 -0.009667 -0.009667 0.030780 0.000000 0.000000 0.000000
# 4 0.000000 0.000000 0.000000 0.052992 0.000000 0.000000
# 5 0.000000 0.000000 0.000000 0.000000 0.052992 0.000000
# 6 0.000000 0.000000 0.000000 0.000000 0.000000 0.046444
#
#
# Mechanical properties :
#
#
# Convention : Reuss Voigt Hill
#
# Bulk Modulus (GPa) = 52.30164 55.24404 53.77284
# Shear Modulus (GPa) = 17.99375 18.67091 18.33233
#
# Velocity S-wave (km/s) = 3.26699 3.32790 3.29759
# Velocity P-wave (km/s) = 6.72714 6.89459 6.81138
#
# Compressibility (1/GPa) = 0.01911986
#
# Stress axis : x y z
#
# Youngs Moduli (GPa) = 52.19695 52.19695 32.48883
#
# Poissons Ratio (x) = 0.29517 0.31406
# Poissons Ratio (y) = 0.29517 0.31406
# Poissons Ratio (z) = 0.50457 0.50457
#
# Static dielectric constant tensor:
#      x y z
#    x 3.238230 0.000000 0.000000 
#    y 0.000000 3.238230 0.000000 
#    z 0.000000 0.000000 3.046080 
# 
# 
# High freq. dielectric constant tensor:
#      x y z
#    x 1.647660 0.000000 0.000000 
#    y 0.000000 1.647660 0.000000 
#    z 0.000000 0.000000 1.618290 
# 
# From -- ./inp_files/8626.got.cif
#   From: 2010.03.12/outbox.cif.g09.slc.cpg/sg136_5_cif.got.tgz:8626.got - 2010.04.06 18:39:43.
