data_PCOD8317026
_publ_section_title
;
Structure prediction by ZEFSAII (Michael W. Deem and Ramdas Pophale) SiO2 
 PCOD8317026
Probable space group: P 42/N B C
;
_chemical_formula_sum "Si O2"
_cell_formula_units_Z 80
_cell_length_a 14.744310
_cell_length_b 14.744310
_cell_length_c 18.482623
_cell_angle_alpha 90.000000
_cell_angle_beta 90.000000
_cell_angle_gamma 90.000000
_cell_volume 4018.023864
_symmetry_space_group_name_H-M "P 42/N B C"
_symmetry_group_IT_number 133
_space_group.IT_coordinate_system_code '2'
_symmetry_cell_setting 'tetragonal'
loop_
_space_group_symop_operation_xyz
x,y,z
1/2-y,x,1/2+z
1/2-x,1/2-y,z
y,1/2-x,1/2+z
x,1/2-y,-z
1/2-x,y,-z
y,x,1/2-z
1/2-y,1/2-x,1/2-z
-x,-y,-z
1/2+y,-x,1/2-z
1/2+x,1/2+y,-z
-y,1/2+x,1/2-z
-x,1/2+y,z
1/2+x,-y,z
-y,-x,1/2+z
1/2+y,1/2+x,1/2+z
loop_
_atom_site_type_symbol
_atom_site_label
_atom_site_fract_x
_atom_site_fract_y
_atom_site_fract_z
Si Si1 0.445915 0.205946 0.424371
Si Si2 0.174128 0.325872 0.669690
Si Si3 0.387273 0.805757 0.832779
Si Si4 0.194243 0.612727 0.167221
Si Si5 0.794054 0.554085 0.575629
O O1 0.474199 0.250000 0.500000
O O2 0.411944 0.286257 0.372228
O O3 0.533459 0.161013 0.386483
O O4 0.369385 0.130615 0.437458
O O5 0.250000 0.250000 0.675330
O O6 0.143442 0.356559 0.750000
O O7 0.213743 0.411945 0.627772
O O8 0.299377 0.866039 0.848531
O O9 0.366040 0.700622 0.848531
O O10 0.418877 0.818570 0.750000
O O11 0.466541 0.838988 0.886483
O O12 0.750000 0.525801 0.500000
#
# Coordination Sequence:
#
# PCOD8317026 Si02
#       5
#    16  16  16  16  16
#     4  11  21  36  58  86 122 155 190 242 297 352
#     4   9  18  32  54  79 108 154 196 230 283 343
#     4   9  20  41  64  84 113 156 203 249 298 353
#     4   9  20  41  64  84 113 156 203 249 298 353
#     4  11  21  36  58  86 122 155 190 242 297 352
#
# _framework density 19.910284999999998
#
# number of rings (size 3 to 8) (size 9 to 14) (size 15 to 20)
#    0.000    2.200    2.000    2.400    0.000    4.000 
#    3.600    4.000    0.000    0.000    0.000    0.000 
#    0.000    0.000    0.000    0.000    0.000    0.000 
#
# Total GULP energy -992147.913240 kJ/mol
# GULP energy per Si atom -12401.848916 kJ/mol
# Density = 1.986497 g / cm^3
# Si number density = 19.910285 Si / 1000 Ang^3
#
#
#
# Elastic Constant Matrix: (Units=GPa)
#
#
# Indices 1 2 3 4 5 6 
#
# 1 59.4858 -9.2585 22.6620 0.0000 0.0000 0.0000
# 2 -9.2585 59.4858 22.6620 0.0000 0.0000 0.0000
# 3 22.6620 22.6620 124.6636 0.0000 0.0000 0.0000
# 4 0.0000 0.0000 0.0000 23.3560 0.0000 0.0000
# 5 0.0000 0.0000 0.0000 0.0000 23.3560 0.0000
# 6 0.0000 0.0000 0.0000 0.0000 0.0000 12.9086
#
#
#
# Elastic Compliance Matrix: (Units=1/GPa)
#
#
# Indices 1 2 3 4 5 6 
#
# 1 0.019181 0.004635 -0.004329 0.000000 0.000000 0.000000
# 2 0.004635 0.019181 -0.004329 0.000000 0.000000 0.000000
# 3 -0.004329 -0.004329 0.009596 0.000000 0.000000 0.000000
# 4 0.000000 0.000000 0.000000 0.042816 0.000000 0.000000
# 5 0.000000 0.000000 0.000000 0.000000 0.042816 0.000000
# 6 0.000000 0.000000 0.000000 0.000000 0.000000 0.077468
#
#
# Mechanical properties :
#
#
# Convention : Reuss Voigt Hill
#
# Bulk Modulus (GPa) = 25.05612 35.08515 30.07064
# Shear Modulus (GPa) = 21.51380 25.76209 23.63795
#
# Velocity S-wave (km/s) = 3.29072 3.60100 3.44935
# Velocity P-wave (km/s) = 5.20099 5.91181 5.56775
#
# Compressibility (1/GPa) = 0.03991040
#
# Stress axis : x y z
#
# Youngs Moduli (GPa) = 52.13367 52.13360 104.21390
#
# Poissons Ratio (x) = -0.24163 0.45119
# Poissons Ratio (y) = -0.24163 0.45119
# Poissons Ratio (z) = 0.22571 0.22571
#
# Static dielectric constant tensor:
#      x y z
#    x 3.402700 0.000000 0.000000 
#    y 0.000000 3.402700 0.000000 
#    z 0.000000 0.000000 3.725810 
# 
# 
# High freq. dielectric constant tensor:
#      x y z
#    x 1.760500 0.000000 0.000000 
#    y 0.000000 1.760500 0.000000 
#    z 0.000000 0.000000 1.787530 
# 
# From -- ./inp_files/6302.got.cif
#   From: 2010.03.12/outbox.cif.g09.slc.cpg/sg133_4_cif.got.tgz:6302.got - 2010.04.06 18:08:06.
