data_PCOD8317925
_publ_section_title
;
Structure prediction by ZEFSAII (Michael W. Deem and Ramdas Pophale) SiO2 
 PCOD8317925
Probable space group: P 42/M N M
;
_chemical_formula_sum "Si O2"
_cell_formula_units_Z 120
_cell_length_a 21.608621
_cell_length_b 21.608621
_cell_length_c 14.158716
_cell_angle_alpha 90.000000
_cell_angle_beta 90.000000
_cell_angle_gamma 90.000000
_cell_volume 6611.164680
_symmetry_space_group_name_H-M "P 42/M N M"
_symmetry_group_IT_number 136
_symmetry_cell_setting 'tetragonal'
loop_
_space_group_symop_operation_xyz
x,y,z
1/2-y,1/2+x,1/2+z
-x,-y,z
1/2+y,1/2-x,1/2+z
1/2+x,1/2-y,1/2-z
1/2-x,1/2+y,1/2-z
y,x,-z
-y,-x,-z
-x,-y,-z
1/2+y,1/2-x,1/2-z
x,y,-z
1/2-y,1/2+x,1/2-z
1/2-x,1/2+y,1/2+z
1/2+x,1/2-y,1/2+z
-y,-x,z
y,x,z
loop_
_atom_site_type_symbol
_atom_site_label
_atom_site_fract_x
_atom_site_fract_y
_atom_site_fract_z
Si Si1 0.827086 0.570042 0.106110
Si Si2 0.766275 0.867437 0.754676
Si Si3 0.528020 0.312822 0.389309
Si Si4 0.318609 0.073095 0.391717
Si Si5 0.286905 0.386632 0.393653
Si Si6 0.431211 0.928125 0.248401
Si Si7 0.265351 0.831428 0.284236
Si Si8 0.451555 0.548446 0.388234
O O1 0.805842 0.499676 0.114186
O O2 0.889053 0.587020 0.162414
O O3 0.770868 0.610568 0.146398
O O4 0.841584 0.589403 0.000000
O O5 0.830687 0.830687 0.737188
O O6 0.773220 0.923100 0.829249
O O7 0.740348 0.893428 0.655503
O O8 0.715496 0.821774 0.798457
O O9 0.544973 0.306787 0.500000
O O10 0.458862 0.290106 0.368159
O O11 0.531586 0.383173 0.353851
O O12 0.325174 0.095314 0.500000
O O13 0.382905 0.087440 0.337371
O O14 0.262024 0.377556 0.500000
O O15 0.354766 0.354766 0.383396
O O16 0.237277 0.354243 0.324859
O O17 0.501444 0.919165 0.284296
O O18 0.201314 0.798687 0.311830
O O19 0.500000 0.500000 0.342614
O O20 0.455739 0.544261 0.500000
#
# Coordination Sequence:
#
# PCOD8317925 Si02
#       8
#    16  16  16  16  16  16  16   8
#     4  10  20  36  56  79 107 139 177 223 274 325
#     4  11  22  36  53  75 109 150 188 225 265 322
#     4  10  19  33  54  82 116 146 174 218 275 337
#     4  10  21  37  57  78 105 140 181 229 274 318
#     4   9  18  34  57  83 109 140 180 227 277 326
#     4   9  18  35  58  82 109 138 174 227 282 329
#     4  10  21  36  53  74 104 144 185 225 263 310
#     4   9  16  28  50  82 117 147 171 205 268 343
#
# _framework density 18.151112000000001
#
# number of rings (size 3 to 8) (size 9 to 14) (size 15 to 20)
#    0.000    2.200    2.000    1.200    0.000    3.733 
#    0.000    5.333    0.000    0.000    0.000    0.000 
#    0.000    0.533    0.000    0.000    0.000    0.000 
#
# Total GULP energy -1487879.630182 kJ/mol
# GULP energy per Si atom -12398.996918 kJ/mol
# Density = 1.810980 g / cm^3
# Si number density = 18.151112 Si / 1000 Ang^3
#
#
#
# Elastic Constant Matrix: (Units=GPa)
#
#
# Indices 1 2 3 4 5 6 
#
# 1 69.2419 39.2648 40.8593 0.0000 0.0000 0.0000
# 2 39.2648 69.2419 40.8590 0.0000 0.0000 0.0000
# 3 40.8593 40.8590 101.8461 0.0000 0.0000 0.0000
# 4 0.0000 0.0000 0.0000 29.1086 0.0000 0.0000
# 5 0.0000 0.0000 0.0000 0.0000 29.1086 0.0000
# 6 0.0000 0.0000 0.0000 0.0000 0.0000 31.4975
#
#
#
# Elastic Compliance Matrix: (Units=1/GPa)
#
#
# Indices 1 2 3 4 5 6 
#
# 1 0.023283 -0.010076 -0.005298 0.000000 0.000000 0.000000
# 2 -0.010076 0.023282 -0.005298 0.000000 0.000000 0.000000
# 3 -0.005298 -0.005298 0.014070 0.000000 0.000000 0.000000
# 4 0.000000 0.000000 0.000000 0.034354 0.000000 0.000000
# 5 0.000000 0.000000 0.000000 0.000000 0.034354 0.000000
# 6 0.000000 0.000000 0.000000 0.000000 0.000000 0.031749
#
#
# Mechanical properties :
#
#
# Convention : Reuss Voigt Hill
#
# Bulk Modulus (GPa) = 51.84141 53.58847 52.71494
# Shear Modulus (GPa) = 23.93874 25.89939 24.91907
#
# Velocity S-wave (km/s) = 3.63555 3.78150 3.70924
# Velocity P-wave (km/s) = 6.80044 6.97524 6.88839
#
# Compressibility (1/GPa) = 0.01928960
#
# Stress axis : x y z
#
# Youngs Moduli (GPa) = 42.95070 42.95088 71.07436
#
# Poissons Ratio (x) = 0.43279 0.37656
# Poissons Ratio (y) = 0.43279 0.37655
# Poissons Ratio (z) = 0.22756 0.22756
#
# Static dielectric constant tensor:
#      x y z
#    x 3.446060 0.000000 0.000000 
#    y 0.000000 3.446060 0.000000 
#    z 0.000000 0.000000 3.263640 
# 
# 
# High freq. dielectric constant tensor:
#      x y z
#    x 1.707960 0.000000 0.000000 
#    y 0.000000 1.707960 0.000000 
#    z 0.000000 0.000000 1.682700 
# 
# From -- ./inp_files/5322.got.cif
#   From: 2010.03.12/outbox.cif.g09.slc.cpg/sg136_3_cif.got.tgz:5322.got - 2010.04.06 18:39:43.
