data_PCOD8317697
_publ_section_title
;
Structure prediction by ZEFSAII (Michael W. Deem and Ramdas Pophale) SiO2 
 PCOD8317697
Probable space group: P 42/M N M
;
_chemical_formula_sum "Si O2"
_cell_formula_units_Z 104
_cell_length_a 26.119413
_cell_length_b 26.119413
_cell_length_c 9.130887
_cell_angle_alpha 90.000000
_cell_angle_beta 90.000000
_cell_angle_gamma 90.000000
_cell_volume 6229.307837
_symmetry_space_group_name_H-M "P 42/M N M"
_symmetry_group_IT_number 136
_symmetry_cell_setting 'tetragonal'
loop_
_space_group_symop_operation_xyz
x,y,z
1/2-y,1/2+x,1/2+z
-x,-y,z
1/2+y,1/2-x,1/2+z
1/2+x,1/2-y,1/2-z
1/2-x,1/2+y,1/2-z
y,x,-z
-y,-x,-z
-x,-y,-z
1/2+y,1/2-x,1/2-z
x,y,-z
1/2-y,1/2+x,1/2-z
1/2-x,1/2+y,1/2+z
1/2+x,1/2-y,1/2+z
-y,-x,z
y,x,z
loop_
_atom_site_type_symbol
_atom_site_label
_atom_site_fract_x
_atom_site_fract_y
_atom_site_fract_z
Si Si1 0.354600 0.645401 0.669998
Si Si2 0.457215 0.542786 0.830411
Si Si3 0.600102 0.107701 0.327208
Si Si4 0.284391 0.715610 0.163031
Si Si5 0.532365 0.352661 0.674046
Si Si6 0.140919 0.299212 0.667098
Si Si7 0.501140 0.143364 0.169771
Si Si8 0.245236 0.037057 0.668305
O O1 0.358531 0.641470 0.500000
O O2 0.313688 0.686313 0.712447
O O3 0.410284 0.659706 0.727100
O O4 0.500000 0.500000 0.817948
O O5 0.481138 0.593147 0.750209
O O6 0.444612 0.555389 0.000000
O O7 0.596564 0.112978 0.500000
O O8 0.638657 0.151256 0.268826
O O9 0.543800 0.113224 0.260856
O O10 0.623221 0.053646 0.277746
O O11 0.225196 0.698511 0.183615
O O12 0.301941 0.698060 0.000000
O O13 0.522563 0.357528 0.500000
O O14 0.508176 0.300248 0.739147
O O15 0.130569 0.316377 0.500000
O O16 0.096409 0.258463 0.712293
O O17 0.503736 0.204031 0.199440
O O18 0.510994 0.131330 0.000000
O O19 0.228405 0.034384 0.500000
#
# Coordination Sequence:
#
# PCOD8317697 Si02
#       8
#     8   8  16   8  16  16  16  16
#     4   9  17  25  36  62  99 126 147 185 225 271
#     4  10  21  35  50  69  95 133 175 205 239 295
#     4  10  20  34  52  73  97 130 167 209 254 299
#     4  10  17  27  44  66  94 131 159 180 223 280
#     4  10  19  29  44  70 100 126 156 198 244 285
#     4   9  18  30  46  70 101 131 160 194 236 287
#     4   9  20  36  51  71 100 130 165 206 253 303
#     4   9  16  29  48  68  93 127 160 195 234 289
#
# _framework density 16.695274999999999
#
# number of rings (size 3 to 8) (size 9 to 14) (size 15 to 20)
#    0.000    2.538    1.538    2.538    0.000    6.462 
#    0.000    1.538    0.000    0.000    2.000    0.000 
#    0.000    0.000    0.000    0.000    0.000    0.000 
#
# Total GULP energy -1288394.115601 kJ/mol
# GULP energy per Si atom -12388.404958 kJ/mol
# Density = 1.665728 g / cm^3
# Si number density = 16.695275 Si / 1000 Ang^3
#
#
#
# Elastic Constant Matrix: (Units=GPa)
#
#
# Indices 1 2 3 4 5 6 
#
# 1 92.4548 53.8083 44.4360 0.0000 0.0000 0.0000
# 2 53.8083 92.4550 44.4362 0.0000 0.0000 0.0000
# 3 44.4360 44.4362 71.3823 0.0000 0.0000 0.0000
# 4 0.0000 0.0000 0.0000 22.5067 0.0000 0.0000
# 5 0.0000 0.0000 0.0000 0.0000 22.5067 0.0000
# 6 0.0000 0.0000 0.0000 0.0000 0.0000 24.1384
#
#
#
# Elastic Compliance Matrix: (Units=1/GPa)
#
#
# Indices 1 2 3 4 5 6 
#
# 1 0.018436 -0.007440 -0.006845 0.000000 0.000000 0.000000
# 2 -0.007440 0.018436 -0.006845 0.000000 0.000000 0.000000
# 3 -0.006845 -0.006845 0.022532 0.000000 0.000000 0.000000
# 4 0.000000 0.000000 0.000000 0.044431 0.000000 0.000000
# 5 0.000000 0.000000 0.000000 0.000000 0.044431 0.000000
# 6 0.000000 0.000000 0.000000 0.000000 0.000000 0.041428
#
#
# Mechanical properties :
#
#
# Convention : Reuss Voigt Hill
#
# Bulk Modulus (GPa) = 58.33276 60.18367 59.25822
# Shear Modulus (GPa) = 21.03770 21.40444 21.22107
#
# Velocity S-wave (km/s) = 3.55364 3.58448 3.56909
# Velocity P-wave (km/s) = 7.20093 7.29780 7.24953
#
# Compressibility (1/GPa) = 0.01714302
#
# Stress axis : x y z
#
# Youngs Moduli (GPa) = 54.24201 54.24197 44.38206
#
# Poissons Ratio (x) = 0.40354 0.30381
# Poissons Ratio (y) = 0.40354 0.30381
# Poissons Ratio (z) = 0.37130 0.37131
#
# Static dielectric constant tensor:
#      x y z
#    x 3.069210 0.000000 0.000000 
#    y 0.000000 3.069210 0.000000 
#    z 0.000000 0.000000 3.118490 
# 
# 
# High freq. dielectric constant tensor:
#      x y z
#    x 1.622660 0.000000 0.000000 
#    y 0.000000 1.622660 0.000000 
#    z 0.000000 0.000000 1.649640 
# 
# From -- ./inp_files/2272.got.cif
#   From: 2010.03.12/outbox.cif.g09.slc.cpg/sg136_2_cif.got.tgz:2272.got - 2010.04.06 18:39:43.
