data_PCOD8317187
_publ_section_title
;
Structure prediction by ZEFSAII (Michael W. Deem and Ramdas Pophale) SiO2 
 PCOD8317187
Probable space group: P 42/N N M
;
_chemical_formula_sum "Si O2"
_cell_formula_units_Z 60
_cell_length_a 18.307364
_cell_length_b 18.307364
_cell_length_c 10.915146
_cell_angle_alpha 90.000000
_cell_angle_beta 90.000000
_cell_angle_gamma 90.000000
_cell_volume 3658.315712
_symmetry_space_group_name_H-M "P 42/N N M"
_symmetry_group_IT_number 134
_space_group.IT_coordinate_system_code '2'
_symmetry_cell_setting 'tetragonal'
loop_
_space_group_symop_operation_xyz
x,y,z
1/2-y,x,1/2+z
1/2-x,1/2-y,z
y,1/2-x,1/2+z
x,1/2-y,1/2-z
1/2-x,y,1/2-z
y,x,-z
1/2-y,1/2-x,-z
-x,-y,-z
1/2+y,-x,1/2-z
1/2+x,1/2+y,-z
-y,1/2+x,1/2-z
-x,1/2+y,1/2+z
1/2+x,-y,1/2+z
-y,-x,z
1/2+y,1/2+x,z
loop_
_atom_site_type_symbol
_atom_site_label
_atom_site_fract_x
_atom_site_fract_y
_atom_site_fract_z
Si Si1 0.023026 0.862034 0.434121
Si Si2 0.855660 0.865672 0.858356
Si Si3 0.981917 0.750000 0.250000
Si Si4 0.526381 0.590940 0.681494
Si Si5 0.750000 0.750000 0.750000
O O1 0.102789 0.897212 0.425886
O O2 0.028791 0.786114 0.359727
O O3 0.000796 0.851770 0.577172
O O4 0.963172 0.914838 0.376120
O O5 0.812820 0.936263 0.814529
O O6 0.933853 0.862279 0.788057
O O7 0.803632 0.796333 0.836059
O O8 0.873105 0.873105 0.000000
O O9 0.457322 0.542679 0.730333
#
# Coordination Sequence:
#
# PCOD8317187 Si02
#       5
#    16  16   8  16   4
#     4   8  14  27  46  64  84 111 145 185 227 269
#     4  10  20  30  42  63  89 123 156 191 227 282
#     4   9  18  29  44  65  84 113 152 184 226 277
#     4   8  15  28  46  64  83 113 150 192 233 266
#     4  10  22  32  40  58  96 136 160 178 236 302
#
# _framework density 16.400988999999999
#
# number of rings (size 3 to 8) (size 9 to 14) (size 15 to 20)
#    0.000    3.200    0.000    2.000    3.733    0.533 
#    0.000    0.000    0.000    0.400    0.000    0.000 
#    0.000    0.000    0.000    0.800    0.000    0.533 
#
# Total GULP energy -743353.320254 kJ/mol
# GULP energy per Si atom -12389.222004 kJ/mol
# Density = 1.636366 g / cm^3
# Si number density = 16.400989 Si / 1000 Ang^3
#
#
#
# Elastic Constant Matrix: (Units=GPa)
#
#
# Indices 1 2 3 4 5 6 
#
# 1 66.2379 37.1592 54.3416 0.0000 0.0000 0.0000
# 2 37.1592 66.2379 54.3416 0.0000 0.0000 0.0000
# 3 54.3416 54.3416 138.4988 0.0000 0.0000 0.0000
# 4 0.0000 0.0000 0.0000 14.0615 0.0000 0.0000
# 5 0.0000 0.0000 0.0000 0.0000 14.0615 0.0000
# 6 0.0000 0.0000 0.0000 0.0000 0.0000 7.1693
#
#
#
# Elastic Compliance Matrix: (Units=1/GPa)
#
#
# Indices 1 2 3 4 5 6 
#
# 1 0.025425 -0.008965 -0.006458 0.000000 0.000000 0.000000
# 2 -0.008965 0.025425 -0.006458 0.000000 0.000000 0.000000
# 3 -0.006458 -0.006458 0.012288 0.000000 0.000000 0.000000
# 4 0.000000 0.000000 0.000000 0.071116 0.000000 0.000000
# 5 0.000000 0.000000 0.000000 0.000000 0.071116 0.000000
# 6 0.000000 0.000000 0.000000 0.000000 0.000000 0.139484
#
#
# Mechanical properties :
#
#
# Convention : Reuss Voigt Hill
#
# Bulk Modulus (GPa) = 51.61284 62.51772 57.06528
# Shear Modulus (GPa) = 12.65584 15.40061 14.02822
#
# Velocity S-wave (km/s) = 2.78087 3.06764 2.92777
# Velocity P-wave (km/s) = 6.46906 7.12378 6.80430
#
# Compressibility (1/GPa) = 0.01937503
#
# Stress axis : x y z
#
# Youngs Moduli (GPa) = 39.33192 39.33192 81.37900
#
# Poissons Ratio (x) = 0.35260 0.52556
# Poissons Ratio (y) = 0.35260 0.52556
# Poissons Ratio (z) = 0.25401 0.25401
#
# Static dielectric constant tensor:
#      x y z
#    x 3.025840 0.000000 0.000000 
#    y 0.000000 3.025840 0.000000 
#    z 0.000000 0.000000 3.260480 
# 
# 
# High freq. dielectric constant tensor:
#      x y z
#    x 1.602360 0.000000 0.000000 
#    y 0.000000 1.602360 0.000000 
#    z 0.000000 0.000000 1.632880 
# 
# From -- ./inp_files/4634.got.cif
#   From: 2010.03.12/outbox.cif.g09.slc.cpg/sg134_3_cif.got.tgz:4634.got - 2010.04.06 18:17:22.
