data_PCOD8317194
_publ_section_title
;
Structure prediction by ZEFSAII (Michael W. Deem and Ramdas Pophale) SiO2 
 PCOD8317194
Probable space group: P 42/N N M
;
_chemical_formula_sum "Si O2"
_cell_formula_units_Z 64
_cell_length_a 19.383705
_cell_length_b 19.383705
_cell_length_c 9.077165
_cell_angle_alpha 90.000000
_cell_angle_beta 90.000000
_cell_angle_gamma 90.000000
_cell_volume 3410.545228
_symmetry_space_group_name_H-M "P 42/N N M"
_symmetry_group_IT_number 134
_space_group.IT_coordinate_system_code '2'
_symmetry_cell_setting 'tetragonal'
loop_
_space_group_symop_operation_xyz
x,y,z
1/2-y,x,1/2+z
1/2-x,1/2-y,z
y,1/2-x,1/2+z
x,1/2-y,1/2-z
1/2-x,y,1/2-z
y,x,-z
1/2-y,1/2-x,-z
-x,-y,-z
1/2+y,-x,1/2-z
1/2+x,1/2+y,-z
-y,1/2+x,1/2-z
-x,1/2+y,1/2+z
1/2+x,-y,1/2+z
-y,-x,z
1/2+y,1/2+x,z
loop_
_atom_site_type_symbol
_atom_site_label
_atom_site_fract_x
_atom_site_fract_y
_atom_site_fract_z
Si Si1 0.250642 0.346044 0.417992
Si Si2 0.392205 0.005717 0.937322
Si Si3 0.939054 0.324003 0.320303
Si Si4 0.246584 0.992361 0.415376
O O1 0.250000 0.320545 0.250000
O O2 0.319883 0.319883 0.500000
O O3 0.184697 0.315304 0.500000
O O4 0.244012 0.426723 0.429056
O O5 0.330249 0.974582 0.033021
O O6 0.454979 0.954979 0.956465
O O7 0.419345 0.080656 0.000000
O O8 0.363180 0.002327 0.767564
O O9 0.921795 0.250000 0.250000
O O10 0.870805 0.370805 0.316029
O O11 0.959675 0.191247 0.010807
O O12 0.250000 0.964236 0.250000
#
# Coordination Sequence:
#
# PCOD8317194 Si02
#       4
#    16  16  16  16
#     4  10  20  32  48  71 100 135 174 212 249 293
#     4   9  18  34  55  76  99 131 170 209 252 305
#     4   9  19  35  55  77 101 133 171 211 257 310
#     4  10  21  33  50  76 104 135 168 210 257 304
#
# _framework density 18.765329000000001
#
# number of rings (size 3 to 8) (size 9 to 14) (size 15 to 20)
#    0.000    2.500    0.000    2.250    0.000   11.250 
#    0.000    0.000    0.000    5.250    0.000    3.500 
#    0.000    0.000    0.000    0.000    0.000    0.000 
#
# Total GULP energy -792841.952280 kJ/mol
# GULP energy per Si atom -12388.155504 kJ/mol
# Density = 1.872262 g / cm^3
# Si number density = 18.765329 Si / 1000 Ang^3
#
#
#
# Elastic Constant Matrix: (Units=GPa)
#
#
# Indices 1 2 3 4 5 6 
#
# 1 72.9425 23.6460 48.7241 0.0000 0.0000 0.0000
# 2 23.6460 72.9401 48.7236 0.0000 0.0000 0.0000
# 3 48.7241 48.7236 165.1130 0.0000 0.0000 0.0000
# 4 0.0000 0.0000 0.0000 23.8273 0.0000 0.0000
# 5 0.0000 0.0000 0.0000 0.0000 23.8282 0.0000
# 6 0.0000 0.0000 0.0000 0.0000 0.0000 20.6000
#
#
#
# Elastic Compliance Matrix: (Units=1/GPa)
#
#
# Indices 1 2 3 4 5 6 
#
# 1 0.017514 -0.002772 -0.004350 0.000000 0.000000 0.000000
# 2 -0.002772 0.017515 -0.004350 0.000000 0.000000 0.000000
# 3 -0.004350 -0.004350 0.008624 0.000000 0.000000 0.000000
# 4 0.000000 0.000000 0.000000 0.041969 0.000000 0.000000
# 5 0.000000 0.000000 0.000000 0.000000 0.041967 0.000000
# 6 0.000000 0.000000 0.000000 0.000000 0.000000 0.048544
#
#
# Mechanical properties :
#
#
# Convention : Reuss Voigt Hill
#
# Bulk Modulus (GPa) = 48.29204 61.46477 54.87840
# Shear Modulus (GPa) = 24.27428 26.31123 25.29275
#
# Velocity S-wave (km/s) = 3.60053 3.74855 3.67528
# Velocity P-wave (km/s) = 6.56320 7.18060 6.87883
#
# Compressibility (1/GPa) = 0.02070735
#
# Stress axis : x y z
#
# Youngs Moduli (GPa) = 57.09752 57.09553 115.95512
#
# Poissons Ratio (x) = 0.15825 0.50445
# Poissons Ratio (y) = 0.15826 0.50446
# Poissons Ratio (z) = 0.24840 0.24839
#
# Static dielectric constant tensor:
#      x y z
#    x 3.403770 0.000000 0.000000 
#    y 0.000000 3.403780 0.000000 
#    z 0.000000 0.000000 3.422310 
# 
# 
# High freq. dielectric constant tensor:
#      x y z
#    x 1.723180 0.000000 0.000000 
#    y 0.000000 1.723180 0.000000 
#    z 0.000000 0.000000 1.735100 
# 
# From -- ./inp_files/2725.got.cif
#   From: 2010.03.12/outbox.cif.g09.slc.cpg/sg134_2_cif.got.tgz:2725.got - 2010.04.06 18:17:22.
