data_PCOD8317696
_publ_section_title
;
Structure prediction by ZEFSAII (Michael W. Deem and Ramdas Pophale) SiO2 
 PCOD8317696
Probable space group: P 42/M N M
;
_chemical_formula_sum "Si O2"
_cell_formula_units_Z 56
_cell_length_a 15.936240
_cell_length_b 15.936240
_cell_length_c 14.160186
_cell_angle_alpha 90.000000
_cell_angle_beta 90.000000
_cell_angle_gamma 90.000000
_cell_volume 3596.173871
_symmetry_space_group_name_H-M "P 42/M N M"
_symmetry_group_IT_number 136
_symmetry_cell_setting 'tetragonal'
loop_
_space_group_symop_operation_xyz
x,y,z
1/2-y,1/2+x,1/2+z
-x,-y,z
1/2+y,1/2-x,1/2+z
1/2+x,1/2-y,1/2-z
1/2-x,1/2+y,1/2-z
y,x,-z
-y,-x,-z
-x,-y,-z
1/2+y,1/2-x,1/2-z
x,y,-z
1/2-y,1/2+x,1/2-z
1/2-x,1/2+y,1/2+z
1/2+x,1/2-y,1/2+z
-y,-x,z
y,x,z
loop_
_atom_site_type_symbol
_atom_site_label
_atom_site_fract_x
_atom_site_fract_y
_atom_site_fract_z
Si Si1 0.570333 0.429668 0.394160
Si Si2 0.682738 0.541848 0.726370
Si Si3 0.285366 0.576126 0.109006
Si Si4 0.151044 0.708631 0.895632
O O1 0.500000 0.500000 0.400195
O O2 0.597263 0.402738 0.500000
O O3 0.534123 0.349253 0.339462
O O4 0.611428 0.611428 0.740421
O O5 0.707953 0.507264 0.828687
O O6 0.766877 0.579216 0.678883
O O7 0.366035 0.633966 0.127709
O O8 0.200241 0.625342 0.137340
O O9 0.281966 0.548651 0.000000
O O10 0.215615 0.784386 0.903289
O O11 0.111400 0.694841 0.000000
#
# Coordination Sequence:
#
# PCOD8317696 Si02
#       4
#     8  16  16  16
#     4   9  16  24  37  63  95 113 130 171 223 266
#     4  10  17  26  43  68  91 114 144 180 226 262
#     4   9  17  29  44  64  90 120 151 178 212 265
#     4   8  15  28  45  63  85 117 152 181 210 259
#
# _framework density 15.572106
#
# number of rings (size 3 to 8) (size 9 to 14) (size 15 to 20)
#    0.000    3.000    1.429    2.571    0.000    4.000 
#    0.000    1.429    0.000    4.286    0.000    4.000 
#    0.000    0.000    0.000    0.000    0.000    0.000 
#
# Total GULP energy -694166.517128 kJ/mol
# GULP energy per Si atom -12395.830663 kJ/mol
# Density = 1.553666 g / cm^3
# Si number density = 15.572106 Si / 1000 Ang^3
#
#
#
# Elastic Constant Matrix: (Units=GPa)
#
#
# Indices 1 2 3 4 5 6 
#
# 1 52.6912 33.2758 49.5400 0.0000 0.0000 0.0000
# 2 33.2758 52.6911 49.5399 0.0000 0.0000 0.0000
# 3 49.5400 49.5399 113.8440 0.0000 0.0000 0.0000
# 4 0.0000 0.0000 0.0000 19.7138 0.0000 0.0000
# 5 0.0000 0.0000 0.0000 0.0000 19.7137 0.0000
# 6 0.0000 0.0000 0.0000 0.0000 0.0000 16.4884
#
#
#
# Elastic Compliance Matrix: (Units=1/GPa)
#
#
# Indices 1 2 3 4 5 6 
#
# 1 0.037421 -0.014085 -0.010155 0.000000 0.000000 0.000000
# 2 -0.014085 0.037421 -0.010155 0.000000 0.000000 0.000000
# 3 -0.010155 -0.010155 0.017622 0.000000 0.000000 0.000000
# 4 0.000000 0.000000 0.000000 0.050726 0.000000 0.000000
# 5 0.000000 0.000000 0.000000 0.000000 0.050726 0.000000
# 6 0.000000 0.000000 0.000000 0.000000 0.000000 0.060649
#
#
# Mechanical properties :
#
#
# Convention : Reuss Voigt Hill
#
# Bulk Modulus (GPa) = 42.23905 53.77083 48.00494
# Shear Modulus (GPa) = 15.09454 16.97453 16.03453
#
# Velocity S-wave (km/s) = 3.11679 3.30519 3.21237
# Velocity P-wave (km/s) = 6.33531 7.01219 6.68233
#
# Compressibility (1/GPa) = 0.02367477
#
# Stress axis : x y z
#
# Youngs Moduli (GPa) = 26.72301 26.72294 56.74748
#
# Poissons Ratio (x) = 0.37638 0.57627
# Poissons Ratio (y) = 0.37638 0.57627
# Poissons Ratio (z) = 0.27137 0.27137
#
# Static dielectric constant tensor:
#      x y z
#    x 2.812120 0.000000 0.000000 
#    y 0.000000 2.812120 0.000000 
#    z 0.000000 0.000000 3.094290 
# 
# 
# High freq. dielectric constant tensor:
#      x y z
#    x 1.567110 0.000000 0.000000 
#    y 0.000000 1.567110 0.000000 
#    z 0.000000 0.000000 1.603630 
# 
# From -- ./inp_files/3184.got.cif
#   From: 2010.03.12/outbox.cif.g09.slc.cpg/sg136_2_cif.got.tgz:3184.got - 2010.04.06 18:39:43.
