data_PCOD8317907
_publ_section_title
;
Structure prediction by ZEFSAII (Michael W. Deem and Ramdas Pophale) SiO2 
 PCOD8317907
Probable space group: P 42/M N M
;
_chemical_formula_sum "Si O2"
_cell_formula_units_Z 88
_cell_length_a 14.788969
_cell_length_b 14.788969
_cell_length_c 18.602414
_cell_angle_alpha 90.000000
_cell_angle_beta 90.000000
_cell_angle_gamma 90.000000
_cell_volume 4068.601011
_symmetry_space_group_name_H-M "P 42/M N M"
_symmetry_group_IT_number 136
_symmetry_cell_setting 'tetragonal'
loop_
_space_group_symop_operation_xyz
x,y,z
1/2-y,1/2+x,1/2+z
-x,-y,z
1/2+y,1/2-x,1/2+z
1/2+x,1/2-y,1/2-z
1/2-x,1/2+y,1/2-z
y,x,-z
-y,-x,-z
-x,-y,-z
1/2+y,1/2-x,1/2-z
x,y,-z
1/2-y,1/2+x,1/2-z
1/2-x,1/2+y,1/2+z
1/2+x,1/2-y,1/2+z
-y,-x,z
y,x,z
loop_
_atom_site_type_symbol
_atom_site_label
_atom_site_fract_x
_atom_site_fract_y
_atom_site_fract_z
Si Si1 0.505634 0.758666 0.084207
Si Si2 0.300177 0.300177 0.914677
Si Si3 0.206754 0.793247 0.190272
Si Si4 0.999729 0.147644 0.000000
Si Si5 0.506542 0.745710 0.649408
Si Si6 0.309776 0.690225 0.315451
Si Si7 0.675788 0.324212 0.082863
Si Si8 0.581540 0.062458 0.921106
O O1 0.601693 0.728545 0.117917
O O2 0.429776 0.684669 0.101716
O O3 0.461115 0.849189 0.117344
O O4 0.521150 0.774690 0.000000
O O5 0.225430 0.225430 0.893021
O O6 0.304839 0.304839 0.000000
O O7 0.218959 0.901728 0.190668
O O8 0.251098 0.748903 0.260136
O O9 0.255561 0.744440 0.122868
O O10 0.999048 0.205726 0.070821
O O11 0.910546 0.089455 0.000000
O O12 0.089462 0.089462 0.000000
O O13 0.417126 0.712751 0.693474
O O14 0.512118 0.853116 0.635478
O O15 0.696451 0.303550 0.000000
O O16 0.500000 0.000000 0.939850
O O17 0.627326 0.085867 0.000000
#
# Coordination Sequence:
#
# PCOD8317907 Si02
#       8
#    16   8   8   8  16   8   8  16
#     4   9  18  33  58  94 130 170 223 285 350 405
#     4  10  22  41  65  93 138 186 234 296 352 424
#     4  12  28  47  69  99 143 187 231 298 367 448
#     4  11  22  38  73 120 148 169 224 315 395 443
#     4  12  24  44  73 103 145 184 237 299 376 450
#     4  12  30  47  65 101 143 192 234 286 374 458
#     4  10  20  37  67  99 128 169 233 304 355 406
#     4  10  19  32  58  99 136 172 222 284 348 415
#
# _framework density 21.629057
#
# number of rings (size 3 to 8) (size 9 to 14) (size 15 to 20)
#    0.000    1.364    4.545    1.091    2.545    3.636 
#    3.273    1.818    0.000    2.182    0.000    0.000 
#    0.000    0.000    0.000    0.000    0.000    0.000 
#
# Total GULP energy -1090305.624469 kJ/mol
# GULP energy per Si atom -12389.836642 kJ/mol
# Density = 2.157983 g / cm^3
# Si number density = 21.629057 Si / 1000 Ang^3
#
#
#
# Elastic Constant Matrix: (Units=GPa)
#
#
# Indices 1 2 3 4 5 6 
#
# 1 153.6406 57.4112 28.0444 0.0000 0.0000 0.0000
# 2 57.4112 153.6405 28.0444 0.0000 0.0000 0.0000
# 3 28.0444 28.0444 52.4477 0.0000 0.0000 0.0000
# 4 0.0000 0.0000 0.0000 35.2602 0.0000 0.0000
# 5 0.0000 0.0000 0.0000 0.0000 35.2583 0.0000
# 6 0.0000 0.0000 0.0000 0.0000 0.0000 45.1437
#
#
#
# Elastic Compliance Matrix: (Units=1/GPa)
#
#
# Indices 1 2 3 4 5 6 
#
# 1 0.007957 -0.002434 -0.002953 0.000000 0.000000 0.000000
# 2 -0.002434 0.007957 -0.002953 0.000000 0.000000 0.000000
# 3 -0.002953 -0.002953 0.022225 0.000000 0.000000 0.000000
# 4 0.000000 0.000000 0.000000 0.028361 0.000000 0.000000
# 5 0.000000 0.000000 0.000000 0.000000 0.028362 0.000000
# 6 0.000000 0.000000 0.000000 0.000000 0.000000 0.022151
#
#
# Mechanical properties :
#
#
# Convention : Reuss Voigt Hill
#
# Bulk Modulus (GPa) = 46.60267 65.19209 55.89738
# Shear Modulus (GPa) = 35.49921 39.54771 37.52346
#
# Velocity S-wave (km/s) = 4.05566 4.28068 4.16969
# Velocity P-wave (km/s) = 6.59729 7.39180 7.00582
#
# Compressibility (1/GPa) = 0.02145800
#
# Stress axis : x y z
#
# Youngs Moduli (GPa) = 125.66874 125.66871 44.99469
#
# Poissons Ratio (x) = 0.30593 0.13288
# Poissons Ratio (y) = 0.30593 0.13288
# Poissons Ratio (z) = 0.37113 0.37113
#
# Static dielectric constant tensor:
#      x y z
#    x 3.832350 0.000000 0.000000 
#    y 0.000000 3.832350 0.000000 
#    z 0.000000 0.000000 3.479620 
# 
# 
# High freq. dielectric constant tensor:
#      x y z
#    x 1.861020 0.000000 0.000000 
#    y 0.000000 1.861020 0.000000 
#    z 0.000000 0.000000 1.808570 
# 
# From -- ./inp_files/7458.got.cif
#   From: 2010.03.12/outbox.cif.g09.slc.cpg/sg136_4_cif.got.tgz:7458.got - 2010.04.06 18:39:43.
