data_PCOD8317158
_publ_section_title
;
Structure prediction by ZEFSAII (Michael W. Deem and Ramdas Pophale) SiO2 
 PCOD8317158
Probable space group: P 42/N N M
;
_chemical_formula_sum "Si O2"
_cell_formula_units_Z 96
_cell_length_a 16.132363
_cell_length_b 16.132363
_cell_length_c 19.472209
_cell_angle_alpha 90.000000
_cell_angle_beta 90.000000
_cell_angle_gamma 90.000000
_cell_volume 5067.703456
_symmetry_space_group_name_H-M "P 42/N N M"
_symmetry_group_IT_number 134
_space_group.IT_coordinate_system_code '2'
_symmetry_cell_setting 'tetragonal'
loop_
_space_group_symop_operation_xyz
x,y,z
1/2-y,x,1/2+z
1/2-x,1/2-y,z
y,1/2-x,1/2+z
x,1/2-y,1/2-z
1/2-x,y,1/2-z
y,x,-z
1/2-y,1/2-x,-z
-x,-y,-z
1/2+y,-x,1/2-z
1/2+x,1/2+y,-z
-y,1/2+x,1/2-z
-x,1/2+y,1/2+z
1/2+x,-y,1/2+z
-y,-x,z
1/2+y,1/2+x,z
loop_
_atom_site_type_symbol
_atom_site_label
_atom_site_fract_x
_atom_site_fract_y
_atom_site_fract_z
Si Si1 0.746712 0.116379 0.529424
Si Si2 0.179563 0.183309 0.924431
Si Si3 0.520437 0.744144 0.357326
Si Si4 0.886992 0.977553 0.755499
Si Si5 0.946235 0.694803 0.689369
Si Si6 0.385477 0.753157 0.873777
O O1 0.810906 0.189095 0.542078
O O2 0.653983 0.153983 0.540453
O O3 0.755854 0.081399 0.452087
O O4 0.768972 0.045143 0.582668
O O5 0.250000 0.250000 0.931803
O O6 0.106392 0.230719 0.888716
O O7 0.208685 0.104810 0.880178
O O8 0.151915 0.151915 0.000000
O O9 0.489527 0.818349 0.308729
O O10 0.539709 0.659367 0.316382
O O11 0.939271 0.900048 0.785266
O O12 0.949537 0.050464 0.740748
O O13 0.906807 0.750000 0.750000
O O14 0.039557 0.727941 0.676407
O O15 0.316376 0.683625 0.866790
O O16 0.342211 0.842211 0.854176
#
# Coordination Sequence:
#
# PCOD8317158 Si02
#       6
#    16  16  16  16  16  16
#     4   9  17  31  53  79 107 139 174 214 261 314
#     4  10  21  37  56  77 101 133 176 223 268 314
#     4  10  19  33  53  76 106 141 176 216 262 311
#     4  10  21  34  50  76 108 141 177 216 259 312
#     4  11  22  36  55  77 104 138 176 218 266 318
#     4   9  19  35  54  78 106 136 173 216 263 317
#
# _framework density 18.943493
#
# number of rings (size 3 to 8) (size 9 to 14) (size 15 to 20)
#    0.000    2.167    0.000    4.500    0.000    3.000 
#    0.000    0.833    0.000   12.000    0.000   10.500 
#    0.000    0.000    0.000    0.000    0.000    0.000 
#
# Total GULP energy -1190004.682960 kJ/mol
# GULP energy per Si atom -12395.882114 kJ/mol
# Density = 1.890038 g / cm^3
# Si number density = 18.943493 Si / 1000 Ang^3
#
#
#
# Elastic Constant Matrix: (Units=GPa)
#
#
# Indices 1 2 3 4 5 6 
#
# 1 55.1444 64.7426 44.0948 0.0000 0.0000 0.0000
# 2 64.7426 55.1444 44.0948 0.0000 0.0000 0.0000
# 3 44.0948 44.0948 106.2793 0.0000 0.0000 0.0000
# 4 0.0000 0.0000 0.0000 37.8270 0.0000 0.0000
# 5 0.0000 0.0000 0.0000 0.0000 37.8270 0.0000
# 6 0.0000 0.0000 0.0000 0.0000 0.0000 27.2519
#
#
#
# Elastic Compliance Matrix: (Units=1/GPa)
#
#
# Indices 1 2 3 4 5 6 
#
# 1 -0.046090 0.058096 -0.004981 0.000000 0.000000 0.000000
# 2 0.058096 -0.046090 -0.004981 0.000000 0.000000 0.000000
# 3 -0.004981 -0.004981 0.013542 0.000000 0.000000 0.000000
# 4 0.000000 0.000000 0.000000 0.026436 0.000000 0.000000
# 5 0.000000 0.000000 0.000000 0.000000 0.026436 0.000000
# 6 0.000000 0.000000 0.000000 0.000000 0.000000 0.036695
#
#
# Mechanical properties :
#
#
# Convention : Reuss Voigt Hill
#
# Bulk Modulus (GPa) = 56.72459 58.04805 57.38632
# Shear Modulus (GPa) = -62.92234 24.82358 -19.04938
#
# Velocity S-wave (km/s) = -5.76957 3.62387 -3.17454
# Velocity P-wave (km/s) = 3.79141 6.94401 4.11366
#
# Compressibility (1/GPa) = 0.01762904
#
# Stress axis : x y z
#
# Youngs Moduli (GPa) = -21.69647 -21.69647 73.84285
#
# Poissons Ratio (x) = 1.26047 0.36780
# Poissons Ratio (y) = 1.26047 0.36780
# Poissons Ratio (z) = -0.10807 -0.10807
#
# Static dielectric constant tensor:
#      x y z
#    x 3.347960 0.000000 0.000000 
#    y 0.000000 3.347960 0.000000 
#    z 0.000000 0.000000 3.381710 
# 
# 
# High freq. dielectric constant tensor:
#      x y z
#    x 1.731190 0.000000 0.000000 
#    y 0.000000 1.731190 0.000000 
#    z 0.000000 0.000000 1.750410 
# 
# From -- ./inp_files/9146.got.cif
#   From: 2010.03.12/outbox.cif.g09.slc.cpg/sg134_5_cif.got.tgz:9146.got - 2010.04.06 18:17:22.
