data_PCOD8317360
_publ_section_title
;
Structure prediction by ZEFSAII (Michael W. Deem and Ramdas Pophale) SiO2 
 PCOD8317360
Probable space group: P 42/M B C
;
_chemical_formula_sum "Si O2"
_cell_formula_units_Z 48
_cell_length_a 16.679549
_cell_length_b 16.679549
_cell_length_c 8.442292
_cell_angle_alpha 90.000000
_cell_angle_beta 90.000000
_cell_angle_gamma 90.000000
_cell_volume 2348.707726
_symmetry_space_group_name_H-M "P 42/M B C"
_symmetry_group_IT_number 135
_symmetry_cell_setting 'tetragonal'
loop_
_space_group_symop_operation_xyz
x,y,z
-y,x,1/2+z
-x,-y,z
y,-x,1/2+z
1/2+x,1/2-y,-z
1/2-x,1/2+y,-z
1/2+y,1/2+x,1/2-z
1/2-y,1/2-x,1/2-z
-x,-y,-z
y,-x,1/2-z
x,y,-z
-y,x,1/2-z
1/2-x,1/2+y,z
1/2+x,1/2-y,z
1/2-y,1/2-x,1/2+z
1/2+y,1/2+x,1/2+z
loop_
_atom_site_type_symbol
_atom_site_label
_atom_site_fract_x
_atom_site_fract_y
_atom_site_fract_z
Si Si1 0.493737 0.879027 0.187615
Si Si2 0.426433 0.403666 0.184795
Si Si3 0.111341 0.738156 0.312910
O O1 0.555568 0.944433 0.250000
O O2 0.523640 0.794500 0.258182
O O3 0.404995 0.904995 0.250000
O O4 0.494402 0.874897 0.000000
O O5 0.391869 0.479529 0.279356
O O6 0.376956 0.326150 0.240524
O O7 0.413175 0.418695 0.000000
O O8 0.182545 0.682545 0.250000
O O9 0.115076 0.741854 0.500000
#
# Coordination Sequence:
#
# PCOD8317360 Si02
#       3
#    16  16  16
#     4  10  17  28  46  72 105 145 186 227 272 330
#     4  11  22  40  63  88 114 149 191 235 280 333
#     4  11  21  36  57  85 117 152 189 235 287 340
#
# _framework density 20.436769000000002
#
# number of rings (size 3 to 8) (size 9 to 14) (size 15 to 20)
#    0.000    1.333    0.000   13.000    0.000    0.000 
#    0.000    1.667    0.000    0.000    0.000    0.000 
#    0.000    0.000    0.000    0.000    0.000    0.000 
#
# Total GULP energy -595157.783577 kJ/mol
# GULP energy per Si atom -12399.120491 kJ/mol
# Density = 2.039025 g / cm^3
# Si number density = 20.436769 Si / 1000 Ang^3
#
#
#
# Elastic Constant Matrix: (Units=GPa)
#
#
# Indices 1 2 3 4 5 6 
#
# 1 70.4201 17.8213 6.8030 0.0000 0.0000 0.0000
# 2 17.8213 70.4201 6.8023 0.0000 0.0000 0.0000
# 3 6.8030 6.8023 135.1115 0.0000 0.0000 0.0000
# 4 0.0000 0.0000 0.0000 34.1881 0.0000 0.0000
# 5 0.0000 0.0000 0.0000 0.0000 34.1879 0.0000
# 6 0.0000 0.0000 0.0000 0.0000 0.0000 17.8604
#
#
#
# Elastic Compliance Matrix: (Units=1/GPa)
#
#
# Indices 1 2 3 4 5 6 
#
# 1 0.015217 -0.003795 -0.000575 0.000000 0.000000 0.000000
# 2 -0.003795 0.015217 -0.000575 0.000000 0.000000 0.000000
# 3 -0.000575 -0.000575 0.007459 0.000000 0.000000 0.000000
# 4 0.000000 0.000000 0.000000 0.029250 0.000000 0.000000
# 5 0.000000 0.000000 0.000000 0.000000 0.029250 0.000000
# 6 0.000000 0.000000 0.000000 0.000000 0.000000 0.055990
#
#
# Mechanical properties :
#
#
# Convention : Reuss Voigt Hill
#
# Bulk Modulus (GPa) = 35.71242 37.64499 36.67871
# Shear Modulus (GPa) = 29.13641 33.54896 31.34269
#
# Velocity S-wave (km/s) = 3.77992 4.05606 3.92042
# Velocity P-wave (km/s) = 6.04673 6.35576 6.20317
#
# Compressibility (1/GPa) = 0.02800146
#
# Stress axis : x y z
#
# Youngs Moduli (GPa) = 65.71800 65.71806 134.06267
#
# Poissons Ratio (x) = 0.24942 0.07710
# Poissons Ratio (y) = 0.24942 0.07709
# Poissons Ratio (z) = 0.03779 0.03779
#
# Static dielectric constant tensor:
#      x y z
#    x 2.463180 0.000000 0.000000 
#    y 0.000000 2.463290 0.000000 
#    z 0.000000 0.000000 3.818510 
# 
# 
# High freq. dielectric constant tensor:
#      x y z
#    x 1.782580 0.000000 0.000000 
#    y 0.000000 1.782580 0.000000 
#    z 0.000000 0.000000 1.822600 
# 
# From -- ./inp_files/576.got.cif
#   From: 2010.03.12/outbox.cif.g09.slc.cpg/sg135_1_cif.got.tgz:576.got - 2010.04.06 18:31:24.
