data_PCOD8317755
_publ_section_title
;
Structure prediction by ZEFSAII (Michael W. Deem and Ramdas Pophale) SiO2 
 PCOD8317755
Probable space group: P 42/M N M
;
_chemical_formula_sum "Si O2"
_cell_formula_units_Z 96
_cell_length_a 25.236645
_cell_length_b 25.236645
_cell_length_c 8.710448
_cell_angle_alpha 90.000000
_cell_angle_beta 90.000000
_cell_angle_gamma 90.000000
_cell_volume 5547.581991
_symmetry_space_group_name_H-M "P 42/M N M"
_symmetry_group_IT_number 136
_symmetry_cell_setting 'tetragonal'
loop_
_space_group_symop_operation_xyz
x,y,z
1/2-y,1/2+x,1/2+z
-x,-y,z
1/2+y,1/2-x,1/2+z
1/2+x,1/2-y,1/2-z
1/2-x,1/2+y,1/2-z
y,x,-z
-y,-x,-z
-x,-y,-z
1/2+y,1/2-x,1/2-z
x,y,-z
1/2-y,1/2+x,1/2-z
1/2-x,1/2+y,1/2+z
1/2+x,1/2-y,1/2+z
-y,-x,z
y,x,z
loop_
_atom_site_type_symbol
_atom_site_label
_atom_site_fract_x
_atom_site_fract_y
_atom_site_fract_z
Si Si1 0.644591 0.441046 0.819274
Si Si2 0.142269 0.943522 0.180678
Si Si3 0.439607 0.864894 0.675560
Si Si4 0.643816 0.061321 0.178413
Si Si5 0.751403 0.947972 0.177088
Si Si6 0.749081 0.560732 0.821396
O O1 0.594967 0.405034 0.772245
O O2 0.632954 0.500348 0.762689
O O3 0.697036 0.415914 0.735972
O O4 0.654200 0.441089 0.000000
O O5 0.094506 0.905495 0.230061
O O6 0.197367 0.916012 0.234998
O O7 0.143962 0.952704 0.000000
O O8 0.433342 0.883804 0.500000
O O9 0.500825 0.867622 0.728186
O O10 0.407122 0.903631 0.784181
O O11 0.417349 0.804528 0.694949
O O12 0.695409 0.085635 0.263394
O O13 0.656525 0.063075 0.000000
O O14 0.749106 0.998648 0.286465
O O15 0.758769 0.965657 0.000000
O O16 0.742936 0.572207 0.000000
#
# Coordination Sequence:
#
# PCOD8317755 Si02
#       6
#    16  16  16  16  16  16
#     4  10  20  32  48  72 100 129 162 200 241 286
#     4  10  20  33  50  72  98 128 162 199 239 286
#     4   9  19  33  48  71  99 126 160 199 240 286
#     4  10  20  33  50  72  99 130 162 198 239 284
#     4   9  17  31  50  70  94 125 163 202 237 281
#     4  10  18  30  50  71  94 125 161 200 238 281
#
# _framework density 17.304836999999999
#
# number of rings (size 3 to 8) (size 9 to 14) (size 15 to 20)
#    0.000    2.333    0.000    6.500    0.000    7.333 
#    0.000    3.333    0.000    1.000    0.000    4.667 
#    0.000    0.000    0.000    0.000    0.000    0.000 
#
# Total GULP energy -1189878.344450 kJ/mol
# GULP energy per Si atom -12394.566088 kJ/mol
# Density = 1.726545 g / cm^3
# Si number density = 17.304837 Si / 1000 Ang^3
#
#
#
# Elastic Constant Matrix: (Units=GPa)
#
#
# Indices 1 2 3 4 5 6 
#
# 1 94.7535 56.4067 34.9542 0.0000 0.0000 0.0000
# 2 56.4067 94.7535 34.9542 0.0000 0.0000 0.0000
# 3 34.9542 34.9542 64.4143 0.0000 0.0000 0.0000
# 4 0.0000 0.0000 0.0000 24.6307 0.0000 0.0000
# 5 0.0000 0.0000 0.0000 0.0000 24.6307 0.0000
# 6 0.0000 0.0000 0.0000 0.0000 0.0000 2.5457
#
#
#
# Elastic Compliance Matrix: (Units=1/GPa)
#
#
# Indices 1 2 3 4 5 6 
#
# 1 0.017455 -0.008623 -0.004793 0.000000 0.000000 0.000000
# 2 -0.008623 0.017455 -0.004793 0.000000 0.000000 0.000000
# 3 -0.004793 -0.004793 0.020726 0.000000 0.000000 0.000000
# 4 0.000000 0.000000 0.000000 0.040600 0.000000 0.000000
# 5 0.000000 0.000000 0.000000 0.000000 0.040600 0.000000
# 6 0.000000 0.000000 0.000000 0.000000 0.000000 0.392822
#
#
# Mechanical properties :
#
#
# Convention : Reuss Voigt Hill
#
# Bulk Modulus (GPa) = 52.03099 56.28350 54.15725
# Shear Modulus (GPa) = 8.73393 18.86849 13.80121
#
# Velocity S-wave (km/s) = 2.24901 3.30564 2.82713
# Velocity P-wave (km/s) = 6.07262 6.86768 6.48235
#
# Compressibility (1/GPa) = 0.01921932
#
# Stress axis : x y z
#
# Youngs Moduli (GPa) = 57.29047 57.29047 48.24875
#
# Poissons Ratio (x) = 0.49401 0.23124
# Poissons Ratio (y) = 0.49401 0.23124
# Poissons Ratio (z) = 0.27457 0.27457
#
# Static dielectric constant tensor:
#      x y z
#    x 3.326460 0.000000 0.000000 
#    y 0.000000 3.326460 0.000000 
#    z 0.000000 0.000000 3.253910 
# 
# 
# High freq. dielectric constant tensor:
#      x y z
#    x 1.650920 0.000000 0.000000 
#    y 0.000000 1.650920 0.000000 
#    z 0.000000 0.000000 1.682540 
# 
# From -- ./inp_files/2163.got.cif
#   From: 2010.03.12/outbox.cif.g09.slc.cpg/sg136_2_cif.got.tgz:2163.got - 2010.04.06 18:39:43.
