data_PCOD8317182
_publ_section_title
;
Structure prediction by ZEFSAII (Michael W. Deem and Ramdas Pophale) SiO2 
 PCOD8317182
Probable space group: P 42/N N M
;
_chemical_formula_sum "Si O2"
_cell_formula_units_Z 112
_cell_length_a 14.356047
_cell_length_b 14.356047
_cell_length_c 27.481517
_cell_angle_alpha 90.000000
_cell_angle_beta 90.000000
_cell_angle_gamma 90.000000
_cell_volume 5663.833076
_symmetry_space_group_name_H-M "P 42/N N M"
_symmetry_group_IT_number 134
_space_group.IT_coordinate_system_code '2'
_symmetry_cell_setting 'tetragonal'
loop_
_space_group_symop_operation_xyz
x,y,z
1/2-y,x,1/2+z
1/2-x,1/2-y,z
y,1/2-x,1/2+z
x,1/2-y,1/2-z
1/2-x,y,1/2-z
y,x,-z
1/2-y,1/2-x,-z
-x,-y,-z
1/2+y,-x,1/2-z
1/2+x,1/2+y,-z
-y,1/2+x,1/2-z
-x,1/2+y,1/2+z
1/2+x,-y,1/2+z
-y,-x,z
1/2+y,1/2+x,z
loop_
_atom_site_type_symbol
_atom_site_label
_atom_site_fract_x
_atom_site_fract_y
_atom_site_fract_z
Si Si1 0.497806 0.349418 0.985090
Si Si2 0.643413 0.992238 0.025179
Si Si3 0.897610 0.947046 0.272323
Si Si4 0.363270 0.482712 0.831417
Si Si5 0.347205 0.499920 0.128216
Si Si6 0.045180 0.694523 0.205003
Si Si7 0.673816 0.023774 0.133387
O O1 0.586118 0.413883 0.999609
O O2 0.498624 0.324772 0.928527
O O3 0.402927 0.402927 0.000000
O O4 0.506071 0.251116 0.012160
O O5 0.584000 0.084000 0.009856
O O6 0.638788 0.978014 0.083340
O O7 0.599299 0.900702 0.000000
O O8 0.832719 0.955813 0.224059
O O9 0.952798 0.850133 0.271169
O O10 0.842386 0.950665 0.323005
O O11 0.967774 0.032227 0.272928
O O12 0.448976 0.551025 0.828239
O O13 0.399034 0.389424 0.858213
O O14 0.285242 0.534901 0.863823
O O15 0.418408 0.581593 0.142021
O O16 0.253685 0.518891 0.157852
O O17 0.091550 0.750000 0.250000
O O18 0.116675 0.616675 0.185907
O O19 0.623660 0.123660 0.141475
#
# Coordination Sequence:
#
# PCOD8317182 Si02
#       7
#    16  16  16  16  16  16  16
#     4  10  22  41  64  89 120 159 203 253 304 356
#     4  10  23  41  61  87 120 157 201 253 306 358
#     4   9  19  35  56  81 114 154 188 227 287 350
#     4  10  19  36  59  84 119 152 184 234 292 352
#     4  10  21  36  57  87 118 153 195 237 293 350
#     4  11  21  35  57  84 118 157 196 238 286 350
#     4  10  21  37  59  86 111 148 197 239 290 351
#
# _framework density 19.774592999999999
#
# number of rings (size 3 to 8) (size 9 to 14) (size 15 to 20)
#    0.000    2.000    1.429    1.714    2.000    4.143 
#    0.000    3.571    0.000    2.571    0.000    0.000 
#    0.000    0.000    0.000    0.000    0.000    0.000 
#
# Total GULP energy -1388314.984537 kJ/mol
# GULP energy per Si atom -12395.669505 kJ/mol
# Density = 1.972959 g / cm^3
# Si number density = 19.774593 Si / 1000 Ang^3
#
#
#
# Elastic Constant Matrix: (Units=GPa)
#
#
# Indices 1 2 3 4 5 6 
#
# 1 84.5734 42.7876 39.9613 0.0000 0.0000 0.0000
# 2 42.7876 84.5757 39.9624 0.0000 0.0000 0.0000
# 3 39.9613 39.9624 103.3513 0.0000 0.0000 0.0000
# 4 0.0000 0.0000 0.0000 32.3453 0.0000 0.0000
# 5 0.0000 0.0000 0.0000 0.0000 32.3451 0.0000
# 6 0.0000 0.0000 0.0000 0.0000 0.0000 22.5571
#
#
#
# Elastic Compliance Matrix: (Units=1/GPa)
#
#
# Indices 1 2 3 4 5 6 
#
# 1 0.017149 -0.006782 -0.004009 0.000000 0.000000 0.000000
# 2 -0.006782 0.017149 -0.004009 0.000000 0.000000 0.000000
# 3 -0.004009 -0.004009 0.012776 0.000000 0.000000 0.000000
# 4 0.000000 0.000000 0.000000 0.030916 0.000000 0.000000
# 5 0.000000 0.000000 0.000000 0.000000 0.030917 0.000000
# 6 0.000000 0.000000 0.000000 0.000000 0.000000 0.044332
#
#
# Mechanical properties :
#
#
# Convention : Reuss Voigt Hill
#
# Bulk Modulus (GPa) = 57.22245 57.54700 57.38472
# Shear Modulus (GPa) = 26.50243 27.43541 26.96892
#
# Velocity S-wave (km/s) = 3.66488 3.72883 3.69700
# Velocity P-wave (km/s) = 6.84899 6.90678 6.87794
#
# Compressibility (1/GPa) = 0.01747566
#
# Stress axis : x y z
#
# Youngs Moduli (GPa) = 58.31179 58.31302 78.27393
#
# Poissons Ratio (x) = 0.39547 0.31376
# Poissons Ratio (y) = 0.39546 0.31377
# Poissons Ratio (z) = 0.23374 0.23375
#
# Static dielectric constant tensor:
#      x y z
#    x 3.502560 0.000000 0.000000 
#    y 0.000000 3.502560 0.000000 
#    z 0.000000 0.000000 3.835400 
# 
# 
# High freq. dielectric constant tensor:
#      x y z
#    x 1.759170 0.000000 0.000000 
#    y 0.000000 1.759170 0.000000 
#    z 0.000000 0.000000 1.787640 
# 
# From -- ./inp_files/10836.got.cif
#   From: 2010.03.12/outbox.cif.g09.slc.cpg/sg134_6_cif.got.tgz:10836.got - 2010.04.06 18:17:22.
