data_PCOD8317684
_publ_section_title
;
Structure prediction by ZEFSAII (Michael W. Deem and Ramdas Pophale) SiO2 
 PCOD8317684
Probable space group: P 42/M N M
;
_chemical_formula_sum "Si O2"
_cell_formula_units_Z 112
_cell_length_a 15.000709
_cell_length_b 15.000709
_cell_length_c 31.350045
_cell_angle_alpha 90.000000
_cell_angle_beta 90.000000
_cell_angle_gamma 90.000000
_cell_volume 7054.426956
_symmetry_space_group_name_H-M "P 42/M N M"
_symmetry_group_IT_number 136
_symmetry_cell_setting 'tetragonal'
loop_
_space_group_symop_operation_xyz
x,y,z
1/2-y,1/2+x,1/2+z
-x,-y,z
1/2+y,1/2-x,1/2+z
1/2+x,1/2-y,1/2-z
1/2-x,1/2+y,1/2-z
y,x,-z
-y,-x,-z
-x,-y,-z
1/2+y,1/2-x,1/2-z
x,y,-z
1/2-y,1/2+x,1/2-z
1/2-x,1/2+y,1/2+z
1/2+x,1/2-y,1/2+z
-y,-x,z
y,x,z
loop_
_atom_site_type_symbol
_atom_site_label
_atom_site_fract_x
_atom_site_fract_y
_atom_site_fract_z
Si Si1 0.185019 0.326155 0.548009
Si Si2 0.397988 0.093816 0.148299
Si Si3 0.114525 0.587403 0.127417
Si Si4 0.431513 0.118901 0.757900
Si Si5 0.524951 0.666518 0.547318
Si Si6 0.929108 0.789565 0.869371
Si Si7 0.105425 0.745880 0.184132
O O1 0.146398 0.324991 0.500000
O O2 0.230368 0.230368 0.558643
O O3 0.105160 0.352227 0.579448
O O4 0.259191 0.400759 0.553333
O O5 0.486382 0.149696 0.135663
O O6 0.377928 0.111930 0.198103
O O7 0.305500 0.122704 0.125979
O O8 0.411645 0.990911 0.135717
O O9 0.153504 0.665982 0.157624
O O10 0.535624 0.103990 0.770467
O O11 0.416449 0.210043 0.731766
O O12 0.481792 0.673293 0.500000
O O13 0.569954 0.569954 0.553128
O O14 0.450722 0.678950 0.582926
O O15 0.862634 0.862634 0.848952
O O16 0.016033 0.779953 0.839397
O O17 0.171869 0.828132 0.188126
#
# Coordination Sequence:
#
# PCOD8317684 Si02
#       7
#    16  16  16  16  16  16  16
#     4   9  16  27  46  72 103 132 157 195 245 293
#     4  10  19  31  48  68  92 123 164 205 244 290
#     4  10  16  30  49  71  95 124 162 204 240 285
#     4  11  17  33  52  69  92 124 158 205 247 283
#     4   9  17  30  48  69  97 136 173 199 233 289
#     4  11  22  35  49  70 102 134 167 207 244 286
#     4  11  21  32  51  76  98 126 162 199 245 294
#
# _framework density 15.876555
#
# number of rings (size 3 to 8) (size 9 to 14) (size 15 to 20)
#    0.000    1.857    7.143    2.571    0.000    2.000 
#    0.000    2.857    0.000    0.000    0.000    0.000 
#    0.000    2.286    0.000    1.571    0.000    0.000 
#
# Total GULP energy -1387498.772313 kJ/mol
# GULP energy per Si atom -12388.381896 kJ/mol
# Density = 1.584042 g / cm^3
# Si number density = 15.876555 Si / 1000 Ang^3
#
#
#
# Elastic Constant Matrix: (Units=GPa)
#
#
# Indices 1 2 3 4 5 6 
#
# 1 62.8632 60.7305 39.2769 0.0000 0.0000 0.0000
# 2 60.7305 62.8632 39.2769 0.0000 0.0000 0.0000
# 3 39.2769 39.2769 94.9684 0.0000 0.0000 0.0000
# 4 0.0000 0.0000 0.0000 10.4820 0.0000 0.0000
# 5 0.0000 0.0000 0.0000 0.0000 10.4820 0.0000
# 6 0.0000 0.0000 0.0000 0.0000 0.0000 13.0505
#
#
#
# Elastic Compliance Matrix: (Units=1/GPa)
#
#
# Indices 1 2 3 4 5 6 
#
# 1 0.239935 -0.228958 -0.004540 0.000000 0.000000 0.000000
# 2 -0.228958 0.239935 -0.004540 0.000000 0.000000 0.000000
# 3 -0.004540 -0.004540 0.014285 0.000000 0.000000 0.000000
# 4 0.000000 0.000000 0.000000 0.095402 0.000000 0.000000
# 5 0.000000 0.000000 0.000000 0.000000 0.095402 0.000000
# 6 0.000000 0.000000 0.000000 0.000000 0.000000 0.076625
#
#
# Mechanical properties :
#
#
# Convention : Reuss Voigt Hill
#
# Bulk Modulus (GPa) = 55.31253 55.47371 55.39312
# Shear Modulus (GPa) = 4.02031 12.23028 8.12530
#
# Velocity S-wave (km/s) = 1.59303 2.77850 2.26471
# Velocity P-wave (km/s) = 6.18857 6.73127 6.46561
#
# Compressibility (1/GPa) = 0.01807909
#
# Stress axis : x y z
#
# Youngs Moduli (GPa) = 4.16780 4.16780 70.00483
#
# Poissons Ratio (x) = 0.95425 0.31779
# Poissons Ratio (y) = 0.95425 0.31779
# Poissons Ratio (z) = 0.01892 0.01892
#
# Static dielectric constant tensor:
#      x y z
#    x 3.046620 0.000000 0.000000 
#    y 0.000000 3.046620 0.000000 
#    z 0.000000 0.000000 3.133590 
# 
# 
# High freq. dielectric constant tensor:
#      x y z
#    x 1.582360 0.000000 0.000000 
#    y 0.000000 1.582360 0.000000 
#    z 0.000000 0.000000 1.613290 
# 
# From -- ./inp_files/9979.got.cif
#   From: 2010.03.12/outbox.cif.g09.slc.cpg/sg136_5_cif.got.tgz:9979.got - 2010.04.06 18:39:43.
