data_PCOD8317692
_publ_section_title
;
Structure prediction by ZEFSAII (Michael W. Deem and Ramdas Pophale) SiO2 
 PCOD8317692
Probable space group: P 42/M N M
;
_chemical_formula_sum "Si O2"
_cell_formula_units_Z 96
_cell_length_a 20.088685
_cell_length_b 20.088685
_cell_length_c 18.018752
_cell_angle_alpha 90.000000
_cell_angle_beta 90.000000
_cell_angle_gamma 90.000000
_cell_volume 7271.562239
_symmetry_space_group_name_H-M "P 42/M N M"
_symmetry_group_IT_number 136
_symmetry_cell_setting 'tetragonal'
loop_
_space_group_symop_operation_xyz
x,y,z
1/2-y,1/2+x,1/2+z
-x,-y,z
1/2+y,1/2-x,1/2+z
1/2+x,1/2-y,1/2-z
1/2-x,1/2+y,1/2-z
y,x,-z
-y,-x,-z
-x,-y,-z
1/2+y,1/2-x,1/2-z
x,y,-z
1/2-y,1/2+x,1/2-z
1/2-x,1/2+y,1/2+z
1/2+x,1/2-y,1/2+z
-y,-x,z
y,x,z
loop_
_atom_site_type_symbol
_atom_site_label
_atom_site_fract_x
_atom_site_fract_y
_atom_site_fract_z
Si Si1 0.396705 0.498889 0.087807
Si Si2 0.745096 0.465706 0.085863
Si Si3 0.572974 0.970565 0.918670
Si Si4 0.318946 0.790564 0.086177
Si Si5 0.138123 0.481874 0.819853
Si Si6 0.628628 0.084343 0.829747
O O1 0.445130 0.554871 0.121751
O O2 0.425947 0.425947 0.108014
O O3 0.323835 0.508745 0.121135
O O4 0.393421 0.508639 0.000000
O O5 0.748906 0.386451 0.097564
O O6 0.799446 0.508126 0.127877
O O7 0.753170 0.483837 0.000000
O O8 0.570630 0.910486 0.860268
O O9 0.500000 0.000000 0.925921
O O10 0.624119 0.027671 0.892575
O O11 0.596693 0.945695 0.000000
O O12 0.256076 0.743925 0.109504
O O13 0.325083 0.855979 0.138439
O O14 0.311957 0.812287 0.000000
O O15 0.161817 0.447977 0.743175
O O16 0.104943 0.553786 0.806065
#
# Coordination Sequence:
#
# PCOD8317692 Si02
#       6
#    16  16  16  16  16  16
#     4   8  13  22  37  55  73  94 121 154 192 230
#     4   9  16  25  38  56  77 100 129 161 192 230
#     4   9  16  24  37  54  73  98 130 163 193 226
#     4   9  17  28  41  56  75 100 132 168 201 234
#     4  10  17  25  37  54  77 104 129 160 196 229
#     4  10  17  26  39  54  76 103 131 163 198 235
#
# _framework density 13.202114
#
# number of rings (size 3 to 8) (size 9 to 14) (size 15 to 20)
#    0.000    2.833    1.667    2.000    0.000    6.000 
#    0.000    0.833    0.000    0.000    0.000    0.000 
#    0.000    0.000    0.000    0.000    0.000    0.000 
#
# Total GULP energy -1189622.978020 kJ/mol
# GULP energy per Si atom -12391.906021 kJ/mol
# Density = 1.317207 g / cm^3
# Si number density = 13.202114 Si / 1000 Ang^3
#
#
#
# Elastic Constant Matrix: (Units=GPa)
#
#
# Indices 1 2 3 4 5 6 
#
# 1 65.5716 29.7543 27.9888 0.0000 0.0000 0.0000
# 2 29.7543 65.5716 27.9888 0.0000 0.0000 0.0000
# 3 27.9888 27.9888 69.0024 0.0000 0.0000 0.0000
# 4 0.0000 0.0000 0.0000 10.6244 0.0000 0.0000
# 5 0.0000 0.0000 0.0000 0.0000 10.6244 0.0000
# 6 0.0000 0.0000 0.0000 0.0000 0.0000 20.8039
#
#
#
# Elastic Compliance Matrix: (Units=1/GPa)
#
#
# Indices 1 2 3 4 5 6 
#
# 1 0.020845 -0.007075 -0.005585 0.000000 0.000000 0.000000
# 2 -0.007075 0.020845 -0.005585 0.000000 0.000000 0.000000
# 3 -0.005585 -0.005585 0.019023 0.000000 0.000000 0.000000
# 4 0.000000 0.000000 0.000000 0.094123 0.000000 0.000000
# 5 0.000000 0.000000 0.000000 0.000000 0.094123 0.000000
# 6 0.000000 0.000000 0.000000 0.000000 0.000000 0.048068
#
#
# Mechanical properties :
#
#
# Convention : Reuss Voigt Hill
#
# Bulk Modulus (GPa) = 41.28483 41.28991 41.28737
# Shear Modulus (GPa) = 14.63733 16.03812 15.33773
#
# Velocity S-wave (km/s) = 3.33334 3.48920 3.41216
# Velocity P-wave (km/s) = 6.79369 6.89752 6.84580
#
# Compressibility (1/GPa) = 0.02422197
#
# Stress axis : x y z
#
# Youngs Moduli (GPa) = 47.97346 47.97346 52.56672
#
# Poissons Ratio (x) = 0.33939 0.29361
# Poissons Ratio (y) = 0.33939 0.29361
# Poissons Ratio (z) = 0.26796 0.26796
#
# Static dielectric constant tensor:
#      x y z
#    x 2.581910 0.000000 0.000000 
#    y 0.000000 2.581910 0.000000 
#    z 0.000000 0.000000 2.548260 
# 
# 
# High freq. dielectric constant tensor:
#      x y z
#    x 1.483060 0.000000 0.000000 
#    y 0.000000 1.483060 0.000000 
#    z 0.000000 0.000000 1.486040 
# 
# From -- ./inp_files/5212.got.cif
#   From: 2010.03.12/outbox.cif.g09.slc.cpg/sg136_3_cif.got.tgz:5212.got - 2010.04.06 18:39:43.
