data_PCOD8317120
_publ_section_title
;
Structure prediction by ZEFSAII (Michael W. Deem and Ramdas Pophale) SiO2 
 PCOD8317120
Probable space group: P 42/N N M
;
_chemical_formula_sum "Si O2"
_cell_formula_units_Z 96
_cell_length_a 17.456567
_cell_length_b 17.456567
_cell_length_c 17.995413
_cell_angle_alpha 90.000000
_cell_angle_beta 90.000000
_cell_angle_gamma 90.000000
_cell_volume 5483.773361
_symmetry_space_group_name_H-M "P 42/N N M"
_symmetry_group_IT_number 134
_space_group.IT_coordinate_system_code '2'
_symmetry_cell_setting 'tetragonal'
loop_
_space_group_symop_operation_xyz
x,y,z
1/2-y,x,1/2+z
1/2-x,1/2-y,z
y,1/2-x,1/2+z
x,1/2-y,1/2-z
1/2-x,y,1/2-z
y,x,-z
1/2-y,1/2-x,-z
-x,-y,-z
1/2+y,-x,1/2-z
1/2+x,1/2+y,-z
-y,1/2+x,1/2-z
-x,1/2+y,1/2+z
1/2+x,-y,1/2+z
-y,-x,z
1/2+y,1/2+x,z
loop_
_atom_site_type_symbol
_atom_site_label
_atom_site_fract_x
_atom_site_fract_y
_atom_site_fract_z
Si Si1 0.667870 0.729830 0.163727
Si Si2 0.008714 0.991286 0.314388
Si Si3 0.554208 0.445793 0.158771
Si Si4 0.401011 0.598989 0.609731
Si Si5 0.077978 0.143203 0.076430
Si Si6 0.975015 0.812105 0.547088
Si Si7 0.839488 0.160513 0.242638
Si Si8 0.363832 0.070947 0.110746
O O1 0.750000 0.750000 0.125935
O O2 0.674191 0.750000 0.250000
O O3 0.650769 0.642141 0.141060
O O4 0.597853 0.780155 0.134906
O O5 0.982006 0.017995 0.233370
O O6 0.966329 0.033672 0.383410
O O7 0.098620 0.011773 0.329033
O O8 0.487022 0.410101 0.110151
O O9 0.619772 0.380229 0.172077
O O10 0.436271 0.673181 0.569353
O O11 0.380831 0.619170 0.691916
O O12 0.041423 0.223174 0.052216
O O13 0.109413 0.109413 0.000000
O O14 0.970262 0.850444 0.466868
O O15 0.917043 0.853791 0.603925
O O16 0.856881 0.250000 0.250000
#
# Coordination Sequence:
#
# PCOD8317120 Si02
#       8
#    16   8   8   8  16  16   8  16
#     4  11  22  35  53  82 114 151 192 237 284 347
#     4   9  19  34  53  75 109 142 181 240 291 339
#     4  11  24  39  54  80 112 156 197 234 282 364
#     4   9  18  32  49  82 103 139 180 225 287 340
#     4  12  23  38  56  79 115 160 196 234 293 355
#     4  10  19  31  55  78 110 141 182 238 283 348
#     4  10  20  37  58  78 107 143 185 236 287 334
#     4  10  18  33  52  79 107 143 185 234 293 336
#
# _framework density 17.506195000000002
#
# number of rings (size 3 to 8) (size 9 to 14) (size 15 to 20)
#    0.000    1.583    3.333    2.750    0.000    2.333 
#    3.000    0.000    0.000    0.000    0.000    0.000 
#    0.000    0.667    0.000    4.833    0.000    0.000 
#
# Total GULP energy -1189672.995745 kJ/mol
# GULP energy per Si atom -12392.427039 kJ/mol
# Density = 1.746635 g / cm^3
# Si number density = 17.506195 Si / 1000 Ang^3
#
#
#
# Elastic Constant Matrix: (Units=GPa)
#
#
# Indices 1 2 3 4 5 6 
#
# 1 167.0017 -8.9316 35.5685 0.0000 0.0000 0.0000
# 2 -8.9316 167.0017 35.5685 0.0000 0.0000 0.0000
# 3 35.5685 35.5685 78.3763 0.0000 0.0000 0.0000
# 4 0.0000 0.0000 0.0000 30.7813 0.0000 0.0000
# 5 0.0000 0.0000 0.0000 0.0000 30.7813 0.0000
# 6 0.0000 0.0000 0.0000 0.0000 0.0000 35.0674
#
#
#
# Elastic Compliance Matrix: (Units=1/GPa)
#
#
# Indices 1 2 3 4 5 6 
#
# 1 0.006817 0.001133 -0.003608 0.000000 0.000000 0.000000
# 2 0.001133 0.006817 -0.003608 0.000000 0.000000 0.000000
# 3 -0.003608 -0.003608 0.016034 0.000000 0.000000 0.000000
# 4 0.000000 0.000000 0.000000 0.032487 0.000000 0.000000
# 5 0.000000 0.000000 0.000000 0.000000 0.032487 0.000000
# 6 0.000000 0.000000 0.000000 0.000000 0.000000 0.028517
#
#
# Mechanical properties :
#
#
# Convention : Reuss Voigt Hill
#
# Bulk Modulus (GPa) = 57.13581 59.64338 58.38959
# Shear Modulus (GPa) = 35.42136 42.67097 39.04617
#
# Velocity S-wave (km/s) = 4.50306 4.94244 4.72786
# Velocity P-wave (km/s) = 7.72949 8.16787 7.95170
#
# Compressibility (1/GPa) = 0.01750216
#
# Stress axis : x y z
#
# Youngs Moduli (GPa) = 146.69296 146.69296 62.36926
#
# Poissons Ratio (x) = -0.16620 0.22502
# Poissons Ratio (y) = -0.16620 0.22502
# Poissons Ratio (z) = 0.52924 0.52924
#
# Static dielectric constant tensor:
#      x y z
#    x 3.203630 0.000000 0.000000 
#    y 0.000000 3.203630 0.000000 
#    z 0.000000 0.000000 3.373730 
# 
# 
# High freq. dielectric constant tensor:
#      x y z
#    x 1.670900 0.000000 0.000000 
#    y 0.000000 1.670900 0.000000 
#    z 0.000000 0.000000 1.673740 
# 
# From -- ./inp_files/7979.got.cif
#   From: 2010.03.12/outbox.cif.g09.slc.cpg/sg134_4_cif.got.tgz:7979.got - 2010.04.06 18:17:22.
