data_PCOD8317507
_publ_section_title
;
Structure prediction by ZEFSAII (Michael W. Deem and Ramdas Pophale) SiO2 
 PCOD8317507
Probable space group: P 42/M B C
;
_chemical_formula_sum "Si O2"
_cell_formula_units_Z 96
_cell_length_a 23.456121
_cell_length_b 23.456121
_cell_length_c 9.096540
_cell_angle_alpha 90.000000
_cell_angle_beta 90.000000
_cell_angle_gamma 90.000000
_cell_volume 5004.821816
_symmetry_space_group_name_H-M "P 42/M B C"
_symmetry_group_IT_number 135
_symmetry_cell_setting 'tetragonal'
loop_
_space_group_symop_operation_xyz
x,y,z
-y,x,1/2+z
-x,-y,z
y,-x,1/2+z
1/2+x,1/2-y,-z
1/2-x,1/2+y,-z
1/2+y,1/2+x,1/2-z
1/2-y,1/2-x,1/2-z
-x,-y,-z
y,-x,1/2-z
x,y,-z
-y,x,1/2-z
1/2-x,1/2+y,z
1/2+x,1/2-y,z
1/2-y,1/2-x,1/2+z
1/2+y,1/2+x,1/2+z
loop_
_atom_site_type_symbol
_atom_site_label
_atom_site_fract_x
_atom_site_fract_y
_atom_site_fract_z
Si Si1 0.767557 0.494434 0.673413
Si Si2 0.411007 0.616670 0.164888
Si Si3 0.003977 0.846083 0.334770
Si Si4 0.316199 0.896842 0.170527
Si Si5 0.300454 0.335868 0.831563
Si Si6 0.219035 0.637654 0.672731
O O1 0.775711 0.502054 0.500000
O O2 0.703414 0.508312 0.719283
O O3 0.805919 0.540939 0.757167
O O4 0.778269 0.428663 0.722995
O O5 0.363629 0.568723 0.172782
O O6 0.463895 0.602628 0.274260
O O7 0.382087 0.673690 0.222754
O O8 0.433639 0.624618 0.000000
O O9 0.986588 0.827936 0.500000
O O10 0.371736 0.871736 0.250000
O O11 0.266694 0.848463 0.186399
O O12 0.329261 0.907778 0.000000
O O13 0.323293 0.273643 0.781076
O O14 0.320053 0.346166 0.000000
O O15 0.163702 0.663702 0.750000
O O16 0.210300 0.641135 0.500000
#
# Coordination Sequence:
#
# PCOD8317507 Si02
#       6
#    16  16  16  16  16  16
#     4  11  22  38  61  87 117 154 193 236 290 347
#     4  11  23  36  56  82 110 153 201 246 292 343
#     4  11  23  38  56  81 112 152 200 246 294 344
#     4  11  23  38  60  89 122 158 196 240 290 346
#     4  10  20  36  57  86 121 154 191 238 289 340
#     4  10  22  38  59  88 121 156 192 237 287 345
#
# _framework density 19.181501000000001
#
# number of rings (size 3 to 8) (size 9 to 14) (size 15 to 20)
#    0.000    1.333    3.333    2.500    0.000    5.000 
#    0.000    1.667    0.000    0.500    0.000    3.500 
#    0.000    0.000    0.000    0.000    0.000    0.000 
#
# Total GULP energy -1189768.604416 kJ/mol
# GULP energy per Si atom -12393.422963 kJ/mol
# Density = 1.913784 g / cm^3
# Si number density = 19.181501 Si / 1000 Ang^3
#
#
#
# Elastic Constant Matrix: (Units=GPa)
#
#
# Indices 1 2 3 4 5 6 
#
# 1 84.6450 40.4790 41.4965 0.0000 0.0000 0.0000
# 2 40.4790 84.6450 41.4965 0.0000 0.0000 0.0000
# 3 41.4965 41.4965 86.4691 0.0000 0.0000 0.0000
# 4 0.0000 0.0000 0.0000 31.8879 0.0000 0.0000
# 5 0.0000 0.0000 0.0000 0.0000 31.8879 0.0000
# 6 0.0000 0.0000 0.0000 0.0000 0.0000 21.7969
#
#
#
# Elastic Compliance Matrix: (Units=1/GPa)
#
#
# Indices 1 2 3 4 5 6 
#
# 1 0.017183 -0.005459 -0.005626 0.000000 0.000000 0.000000
# 2 -0.005459 0.017183 -0.005626 0.000000 0.000000 0.000000
# 3 -0.005626 -0.005626 0.016965 0.000000 0.000000 0.000000
# 4 0.000000 0.000000 0.000000 0.031360 0.000000 0.000000
# 5 0.000000 0.000000 0.000000 0.000000 0.031360 0.000000
# 6 0.000000 0.000000 0.000000 0.000000 0.000000 0.045878
#
#
# Mechanical properties :
#
#
# Convention : Reuss Voigt Hill
#
# Bulk Modulus (GPa) = 55.84230 55.85588 55.84909
# Shear Modulus (GPa) = 25.08520 25.93370 25.50945
#
# Velocity S-wave (km/s) = 3.62025 3.68097 3.65073
# Velocity P-wave (km/s) = 6.83013 6.87378 6.85199
#
# Compressibility (1/GPa) = 0.01790757
#
# Stress axis : x y z
#
# Youngs Moduli (GPa) = 58.19746 58.19746 58.94509
#
# Poissons Ratio (x) = 0.31770 0.33164
# Poissons Ratio (y) = 0.31770 0.33164
# Poissons Ratio (z) = 0.32744 0.32744
#
# Static dielectric constant tensor:
#      x y z
#    x 3.499860 0.000000 0.000000 
#    y 0.000000 3.499860 0.000000 
#    z 0.000000 0.000000 3.676750 
# 
# 
# High freq. dielectric constant tensor:
#      x y z
#    x 1.734200 0.000000 0.000000 
#    y 0.000000 1.734200 0.000000 
#    z 0.000000 0.000000 1.757270 
# 
# From -- ./inp_files/1215.got.cif
#   From: 2010.03.12/outbox.cif.g09.slc.cpg/sg135_1_cif.got.tgz:1215.got - 2010.04.06 18:31:24.
