data_PCOD8317472
_publ_section_title
;
Structure prediction by ZEFSAII (Michael W. Deem and Ramdas Pophale) SiO2 
 PCOD8317472
Probable space group: P 42/M B C
;
_chemical_formula_sum "Si O2"
_cell_formula_units_Z 96
_cell_length_a 25.012582
_cell_length_b 25.012582
_cell_length_c 8.854948
_cell_angle_alpha 90.000000
_cell_angle_beta 90.000000
_cell_angle_gamma 90.000000
_cell_volume 5539.914550
_symmetry_space_group_name_H-M "P 42/M B C"
_symmetry_group_IT_number 135
_symmetry_cell_setting 'tetragonal'
loop_
_space_group_symop_operation_xyz
x,y,z
-y,x,1/2+z
-x,-y,z
y,-x,1/2+z
1/2+x,1/2-y,-z
1/2-x,1/2+y,-z
1/2+y,1/2+x,1/2-z
1/2-y,1/2-x,1/2-z
-x,-y,-z
y,-x,1/2-z
x,y,-z
-y,x,1/2-z
1/2-x,1/2+y,z
1/2+x,1/2-y,z
1/2-y,1/2-x,1/2+z
1/2+y,1/2+x,1/2+z
loop_
_atom_site_type_symbol
_atom_site_label
_atom_site_fract_x
_atom_site_fract_y
_atom_site_fract_z
Si Si1 0.688199 0.008996 0.833395
Si Si2 0.192103 0.386047 0.327122
Si Si3 0.690726 0.891418 0.179961
Si Si4 0.184966 0.997146 0.829954
Si Si5 0.110674 0.182517 0.823646
Si Si6 0.693961 0.394051 0.320648
O O1 0.668396 0.056878 0.727123
O O2 0.751727 0.006149 0.836641
O O3 0.668462 0.950675 0.777348
O O4 0.665753 0.021194 0.000000
O O5 0.163791 0.336210 0.250000
O O6 0.178280 0.381839 0.500000
O O7 0.254719 0.382166 0.293292
O O8 0.650742 0.849259 0.250000
O O9 0.748382 0.881428 0.251706
O O10 0.695422 0.884872 0.000000
O O11 0.162367 0.946861 0.736195
O O12 0.168395 0.051402 0.744708
O O13 0.161126 0.997107 0.000000
O O14 0.156104 0.154429 0.726259
O O15 0.115945 0.168365 0.000000
O O16 0.698533 0.398426 0.500000
#
# Coordination Sequence:
#
# PCOD8317472 Si02
#       6
#    16  16  16  16  16  16
#     4   8  16  31  50  70  95 126 163 202 242 289
#     4  10  20  32  50  73  99 130 164 202 246 293
#     4  10  20  34  52  75 102 133 166 206 251 299
#     4   9  17  32  52  73  97 128 167 209 248 293
#     4  10  20  34  51  74 102 133 169 208 249 297
#     4  11  21  33  51  75 103 136 169 205 249 297
#
# _framework density 17.328787999999999
#
# number of rings (size 3 to 8) (size 9 to 14) (size 15 to 20)
#    0.000    2.333    0.000    4.500    0.000    7.333 
#    0.000    1.667    0.000    1.000    0.000    7.000 
#    0.000    0.000    0.000    0.000    0.000    0.000 
#
# Total GULP energy -1190227.571786 kJ/mol
# GULP energy per Si atom -12398.203873 kJ/mol
# Density = 1.728935 g / cm^3
# Si number density = 17.328788 Si / 1000 Ang^3
#
#
#
# Elastic Constant Matrix: (Units=GPa)
#
#
# Indices 1 2 3 4 5 6 
#
# 1 73.4962 47.3106 52.1775 0.0000 0.0000 0.0000
# 2 47.3106 73.5031 52.1814 0.0000 0.0000 0.0000
# 3 52.1775 52.1814 124.7382 0.0000 0.0000 0.0000
# 4 0.0000 0.0000 0.0000 29.5689 0.0000 0.0000
# 5 0.0000 0.0000 0.0000 0.0000 29.5684 0.0000
# 6 0.0000 0.0000 0.0000 0.0000 0.0000 -0.4917
#
#
#
# Elastic Compliance Matrix: (Units=1/GPa)
#
#
# Indices 1 2 3 4 5 6 
#
# 1 0.025573 -0.012612 -0.005421 0.000000 0.000000 0.000000
# 2 -0.012612 0.025571 -0.005422 0.000000 0.000000 0.000000
# 3 -0.005421 -0.005422 0.012553 0.000000 0.000000 0.000000
# 4 0.000000 0.000000 0.000000 0.033819 0.000000 0.000000
# 5 0.000000 0.000000 0.000000 0.000000 0.033820 0.000000
# 6 0.000000 0.000000 0.000000 0.000000 0.000000 -2.033883
#
#
# Mechanical properties :
#
#
# Convention : Reuss Voigt Hill
#
# Bulk Modulus (GPa) = 59.56757 63.89739 61.73248
# Shear Modulus (GPa) = -2.70264 19.73365 8.51550
#
# Velocity S-wave (km/s) = -1.25020 3.37824 2.21918
# Velocity P-wave (km/s) = 5.68907 7.22290 6.50138
#
# Compressibility (1/GPa) = 0.01678766
#
# Stress axis : x y z
#
# Youngs Moduli (GPa) = 39.10325 39.10606 79.66432
#
# Poissons Ratio (x) = 0.49319 0.43190
# Poissons Ratio (y) = 0.49315 0.43193
# Poissons Ratio (z) = 0.21200 0.21203
#
# Static dielectric constant tensor:
#      x y z
#    x 3.206560 0.000000 0.000000 
#    y 0.000000 3.206560 0.000000 
#    z 0.000000 0.000000 3.436730 
# 
# 
# High freq. dielectric constant tensor:
#      x y z
#    x 1.653160 0.000000 0.000000 
#    y 0.000000 1.653160 0.000000 
#    z 0.000000 0.000000 1.687070 
# 
# From -- ./inp_files/1210.got.cif
#   From: 2010.03.12/outbox.cif.g09.slc.cpg/sg135_1_cif.got.tgz:1210.got - 2010.04.06 18:31:24.
