data_PCOD8317095
_publ_section_title
;
Structure prediction by ZEFSAII (Michael W. Deem and Ramdas Pophale) SiO2 
 PCOD8317095
Probable space group: P 42/N N M
;
_chemical_formula_sum "Si O2"
_cell_formula_units_Z 72
_cell_length_a 25.575486
_cell_length_b 25.575486
_cell_length_c 7.743342
_cell_angle_alpha 90.000000
_cell_angle_beta 90.000000
_cell_angle_gamma 90.000000
_cell_volume 5064.962468
_symmetry_space_group_name_H-M "P 42/N N M"
_symmetry_group_IT_number 134
_space_group.IT_coordinate_system_code '2'
_symmetry_cell_setting 'tetragonal'
loop_
_space_group_symop_operation_xyz
x,y,z
1/2-y,x,1/2+z
1/2-x,1/2-y,z
y,1/2-x,1/2+z
x,1/2-y,1/2-z
1/2-x,y,1/2-z
y,x,-z
1/2-y,1/2-x,-z
-x,-y,-z
1/2+y,-x,1/2-z
1/2+x,1/2+y,-z
-y,1/2+x,1/2-z
-x,1/2+y,1/2+z
1/2+x,-y,1/2+z
-y,-x,z
1/2+y,1/2+x,z
loop_
_atom_site_type_symbol
_atom_site_label
_atom_site_fract_x
_atom_site_fract_y
_atom_site_fract_z
Si Si1 0.368216 0.546637 0.652555
Si Si2 0.135925 0.550986 0.230931
Si Si3 0.996709 0.583364 0.540391
Si Si4 0.750000 0.090433 0.750000
Si Si5 0.714063 0.371637 0.401732
O O1 0.408008 0.591993 0.707089
O O2 0.377884 0.526564 0.457084
O O3 0.377832 0.499834 0.791685
O O4 0.309937 0.572090 0.657941
O O5 0.107861 0.607861 0.248532
O O6 0.115707 0.511256 0.371910
O O7 0.197860 0.555633 0.256421
O O8 0.938498 0.561503 0.500000
O O9 0.034544 0.534544 0.573315
O O10 0.751669 0.124858 0.575908
O O11 0.750000 0.349207 0.250000
O O12 0.667275 0.332726 0.444094
#
# Coordination Sequence:
#
# PCOD8317095 Si02
#       5
#    16  16  16   8  16
#     4   8  15  27  39  52  71  93 118 149 187 230
#     4   9  17  28  41  56  74  97 126 161 196 229
#     4   9  16  25  39  58  77  96 117 147 189 232
#     4  10  18  30  46  57  70  98 132 164 197 236
#     4  10  20  31  42  55  72  97 129 168 210 244
#
# _framework density 14.215306999999999
#
# number of rings (size 3 to 8) (size 9 to 14) (size 15 to 20)
#    0.000    2.889    0.000    3.333    0.000    4.667 
#    0.000    4.444    0.000    3.000    0.000    0.000 
#    0.000    0.000    0.000    0.000    0.000    0.000 
#
# Total GULP energy -892120.492795 kJ/mol
# GULP energy per Si atom -12390.562400 kJ/mol
# Density = 1.418295 g / cm^3
# Si number density = 14.215307 Si / 1000 Ang^3
#
#
#
# Elastic Constant Matrix: (Units=GPa)
#
#
# Indices 1 2 3 4 5 6 
#
# 1 40.5582 31.7901 36.4283 0.0000 0.0000 0.0000
# 2 31.7901 40.5568 36.4273 0.0000 0.0000 0.0000
# 3 36.4283 36.4273 123.7104 0.0000 0.0000 0.0000
# 4 0.0000 0.0000 0.0000 15.8321 0.0000 0.0000
# 5 0.0000 0.0000 0.0000 0.0000 15.8308 0.0000
# 6 0.0000 0.0000 0.0000 0.0000 0.0000 9.5363
#
#
#
# Elastic Compliance Matrix: (Units=1/GPa)
#
#
# Indices 1 2 3 4 5 6 
#
# 1 0.066853 -0.047206 -0.005786 0.000000 0.000000 0.000000
# 2 -0.047206 0.066855 -0.005786 0.000000 0.000000 0.000000
# 3 -0.005786 -0.005786 0.011491 0.000000 0.000000 0.000000
# 4 0.000000 0.000000 0.000000 0.063163 0.000000 0.000000
# 5 0.000000 0.000000 0.000000 0.000000 0.063168 0.000000
# 6 0.000000 0.000000 0.000000 0.000000 0.000000 0.104862
#
#
# Mechanical properties :
#
#
# Convention : Reuss Voigt Hill
#
# Bulk Modulus (GPa) = 36.17306 46.01299 41.09303
# Shear Modulus (GPa) = 9.93719 14.91849 12.42784
#
# Velocity S-wave (km/s) = 2.64682 3.24306 2.95999
# Velocity P-wave (km/s) = 5.90277 6.81632 6.37592
#
# Compressibility (1/GPa) = 0.02764488
#
# Stress axis : x y z
#
# Youngs Moduli (GPa) = 14.95819 14.95775 87.02682
#
# Poissons Ratio (x) = 0.70609 0.50352
# Poissons Ratio (y) = 0.70611 0.50350
# Poissons Ratio (z) = 0.08655 0.08654
#
# Static dielectric constant tensor:
#      x y z
#    x 2.577740 0.000000 0.000000 
#    y 0.000000 2.577740 0.000000 
#    z 0.000000 0.000000 3.079990 
# 
# 
# High freq. dielectric constant tensor:
#      x y z
#    x 1.499880 0.000000 0.000000 
#    y 0.000000 1.499880 0.000000 
#    z 0.000000 0.000000 1.570620 
# 
# From -- ./inp_files/3051.got.cif
#   From: 2010.03.12/outbox.cif.g09.slc.cpg/sg134_2_cif.got.tgz:3051.got - 2010.04.06 18:17:22.
