data_PCOD8317910
_publ_section_title
;
Structure prediction by ZEFSAII (Michael W. Deem and Ramdas Pophale) SiO2 
 PCOD8317910
Probable space group: P 42/M N M
;
_chemical_formula_sum "Si O2"
_cell_formula_units_Z 84
_cell_length_a 15.266386
_cell_length_b 15.266386
_cell_length_c 20.190198
_cell_angle_alpha 90.000000
_cell_angle_beta 90.000000
_cell_angle_gamma 90.000000
_cell_volume 4705.578859
_symmetry_space_group_name_H-M "P 42/M N M"
_symmetry_group_IT_number 136
_symmetry_cell_setting 'tetragonal'
loop_
_space_group_symop_operation_xyz
x,y,z
1/2-y,1/2+x,1/2+z
-x,-y,z
1/2+y,1/2-x,1/2+z
1/2+x,1/2-y,1/2-z
1/2-x,1/2+y,1/2-z
y,x,-z
-y,-x,-z
-x,-y,-z
1/2+y,1/2-x,1/2-z
x,y,-z
1/2-y,1/2+x,1/2-z
1/2-x,1/2+y,1/2+z
1/2+x,1/2-y,1/2+z
-y,-x,z
y,x,z
loop_
_atom_site_type_symbol
_atom_site_label
_atom_site_fract_x
_atom_site_fract_y
_atom_site_fract_z
Si Si1 0.366572 0.633428 0.579639
Si Si2 0.704754 0.093967 0.163942
Si Si3 0.898350 0.758678 0.308260
Si Si4 0.262449 0.403330 0.811498
Si Si5 0.860253 0.139748 0.070908
Si Si6 0.798660 0.400770 0.339824
Si Si7 0.000000 0.000000 0.908448
O O1 0.380343 0.619657 0.500000
O O2 0.388395 0.732753 0.598979
O O3 0.430994 0.569006 0.624232
O O4 0.630307 0.167715 0.156782
O O5 0.754727 0.106618 0.232950
O O6 0.777748 0.099140 0.107977
O O7 0.659344 0.998211 0.158945
O O8 0.836024 0.836024 0.334354
O O9 0.888591 0.752687 0.229167
O O10 0.996567 0.781290 0.331239
O O11 0.342328 0.342328 0.836444
O O12 0.171535 0.374591 0.846238
O O13 0.933739 0.066261 0.054926
O O14 0.826508 0.173493 0.000000
#
# Coordination Sequence:
#
# PCOD8317910 Si02
#       7
#     8  16  16  16   8  16   4
#     4  12  21  31  49  75 111 147 173 205 247 304
#     4  10  19  33  51  73 105 140 171 208 257 313
#     4  10  19  33  52  75 104 134 172 219 266 313
#     4  10  19  33  52  75 104 134 172 219 266 313
#     4  12  21  31  49  75 111 147 173 205 247 304
#     4  10  19  33  51  73 105 140 171 208 257 313
#     4  12  25  32  44  84 116 140 188 212 237 318
#
# _framework density 17.851151000000002
#
# number of rings (size 3 to 8) (size 9 to 14) (size 15 to 20)
#    0.000    1.524    5.714    2.000    0.000    1.143 
#    0.000    3.810    0.000    1.143    0.000    2.667 
#    0.000    1.524    0.000    0.000    0.000    0.000 
#
# Total GULP energy -1040789.379530 kJ/mol
# GULP energy per Si atom -12390.349756 kJ/mol
# Density = 1.781052 g / cm^3
# Si number density = 17.851151 Si / 1000 Ang^3
#
#
#
# Elastic Constant Matrix: (Units=GPa)
#
#
# Indices 1 2 3 4 5 6 
#
# 1 135.6386 86.2996 24.4488 0.0000 0.0000 0.0000
# 2 86.2996 135.6384 24.4488 0.0000 0.0000 0.0000
# 3 24.4488 24.4488 51.4899 0.0000 0.0000 0.0000
# 4 0.0000 0.0000 0.0000 -22.1870 0.0000 0.0000
# 5 0.0000 0.0000 0.0000 0.0000 -22.1889 0.0000
# 6 0.0000 0.0000 0.0000 0.0000 0.0000 24.9919
#
#
#
# Elastic Compliance Matrix: (Units=1/GPa)
#
#
# Indices 1 2 3 4 5 6 
#
# 1 0.012650 -0.007618 -0.002389 0.000000 0.000000 0.000000
# 2 -0.007618 0.012650 -0.002389 0.000000 0.000000 0.000000
# 3 -0.002389 -0.002389 0.021690 0.000000 0.000000 0.000000
# 4 0.000000 0.000000 0.000000 -0.045071 0.000000 0.000000
# 5 0.000000 0.000000 0.000000 0.000000 -0.045068 0.000000
# 6 0.000000 0.000000 0.000000 0.000000 0.000000 0.040013
#
#
# Mechanical properties :
#
#
# Convention : Reuss Voigt Hill
#
# Bulk Modulus (GPa) = 45.05090 65.90683 55.47887
# Shear Modulus (GPa) = 172.07541 8.62785 90.35163
#
# Velocity S-wave (km/s) = 9.82873 2.20084 7.12206
# Velocity P-wave (km/s) = 12.41358 6.59232 9.93870
#
# Compressibility (1/GPa) = 0.02219711
#
# Stress axis : x y z
#
# Youngs Moduli (GPa) = 79.05083 79.05074 46.10330
#
# Poissons Ratio (x) = 0.60220 0.11016
# Poissons Ratio (y) = 0.60220 0.11016
# Poissons Ratio (z) = 0.18889 0.18889
#
# Static dielectric constant tensor:
#      x y z
#    x 3.416250 0.000000 0.000000 
#    y 0.000000 3.416250 0.000000 
#    z 0.000000 0.000000 2.843490 
# 
# 
# High freq. dielectric constant tensor:
#      x y z
#    x 1.694870 0.000000 0.000000 
#    y 0.000000 1.694870 0.000000 
#    z 0.000000 0.000000 1.632890 
# 
# From -- ./inp_files/7425.got.cif
#   From: 2010.03.12/outbox.cif.g09.slc.cpg/sg136_4_cif.got.tgz:7425.got - 2010.04.06 18:39:43.
