data_PCOD8317555
_publ_section_title
;
Structure prediction by ZEFSAII (Michael W. Deem and Ramdas Pophale) SiO2 
 PCOD8317555
Probable space group: P 42/M B C
;
_chemical_formula_sum "Si O2"
_cell_formula_units_Z 96
_cell_length_a 23.525443
_cell_length_b 23.525443
_cell_length_c 9.093861
_cell_angle_alpha 90.000000
_cell_angle_beta 90.000000
_cell_angle_gamma 90.000000
_cell_volume 5032.965254
_symmetry_space_group_name_H-M "P 42/M B C"
_symmetry_group_IT_number 135
_symmetry_cell_setting 'tetragonal'
loop_
_space_group_symop_operation_xyz
x,y,z
-y,x,1/2+z
-x,-y,z
y,-x,1/2+z
1/2+x,1/2-y,-z
1/2-x,1/2+y,-z
1/2+y,1/2+x,1/2-z
1/2-y,1/2-x,1/2-z
-x,-y,-z
y,-x,1/2-z
x,y,-z
-y,x,1/2-z
1/2-x,1/2+y,z
1/2+x,1/2-y,z
1/2-y,1/2-x,1/2+z
1/2+y,1/2+x,1/2+z
loop_
_atom_site_type_symbol
_atom_site_label
_atom_site_fract_x
_atom_site_fract_y
_atom_site_fract_z
Si Si1 0.760331 0.492134 0.830319
Si Si2 0.832666 0.794247 0.173136
Si Si3 0.688512 0.111599 0.171186
Si Si4 0.719135 0.861933 0.173015
Si Si5 0.903023 0.882274 0.335368
Si Si6 0.852199 0.001998 0.664728
O O1 0.805822 0.543128 0.806894
O O2 0.779859 0.428828 0.781746
O O3 0.710150 0.512597 0.726396
O O4 0.740310 0.489799 0.000000
O O5 0.847059 0.736689 0.259124
O O6 0.774027 0.825050 0.225300
O O7 0.882263 0.837289 0.216013
O O8 0.832582 0.782416 0.000000
O O9 0.629487 0.129487 0.250000
O O10 0.686641 0.126664 0.000000
O O11 0.663583 0.836418 0.250000
O O12 0.712250 0.856055 0.000000
O O13 0.905579 0.856439 0.500000
O O14 0.966117 0.896669 0.273906
O O15 0.862841 0.935669 0.331913
O O16 0.857591 0.025799 0.500000
#
# Coordination Sequence:
#
# PCOD8317555 Si02
#       6
#    16  16  16  16  16  16
#     4  10  21  39  60  83 114 152 187 232 290 342
#     4  11  21  35  58  87 118 152 191 235 287 345
#     4  11  23  38  59  86 119 154 191 236 288 344
#     4  10  22  38  58  86 118 151 188 233 285 343
#     4  11  23  37  55  81 113 151 196 245 290 336
#     4  11  23  37  57  82 109 151 200 241 285 341
#
# _framework density 19.074244
#
# number of rings (size 3 to 8) (size 9 to 14) (size 15 to 20)
#    0.000    1.333    3.333    2.500    0.000    6.333 
#    0.000    1.667    0.000    0.500    0.000    3.500 
#    0.000    0.000    0.000    0.000    0.000    0.000 
#
# Total GULP energy -1189732.688445 kJ/mol
# GULP energy per Si atom -12393.048838 kJ/mol
# Density = 1.903083 g / cm^3
# Si number density = 19.074244 Si / 1000 Ang^3
#
#
#
# Elastic Constant Matrix: (Units=GPa)
#
#
# Indices 1 2 3 4 5 6 
#
# 1 83.8417 43.2823 37.0241 0.0000 0.0000 0.0000
# 2 43.2823 83.8391 37.0235 0.0000 0.0000 0.0000
# 3 37.0241 37.0235 82.3199 0.0000 0.0000 0.0000
# 4 0.0000 0.0000 0.0000 31.1918 0.0000 0.0000
# 5 0.0000 0.0000 0.0000 0.0000 31.1921 0.0000
# 6 0.0000 0.0000 0.0000 0.0000 0.0000 26.0882
#
#
#
# Elastic Compliance Matrix: (Units=1/GPa)
#
#
# Indices 1 2 3 4 5 6 
#
# 1 0.017657 -0.006999 -0.004794 0.000000 0.000000 0.000000
# 2 -0.006999 0.017658 -0.004794 0.000000 0.000000 0.000000
# 3 -0.004794 -0.004794 0.016460 0.000000 0.000000 0.000000
# 4 0.000000 0.000000 0.000000 0.032060 0.000000 0.000000
# 5 0.000000 0.000000 0.000000 0.000000 0.032059 0.000000
# 6 0.000000 0.000000 0.000000 0.000000 0.000000 0.038332
#
#
# Mechanical properties :
#
#
# Convention : Reuss Voigt Hill
#
# Bulk Modulus (GPa) = 53.75757 53.85117 53.80437
# Shear Modulus (GPa) = 25.82664 26.53913 26.18289
#
# Velocity S-wave (km/s) = 3.68367 3.73414 3.70899
# Velocity P-wave (km/s) = 6.80714 6.84729 6.82725
#
# Compressibility (1/GPa) = 0.01860203
#
# Stress axis : x y z
#
# Youngs Moduli (GPa) = 56.63438 56.63268 60.75393
#
# Poissons Ratio (x) = 0.39635 0.29124
# Poissons Ratio (y) = 0.39636 0.29125
# Poissons Ratio (z) = 0.27149 0.27149
#
# Static dielectric constant tensor:
#      x y z
#    x 3.560030 0.000000 0.000000 
#    y 0.000000 3.560040 0.000000 
#    z 0.000000 0.000000 4.313640 
# 
# 
# High freq. dielectric constant tensor:
#      x y z
#    x 1.730890 0.000000 0.000000 
#    y 0.000000 1.730890 0.000000 
#    z 0.000000 0.000000 1.752590 
# 
# From -- ./inp_files/1216.got.cif
#   From: 2010.03.12/outbox.cif.g09.slc.cpg/sg135_1_cif.got.tgz:1216.got - 2010.04.06 18:31:24.
