data_PCOD8317190
_publ_section_title
;
Structure prediction by ZEFSAII (Michael W. Deem and Ramdas Pophale) SiO2 
 PCOD8317190
Probable space group: P 42/N N M
;
_chemical_formula_sum "Si O2"
_cell_formula_units_Z 112
_cell_length_a 22.769917
_cell_length_b 22.769917
_cell_length_c 12.716772
_cell_angle_alpha 90.000000
_cell_angle_beta 90.000000
_cell_angle_gamma 90.000000
_cell_volume 6593.253590
_symmetry_space_group_name_H-M "P 42/N N M"
_symmetry_group_IT_number 134
_space_group.IT_coordinate_system_code '2'
_symmetry_cell_setting 'tetragonal'
loop_
_space_group_symop_operation_xyz
x,y,z
1/2-y,x,1/2+z
1/2-x,1/2-y,z
y,1/2-x,1/2+z
x,1/2-y,1/2-z
1/2-x,y,1/2-z
y,x,-z
1/2-y,1/2-x,-z
-x,-y,-z
1/2+y,-x,1/2-z
1/2+x,1/2+y,-z
-y,1/2+x,1/2-z
-x,1/2+y,1/2+z
1/2+x,-y,1/2+z
-y,-x,z
1/2+y,1/2+x,z
loop_
_atom_site_type_symbol
_atom_site_label
_atom_site_fract_x
_atom_site_fract_y
_atom_site_fract_z
Si Si1 0.032676 0.868703 0.546072
Si Si2 0.841839 0.251650 0.941385
Si Si3 0.523761 0.925004 0.768656
Si Si4 0.516077 0.385240 0.685539
Si Si5 0.593904 0.995304 0.460422
Si Si6 0.287359 0.619439 0.651419
Si Si7 0.334508 0.933600 0.383011
O O1 0.078383 0.921618 0.540192
O O2 0.006440 0.857107 0.429901
O O3 0.063524 0.809867 0.586460
O O4 0.981304 0.883795 0.628817
O O5 0.792698 0.207302 0.900153
O O6 0.818712 0.318712 0.909495
O O7 0.904981 0.231039 0.895161
O O8 0.844206 0.248142 0.068480
O O9 0.514468 0.887582 0.661534
O O10 0.474365 0.974365 0.772772
O O11 0.587595 0.955179 0.771864
O O12 0.564055 0.435946 0.679468
O O13 0.536629 0.335891 0.768258
O O14 0.544330 0.044330 0.472308
O O15 0.650544 0.016891 0.528053
O O16 0.566540 0.933461 0.500000
O O17 0.250000 0.597857 0.750000
O O18 0.341262 0.658739 0.694550
O O19 0.381914 0.881914 0.394236
#
# Coordination Sequence:
#
# PCOD8317190 Si02
#       7
#    16  16  16  16  16  16  16
#     4   9  18  28  40  58  78 102 130 159 202 266
#     4   9  18  31  45  59  73  97 143 196 241 279
#     4   9  15  23  38  60  85 107 122 145 189 258
#     4   9  15  26  41  59  83 105 123 148 198 269
#     4   9  14  21  34  58  87 106 122 147 195 266
#     4  10  20  32  44  57  73  98 136 187 238 275
#     4   9  16  25  41  60  80 105 128 165 219 272
#
# _framework density 16.987062000000002
#
# number of rings (size 3 to 8) (size 9 to 14) (size 15 to 20)
#    0.000    2.857    1.429    0.857    2.000    2.429 
#    0.000    0.714    0.000    3.429    0.000   12.000 
#    0.000    0.000    0.000    0.000    0.000    0.000 
#
# Total GULP energy -1387471.229700 kJ/mol
# GULP energy per Si atom -12388.135979 kJ/mol
# Density = 1.694840 g / cm^3
# Si number density = 16.987062 Si / 1000 Ang^3
#
#
#
# Elastic Constant Matrix: (Units=GPa)
#
#
# Indices 1 2 3 4 5 6 
#
# 1 42.2820 39.5425 40.8537 0.0000 0.0000 0.0000
# 2 39.5425 42.2825 40.8540 0.0000 0.0000 0.0000
# 3 40.8537 40.8540 148.1352 0.0000 0.0000 0.0000
# 4 0.0000 0.0000 0.0000 17.7173 0.0000 0.0000
# 5 0.0000 0.0000 0.0000 0.0000 17.7172 0.0000
# 6 0.0000 0.0000 0.0000 0.0000 0.0000 33.6805
#
#
#
# Elastic Compliance Matrix: (Units=1/GPa)
#
#
# Indices 1 2 3 4 5 6 
#
# 1 0.190933 -0.174066 -0.004651 0.000000 0.000000 0.000000
# 2 -0.174066 0.190932 -0.004652 0.000000 0.000000 0.000000
# 3 -0.004651 -0.004652 0.009316 0.000000 0.000000 0.000000
# 4 0.000000 0.000000 0.000000 0.056442 0.000000 0.000000
# 5 0.000000 0.000000 0.000000 0.000000 0.056442 0.000000
# 6 0.000000 0.000000 0.000000 0.000000 0.000000 0.029691
#
#
# Mechanical properties :
#
#
# Convention : Reuss Voigt Hill
#
# Bulk Modulus (GPa) = 40.91236 52.80003 46.85619
# Shear Modulus (GPa) = 5.50272 21.25297 13.37784
#
# Velocity S-wave (km/s) = 1.80177 3.54096 2.80934
# Velocity P-wave (km/s) = 5.33528 6.91866 6.17791
#
# Compressibility (1/GPa) = 0.02444249
#
# Stress axis : x y z
#
# Youngs Moduli (GPa) = 5.23744 5.23748 107.33975
#
# Poissons Ratio (x) = 0.91167 0.49927
# Poissons Ratio (y) = 0.91166 0.49930
# Poissons Ratio (z) = 0.02436 0.02436
#
# Static dielectric constant tensor:
#      x y z
#    x 2.914770 0.000000 0.000000 
#    y 0.000000 2.914770 0.000000 
#    z 0.000000 0.000000 3.466660 
# 
# 
# High freq. dielectric constant tensor:
#      x y z
#    x 1.600300 0.000000 0.000000 
#    y 0.000000 1.600300 0.000000 
#    z 0.000000 0.000000 1.676240 
# 
# From -- ./inp_files/5249.got.cif
#   From: 2010.03.12/outbox.cif.g09.slc.cpg/sg134_3_cif.got.tgz:5249.got - 2010.04.06 18:17:22.
