data_PCOD8317197
_publ_section_title
;
Structure prediction by ZEFSAII (Michael W. Deem and Ramdas Pophale) SiO2 
 PCOD8317197
Probable space group: P 42/N N M
;
_chemical_formula_sum "Si O2"
_cell_formula_units_Z 88
_cell_length_a 16.711589
_cell_length_b 16.711589
_cell_length_c 17.123055
_cell_angle_alpha 90.000000
_cell_angle_beta 90.000000
_cell_angle_gamma 90.000000
_cell_volume 4782.078974
_symmetry_space_group_name_H-M "P 42/N N M"
_symmetry_group_IT_number 134
_space_group.IT_coordinate_system_code '2'
_symmetry_cell_setting 'tetragonal'
loop_
_space_group_symop_operation_xyz
x,y,z
1/2-y,x,1/2+z
1/2-x,1/2-y,z
y,1/2-x,1/2+z
x,1/2-y,1/2-z
1/2-x,y,1/2-z
y,x,-z
1/2-y,1/2-x,-z
-x,-y,-z
1/2+y,-x,1/2-z
1/2+x,1/2+y,-z
-y,1/2+x,1/2-z
-x,1/2+y,1/2+z
1/2+x,-y,1/2+z
-y,-x,z
1/2+y,1/2+x,z
loop_
_atom_site_type_symbol
_atom_site_label
_atom_site_fract_x
_atom_site_fract_y
_atom_site_fract_z
Si Si1 0.961412 0.750000 0.250000
Si Si2 0.120711 0.750184 0.535772
Si Si3 0.658880 0.894199 0.236734
Si Si4 0.184988 0.561105 0.120370
Si Si5 0.068589 0.442221 0.911380
Si Si6 0.184114 0.947947 0.813727
O O1 0.904181 0.673832 0.257724
O O2 0.023344 0.749692 0.322066
O O3 0.176093 0.823908 0.564214
O O4 0.175781 0.675781 0.510768
O O5 0.065550 0.774799 0.463884
O O6 0.058109 0.726035 0.602284
O O7 0.750000 0.862638 0.250000
O O8 0.644010 0.929568 0.148087
O O9 0.646181 0.964773 0.299726
O O10 0.149105 0.649105 0.144364
O O11 0.111377 0.501418 0.122096
O O12 0.034832 0.534832 0.912534
O O13 0.087525 0.412476 0.000000
O O14 0.250000 0.928243 0.750000
O O15 0.115166 0.884835 0.805076
#
# Coordination Sequence:
#
# PCOD8317197 Si02
#       6
#     8  16  16  16  16  16
#     4  10  21  40  56  75 108 142 186 246 294 333
#     4   9  18  33  52  79 115 146 176 222 279 342
#     4  10  21  35  55  77 109 150 190 230 280 345
#     4   9  19  34  56  79 100 133 180 230 285 336
#     4   9  18  32  54  80 105 135 181 237 282 324
#     4  10  20  32  52  82 116 151 186 221 274 344
#
# _framework density 18.402038000000001
#
# number of rings (size 3 to 8) (size 9 to 14) (size 15 to 20)
#    0.000    2.545    0.000    1.364    5.091    2.364 
#    0.000    0.909    0.000    3.273    0.000    0.000 
#    0.000    0.000    0.000    0.000    0.000    0.000 
#
# Total GULP energy -1090328.783014 kJ/mol
# GULP energy per Si atom -12390.099807 kJ/mol
# Density = 1.836015 g / cm^3
# Si number density = 18.402038 Si / 1000 Ang^3
#
#
#
# Elastic Constant Matrix: (Units=GPa)
#
#
# Indices 1 2 3 4 5 6 
#
# 1 92.5982 43.5846 65.5470 0.0000 0.0000 0.0000
# 2 43.5846 92.5982 65.5471 0.0000 0.0000 0.0000
# 3 65.5470 65.5471 113.8304 0.0000 0.0000 0.0000
# 4 0.0000 0.0000 0.0000 32.2562 0.0000 0.0000
# 5 0.0000 0.0000 0.0000 0.0000 32.2562 0.0000
# 6 0.0000 0.0000 0.0000 0.0000 0.0000 21.9215
#
#
#
# Elastic Compliance Matrix: (Units=1/GPa)
#
#
# Indices 1 2 3 4 5 6 
#
# 1 0.018439 -0.001963 -0.009487 0.000000 0.000000 0.000000
# 2 -0.001963 0.018439 -0.009487 0.000000 0.000000 0.000000
# 3 -0.009487 -0.009487 0.019711 0.000000 0.000000 0.000000
# 4 0.000000 0.000000 0.000000 0.031002 0.000000 0.000000
# 5 0.000000 0.000000 0.000000 0.000000 0.031002 0.000000
# 6 0.000000 0.000000 0.000000 0.000000 0.000000 0.045617
#
#
# Mechanical properties :
#
#
# Convention : Reuss Voigt Hill
#
# Bulk Modulus (GPa) = 67.96402 72.04268 70.00335
# Shear Modulus (GPa) = 23.69773 25.57668 24.63720
#
# Velocity S-wave (km/s) = 3.59245 3.73216 3.66297
# Velocity P-wave (km/s) = 7.36347 7.60304 7.48422
#
# Compressibility (1/GPa) = 0.01471367
#
# Stress axis : x y z
#
# Youngs Moduli (GPa) = 54.23234 54.23236 50.73267
#
# Poissons Ratio (x) = 0.10647 0.48132
# Poissons Ratio (y) = 0.10647 0.48132
# Poissons Ratio (z) = 0.51452 0.51452
#
# Static dielectric constant tensor:
#      x y z
#    x 3.417650 0.000000 0.000000 
#    y 0.000000 3.417650 0.000000 
#    z 0.000000 0.000000 3.459860 
# 
# 
# High freq. dielectric constant tensor:
#      x y z
#    x 1.710210 0.000000 0.000000 
#    y 0.000000 1.710210 0.000000 
#    z 0.000000 0.000000 1.707160 
# 
# From -- ./inp_files/6473.got.cif
#   From: 2010.03.12/outbox.cif.g09.slc.cpg/sg134_4_cif.got.tgz:6473.got - 2010.04.06 18:17:22.
