data_PCOD8317837
_publ_section_title
;
Structure prediction by ZEFSAII (Michael W. Deem and Ramdas Pophale) SiO2 
 PCOD8317837
Probable space group: P 42/M N M
;
_chemical_formula_sum "Si O2"
_cell_formula_units_Z 80
_cell_length_a 18.736683
_cell_length_b 18.736683
_cell_length_c 14.460779
_cell_angle_alpha 90.000000
_cell_angle_beta 90.000000
_cell_angle_gamma 90.000000
_cell_volume 5076.648649
_symmetry_space_group_name_H-M "P 42/M N M"
_symmetry_group_IT_number 136
_symmetry_cell_setting 'tetragonal'
loop_
_space_group_symop_operation_xyz
x,y,z
1/2-y,1/2+x,1/2+z
-x,-y,z
1/2+y,1/2-x,1/2+z
1/2+x,1/2-y,1/2-z
1/2-x,1/2+y,1/2-z
y,x,-z
-y,-x,-z
-x,-y,-z
1/2+y,1/2-x,1/2-z
x,y,-z
1/2-y,1/2+x,1/2-z
1/2-x,1/2+y,1/2+z
1/2+x,1/2-y,1/2+z
-y,-x,z
y,x,z
loop_
_atom_site_type_symbol
_atom_site_label
_atom_site_fract_x
_atom_site_fract_y
_atom_site_fract_z
Si Si1 0.526291 0.355129 0.102355
Si Si2 0.642146 0.642146 0.608605
Si Si3 0.299856 0.067630 0.605258
Si Si4 0.196839 0.397243 0.392919
Si Si5 0.987989 0.385311 0.249319
Si Si6 0.439894 0.439894 0.759749
O O1 0.581856 0.418145 0.098453
O O2 0.567873 0.283469 0.129796
O O3 0.468997 0.373204 0.180923
O O4 0.490420 0.347839 0.000000
O O5 0.629781 0.629781 0.500000
O O6 0.624343 0.723434 0.636951
O O7 0.588993 0.588993 0.662264
O O8 0.314869 0.047102 0.500000
O O9 0.328795 0.146822 0.626727
O O10 0.337825 0.005334 0.662178
O O11 0.194533 0.420329 0.500000
O O12 0.166321 0.463522 0.334024
O O13 0.927153 0.440712 0.281633
O O14 0.500000 0.500000 0.740358
#
# Coordination Sequence:
#
# PCOD8317837 Si02
#       6
#    16   8  16  16  16   8
#     4   9  17  28  45  67  91 115 140 174 217 262
#     4  10  20  32  47  64  86 114 147 183 215 248
#     4   9  17  28  44  66  89 114 144 177 214 256
#     4   9  18  30  45  65  87 113 145 180 216 251
#     4   9  17  29  44  63  89 117 144 176 212 254
#     4  10  19  31  46  65  89 116 144 176 214 258
#
# _framework density 15.758426
#
# number of rings (size 3 to 8) (size 9 to 14) (size 15 to 20)
#    0.000    2.800    0.000    1.500    1.400    2.200 
#    0.000    4.000    0.000    0.000    0.000    0.000 
#    0.000    0.000    0.000    0.000    0.000    0.000 
#
# Total GULP energy -991688.490464 kJ/mol
# GULP energy per Si atom -12396.106131 kJ/mol
# Density = 1.572256 g / cm^3
# Si number density = 15.758426 Si / 1000 Ang^3
#
#
#
# Elastic Constant Matrix: (Units=GPa)
#
#
# Indices 1 2 3 4 5 6 
#
# 1 77.3784 30.0070 47.1120 0.0000 0.0000 0.0000
# 2 30.0070 77.3784 47.1120 0.0000 0.0000 0.0000
# 3 47.1120 47.1120 76.4088 0.0000 0.0000 0.0000
# 4 0.0000 0.0000 0.0000 24.4947 0.0000 0.0000
# 5 0.0000 0.0000 0.0000 0.0000 24.4947 0.0000
# 6 0.0000 0.0000 0.0000 0.0000 0.0000 17.4009
#
#
#
# Elastic Compliance Matrix: (Units=1/GPa)
#
#
# Indices 1 2 3 4 5 6 
#
# 1 0.020699 -0.000411 -0.012509 0.000000 0.000000 0.000000
# 2 -0.000411 0.020699 -0.012509 0.000000 0.000000 0.000000
# 3 -0.012509 -0.012509 0.028514 0.000000 0.000000 0.000000
# 4 0.000000 0.000000 0.000000 0.040825 0.000000 0.000000
# 5 0.000000 0.000000 0.000000 0.000000 0.040825 0.000000
# 6 0.000000 0.000000 0.000000 0.000000 0.000000 0.057468
#
#
# Mechanical properties :
#
#
# Convention : Reuss Voigt Hill
#
# Bulk Modulus (GPa) = 52.48565 53.29195 52.88880
# Shear Modulus (GPa) = 18.77999 20.40703 19.59351
#
# Velocity S-wave (km/s) = 3.45591 3.60250 3.52997
# Velocity P-wave (km/s) = 7.02162 7.15510 7.08868
#
# Compressibility (1/GPa) = 0.01905283
#
# Stress axis : x y z
#
# Youngs Moduli (GPa) = 48.31109 48.31109 35.07091
#
# Poissons Ratio (x) = 0.01984 0.43872
# Poissons Ratio (y) = 0.01984 0.43872
# Poissons Ratio (z) = 0.60435 0.60435
#
# Static dielectric constant tensor:
#      x y z
#    x 3.024900 0.000000 0.000000 
#    y 0.000000 3.024900 0.000000 
#    z 0.000000 0.000000 3.036070 
# 
# 
# High freq. dielectric constant tensor:
#      x y z
#    x 1.602660 0.000000 0.000000 
#    y 0.000000 1.602660 0.000000 
#    z 0.000000 0.000000 1.599460 
# 
# From -- ./inp_files/4934.got.cif
#   From: 2010.03.12/outbox.cif.g09.slc.cpg/sg136_3_cif.got.tgz:4934.got - 2010.04.06 18:39:43.
