data_PCOD8317185
_publ_section_title
;
Structure prediction by ZEFSAII (Michael W. Deem and Ramdas Pophale) SiO2 
 PCOD8317185
Probable space group: P 42/N N M
;
_chemical_formula_sum "Si O2"
_cell_formula_units_Z 48
_cell_length_a 13.446524
_cell_length_b 13.446524
_cell_length_c 11.002628
_cell_angle_alpha 90.000000
_cell_angle_beta 90.000000
_cell_angle_gamma 90.000000
_cell_volume 1989.374251
_symmetry_space_group_name_H-M "P 42/N N M"
_symmetry_group_IT_number 134
_space_group.IT_coordinate_system_code '2'
_symmetry_cell_setting 'tetragonal'
loop_
_space_group_symop_operation_xyz
x,y,z
1/2-y,x,1/2+z
1/2-x,1/2-y,z
y,1/2-x,1/2+z
x,1/2-y,1/2-z
1/2-x,y,1/2-z
y,x,-z
1/2-y,1/2-x,-z
-x,-y,-z
1/2+y,-x,1/2-z
1/2+x,1/2+y,-z
-y,1/2+x,1/2-z
-x,1/2+y,1/2+z
1/2+x,-y,1/2+z
-y,-x,z
1/2+y,1/2+x,z
loop_
_atom_site_type_symbol
_atom_site_label
_atom_site_fract_x
_atom_site_fract_y
_atom_site_fract_z
Si Si1 0.983007 0.322186 0.457512
Si Si2 0.466983 0.533018 0.367069
Si Si3 0.329112 0.829112 0.013788
Si Si4 0.101192 0.148607 0.806350
O O1 0.924964 0.424964 0.427973
O O2 0.911811 0.227643 0.431495
O O3 0.082853 0.314539 0.375460
O O4 0.013552 0.322546 0.599409
O O5 0.500000 0.500000 0.500000
O O6 0.382151 0.617850 0.373636
O O7 0.421294 0.438732 0.300126
O O8 0.250000 0.750000 0.066369
O O9 0.147133 0.250000 0.750000
#
# Coordination Sequence:
#
# PCOD8317185 Si02
#       4
#    16   8   8  16
#     4  10  19  36  67 104 147 188 240 309 379 427
#     4  12  24  41  65 102 148 198 237 295 375 440
#     4  10  22  40  69 110 144 180 251 309 363 451
#     4  11  20  37  68 100 143 195 242 301 365 443
#
# _framework density 24.128188999999999
#
# number of rings (size 3 to 8) (size 9 to 14) (size 15 to 20)
#    0.000    1.333    6.667    1.000    0.000    0.000 
#    3.000    1.667    3.667    6.000    0.000    0.000 
#    0.000    5.333    0.000    0.167    0.000    0.000 
#
# Total GULP energy -595116.230923 kJ/mol
# GULP energy per Si atom -12398.254811 kJ/mol
# Density = 2.407327 g / cm^3
# Si number density = 24.128189 Si / 1000 Ang^3
#
#
#
# Elastic Constant Matrix: (Units=GPa)
#
#
# Indices 1 2 3 4 5 6 
#
# 1 120.8439 51.7324 49.6448 0.0000 0.0000 0.0000
# 2 51.7324 120.8439 49.6448 0.0000 0.0000 0.0000
# 3 49.6448 49.6448 128.6682 0.0000 0.0000 0.0000
# 4 0.0000 0.0000 0.0000 29.7915 0.0000 0.0000
# 5 0.0000 0.0000 0.0000 0.0000 29.7915 0.0000
# 6 0.0000 0.0000 0.0000 0.0000 0.0000 50.4711
#
#
#
# Elastic Compliance Matrix: (Units=1/GPa)
#
#
# Indices 1 2 3 4 5 6 
#
# 1 0.010959 -0.003511 -0.002874 0.000000 0.000000 0.000000
# 2 -0.003511 0.010959 -0.002874 0.000000 0.000000 0.000000
# 3 -0.002874 -0.002874 0.009989 0.000000 0.000000 0.000000
# 4 0.000000 0.000000 0.000000 0.033567 0.000000 0.000000
# 5 0.000000 0.000000 0.000000 0.000000 0.033567 0.000000
# 6 0.000000 0.000000 0.000000 0.000000 0.000000 0.019813
#
#
# Mechanical properties :
#
#
# Convention : Reuss Voigt Hill
#
# Bulk Modulus (GPa) = 74.67950 74.71111 74.69531
# Shear Modulus (GPa) = 35.25274 36.63308 35.94291
#
# Velocity S-wave (km/s) = 3.82653 3.90072 3.86380
# Velocity P-wave (km/s) = 7.10925 7.16373 7.13654
#
# Compressibility (1/GPa) = 0.01339056
#
# Stress axis : x y z
#
# Youngs Moduli (GPa) = 91.25240 91.25240 100.10567
#
# Poissons Ratio (x) = 0.32037 0.28767
# Poissons Ratio (y) = 0.32037 0.28767
# Poissons Ratio (z) = 0.26223 0.26223
#
# Static dielectric constant tensor:
#      x y z
#    x 4.353930 0.000000 0.000000 
#    y 0.000000 4.353930 0.000000 
#    z 0.000000 0.000000 4.048010 
# 
# 
# High freq. dielectric constant tensor:
#      x y z
#    x 1.958610 0.000000 0.000000 
#    y 0.000000 1.958610 0.000000 
#    z 0.000000 0.000000 1.936210 
# 
# From -- ./inp_files/4206.got.cif
#   From: 2010.03.12/outbox.cif.g09.slc.cpg/sg134_3_cif.got.tgz:4206.got - 2010.04.06 18:17:22.
