data_PCOD8317681
_publ_section_title
;
Structure prediction by ZEFSAII (Michael W. Deem and Ramdas Pophale) SiO2 
 PCOD8317681
Probable space group: P 42/M N M
;
_chemical_formula_sum "Si O2"
_cell_formula_units_Z 80
_cell_length_a 14.960190
_cell_length_b 14.960190
_cell_length_c 21.741831
_cell_angle_alpha 90.000000
_cell_angle_beta 90.000000
_cell_angle_gamma 90.000000
_cell_volume 4865.980163
_symmetry_space_group_name_H-M "P 42/M N M"
_symmetry_group_IT_number 136
_symmetry_cell_setting 'tetragonal'
loop_
_space_group_symop_operation_xyz
x,y,z
1/2-y,1/2+x,1/2+z
-x,-y,z
1/2+y,1/2-x,1/2+z
1/2+x,1/2-y,1/2-z
1/2-x,1/2+y,1/2-z
y,x,-z
-y,-x,-z
-x,-y,-z
1/2+y,1/2-x,1/2-z
x,y,-z
1/2-y,1/2+x,1/2-z
1/2-x,1/2+y,1/2+z
1/2+x,1/2-y,1/2+z
-y,-x,z
y,x,z
loop_
_atom_site_type_symbol
_atom_site_label
_atom_site_fract_x
_atom_site_fract_y
_atom_site_fract_z
Si Si1 0.070497 0.785687 0.930181
Si Si2 0.895408 0.400020 0.891706
Si Si3 0.604543 0.247105 0.354662
Si Si4 0.412463 0.095252 0.071028
Si Si5 0.066167 0.373324 0.742516
O O1 0.135649 0.864352 0.907977
O O2 0.125508 0.691481 0.927842
O O3 0.985439 0.785343 0.885577
O O4 0.038673 0.801981 0.000000
O O5 0.856518 0.490604 0.923668
O O6 0.854999 0.389307 0.823685
O O7 0.003189 0.411258 0.889771
O O8 0.673560 0.326441 0.347408
O O9 0.649573 0.169424 0.397946
O O10 0.582832 0.210532 0.286686
O O11 0.391301 0.074602 0.000000
O O12 0.111402 0.461402 0.771475
#
# Coordination Sequence:
#
# PCOD8317681 Si02
#       5
#    16  16  16  16  16
#     4  10  21  36  53  74 103 139 174 208 248 299
#     4  10  16  29  50  71 100 126 160 211 255 298
#     4  11  22  34  49  74 104 136 174 208 244 297
#     4  10  17  28  49  76 101 129 163 207 259 302
#     4  11  17  32  52  72  98 129 161 211 260 303
#
# _framework density 16.440676
#
# number of rings (size 3 to 8) (size 9 to 14) (size 15 to 20)
#    0.000    1.600    6.000    5.400    0.000    2.800 
#    0.000    1.000    0.000    0.000    0.000    0.000 
#    0.000    0.800    0.000    4.200    0.000    0.000 
#
# Total GULP energy -991345.304929 kJ/mol
# GULP energy per Si atom -12391.816312 kJ/mol
# Density = 1.640326 g / cm^3
# Si number density = 16.440676 Si / 1000 Ang^3
#
#
#
# Elastic Constant Matrix: (Units=GPa)
#
#
# Indices 1 2 3 4 5 6 
#
# 1 80.7488 51.3482 37.6533 0.0000 0.0000 0.0000
# 2 51.3482 80.7488 37.6533 0.0000 0.0000 0.0000
# 3 37.6533 37.6533 107.9952 0.0000 0.0000 0.0000
# 4 0.0000 0.0000 0.0000 16.7747 0.0000 0.0000
# 5 0.0000 0.0000 0.0000 0.0000 16.7747 0.0000
# 6 0.0000 0.0000 0.0000 0.0000 0.0000 13.7348
#
#
#
# Elastic Compliance Matrix: (Units=1/GPa)
#
#
# Indices 1 2 3 4 5 6 
#
# 1 0.021731 -0.012282 -0.003294 0.000000 0.000000 0.000000
# 2 -0.012282 0.021731 -0.003294 0.000000 0.000000 0.000000
# 3 -0.003294 -0.003294 0.011557 0.000000 0.000000 0.000000
# 4 0.000000 0.000000 0.000000 0.059614 0.000000 0.000000
# 5 0.000000 0.000000 0.000000 0.000000 0.059614 0.000000
# 6 0.000000 0.000000 0.000000 0.000000 0.000000 0.072808
#
#
# Mechanical properties :
#
#
# Convention : Reuss Voigt Hill
#
# Bulk Modulus (GPa) = 57.88249 58.08915 57.98582
# Shear Modulus (GPa) = 17.20855 18.97936 18.09395
#
# Velocity S-wave (km/s) = 3.23879 3.40135 3.32107
# Velocity P-wave (km/s) = 7.01924 7.12986 7.07476
#
# Compressibility (1/GPa) = 0.01727638
#
# Stress axis : x y z
#
# Youngs Moduli (GPa) = 46.01814 46.01814 86.52954
#
# Poissons Ratio (x) = 0.56521 0.28504
# Poissons Ratio (y) = 0.56521 0.28504
# Poissons Ratio (z) = 0.15159 0.15159
#
# Static dielectric constant tensor:
#      x y z
#    x 3.016710 0.000000 0.000000 
#    y 0.000000 3.016710 0.000000 
#    z 0.000000 0.000000 3.133760 
# 
# 
# High freq. dielectric constant tensor:
#      x y z
#    x 1.599100 0.000000 0.000000 
#    y 0.000000 1.599100 0.000000 
#    z 0.000000 0.000000 1.649010 
# 
# From -- ./inp_files/7245.got.cif
#   From: 2010.03.12/outbox.cif.g09.slc.cpg/sg136_4_cif.got.tgz:7245.got - 2010.04.06 18:39:43.
