data_PCOD8317904
_publ_section_title
;
Structure prediction by ZEFSAII (Michael W. Deem and Ramdas Pophale) SiO2 
 PCOD8317904
Probable space group: P 42/M N M
;
_chemical_formula_sum "Si O2"
_cell_formula_units_Z 112
_cell_length_a 15.174325
_cell_length_b 15.174325
_cell_length_c 24.725106
_cell_angle_alpha 90.000000
_cell_angle_beta 90.000000
_cell_angle_gamma 90.000000
_cell_volume 5693.206349
_symmetry_space_group_name_H-M "P 42/M N M"
_symmetry_group_IT_number 136
_symmetry_cell_setting 'tetragonal'
loop_
_space_group_symop_operation_xyz
x,y,z
1/2-y,1/2+x,1/2+z
-x,-y,z
1/2+y,1/2-x,1/2+z
1/2+x,1/2-y,1/2-z
1/2-x,1/2+y,1/2-z
y,x,-z
-y,-x,-z
-x,-y,-z
1/2+y,1/2-x,1/2-z
x,y,-z
1/2-y,1/2+x,1/2-z
1/2-x,1/2+y,1/2+z
1/2+x,1/2-y,1/2+z
-y,-x,z
y,x,z
loop_
_atom_site_type_symbol
_atom_site_label
_atom_site_fract_x
_atom_site_fract_y
_atom_site_fract_z
Si Si1 0.726304 0.979454 0.938443
Si Si2 0.496756 0.644244 0.657174
Si Si3 0.785268 0.076174 0.664646
Si Si4 0.138816 0.601242 0.060850
Si Si5 0.261102 0.120639 0.663353
Si Si6 0.094526 0.674926 0.560560
Si Si7 0.381322 0.238670 0.721730
O O1 0.811903 0.981863 0.901213
O O2 0.655460 0.053258 0.921753
O O3 0.678043 0.886803 0.931271
O O4 0.758113 0.992888 0.000000
O O5 0.406418 0.593583 0.675456
O O6 0.573530 0.573530 0.650663
O O7 0.525003 0.721953 0.699474
O O8 0.885209 0.114792 0.669002
O O9 0.749788 0.102303 0.605821
O O10 0.727403 0.117973 0.713336
O O11 0.781169 0.973196 0.676205
O O12 0.219221 0.628316 0.099533
O O13 0.119953 0.496512 0.067562
O O14 0.167894 0.624231 0.000000
O O15 0.187297 0.187297 0.681995
O O16 0.352009 0.144020 0.696158
O O17 0.096656 0.717075 0.500000
O O18 0.308525 0.308525 0.702362
#
# Coordination Sequence:
#
# PCOD8317904 Si02
#       7
#    16  16  16  16  16  16  16
#     4  10  19  32  55  83 112 148 189 229 274 337
#     4  10  21  36  54  78 112 149 182 227 281 327
#     4  10  22  38  58  84 114 148 186 232 285 342
#     4   9  17  32  55  82 112 145 184 232 281 327
#     4  10  20  36  59  84 113 148 185 233 283 330
#     4   9  19  35  55  81 111 144 185 231 283 338
#     4   9  19  38  57  77 109 146 191 235 275 332
#
# _framework density 19.67257
#
# number of rings (size 3 to 8) (size 9 to 14) (size 15 to 20)
#    0.000    2.429    1.429    0.429    0.000    5.429 
#    0.000    6.429    0.000    0.000    0.000    4.000 
#    0.000    0.000    0.000    0.000    0.000    0.000 
#
# Total GULP energy -1387873.159073 kJ/mol
# GULP energy per Si atom -12391.724635 kJ/mol
# Density = 1.962779 g / cm^3
# Si number density = 19.672570 Si / 1000 Ang^3
#
#
#
# Elastic Constant Matrix: (Units=GPa)
#
#
# Indices 1 2 3 4 5 6 
#
# 1 82.7153 45.4869 44.9012 0.0000 0.0000 0.0000
# 2 45.4869 82.7153 44.9012 0.0000 0.0000 0.0000
# 3 44.9012 44.9012 111.2129 0.0000 0.0000 0.0000
# 4 0.0000 0.0000 0.0000 22.8839 0.0000 0.0000
# 5 0.0000 0.0000 0.0000 0.0000 22.8839 0.0000
# 6 0.0000 0.0000 0.0000 0.0000 0.0000 32.3721
#
#
#
# Elastic Compliance Matrix: (Units=1/GPa)
#
#
# Indices 1 2 3 4 5 6 
#
# 1 0.018869 -0.007993 -0.004391 0.000000 0.000000 0.000000
# 2 -0.007993 0.018869 -0.004391 0.000000 0.000000 0.000000
# 3 -0.004391 -0.004391 0.012537 0.000000 0.000000 0.000000
# 4 0.000000 0.000000 0.000000 0.043699 0.000000 0.000000
# 5 0.000000 0.000000 0.000000 0.000000 0.043699 0.000000
# 6 0.000000 0.000000 0.000000 0.000000 0.000000 0.030891
#
#
# Mechanical properties :
#
#
# Convention : Reuss Voigt Hill
#
# Bulk Modulus (GPa) = 59.79013 60.80243 60.29628
# Shear Modulus (GPa) = 24.07462 25.05162 24.56312
#
# Velocity S-wave (km/s) = 3.50203 3.57239 3.53738
# Velocity P-wave (km/s) = 6.84185 6.92750 6.88481
#
# Compressibility (1/GPa) = 0.01672517
#
# Stress axis : x y z
#
# Youngs Moduli (GPa) = 52.99804 52.99804 79.76082
#
# Poissons Ratio (x) = 0.42359 0.35024
# Poissons Ratio (y) = 0.42359 0.35024
# Poissons Ratio (z) = 0.23272 0.23272
#
# Static dielectric constant tensor:
#      x y z
#    x 3.508760 0.000000 0.000000 
#    y 0.000000 3.508760 0.000000 
#    z 0.000000 0.000000 3.661970 
# 
# 
# High freq. dielectric constant tensor:
#      x y z
#    x 1.750420 0.000000 0.000000 
#    y 0.000000 1.750420 0.000000 
#    z 0.000000 0.000000 1.776180 
# 
# From -- ./inp_files/8494.got.cif
#   From: 2010.03.12/outbox.cif.g09.slc.cpg/sg136_5_cif.got.tgz:8494.got - 2010.04.06 18:39:43.
