data_PCOD8317559
_publ_section_title
;
Structure prediction by ZEFSAII (Michael W. Deem and Ramdas Pophale) SiO2 
 PCOD8317559
Probable space group: P 42/M B C
;
_chemical_formula_sum "Si O2"
_cell_formula_units_Z 96
_cell_length_a 23.733586
_cell_length_b 23.733586
_cell_length_c 8.726964
_cell_angle_alpha 90.000000
_cell_angle_beta 90.000000
_cell_angle_gamma 90.000000
_cell_volume 4915.751374
_symmetry_space_group_name_H-M "P 42/M B C"
_symmetry_group_IT_number 135
_symmetry_cell_setting 'tetragonal'
loop_
_space_group_symop_operation_xyz
x,y,z
-y,x,1/2+z
-x,-y,z
y,-x,1/2+z
1/2+x,1/2-y,-z
1/2-x,1/2+y,-z
1/2+y,1/2+x,1/2-z
1/2-y,1/2-x,1/2-z
-x,-y,-z
y,-x,1/2-z
x,y,-z
-y,x,1/2-z
1/2-x,1/2+y,z
1/2+x,1/2-y,z
1/2-y,1/2-x,1/2+z
1/2+y,1/2+x,1/2+z
loop_
_atom_site_type_symbol
_atom_site_label
_atom_site_fract_x
_atom_site_fract_y
_atom_site_fract_z
Si Si1 0.349098 0.933909 0.819803
Si Si2 0.637928 0.948614 0.679597
Si Si3 0.627778 0.640610 0.677396
Si Si4 0.732964 0.430802 0.323439
Si Si5 0.462264 0.429025 0.175254
Si Si6 0.729597 0.558832 0.678520
O O1 0.380536 0.880536 0.750000
O O2 0.283517 0.927250 0.779693
O O3 0.375701 0.990783 0.751604
O O4 0.356947 0.934512 0.000000
O O5 0.597316 0.902685 0.750000
O O6 0.627829 0.953142 0.500000
O O7 0.701493 0.931181 0.719643
O O8 0.615084 0.628999 0.500000
O O9 0.620836 0.706850 0.719042
O O10 0.577242 0.622810 0.789734
O O11 0.683970 0.607021 0.724090
O O12 0.723763 0.415042 0.500000
O O13 0.708354 0.494607 0.289641
O O14 0.426227 0.484709 0.211915
O O15 0.482971 0.428128 0.000000
O O16 0.746068 0.563938 0.500000
#
# Coordination Sequence:
#
# PCOD8317559 Si02
#       6
#    16  16  16  16  16  16
#     4  11  22  38  62  89 117 148 182 222 273 333
#     4  10  21  39  62  88 118 149 183 225 274 329
#     4  11  21  33  53  79 107 143 189 234 277 330
#     4   9  19  36  56  78 111 151 189 234 283 329
#     4  11  21  33  48  68  98 133 175 228 286 339
#     4   9  20  38  56  78 111 150 190 235 283 329
#
# _framework density 19.529060000000001
#
# number of rings (size 3 to 8) (size 9 to 14) (size 15 to 20)
#    0.000    1.833    0.000    6.500    0.000    6.333 
#    0.000    2.500    0.000    2.000    0.000    0.000 
#    0.000    0.000    0.000    0.000    0.000    0.000 
#
# Total GULP energy -1189927.641611 kJ/mol
# GULP energy per Si atom -12395.079600 kJ/mol
# Density = 1.948461 g / cm^3
# Si number density = 19.529060 Si / 1000 Ang^3
#
#
#
# Elastic Constant Matrix: (Units=GPa)
#
#
# Indices 1 2 3 4 5 6 
#
# 1 69.8567 64.0734 38.9778 0.0000 0.0000 0.0000
# 2 64.0734 69.8578 38.9765 0.0000 0.0000 0.0000
# 3 38.9778 38.9765 97.8183 0.0000 0.0000 0.0000
# 4 0.0000 0.0000 0.0000 33.5496 0.0000 0.0000
# 5 0.0000 0.0000 0.0000 0.0000 33.5491 0.0000
# 6 0.0000 0.0000 0.0000 0.0000 0.0000 41.3060
#
#
#
# Elastic Compliance Matrix: (Units=1/GPa)
#
#
# Indices 1 2 3 4 5 6 
#
# 1 0.091310 -0.081587 -0.003875 0.000000 0.000000 0.000000
# 2 -0.081587 0.091306 -0.003872 0.000000 0.000000 0.000000
# 3 -0.003875 -0.003872 0.013310 0.000000 0.000000 0.000000
# 4 0.000000 0.000000 0.000000 0.029807 0.000000 0.000000
# 5 0.000000 0.000000 0.000000 0.000000 0.029807 0.000000
# 6 0.000000 0.000000 0.000000 0.000000 0.000000 0.024210
#
#
# Mechanical properties :
#
#
# Convention : Reuss Voigt Hill
#
# Bulk Modulus (GPa) = 57.94374 57.95425 57.94899
# Shear Modulus (GPa) = 10.77195 28.04793 19.40994
#
# Velocity S-wave (km/s) = 2.35113 3.79385 3.15604
# Velocity P-wave (km/s) = 6.09142 6.99510 6.55884
#
# Compressibility (1/GPa) = 0.01725812
#
# Stress axis : x y z
#
# Youngs Moduli (GPa) = 10.95176 10.95219 75.13166
#
# Poissons Ratio (x) = 0.89355 0.29117
# Poissons Ratio (y) = 0.89352 0.29088
# Poissons Ratio (z) = 0.04244 0.04240
#
# Static dielectric constant tensor:
#      x y z
#    x 3.548860 0.000000 0.000000 
#    y 0.000000 3.548860 0.000000 
#    z 0.000000 0.000000 3.601960 
# 
# 
# High freq. dielectric constant tensor:
#      x y z
#    x 1.754740 0.000000 0.000000 
#    y 0.000000 1.754740 0.000000 
#    z 0.000000 0.000000 1.765070 
# 
# From -- ./inp_files/1249.got.cif
#   From: 2010.03.12/outbox.cif.g09.slc.cpg/sg135_1_cif.got.tgz:1249.got - 2010.04.06 18:31:24.
