data_PCOD8317041
_publ_section_title
;
Structure prediction by ZEFSAII (Michael W. Deem and Ramdas Pophale) SiO2 
 PCOD8317041
Probable space group: P 42/N B C
;
_chemical_formula_sum "Si O2"
_cell_formula_units_Z 96
_cell_length_a 14.801822
_cell_length_b 14.801822
_cell_length_c 21.594922
_cell_angle_alpha 90.000000
_cell_angle_beta 90.000000
_cell_angle_gamma 90.000000
_cell_volume 4731.316427
_symmetry_space_group_name_H-M "P 42/N B C"
_symmetry_group_IT_number 133
_space_group.IT_coordinate_system_code '2'
_symmetry_cell_setting 'tetragonal'
loop_
_space_group_symop_operation_xyz
x,y,z
1/2-y,x,1/2+z
1/2-x,1/2-y,z
y,1/2-x,1/2+z
x,1/2-y,-z
1/2-x,y,-z
y,x,1/2-z
1/2-y,1/2-x,1/2-z
-x,-y,-z
1/2+y,-x,1/2-z
1/2+x,1/2+y,-z
-y,1/2+x,1/2-z
-x,1/2+y,z
1/2+x,-y,z
-y,-x,1/2+z
1/2+y,1/2+x,1/2+z
loop_
_atom_site_type_symbol
_atom_site_label
_atom_site_fract_x
_atom_site_fract_y
_atom_site_fract_z
Si Si1 0.768540 0.018324 0.628125
Si Si2 0.250000 0.600395 0.500000
Si Si3 0.764641 0.499471 0.126897
Si Si4 0.071452 0.540043 0.168540
Si Si5 0.600162 0.250000 0.500000
Si Si6 0.905471 0.080523 0.310540
Si Si7 0.330898 0.180808 0.820896
O O1 0.733525 0.034649 0.558386
O O2 0.868438 0.059734 0.630257
O O3 0.699863 0.067128 0.674906
O O4 0.767876 0.914438 0.648330
O O5 0.337642 0.662615 0.488568
O O6 0.662718 0.509691 0.149778
O O7 0.768643 0.466569 0.056698
O O8 0.817612 0.427829 0.169407
O O9 0.810542 0.596752 0.134753
O O10 0.074708 0.568453 0.239223
O O11 0.990657 0.470153 0.153296
O O12 0.250000 0.250000 0.819730
O O13 0.351873 0.148128 0.750000
#
# Coordination Sequence:
#
# PCOD8317041 Si02
#       7
#    16   8  16  16   8  16  16
#     4  12  23  43  67  98 131 180 229 272 345 408
#     4  11  24  46  65  90 136 180 221 276 338 411
#     4  12  23  43  67  98 131 180 229 272 345 408
#     4  11  23  40  65  99 135 168 220 285 345 409
#     4  11  24  46  65  90 136 180 221 276 338 411
#     4  11  23  40  65  99 135 168 220 285 345 409
#     4  11  24  46  71 100 140 179 222 281 349 413
#
# _framework density 20.290337000000001
#
# number of rings (size 3 to 8) (size 9 to 14) (size 15 to 20)
#    0.000    0.667    5.000    4.000    0.000    3.333 
#    6.000    4.167    0.000    0.000    0.000    0.000 
#    0.000    0.000    0.000    0.000    0.000    0.000 
#
# Total GULP energy -1190722.052928 kJ/mol
# GULP energy per Si atom -12403.354718 kJ/mol
# Density = 2.024416 g / cm^3
# Si number density = 20.290337 Si / 1000 Ang^3
#
#
#
# Elastic Constant Matrix: (Units=GPa)
#
#
# Indices 1 2 3 4 5 6 
#
# 1 77.1102 -2.4927 16.9807 0.0000 0.0000 0.0000
# 2 -2.4927 77.1104 16.9807 0.0000 0.0000 0.0000
# 3 16.9807 16.9807 101.7123 0.0000 0.0000 0.0000
# 4 0.0000 0.0000 0.0000 32.7093 0.0000 0.0000
# 5 0.0000 0.0000 0.0000 0.0000 32.7094 0.0000
# 6 0.0000 0.0000 0.0000 0.0000 0.0000 35.7935
#
#
#
# Elastic Compliance Matrix: (Units=1/GPa)
#
#
# Indices 1 2 3 4 5 6 
#
# 1 0.013533 0.000971 -0.002421 0.000000 0.000000 0.000000
# 2 0.000971 0.013533 -0.002421 0.000000 0.000000 0.000000
# 3 -0.002421 -0.002421 0.010640 0.000000 0.000000 0.000000
# 4 0.000000 0.000000 0.000000 0.030572 0.000000 0.000000
# 5 0.000000 0.000000 0.000000 0.000000 0.030572 0.000000
# 6 0.000000 0.000000 0.000000 0.000000 0.000000 0.027938
#
#
# Mechanical properties :
#
#
# Convention : Reuss Voigt Hill
#
# Bulk Modulus (GPa) = 33.37551 35.43004 34.40277
# Shear Modulus (GPa) = 34.59721 35.20671 34.90196
#
# Velocity S-wave (km/s) = 4.13377 4.17003 4.15194
# Velocity P-wave (km/s) = 6.26648 6.37848 6.32273
#
# Compressibility (1/GPa) = 0.02996209
#
# Stress axis : x y z
#
# Youngs Moduli (GPa) = 73.89322 73.89336 93.98379
#
# Poissons Ratio (x) = -0.07173 0.22757
# Poissons Ratio (y) = -0.07173 0.22757
# Poissons Ratio (z) = 0.17892 0.17892
#
# Static dielectric constant tensor:
#      x y z
#    x 3.828090 0.000000 0.000000 
#    y 0.000000 3.828090 0.000000 
#    z 0.000000 0.000000 3.574410 
# 
# 
# High freq. dielectric constant tensor:
#      x y z
#    x 1.802270 0.000000 0.000000 
#    y 0.000000 1.802270 0.000000 
#    z 0.000000 0.000000 1.785230 
# 
# From -- ./inp_files/6575.got.cif
#   From: 2010.03.12/outbox.cif.g09.slc.cpg/sg133_4_cif.got.tgz:6575.got - 2010.04.06 18:08:06.
