data_PCOD8317111
_publ_section_title
;
Structure prediction by ZEFSAII (Michael W. Deem and Ramdas Pophale) SiO2 
 PCOD8317111
Probable space group: P 42/N N M
;
_chemical_formula_sum "Si O2"
_cell_formula_units_Z 80
_cell_length_a 11.445475
_cell_length_b 11.445475
_cell_length_c 28.558965
_cell_angle_alpha 90.000000
_cell_angle_beta 90.000000
_cell_angle_gamma 90.000000
_cell_volume 3741.192942
_symmetry_space_group_name_H-M "P 42/N N M"
_symmetry_group_IT_number 134
_space_group.IT_coordinate_system_code '2'
_symmetry_cell_setting 'tetragonal'
loop_
_space_group_symop_operation_xyz
x,y,z
1/2-y,x,1/2+z
1/2-x,1/2-y,z
y,1/2-x,1/2+z
x,1/2-y,1/2-z
1/2-x,y,1/2-z
y,x,-z
1/2-y,1/2-x,-z
-x,-y,-z
1/2+y,-x,1/2-z
1/2+x,1/2+y,-z
-y,1/2+x,1/2-z
-x,1/2+y,1/2+z
1/2+x,-y,1/2+z
-y,-x,z
1/2+y,1/2+x,z
loop_
_atom_site_type_symbol
_atom_site_label
_atom_site_fract_x
_atom_site_fract_y
_atom_site_fract_z
Si Si1 0.182698 0.001303 0.391072
Si Si2 0.886488 0.721626 0.302297
Si Si3 0.152983 0.149908 0.053582
Si Si4 0.813168 0.491035 0.103756
Si Si5 0.985130 0.301194 0.300626
O O1 0.210270 0.026996 0.336771
O O2 0.298267 0.030314 0.422334
O O3 0.082802 0.087294 0.409236
O O4 0.132277 0.867724 0.396225
O O5 0.750000 0.750000 0.312567
O O6 0.926022 0.750000 0.250000
O O7 0.898681 0.583224 0.311615
O O8 0.250000 0.250000 0.059424
O O9 0.031695 0.193421 0.078105
O O10 0.123096 0.123096 0.000000
O O11 0.798086 0.486671 0.159899
O O12 0.862842 0.362842 0.087548
O O13 0.017043 0.250000 0.250000
O O14 0.857789 0.357789 0.299930
#
# Coordination Sequence:
#
# PCOD8317111 Si02
#       5
#    16  16  16  16  16
#     4  10  18  31  55  82 109 147 196 241 290 349
#     4  11  18  34  56  75 108 148 189 230 279 347
#     4   9  17  31  52  80 116 149 187 245 297 341
#     4  10  19  32  51  77 113 150 182 228 293 358
#     4  12  23  35  54  82 114 148 185 228 288 353
#
# _framework density 21.383552000000002
#
# number of rings (size 3 to 8) (size 9 to 14) (size 15 to 20)
#    0.000    1.600    6.000    1.200    0.000    4.600 
#    0.000    4.000    0.000    1.200    0.000    1.400 
#    0.000    0.000    0.000    0.000    0.000    0.000 
#
# Total GULP energy -991209.212031 kJ/mol
# GULP energy per Si atom -12390.115150 kJ/mol
# Density = 2.133488 g / cm^3
# Si number density = 21.383552 Si / 1000 Ang^3
#
#
#
# Elastic Constant Matrix: (Units=GPa)
#
#
# Indices 1 2 3 4 5 6 
#
# 1 67.5640 61.5736 44.3069 0.0000 0.0000 0.0000
# 2 61.5736 67.5640 44.3069 0.0000 0.0000 0.0000
# 3 44.3069 44.3069 147.6271 0.0000 0.0000 0.0000
# 4 0.0000 0.0000 0.0000 6.3147 0.0000 0.0000
# 5 0.0000 0.0000 0.0000 0.0000 6.3147 0.0000
# 6 0.0000 0.0000 0.0000 0.0000 0.0000 47.1769
#
#
#
# Elastic Compliance Matrix: (Units=1/GPa)
#
#
# Indices 1 2 3 4 5 6 
#
# 1 0.088342 -0.078590 -0.002927 0.000000 0.000000 0.000000
# 2 -0.078590 0.088342 -0.002927 0.000000 0.000000 0.000000
# 3 -0.002927 -0.002927 0.008531 0.000000 0.000000 0.000000
# 4 0.000000 0.000000 0.000000 0.158362 0.000000 0.000000
# 5 0.000000 0.000000 0.000000 0.000000 0.158362 0.000000
# 6 0.000000 0.000000 0.000000 0.000000 0.000000 0.021197
#
#
# Mechanical properties :
#
#
# Convention : Reuss Voigt Hill
#
# Bulk Modulus (GPa) = 61.24676 64.79221 63.01948
# Shear Modulus (GPa) = 7.16881 20.79910 13.98395
#
# Velocity S-wave (km/s) = 1.83297 3.12215 2.56004
# Velocity P-wave (km/s) = 5.76054 6.58505 6.18655
#
# Compressibility (1/GPa) = 0.01632740
#
# Stress axis : x y z
#
# Youngs Moduli (GPa) = 11.31961 11.31961 117.22387
#
# Poissons Ratio (x) = 0.88961 0.34310
# Poissons Ratio (y) = 0.88961 0.34310
# Poissons Ratio (z) = 0.03313 0.03313
#
# Static dielectric constant tensor:
#      x y z
#    x 3.842460 0.000000 0.000000 
#    y 0.000000 3.842460 0.000000 
#    z 0.000000 0.000000 3.762180 
# 
# 
# High freq. dielectric constant tensor:
#      x y z
#    x 1.811180 0.000000 0.000000 
#    y 0.000000 1.811180 0.000000 
#    z 0.000000 0.000000 1.832850 
# 
# From -- ./inp_files/11290.got.cif
#   From: 2010.03.12/outbox.cif.g09.slc.cpg/sg134_6_cif.got.tgz:11290.got - 2010.04.06 18:17:22.
