data_PCOD8317352
_publ_section_title
;
Structure prediction by ZEFSAII (Michael W. Deem and Ramdas Pophale) SiO2 
 PCOD8317352
Probable space group: P 42/N N M
;
_chemical_formula_sum "Si O2"
_cell_formula_units_Z 112
_cell_length_a 13.426010
_cell_length_b 13.426010
_cell_length_c 36.155289
_cell_angle_alpha 90.000000
_cell_angle_beta 90.000000
_cell_angle_gamma 90.000000
_cell_volume 6517.270848
_symmetry_space_group_name_H-M "P 42/N N M"
_symmetry_group_IT_number 134
_space_group.IT_coordinate_system_code '2'
_symmetry_cell_setting 'tetragonal'
loop_
_space_group_symop_operation_xyz
x,y,z
1/2-y,x,1/2+z
1/2-x,1/2-y,z
y,1/2-x,1/2+z
x,1/2-y,1/2-z
1/2-x,y,1/2-z
y,x,-z
1/2-y,1/2-x,-z
-x,-y,-z
1/2+y,-x,1/2-z
1/2+x,1/2+y,-z
-y,1/2+x,1/2-z
-x,1/2+y,1/2+z
1/2+x,-y,1/2+z
-y,-x,z
1/2+y,1/2+x,z
loop_
_atom_site_type_symbol
_atom_site_label
_atom_site_fract_x
_atom_site_fract_y
_atom_site_fract_z
Si Si1 0.413757 0.749284 0.569833
Si Si2 0.412295 0.255487 0.790342
Si Si3 0.336740 0.499657 0.358757
Si Si4 0.587706 0.744513 0.790342
Si Si5 0.750717 0.413757 0.930168
Si Si6 0.499656 0.336740 0.358757
Si Si7 0.996100 0.663444 0.500000
O O1 0.347492 0.652509 0.560281
O O2 0.344039 0.844039 0.577303
O O3 0.480964 0.732077 0.605839
O O4 0.489552 0.768194 0.536119
O O5 0.465843 0.250000 0.750000
O O6 0.490340 0.233781 0.822920
O O7 0.364082 0.364082 0.797241
O O8 0.326332 0.173668 0.790226
O O9 0.407588 0.592412 0.350937
O O10 0.267923 0.519037 0.394161
O O11 0.399564 0.399564 0.366036
O O12 0.534158 0.750000 0.750000
O O13 0.509660 0.766219 0.822920
O O14 0.655963 0.344037 0.922698
O O15 0.847494 0.347494 0.939720
O O16 0.731807 0.489552 0.963882
O O17 0.592413 0.407588 0.350937
O O18 0.079584 0.579584 0.500000
O O19 0.886583 0.613418 0.500000
#
# Coordination Sequence:
#
# PCOD8317352 Si02
#       7
#    16  16  16  16  16  16  16
#     4   9  17  30  47  64  84 113 145 172 205 255
#     4   8  14  26  44  63  83 111 145 175 206 250
#     4   9  17  29  45  65  88 113 142 177 214 250
#     4   8  14  26  44  63  83 111 145 175 206 250
#     4   9  17  30  47  64  84 113 145 172 205 255
#     4   9  17  29  45  65  88 113 142 177 214 250
#     4   9  17  29  46  67  88 110 140 179 216 248
#
# _framework density 17.185106999999999
#
# number of rings (size 3 to 8) (size 9 to 14) (size 15 to 20)
#    0.000    3.286    0.000    1.286    0.000    2.857 
#    0.000    2.143    0.000    6.000    0.000    0.000 
#    0.000    0.000    0.000    0.000    0.000    0.000 
#
# Total GULP energy -1388435.667018 kJ/mol
# GULP energy per Si atom -12396.747027 kJ/mol
# Density = 1.714599 g / cm^3
# Si number density = 17.185107 Si / 1000 Ang^3
#
#
#
# Elastic Constant Matrix: (Units=GPa)
#
#
# Indices 1 2 3 4 5 6 
#
# 1 55.5160 28.9605 69.5961 0.0000 0.0000 0.0000
# 2 28.9605 55.5158 69.5959 0.0000 0.0000 0.0000
# 3 69.5961 69.5959 201.1567 0.0000 0.0000 0.0000
# 4 0.0000 0.0000 0.0000 33.3462 0.0000 0.0000
# 5 0.0000 0.0000 0.0000 0.0000 33.3462 0.0000
# 6 0.0000 0.0000 0.0000 0.0000 0.0000 13.5164
#
#
#
# Elastic Compliance Matrix: (Units=1/GPa)
#
#
# Indices 1 2 3 4 5 6 
#
# 1 0.032595 -0.005062 -0.009526 0.000000 0.000000 0.000000
# 2 -0.005062 0.032596 -0.009526 0.000000 0.000000 0.000000
# 3 -0.009526 -0.009526 0.011563 0.000000 0.000000 0.000000
# 4 0.000000 0.000000 0.000000 0.029988 0.000000 0.000000
# 5 0.000000 0.000000 0.000000 0.000000 0.029988 0.000000
# 6 0.000000 0.000000 0.000000 0.000000 0.000000 0.073984
#
#
# Mechanical properties :
#
#
# Convention : Reuss Voigt Hill
#
# Bulk Modulus (GPa) = 35.05565 72.05484 53.55525
# Shear Modulus (GPa) = 18.62537 25.64418 22.13477
#
# Velocity S-wave (km/s) = 3.29570 3.86713 3.59279
# Velocity P-wave (km/s) = 5.90976 7.87142 6.96005
#
# Compressibility (1/GPa) = 0.02852607
#
# Stress axis : x y z
#
# Youngs Moduli (GPa) = 30.67916 30.67907 86.48329
#
# Poissons Ratio (x) = 0.15529 0.82385
# Poissons Ratio (y) = 0.15529 0.82385
# Poissons Ratio (z) = 0.29225 0.29225
#
# Static dielectric constant tensor:
#      x y z
#    x 3.054650 0.000000 0.000000 
#    y 0.000000 3.054650 0.000000 
#    z 0.000000 0.000000 3.522800 
# 
# 
# High freq. dielectric constant tensor:
#      x y z
#    x 1.636800 0.000000 0.000000 
#    y 0.000000 1.636800 0.000000 
#    z 0.000000 0.000000 1.677470 
# 
# From -- ./inp_files/11627.got.cif
#   From: 2010.03.12/outbox.cif.g09.slc.cpg/sg134_6_cif.got.tgz:11627.got - 2010.04.06 18:17:22.
