data_PCOD8317881
_publ_section_title
;
Structure prediction by ZEFSAII (Michael W. Deem and Ramdas Pophale) SiO2 
 PCOD8317881
Probable space group: P 42/M N M
;
_chemical_formula_sum "Si O2"
_cell_formula_units_Z 80
_cell_length_a 18.214156
_cell_length_b 18.214156
_cell_length_c 15.273363
_cell_angle_alpha 90.000000
_cell_angle_beta 90.000000
_cell_angle_gamma 90.000000
_cell_volume 5067.021855
_symmetry_space_group_name_H-M "P 42/M N M"
_symmetry_group_IT_number 136
_symmetry_cell_setting 'tetragonal'
loop_
_space_group_symop_operation_xyz
x,y,z
1/2-y,1/2+x,1/2+z
-x,-y,z
1/2+y,1/2-x,1/2+z
1/2+x,1/2-y,1/2-z
1/2-x,1/2+y,1/2-z
y,x,-z
-y,-x,-z
-x,-y,-z
1/2+y,1/2-x,1/2-z
x,y,-z
1/2-y,1/2+x,1/2-z
1/2-x,1/2+y,1/2+z
1/2+x,1/2-y,1/2+z
-y,-x,z
y,x,z
loop_
_atom_site_type_symbol
_atom_site_label
_atom_site_fract_x
_atom_site_fract_y
_atom_site_fract_z
Si Si1 0.894744 0.440488 0.500000
Si Si2 0.355275 0.871462 0.331395
Si Si3 0.596744 0.935954 0.500000
Si Si4 0.955682 0.678843 0.672494
Si Si5 0.285175 0.285175 0.103134
Si Si6 0.450803 0.667954 0.099754
Si Si7 0.592155 0.592155 0.900676
O O1 0.858017 0.404173 0.583675
O O2 0.880514 0.527671 0.500000
O O3 0.980834 0.428334 0.500000
O O4 0.408016 0.849955 0.252407
O O5 0.284784 0.818118 0.344020
O O6 0.334630 0.957014 0.318311
O O7 0.642684 0.920493 0.413295
O O8 0.941649 0.764790 0.664777
O O9 0.346576 0.346576 0.107259
O O10 0.267519 0.267519 0.000000
O O11 0.375181 0.624820 0.099432
O O12 0.516195 0.619273 0.141768
O O13 0.471357 0.693469 0.000000
O O14 0.572812 0.572812 0.000000
#
# Coordination Sequence:
#
# PCOD8317881 Si02
#       7
#     8  16   8  16   8  16   8
#     4   9  18  33  50  70  95 135 173 218 250 294
#     4  11  22  34  53  76 106 137 179 221 263 317
#     4   9  18  32  51  70  98 133 174 205 254 309
#     4  11  21  34  51  76 105 142 173 216 264 314
#     4  11  20  35  56  78 103 140 180 224 274 316
#     4  10  19  32  50  76 105 134 169 210 262 323
#     4   9  17  30  55  74  99 133 168 208 263 323
#
# _framework density 15.788366999999999
#
# number of rings (size 3 to 8) (size 9 to 14) (size 15 to 20)
#    0.000    1.800    4.000    1.500    1.400    3.200 
#    0.000    0.000    0.000    0.000    0.000    0.000 
#    0.000    0.100    0.000    4.100    0.000    0.000 
#
# Total GULP energy -991490.273784 kJ/mol
# GULP energy per Si atom -12393.628422 kJ/mol
# Density = 1.575243 g / cm^3
# Si number density = 15.788367 Si / 1000 Ang^3
#
#
#
# Elastic Constant Matrix: (Units=GPa)
#
#
# Indices 1 2 3 4 5 6 
#
# 1 93.4066 50.2237 47.2614 0.0000 0.0000 0.0000
# 2 50.2237 93.4066 47.2614 0.0000 0.0000 0.0000
# 3 47.2614 47.2614 104.7600 0.0000 0.0000 0.0000
# 4 0.0000 0.0000 0.0000 24.6748 0.0000 0.0000
# 5 0.0000 0.0000 0.0000 0.0000 24.6748 0.0000
# 6 0.0000 0.0000 0.0000 0.0000 0.0000 25.6464
#
#
#
# Elastic Compliance Matrix: (Units=1/GPa)
#
#
# Indices 1 2 3 4 5 6 
#
# 1 0.016530 -0.006628 -0.004467 0.000000 0.000000 0.000000
# 2 -0.006628 0.016530 -0.004467 0.000000 0.000000 0.000000
# 3 -0.004467 -0.004467 0.013576 0.000000 0.000000 0.000000
# 4 0.000000 0.000000 0.000000 0.040527 0.000000 0.000000
# 5 0.000000 0.000000 0.000000 0.000000 0.040527 0.000000
# 6 0.000000 0.000000 0.000000 0.000000 0.000000 0.038992
#
#
# Mechanical properties :
#
#
# Convention : Reuss Voigt Hill
#
# Bulk Modulus (GPa) = 64.46757 64.56292 64.51524
# Shear Modulus (GPa) = 24.63335 24.78765 24.71050
#
# Velocity S-wave (km/s) = 3.95425 3.96661 3.96044
# Velocity P-wave (km/s) = 7.85933 7.87148 7.86541
#
# Compressibility (1/GPa) = 0.01551167
#
# Stress axis : x y z
#
# Youngs Moduli (GPa) = 60.49691 60.49691 73.65741
#
# Poissons Ratio (x) = 0.40095 0.32905
# Poissons Ratio (y) = 0.40095 0.32905
# Poissons Ratio (z) = 0.27026 0.27026
#
# Static dielectric constant tensor:
#      x y z
#    x 3.064230 0.000000 0.000000 
#    y 0.000000 3.064230 0.000000 
#    z 0.000000 0.000000 3.004210 
# 
# 
# High freq. dielectric constant tensor:
#      x y z
#    x 1.606420 0.000000 0.000000 
#    y 0.000000 1.606420 0.000000 
#    z 0.000000 0.000000 1.584450 
# 
# From -- ./inp_files/4988.got.cif
#   From: 2010.03.12/outbox.cif.g09.slc.cpg/sg136_3_cif.got.tgz:4988.got - 2010.04.06 18:39:43.
