data_PCOD8317155
_publ_section_title
;
Structure prediction by ZEFSAII (Michael W. Deem and Ramdas Pophale) SiO2 
 PCOD8317155
Probable space group: P 42/N N M
;
_chemical_formula_sum "Si O2"
_cell_formula_units_Z 64
_cell_length_a 18.739186
_cell_length_b 18.739186
_cell_length_c 10.084394
_cell_angle_alpha 90.000000
_cell_angle_beta 90.000000
_cell_angle_gamma 90.000000
_cell_volume 3541.206471
_symmetry_space_group_name_H-M "P 42/N N M"
_symmetry_group_IT_number 134
_space_group.IT_coordinate_system_code '2'
_symmetry_cell_setting 'tetragonal'
loop_
_space_group_symop_operation_xyz
x,y,z
1/2-y,x,1/2+z
1/2-x,1/2-y,z
y,1/2-x,1/2+z
x,1/2-y,1/2-z
1/2-x,y,1/2-z
y,x,-z
1/2-y,1/2-x,-z
-x,-y,-z
1/2+y,-x,1/2-z
1/2+x,1/2+y,-z
-y,1/2+x,1/2-z
-x,1/2+y,1/2+z
1/2+x,-y,1/2+z
-y,-x,z
1/2+y,1/2+x,z
loop_
_atom_site_type_symbol
_atom_site_label
_atom_site_fract_x
_atom_site_fract_y
_atom_site_fract_z
Si Si1 0.973441 0.590553 0.740462
Si Si2 0.670133 0.983229 0.750514
Si Si3 0.329806 0.556195 0.975687
Si Si4 0.551906 0.166759 0.032795
O O1 0.888441 0.578811 0.737518
O O2 0.014585 0.514585 0.742563
O O3 0.993021 0.634535 0.609067
O O4 0.991108 0.635842 0.871181
O O5 0.750000 0.949113 0.750000
O O6 0.663218 0.038336 0.630004
O O7 0.655681 0.027300 0.883033
O O8 0.369729 0.630272 0.945324
O O9 0.248605 0.565990 0.931213
O O10 0.625645 0.125645 0.058002
#
# Coordination Sequence:
#
# PCOD8317155 Si02
#       4
#    16  16  16  16
#     4  10  19  33  53  74  99 133 171 210 248 288
#     4  10  20  33  51  76 102 128 165 210 253 297
#     4  10  20  33  51  76 104 134 167 203 246 297
#     4  10  20  33  51  76 104 134 167 203 246 297
#
# _framework density 18.072937
#
# number of rings (size 3 to 8) (size 9 to 14) (size 15 to 20)
#    0.000    2.000    0.000    4.500    0.000    4.500 
#    0.000    0.000    0.000   12.000    0.000   14.000 
#    0.000    0.000    0.000    0.000    0.000    0.000 
#
# Total GULP energy -793779.399815 kJ/mol
# GULP energy per Si atom -12402.803122 kJ/mol
# Density = 1.803180 g / cm^3
# Si number density = 18.072937 Si / 1000 Ang^3
#
#
#
# Elastic Constant Matrix: (Units=GPa)
#
#
# Indices 1 2 3 4 5 6 
#
# 1 93.4039 28.6238 5.0370 0.0000 0.0000 0.0000
# 2 28.6238 93.4039 5.0370 0.0000 0.0000 0.0000
# 3 5.0370 5.0370 71.1036 0.0000 0.0000 0.0000
# 4 0.0000 0.0000 0.0000 25.2279 0.0000 0.0000
# 5 0.0000 0.0000 0.0000 0.0000 25.2279 0.0000
# 6 0.0000 0.0000 0.0000 0.0000 0.0000 20.4306
#
#
#
# Elastic Compliance Matrix: (Units=1/GPa)
#
#
# Indices 1 2 3 4 5 6 
#
# 1 0.011840 -0.003597 -0.000584 0.000000 0.000000 0.000000
# 2 -0.003597 0.011840 -0.000584 0.000000 0.000000 0.000000
# 3 -0.000584 -0.000584 0.014147 0.000000 0.000000 0.000000
# 4 0.000000 0.000000 0.000000 0.039639 0.000000 0.000000
# 5 0.000000 0.000000 0.000000 0.000000 0.039639 0.000000
# 6 0.000000 0.000000 0.000000 0.000000 0.000000 0.048946
#
#
# Mechanical properties :
#
#
# Convention : Reuss Voigt Hill
#
# Bulk Modulus (GPa) = 35.33932 37.25632 36.29782
# Shear Modulus (GPa) = 27.02528 28.79152 27.90840
#
# Velocity S-wave (km/s) = 3.87116 3.99566 3.93391
# Velocity P-wave (km/s) = 6.29106 6.47659 6.38450
#
# Compressibility (1/GPa) = 0.02829710
#
# Stress axis : x y z
#
# Youngs Moduli (GPa) = 84.45980 84.45980 70.68773
#
# Poissons Ratio (x) = 0.30379 0.04128
# Poissons Ratio (y) = 0.30379 0.04128
# Poissons Ratio (z) = 0.04932 0.04932
#
# Static dielectric constant tensor:
#      x y z
#    x 3.274980 0.000000 0.000000 
#    y 0.000000 3.274980 0.000000 
#    z 0.000000 0.000000 3.586860 
# 
# 
# High freq. dielectric constant tensor:
#      x y z
#    x 1.686580 0.000000 0.000000 
#    y 0.000000 1.686580 0.000000 
#    z 0.000000 0.000000 1.726320 
# 
# From -- ./inp_files/4582.got.cif
#   From: 2010.03.12/outbox.cif.g09.slc.cpg/sg134_3_cif.got.tgz:4582.got - 2010.04.06 18:17:22.
