data_PCOD8317793
_publ_section_title
;
Structure prediction by ZEFSAII (Michael W. Deem and Ramdas Pophale) SiO2 
 PCOD8317793
Probable space group: P 42/M N M
;
_chemical_formula_sum "Si O2"
_cell_formula_units_Z 80
_cell_length_a 11.851454
_cell_length_b 11.851454
_cell_length_c 29.369284
_cell_angle_alpha 90.000000
_cell_angle_beta 90.000000
_cell_angle_gamma 90.000000
_cell_volume 4125.120404
_symmetry_space_group_name_H-M "P 42/M N M"
_symmetry_group_IT_number 136
_symmetry_cell_setting 'tetragonal'
loop_
_space_group_symop_operation_xyz
x,y,z
1/2-y,1/2+x,1/2+z
-x,-y,z
1/2+y,1/2-x,1/2+z
1/2+x,1/2-y,1/2-z
1/2-x,1/2+y,1/2-z
y,x,-z
-y,-x,-z
-x,-y,-z
1/2+y,1/2-x,1/2-z
x,y,-z
1/2-y,1/2+x,1/2-z
1/2-x,1/2+y,1/2+z
1/2+x,1/2-y,1/2+z
-y,-x,z
y,x,z
loop_
_atom_site_type_symbol
_atom_site_label
_atom_site_fract_x
_atom_site_fract_y
_atom_site_fract_z
Si Si1 0.254137 0.443902 0.815756
Si Si2 0.131649 0.468442 0.551996
Si Si3 0.503820 0.315870 0.721437
Si Si4 0.094229 0.094229 0.628923
Si Si5 0.714987 0.903454 0.863177
Si Si6 0.212731 0.212731 0.551784
O O1 0.347515 0.347515 0.815490
O O2 0.229949 0.480971 0.763402
O O3 0.298034 0.550819 0.843516
O O4 0.143084 0.401186 0.841529
O O5 0.165349 0.498638 0.500000
O O6 0.199554 0.546439 0.586833
O O7 0.174567 0.341359 0.562744
O O8 0.000000 0.500000 0.559157
O O9 0.626374 0.373627 0.729201
O O10 0.409967 0.409967 0.720296
O O11 0.501222 0.253847 0.672789
O O12 0.130745 0.130745 0.579033
O O13 0.000000 0.000000 0.623210
O O14 0.806099 0.806099 0.868919
O O15 0.185958 0.185958 0.500000
#
# Coordination Sequence:
#
# PCOD8317793 Si02
#       6
#    16  16  16   8  16   8
#     4   9  17  33  53  80 113 145 184 231 285 342
#     4  10  22  42  61  80 117 156 188 242 305 354
#     4   9  17  33  54  77 114 156 185 224 285 339
#     4  10  18  33  62  83 107 150 187 233 289 342
#     4  10  21  36  57  86 113 144 198 246 274 333
#     4  10  22  39  59  86 116 153 195 233 297 364
#
# _framework density 19.393374000000001
#
# number of rings (size 3 to 8) (size 9 to 14) (size 15 to 20)
#    0.000    2.400    1.000    1.200    1.400    0.600 
#    7.200    0.000    0.000    9.000    0.000    0.000 
#    0.000    0.000    0.000    0.000    0.000    0.000 
#
# Total GULP energy -991330.367567 kJ/mol
# GULP energy per Si atom -12391.629595 kJ/mol
# Density = 1.934923 g / cm^3
# Si number density = 19.393374 Si / 1000 Ang^3
#
#
#
# Elastic Constant Matrix: (Units=GPa)
#
#
# Indices 1 2 3 4 5 6 
#
# 1 55.1439 36.0656 51.9208 0.0000 0.0000 0.0000
# 2 36.0656 55.1439 51.9208 0.0000 0.0000 0.0000
# 3 51.9208 51.9208 166.1223 0.0000 0.0000 0.0000
# 4 0.0000 0.0000 0.0000 32.5580 0.0000 0.0000
# 5 0.0000 0.0000 0.0000 0.0000 32.5580 0.0000
# 6 0.0000 0.0000 0.0000 0.0000 0.0000 17.2975
#
#
#
# Elastic Compliance Matrix: (Units=1/GPa)
#
#
# Indices 1 2 3 4 5 6 
#
# 1 0.034718 -0.017698 -0.005320 0.000000 0.000000 0.000000
# 2 -0.017698 0.034718 -0.005320 0.000000 0.000000 0.000000
# 3 -0.005320 -0.005320 0.009345 0.000000 0.000000 0.000000
# 4 0.000000 0.000000 0.000000 0.030714 0.000000 0.000000
# 5 0.000000 0.000000 0.000000 0.000000 0.030714 0.000000
# 6 0.000000 0.000000 0.000000 0.000000 0.000000 0.057812
#
#
# Mechanical properties :
#
#
# Convention : Reuss Voigt Hill
#
# Bulk Modulus (GPa) = 45.23498 61.80271 53.51885
# Shear Modulus (GPa) = 19.07935 25.58291 22.33113
#
# Velocity S-wave (km/s) = 3.13997 3.63596 3.39703
# Velocity P-wave (km/s) = 6.04330 7.04018 6.56070
#
# Compressibility (1/GPa) = 0.02210678
#
# Stress axis : x y z
#
# Youngs Moduli (GPa) = 28.80372 28.80372 107.01071
#
# Poissons Ratio (x) = 0.50976 0.56925
# Poissons Ratio (y) = 0.50976 0.56925
# Poissons Ratio (z) = 0.15322 0.15322
#
# Static dielectric constant tensor:
#      x y z
#    x 3.520850 0.000000 0.000000 
#    y 0.000000 3.520850 0.000000 
#    z 0.000000 0.000000 3.729840 
# 
# 
# High freq. dielectric constant tensor:
#      x y z
#    x 1.741570 0.000000 0.000000 
#    y 0.000000 1.741570 0.000000 
#    z 0.000000 0.000000 1.770170 
# 
# From -- ./inp_files/9629.got.cif
#   From: 2010.03.12/outbox.cif.g09.slc.cpg/sg136_5_cif.got.tgz:9629.got - 2010.04.06 18:39:43.
