data_PCOD8317830
_publ_section_title
;
Structure prediction by ZEFSAII (Michael W. Deem and Ramdas Pophale) SiO2 
 PCOD8317830
Probable space group: P 42/M N M
;
_chemical_formula_sum "Si O2"
_cell_formula_units_Z 112
_cell_length_a 25.169411
_cell_length_b 25.169411
_cell_length_c 9.656892
_cell_angle_alpha 90.000000
_cell_angle_beta 90.000000
_cell_angle_gamma 90.000000
_cell_volume 6117.633840
_symmetry_space_group_name_H-M "P 42/M N M"
_symmetry_group_IT_number 136
_symmetry_cell_setting 'tetragonal'
loop_
_space_group_symop_operation_xyz
x,y,z
1/2-y,1/2+x,1/2+z
-x,-y,z
1/2+y,1/2-x,1/2+z
1/2+x,1/2-y,1/2-z
1/2-x,1/2+y,1/2-z
y,x,-z
-y,-x,-z
-x,-y,-z
1/2+y,1/2-x,1/2-z
x,y,-z
1/2-y,1/2+x,1/2-z
1/2-x,1/2+y,1/2+z
1/2+x,1/2-y,1/2+z
-y,-x,z
y,x,z
loop_
_atom_site_type_symbol
_atom_site_label
_atom_site_fract_x
_atom_site_fract_y
_atom_site_fract_z
Si Si1 0.939459 0.854729 0.835630
Si Si2 0.551960 0.864935 0.340895
Si Si3 0.295296 0.790832 0.845032
Si Si4 0.644204 0.558743 0.665319
Si Si5 0.756265 0.598383 0.339603
Si Si6 0.389349 0.755750 0.660520
Si Si7 0.566866 0.130092 0.659266
O O1 0.899322 0.899322 0.774846
O O2 0.921310 0.796060 0.788064
O O3 0.998959 0.865874 0.779110
O O4 0.939473 0.857675 0.000000
O O5 0.564556 0.878444 0.500000
O O6 0.553600 0.801260 0.317468
O O7 0.595983 0.893636 0.250547
O O8 0.493388 0.884638 0.299502
O O9 0.241577 0.758424 0.854951
O O10 0.279428 0.847098 0.774967
O O11 0.336144 0.759720 0.748988
O O12 0.319681 0.798688 0.000000
O O13 0.646676 0.558197 0.500000
O O14 0.596808 0.596808 0.718465
O O15 0.700529 0.579670 0.727271
O O16 0.745193 0.609835 0.500000
O O17 0.373310 0.749974 0.500000
O O18 0.425225 0.807491 0.686466
O O19 0.578078 0.116055 0.500000
#
# Coordination Sequence:
#
# PCOD8317830 Si02
#       7
#    16  16  16  16  16  16  16
#     4   9  17  28  43  66  98 136 172 204 245 299
#     4  10  20  35  54  73  98 133 168 206 254 302
#     4  10  19  30  48  75 103 129 163 208 251 297
#     4   9  16  26  43  68  98 132 169 209 250 293
#     4   9  16  29  47  68  95 126 162 202 250 298
#     4  10  19  33  51  72 102 135 169 205 249 305
#     4  10  21  35  52  75  99 128 171 213 248 299
#
# _framework density 18.307732000000001
#
# number of rings (size 3 to 8) (size 9 to 14) (size 15 to 20)
#    0.000    2.429    1.429    1.714    0.000    7.143 
#    0.000    2.857    0.000    0.000    0.000    0.000 
#    0.000    1.714    0.000    3.000    0.000    2.857 
#
# Total GULP energy -1388487.019192 kJ/mol
# GULP energy per Si atom -12397.205529 kJ/mol
# Density = 1.826606 g / cm^3
# Si number density = 18.307732 Si / 1000 Ang^3
#
#
#
# Elastic Constant Matrix: (Units=GPa)
#
#
# Indices 1 2 3 4 5 6 
#
# 1 133.6807 65.7293 31.5321 0.0000 0.0000 0.0000
# 2 65.7293 133.6807 31.5321 0.0000 0.0000 0.0000
# 3 31.5321 31.5321 31.9714 0.0000 0.0000 0.0000
# 4 0.0000 0.0000 0.0000 18.8121 0.0000 0.0000
# 5 0.0000 0.0000 0.0000 0.0000 18.8121 0.0000
# 6 0.0000 0.0000 0.0000 0.0000 0.0000 25.7232
#
#
#
# Elastic Compliance Matrix: (Units=1/GPa)
#
#
# Indices 1 2 3 4 5 6 
#
# 1 0.011002 -0.003714 -0.007188 0.000000 0.000000 0.000000
# 2 -0.003714 0.011002 -0.007188 0.000000 0.000000 0.000000
# 3 -0.007188 -0.007188 0.045456 0.000000 0.000000 0.000000
# 4 0.000000 0.000000 0.000000 0.053157 0.000000 0.000000
# 5 0.000000 0.000000 0.000000 0.000000 0.053157 0.000000
# 6 0.000000 0.000000 0.000000 0.000000 0.000000 0.038875
#
#
# Mechanical properties :
#
#
# Convention : Reuss Voigt Hill
#
# Bulk Modulus (GPa) = 31.96858 61.87997 46.92427
# Shear Modulus (GPa) = 19.28585 24.03875 21.66230
#
# Velocity S-wave (km/s) = 3.24917 3.62752 3.44355
# Velocity P-wave (km/s) = 5.61924 7.17067 6.44183
#
# Compressibility (1/GPa) = 0.03128072
#
# Stress axis : x y z
#
# Youngs Moduli (GPa) = 90.89096 90.89096 21.99922
#
# Poissons Ratio (x) = 0.33759 0.15813
# Poissons Ratio (y) = 0.33759 0.15813
# Poissons Ratio (z) = 0.65331 0.65331
#
# Static dielectric constant tensor:
#      x y z
#    x 3.516190 0.000000 0.000000 
#    y 0.000000 3.516190 0.000000 
#    z 0.000000 0.000000 2.906570 
# 
# 
# High freq. dielectric constant tensor:
#      x y z
#    x 1.720170 0.000000 0.000000 
#    y 0.000000 1.720170 0.000000 
#    z 0.000000 0.000000 1.647330 
# 
# From -- ./inp_files/4003.got.cif
#   From: 2010.03.12/outbox.cif.g09.slc.cpg/sg136_3_cif.got.tgz:4003.got - 2010.04.06 18:39:43.
