data_PCOD8317387
_publ_section_title
;
Structure prediction by ZEFSAII (Michael W. Deem and Ramdas Pophale) SiO2 
 PCOD8317387
Probable space group: P 42/M B C
;
_chemical_formula_sum "Si O2"
_cell_formula_units_Z 96
_cell_length_a 17.159544
_cell_length_b 17.159544
_cell_length_c 18.260134
_cell_angle_alpha 90.000000
_cell_angle_beta 90.000000
_cell_angle_gamma 90.000000
_cell_volume 5376.695549
_symmetry_space_group_name_H-M "P 42/M B C"
_symmetry_group_IT_number 135
_symmetry_cell_setting 'tetragonal'
loop_
_space_group_symop_operation_xyz
x,y,z
-y,x,1/2+z
-x,-y,z
y,-x,1/2+z
1/2+x,1/2-y,-z
1/2-x,1/2+y,-z
1/2+y,1/2+x,1/2-z
1/2-y,1/2-x,1/2-z
-x,-y,-z
y,-x,1/2-z
x,y,-z
-y,x,1/2-z
1/2-x,1/2+y,z
1/2+x,1/2-y,z
1/2-y,1/2-x,1/2+z
1/2+y,1/2+x,1/2+z
loop_
_atom_site_type_symbol
_atom_site_label
_atom_site_fract_x
_atom_site_fract_y
_atom_site_fract_z
Si Si1 0.177740 0.401802 0.414238
Si Si2 0.919611 0.291181 0.318249
Si Si3 0.761365 0.561718 0.083486
Si Si4 0.702306 0.338923 0.415091
Si Si5 0.768205 0.205064 0.676660
Si Si6 0.438630 0.179661 0.156143
O O1 0.201052 0.401428 0.500000
O O2 0.109677 0.339713 0.397637
O O3 0.251102 0.379008 0.360971
O O4 0.148850 0.487288 0.389646
O O5 0.857830 0.221566 0.301640
O O6 0.879962 0.366741 0.355994
O O7 0.958716 0.315864 0.241751
O O8 0.984974 0.255356 0.369035
O O9 0.682555 0.611606 0.099305
O O10 0.763948 0.535106 0.000000
O O11 0.719252 0.351451 0.500000
O O12 0.750312 0.264708 0.388358
O O13 0.733538 0.415176 0.372714
O O14 0.716316 0.216316 0.750000
#
# Coordination Sequence:
#
# PCOD8317387 Si02
#       6
#    16  16  16  16  16  16
#     4  10  22  35  52  80 107 143 181 218 273 324
#     4  10  20  34  51  80 106 140 182 216 273 317
#     4   9  20  34  52  76 105 141 181 218 264 320
#     4   9  17  33  53  73 100 137 177 221 264 307
#     4  10  18  34  53  77 101 131 183 225 259 311
#     4  10  20  33  52  77 111 140 179 222 263 325
#
# _framework density 17.854832999999999
#
# number of rings (size 3 to 8) (size 9 to 14) (size 15 to 20)
#    0.000    2.333    3.333    2.000    4.667    4.667 
#    0.000    3.333    0.000    1.000    0.000    5.833 
#    0.000    0.000    0.000    0.000    0.000    0.000 
#
# Total GULP energy -1189647.770926 kJ/mol
# GULP energy per Si atom -12392.164280 kJ/mol
# Density = 1.781419 g / cm^3
# Si number density = 17.854833 Si / 1000 Ang^3
#
#
#
# Elastic Constant Matrix: (Units=GPa)
#
#
# Indices 1 2 3 4 5 6 
#
# 1 49.0936 26.1364 40.7414 0.0000 0.0000 0.0000
# 2 26.1364 49.0936 40.7414 0.0000 0.0000 0.0000
# 3 40.7414 40.7414 95.4993 0.0000 0.0000 0.0000
# 4 0.0000 0.0000 0.0000 32.0993 0.0000 0.0000
# 5 0.0000 0.0000 0.0000 0.0000 32.0993 0.0000
# 6 0.0000 0.0000 0.0000 0.0000 0.0000 16.3044
#
#
#
# Elastic Compliance Matrix: (Units=1/GPa)
#
#
# Indices 1 2 3 4 5 6 
#
# 1 0.034135 -0.009424 -0.010542 0.000000 0.000000 0.000000
# 2 -0.009424 0.034135 -0.010542 0.000000 0.000000 0.000000
# 3 -0.010542 -0.010542 0.019466 0.000000 0.000000 0.000000
# 4 0.000000 0.000000 0.000000 0.031153 0.000000 0.000000
# 5 0.000000 0.000000 0.000000 0.000000 0.031153 0.000000
# 6 0.000000 0.000000 0.000000 0.000000 0.000000 0.061333
#
#
# Mechanical properties :
#
#
# Convention : Reuss Voigt Hill
#
# Bulk Modulus (GPa) = 37.42567 45.43609 41.43088
# Shear Modulus (GPa) = 17.77468 21.83841 19.80654
#
# Velocity S-wave (km/s) = 3.15859 3.50109 3.33424
# Velocity P-wave (km/s) = 5.85738 6.46887 6.17070
#
# Compressibility (1/GPa) = 0.02671963
#
# Stress axis : x y z
#
# Youngs Moduli (GPa) = 29.29538 29.29538 51.37165
#
# Poissons Ratio (x) = 0.27609 0.54156
# Poissons Ratio (y) = 0.27609 0.54156
# Poissons Ratio (z) = 0.30883 0.30883
#
# Static dielectric constant tensor:
#      x y z
#    x 3.269860 0.000000 0.000000 
#    y 0.000000 3.269860 0.000000 
#    z 0.000000 0.000000 3.431270 
# 
# 
# High freq. dielectric constant tensor:
#      x y z
#    x 1.663890 0.000000 0.000000 
#    y 0.000000 1.663890 0.000000 
#    z 0.000000 0.000000 1.711360 
# 
# From -- ./inp_files/4450.got.cif
#   From: 2010.03.12/outbox.cif.g09.slc.cpg/sg135_3_cif.got.tgz:4450.got - 2010.04.06 18:31:24.
