data_PCOD8317379
_publ_section_title
;
Structure prediction by ZEFSAII (Michael W. Deem and Ramdas Pophale) SiO2 
 PCOD8317379
Probable space group: P 42/M B C
;
_chemical_formula_sum "Si O2"
_cell_formula_units_Z 96
_cell_length_a 17.657852
_cell_length_b 17.657852
_cell_length_c 18.254715
_cell_angle_alpha 90.000000
_cell_angle_beta 90.000000
_cell_angle_gamma 90.000000
_cell_volume 5691.815341
_symmetry_space_group_name_H-M "P 42/M B C"
_symmetry_group_IT_number 135
_symmetry_cell_setting 'tetragonal'
loop_
_space_group_symop_operation_xyz
x,y,z
-y,x,1/2+z
-x,-y,z
y,-x,1/2+z
1/2+x,1/2-y,-z
1/2-x,1/2+y,-z
1/2+y,1/2+x,1/2-z
1/2-y,1/2-x,1/2-z
-x,-y,-z
y,-x,1/2-z
x,y,-z
-y,x,1/2-z
1/2-x,1/2+y,z
1/2+x,1/2-y,z
1/2-y,1/2-x,1/2+z
1/2+y,1/2+x,1/2+z
loop_
_atom_site_type_symbol
_atom_site_label
_atom_site_fract_x
_atom_site_fract_y
_atom_site_fract_z
Si Si1 0.304977 0.240417 0.824300
Si Si2 0.706859 0.359428 0.916928
Si Si3 0.717323 0.538057 0.915547
Si Si4 0.611627 0.210555 0.289599
Si Si5 0.424929 0.658238 0.190236
Si Si6 0.130339 0.090097 0.666408
O O1 0.309468 0.190533 0.750000
O O2 0.282079 0.183910 0.889560
O O3 0.245017 0.307476 0.811593
O O4 0.383889 0.281917 0.843262
O O5 0.713433 0.448705 0.907085
O O6 0.636160 0.327959 0.872240
O O7 0.693571 0.336348 0.000000
O O8 0.789701 0.565175 0.866398
O O9 0.638368 0.574931 0.886481
O O10 0.729727 0.562154 0.000000
O O11 0.629036 0.129036 0.250000
O O12 0.564034 0.262506 0.233098
O O13 0.394373 0.597260 0.248705
O O14 0.500778 0.628432 0.149983
#
# Coordination Sequence:
#
# PCOD8317379 Si02
#       6
#    16  16  16  16  16  16
#     4   9  16  31  48  69  91 126 167 208 241 277
#     4  11  20  32  49  72 102 132 165 202 246 292
#     4   9  20  32  47  72 102 135 164 196 244 300
#     4   9  16  31  51  70  94 122 169 211 243 274
#     4  10  18  32  45  76  97 133 169 204 236 288
#     4  10  20  30  52  68 103 134 169 201 245 289
#
# _framework density 16.866323999999999
#
# number of rings (size 3 to 8) (size 9 to 14) (size 15 to 20)
#    0.000    2.667    5.000    2.000    0.000    5.667 
#    0.000    1.667    0.000    0.000    0.000    2.333 
#    0.000    2.667    0.000    0.000    0.000    0.000 
#
# Total GULP energy -1189311.114250 kJ/mol
# GULP energy per Si atom -12388.657440 kJ/mol
# Density = 1.682794 g / cm^3
# Si number density = 16.866324 Si / 1000 Ang^3
#
#
#
# Elastic Constant Matrix: (Units=GPa)
#
#
# Indices 1 2 3 4 5 6 
#
# 1 44.3890 41.8061 32.6160 0.0000 0.0000 0.0000
# 2 41.8061 44.3890 32.6159 0.0000 0.0000 0.0000
# 3 32.6160 32.6159 123.4164 0.0000 0.0000 0.0000
# 4 0.0000 0.0000 0.0000 19.2698 0.0000 0.0000
# 5 0.0000 0.0000 0.0000 0.0000 19.2697 0.0000
# 6 0.0000 0.0000 0.0000 0.0000 0.0000 11.8889
#
#
#
# Elastic Compliance Matrix: (Units=1/GPa)
#
#
# Indices 1 2 3 4 5 6 
#
# 1 0.200831 -0.186329 -0.003833 0.000000 0.000000 0.000000
# 2 -0.186329 0.200831 -0.003832 0.000000 0.000000 0.000000
# 3 -0.003833 -0.003832 0.010128 0.000000 0.000000 0.000000
# 4 0.000000 0.000000 0.000000 0.051895 0.000000 0.000000
# 5 0.000000 0.000000 0.000000 0.000000 0.051895 0.000000
# 6 0.000000 0.000000 0.000000 0.000000 0.000000 0.084112
#
#
# Mechanical properties :
#
#
# Convention : Reuss Voigt Hill
#
# Bulk Modulus (GPa) = 42.01281 47.36337 44.68809
# Shear Modulus (GPa) = 5.02203 17.09612 11.05908
#
# Velocity S-wave (km/s) = 1.72743 3.18720 2.56342
# Velocity P-wave (km/s) = 5.37978 6.45654 5.94260
#
# Compressibility (1/GPa) = 0.02380227
#
# Stress axis : x y z
#
# Youngs Moduli (GPa) = 4.97932 4.97932 98.73283
#
# Poissons Ratio (x) = 0.92779 0.37841
# Poissons Ratio (y) = 0.92779 0.37838
# Poissons Ratio (z) = 0.01908 0.01908
#
# Static dielectric constant tensor:
#      x y z
#    x 3.145680 0.000000 0.000000 
#    y 0.000000 3.145680 0.000000 
#    z 0.000000 0.000000 3.313170 
# 
# 
# High freq. dielectric constant tensor:
#      x y z
#    x 1.623450 0.000000 0.000000 
#    y 0.000000 1.623450 0.000000 
#    z 0.000000 0.000000 1.651880 
# 
# From -- ./inp_files/5571.got.cif
#   From: 2010.03.12/outbox.cif.g09.slc.cpg/sg135_3_cif.got.tgz:5571.got - 2010.04.06 18:31:24.
