data_PCOD8317215
_publ_section_title
;
Structure prediction by ZEFSAII (Michael W. Deem and Ramdas Pophale) SiO2 
 PCOD8317215
Probable space group: P 42/N N M
;
_chemical_formula_sum "Si O2"
_cell_formula_units_Z 112
_cell_length_a 14.435152
_cell_length_b 14.435152
_cell_length_c 27.538135
_cell_angle_alpha 90.000000
_cell_angle_beta 90.000000
_cell_angle_gamma 90.000000
_cell_volume 5738.220692
_symmetry_space_group_name_H-M "P 42/N N M"
_symmetry_group_IT_number 134
_space_group.IT_coordinate_system_code '2'
_symmetry_cell_setting 'tetragonal'
loop_
_space_group_symop_operation_xyz
x,y,z
1/2-y,x,1/2+z
1/2-x,1/2-y,z
y,1/2-x,1/2+z
x,1/2-y,1/2-z
1/2-x,y,1/2-z
y,x,-z
1/2-y,1/2-x,-z
-x,-y,-z
1/2+y,-x,1/2-z
1/2+x,1/2+y,-z
-y,1/2+x,1/2-z
-x,1/2+y,1/2+z
1/2+x,-y,1/2+z
-y,-x,z
1/2+y,1/2+x,z
loop_
_atom_site_type_symbol
_atom_site_label
_atom_site_fract_x
_atom_site_fract_y
_atom_site_fract_z
Si Si1 0.694376 0.049062 0.293624
Si Si2 0.901379 0.947074 0.766331
Si Si3 0.837813 0.490170 0.125827
Si Si4 0.099836 0.750759 0.534068
Si Si5 0.328159 0.983105 0.362916
Si Si6 0.130573 0.477040 0.161339
Si Si7 0.481415 0.366298 0.968203
O O1 0.750000 0.098649 0.250000
O O2 0.622501 0.122501 0.316766
O O3 0.756945 0.007896 0.335330
O O4 0.643121 0.964466 0.267463
O O5 0.842441 0.942322 0.716192
O O6 0.843864 0.951850 0.816298
O O7 0.959763 0.040238 0.765618
O O8 0.906617 0.406617 0.139101
O O9 0.788648 0.470734 0.074599
O O10 0.892207 0.588950 0.128448
O O11 0.167334 0.832667 0.516372
O O12 0.162792 0.662792 0.552210
O O13 0.035105 0.723405 0.488817
O O14 0.384891 0.884891 0.361874
O O15 0.353151 0.041594 0.411287
O O16 0.217050 0.970801 0.363786
O O17 0.050696 0.550696 0.166781
O O18 0.546362 0.453639 0.973384
O O19 0.388766 0.388766 0.000000
#
# Coordination Sequence:
#
# PCOD8317215 Si02
#       7
#    16  16  16  16  16  16  16
#     4  11  20  31  52  80 112 150 191 230 269 324
#     4   9  19  35  54  79 113 150 183 223 280 337
#     4  10  20  34  52  80 116 154 186 219 277 341
#     4   9  18  33  55  82 113 148 186 230 274 328
#     4  10  21  37  60  84 103 139 192 237 284 340
#     4  10  20  37  57  80 115 148 179 229 286 339
#     4   9  19  35  57  85 113 142 183 237 292 339
#
# _framework density 19.518246999999999
#
# number of rings (size 3 to 8) (size 9 to 14) (size 15 to 20)
#    0.000    2.286    1.429    1.286    2.000    2.429 
#    0.000    2.857    0.000    6.000    0.000    0.000 
#    0.000    0.000    0.000    0.000    0.000    0.000 
#
# Total GULP energy -1387611.464402 kJ/mol
# GULP energy per Si atom -12389.388075 kJ/mol
# Density = 1.947382 g / cm^3
# Si number density = 19.518247 Si / 1000 Ang^3
#
#
#
# Elastic Constant Matrix: (Units=GPa)
#
#
# Indices 1 2 3 4 5 6 
#
# 1 68.0851 32.4458 44.0469 0.0000 0.0000 0.0000
# 2 32.4458 68.0851 44.0469 0.0000 0.0000 0.0000
# 3 44.0469 44.0469 96.0766 0.0000 0.0000 0.0000
# 4 0.0000 0.0000 0.0000 22.2203 0.0000 0.0000
# 5 0.0000 0.0000 0.0000 0.0000 22.2203 0.0000
# 6 0.0000 0.0000 0.0000 0.0000 0.0000 21.0438
#
#
#
# Elastic Compliance Matrix: (Units=1/GPa)
#
#
# Indices 1 2 3 4 5 6 
#
# 1 0.022343 -0.005716 -0.007623 0.000000 0.000000 0.000000
# 2 -0.005716 0.022343 -0.007623 0.000000 0.000000 0.000000
# 3 -0.007623 -0.007623 0.017398 0.000000 0.000000 0.000000
# 4 0.000000 0.000000 0.000000 0.045004 0.000000 0.000000
# 5 0.000000 0.000000 0.000000 0.000000 0.045004 0.000000
# 6 0.000000 0.000000 0.000000 0.000000 0.000000 0.047520
#
#
# Mechanical properties :
#
#
# Convention : Reuss Voigt Hill
#
# Bulk Modulus (GPa) = 49.60158 52.59180 51.09669
# Shear Modulus (GPa) = 20.14064 20.54401 20.34232
#
# Velocity S-wave (km/s) = 3.21579 3.24783 3.23185
# Velocity P-wave (km/s) = 6.26550 6.40843 6.33737
#
# Compressibility (1/GPa) = 0.02016065
#
# Stress axis : x y z
#
# Youngs Moduli (GPa) = 44.75695 44.75695 57.47889
#
# Poissons Ratio (x) = 0.25583 0.43814
# Poissons Ratio (y) = 0.25583 0.43814
# Poissons Ratio (z) = 0.34117 0.34117
#
# Static dielectric constant tensor:
#      x y z
#    x 3.460320 0.000000 0.000000 
#    y 0.000000 3.460320 0.000000 
#    z 0.000000 0.000000 3.898030 
# 
# 
# High freq. dielectric constant tensor:
#      x y z
#    x 1.741360 0.000000 0.000000 
#    y 0.000000 1.741360 0.000000 
#    z 0.000000 0.000000 1.762930 
# 
# From -- ./inp_files/10133.got.cif
#   From: 2010.03.12/outbox.cif.g09.slc.cpg/sg134_6_cif.got.tgz:10133.got - 2010.04.06 18:17:22.
