data_PCOD8317694
_publ_section_title
;
Structure prediction by ZEFSAII (Michael W. Deem and Ramdas Pophale) SiO2 
 PCOD8317694
Probable space group: P 42/M N M
;
_chemical_formula_sum "Si O2"
_cell_formula_units_Z 128
_cell_length_a 20.723007
_cell_length_b 20.723007
_cell_length_c 20.860824
_cell_angle_alpha 90.000000
_cell_angle_beta 90.000000
_cell_angle_gamma 90.000000
_cell_volume 8958.535240
_symmetry_space_group_name_H-M "P 42/M N M"
_symmetry_group_IT_number 136
_symmetry_cell_setting 'tetragonal'
loop_
_space_group_symop_operation_xyz
x,y,z
1/2-y,1/2+x,1/2+z
-x,-y,z
1/2+y,1/2-x,1/2+z
1/2+x,1/2-y,1/2-z
1/2-x,1/2+y,1/2-z
y,x,-z
-y,-x,-z
-x,-y,-z
1/2+y,1/2-x,1/2-z
x,y,-z
1/2-y,1/2+x,1/2-z
1/2-x,1/2+y,1/2+z
1/2+x,1/2-y,1/2+z
-y,-x,z
y,x,z
loop_
_atom_site_type_symbol
_atom_site_label
_atom_site_fract_x
_atom_site_fract_y
_atom_site_fract_z
Si Si1 0.863376 0.755150 0.686496
Si Si2 0.667477 0.563331 0.880734
Si Si3 0.423698 0.682184 0.072171
Si Si4 0.921146 0.812780 0.190643
Si Si5 0.770082 0.661610 0.125666
Si Si6 0.833798 0.061763 0.771412
Si Si7 0.754641 0.863096 0.070467
Si Si8 0.660498 0.768928 0.732041
O O1 0.808817 0.808817 0.686526
O O2 0.905402 0.760501 0.621632
O O3 0.907900 0.765921 0.748984
O O4 0.829109 0.684520 0.688352
O O5 0.607115 0.607115 0.901620
O O6 0.660659 0.496988 0.918395
O O7 0.734959 0.597548 0.901578
O O8 0.666827 0.552106 0.804747
O O9 0.380604 0.619397 0.086135
O O10 0.412949 0.707855 0.000000
O O11 0.873438 0.873438 0.191069
O O12 0.914868 0.771249 0.125361
O O13 0.993554 0.839794 0.193374
O O14 0.716985 0.716985 0.129853
O O15 0.830116 0.684556 0.082250
O O16 0.796845 0.648095 0.196949
O O17 0.895224 0.104777 0.792058
O O18 0.766734 0.096220 0.794018
O O19 0.807756 0.807756 0.073170
O O20 0.753652 0.896146 0.000000
O O21 0.715749 0.715749 0.736436
#
# Coordination Sequence:
#
# PCOD8317694 Si02
#       8
#    16  16  16  16  16  16  16  16
#     4   9  15  26  43  58  73 102 139 176 213 240
#     4   9  17  27  39  56  83 116 144 170 201 239
#     4  10  20  30  38  53  80 114 151 182 202 227
#     4  10  17  26  42  62  84 111 141 168 198 240
#     4   8  13  23  38  58  81 104 130 161 205 255
#     4   9  17  27  41  63  86 110 141 173 202 237
#     4   9  16  25  39  60  83 104 128 164 209 253
#     4   8  13  24  42  60  79 101 130 171 213 245
#
# _framework density 14.28805
#
# number of rings (size 3 to 8) (size 9 to 14) (size 15 to 20)
#    0.000    3.000    2.500    1.500    0.000    1.250 
#    0.000    3.125    0.000    1.125    0.000    3.500 
#    0.000    3.500    0.000    2.250    0.000    0.250 
#
# Total GULP energy -1586075.774905 kJ/mol
# GULP energy per Si atom -12391.216991 kJ/mol
# Density = 1.425553 g / cm^3
# Si number density = 14.288050 Si / 1000 Ang^3
#
#
#
# Elastic Constant Matrix: (Units=GPa)
#
#
# Indices 1 2 3 4 5 6 
#
# 1 45.0951 42.2874 34.6648 0.0000 0.0000 0.0000
# 2 42.2874 45.0951 34.6648 0.0000 0.0000 0.0000
# 3 34.6648 34.6648 87.7608 0.0000 0.0000 0.0000
# 4 0.0000 0.0000 0.0000 14.9972 0.0000 0.0000
# 5 0.0000 0.0000 0.0000 0.0000 14.9972 0.0000
# 6 0.0000 0.0000 0.0000 0.0000 0.0000 14.5314
#
#
#
# Elastic Compliance Matrix: (Units=1/GPa)
#
#
# Indices 1 2 3 4 5 6 
#
# 1 0.186415 -0.169748 -0.006583 0.000000 0.000000 0.000000
# 2 -0.169748 0.186415 -0.006583 0.000000 0.000000 0.000000
# 3 -0.006583 -0.006583 0.016595 0.000000 0.000000 0.000000
# 4 0.000000 0.000000 0.000000 0.066679 0.000000 0.000000
# 5 0.000000 0.000000 0.000000 0.000000 0.066679 0.000000
# 6 0.000000 0.000000 0.000000 0.000000 0.000000 0.068817
#
#
# Mechanical properties :
#
#
# Convention : Reuss Voigt Hill
#
# Bulk Modulus (GPa) = 42.37972 44.57611 43.47791
# Shear Modulus (GPa) = 5.17976 13.32744 9.25360
#
# Velocity S-wave (km/s) = 1.90607 3.05744 2.54765
# Velocity P-wave (km/s) = 5.87958 6.61285 6.25697
#
# Compressibility (1/GPa) = 0.02359619
#
# Stress axis : x y z
#
# Youngs Moduli (GPa) = 5.36437 5.36437 60.25768
#
# Poissons Ratio (x) = 0.91059 0.39670
# Poissons Ratio (y) = 0.91059 0.39670
# Poissons Ratio (z) = 0.03532 0.03532
#
# Static dielectric constant tensor:
#      x y z
#    x 2.715460 0.000000 0.000000 
#    y 0.000000 2.715460 0.000000 
#    z 0.000000 0.000000 2.859870 
# 
# 
# High freq. dielectric constant tensor:
#      x y z
#    x 1.517750 0.000000 0.000000 
#    y 0.000000 1.517750 0.000000 
#    z 0.000000 0.000000 1.534950 
# 
# From -- ./inp_files/6623.got.cif
#   From: 2010.03.12/outbox.cif.g09.slc.cpg/sg136_4_cif.got.tgz:6623.got - 2010.04.06 18:39:43.
