data_PCOD8317418
_publ_section_title
;
Structure prediction by ZEFSAII (Michael W. Deem and Ramdas Pophale) SiO2 
 PCOD8317418
Probable space group: P 42/M B C
;
_chemical_formula_sum "Si O2"
_cell_formula_units_Z 72
_cell_length_a 20.434574
_cell_length_b 20.434574
_cell_length_c 9.750405
_cell_angle_alpha 90.000000
_cell_angle_beta 90.000000
_cell_angle_gamma 90.000000
_cell_volume 4071.494309
_symmetry_space_group_name_H-M "P 42/M B C"
_symmetry_group_IT_number 135
_symmetry_cell_setting 'tetragonal'
loop_
_space_group_symop_operation_xyz
x,y,z
-y,x,1/2+z
-x,-y,z
y,-x,1/2+z
1/2+x,1/2-y,-z
1/2-x,1/2+y,-z
1/2+y,1/2+x,1/2-z
1/2-y,1/2-x,1/2-z
-x,-y,-z
y,-x,1/2-z
x,y,-z
-y,x,1/2-z
1/2-x,1/2+y,z
1/2+x,1/2-y,z
1/2-y,1/2-x,1/2+z
1/2+y,1/2+x,1/2+z
loop_
_atom_site_type_symbol
_atom_site_label
_atom_site_fract_x
_atom_site_fract_y
_atom_site_fract_z
Si Si1 0.743898 0.041751 0.660055
Si Si2 0.745253 0.418846 0.156264
Si Si3 0.687122 0.281329 0.838447
Si Si4 0.978216 0.599186 0.851633
Si Si5 0.386184 0.113816 0.750000
O O1 0.753597 0.024076 0.500000
O O2 0.776401 0.110496 0.699704
O O3 0.667776 0.052404 0.696333
O O4 0.772536 0.981088 0.748255
O O5 0.702035 0.356494 0.199414
O O6 0.819147 0.393283 0.168498
O O7 0.731608 0.440072 0.000000
O O8 0.731316 0.231316 0.750000
O O9 0.699529 0.266683 0.000000
O O10 0.958020 0.541981 0.750000
O O11 0.056210 0.607017 0.860993
O O12 0.951194 0.579007 0.000000
#
# Coordination Sequence:
#
# PCOD8317418 Si02
#       5
#    16  16  16  16   8
#     4   9  20  36  52  73 105 138 172 217 268 317
#     4  10  20  34  54  78 104 135 175 220 266 317
#     4  10  20  35  56  82 108 139 179 223 268 320
#     4  10  20  31  45  66  96 134 171 205 247 298
#     4  10  19  32  48  70 100 134 170 213 256 302
#
# _framework density 17.683924999999999
#
# number of rings (size 3 to 8) (size 9 to 14) (size 15 to 20)
#    0.000    2.222    1.111    1.667    0.000    8.000 
#    0.000    0.000    0.000    0.667    0.000    4.667 
#    0.000    0.000    0.000    0.000    0.000    0.000 
#
# Total GULP energy -892477.909835 kJ/mol
# GULP energy per Si atom -12395.526525 kJ/mol
# Density = 1.764368 g / cm^3
# Si number density = 17.683925 Si / 1000 Ang^3
#
#
#
# Elastic Constant Matrix: (Units=GPa)
#
#
# Indices 1 2 3 4 5 6 
#
# 1 107.5710 80.6999 52.7791 0.0000 0.0000 0.0000
# 2 80.6999 107.5739 52.7807 0.0000 0.0000 0.0000
# 3 52.7791 52.7807 83.7484 0.0000 0.0000 0.0000
# 4 0.0000 0.0000 0.0000 25.4171 0.0000 0.0000
# 5 0.0000 0.0000 0.0000 0.0000 25.4171 0.0000
# 6 0.0000 0.0000 0.0000 0.0000 0.0000 32.5341
#
#
#
# Elastic Compliance Matrix: (Units=1/GPa)
#
#
# Indices 1 2 3 4 5 6 
#
# 1 0.022713 -0.014499 -0.005176 0.000000 0.000000 0.000000
# 2 -0.014499 0.022713 -0.005177 0.000000 0.000000 0.000000
# 3 -0.005176 -0.005177 0.018465 0.000000 0.000000 0.000000
# 4 0.000000 0.000000 0.000000 0.039344 0.000000 0.000000
# 5 0.000000 0.000000 0.000000 0.000000 0.039344 0.000000
# 6 0.000000 0.000000 0.000000 0.000000 0.000000 0.030737
#
#
# Mechanical properties :
#
#
# Convention : Reuss Voigt Hill
#
# Bulk Modulus (GPa) = 70.48810 74.60141 72.54475
# Shear Modulus (GPa) = 21.95391 24.18255 23.06823
#
# Velocity S-wave (km/s) = 3.52726 3.70197 3.61567
# Velocity P-wave (km/s) = 7.51899 7.78141 7.65133
#
# Compressibility (1/GPa) = 0.01418679
#
# Stress axis : x y z
#
# Youngs Moduli (GPa) = 44.02683 44.02738 54.15596
#
# Poissons Ratio (x) = 0.63837 0.28032
# Poissons Ratio (y) = 0.63837 0.28035
# Poissons Ratio (z) = 0.22789 0.22792
#
# Static dielectric constant tensor:
#      x y z
#    x 3.268740 0.000000 0.000000 
#    y 0.000000 3.268740 0.000000 
#    z 0.000000 0.000000 3.256070 
# 
# 
# High freq. dielectric constant tensor:
#      x y z
#    x 1.675250 0.000000 0.000000 
#    y 0.000000 1.675250 0.000000 
#    z 0.000000 0.000000 1.684670 
# 
# From -- ./inp_files/1020.got.cif
#   From: 2010.03.12/outbox.cif.g09.slc.cpg/sg135_1_cif.got.tgz:1020.got - 2010.04.06 18:31:24.
