data_PCOD8317826
_publ_section_title
;
Structure prediction by ZEFSAII (Michael W. Deem and Ramdas Pophale) SiO2 
 PCOD8317826
Probable space group: P 42/M N M
;
_chemical_formula_sum "Si O2"
_cell_formula_units_Z 128
_cell_length_a 20.170653
_cell_length_b 20.170653
_cell_length_c 18.026128
_cell_angle_alpha 90.000000
_cell_angle_beta 90.000000
_cell_angle_gamma 90.000000
_cell_volume 7334.024678
_symmetry_space_group_name_H-M "P 42/M N M"
_symmetry_group_IT_number 136
_symmetry_cell_setting 'tetragonal'
loop_
_space_group_symop_operation_xyz
x,y,z
1/2-y,1/2+x,1/2+z
-x,-y,z
1/2+y,1/2-x,1/2+z
1/2+x,1/2-y,1/2-z
1/2-x,1/2+y,1/2-z
y,x,-z
-y,-x,-z
-x,-y,-z
1/2+y,1/2-x,1/2-z
x,y,-z
1/2-y,1/2+x,1/2-z
1/2-x,1/2+y,1/2+z
1/2+x,1/2-y,1/2+z
-y,-x,z
y,x,z
loop_
_atom_site_type_symbol
_atom_site_label
_atom_site_fract_x
_atom_site_fract_y
_atom_site_fract_z
Si Si1 0.338439 0.551713 0.654220
Si Si2 0.645430 0.244303 0.418447
Si Si3 0.187182 0.919210 0.084181
Si Si4 0.334740 0.224696 0.325633
Si Si5 0.260194 0.851214 0.654961
Si Si6 0.790853 0.017277 0.413306
Si Si7 0.894289 0.001284 0.297349
Si Si8 0.134909 0.243542 0.585725
O O1 0.403740 0.596261 0.640853
O O2 0.270854 0.593104 0.642472
O O3 0.337555 0.494105 0.593636
O O4 0.339411 0.519491 0.736263
O O5 0.612612 0.233496 0.500000
O O6 0.702418 0.297583 0.426078
O O7 0.677931 0.176561 0.391159
O O8 0.126325 0.873676 0.109357
O O9 0.252169 0.902137 0.133312
O O10 0.207567 0.906433 0.000000
O O11 0.280345 0.280345 0.339933
O O12 0.351450 0.215876 0.239703
O O13 0.304464 0.158078 0.362079
O O14 0.192978 0.807023 0.645057
O O15 0.253193 0.925922 0.625287
O O16 0.798643 0.032714 0.500000
O O17 0.861940 0.022930 0.374380
O O18 0.763653 0.943348 0.398851
O O19 0.937387 0.062614 0.265587
O O20 0.939343 0.939343 0.316716
O O21 0.147598 0.262276 0.500000
O O22 0.175177 0.175177 0.604830
#
# Coordination Sequence:
#
# PCOD8317826 Si02
#       8
#    16  16  16  16  16  16  16  16
#     4  10  20  33  50  71 102 139 176 220 263 308
#     4   9  18  32  49  70  96 129 171 217 265 315
#     4  10  19  30  47  72 102 136 171 207 254 313
#     4   9  18  33  52  73 101 134 173 221 268 310
#     4  10  20  33  51  74 101 137 174 215 266 319
#     4  11  22  34  51  76 107 141 176 219 266 313
#     4  10  21  34  48  69 101 142 183 216 249 302
#     4   9  18  33  54  79 107 140 179 223 269 316
#
# _framework density 17.452901000000001
#
# number of rings (size 3 to 8) (size 9 to 14) (size 15 to 20)
#    0.000    2.250    0.000    3.000    1.750    6.250 
#    0.000    1.250    0.000    0.000    0.000    0.875 
#    0.000    4.000    0.000    0.000    0.000    0.000 
#
# Total GULP energy -1586596.737717 kJ/mol
# GULP energy per Si atom -12395.287013 kJ/mol
# Density = 1.741318 g / cm^3
# Si number density = 17.452901 Si / 1000 Ang^3
#
#
#
# Elastic Constant Matrix: (Units=GPa)
#
#
# Indices 1 2 3 4 5 6 
#
# 1 81.6724 52.8255 50.4419 0.0000 0.0000 0.0000
# 2 52.8255 81.6724 50.4419 0.0000 0.0000 0.0000
# 3 50.4419 50.4419 108.9567 0.0000 0.0000 0.0000
# 4 0.0000 0.0000 0.0000 27.9013 0.0000 0.0000
# 5 0.0000 0.0000 0.0000 0.0000 27.9013 0.0000
# 6 0.0000 0.0000 0.0000 0.0000 0.0000 17.8839
#
#
#
# Elastic Compliance Matrix: (Units=1/GPa)
#
#
# Indices 1 2 3 4 5 6 
#
# 1 0.023028 -0.011638 -0.005273 0.000000 0.000000 0.000000
# 2 -0.011638 0.023028 -0.005273 0.000000 0.000000 0.000000
# 3 -0.005273 -0.005273 0.014060 0.000000 0.000000 0.000000
# 4 0.000000 0.000000 0.000000 0.035841 0.000000 0.000000
# 5 0.000000 0.000000 0.000000 0.000000 0.035841 0.000000
# 6 0.000000 0.000000 0.000000 0.000000 0.000000 0.055916
#
#
# Mechanical properties :
#
#
# Convention : Reuss Voigt Hill
#
# Bulk Modulus (GPa) = 63.49871 64.41337 63.95604
# Shear Modulus (GPa) = 21.06757 22.64346 21.85551
#
# Velocity S-wave (km/s) = 3.47812 3.60586 3.54256
# Velocity P-wave (km/s) = 7.25201 7.37044 7.31146
#
# Compressibility (1/GPa) = 0.01574835
#
# Stress axis : x y z
#
# Youngs Moduli (GPa) = 43.42526 43.42526 71.12139
#
# Poissons Ratio (x) = 0.50537 0.37504
# Poissons Ratio (y) = 0.50537 0.37504
# Poissons Ratio (z) = 0.22899 0.22899
#
# Static dielectric constant tensor:
#      x y z
#    x 3.185850 0.000000 0.000000 
#    y 0.000000 3.185850 0.000000 
#    z 0.000000 0.000000 3.427860 
# 
# 
# High freq. dielectric constant tensor:
#      x y z
#    x 1.651100 0.000000 0.000000 
#    y 0.000000 1.651100 0.000000 
#    z 0.000000 0.000000 1.689300 
# 
# From -- ./inp_files/6618.got.cif
#   From: 2010.03.12/outbox.cif.g09.slc.cpg/sg136_4_cif.got.tgz:6618.got - 2010.04.06 18:39:43.
