data_PCOD8317008
_publ_section_title
;
Structure prediction by ZEFSAII (Michael W. Deem and Ramdas Pophale) SiO2 
 PCOD8317008
Probable space group: P 42/N B C
;
_chemical_formula_sum "Si O2"
_cell_formula_units_Z 96
_cell_length_a 14.428644
_cell_length_b 14.428644
_cell_length_c 20.598938
_cell_angle_alpha 90.000000
_cell_angle_beta 90.000000
_cell_angle_gamma 90.000000
_cell_volume 4288.405721
_symmetry_space_group_name_H-M "P 42/N B C"
_symmetry_group_IT_number 133
_space_group.IT_coordinate_system_code '2'
_symmetry_cell_setting 'tetragonal'
loop_
_space_group_symop_operation_xyz
x,y,z
1/2-y,x,1/2+z
1/2-x,1/2-y,z
y,1/2-x,1/2+z
x,1/2-y,-z
1/2-x,y,-z
y,x,1/2-z
1/2-y,1/2-x,1/2-z
-x,-y,-z
1/2+y,-x,1/2-z
1/2+x,1/2+y,-z
-y,1/2+x,1/2-z
-x,1/2+y,z
1/2+x,-y,z
-y,-x,1/2+z
1/2+y,1/2+x,1/2+z
loop_
_atom_site_type_symbol
_atom_site_label
_atom_site_fract_x
_atom_site_fract_y
_atom_site_fract_z
Si Si1 0.968052 0.104497 0.631216
Si Si2 0.495940 0.218586 0.842557
Si Si3 0.468942 0.219000 0.697423
Si Si4 0.890486 0.999176 0.990543
Si Si5 0.672661 0.676955 0.586190
Si Si6 0.090066 0.572875 0.364428
O O1 0.979151 0.184544 0.683820
O O2 0.969428 0.153156 0.559287
O O3 0.874150 0.051978 0.645137
O O4 0.052202 0.031967 0.635900
O O5 0.443176 0.218642 0.773281
O O6 0.417457 0.227198 0.897440
O O7 0.569416 0.301402 0.849544
O O8 0.379317 0.211206 0.651431
O O9 0.538304 0.132301 0.690217
O O10 0.845975 0.899677 0.971602
O O11 0.872821 0.071938 0.932405
O O12 0.000000 0.000000 0.000000
O O13 0.750000 0.750000 0.562632
#
# Coordination Sequence:
#
# PCOD8317008 Si02
#       6
#    16  16  16  16  16  16
#     4  11  23  44  68  92 137 187 223 300 360 423
#     4  12  23  40  68  96 133 188 233 286 367 433
#     4  11  24  41  64  95 140 180 232 293 361 438
#     4   9  19  45  66  91 135 181 225 279 353 436
#     4  11  23  40  67 106 136 181 237 302 365 429
#     4  10  23  41  63  99 127 177 238 285 357 433
#
# _framework density 22.385940000000002
#
# number of rings (size 3 to 8) (size 9 to 14) (size 15 to 20)
#    0.000    1.333    5.000    2.500    0.000    8.667 
#    0.000   10.000    0.000    4.000    0.000    0.000 
#    0.000    0.000    0.000    0.000    0.000    0.000 
#
# Total GULP energy -1190368.785405 kJ/mol
# GULP energy per Si atom -12399.674848 kJ/mol
# Density = 2.233499 g / cm^3
# Si number density = 22.385940 Si / 1000 Ang^3
#
#
#
# Elastic Constant Matrix: (Units=GPa)
#
#
# Indices 1 2 3 4 5 6 
#
# 1 113.2669 14.4886 26.5444 0.0000 0.0000 0.0000
# 2 14.4886 113.2669 26.5444 0.0000 0.0000 0.0000
# 3 26.5444 26.5444 108.5452 0.0000 0.0000 0.0000
# 4 0.0000 0.0000 0.0000 25.2048 0.0000 0.0000
# 5 0.0000 0.0000 0.0000 0.0000 25.2048 0.0000
# 6 0.0000 0.0000 0.0000 0.0000 0.0000 43.1348
#
#
#
# Elastic Compliance Matrix: (Units=1/GPa)
#
#
# Indices 1 2 3 4 5 6 
#
# 1 0.009418 -0.000705 -0.002131 0.000000 0.000000 0.000000
# 2 -0.000705 0.009418 -0.002131 0.000000 0.000000 0.000000
# 3 -0.002131 -0.002131 0.010255 0.000000 0.000000 0.000000
# 4 0.000000 0.000000 0.000000 0.039675 0.000000 0.000000
# 5 0.000000 0.000000 0.000000 0.000000 0.039675 0.000000
# 6 0.000000 0.000000 0.000000 0.000000 0.000000 0.023183
#
#
# Mechanical properties :
#
#
# Convention : Reuss Voigt Hill
#
# Bulk Modulus (GPa) = 52.19811 52.24819 52.22315
# Shear Modulus (GPa) = 33.79652 36.54230 35.16941
#
# Velocity S-wave (km/s) = 3.88973 4.04465 3.96795
# Velocity P-wave (km/s) = 6.59858 6.72329 6.66123
#
# Compressibility (1/GPa) = 0.01915778
#
# Stress axis : x y z
#
# Youngs Moduli (GPa) = 106.17654 106.17654 97.51461
#
# Poissons Ratio (x) = 0.07490 0.20778
# Poissons Ratio (y) = 0.07490 0.20778
# Poissons Ratio (z) = 0.22623 0.22623
#
# Static dielectric constant tensor:
#      x y z
#    x 4.030200 0.000000 0.000000 
#    y 0.000000 4.030200 0.000000 
#    z 0.000000 0.000000 4.611000 
# 
# 
# High freq. dielectric constant tensor:
#      x y z
#    x 1.874910 0.000000 0.000000 
#    y 0.000000 1.874910 0.000000 
#    z 0.000000 0.000000 1.895160 
# 
# From -- ./inp_files/6515.got.cif
#   From: 2010.03.12/outbox.cif.g09.slc.cpg/sg133_4_cif.got.tgz:6515.got - 2010.04.06 18:08:06.
