data_PCOD8317688
_publ_section_title
;
Structure prediction by ZEFSAII (Michael W. Deem and Ramdas Pophale) SiO2 
 PCOD8317688
Probable space group: P 42/M N M
;
_chemical_formula_sum "Si O2"
_cell_formula_units_Z 104
_cell_length_a 25.052555
_cell_length_b 25.052555
_cell_length_c 13.899041
_cell_angle_alpha 90.000000
_cell_angle_beta 90.000000
_cell_angle_gamma 90.000000
_cell_volume 8723.462220
_symmetry_space_group_name_H-M "P 42/M N M"
_symmetry_group_IT_number 136
_symmetry_cell_setting 'tetragonal'
loop_
_space_group_symop_operation_xyz
x,y,z
1/2-y,1/2+x,1/2+z
-x,-y,z
1/2+y,1/2-x,1/2+z
1/2+x,1/2-y,1/2-z
1/2-x,1/2+y,1/2-z
y,x,-z
-y,-x,-z
-x,-y,-z
1/2+y,1/2-x,1/2-z
x,y,-z
1/2-y,1/2+x,1/2-z
1/2-x,1/2+y,1/2+z
1/2+x,1/2-y,1/2+z
-y,-x,z
y,x,z
loop_
_atom_site_type_symbol
_atom_site_label
_atom_site_fract_x
_atom_site_fract_y
_atom_site_fract_z
Si Si1 0.188151 0.900448 0.292703
Si Si2 0.734595 0.176140 0.605475
Si Si3 0.292098 0.621202 0.110613
Si Si4 0.731144 0.641764 0.606122
Si Si5 0.658459 0.490461 0.887601
Si Si6 0.284520 0.194524 0.708923
Si Si7 0.542360 0.457641 0.885719
O O1 0.134001 0.866000 0.302928
O O2 0.234496 0.876552 0.359872
O O3 0.209133 0.901559 0.182375
O O4 0.178425 0.960520 0.324711
O O5 0.708990 0.165816 0.500000
O O6 0.776478 0.223523 0.599614
O O7 0.688788 0.192911 0.681965
O O8 0.345351 0.654650 0.137201
O O9 0.301917 0.558966 0.129988
O O10 0.241209 0.638924 0.174441
O O11 0.277280 0.631630 0.000000
O O12 0.737691 0.615616 0.500000
O O13 0.689712 0.689712 0.602437
O O14 0.787807 0.666377 0.640376
O O15 0.600468 0.473965 0.848046
O O16 0.656254 0.506452 0.000000
O O17 0.239595 0.239595 0.703827
O O18 0.500000 0.500000 0.845182
O O19 0.543397 0.456604 0.000000
#
# Coordination Sequence:
#
# PCOD8317688 Si02
#       7
#    16  16  16  16  16  16   8
#     4   9  16  23  33  49  66  86 110 137 171 204
#     4   8  13  21  32  48  68  84 101 126 158 200
#     4   9  15  23  33  45  63  85 110 139 169 198
#     4   8  13  22  35  51  66  77  97 131 168 206
#     4  10  17  24  32  45  65  89 114 141 173 204
#     4   8  13  20  33  50  64  81 102 127 163 200
#     4   9  16  24  32  42  59  85 117 149 176 204
#
# _framework density 11.921872
#
# number of rings (size 3 to 8) (size 9 to 14) (size 15 to 20)
#    0.000    3.308    0.769    3.231    0.000    3.385 
#    0.000    0.000    0.000    0.923    0.000    0.538 
#    0.000    3.077    0.000    0.000    0.000   12.308 
#
# Total GULP energy -1288724.741772 kJ/mol
# GULP energy per Si atom -12391.584056 kJ/mol
# Density = 1.189474 g / cm^3
# Si number density = 11.921872 Si / 1000 Ang^3
#
#
#
# Elastic Constant Matrix: (Units=GPa)
#
#
# Indices 1 2 3 4 5 6 
#
# 1 47.5653 41.9082 36.7921 0.0000 0.0000 0.0000
# 2 41.9082 47.5653 36.7921 0.0000 0.0000 0.0000
# 3 36.7921 36.7921 94.3788 0.0000 0.0000 0.0000
# 4 0.0000 0.0000 0.0000 14.6405 0.0000 0.0000
# 5 0.0000 0.0000 0.0000 0.0000 14.6405 0.0000
# 6 0.0000 0.0000 0.0000 0.0000 0.0000 15.7968
#
#
#
# Elastic Compliance Matrix: (Units=1/GPa)
#
#
# Indices 1 2 3 4 5 6 
#
# 1 0.096610 -0.080159 -0.006413 0.000000 0.000000 0.000000
# 2 -0.080159 0.096610 -0.006413 0.000000 0.000000 0.000000
# 3 -0.006413 -0.006413 0.015596 0.000000 0.000000 0.000000
# 4 0.000000 0.000000 0.000000 0.068303 0.000000 0.000000
# 5 0.000000 0.000000 0.000000 0.000000 0.068303 0.000000
# 6 0.000000 0.000000 0.000000 0.000000 0.000000 0.063304
#
#
# Mechanical properties :
#
#
# Convention : Reuss Voigt Hill
#
# Bulk Modulus (GPa) = 43.77358 46.72158 45.24758
# Shear Modulus (GPa) = 8.30134 13.95004 11.12569
#
# Velocity S-wave (km/s) = 2.64163 3.42441 3.05817
# Velocity P-wave (km/s) = 6.78978 7.41015 7.10674
#
# Compressibility (1/GPa) = 0.02284483
#
# Stress axis : x y z
#
# Youngs Moduli (GPa) = 10.35091 10.35088 64.12052
#
# Poissons Ratio (x) = 0.82972 0.41120
# Poissons Ratio (y) = 0.82972 0.41121
# Poissons Ratio (z) = 0.06638 0.06638
#
# Static dielectric constant tensor:
#      x y z
#    x 2.273290 0.000000 0.000000 
#    y 0.000000 2.273290 0.000000 
#    z 0.000000 0.000000 2.796920 
# 
# 
# High freq. dielectric constant tensor:
#      x y z
#    x 1.421190 0.000000 0.000000 
#    y 0.000000 1.421190 0.000000 
#    z 0.000000 0.000000 1.447590 
# 
# From -- ./inp_files/5343.got.cif
#   From: 2010.03.12/outbox.cif.g09.slc.cpg/sg136_3_cif.got.tgz:5343.got - 2010.04.06 18:39:43.
