data_PCOD8317845
_publ_section_title
;
Structure prediction by ZEFSAII (Michael W. Deem and Ramdas Pophale) SiO2 
 PCOD8317845
Probable space group: P 42/M N M
;
_chemical_formula_sum "Si O2"
_cell_formula_units_Z 96
_cell_length_a 24.891726
_cell_length_b 24.891726
_cell_length_c 9.038243
_cell_angle_alpha 90.000000
_cell_angle_beta 90.000000
_cell_angle_gamma 90.000000
_cell_volume 5600.077497
_symmetry_space_group_name_H-M "P 42/M N M"
_symmetry_group_IT_number 136
_symmetry_cell_setting 'tetragonal'
loop_
_space_group_symop_operation_xyz
x,y,z
1/2-y,1/2+x,1/2+z
-x,-y,z
1/2+y,1/2-x,1/2+z
1/2+x,1/2-y,1/2-z
1/2-x,1/2+y,1/2-z
y,x,-z
-y,-x,-z
-x,-y,-z
1/2+y,1/2-x,1/2-z
x,y,-z
1/2-y,1/2+x,1/2-z
1/2-x,1/2+y,1/2+z
1/2+x,1/2-y,1/2+z
-y,-x,z
y,x,z
loop_
_atom_site_type_symbol
_atom_site_label
_atom_site_fract_x
_atom_site_fract_y
_atom_site_fract_z
Si Si1 0.249004 0.837773 0.173235
Si Si2 0.136277 0.447537 0.834166
Si Si3 0.437977 0.879353 0.840794
Si Si4 0.936820 0.747226 0.334032
Si Si5 0.672494 0.237923 0.670884
Si Si6 0.042109 0.743919 0.172342
O O1 0.198486 0.801515 0.220469
O O2 0.303213 0.816497 0.255016
O O3 0.232345 0.898964 0.215982
O O4 0.261876 0.833421 0.000000
O O5 0.098379 0.397645 0.794592
O O6 0.099241 0.500966 0.825651
O O7 0.181715 0.452104 0.711173
O O8 0.159750 0.438952 0.000000
O O9 0.444420 0.815877 0.838338
O O10 0.413743 0.897805 0.000000
O O11 0.931863 0.771171 0.500000
O O12 0.882551 0.759363 0.243864
O O13 0.991521 0.771245 0.258571
O O14 0.661579 0.225093 0.500000
O O15 0.714672 0.285329 0.693722
O O16 0.030107 0.751348 0.000000
#
# Coordination Sequence:
#
# PCOD8317845 Si02
#       6
#    16  16  16  16  16  16
#     4   9  18  32  49  70  97 128 159 192 235 285
#     4  10  20  31  43  59  79 106 142 184 227 270
#     4   9  19  32  42  56  78 105 140 181 225 268
#     4  10  20  33  48  66  90 120 153 188 227 274
#     4  10  20  32  48  72  99 126 158 196 236 278
#     4  10  19  31  48  67  89 118 150 186 226 270
#
# _framework density 17.142620000000001
#
# number of rings (size 3 to 8) (size 9 to 14) (size 15 to 20)
#    0.000    2.333    0.000    4.000    0.000   10.667 
#    0.000    1.667    0.000    0.000    0.000    0.000 
#    0.000    0.667    0.000    7.667    0.000    2.167 
#
# Total GULP energy -1189621.999926 kJ/mol
# GULP energy per Si atom -12391.895833 kJ/mol
# Density = 1.710360 g / cm^3
# Si number density = 17.142620 Si / 1000 Ang^3
#
#
#
# Elastic Constant Matrix: (Units=GPa)
#
#
# Indices 1 2 3 4 5 6 
#
# 1 64.0691 6.4697 32.5457 0.0000 0.0000 0.0000
# 2 6.4697 64.0691 32.5457 0.0000 0.0000 0.0000
# 3 32.5457 32.5457 91.2524 0.0000 0.0000 0.0000
# 4 0.0000 0.0000 0.0000 23.7777 0.0000 0.0000
# 5 0.0000 0.0000 0.0000 0.0000 23.7777 0.0000
# 6 0.0000 0.0000 0.0000 0.0000 0.0000 16.2837
#
#
#
# Elastic Compliance Matrix: (Units=1/GPa)
#
#
# Indices 1 2 3 4 5 6 
#
# 1 0.019246 0.001885 -0.007537 0.000000 0.000000 0.000000
# 2 0.001885 0.019246 -0.007537 0.000000 0.000000 0.000000
# 3 -0.007537 -0.007537 0.016335 0.000000 0.000000 0.000000
# 4 0.000000 0.000000 0.000000 0.042056 0.000000 0.000000
# 5 0.000000 0.000000 0.000000 0.000000 0.042056 0.000000
# 6 0.000000 0.000000 0.000000 0.000000 0.000000 0.061411
#
#
# Mechanical properties :
#
#
# Convention : Reuss Voigt Hill
#
# Bulk Modulus (GPa) = 35.14863 40.27919 37.71391
# Shear Modulus (GPa) = 21.16759 22.62313 21.89536
#
# Velocity S-wave (km/s) = 3.51777 3.63671 3.57774
# Velocity P-wave (km/s) = 6.08669 6.41730 6.25418
#
# Compressibility (1/GPa) = 0.02845061
#
# Stress axis : x y z
#
# Youngs Moduli (GPa) = 51.95830 51.95830 61.22005
#
# Poissons Ratio (x) = -0.09794 0.46139
# Poissons Ratio (y) = -0.09794 0.46139
# Poissons Ratio (z) = 0.39159 0.39159
#
# Static dielectric constant tensor:
#      x y z
#    x 3.164470 0.000000 0.000000 
#    y 0.000000 3.164470 0.000000 
#    z 0.000000 0.000000 3.413640 
# 
# 
# High freq. dielectric constant tensor:
#      x y z
#    x 1.634000 0.000000 0.000000 
#    y 0.000000 1.634000 0.000000 
#    z 0.000000 0.000000 1.675770 
# 
# From -- ./inp_files/1908.got.cif
#   From: 2010.03.12/outbox.cif.g09.slc.cpg/sg136_1_cif.got.tgz:1908.got - 2010.04.06 18:39:43.
