data_PCOD8317340
_publ_section_title
;
Structure prediction by ZEFSAII (Michael W. Deem and Ramdas Pophale) SiO2 
 PCOD8317340
Probable space group: P 42/N N M
;
_chemical_formula_sum "Si O2"
_cell_formula_units_Z 56
_cell_length_a 19.360521
_cell_length_b 19.360521
_cell_length_c 7.668218
_cell_angle_alpha 90.000000
_cell_angle_beta 90.000000
_cell_angle_gamma 90.000000
_cell_volume 2874.276415
_symmetry_space_group_name_H-M "P 42/N N M"
_symmetry_group_IT_number 134
_space_group.IT_coordinate_system_code '2'
_symmetry_cell_setting 'tetragonal'
loop_
_space_group_symop_operation_xyz
x,y,z
1/2-y,x,1/2+z
1/2-x,1/2-y,z
y,1/2-x,1/2+z
x,1/2-y,1/2-z
1/2-x,y,1/2-z
y,x,-z
1/2-y,1/2-x,-z
-x,-y,-z
1/2+y,-x,1/2-z
1/2+x,1/2+y,-z
-y,1/2+x,1/2-z
-x,1/2+y,1/2+z
1/2+x,-y,1/2+z
-y,-x,z
1/2+y,1/2+x,z
loop_
_atom_site_type_symbol
_atom_site_label
_atom_site_fract_x
_atom_site_fract_y
_atom_site_fract_z
Si Si1 0.595642 0.987591 0.860415
Si Si2 0.809364 0.900582 0.881722
Si Si3 0.034593 0.763059 0.450022
Si Si4 0.750000 0.137506 0.250000
O O1 0.626167 0.935444 0.717318
O O2 0.544626 0.044626 0.772633
O O3 0.655012 0.026730 0.969693
O O4 0.555412 0.944589 0.000000
O O5 0.750000 0.871421 0.750000
O O6 0.774176 0.961558 0.995199
O O7 0.837698 0.837698 0.000000
O O8 0.056881 0.750000 0.250000
O O9 0.091583 0.733970 0.580719
O O10 0.683402 0.183402 0.210921
#
# Coordination Sequence:
#
# PCOD8317340 Si02
#       4
#    16  16  16   8
#     4   9  18  33  56  87 116 148 189 241 305 361
#     4   9  20  38  59  88 117 156 198 250 305 363
#     4   9  21  39  58  83 121 160 194 254 298 360
#     4  11  24  38  58  90 121 164 210 238 293 366
#
# _framework density 19.483163999999999
#
# number of rings (size 3 to 8) (size 9 to 14) (size 15 to 20)
#    0.000    3.286    0.000    0.857    4.000    6.286 
#    0.000    1.429    0.000   41.143    0.000    0.000 
#    0.000    0.000    0.000    0.000    0.000    0.000 
#
# Total GULP energy -694024.758864 kJ/mol
# GULP energy per Si atom -12393.299265 kJ/mol
# Density = 1.943882 g / cm^3
# Si number density = 19.483164 Si / 1000 Ang^3
#
#
#
# Elastic Constant Matrix: (Units=GPa)
#
#
# Indices 1 2 3 4 5 6 
#
# 1 106.4159 73.3093 58.5859 0.0000 0.0000 0.0000
# 2 73.3093 106.4102 58.5874 0.0000 0.0000 0.0000
# 3 58.5859 58.5874 83.0554 0.0000 0.0000 0.0000
# 4 0.0000 0.0000 0.0000 30.7326 0.0000 0.0000
# 5 0.0000 0.0000 0.0000 0.0000 30.7336 0.0000
# 6 0.0000 0.0000 0.0000 0.0000 0.0000 24.5790
#
#
#
# Elastic Compliance Matrix: (Units=1/GPa)
#
#
# Indices 1 2 3 4 5 6 
#
# 1 0.020254 -0.009953 -0.007266 0.000000 0.000000 0.000000
# 2 -0.009953 0.020256 -0.007268 0.000000 0.000000 0.000000
# 3 -0.007266 -0.007268 0.022292 0.000000 0.000000 0.000000
# 4 0.000000 0.000000 0.000000 0.032539 0.000000 0.000000
# 5 0.000000 0.000000 0.000000 0.000000 0.032538 0.000000
# 6 0.000000 0.000000 0.000000 0.000000 0.000000 0.040685
#
#
# Mechanical properties :
#
#
# Convention : Reuss Voigt Hill
#
# Bulk Modulus (GPa) = 72.31472 75.20517 73.75995
# Shear Modulus (GPa) = 22.50763 24.23564 23.37164
#
# Velocity S-wave (km/s) = 3.40256 3.53076 3.46725
# Velocity P-wave (km/s) = 7.25491 7.43677 7.34640
#
# Compressibility (1/GPa) = 0.01382844
#
# Stress axis : x y z
#
# Youngs Moduli (GPa) = 49.37355 49.36759 44.85871
#
# Poissons Ratio (x) = 0.49136 0.32593
# Poissons Ratio (y) = 0.49142 0.32603
# Poissons Ratio (z) = 0.35874 0.35881
#
# Static dielectric constant tensor:
#      x y z
#    x 3.780350 0.000000 0.000000 
#    y 0.000000 3.780330 0.000000 
#    z 0.000000 0.000000 3.201930 
# 
# 
# High freq. dielectric constant tensor:
#      x y z
#    x 1.763950 0.000000 0.000000 
#    y 0.000000 1.763950 0.000000 
#    z 0.000000 0.000000 1.735680 
# 
# From -- ./inp_files/2373.got.cif
#   From: 2010.03.12/outbox.cif.g09.slc.cpg/sg134_2_cif.got.tgz:2373.got - 2010.04.06 18:17:22.
