data_PCOD8317781
_publ_section_title
;
Structure prediction by ZEFSAII (Michael W. Deem and Ramdas Pophale) SiO2 
 PCOD8317781
Probable space group: P 42/M N M
;
_chemical_formula_sum "Si O2"
_cell_formula_units_Z 96
_cell_length_a 23.730618
_cell_length_b 23.730618
_cell_length_c 9.544322
_cell_angle_alpha 90.000000
_cell_angle_beta 90.000000
_cell_angle_gamma 90.000000
_cell_volume 5374.810781
_symmetry_space_group_name_H-M "P 42/M N M"
_symmetry_group_IT_number 136
_symmetry_cell_setting 'tetragonal'
loop_
_space_group_symop_operation_xyz
x,y,z
1/2-y,1/2+x,1/2+z
-x,-y,z
1/2+y,1/2-x,1/2+z
1/2+x,1/2-y,1/2-z
1/2-x,1/2+y,1/2-z
y,x,-z
-y,-x,-z
-x,-y,-z
1/2+y,1/2-x,1/2-z
x,y,-z
1/2-y,1/2+x,1/2-z
1/2-x,1/2+y,1/2+z
1/2+x,1/2-y,1/2+z
-y,-x,z
y,x,z
loop_
_atom_site_type_symbol
_atom_site_label
_atom_site_fract_x
_atom_site_fract_y
_atom_site_fract_z
Si Si1 0.486881 0.847672 0.658732
Si Si2 0.204087 0.328728 0.656804
Si Si3 0.240707 0.006338 0.664853
Si Si4 0.298008 0.386050 0.839730
Si Si5 0.099773 0.401312 0.651449
Si Si6 0.278672 0.632751 0.834016
O O1 0.476994 0.826844 0.500000
O O2 0.508549 0.797734 0.755825
O O3 0.429276 0.872178 0.718217
O O4 0.531353 0.898907 0.666783
O O5 0.225808 0.313526 0.500000
O O6 0.256825 0.345799 0.751230
O O7 0.164502 0.382900 0.650176
O O8 0.168166 0.275752 0.720068
O O9 0.252283 0.010205 0.500000
O O10 0.218886 0.067669 0.720732
O O11 0.200162 0.952869 0.701515
O O12 0.361252 0.361252 0.820599
O O13 0.277602 0.380868 0.000000
O O14 0.071943 0.384664 0.500000
O O15 0.335459 0.664542 0.783005
O O16 0.275074 0.631104 0.000000
#
# Coordination Sequence:
#
# PCOD8317781 Si02
#       6
#    16  16  16  16  16  16
#     4  11  22  35  53  75 100 135 178 218 254 302
#     4  10  18  32  53  76 103 133 168 212 258 307
#     4  10  19  34  54  73 102 139 169 209 260 309
#     4  10  21  34  50  76 107 138 171 207 257 313
#     4  10  21  36  52  73 102 134 175 217 256 303
#     4   9  17  30  51  77  99 127 169 209 250 303
#
# _framework density 17.861094999999999
#
# number of rings (size 3 to 8) (size 9 to 14) (size 15 to 20)
#    0.000    2.000    3.333    1.000    0.000    3.333 
#    0.000    1.667    0.000    1.000    0.000    3.500 
#    0.000    0.000    0.000    3.000    0.000    3.333 
#
# Total GULP energy -1189475.429076 kJ/mol
# GULP energy per Si atom -12390.369053 kJ/mol
# Density = 1.782044 g / cm^3
# Si number density = 17.861095 Si / 1000 Ang^3
#
#
#
# Elastic Constant Matrix: (Units=GPa)
#
#
# Indices 1 2 3 4 5 6 
#
# 1 91.7914 51.9309 28.0215 0.0000 0.0000 0.0000
# 2 51.9309 91.7914 28.0215 0.0000 0.0000 0.0000
# 3 28.0215 28.0215 53.3792 0.0000 0.0000 0.0000
# 4 0.0000 0.0000 0.0000 16.7781 0.0000 0.0000
# 5 0.0000 0.0000 0.0000 0.0000 16.7781 0.0000
# 6 0.0000 0.0000 0.0000 0.0000 0.0000 24.0474
#
#
#
# Elastic Compliance Matrix: (Units=1/GPa)
#
#
# Indices 1 2 3 4 5 6 
#
# 1 0.016918 -0.008169 -0.004593 0.000000 0.000000 0.000000
# 2 -0.008169 0.016918 -0.004593 0.000000 0.000000 0.000000
# 3 -0.004593 -0.004593 0.023556 0.000000 0.000000 0.000000
# 4 0.000000 0.000000 0.000000 0.059602 0.000000 0.000000
# 5 0.000000 0.000000 0.000000 0.000000 0.059602 0.000000
# 6 0.000000 0.000000 0.000000 0.000000 0.000000 0.041585
#
#
# Mechanical properties :
#
#
# Convention : Reuss Voigt Hill
#
# Bulk Modulus (GPa) = 44.08674 50.32328 47.20501
# Shear Modulus (GPa) = 19.19755 20.11992 19.65873
#
# Velocity S-wave (km/s) = 3.28201 3.35993 3.32120
# Velocity P-wave (km/s) = 6.25290 6.57937 6.41821
#
# Compressibility (1/GPa) = 0.02268256
#
# Stress axis : x y z
#
# Youngs Moduli (GPa) = 59.10823 59.10823 42.45257
#
# Poissons Ratio (x) = 0.48288 0.19497
# Poissons Ratio (y) = 0.48288 0.19497
# Poissons Ratio (z) = 0.27146 0.27146
#
# Static dielectric constant tensor:
#      x y z
#    x 3.370690 0.000000 0.000000 
#    y 0.000000 3.370690 0.000000 
#    z 0.000000 0.000000 3.219990 
# 
# 
# High freq. dielectric constant tensor:
#      x y z
#    x 1.680840 0.000000 0.000000 
#    y 0.000000 1.680840 0.000000 
#    z 0.000000 0.000000 1.674280 
# 
# From -- ./inp_files/1925.got.cif
#   From: 2010.03.12/outbox.cif.g09.slc.cpg/sg136_1_cif.got.tgz:1925.got - 2010.04.06 18:39:43.
