data_PCOD8317014
_publ_section_title
;
Structure prediction by ZEFSAII (Michael W. Deem and Ramdas Pophale) SiO2 
 PCOD8317014
Probable space group: P 42/N B C
;
_chemical_formula_sum "Si O2"
_cell_formula_units_Z 40
_cell_length_a 9.090557
_cell_length_b 9.090557
_cell_length_c 17.817435
_cell_angle_alpha 90.000000
_cell_angle_beta 90.000000
_cell_angle_gamma 90.000000
_cell_volume 1472.401230
_symmetry_space_group_name_H-M "P 42/N B C"
_symmetry_group_IT_number 133
_space_group.IT_coordinate_system_code '2'
_symmetry_cell_setting 'tetragonal'
loop_
_space_group_symop_operation_xyz
x,y,z
1/2-y,x,1/2+z
1/2-x,1/2-y,z
y,1/2-x,1/2+z
x,1/2-y,-z
1/2-x,y,-z
y,x,1/2-z
1/2-y,1/2-x,1/2-z
-x,-y,-z
1/2+y,-x,1/2-z
1/2+x,1/2+y,-z
-y,1/2+x,1/2-z
-x,1/2+y,z
1/2+x,-y,z
-y,-x,1/2+z
1/2+y,1/2+x,1/2+z
loop_
_atom_site_type_symbol
_atom_site_label
_atom_site_fract_x
_atom_site_fract_y
_atom_site_fract_z
Si Si1 0.085427 0.612886 0.551189
Si Si2 0.984812 0.656566 0.852028
Si Si3 0.412052 0.412052 0.250000
O O1 0.111679 0.750000 0.500000
O O2 0.248083 0.566389 0.582210
O O3 0.000000 0.500000 0.500000
O O4 0.965144 0.634043 0.618041
O O5 0.097472 0.561537 0.800709
O O6 0.898025 0.770038 0.801540
#
# Coordination Sequence:
#
# PCOD8317014 Si02
#       3
#    16  16   8
#     4  11  26  46  70 104 146 191 241 297 363 437
#     4  10  25  45  72 104 144 190 242 303 366 436
#     4  10  24  44  70 104 142 188 244 303 368 435
#
# _framework density 27.166509000000001
#
# number of rings (size 3 to 8) (size 9 to 14) (size 15 to 20)
#    0.000    1.600    0.000    1.200    0.000   27.200 
#    0.000    6.000    0.000    0.000    0.000    0.000 
#    0.000    0.000    0.000    0.000    0.000    0.000 
#
# Total GULP energy -495528.910110 kJ/mol
# GULP energy per Si atom -12388.222753 kJ/mol
# Density = 2.710468 g / cm^3
# Si number density = 27.166509 Si / 1000 Ang^3
#
#
#
# Elastic Constant Matrix: (Units=GPa)
#
#
# Indices 1 2 3 4 5 6 
#
# 1 190.9239 58.6726 70.8803 0.0000 0.0000 0.0000
# 2 58.6726 190.9239 70.8803 0.0000 0.0000 0.0000
# 3 70.8803 70.8803 133.2821 0.0000 0.0000 0.0000
# 4 0.0000 0.0000 0.0000 32.8321 0.0000 0.0000
# 5 0.0000 0.0000 0.0000 0.0000 32.8321 0.0000
# 6 0.0000 0.0000 0.0000 0.0000 0.0000 21.9516
#
#
#
# Elastic Compliance Matrix: (Units=1/GPa)
#
#
# Indices 1 2 3 4 5 6 
#
# 1 0.006651 -0.000911 -0.003053 0.000000 0.000000 0.000000
# 2 -0.000911 0.006651 -0.003053 0.000000 0.000000 0.000000
# 3 -0.003053 -0.003053 0.010750 0.000000 0.000000 0.000000
# 4 0.000000 0.000000 0.000000 0.030458 0.000000 0.000000
# 5 0.000000 0.000000 0.000000 0.000000 0.030458 0.000000
# 6 0.000000 0.000000 0.000000 0.000000 0.000000 0.045555
#
#
# Mechanical properties :
#
#
# Convention : Reuss Voigt Hill
#
# Bulk Modulus (GPa) = 99.80554 101.77737 100.79145
# Shear Modulus (GPa) = 33.80801 38.50294 36.15547
#
# Velocity S-wave (km/s) = 3.53154 3.76878 3.65209
# Velocity P-wave (km/s) = 7.31076 7.51558 7.41388
#
# Compressibility (1/GPa) = 0.01001948
#
# Stress axis : x y z
#
# Youngs Moduli (GPa) = 150.35731 150.35731 93.02497
#
# Poissons Ratio (x) = 0.13691 0.28398
# Poissons Ratio (y) = 0.13691 0.28398
# Poissons Ratio (z) = 0.45900 0.45900
#
# Static dielectric constant tensor:
#      x y z
#    x 5.074430 0.000000 0.000000 
#    y 0.000000 5.074430 0.000000 
#    z 0.000000 0.000000 6.906600 
# 
# 
# High freq. dielectric constant tensor:
#      x y z
#    x 2.097450 0.000000 0.000000 
#    y 0.000000 2.097450 0.000000 
#    z 0.000000 0.000000 2.136850 
# 
# From -- ./inp_files/6814.got.cif
#   From: 2010.03.12/outbox.cif.g09.slc.cpg/sg133_4_cif.got.tgz:6814.got - 2010.04.06 18:08:06.
