data_PCOD8317349
_publ_section_title
;
Structure prediction by ZEFSAII (Michael W. Deem and Ramdas Pophale) SiO2 
 PCOD8317349
Probable space group: P 42/N N M
;
_chemical_formula_sum "Si O2"
_cell_formula_units_Z 96
_cell_length_a 18.544836
_cell_length_b 18.544836
_cell_length_c 18.544842
_cell_angle_alpha 90.000000
_cell_angle_beta 90.000000
_cell_angle_gamma 90.000000
_cell_volume 6377.774086
_symmetry_space_group_name_H-M "P 42/N N M"
_symmetry_group_IT_number 134
_space_group.IT_coordinate_system_code '2'
_symmetry_cell_setting 'tetragonal'
loop_
_space_group_symop_operation_xyz
x,y,z
1/2-y,x,1/2+z
1/2-x,1/2-y,z
y,1/2-x,1/2+z
x,1/2-y,1/2-z
1/2-x,y,1/2-z
y,x,-z
1/2-y,1/2-x,-z
-x,-y,-z
1/2+y,-x,1/2-z
1/2+x,1/2+y,-z
-y,1/2+x,1/2-z
-x,1/2+y,1/2+z
1/2+x,-y,1/2+z
-y,-x,z
1/2+y,1/2+x,z
loop_
_atom_site_type_symbol
_atom_site_label
_atom_site_fract_x
_atom_site_fract_y
_atom_site_fract_z
Si Si1 0.245986 0.867469 0.670359
Si Si2 0.329641 0.245985 0.867469
Si Si3 0.632531 0.670359 0.745985
Si Si4 0.450911 0.664834 0.934306
Si Si5 0.434308 0.049091 0.664836
Si Si6 0.934308 0.664835 0.450910
O O1 0.250000 0.903570 0.750000
O O2 0.167301 0.832700 0.655216
O O3 0.305540 0.805540 0.668720
O O4 0.263540 0.926146 0.608792
O O5 0.250000 0.250000 0.903570
O O6 0.344784 0.167300 0.832700
O O7 0.331281 0.305540 0.805540
O O8 0.391208 0.263539 0.926146
O O9 0.596431 0.750000 0.750000
O O10 0.573855 0.608791 0.763538
O O11 0.382403 0.617598 0.959838
O O12 0.500002 0.617689 0.882310
O O13 0.495395 0.689671 0.004604
O O14 0.459840 0.117600 0.617600
O O15 0.504605 0.004605 0.689671
O O16 0.882312 0.617689 0.500000
#
# Coordination Sequence:
#
# PCOD8317349 Si02
#       6
#    16  16  16  16  16  16
#     4   8  14  25  40  56  74  98 128 160 191 222
#     4   8  14  25  40  56  74  98 128 160 191 222
#     4   8  14  25  40  56  74  98 128 160 191 222
#     4   9  16  25  38  57  80 103 126 154 190 230
#     4   9  16  25  38  57  80 103 126 154 190 230
#     4   9  16  25  38  57  80 103 126 154 190 230
#
# _framework density 15.052274000000001
#
# number of rings (size 3 to 8) (size 9 to 14) (size 15 to 20)
#    0.000    3.500    0.000    2.000    0.000    3.000 
#    0.000    0.000    0.000    1.000    0.000    0.000 
#    0.000    0.000    0.000   25.000    0.000    2.500 
#
# Total GULP energy -1189634.025689 kJ/mol
# GULP energy per Si atom -12392.021101 kJ/mol
# Density = 1.501801 g / cm^3
# Si number density = 15.052274 Si / 1000 Ang^3
#
#
#
# Elastic Constant Matrix: (Units=GPa)
#
#
# Indices 1 2 3 4 5 6 
#
# 1 69.2915 45.6548 45.6552 0.0000 0.0000 0.0000
# 2 45.6548 69.2915 45.6552 0.0000 0.0000 0.0000
# 3 45.6552 45.6552 69.2916 0.0000 0.0000 0.0000
# 4 0.0000 0.0000 0.0000 19.5080 0.0000 0.0000
# 5 0.0000 0.0000 0.0000 0.0000 19.5081 0.0000
# 6 0.0000 0.0000 0.0000 0.0000 0.0000 19.5079
#
#
#
# Elastic Compliance Matrix: (Units=1/GPa)
#
#
# Indices 1 2 3 4 5 6 
#
# 1 0.030280 -0.012027 -0.012027 0.000000 0.000000 0.000000
# 2 -0.012027 0.030281 -0.012027 0.000000 0.000000 0.000000
# 3 -0.012027 -0.012027 0.030281 0.000000 0.000000 0.000000
# 4 0.000000 0.000000 0.000000 0.051261 0.000000 0.000000
# 5 0.000000 0.000000 0.000000 0.000000 0.051261 0.000000
# 6 0.000000 0.000000 0.000000 0.000000 0.000000 0.051261
#
#
# Mechanical properties :
#
#
# Convention : Reuss Voigt Hill
#
# Bulk Modulus (GPa) = 53.53388 53.53388 53.53388
# Shear Modulus (GPa) = 15.47925 16.43211 15.95568
#
# Velocity S-wave (km/s) = 3.21029 3.30763 3.25932
# Velocity P-wave (km/s) = 7.02736 7.08729 7.05739
#
# Compressibility (1/GPa) = 0.01867976
#
# Stress axis : x y z
#
# Youngs Moduli (GPa) = 33.02462 33.02454 33.02423
#
# Poissons Ratio (x) = 0.39718 0.39719
# Poissons Ratio (y) = 0.39718 0.39719
# Poissons Ratio (z) = 0.39719 0.39719
#
# Static dielectric constant tensor:
#      x y z
#    x 2.954130 0.000000 0.000000 
#    y 0.000000 2.954130 0.000000 
#    z 0.000000 0.000000 2.954130 
# 
# 
# High freq. dielectric constant tensor:
#      x y z
#    x 1.554850 0.000000 0.000000 
#    y 0.000000 1.554850 0.000000 
#    z 0.000000 0.000000 1.554850 
# 
# From -- ./inp_files/9261.got.cif
#   From: 2010.03.12/outbox.cif.g09.slc.cpg/sg134_5_cif.got.tgz:9261.got - 2010.04.06 18:17:22.
