data_PCOD8317981
_publ_section_title
;
Structure prediction by ZEFSAII (Michael W. Deem and Ramdas Pophale) SiO2 
 PCOD8317981
Probable space group: P 42/M N M
;
_chemical_formula_sum "Si O2"
_cell_formula_units_Z 96
_cell_length_a 15.880254
_cell_length_b 15.880254
_cell_length_c 19.718211
_cell_angle_alpha 90.000000
_cell_angle_beta 90.000000
_cell_angle_gamma 90.000000
_cell_volume 4972.587097
_symmetry_space_group_name_H-M "P 42/M N M"
_symmetry_group_IT_number 136
_symmetry_cell_setting 'tetragonal'
loop_
_space_group_symop_operation_xyz
x,y,z
1/2-y,1/2+x,1/2+z
-x,-y,z
1/2+y,1/2-x,1/2+z
1/2+x,1/2-y,1/2-z
1/2-x,1/2+y,1/2-z
y,x,-z
-y,-x,-z
-x,-y,-z
1/2+y,1/2-x,1/2-z
x,y,-z
1/2-y,1/2+x,1/2-z
1/2-x,1/2+y,1/2+z
1/2+x,1/2-y,1/2+z
-y,-x,z
y,x,z
loop_
_atom_site_type_symbol
_atom_site_label
_atom_site_fract_x
_atom_site_fract_y
_atom_site_fract_z
Si Si1 0.042341 0.227785 0.000000
Si Si2 0.459345 0.247663 0.125147
Si Si3 0.634395 0.497276 0.364884
Si Si4 0.729399 0.142040 0.000000
Si Si5 0.603157 0.743176 0.728739
Si Si6 0.786570 0.347269 0.134488
Si Si7 0.704639 0.154121 0.500000
Si Si8 0.569991 0.569991 0.078288
O O1 0.043508 0.170833 0.933121
O O2 0.957564 0.282297 0.000000
O O3 0.121927 0.289081 0.000000
O O4 0.420143 0.223845 0.197244
O O5 0.553652 0.215182 0.126644
O O6 0.463100 0.347429 0.115204
O O7 0.404650 0.203478 0.066532
O O8 0.573501 0.426500 0.331202
O O9 0.580861 0.580861 0.383367
O O10 0.709458 0.521337 0.312877
O O11 0.685674 0.179899 0.935638
O O12 0.827940 0.172061 0.000000
O O13 0.666408 0.666408 0.735746
O O14 0.646467 0.822133 0.692117
O O15 0.695227 0.304774 0.149975
O O16 0.787661 0.212340 0.500000
O O17 0.500000 0.500000 0.086169
O O18 0.590060 0.590060 0.000000
#
# Coordination Sequence:
#
# PCOD8317981 Si02
#       8
#     8  16  16   8  16  16   8   8
#     4  12  22  37  65  91 124 166 210 250 304 385
#     4  12  22  43  64  88 129 168 208 261 317 377
#     4  10  20  35  59  94 127 156 199 260 322 376
#     4  10  19  39  68  91 124 159 202 271 320 357
#     4  10  21  39  61  87 127 167 197 254 317 377
#     4  10  22  39  66  96 120 161 213 254 314 374
#     4  12  25  43  62  89 125 171 211 257 322 378
#     4  11  22  38  66 100 126 155 209 275 336 380
#
# _framework density 19.305847
#
# number of rings (size 3 to 8) (size 9 to 14) (size 15 to 20)
#    0.000    1.250    4.167    2.500    0.000    3.333 
#    0.000    3.333    0.000    0.000    0.000    0.000 
#    0.000    0.000    0.000    0.000    0.000    0.000 
#
# Total GULP energy -1190343.899163 kJ/mol
# GULP energy per Si atom -12399.415616 kJ/mol
# Density = 1.926191 g / cm^3
# Si number density = 19.305847 Si / 1000 Ang^3
#
#
#
# Elastic Constant Matrix: (Units=GPa)
#
#
# Indices 1 2 3 4 5 6 
#
# 1 114.0253 57.1274 52.3171 0.0000 0.0000 0.0000
# 2 57.1274 114.0277 52.3179 0.0000 0.0000 0.0000
# 3 52.3171 52.3179 141.7302 0.0000 0.0000 0.0000
# 4 0.0000 0.0000 0.0000 9.0298 0.0000 0.0000
# 5 0.0000 0.0000 0.0000 0.0000 9.0300 0.0000
# 6 0.0000 0.0000 0.0000 0.0000 0.0000 28.2753
#
#
#
# Elastic Compliance Matrix: (Units=1/GPa)
#
#
# Indices 1 2 3 4 5 6 
#
# 1 0.012560 -0.005015 -0.002785 0.000000 0.000000 0.000000
# 2 -0.005015 0.012560 -0.002785 0.000000 0.000000 0.000000
# 3 -0.002785 -0.002785 0.009112 0.000000 0.000000 0.000000
# 4 0.000000 0.000000 0.000000 0.110745 0.000000 0.000000
# 5 0.000000 0.000000 0.000000 0.000000 0.110742 0.000000
# 6 0.000000 0.000000 0.000000 0.000000 0.000000 0.035367
#
#
# Mechanical properties :
#
#
# Convention : Reuss Voigt Hill
#
# Bulk Modulus (GPa) = 76.55949 77.03422 76.79686
# Shear Modulus (GPa) = 15.79230 23.13508 19.46369
#
# Velocity S-wave (km/s) = 2.86318 3.46547 3.17862
# Velocity P-wave (km/s) = 7.11847 7.48340 7.30322
#
# Compressibility (1/GPa) = 0.01306174
#
# Stress axis : x y z
#
# Youngs Moduli (GPa) = 79.61566 79.61719 109.74583
#
# Poissons Ratio (x) = 0.39926 0.30568
# Poissons Ratio (y) = 0.39925 0.30568
# Poissons Ratio (z) = 0.22175 0.22176
#
# Static dielectric constant tensor:
#      x y z
#    x 3.506410 0.000000 0.000000 
#    y 0.000000 3.506410 0.000000 
#    z 0.000000 0.000000 3.945390 
# 
# 
# High freq. dielectric constant tensor:
#      x y z
#    x 1.743550 0.000000 0.000000 
#    y 0.000000 1.743550 0.000000 
#    z 0.000000 0.000000 1.762950 
# 
# From -- ./inp_files/7571.got.cif
#   From: 2010.03.12/outbox.cif.g09.slc.cpg/sg136_4_cif.got.tgz:7571.got - 2010.04.06 18:39:43.
