data_PCOD8317938
_publ_section_title
;
Structure prediction by ZEFSAII (Michael W. Deem and Ramdas Pophale) SiO2 
 PCOD8317938
Probable space group: P 42/M N M
;
_chemical_formula_sum "Si O2"
_cell_formula_units_Z 72
_cell_length_a 20.319944
_cell_length_b 20.319944
_cell_length_c 10.320638
_cell_angle_alpha 90.000000
_cell_angle_beta 90.000000
_cell_angle_gamma 90.000000
_cell_volume 4261.392712
_symmetry_space_group_name_H-M "P 42/M N M"
_symmetry_group_IT_number 136
_symmetry_cell_setting 'tetragonal'
loop_
_space_group_symop_operation_xyz
x,y,z
1/2-y,1/2+x,1/2+z
-x,-y,z
1/2+y,1/2-x,1/2+z
1/2+x,1/2-y,1/2-z
1/2-x,1/2+y,1/2-z
y,x,-z
-y,-x,-z
-x,-y,-z
1/2+y,1/2-x,1/2-z
x,y,-z
1/2-y,1/2+x,1/2-z
1/2-x,1/2+y,1/2+z
1/2+x,1/2-y,1/2+z
-y,-x,z
y,x,z
loop_
_atom_site_type_symbol
_atom_site_label
_atom_site_fract_x
_atom_site_fract_y
_atom_site_fract_z
Si Si1 0.310651 0.798855 0.000000
Si Si2 0.001904 0.814589 0.239683
Si Si3 0.862586 0.751771 0.241084
Si Si4 0.446065 0.553936 0.356621
Si Si5 0.095721 0.793064 0.000000
Si Si6 0.809327 0.300202 0.500000
Si Si7 0.083802 0.804448 0.500000
O O1 0.354698 0.787905 0.873980
O O2 0.251317 0.748684 0.000000
O O3 0.278728 0.871033 0.000000
O O4 0.037527 0.807958 0.375988
O O5 0.939071 0.767669 0.228124
O O6 0.977321 0.888651 0.227227
O O7 0.052395 0.797153 0.127486
O O8 0.818202 0.818202 0.236227
O O9 0.844196 0.701345 0.127099
O O10 0.500000 0.500000 0.381872
O O11 0.421413 0.578588 0.500000
O O12 0.147731 0.852270 0.000000
O O13 0.757833 0.242168 0.500000
O O14 0.881097 0.266941 0.500000
O O15 0.136096 0.863905 0.500000
#
# Coordination Sequence:
#
# PCOD8317938 Si02
#       7
#     8  16  16   8   8   8   8
#     4   9  19  34  53  70  99 134 175 217 272 311
#     4  12  22  34  54  77 110 140 188 217 256 311
#     4  10  19  34  52  75 100 135 175 222 265 304
#     4  11  22  35  49  73 107 157 189 215 233 290
#     4  11  21  35  54  77 102 144 181 221 254 306
#     4   9  19  34  55  72  99 134 177 223 278 315
#     4  11  23  37  50  77 112 148 173 219 272 320
#
# _framework density 16.895885
#
# number of rings (size 3 to 8) (size 9 to 14) (size 15 to 20)
#    0.000    1.444    2.222    4.667    0.000    4.000 
#    0.000    1.111    0.000    0.000    0.000    0.000 
#    0.000   62.222    0.000    0.000    0.000    0.000 
#
# Total GULP energy -892875.538578 kJ/mol
# GULP energy per Si atom -12401.049147 kJ/mol
# Density = 1.685743 g / cm^3
# Si number density = 16.895885 Si / 1000 Ang^3
#
#
#
# Elastic Constant Matrix: (Units=GPa)
#
#
# Indices 1 2 3 4 5 6 
#
# 1 448.8419 -295.4030 58.9623 0.0000 0.0000 0.0000
# 2 -295.4030 448.8589 58.9634 0.0000 0.0000 0.0000
# 3 58.9623 58.9634 168.5472 0.0000 0.0000 0.0000
# 4 0.0000 0.0000 0.0000 11.7162 0.0000 0.0000
# 5 0.0000 0.0000 0.0000 0.0000 11.7114 0.0000
# 6 0.0000 0.0000 0.0000 0.0000 0.0000 40.0199
#
#
#
# Elastic Compliance Matrix: (Units=1/GPa)
#
#
# Indices 1 2 3 4 5 6 
#
# 1 0.005129 0.003785 -0.003118 0.000000 0.000000 0.000000
# 2 0.003785 0.005128 -0.003118 0.000000 0.000000 0.000000
# 3 -0.003118 -0.003118 0.008115 0.000000 0.000000 0.000000
# 4 0.000000 0.000000 0.000000 0.085352 0.000000 0.000000
# 5 0.000000 0.000000 0.000000 0.000000 0.085387 0.000000
# 6 0.000000 0.000000 0.000000 0.000000 0.000000 0.024988
#
#
# Mechanical properties :
#
#
# Convention : Reuss Voigt Hill
#
# Bulk Modulus (GPa) = 74.24658 79.03259 76.63959
# Shear Modulus (GPa) = 22.37233 95.60451 58.98842
#
# Velocity S-wave (km/s) = 3.64281 7.53043 5.91512
# Velocity P-wave (km/s) = 7.85699 11.06741 9.59739
#
# Compressibility (1/GPa) = 0.01346863
#
# Stress axis : x y z
#
# Youngs Moduli (GPa) = 194.98875 194.99614 123.23370
#
# Poissons Ratio (x) = -0.73802 0.38426
# Poissons Ratio (y) = -0.73799 0.38425
# Poissons Ratio (z) = 0.60800 0.60801
#
# Static dielectric constant tensor:
#      x y z
#    x 3.173600 0.000000 0.000000 
#    y 0.000000 3.173600 0.000000 
#    z 0.000000 0.000000 3.754950 
# 
# 
# High freq. dielectric constant tensor:
#      x y z
#    x 1.637230 0.000000 0.000000 
#    y 0.000000 1.637230 0.000000 
#    z 0.000000 0.000000 1.674150 
# 
# From -- ./inp_files/1677.got.cif
#   From: 2010.03.12/outbox.cif.g09.slc.cpg/sg136_1_cif.got.tgz:1677.got - 2010.04.06 18:39:43.
