data_PCOD8317998
_publ_section_title
;
Structure prediction by ZEFSAII (Michael W. Deem and Ramdas Pophale) SiO2 
 PCOD8317998
Probable space group: P 42/M N M
;
_chemical_formula_sum "Si O2"
_cell_formula_units_Z 112
_cell_length_a 14.076997
_cell_length_b 14.076997
_cell_length_c 31.807394
_cell_angle_alpha 90.000000
_cell_angle_beta 90.000000
_cell_angle_gamma 90.000000
_cell_volume 6303.011865
_symmetry_space_group_name_H-M "P 42/M N M"
_symmetry_group_IT_number 136
_symmetry_cell_setting 'tetragonal'
loop_
_space_group_symop_operation_xyz
x,y,z
1/2-y,1/2+x,1/2+z
-x,-y,z
1/2+y,1/2-x,1/2+z
1/2+x,1/2-y,1/2-z
1/2-x,1/2+y,1/2-z
y,x,-z
-y,-x,-z
-x,-y,-z
1/2+y,1/2-x,1/2-z
x,y,-z
1/2-y,1/2+x,1/2-z
1/2-x,1/2+y,1/2+z
1/2+x,1/2-y,1/2+z
-y,-x,z
y,x,z
loop_
_atom_site_type_symbol
_atom_site_label
_atom_site_fract_x
_atom_site_fract_y
_atom_site_fract_z
Si Si1 0.885856 0.733480 0.901260
Si Si2 0.095996 0.252738 0.770384
Si Si3 0.306685 0.461966 0.660180
Si Si4 0.212506 0.060371 0.678148
Si Si5 0.823685 0.675570 0.612561
Si Si6 0.891274 0.524661 0.548599
Si Si7 0.708781 0.138100 0.669933
O O1 0.798186 0.798186 0.918531
O O2 0.851583 0.642761 0.873256
O O3 0.952479 0.803952 0.873662
O O4 0.941816 0.683765 0.939472
O O5 0.167780 0.167780 0.778497
O O6 0.083027 0.269729 0.720824
O O7 0.135951 0.351805 0.790431
O O8 0.998598 0.218997 0.793049
O O9 0.409601 0.409601 0.660221
O O10 0.224102 0.389617 0.647742
O O11 0.105595 0.105595 0.680157
O O12 0.265820 0.097369 0.637291
O O13 0.215860 0.947135 0.673202
O O14 0.746049 0.746049 0.592331
O O15 0.870216 0.619274 0.574602
O O16 0.875801 0.547928 0.500000
O O17 0.000000 0.500000 0.558276
O O18 0.765308 0.234693 0.669334
#
# Coordination Sequence:
#
# PCOD8317998 Si02
#       7
#    16  16  16  16  16  16  16
#     4   9  18  33  52  75 103 135 163 196 254 309
#     4   9  19  31  44  67  95 126 164 206 250 290
#     4   9  17  30  50  71  96 135 174 204 240 292
#     4  10  20  32  48  69  93 126 172 216 252 297
#     4   9  19  34  51  70  97 134 166 202 250 299
#     4  10  20  34  55  80 102 127 165 211 250 298
#     4   9  18  33  50  65  95 133 161 204 257 305
#
# _framework density 17.769283000000001
#
# number of rings (size 3 to 8) (size 9 to 14) (size 15 to 20)
#    0.000    2.714    0.000    2.143    2.000    2.571 
#    0.000    1.429    0.000    0.000    0.000    4.000 
#    0.000    0.000    0.000   26.571    0.000    0.143 
#
# Total GULP energy -1387718.916637 kJ/mol
# GULP energy per Si atom -12390.347470 kJ/mol
# Density = 1.772884 g / cm^3
# Si number density = 17.769283 Si / 1000 Ang^3
#
#
#
# Elastic Constant Matrix: (Units=GPa)
#
#
# Indices 1 2 3 4 5 6 
#
# 1 77.8514 30.4002 39.6548 0.0000 0.0000 0.0000
# 2 30.4002 77.8514 39.6548 0.0000 0.0000 0.0000
# 3 39.6548 39.6548 97.7574 0.0000 0.0000 0.0000
# 4 0.0000 0.0000 0.0000 20.7076 0.0000 0.0000
# 5 0.0000 0.0000 0.0000 0.0000 20.7076 0.0000
# 6 0.0000 0.0000 0.0000 0.0000 0.0000 30.7677
#
#
#
# Elastic Compliance Matrix: (Units=1/GPa)
#
#
# Indices 1 2 3 4 5 6 
#
# 1 0.017109 -0.003965 -0.005332 0.000000 0.000000 0.000000
# 2 -0.003965 0.017109 -0.005332 0.000000 0.000000 0.000000
# 3 -0.005332 -0.005332 0.014555 0.000000 0.000000 0.000000
# 4 0.000000 0.000000 0.000000 0.048292 0.000000 0.000000
# 5 0.000000 0.000000 0.000000 0.000000 0.048292 0.000000
# 6 0.000000 0.000000 0.000000 0.000000 0.000000 0.032502
#
#
# Mechanical properties :
#
#
# Convention : Reuss Voigt Hill
#
# Bulk Modulus (GPa) = 51.24030 52.54218 51.89124
# Shear Modulus (GPa) = 23.40595 24.01993 23.71294
#
# Velocity S-wave (km/s) = 3.63328 3.68063 3.65703
# Velocity P-wave (km/s) = 6.81909 6.90623 6.86280
#
# Compressibility (1/GPa) = 0.01951589
#
# Stress axis : x y z
#
# Youngs Moduli (GPa) = 58.44821 58.44821 68.70471
#
# Poissons Ratio (x) = 0.23175 0.36632
# Poissons Ratio (y) = 0.23175 0.36632
# Poissons Ratio (z) = 0.31163 0.31163
#
# Static dielectric constant tensor:
#      x y z
#    x 3.279290 0.000000 0.000000 
#    y 0.000000 3.279290 0.000000 
#    z 0.000000 0.000000 3.153790 
# 
# 
# High freq. dielectric constant tensor:
#      x y z
#    x 1.683000 0.000000 0.000000 
#    y 0.000000 1.683000 0.000000 
#    z 0.000000 0.000000 1.669600 
# 
# From -- ./inp_files/9963.got.cif
#   From: 2010.03.12/outbox.cif.g09.slc.cpg/sg136_5_cif.got.tgz:9963.got - 2010.04.06 18:39:43.
