data_PCOD8317398
_publ_section_title
;
Structure prediction by ZEFSAII (Michael W. Deem and Ramdas Pophale) SiO2 
 PCOD8317398
Probable space group: P 42/M B C
;
_chemical_formula_sum "Si O2"
_cell_formula_units_Z 96
_cell_length_a 28.842150
_cell_length_b 28.842150
_cell_length_c 9.153815
_cell_angle_alpha 90.000000
_cell_angle_beta 90.000000
_cell_angle_gamma 90.000000
_cell_volume 7614.780575
_symmetry_space_group_name_H-M "P 42/M B C"
_symmetry_group_IT_number 135
_symmetry_cell_setting 'tetragonal'
loop_
_space_group_symop_operation_xyz
x,y,z
-y,x,1/2+z
-x,-y,z
y,-x,1/2+z
1/2+x,1/2-y,-z
1/2-x,1/2+y,-z
1/2+y,1/2+x,1/2-z
1/2-y,1/2-x,1/2-z
-x,-y,-z
y,-x,1/2-z
x,y,-z
-y,x,1/2-z
1/2-x,1/2+y,z
1/2+x,1/2-y,z
1/2-y,1/2-x,1/2+z
1/2+y,1/2+x,1/2+z
loop_
_atom_site_type_symbol
_atom_site_label
_atom_site_fract_x
_atom_site_fract_y
_atom_site_fract_z
Si Si1 0.050461 0.879920 0.170451
Si Si2 0.822257 0.259287 0.663218
Si Si3 0.884029 0.198068 0.838781
Si Si4 0.319425 0.755497 0.165686
Si Si5 0.057509 0.121891 0.171436
Si Si6 0.381801 0.691757 0.664374
O O1 0.069495 0.828620 0.213968
O O2 0.075660 0.918942 0.265922
O O3 0.996596 0.882280 0.204902
O O4 0.061731 0.889255 0.000000
O O5 0.804137 0.304137 0.750000
O O6 0.833491 0.275416 0.500000
O O7 0.870121 0.240045 0.732202
O O8 0.783816 0.219573 0.665568
O O9 0.843486 0.160514 0.842402
O O10 0.891007 0.219374 0.000000
O O11 0.300688 0.800688 0.250000
O O12 0.365387 0.737519 0.248608
O O13 0.332426 0.769151 0.000000
O O14 0.075674 0.168225 0.250152
O O15 0.068240 0.125792 0.000000
O O16 0.397298 0.705375 0.500000
#
# Coordination Sequence:
#
# PCOD8317398 Si02
#       6
#    16  16  16  16  16  16
#     4   9  19  32  42  53  68  85 106 137 179 220
#     4   9  15  21  31  48  67  85 104 123 146 180
#     4   8  14  25  37  47  63  84 103 126 158 195
#     4   9  15  22  33  50  70  90 110 129 152 186
#     4  10  19  30  43  55  66  83 109 140 176 219
#     4   9  16  26  38  51  68  87 106 131 164 200
#
# _framework density 12.607060000000001
#
# number of rings (size 3 to 8) (size 9 to 14) (size 15 to 20)
#    0.000    3.000    0.000    3.000    0.000    9.667 
#    0.000    1.667    0.000    0.000    0.000    0.000 
#    0.000    0.000    0.000    0.000    0.000    0.000 
#
# Total GULP energy -1189994.020411 kJ/mol
# GULP energy per Si atom -12395.771046 kJ/mol
# Density = 1.257837 g / cm^3
# Si number density = 12.607060 Si / 1000 Ang^3
#
#
#
# Elastic Constant Matrix: (Units=GPa)
#
#
# Indices 1 2 3 4 5 6 
#
# 1 47.4984 47.7280 46.4079 0.0000 0.0000 0.0000
# 2 47.7280 47.4984 46.4079 0.0000 0.0000 0.0000
# 3 46.4079 46.4079 112.2647 0.0000 0.0000 0.0000
# 4 0.0000 0.0000 0.0000 16.0566 0.0000 0.0000
# 5 0.0000 0.0000 0.0000 0.0000 16.0566 0.0000
# 6 0.0000 0.0000 0.0000 0.0000 0.0000 13.1172
#
#
#
# Elastic Compliance Matrix: (Units=1/GPa)
#
#
# Indices 1 2 3 4 5 6 
#
# 1 -2.169687 2.187274 -0.007270 0.000000 0.000000 0.000000
# 2 2.187274 -2.169687 -0.007270 0.000000 0.000000 0.000000
# 3 -0.007270 -0.007270 0.014918 0.000000 0.000000 0.000000
# 4 0.000000 0.000000 0.000000 0.062280 0.000000 0.000000
# 5 0.000000 0.000000 0.000000 0.000000 0.062280 0.000000
# 6 0.000000 0.000000 0.000000 0.000000 0.000000 0.076236
#
#
# Mechanical properties :
#
#
# Convention : Reuss Voigt Hill
#
# Bulk Modulus (GPa) = 47.59153 54.26103 50.92628
# Shear Modulus (GPa) = -0.59087 13.49392 6.45153
#
# Velocity S-wave (km/s) = -0.68535 3.27516 2.26462
# Velocity P-wave (km/s) = 6.09964 7.57865 6.87901
#
# Compressibility (1/GPa) = 0.02101214
#
# Stress axis : x y z
#
# Youngs Moduli (GPa) = -0.46090 -0.46090 67.03156
#
# Poissons Ratio (x) = 1.00811 0.48734
# Poissons Ratio (y) = 1.00811 0.48734
# Poissons Ratio (z) = -0.00335 -0.00335
#
# Static dielectric constant tensor:
#      x y z
#    x 2.400120 0.000000 0.000000 
#    y 0.000000 2.400120 0.000000 
#    z 0.000000 0.000000 2.797520 
# 
# 
# High freq. dielectric constant tensor:
#      x y z
#    x 1.439590 0.000000 0.000000 
#    y 0.000000 1.439590 0.000000 
#    z 0.000000 0.000000 1.498450 
# 
# From -- ./inp_files/1367.got.cif
#   From: 2010.03.12/outbox.cif.g09.slc.cpg/sg135_1_cif.got.tgz:1367.got - 2010.04.06 18:31:24.
