data_PCOD8317504
_publ_section_title
;
Structure prediction by ZEFSAII (Michael W. Deem and Ramdas Pophale) SiO2 
 PCOD8317504
Probable space group: P 42/M B C
;
_chemical_formula_sum "Si O2"
_cell_formula_units_Z 96
_cell_length_a 24.162532
_cell_length_b 24.162532
_cell_length_c 8.705341
_cell_angle_alpha 90.000000
_cell_angle_beta 90.000000
_cell_angle_gamma 90.000000
_cell_volume 5082.421413
_symmetry_space_group_name_H-M "P 42/M B C"
_symmetry_group_IT_number 135
_symmetry_cell_setting 'tetragonal'
loop_
_space_group_symop_operation_xyz
x,y,z
-y,x,1/2+z
-x,-y,z
y,-x,1/2+z
1/2+x,1/2-y,-z
1/2-x,1/2+y,-z
1/2+y,1/2+x,1/2-z
1/2-y,1/2-x,1/2-z
-x,-y,-z
y,-x,1/2-z
x,y,-z
-y,x,1/2-z
1/2-x,1/2+y,z
1/2+x,1/2-y,z
1/2-y,1/2-x,1/2+z
1/2+y,1/2+x,1/2+z
loop_
_atom_site_type_symbol
_atom_site_label
_atom_site_fract_x
_atom_site_fract_y
_atom_site_fract_z
Si Si1 0.353879 0.937260 0.823822
Si Si2 0.648735 0.935365 0.822466
Si Si3 0.639875 0.642421 0.680826
Si Si4 0.733403 0.436781 0.318868
Si Si5 0.440758 0.443568 0.183030
Si Si6 0.736224 0.562638 0.681660
O O1 0.403212 0.903212 0.750000
O O2 0.296547 0.922772 0.742126
O O3 0.369367 0.001261 0.803750
O O4 0.347386 0.920417 0.000000
O O5 0.600242 0.899759 0.750000
O O6 0.704358 0.923376 0.729004
O O7 0.658331 0.919769 0.000000
O O8 0.638249 0.650389 0.500000
O O9 0.615557 0.698573 0.753471
O O10 0.601342 0.595925 0.741769
O O11 0.699011 0.615925 0.733762
O O12 0.726409 0.434669 0.500000
O O13 0.717536 0.499989 0.259872
O O14 0.423527 0.501960 0.248850
O O15 0.441596 0.442595 0.000000
O O16 0.737246 0.559185 0.500000
#
# Coordination Sequence:
#
# PCOD8317504 Si02
#       6
#    16  16  16  16  16  16
#     4  10  21  37  60  87 116 146 179 219 269 327
#     4  10  21  38  60  87 116 148 182 222 272 329
#     4  11  21  34  53  78 107 143 188 234 277 331
#     4  10  20  36  57  81 111 149 189 233 282 332
#     4  11  21  33  48  69  99 135 177 230 288 341
#     4   9  20  37  56  78 109 147 187 230 278 327
#
# _framework density 18.888632999999999
#
# number of rings (size 3 to 8) (size 9 to 14) (size 15 to 20)
#    0.000    1.833    0.000    5.000    0.000    5.667 
#    0.000    2.500    0.000    4.000    0.000    0.000 
#    0.000    0.000    0.000    0.000    0.000    0.000 
#
# Total GULP energy -1189254.794766 kJ/mol
# GULP energy per Si atom -12388.070779 kJ/mol
# Density = 1.884564 g / cm^3
# Si number density = 18.888633 Si / 1000 Ang^3
#
#
#
# Elastic Constant Matrix: (Units=GPa)
#
#
# Indices 1 2 3 4 5 6 
#
# 1 90.0453 69.5959 28.8481 0.0000 0.0000 0.0000
# 2 69.5959 90.0329 28.8560 0.0000 0.0000 0.0000
# 3 28.8481 28.8560 126.3664 0.0000 0.0000 0.0000
# 4 0.0000 0.0000 0.0000 32.5286 0.0000 0.0000
# 5 0.0000 0.0000 0.0000 0.0000 32.5288 0.0000
# 6 0.0000 0.0000 0.0000 0.0000 0.0000 40.1002
#
#
#
# Elastic Compliance Matrix: (Units=1/GPa)
#
#
# Indices 1 2 3 4 5 6 
#
# 1 0.027869 -0.021044 -0.001557 0.000000 0.000000 0.000000
# 2 -0.021044 0.027875 -0.001561 0.000000 0.000000 0.000000
# 3 -0.001557 -0.001561 0.008625 0.000000 0.000000 0.000000
# 4 0.000000 0.000000 0.000000 0.030742 0.000000 0.000000
# 5 0.000000 0.000000 0.000000 0.000000 0.030742 0.000000
# 6 0.000000 0.000000 0.000000 0.000000 0.000000 0.024938
#
#
# Mechanical properties :
#
#
# Convention : Reuss Voigt Hill
#
# Bulk Modulus (GPa) = 62.32370 62.33830 62.33100
# Shear Modulus (GPa) = 24.45424 32.97449 28.71436
#
# Velocity S-wave (km/s) = 3.60203 4.18273 3.90319
# Velocity P-wave (km/s) = 7.09694 7.51011 7.30644
#
# Compressibility (1/GPa) = 0.01604526
#
# Stress axis : x y z
#
# Youngs Moduli (GPa) = 35.88177 35.87490 115.93715
#
# Poissons Ratio (x) = 0.75496 0.18049
# Poissons Ratio (y) = 0.75510 0.18098
# Poissons Ratio (z) = 0.05586 0.05600
#
# Static dielectric constant tensor:
#      x y z
#    x 3.787820 0.000000 0.000000 
#    y 0.000000 3.787820 0.000000 
#    z 0.000000 0.000000 3.682790 
# 
# 
# High freq. dielectric constant tensor:
#      x y z
#    x 1.732470 0.000000 0.000000 
#    y 0.000000 1.732470 0.000000 
#    z 0.000000 0.000000 1.744510 
# 
# From -- ./inp_files/1236.got.cif
#   From: 2010.03.12/outbox.cif.g09.slc.cpg/sg135_1_cif.got.tgz:1236.got - 2010.04.06 18:31:24.
