data_PCOD8317689
_publ_section_title
;
Structure prediction by ZEFSAII (Michael W. Deem and Ramdas Pophale) SiO2 
 PCOD8317689
Probable space group: P 42/M N M
;
_chemical_formula_sum "Si O2"
_cell_formula_units_Z 92
_cell_length_a 22.063993
_cell_length_b 22.063993
_cell_length_c 14.301313
_cell_angle_alpha 90.000000
_cell_angle_beta 90.000000
_cell_angle_gamma 90.000000
_cell_volume 6962.162150
_symmetry_space_group_name_H-M "P 42/M N M"
_symmetry_group_IT_number 136
_symmetry_cell_setting 'tetragonal'
loop_
_space_group_symop_operation_xyz
x,y,z
1/2-y,1/2+x,1/2+z
-x,-y,z
1/2+y,1/2-x,1/2+z
1/2+x,1/2-y,1/2-z
1/2-x,1/2+y,1/2-z
y,x,-z
-y,-x,-z
-x,-y,-z
1/2+y,1/2-x,1/2-z
x,y,-z
1/2-y,1/2+x,1/2-z
1/2-x,1/2+y,1/2+z
1/2+x,1/2-y,1/2+z
-y,-x,z
y,x,z
loop_
_atom_site_type_symbol
_atom_site_label
_atom_site_fract_x
_atom_site_fract_y
_atom_site_fract_z
Si Si1 0.406250 0.694144 0.184967
Si Si2 0.275813 0.376100 0.390971
Si Si3 0.666996 0.511536 0.688972
Si Si4 0.218012 0.680345 0.896460
Si Si5 0.059949 0.940052 0.500000
Si Si6 0.953347 0.046653 0.290070
Si Si7 0.459169 0.641572 0.000000
Si Si8 0.997956 0.098683 0.000000
O O1 0.359646 0.640355 0.209087
O O2 0.453542 0.701730 0.269307
O O3 0.371980 0.758799 0.173593
O O4 0.441525 0.680407 0.089598
O O5 0.272627 0.394482 0.500000
O O6 0.332831 0.332831 0.373678
O O7 0.284337 0.434904 0.326054
O O8 0.213331 0.343007 0.359584
O O9 0.614852 0.531228 0.761115
O O10 0.639393 0.492927 0.590286
O O11 0.270065 0.729936 0.906169
O O12 0.206323 0.653079 0.000000
O O13 0.035860 0.964141 0.400195
O O14 0.033062 0.870951 0.500000
O O15 0.000000 0.000000 0.238892
O O16 0.423127 0.576873 0.000000
O O17 0.046709 0.046709 0.000000
O O18 0.930316 0.069685 0.000000
#
# Coordination Sequence:
#
# PCOD8317689 Si02
#       8
#    16  16  16  16   4   8   8   8
#     4  10  18  27  39  59  81 108 141 180 213 251
#     4   9  16  28  42  59  80 108 141 182 218 245
#     4  12  20  27  38  57  84 114 147 175 205 247
#     4   8  14  26  45  60  76 101 137 183 230 251
#     4  12  21  28  34  50  82 124 150 178 200 236
#     4  12  21  27  36  53  81 122 151 173 202 237
#     4  10  17  24  35  50  77 107 142 171 204 233
#     4  11  20  28  35  49  82 124 155 174 188 223
#
# _framework density 13.214286
#
# number of rings (size 3 to 8) (size 9 to 14) (size 15 to 20)
#    0.000    1.826    5.217    3.391    0.000    0.000 
#    0.000    0.000    0.000    0.000    0.000    2.435 
#    0.000    0.696    0.000    3.826    0.000    0.000 
#
# Total GULP energy -1139779.863727 kJ/mol
# GULP energy per Si atom -12388.911562 kJ/mol
# Density = 1.318421 g / cm^3
# Si number density = 13.214286 Si / 1000 Ang^3
#
#
#
# Elastic Constant Matrix: (Units=GPa)
#
#
# Indices 1 2 3 4 5 6 
#
# 1 68.5485 51.3152 37.0519 0.0000 0.0000 0.0000
# 2 51.3152 68.5482 37.0518 0.0000 0.0000 0.0000
# 3 37.0519 37.0518 77.1653 0.0000 0.0000 0.0000
# 4 0.0000 0.0000 0.0000 10.0913 0.0000 0.0000
# 5 0.0000 0.0000 0.0000 0.0000 10.0918 0.0000
# 6 0.0000 0.0000 0.0000 0.0000 0.0000 27.7413
#
#
#
# Elastic Compliance Matrix: (Units=1/GPa)
#
#
# Indices 1 2 3 4 5 6 
#
# 1 0.034946 -0.023081 -0.005697 0.000000 0.000000 0.000000
# 2 -0.023081 0.034946 -0.005697 0.000000 0.000000 0.000000
# 3 -0.005697 -0.005697 0.018430 0.000000 0.000000 0.000000
# 4 0.000000 0.000000 0.000000 0.099095 0.000000 0.000000
# 5 0.000000 0.000000 0.000000 0.000000 0.099091 0.000000
# 6 0.000000 0.000000 0.000000 0.000000 0.000000 0.036047
#
#
# Mechanical properties :
#
#
# Convention : Reuss Voigt Hill
#
# Bulk Modulus (GPa) = 51.62152 51.67775 51.64964
# Shear Modulus (GPa) = 12.56393 15.50775 14.03584
#
# Velocity S-wave (km/s) = 3.08682 3.42944 3.26263
# Velocity P-wave (km/s) = 7.20100 7.40769 7.30507
#
# Compressibility (1/GPa) = 0.01937177
#
# Stress axis : x y z
#
# Youngs Moduli (GPa) = 28.61536 28.61519 54.25854
#
# Poissons Ratio (x) = 0.66048 0.30912
# Poissons Ratio (y) = 0.66048 0.30912
# Poissons Ratio (z) = 0.16302 0.16303
#
# Static dielectric constant tensor:
#      x y z
#    x 2.601910 0.000000 0.000000 
#    y 0.000000 2.601910 0.000000 
#    z 0.000000 0.000000 2.582340 
# 
# 
# High freq. dielectric constant tensor:
#      x y z
#    x 1.472380 0.000000 0.000000 
#    y 0.000000 1.472380 0.000000 
#    z 0.000000 0.000000 1.499690 
# 
# From -- ./inp_files/5241.got.cif
#   From: 2010.03.12/outbox.cif.g09.slc.cpg/sg136_3_cif.got.tgz:5241.got - 2010.04.06 18:39:43.
