data_PCOD8317802
_publ_section_title
;
Structure prediction by ZEFSAII (Michael W. Deem and Ramdas Pophale) SiO2 
 PCOD8317802
Probable space group: P 42/M N M
;
_chemical_formula_sum "Si O2"
_cell_formula_units_Z 80
_cell_length_a 19.355054
_cell_length_b 19.355054
_cell_length_c 13.574032
_cell_angle_alpha 90.000000
_cell_angle_beta 90.000000
_cell_angle_gamma 90.000000
_cell_volume 5085.078285
_symmetry_space_group_name_H-M "P 42/M N M"
_symmetry_group_IT_number 136
_symmetry_cell_setting 'tetragonal'
loop_
_space_group_symop_operation_xyz
x,y,z
1/2-y,1/2+x,1/2+z
-x,-y,z
1/2+y,1/2-x,1/2+z
1/2+x,1/2-y,1/2-z
1/2-x,1/2+y,1/2-z
y,x,-z
-y,-x,-z
-x,-y,-z
1/2+y,1/2-x,1/2-z
x,y,-z
1/2-y,1/2+x,1/2-z
1/2-x,1/2+y,1/2+z
1/2+x,1/2-y,1/2+z
-y,-x,z
y,x,z
loop_
_atom_site_type_symbol
_atom_site_label
_atom_site_fract_x
_atom_site_fract_y
_atom_site_fract_z
Si Si1 0.411815 0.296663 0.107688
Si Si2 0.347952 0.461145 0.611684
Si Si3 0.762375 0.353019 0.110646
Si Si4 0.245886 0.359979 0.702157
Si Si5 0.159318 0.047161 0.298113
O O1 0.348661 0.348661 0.105050
O O2 0.397423 0.238074 0.190768
O O3 0.478822 0.341856 0.135580
O O4 0.421479 0.261867 0.000000
O O5 0.349575 0.488376 0.500000
O O6 0.416291 0.416291 0.636194
O O7 0.280322 0.413608 0.626033
O O8 0.345085 0.527601 0.682672
O O9 0.711198 0.288803 0.103182
O O10 0.834617 0.327828 0.159960
O O11 0.730639 0.412456 0.179786
O O12 0.776536 0.381415 0.000000
O O13 0.293905 0.293905 0.716396
O O14 0.094123 0.094123 0.328223
#
# Coordination Sequence:
#
# PCOD8317802 Si02
#       5
#    16  16  16  16  16
#     4   9  17  28  41  57  80 111 142 169 198 235
#     4   9  17  29  44  59  78 109 147 182 210 238
#     4   9  16  26  41  59  79 103 131 167 210 250
#     4   8  14  26  43  60  75  97 136 178 209 239
#     4  10  19  28  38  58  87 113 138 168 202 242
#
# _framework density 15.732303999999999
#
# number of rings (size 3 to 8) (size 9 to 14) (size 15 to 20)
#    0.000    3.000    0.000    3.000    0.000    5.600 
#    0.000    3.000    0.000    3.600    0.000    0.000 
#    0.000   12.800    0.000   46.400    0.000    5.600 
#
# Total GULP energy -991405.955549 kJ/mol
# GULP energy per Si atom -12392.574444 kJ/mol
# Density = 1.569650 g / cm^3
# Si number density = 15.732304 Si / 1000 Ang^3
#
#
#
# Elastic Constant Matrix: (Units=GPa)
#
#
# Indices 1 2 3 4 5 6 
#
# 1 31.9006 27.6915 39.0036 0.0000 0.0000 0.0000
# 2 27.6915 31.9006 39.0036 0.0000 0.0000 0.0000
# 3 39.0036 39.0036 136.8217 0.0000 0.0000 0.0000
# 4 0.0000 0.0000 0.0000 17.5544 0.0000 0.0000
# 5 0.0000 0.0000 0.0000 0.0000 17.5544 0.0000
# 6 0.0000 0.0000 0.0000 0.0000 0.0000 19.3956
#
#
#
# Elastic Compliance Matrix: (Units=1/GPa)
#
#
# Indices 1 2 3 4 5 6 
#
# 1 0.132175 -0.105405 -0.007631 0.000000 0.000000 0.000000
# 2 -0.105405 0.132175 -0.007631 0.000000 0.000000 0.000000
# 3 -0.007631 -0.007631 0.011660 0.000000 0.000000 0.000000
# 4 0.000000 0.000000 0.000000 0.056966 0.000000 0.000000
# 5 0.000000 0.000000 0.000000 0.000000 0.056966 0.000000
# 6 0.000000 0.000000 0.000000 0.000000 0.000000 0.051558
#
#
# Mechanical properties :
#
#
# Convention : Reuss Voigt Hill
#
# Bulk Modulus (GPa) = 28.83929 45.78003 37.30966
# Shear Modulus (GPa) = 7.20052 17.22916 12.21484
#
# Velocity S-wave (km/s) = 2.14169 3.31289 2.78945
# Velocity P-wave (km/s) = 4.94842 6.61787 5.84307
#
# Compressibility (1/GPa) = 0.03467491
#
# Stress axis : x y z
#
# Youngs Moduli (GPa) = 7.56570 7.56570 85.76533
#
# Poissons Ratio (x) = 0.79746 0.65451
# Poissons Ratio (y) = 0.79746 0.65451
# Poissons Ratio (z) = 0.05774 0.05774
#
# Static dielectric constant tensor:
#      x y z
#    x 2.819680 0.000000 0.000000 
#    y 0.000000 2.819680 0.000000 
#    z 0.000000 0.000000 3.469000 
# 
# 
# High freq. dielectric constant tensor:
#      x y z
#    x 1.566810 0.000000 0.000000 
#    y 0.000000 1.566810 0.000000 
#    z 0.000000 0.000000 1.619750 
# 
# From -- ./inp_files/4875.got.cif
#   From: 2010.03.12/outbox.cif.g09.slc.cpg/sg136_3_cif.got.tgz:4875.got - 2010.04.06 18:39:43.
