data_PCOD8317954
_publ_section_title
;
Structure prediction by ZEFSAII (Michael W. Deem and Ramdas Pophale) SiO2 
 PCOD8317954
Probable space group: P 42/M N M
;
_chemical_formula_sum "Si O2"
_cell_formula_units_Z 80
_cell_length_a 12.509887
_cell_length_b 12.509887
_cell_length_c 27.408449
_cell_angle_alpha 90.000000
_cell_angle_beta 90.000000
_cell_angle_gamma 90.000000
_cell_volume 4289.347519
_symmetry_space_group_name_H-M "P 42/M N M"
_symmetry_group_IT_number 136
_symmetry_cell_setting 'tetragonal'
loop_
_space_group_symop_operation_xyz
x,y,z
1/2-y,1/2+x,1/2+z
-x,-y,z
1/2+y,1/2-x,1/2+z
1/2+x,1/2-y,1/2-z
1/2-x,1/2+y,1/2-z
y,x,-z
-y,-x,-z
-x,-y,-z
1/2+y,1/2-x,1/2-z
x,y,-z
1/2-y,1/2+x,1/2-z
1/2-x,1/2+y,1/2+z
1/2+x,1/2-y,1/2+z
-y,-x,z
y,x,z
loop_
_atom_site_type_symbol
_atom_site_label
_atom_site_fract_x
_atom_site_fract_y
_atom_site_fract_z
Si Si1 0.169123 0.000916 0.692164
Si Si2 0.192825 0.633055 0.055686
Si Si3 0.836551 0.481897 0.732476
Si Si4 0.993421 0.625038 0.876294
Si Si5 0.265606 0.911853 0.402435
O O1 0.094958 0.094958 0.670575
O O2 0.226437 0.044730 0.740519
O O3 0.251463 0.965673 0.650484
O O4 0.099680 0.900321 0.708789
O O5 0.289327 0.710674 0.071586
O O6 0.089864 0.660458 0.088727
O O7 0.231316 0.509713 0.059473
O O8 0.159106 0.653694 0.000000
O O9 0.914222 0.382030 0.740080
O O10 0.813942 0.502637 0.675332
O O11 0.000000 0.500000 0.864642
O O12 0.879339 0.650425 0.902092
O O13 0.170178 0.829823 0.415973
#
# Coordination Sequence:
#
# PCOD8317954 Si02
#       5
#    16  16  16  16  16
#     4  10  21  34  49  75 111 147 179 214 264 324
#     4  10  22  39  58  81 108 142 183 230 283 332
#     4  11  18  31  51  77 106 140 180 219 258 309
#     4  10  19  34  57  80 109 142 188 231 269 322
#     4  10  20  35  55  82 113 144 179 225 278 331
#
# _framework density 18.650856000000001
#
# number of rings (size 3 to 8) (size 9 to 14) (size 15 to 20)
#    0.000    1.800    4.000    1.800    0.000    7.600 
#    0.000    1.000    0.000    0.600    0.000    1.400 
#    0.000    0.000    0.000    0.000    0.000    0.000 
#
# Total GULP energy -991976.167934 kJ/mol
# GULP energy per Si atom -12399.702099 kJ/mol
# Density = 1.860841 g / cm^3
# Si number density = 18.650856 Si / 1000 Ang^3
#
#
#
# Elastic Constant Matrix: (Units=GPa)
#
#
# Indices 1 2 3 4 5 6 
#
# 1 81.1743 30.2914 33.2872 0.0000 0.0000 0.0000
# 2 30.2914 81.1743 33.2872 0.0000 0.0000 0.0000
# 3 33.2872 33.2872 88.8033 0.0000 0.0000 0.0000
# 4 0.0000 0.0000 0.0000 23.0142 0.0000 0.0000
# 5 0.0000 0.0000 0.0000 0.0000 23.0142 0.0000
# 6 0.0000 0.0000 0.0000 0.0000 0.0000 12.7795
#
#
#
# Elastic Compliance Matrix: (Units=1/GPa)
#
#
# Indices 1 2 3 4 5 6 
#
# 1 0.015606 -0.004047 -0.004333 0.000000 0.000000 0.000000
# 2 -0.004047 0.015606 -0.004333 0.000000 0.000000 0.000000
# 3 -0.004333 -0.004333 0.014509 0.000000 0.000000 0.000000
# 4 0.000000 0.000000 0.000000 0.043451 0.000000 0.000000
# 5 0.000000 0.000000 0.000000 0.000000 0.043451 0.000000
# 6 0.000000 0.000000 0.000000 0.000000 0.000000 0.078250
#
#
# Mechanical properties :
#
#
# Convention : Reuss Voigt Hill
#
# Bulk Modulus (GPa) = 49.27063 49.43152 49.35107
# Shear Modulus (GPa) = 20.57061 22.04732 21.30896
#
# Velocity S-wave (km/s) = 3.32464 3.44191 3.38378
# Velocity P-wave (km/s) = 6.41969 6.50821 6.46410
#
# Compressibility (1/GPa) = 0.02029607
#
# Stress axis : x y z
#
# Youngs Moduli (GPa) = 64.07741 64.07741 68.92197
#
# Poissons Ratio (x) = 0.25931 0.29863
# Poissons Ratio (y) = 0.25931 0.29863
# Poissons Ratio (z) = 0.27764 0.27764
#
# Static dielectric constant tensor:
#      x y z
#    x 3.370370 0.000000 0.000000 
#    y 0.000000 3.370370 0.000000 
#    z 0.000000 0.000000 3.284550 
# 
# 
# High freq. dielectric constant tensor:
#      x y z
#    x 1.712420 0.000000 0.000000 
#    y 0.000000 1.712420 0.000000 
#    z 0.000000 0.000000 1.717130 
# 
# From -- ./inp_files/9542.got.cif
#   From: 2010.03.12/outbox.cif.g09.slc.cpg/sg136_5_cif.got.tgz:9542.got - 2010.04.06 18:39:43.
