data_PCOD8317891
_publ_section_title
;
Structure prediction by ZEFSAII (Michael W. Deem and Ramdas Pophale) SiO2 
 PCOD8317891
Probable space group: P 42/M N M
;
_chemical_formula_sum "Si O2"
_cell_formula_units_Z 96
_cell_length_a 24.593616
_cell_length_b 24.593616
_cell_length_c 8.837984
_cell_angle_alpha 90.000000
_cell_angle_beta 90.000000
_cell_angle_gamma 90.000000
_cell_volume 5345.618810
_symmetry_space_group_name_H-M "P 42/M N M"
_symmetry_group_IT_number 136
_symmetry_cell_setting 'tetragonal'
loop_
_space_group_symop_operation_xyz
x,y,z
1/2-y,1/2+x,1/2+z
-x,-y,z
1/2+y,1/2-x,1/2+z
1/2+x,1/2-y,1/2-z
1/2-x,1/2+y,1/2-z
y,x,-z
-y,-x,-z
-x,-y,-z
1/2+y,1/2-x,1/2-z
x,y,-z
1/2-y,1/2+x,1/2-z
1/2-x,1/2+y,1/2+z
1/2+x,1/2-y,1/2+z
-y,-x,z
y,x,z
loop_
_atom_site_type_symbol
_atom_site_label
_atom_site_fract_x
_atom_site_fract_y
_atom_site_fract_z
Si Si1 0.100736 0.253253 0.673601
Si Si2 0.124167 0.582837 0.828084
Si Si3 0.582177 0.417824 0.823772
Si Si4 0.234849 0.985750 0.821188
Si Si5 0.664877 0.335124 0.321841
Si Si6 0.375503 0.463807 0.823142
Si Si7 0.537171 0.844422 0.176794
O O1 0.096962 0.234661 0.500000
O O2 0.111073 0.317293 0.687503
O O3 0.150531 0.223925 0.755816
O O4 0.045536 0.234186 0.751510
O O5 0.128805 0.520244 0.776727
O O6 0.083624 0.612669 0.715300
O O7 0.102537 0.587302 0.000000
O O8 0.620601 0.379400 0.726041
O O9 0.594865 0.479886 0.780369
O O10 0.593360 0.406640 0.000000
O O11 0.180405 0.955216 0.768205
O O12 0.288071 0.952976 0.765283
O O13 0.236305 0.989887 0.000000
O O14 0.668238 0.331763 0.500000
O O15 0.415217 0.415217 0.774604
O O16 0.362022 0.461859 0.000000
O O17 0.537034 0.830666 0.000000
#
# Coordination Sequence:
#
# PCOD8317891 Si02
#       7
#    16  16   8  16   8  16  16
#     4  10  20  36  56  78 108 145 182 223 275 329
#     4   9  20  37  57  84 113 144 182 221 268 325
#     4  10  19  32  52  76 109 147 180 226 280 330
#     4  11  21  34  54  79 108 142 182 227 270 320
#     4  12  22  31  51  83 111 141 184 234 282 326
#     4  10  20  34  53  77 107 146 189 228 274 332
#     4  10  21  37  59  84 113 147 180 219 271 328
#
# _framework density 17.958632000000001
#
# number of rings (size 3 to 8) (size 9 to 14) (size 15 to 20)
#    0.000    1.833    1.667    4.500    0.000    5.667 
#    0.000    1.667    1.833    1.500    0.000    0.000 
#    0.000    0.000    0.000    0.000    0.000    0.000 
#
# Total GULP energy -1190758.768520 kJ/mol
# GULP energy per Si atom -12403.737172 kJ/mol
# Density = 1.791776 g / cm^3
# Si number density = 17.958632 Si / 1000 Ang^3
#
#
#
# Elastic Constant Matrix: (Units=GPa)
#
#
# Indices 1 2 3 4 5 6 
#
# 1 98.8245 55.0397 49.7363 0.0000 0.0000 0.0000
# 2 55.0397 98.8253 49.7369 0.0000 0.0000 0.0000
# 3 49.7363 49.7369 113.8043 0.0000 0.0000 0.0000
# 4 0.0000 0.0000 0.0000 28.7614 0.0000 0.0000
# 5 0.0000 0.0000 0.0000 0.0000 28.7615 0.0000
# 6 0.0000 0.0000 0.0000 0.0000 0.0000 28.1659
#
#
#
# Elastic Compliance Matrix: (Units=1/GPa)
#
#
# Indices 1 2 3 4 5 6 
#
# 1 0.015949 -0.006890 -0.003959 0.000000 0.000000 0.000000
# 2 -0.006890 0.015949 -0.003959 0.000000 0.000000 0.000000
# 3 -0.003959 -0.003959 0.012247 0.000000 0.000000 0.000000
# 4 0.000000 0.000000 0.000000 0.034769 0.000000 0.000000
# 5 0.000000 0.000000 0.000000 0.000000 0.034769 0.000000
# 6 0.000000 0.000000 0.000000 0.000000 0.000000 0.035504
#
#
# Mechanical properties :
#
#
# Convention : Reuss Voigt Hill
#
# Bulk Modulus (GPa) = 68.82822 68.94221 68.88521
# Shear Modulus (GPa) = 27.22639 27.60051 27.41345
#
# Velocity S-wave (km/s) = 3.89789 3.92458 3.91125
# Velocity P-wave (km/s) = 7.65945 7.68174 7.67061
#
# Compressibility (1/GPa) = 0.01452893
#
# Stress axis : x y z
#
# Youngs Moduli (GPa) = 62.70077 62.70102 81.64971
#
# Poissons Ratio (x) = 0.43201 0.32324
# Poissons Ratio (y) = 0.43201 0.32325
# Poissons Ratio (z) = 0.24823 0.24823
#
# Static dielectric constant tensor:
#      x y z
#    x 3.302290 0.000000 0.000000 
#    y 0.000000 3.302300 0.000000 
#    z 0.000000 0.000000 3.291510 
# 
# 
# High freq. dielectric constant tensor:
#      x y z
#    x 1.687310 0.000000 0.000000 
#    y 0.000000 1.687310 0.000000 
#    z 0.000000 0.000000 1.700640 
# 
# From -- ./inp_files/2040.got.cif
#   From: 2010.03.12/outbox.cif.g09.slc.cpg/sg136_2_cif.got.tgz:2040.got - 2010.04.06 18:39:43.
