data_PCOD8317258
_publ_section_title
;
Structure prediction by ZEFSAII (Michael W. Deem and Ramdas Pophale) SiO2 
 PCOD8317258
Probable space group: P 42/N N M
;
_chemical_formula_sum "Si O2"
_cell_formula_units_Z 56
_cell_length_a 19.844164
_cell_length_b 19.844164
_cell_length_c 7.839016
_cell_angle_alpha 90.000000
_cell_angle_beta 90.000000
_cell_angle_gamma 90.000000
_cell_volume 3086.932734
_symmetry_space_group_name_H-M "P 42/N N M"
_symmetry_group_IT_number 134
_space_group.IT_coordinate_system_code '2'
_symmetry_cell_setting 'tetragonal'
loop_
_space_group_symop_operation_xyz
x,y,z
1/2-y,x,1/2+z
1/2-x,1/2-y,z
y,1/2-x,1/2+z
x,1/2-y,1/2-z
1/2-x,y,1/2-z
y,x,-z
1/2-y,1/2-x,-z
-x,-y,-z
1/2+y,-x,1/2-z
1/2+x,1/2+y,-z
-y,1/2+x,1/2-z
-x,1/2+y,1/2+z
1/2+x,-y,1/2+z
-y,-x,z
1/2+y,1/2+x,z
loop_
_atom_site_type_symbol
_atom_site_label
_atom_site_fract_x
_atom_site_fract_y
_atom_site_fract_z
Si Si1 0.582115 0.582115 0.000000
Si Si2 0.117508 0.882493 0.618540
Si Si3 0.407680 0.592321 0.249759
Si Si4 0.517811 0.482190 0.239768
Si Si5 0.250000 0.948491 0.750000
Si Si6 0.800627 0.996204 0.904280
O O1 0.520517 0.575178 0.867483
O O2 0.655467 0.572851 0.915673
O O3 0.126809 0.873192 0.415011
O O4 0.059655 0.940346 0.622116
O O5 0.186083 0.902296 0.711256
O O6 0.463483 0.536518 0.307788
O O7 0.440872 0.650394 0.135023
O O8 0.261804 0.994080 0.582404
O O9 0.750000 0.985109 0.750000
#
# Coordination Sequence:
#
# PCOD8317258 Si02
#       6
#     8   8   8   8   8  16
#     4   9  18  34  58  86 117 144 186 245 294 333
#     4  12  21  37  55  84 120 153 198 230 278 353
#     4  10  21  36  60  84 115 150 193 245 298 332
#     4   9  17  32  57  84 116 142 180 253 298 324
#     4  12  24  37  58  82 121 158 194 232 280 348
#     4  11  21  38  58  87 119 153 191 241 294 346
#
# _framework density 18.140986999999999
#
# number of rings (size 3 to 8) (size 9 to 14) (size 15 to 20)
#    0.000    1.429    5.714    2.143    0.000    0.286 
#    0.000    1.429    0.000    0.429    0.000    3.000 
#    0.000    0.000    0.000    0.000    0.000    0.000 
#
# Total GULP energy -694129.795215 kJ/mol
# GULP energy per Si atom -12395.174915 kJ/mol
# Density = 1.809970 g / cm^3
# Si number density = 18.140987 Si / 1000 Ang^3
#
#
#
# Elastic Constant Matrix: (Units=GPa)
#
#
# Indices 1 2 3 4 5 6 
#
# 1 83.8311 57.5472 47.4625 0.0000 0.0000 0.0000
# 2 57.5472 83.8311 47.4625 0.0000 0.0000 0.0000
# 3 47.4625 47.4625 135.8172 0.0000 0.0000 0.0000
# 4 0.0000 0.0000 0.0000 27.1907 0.0000 0.0000
# 5 0.0000 0.0000 0.0000 0.0000 27.1907 0.0000
# 6 0.0000 0.0000 0.0000 0.0000 0.0000 23.7477
#
#
#
# Elastic Compliance Matrix: (Units=1/GPa)
#
#
# Indices 1 2 3 4 5 6 
#
# 1 0.023644 -0.014402 -0.003230 0.000000 0.000000 0.000000
# 2 -0.014402 0.023644 -0.003230 0.000000 0.000000 0.000000
# 3 -0.003230 -0.003230 0.009620 0.000000 0.000000 0.000000
# 4 0.000000 0.000000 0.000000 0.036777 0.000000 0.000000
# 5 0.000000 0.000000 0.000000 0.000000 0.036777 0.000000
# 6 0.000000 0.000000 0.000000 0.000000 0.000000 0.042109
#
#
# Mechanical properties :
#
#
# Convention : Reuss Voigt Hill
#
# Bulk Modulus (GPa) = 65.85434 67.60266 66.72850
# Shear Modulus (GPa) = 22.79398 25.69296 24.24347
#
# Velocity S-wave (km/s) = 3.54855 3.76745 3.65964
# Velocity P-wave (km/s) = 7.29176 7.50140 7.39732
#
# Compressibility (1/GPa) = 0.01518503
#
# Stress axis : x y z
#
# Youngs Moduli (GPa) = 42.29425 42.29425 103.94961
#
# Poissons Ratio (x) = 0.60913 0.33571
# Poissons Ratio (y) = 0.60913 0.33571
# Poissons Ratio (z) = 0.13659 0.13659
#
# Static dielectric constant tensor:
#      x y z
#    x 3.239230 0.000000 0.000000 
#    y 0.000000 3.239230 0.000000 
#    z 0.000000 0.000000 3.450800 
# 
# 
# High freq. dielectric constant tensor:
#      x y z
#    x 1.683310 0.000000 0.000000 
#    y 0.000000 1.683310 0.000000 
#    z 0.000000 0.000000 1.718890 
# 
# From -- ./inp_files/2479.got.cif
#   From: 2010.03.12/outbox.cif.g09.slc.cpg/sg134_2_cif.got.tgz:2479.got - 2010.04.06 18:17:22.
