data_PCOD8317501
_publ_section_title
;
Structure prediction by ZEFSAII (Michael W. Deem and Ramdas Pophale) SiO2 
 PCOD8317501
Probable space group: P 42/M B C
;
_chemical_formula_sum "Si O2"
_cell_formula_units_Z 80
_cell_length_a 17.616183
_cell_length_b 17.616183
_cell_length_c 13.795114
_cell_angle_alpha 90.000000
_cell_angle_beta 90.000000
_cell_angle_gamma 90.000000
_cell_volume 4281.036396
_symmetry_space_group_name_H-M "P 42/M B C"
_symmetry_group_IT_number 135
_symmetry_cell_setting 'tetragonal'
loop_
_space_group_symop_operation_xyz
x,y,z
-y,x,1/2+z
-x,-y,z
y,-x,1/2+z
1/2+x,1/2-y,-z
1/2-x,1/2+y,-z
1/2+y,1/2+x,1/2-z
1/2-y,1/2-x,1/2-z
-x,-y,-z
y,-x,1/2-z
x,y,-z
-y,x,1/2-z
1/2-x,1/2+y,z
1/2+x,1/2-y,z
1/2-y,1/2-x,1/2+z
1/2+y,1/2+x,1/2+z
loop_
_atom_site_type_symbol
_atom_site_label
_atom_site_fract_x
_atom_site_fract_y
_atom_site_fract_z
Si Si1 0.880170 0.018550 0.742138
Si Si2 0.985880 0.364523 0.229156
Si Si3 0.366248 0.909089 0.889431
Si Si4 0.120308 0.201993 0.608614
Si Si5 0.271786 0.568299 0.388339
O O1 0.821984 0.052964 0.819505
O O2 0.944037 0.079716 0.711458
O O3 0.833003 0.994410 0.646725
O O4 0.942439 0.442439 0.250000
O O5 0.932692 0.303089 0.178016
O O6 0.013141 0.340109 0.336354
O O7 0.060626 0.373806 0.162306
O O8 0.290927 0.856090 0.880493
O O9 0.387857 0.926509 0.000000
O O10 0.089354 0.187010 0.500000
O O11 0.195757 0.152757 0.626165
O O12 0.251776 0.550604 0.500000
#
# Coordination Sequence:
#
# PCOD8317501 Si02
#       5
#    16  16  16  16  16
#     4   9  17  31  53  83 116 150 190 234 283 340
#     4  11  23  38  56  85 114 145 190 234 281 337
#     4  10  20  37  60  82 108 146 191 235 279 331
#     4   9  18  34  57  83 115 151 188 233 286 338
#     4  10  20  36  56  83 118 152 186 232 288 343
#
# _framework density 18.687063999999999
#
# number of rings (size 3 to 8) (size 9 to 14) (size 15 to 20)
#    0.000    2.200    2.000    1.800    0.000    3.200 
#    3.600    4.000    0.000    0.000    0.000    0.000 
#    0.000    0.000    0.000    0.000    0.000    0.000 
#
# Total GULP energy -991362.039475 kJ/mol
# GULP energy per Si atom -12392.025493 kJ/mol
# Density = 1.864453 g / cm^3
# Si number density = 18.687064 Si / 1000 Ang^3
#
#
#
# Elastic Constant Matrix: (Units=GPa)
#
#
# Indices 1 2 3 4 5 6 
#
# 1 98.7511 42.2544 44.0993 0.0000 0.0000 0.0000
# 2 42.2544 98.7511 44.0993 0.0000 0.0000 0.0000
# 3 44.0993 44.0993 109.1254 0.0000 0.0000 0.0000
# 4 0.0000 0.0000 0.0000 24.9440 0.0000 0.0000
# 5 0.0000 0.0000 0.0000 0.0000 24.9440 0.0000
# 6 0.0000 0.0000 0.0000 0.0000 0.0000 23.3090
#
#
#
# Elastic Compliance Matrix: (Units=1/GPa)
#
#
# Indices 1 2 3 4 5 6 
#
# 1 0.013596 -0.004105 -0.003835 0.000000 0.000000 0.000000
# 2 -0.004105 0.013596 -0.003835 0.000000 0.000000 0.000000
# 3 -0.003835 -0.003835 0.012264 0.000000 0.000000 0.000000
# 4 0.000000 0.000000 0.000000 0.040090 0.000000 0.000000
# 5 0.000000 0.000000 0.000000 0.000000 0.040090 0.000000
# 6 0.000000 0.000000 0.000000 0.000000 0.000000 0.042902
#
#
# Mechanical properties :
#
#
# Convention : Reuss Voigt Hill
#
# Bulk Modulus (GPa) = 62.87783 63.05928 62.96856
# Shear Modulus (GPa) = 26.12486 26.38438 26.25462
#
# Velocity S-wave (km/s) = 3.74307 3.76161 3.75235
# Velocity P-wave (km/s) = 7.23889 7.25840 7.24865
#
# Compressibility (1/GPa) = 0.01590386
#
# Stress axis : x y z
#
# Youngs Moduli (GPa) = 73.55341 73.55341 81.54142
#
# Poissons Ratio (x) = 0.30191 0.31275
# Poissons Ratio (y) = 0.30191 0.31275
# Poissons Ratio (z) = 0.28211 0.28211
#
# Static dielectric constant tensor:
#      x y z
#    x 3.405000 0.000000 0.000000 
#    y 0.000000 3.405000 0.000000 
#    z 0.000000 0.000000 3.592210 
# 
# 
# High freq. dielectric constant tensor:
#      x y z
#    x 1.719800 0.000000 0.000000 
#    y 0.000000 1.719800 0.000000 
#    z 0.000000 0.000000 1.728900 
# 
# From -- ./inp_files/3363.got.cif
#   From: 2010.03.12/outbox.cif.g09.slc.cpg/sg135_2_cif.got.tgz:3363.got - 2010.04.06 18:31:24.
