data_PCOD8317815
_publ_section_title
;
Structure prediction by ZEFSAII (Michael W. Deem and Ramdas Pophale) SiO2 
 PCOD8317815
Probable space group: P 42/M N M
;
_chemical_formula_sum "Si O2"
_cell_formula_units_Z 96
_cell_length_a 31.242827
_cell_length_b 31.242827
_cell_length_c 7.955762
_cell_angle_alpha 90.000000
_cell_angle_beta 90.000000
_cell_angle_gamma 90.000000
_cell_volume 7765.732570
_symmetry_space_group_name_H-M "P 42/M N M"
_symmetry_group_IT_number 136
_symmetry_cell_setting 'tetragonal'
loop_
_space_group_symop_operation_xyz
x,y,z
1/2-y,1/2+x,1/2+z
-x,-y,z
1/2+y,1/2-x,1/2+z
1/2+x,1/2-y,1/2-z
1/2-x,1/2+y,1/2-z
y,x,-z
-y,-x,-z
-x,-y,-z
1/2+y,1/2-x,1/2-z
x,y,-z
1/2-y,1/2+x,1/2-z
1/2-x,1/2+y,1/2+z
1/2+x,1/2-y,1/2+z
-y,-x,z
y,x,z
loop_
_atom_site_type_symbol
_atom_site_label
_atom_site_fract_x
_atom_site_fract_y
_atom_site_fract_z
Si Si1 0.388923 0.541743 0.191161
Si Si2 0.231473 0.303866 0.688681
Si Si3 0.550127 0.620071 0.311850
Si Si4 0.174462 0.104614 0.808372
Si Si5 0.156802 0.770989 0.500000
Si Si6 0.264946 0.668241 0.803524
Si Si7 0.839110 0.089153 0.500000
O O1 0.424586 0.575415 0.256528
O O2 0.392441 0.499527 0.303310
O O3 0.341496 0.563040 0.205529
O O4 0.397523 0.528566 0.000000
O O5 0.230426 0.324461 0.500000
O O6 0.266060 0.266060 0.688526
O O7 0.184791 0.283337 0.734999
O O8 0.242553 0.339010 0.830344
O O9 0.559959 0.638010 0.500000
O O10 0.577413 0.577413 0.276995
O O11 0.561101 0.655517 0.169776
O O12 0.143664 0.143664 0.757377
O O13 0.223098 0.120778 0.767933
O O14 0.170716 0.091165 0.000000
O O15 0.193183 0.806818 0.500000
O O16 0.109683 0.791813 0.500000
O O17 0.297315 0.702686 0.720277
O O18 0.272041 0.666640 0.000000
O O19 0.873074 0.126927 0.500000
#
# Coordination Sequence:
#
# PCOD8317815 Si02
#       7
#    16  16  16  16   8  16   8
#     4  10  19  30  43  56  71  88 108 138 174 215
#     4   8  14  22  32  49  70  90 110 130 151 179
#     4  10  20  33  47  58  69  86 107 137 179 223
#     4   9  16  23  33  50  69  89 111 133 157 191
#     4   9  16  24  38  53  68  87 108 134 159 192
#     4   8  13  21  31  44  66  92 113 130 150 179
#     4   9  18  32  43  56  71  84 108 138 172 213
#
# _framework density 12.362000999999999
#
# number of rings (size 3 to 8) (size 9 to 14) (size 15 to 20)
#    0.000    3.000    0.833    2.000    1.167    4.000 
#    0.000    5.000    0.000    0.000    0.000    0.000 
#    0.000    0.000    0.000    0.000    0.000    0.000 
#
# Total GULP energy -1189275.204139 kJ/mol
# GULP energy per Si atom -12388.283376 kJ/mol
# Density = 1.233386 g / cm^3
# Si number density = 12.362001 Si / 1000 Ang^3
#
#
#
# Elastic Constant Matrix: (Units=GPa)
#
#
# Indices 1 2 3 4 5 6 
#
# 1 36.1885 35.6228 29.4214 0.0000 0.0000 0.0000
# 2 35.6228 36.1882 29.4215 0.0000 0.0000 0.0000
# 3 29.4214 29.4215 75.4899 0.0000 0.0000 0.0000
# 4 0.0000 0.0000 0.0000 13.8437 0.0000 0.0000
# 5 0.0000 0.0000 0.0000 0.0000 13.8437 0.0000
# 6 0.0000 0.0000 0.0000 0.0000 0.0000 14.6316
#
#
#
# Elastic Compliance Matrix: (Units=1/GPa)
#
#
# Indices 1 2 3 4 5 6 
#
# 1 0.894304 -0.873851 -0.007970 0.000000 0.000000 0.000000
# 2 -0.873851 0.894317 -0.007977 0.000000 0.000000 0.000000
# 3 -0.007970 -0.007977 0.019462 0.000000 0.000000 0.000000
# 4 0.000000 0.000000 0.000000 0.072235 0.000000 0.000000
# 5 0.000000 0.000000 0.000000 0.000000 0.072235 0.000000
# 6 0.000000 0.000000 0.000000 0.000000 0.000000 0.068345
#
#
# Mechanical properties :
#
#
# Convention : Reuss Voigt Hill
#
# Bulk Modulus (GPa) = 35.10553 37.42201 36.26377
# Shear Modulus (GPa) = 1.31234 12.02386 6.66810
#
# Velocity S-wave (km/s) = 1.03145 3.12211 2.32502
# Velocity P-wave (km/s) = 5.46609 6.58288 6.05031
#
# Compressibility (1/GPa) = 0.02848554
#
# Stress axis : x y z
#
# Youngs Moduli (GPa) = 1.11819 1.11817 51.38160
#
# Poissons Ratio (x) = 0.97712 0.40953
# Poissons Ratio (y) = 0.97713 0.40988
# Poissons Ratio (z) = 0.00891 0.00892
#
# Static dielectric constant tensor:
#      x y z
#    x 2.362140 0.000000 0.000000 
#    y 0.000000 2.362140 0.000000 
#    z 0.000000 0.000000 2.664770 
# 
# 
# High freq. dielectric constant tensor:
#      x y z
#    x 1.423730 0.000000 0.000000 
#    y 0.000000 1.423730 0.000000 
#    z 0.000000 0.000000 1.487810 
# 
# From -- ./inp_files/2380.got.cif
#   From: 2010.03.12/outbox.cif.g09.slc.cpg/sg136_2_cif.got.tgz:2380.got - 2010.04.06 18:39:43.
