data_PCOD8317928
_publ_section_title
;
Structure prediction by ZEFSAII (Michael W. Deem and Ramdas Pophale) SiO2 
 PCOD8317928
Probable space group: P 42/M N M
;
_chemical_formula_sum "Si O2"
_cell_formula_units_Z 96
_cell_length_a 24.588753
_cell_length_b 24.588753
_cell_length_c 8.914526
_cell_angle_alpha 90.000000
_cell_angle_beta 90.000000
_cell_angle_gamma 90.000000
_cell_volume 5389.782807
_symmetry_space_group_name_H-M "P 42/M N M"
_symmetry_group_IT_number 136
_symmetry_cell_setting 'tetragonal'
loop_
_space_group_symop_operation_xyz
x,y,z
1/2-y,1/2+x,1/2+z
-x,-y,z
1/2+y,1/2-x,1/2+z
1/2+x,1/2-y,1/2-z
1/2-x,1/2+y,1/2-z
y,x,-z
-y,-x,-z
-x,-y,-z
1/2+y,1/2-x,1/2-z
x,y,-z
1/2-y,1/2+x,1/2-z
1/2-x,1/2+y,1/2+z
1/2+x,1/2-y,1/2+z
-y,-x,z
y,x,z
loop_
_atom_site_type_symbol
_atom_site_label
_atom_site_fract_x
_atom_site_fract_y
_atom_site_fract_z
Si Si1 0.425450 0.425450 0.322992
Si Si2 0.086755 0.632420 0.174145
Si Si3 0.467662 0.621236 0.826460
Si Si4 0.269729 0.514898 0.674850
Si Si5 0.654380 0.654380 0.831526
Si Si6 0.148656 0.538057 0.327921
Si Si7 0.595256 0.760117 0.172082
O O1 0.430685 0.430685 0.500000
O O2 0.408361 0.483463 0.258082
O O3 0.380516 0.380516 0.284568
O O4 0.114449 0.576360 0.219834
O O5 0.114448 0.681758 0.264822
O O6 0.022945 0.630483 0.212316
O O7 0.096086 0.643436 0.000000
O O8 0.412912 0.587089 0.803997
O O9 0.455468 0.681158 0.760644
O O10 0.483886 0.626450 0.000000
O O11 0.283748 0.512412 0.500000
O O12 0.212957 0.546329 0.703224
O O13 0.264723 0.453765 0.732933
O O14 0.718607 0.645244 0.808984
O O15 0.636677 0.636677 0.000000
O O16 0.134857 0.551749 0.500000
O O17 0.576935 0.766536 0.000000
#
# Coordination Sequence:
#
# PCOD8317928 Si02
#       7
#     8  16  16  16   8  16  16
#     4  12  23  33  52  79 110 144 180 232 282 324
#     4  10  21  36  56  84 113 143 182 223 266 324
#     4  11  23  37  53  75 107 146 186 229 277 331
#     4  10  20  35  55  80 107 139 182 225 266 320
#     4  10  20  33  53  80 108 141 182 224 274 333
#     4   9  20  37  56  81 113 143 176 219 270 326
#     4  10  19  33  55  79 108 142 177 219 272 326
#
# _framework density 17.811478999999999
#
# number of rings (size 3 to 8) (size 9 to 14) (size 15 to 20)
#    0.000    1.833    1.667    4.000    0.000    7.333 
#    0.000    1.667    1.833    0.000    0.000    0.000 
#    0.000    0.000    0.000    0.000    0.000    0.000 
#
# Total GULP energy -1190625.735118 kJ/mol
# GULP energy per Si atom -12402.351407 kJ/mol
# Density = 1.777094 g / cm^3
# Si number density = 17.811479 Si / 1000 Ang^3
#
#
#
# Elastic Constant Matrix: (Units=GPa)
#
#
# Indices 1 2 3 4 5 6 
#
# 1 94.9612 56.9945 54.2297 0.0000 0.0000 0.0000
# 2 56.9945 94.9612 54.2297 0.0000 0.0000 0.0000
# 3 54.2297 54.2297 115.5599 0.0000 0.0000 0.0000
# 4 0.0000 0.0000 0.0000 30.4077 0.0000 0.0000
# 5 0.0000 0.0000 0.0000 0.0000 30.4077 0.0000
# 6 0.0000 0.0000 0.0000 0.0000 0.0000 25.9087
#
#
#
# Elastic Compliance Matrix: (Units=1/GPa)
#
#
# Indices 1 2 3 4 5 6 
#
# 1 0.018117 -0.008222 -0.004644 0.000000 0.000000 0.000000
# 2 -0.008222 0.018117 -0.004644 0.000000 0.000000 0.000000
# 3 -0.004644 -0.004644 0.013012 0.000000 0.000000 0.000000
# 4 0.000000 0.000000 0.000000 0.032886 0.000000 0.000000
# 5 0.000000 0.000000 0.000000 0.000000 0.032886 0.000000
# 6 0.000000 0.000000 0.000000 0.000000 0.000000 0.038597
#
#
# Mechanical properties :
#
#
# Convention : Reuss Voigt Hill
#
# Bulk Modulus (GPa) = 70.28464 70.71000 70.49732
# Shear Modulus (GPa) = 25.85627 26.68005 26.26816
#
# Velocity S-wave (km/s) = 3.81420 3.87449 3.84446
# Velocity P-wave (km/s) = 7.67747 7.73310 7.70533
#
# Compressibility (1/GPa) = 0.01422786
#
# Stress axis : x y z
#
# Youngs Moduli (GPa) = 55.19651 55.19651 76.85316
#
# Poissons Ratio (x) = 0.45381 0.35688
# Poissons Ratio (y) = 0.45381 0.35688
# Poissons Ratio (z) = 0.25631 0.25631
#
# Static dielectric constant tensor:
#      x y z
#    x 3.293680 0.000000 0.000000 
#    y 0.000000 3.293680 0.000000 
#    z 0.000000 0.000000 3.449160 
# 
# 
# High freq. dielectric constant tensor:
#      x y z
#    x 1.678330 0.000000 0.000000 
#    y 0.000000 1.678330 0.000000 
#    z 0.000000 0.000000 1.705810 
# 
# From -- ./inp_files/2071.got.cif
#   From: 2010.03.12/outbox.cif.g09.slc.cpg/sg136_2_cif.got.tgz:2071.got - 2010.04.06 18:39:43.
