data_PCOD8318781
_publ_section_title
;
Structure prediction by ZEFSAII (Michael W. Deem and Ramdas Pophale) SiO2 
 PCOD8318781
Probable space group: P 42/N M C
;
_chemical_formula_sum "Si O2"
_cell_formula_units_Z 52
_cell_length_a 16.873851
_cell_length_b 16.873851
_cell_length_c 8.778395
_cell_angle_alpha 90.000000
_cell_angle_beta 90.000000
_cell_angle_gamma 90.000000
_cell_volume 2499.444735
_symmetry_space_group_name_H-M "P 42/N M C"
_symmetry_group_IT_number 137
_space_group.IT_coordinate_system_code '2'
_symmetry_cell_setting 'tetragonal'
loop_
_space_group_symop_operation_xyz
x,y,z
1/2-y,x,1/2+z
1/2-x,1/2-y,z
y,1/2-x,1/2+z
1/2+x,-y,-z
-x,1/2+y,-z
1/2+y,1/2+x,1/2-z
-y,-x,1/2-z
-x,-y,-z
1/2+y,-x,1/2-z
1/2+x,1/2+y,-z
-y,1/2+x,1/2-z
1/2-x,y,z
x,1/2-y,z
1/2-y,1/2-x,1/2+z
y,x,1/2+z
loop_
_atom_site_type_symbol
_atom_site_label
_atom_site_fract_x
_atom_site_fract_y
_atom_site_fract_z
Si Si1 0.750000 0.421036 0.721805
Si Si2 0.750000 0.250000 0.250000
Si Si3 0.449016 0.163753 0.928109
Si Si4 0.750000 0.250000 0.750000
Si Si5 0.585132 0.250000 0.416290
Si Si6 0.386974 0.014097 0.765649
O O1 0.828692 0.466841 0.661969
O O2 0.750000 0.331851 0.651297
O O3 0.750000 0.415031 0.902620
O O4 0.674371 0.250000 0.358766
O O5 0.405220 0.250000 0.915824
O O6 0.394900 0.096182 0.856732
O O7 0.467056 0.147596 0.102410
O O8 0.541616 0.328401 0.358574
O O9 0.472186 0.972186 0.750000
#
# Coordination Sequence:
#
# PCOD8318781 Si02
#       6
#     8   2  16   2   8  16
#     4  10  26  41  66 100 144 185 228 290 342 426
#     4  12  26  44  68 114 146 192 222 304 354 444
#     4  10  25  46  68 103 139 180 242 293 348 420
#     4  12  26  36  68  94 150 184 228 274 358 420
#     4  12  24  43  71 104 144 182 237 283 363 421
#     4  12  24  43  76 101 141 186 233 290 351 427
#
# _framework density 20.80462
#
# number of rings (size 3 to 8) (size 9 to 14) (size 15 to 20)
#    0.923    0.000    3.077    3.231    6.462    2.462 
#    0.000    0.769    0.000    0.000    0.000    0.000 
#    0.000    0.000    0.000    0.000    0.000    0.000 
#
# Total GULP energy -644620.149573 kJ/mol
# GULP energy per Si atom -12396.541338 kJ/mol
# Density = 2.075727 g / cm^3
# Si number density = 20.804620 Si / 1000 Ang^3
#
#
#
# Elastic Constant Matrix: (Units=GPa)
#
#
# Indices 1 2 3 4 5 6 
#
# 1 160.6945 36.9756 53.6764 0.0000 0.0000 0.0000
# 2 36.9756 160.6945 53.6764 0.0000 0.0000 0.0000
# 3 53.6764 53.6764 153.7509 0.0000 0.0000 0.0000
# 4 0.0000 0.0000 0.0000 19.9457 0.0000 0.0000
# 5 0.0000 0.0000 0.0000 0.0000 19.9457 0.0000
# 6 0.0000 0.0000 0.0000 0.0000 0.0000 47.0546
#
#
#
# Elastic Compliance Matrix: (Units=1/GPa)
#
#
# Indices 1 2 3 4 5 6 
#
# 1 0.007163 -0.000920 -0.002179 0.000000 0.000000 0.000000
# 2 -0.000920 0.007163 -0.002179 0.000000 0.000000 0.000000
# 3 -0.002179 -0.002179 0.008026 0.000000 0.000000 0.000000
# 4 0.000000 0.000000 0.000000 0.050136 0.000000 0.000000
# 5 0.000000 0.000000 0.000000 0.000000 0.050136 0.000000
# 6 0.000000 0.000000 0.000000 0.000000 0.000000 0.021252
#
#
# Mechanical properties :
#
#
# Convention : Reuss Voigt Hill
#
# Bulk Modulus (GPa) = 84.79351 84.86634 84.82992
# Shear Modulus (GPa) = 31.57280 39.44329 35.50805
#
# Velocity S-wave (km/s) = 3.89985 4.35891 4.13575
# Velocity P-wave (km/s) = 7.81818 8.13720 7.97929
#
# Compressibility (1/GPa) = 0.01179336
#
# Stress axis : x y z
#
# Youngs Moduli (GPa) = 139.61261 139.61261 124.59974
#
# Poissons Ratio (x) = 0.12847 0.27155
# Poissons Ratio (y) = 0.12847 0.27155
# Poissons Ratio (z) = 0.30426 0.30426
#
# Static dielectric constant tensor:
#      x y z
#    x 0.000000 0.000000 0.000000 
#    y 0.000000 0.000000 0.000000 
#    z 0.000000 0.000000 0.000000 
# 
# 
# High freq. dielectric constant tensor:
#      x y z
#    x 1.814890 0.000000 0.000000 
#    y 0.000000 1.814890 0.000000 
#    z 0.000000 0.000000 1.829230 
# 
# From -- ./inp_files/1461.got.cif
#   From: 2010.03.12/outbox.cif.g09.slc.cpg/sg137_1_cif.got.tgz:1461.got - 2010.04.08 09:34:49.
