data_PCOD8318513
_publ_section_title
;
Structure prediction by ZEFSAII (Michael W. Deem and Ramdas Pophale) SiO2 
 PCOD8318513
Probable space group: P 42/N M C
;
_chemical_formula_sum "Si O2"
_cell_formula_units_Z 112
_cell_length_a 14.604760
_cell_length_b 14.604760
_cell_length_c 26.866826
_cell_angle_alpha 90.000000
_cell_angle_beta 90.000000
_cell_angle_gamma 90.000000
_cell_volume 5730.667513
_symmetry_space_group_name_H-M "P 42/N M C"
_symmetry_group_IT_number 137
_space_group.IT_coordinate_system_code '2'
_symmetry_cell_setting 'tetragonal'
loop_
_space_group_symop_operation_xyz
x,y,z
1/2-y,x,1/2+z
1/2-x,1/2-y,z
y,1/2-x,1/2+z
1/2+x,-y,-z
-x,1/2+y,-z
1/2+y,1/2+x,1/2-z
-y,-x,1/2-z
-x,-y,-z
1/2+y,-x,1/2-z
1/2+x,1/2+y,-z
-y,1/2+x,1/2-z
1/2-x,y,z
x,1/2-y,z
1/2-y,1/2-x,1/2+z
y,x,1/2+z
loop_
_atom_site_type_symbol
_atom_site_label
_atom_site_fract_x
_atom_site_fract_y
_atom_site_fract_z
Si Si1 0.851671 0.956487 0.410595
Si Si2 0.350652 0.497402 0.373349
Si Si3 0.648028 0.103079 0.804111
Si Si4 0.527498 0.071576 0.539969
Si Si5 0.645680 0.606355 0.814754
Si Si6 0.351227 0.854984 0.958643
Si Si7 0.857637 0.852971 0.704237
O O1 0.750000 0.936793 0.432954
O O2 0.848759 0.927204 0.352705
O O3 0.930856 0.893228 0.436270
O O4 0.876416 0.065100 0.419804
O O5 0.250000 0.465375 0.391824
O O6 0.335775 0.589440 0.341412
O O7 0.413935 0.516383 0.419865
O O8 0.398833 0.420849 0.337738
O O9 0.603255 0.103255 0.750000
O O10 0.750000 0.143847 0.801791
O O11 0.648144 0.000963 0.825215
O O12 0.586317 0.147083 0.510322
O O13 0.500000 0.000000 0.500000
O O14 0.750000 0.646005 0.821007
O O15 0.605697 0.627516 0.759793
O O16 0.250000 0.873434 0.934280
O O17 0.358989 0.750000 0.975480
O O18 0.750000 0.872111 0.705778
O O19 0.882126 0.750000 0.688152
#
# Coordination Sequence:
#
# PCOD8318513 Si02
#       7
#    16  16  16  16  16  16  16
#     4  10  20  35  57  83 112 148 190 236 283 329
#     4  11  21  35  56  83 114 146 183 229 277 339
#     4  11  21  34  53  80 118 154 181 217 272 331
#     4  10  21  37  56  79 109 144 183 236 287 335
#     4  10  19  33  55  82 115 152 189 228 271 324
#     4   9  19  37  60  85 114 149 189 234 288 346
#     4   9  18  33  54  81 113 150 187 224 270 328
#
# _framework density 19.543970999999999
#
# number of rings (size 3 to 8) (size 9 to 14) (size 15 to 20)
#    0.000    2.000    2.857    1.286    0.000    3.571 
#    0.000    2.857    0.000    0.857    0.000    9.000 
#    0.000    1.143    0.000    0.000    0.000    0.000 
#
# Total GULP energy -1387528.754032 kJ/mol
# GULP energy per Si atom -12388.649590 kJ/mol
# Density = 1.949949 g / cm^3
# Si number density = 19.543971 Si / 1000 Ang^3
#
#
#
# Elastic Constant Matrix: (Units=GPa)
#
#
# Indices 1 2 3 4 5 6 
#
# 1 88.5133 33.0525 40.5838 0.0000 0.0000 0.0000
# 2 33.0525 88.5133 40.5838 0.0000 0.0000 0.0000
# 3 40.5838 40.5838 112.9188 0.0000 0.0000 0.0000
# 4 0.0000 0.0000 0.0000 15.9006 0.0000 0.0000
# 5 0.0000 0.0000 0.0000 0.0000 15.9006 0.0000
# 6 0.0000 0.0000 0.0000 0.0000 0.0000 15.8707
#
#
#
# Elastic Compliance Matrix: (Units=1/GPa)
#
#
# Indices 1 2 3 4 5 6 
#
# 1 0.014427 -0.003604 -0.003890 0.000000 0.000000 0.000000
# 2 -0.003604 0.014427 -0.003890 0.000000 0.000000 0.000000
# 3 -0.003890 -0.003890 0.011652 0.000000 0.000000 0.000000
# 4 0.000000 0.000000 0.000000 0.062891 0.000000 0.000000
# 5 0.000000 0.000000 0.000000 0.000000 0.062891 0.000000
# 6 0.000000 0.000000 0.000000 0.000000 0.000000 0.063009
#
#
# Mechanical properties :
#
#
# Convention : Reuss Voigt Hill
#
# Bulk Modulus (GPa) = 56.37368 57.59841 56.98604
# Shear Modulus (GPa) = 19.38158 21.24940 20.31549
#
# Velocity S-wave (km/s) = 3.15253 3.30094 3.22759
# Velocity P-wave (km/s) = 6.49295 6.63803 6.56589
#
# Compressibility (1/GPa) = 0.01773877
#
# Stress axis : x y z
#
# Youngs Moduli (GPa) = 69.31446 69.31446 85.82166
#
# Poissons Ratio (x) = 0.24979 0.33384
# Poissons Ratio (y) = 0.24979 0.33384
# Poissons Ratio (z) = 0.26963 0.26963
#
# Static dielectric constant tensor:
#      x y z
#    x 3.878790 0.000000 0.000000 
#    y 0.000000 3.878790 0.000000 
#    z 0.000000 0.000000 3.903120 
# 
# 
# High freq. dielectric constant tensor:
#      x y z
#    x 1.751910 0.000000 0.000000 
#    y 0.000000 1.751910 0.000000 
#    z 0.000000 0.000000 1.750590 
# 
# From -- ./inp_files/9818.got.cif
#   From: 2010.03.12/outbox.cif.g09.slc.cpg/sg137_5_cif.got.tgz:9818.got - 2010.04.08 09:34:49.
