data_PCOD8318901
_publ_section_title
;
Structure prediction by ZEFSAII (Michael W. Deem and Ramdas Pophale) SiO2 
 PCOD8318901
Probable space group: P 42/N C M
;
_chemical_formula_sum "Si O2"
_cell_formula_units_Z 96
_cell_length_a 16.595704
_cell_length_b 16.595704
_cell_length_c 18.813173
_cell_angle_alpha 90.000000
_cell_angle_beta 90.000000
_cell_angle_gamma 90.000000
_cell_volume 5181.475029
_symmetry_space_group_name_H-M "P 42/N C M"
_symmetry_group_IT_number 138
_space_group.IT_coordinate_system_code '2'
_symmetry_cell_setting 'tetragonal'
loop_
_space_group_symop_operation_xyz
x,y,z
1/2-y,x,1/2+z
1/2-x,1/2-y,z
y,1/2-x,1/2+z
1/2+x,-y,1/2-z
-x,1/2+y,1/2-z
1/2+y,1/2+x,-z
-y,-x,-z
-x,-y,-z
1/2+y,-x,1/2-z
1/2+x,1/2+y,-z
-y,1/2+x,1/2-z
1/2-x,y,1/2+z
x,1/2-y,1/2+z
1/2-y,1/2-x,z
y,x,z
loop_
_atom_site_type_symbol
_atom_site_label
_atom_site_fract_x
_atom_site_fract_y
_atom_site_fract_z
Si Si1 0.417860 0.210335 0.068984
Si Si2 0.538384 0.831250 0.706470
Si Si3 0.050154 0.921068 0.423650
Si Si4 0.580360 0.055718 0.230372
Si Si5 0.752985 0.617851 0.086060
Si Si6 0.692870 0.935809 0.302364
O O1 0.329295 0.170706 0.081336
O O2 0.486127 0.148099 0.091706
O O3 0.430573 0.293550 0.112747
O O4 0.428366 0.232142 0.986940
O O5 0.593245 0.906756 0.688163
O O6 0.449179 0.864257 0.726198
O O7 0.545214 0.768732 0.640419
O O8 0.575481 0.782737 0.772691
O O9 0.095297 0.904704 0.500000
O O10 0.105756 0.923079 0.351769
O O11 0.008340 0.008340 0.430493
O O12 0.506094 0.993907 0.227472
O O13 0.655506 0.020272 0.274713
O O14 0.834011 0.665990 0.110528
O O15 0.680607 0.680607 0.077653
O O16 0.635976 0.864025 0.276005
#
# Coordination Sequence:
#
# PCOD8318901 Si02
#       6
#    16  16  16  16  16  16
#     4  10  19  32  50  76 108 136 168 212 266 317
#     4  10  19  34  51  72 106 142 173 215 266 312
#     4   9  17  30  49  71  99 135 170 210 260 305
#     4   9  19  34  49  73 104 136 177 219 255 310
#     4   9  18  30  46  72 105 137 168 203 250 316
#     4  11  21  31  51  78 105 137 176 218 266 321
#
# _framework density 18.527543000000001
#
# number of rings (size 3 to 8) (size 9 to 14) (size 15 to 20)
#    0.000    2.333    1.667    1.500    2.333    2.667 
#    0.000    0.833    0.000    4.500    0.000    0.000 
#    0.000    0.000    0.000    0.000    0.000    0.000 
#
# Total GULP energy -1189380.268536 kJ/mol
# GULP energy per Si atom -12389.377797 kJ/mol
# Density = 1.848537 g / cm^3
# Si number density = 18.527543 Si / 1000 Ang^3
#
#
#
# Elastic Constant Matrix: (Units=GPa)
#
#
# Indices 1 2 3 4 5 6 
#
# 1 37.0434 22.3599 42.8513 0.0000 0.0000 0.0000
# 2 22.3599 37.0437 42.8513 0.0000 0.0000 0.0000
# 3 42.8513 42.8513 136.1616 0.0000 0.0000 0.0000
# 4 0.0000 0.0000 0.0000 25.2778 0.0000 0.0000
# 5 0.0000 0.0000 0.0000 0.0000 25.2778 0.0000
# 6 0.0000 0.0000 0.0000 0.0000 0.0000 19.6070
#
#
#
# Elastic Compliance Matrix: (Units=1/GPa)
#
#
# Indices 1 2 3 4 5 6 
#
# 1 0.049468 -0.018634 -0.009704 0.000000 0.000000 0.000000
# 2 -0.018634 0.049468 -0.009704 0.000000 0.000000 0.000000
# 3 -0.009704 -0.009704 0.013452 0.000000 0.000000 0.000000
# 4 0.000000 0.000000 0.000000 0.039560 0.000000 0.000000
# 5 0.000000 0.000000 0.000000 0.000000 0.039560 0.000000
# 6 0.000000 0.000000 0.000000 0.000000 0.000000 0.051002
#
#
# Mechanical properties :
#
#
# Convention : Reuss Voigt Hill
#
# Bulk Modulus (GPa) = 27.54466 47.37486 37.45976
# Shear Modulus (GPa) = 15.11961 20.84494 17.98227
#
# Velocity S-wave (km/s) = 2.85978 3.35786 3.11878
# Velocity P-wave (km/s) = 5.07972 6.37645 5.76466
#
# Compressibility (1/GPa) = 0.03630467
#
# Stress axis : x y z
#
# Youngs Moduli (GPa) = 20.21490 20.21511 74.33907
#
# Poissons Ratio (x) = 0.37670 0.72137
# Poissons Ratio (y) = 0.37669 0.72136
# Poissons Ratio (z) = 0.19616 0.19616
#
# Static dielectric constant tensor:
#      x y z
#    x 3.189800 0.000000 0.000000 
#    y 0.000000 3.189800 0.000000 
#    z 0.000000 0.000000 3.686860 
# 
# 
# High freq. dielectric constant tensor:
#      x y z
#    x 1.680880 0.000000 0.000000 
#    y 0.000000 1.680880 0.000000 
#    z 0.000000 0.000000 1.736980 
# 
# From -- ./inp_files/5209.got.cif
#   From: 2010.03.12/outbox.cif.g09.slc.cpg/sg138_3_cif.got.tgz:5209.got - 2010.04.08 09:41:05.
