data_PCOD8318211
_publ_section_title
;
Structure prediction by ZEFSAII (Michael W. Deem and Ramdas Pophale) SiO2 
 PCOD8318211
Probable space group: P 42/M N M
;
_chemical_formula_sum "Si O2"
_cell_formula_units_Z 88
_cell_length_a 12.787141
_cell_length_b 12.787141
_cell_length_c 28.075469
_cell_angle_alpha 90.000000
_cell_angle_beta 90.000000
_cell_angle_gamma 90.000000
_cell_volume 4590.647308
_symmetry_space_group_name_H-M "P 42/M N M"
_symmetry_group_IT_number 136
_symmetry_cell_setting 'tetragonal'
loop_
_space_group_symop_operation_xyz
x,y,z
1/2-y,1/2+x,1/2+z
-x,-y,z
1/2+y,1/2-x,1/2+z
1/2+x,1/2-y,1/2-z
1/2-x,1/2+y,1/2-z
y,x,-z
-y,-x,-z
-x,-y,-z
1/2+y,1/2-x,1/2-z
x,y,-z
1/2-y,1/2+x,1/2-z
1/2-x,1/2+y,1/2+z
1/2+x,1/2-y,1/2+z
-y,-x,z
y,x,z
loop_
_atom_site_type_symbol
_atom_site_label
_atom_site_fract_x
_atom_site_fract_y
_atom_site_fract_z
Si Si1 0.106561 0.280762 0.098561
Si Si2 0.696216 0.132319 0.893565
Si Si3 0.279135 0.887832 0.786694
Si Si4 0.582477 0.582477 0.056670
Si Si5 0.119171 0.285994 0.205669
Si Si6 0.808621 0.517455 0.055560
O O1 0.178931 0.178931 0.084913
O O2 0.138502 0.321604 0.151266
O O3 0.121999 0.378906 0.063450
O O4 0.982648 0.253833 0.095683
O O5 0.780560 0.219441 0.910750
O O6 0.671919 0.146063 0.837435
O O7 0.585256 0.145936 0.919330
O O8 0.177053 0.822948 0.773804
O O9 0.362938 0.878963 0.743639
O O10 0.239386 0.004869 0.789479
O O11 0.500000 0.500000 0.076439
O O12 0.694705 0.546803 0.076448
O O13 0.586222 0.586222 0.000000
O O14 0.192339 0.192339 0.221653
O O15 0.804721 0.491279 0.000000
#
# Coordination Sequence:
#
# PCOD8318211 Si02
#       6
#    16  16  16   8  16  16
#     4  10  21  38  59  85 115 150 194 238 286 345
#     4  10  22  38  58  85 115 150 193 240 288 341
#     4   9  19  35  54  78 110 145 184 230 278 331
#     4   9  18  34  58  84 111 151 193 231 284 340
#     4   9  19  34  54  80 109 145 185 229 277 330
#     4  11  22  38  59  84 117 151 190 239 286 342
#
# _framework density 19.169409999999999
#
# number of rings (size 3 to 8) (size 9 to 14) (size 15 to 20)
#    0.000    2.273    0.909    1.091    2.545    3.636 
#    0.000    3.636    0.000    0.000    0.000    2.545 
#    0.000    0.000    0.000    0.000    0.000    0.000 
#
# Total GULP energy -1090657.642103 kJ/mol
# GULP energy per Si atom -12393.836842 kJ/mol
# Density = 1.912578 g / cm^3
# Si number density = 19.169410 Si / 1000 Ang^3
#
#
#
# Elastic Constant Matrix: (Units=GPa)
#
#
# Indices 1 2 3 4 5 6 
#
# 1 95.7922 31.9923 18.5726 0.0000 0.0000 0.0000
# 2 31.9923 95.7922 18.5726 0.0000 0.0000 0.0000
# 3 18.5726 18.5726 47.7164 0.0000 0.0000 0.0000
# 4 0.0000 0.0000 0.0000 25.2326 0.0000 0.0000
# 5 0.0000 0.0000 0.0000 0.0000 25.2326 0.0000
# 6 0.0000 0.0000 0.0000 0.0000 0.0000 25.1875
#
#
#
# Elastic Compliance Matrix: (Units=1/GPa)
#
#
# Indices 1 2 3 4 5 6 
#
# 1 0.012249 -0.003425 -0.003435 0.000000 0.000000 0.000000
# 2 -0.003425 0.012249 -0.003435 0.000000 0.000000 0.000000
# 3 -0.003435 -0.003435 0.023631 0.000000 0.000000 0.000000
# 4 0.000000 0.000000 0.000000 0.039631 0.000000 0.000000
# 5 0.000000 0.000000 0.000000 0.000000 0.039631 0.000000
# 6 0.000000 0.000000 0.000000 0.000000 0.000000 0.039702
#
#
# Mechanical properties :
#
#
# Convention : Reuss Voigt Hill
#
# Bulk Modulus (GPa) = 36.30997 41.95285 39.13141
# Shear Modulus (GPa) = 25.39849 26.47476 25.93663
#
# Velocity S-wave (km/s) = 3.64393 3.72034 3.68233
# Velocity P-wave (km/s) = 6.05699 6.35511 6.20784
#
# Compressibility (1/GPa) = 0.02754065
#
# Stress axis : x y z
#
# Youngs Moduli (GPa) = 81.63907 81.63907 42.31761
#
# Poissons Ratio (x) = 0.27961 0.14534
# Poissons Ratio (y) = 0.27961 0.14534
# Poissons Ratio (z) = 0.28040 0.28040
#
# Static dielectric constant tensor:
#      x y z
#    x 3.529870 0.000000 0.000000 
#    y 0.000000 3.529870 0.000000 
#    z 0.000000 0.000000 3.563040 
# 
# 
# High freq. dielectric constant tensor:
#      x y z
#    x 1.744460 0.000000 0.000000 
#    y 0.000000 1.744460 0.000000 
#    z 0.000000 0.000000 1.739040 
# 
# From -- ./inp_files/9701.got.cif
#   From: 2010.03.12/outbox.cif.g09.slc.cpg/sg136_5_cif.got.tgz:9701.got - 2010.04.06 18:39:43.
