data_PCOD8318783
_publ_section_title
;
Structure prediction by ZEFSAII (Michael W. Deem and Ramdas Pophale) SiO2 
 PCOD8318783
Probable space group: P 42/N M C
;
_chemical_formula_sum "Si O2"
_cell_formula_units_Z 80
_cell_length_a 13.492031
_cell_length_b 13.492031
_cell_length_c 26.553830
_cell_angle_alpha 90.000000
_cell_angle_beta 90.000000
_cell_angle_gamma 90.000000
_cell_volume 4833.723802
_symmetry_space_group_name_H-M "P 42/N M C"
_symmetry_group_IT_number 137
_space_group.IT_coordinate_system_code '2'
_symmetry_cell_setting 'tetragonal'
loop_
_space_group_symop_operation_xyz
x,y,z
1/2-y,x,1/2+z
1/2-x,1/2-y,z
y,1/2-x,1/2+z
1/2+x,-y,-z
-x,1/2+y,-z
1/2+y,1/2+x,1/2-z
-y,-x,1/2-z
-x,-y,-z
1/2+y,-x,1/2-z
1/2+x,1/2+y,-z
-y,1/2+x,1/2-z
1/2-x,y,z
x,1/2-y,z
1/2-y,1/2-x,1/2+z
y,x,1/2+z
loop_
_atom_site_type_symbol
_atom_site_label
_atom_site_fract_x
_atom_site_fract_y
_atom_site_fract_z
Si Si1 0.462400 0.999179 0.886551
Si Si2 0.863195 0.136021 0.309004
Si Si3 0.636664 0.135485 0.916398
Si Si4 0.136008 0.140665 0.450580
Si Si5 0.136501 0.965487 0.518072
O O1 0.568717 0.056008 0.885749
O O2 0.378641 0.082308 0.897198
O O3 0.439223 0.940781 0.835242
O O4 0.446895 0.920862 0.931093
O O5 0.878552 0.121449 0.250000
O O6 0.750000 0.108869 0.323860
O O7 0.884760 0.250000 0.324550
O O8 0.750000 0.110557 0.903164
O O9 0.611023 0.250000 0.901220
O O10 0.621291 0.123653 0.976620
O O11 0.250000 0.117391 0.440502
O O12 0.117272 0.250000 0.471038
O O13 0.093705 0.066168 0.492714
O O14 0.250000 0.978903 0.533829
#
# Coordination Sequence:
#
# PCOD8318783 Si02
#       5
#    16  16  16  16  16
#     4  11  18  27  48  70  88 118 160 195 223 265
#     4   9  19  35  52  71  95 119 144 181 231 280
#     4   9  18  31  45  65  97 131 158 188 227 269
#     4   9  17  28  41  62  93 122 148 182 224 268
#     4   9  18  28  39  63  95 123 154 189 222 265
#
# _framework density 16.550388000000002
#
# number of rings (size 3 to 8) (size 9 to 14) (size 15 to 20)
#    0.000    2.600    0.000    6.000    0.000    4.000 
#    0.000    2.000    0.000    4.200    0.000    7.000 
#    0.000    0.000    0.000    0.000    0.000    0.000 
#
# Total GULP energy -991293.462514 kJ/mol
# GULP energy per Si atom -12391.168281 kJ/mol
# Density = 1.651272 g / cm^3
# Si number density = 16.550388 Si / 1000 Ang^3
#
#
#
# Elastic Constant Matrix: (Units=GPa)
#
#
# Indices 1 2 3 4 5 6 
#
# 1 78.5330 40.4625 35.2824 0.0000 0.0000 0.0000
# 2 40.4625 78.5330 35.2824 0.0000 0.0000 0.0000
# 3 35.2824 35.2824 58.3784 0.0000 0.0000 0.0000
# 4 0.0000 0.0000 0.0000 19.3652 0.0000 0.0000
# 5 0.0000 0.0000 0.0000 0.0000 19.3652 0.0000
# 6 0.0000 0.0000 0.0000 0.0000 0.0000 29.0515
#
#
#
# Elastic Compliance Matrix: (Units=1/GPa)
#
#
# Indices 1 2 3 4 5 6 
#
# 1 0.019683 -0.006585 -0.007916 0.000000 0.000000 0.000000
# 2 -0.006585 0.019682 -0.007916 0.000000 0.000000 0.000000
# 3 -0.007916 -0.007916 0.026698 0.000000 0.000000 0.000000
# 4 0.000000 0.000000 0.000000 0.051639 0.000000 0.000000
# 5 0.000000 0.000000 0.000000 0.000000 0.051639 0.000000
# 6 0.000000 0.000000 0.000000 0.000000 0.000000 0.034422
#
#
# Mechanical properties :
#
#
# Convention : Reuss Voigt Hill
#
# Bulk Modulus (GPa) = 47.10362 48.61101 47.85731
# Shear Modulus (GPa) = 19.55624 20.51751 20.03687
#
# Velocity S-wave (km/s) = 3.44120 3.52476 3.48323
# Velocity P-wave (km/s) = 6.65670 6.78237 6.71983
#
# Compressibility (1/GPa) = 0.02122979
#
# Stress axis : x y z
#
# Youngs Moduli (GPa) = 50.80653 50.80656 37.45568
#
# Poissons Ratio (x) = 0.33454 0.29650
# Poissons Ratio (y) = 0.33454 0.29650
# Poissons Ratio (z) = 0.40219 0.40219
#
# Static dielectric constant tensor:
#      x y z
#    x 3.286790 0.000000 0.000000 
#    y 0.000000 3.286800 0.000000 
#    z 0.000000 0.000000 2.720640 
# 
# 
# High freq. dielectric constant tensor:
#      x y z
#    x 1.646710 0.000000 0.000000 
#    y 0.000000 1.646710 0.000000 
#    z 0.000000 0.000000 1.585790 
# 
# From -- ./inp_files/7549.got.cif
#   From: 2010.03.12/outbox.cif.g09.slc.cpg/sg137_4_cif.got.tgz:7549.got - 2010.04.08 09:34:49.
