data_PCOD8318407
_publ_section_title
;
Structure prediction by ZEFSAII (Michael W. Deem and Ramdas Pophale) SiO2 
 PCOD8318407
Probable space group: P 42/N M C
;
_chemical_formula_sum "Si O2"
_cell_formula_units_Z 112
_cell_length_a 14.491671
_cell_length_b 14.491671
_cell_length_c 28.731004
_cell_angle_alpha 90.000000
_cell_angle_beta 90.000000
_cell_angle_gamma 90.000000
_cell_volume 6033.755869
_symmetry_space_group_name_H-M "P 42/N M C"
_symmetry_group_IT_number 137
_space_group.IT_coordinate_system_code '2'
_symmetry_cell_setting 'tetragonal'
loop_
_space_group_symop_operation_xyz
x,y,z
1/2-y,x,1/2+z
1/2-x,1/2-y,z
y,1/2-x,1/2+z
1/2+x,-y,-z
-x,1/2+y,-z
1/2+y,1/2+x,1/2-z
-y,-x,1/2-z
-x,-y,-z
1/2+y,-x,1/2-z
1/2+x,1/2+y,-z
-y,1/2+x,1/2-z
1/2-x,y,z
x,1/2-y,z
1/2-y,1/2-x,1/2+z
y,x,1/2+z
loop_
_atom_site_type_symbol
_atom_site_label
_atom_site_fract_x
_atom_site_fract_y
_atom_site_fract_z
Si Si1 0.405000 0.649273 0.608370
Si Si2 0.142615 0.494321 0.740952
Si Si3 0.908575 0.852493 0.664778
Si Si4 0.641790 0.496200 0.920668
Si Si5 0.044900 0.351758 0.138457
Si Si6 0.512709 0.647473 0.089666
Si Si7 0.535965 0.854510 0.526797
O O1 0.354250 0.750000 0.612933
O O2 0.489886 0.647748 0.643510
O O3 0.343040 0.561292 0.620539
O O4 0.441063 0.637211 0.555606
O O5 0.250000 0.521789 0.740556
O O6 0.121797 0.417670 0.780646
O O7 0.112104 0.451699 0.691531
O O8 0.088086 0.588086 0.750000
O O9 0.864248 0.750000 0.659063
O O10 0.849358 0.929066 0.637823
O O11 0.750000 0.475232 0.912827
O O12 0.610935 0.585049 0.891990
O O13 0.580493 0.410773 0.903264
O O14 0.617885 0.514673 0.974225
O O15 0.087735 0.250000 0.135275
O O16 0.481341 0.750000 0.076876
O O17 0.575970 0.611039 0.047612
O O18 0.575169 0.750000 0.530151
#
# Coordination Sequence:
#
# PCOD8318407 Si02
#       7
#    16  16  16  16  16  16  16
#     4   9  16  31  53  78 109 140 173 219 269 321
#     4  10  18  30  49  76 110 147 183 220 266 328
#     4   9  17  32  54  78 110 142 171 218 280 331
#     4  11  23  41  57  74 111 153 187 227 272 318
#     4  11  22  34  54  81 110 148 193 225 261 323
#     4  11  21  35  60  88 108 133 179 234 284 329
#     4   9  19  36  59  81 109 145 176 214 272 330
#
# _framework density 18.562237
#
# number of rings (size 3 to 8) (size 9 to 14) (size 15 to 20)
#    0.000    2.000    4.286    1.714    0.000    2.714 
#    0.000    3.571    0.000    5.143    0.000    0.000 
#    0.000    3.429    0.000    0.000    0.000    0.000 
#
# Total GULP energy -1388313.542341 kJ/mol
# GULP energy per Si atom -12395.656628 kJ/mol
# Density = 1.851999 g / cm^3
# Si number density = 18.562237 Si / 1000 Ang^3
#
#
#
# Elastic Constant Matrix: (Units=GPa)
#
#
# Indices 1 2 3 4 5 6 
#
# 1 84.2319 38.7054 36.0358 0.0000 0.0000 0.0000
# 2 38.7054 84.2319 36.0358 0.0000 0.0000 0.0000
# 3 36.0358 36.0358 134.3041 0.0000 0.0000 0.0000
# 4 0.0000 0.0000 0.0000 18.3268 0.0000 0.0000
# 5 0.0000 0.0000 0.0000 0.0000 18.3268 0.0000
# 6 0.0000 0.0000 0.0000 0.0000 0.0000 3.0589
#
#
#
# Elastic Compliance Matrix: (Units=1/GPa)
#
#
# Indices 1 2 3 4 5 6 
#
# 1 0.015809 -0.006156 -0.002590 0.000000 0.000000 0.000000
# 2 -0.006156 0.015809 -0.002590 0.000000 0.000000 0.000000
# 3 -0.002590 -0.002590 0.008836 0.000000 0.000000 0.000000
# 4 0.000000 0.000000 0.000000 0.054565 0.000000 0.000000
# 5 0.000000 0.000000 0.000000 0.000000 0.054565 0.000000
# 6 0.000000 0.000000 0.000000 0.000000 0.000000 0.326916
#
#
# Mechanical properties :
#
#
# Convention : Reuss Voigt Hill
#
# Bulk Modulus (GPa) = 56.23965 58.25797 57.24881
# Shear Modulus (GPa) = 9.89905 20.74189 15.32047
#
# Velocity S-wave (km/s) = 2.31181 3.34642 2.87602
# Velocity P-wave (km/s) = 6.12288 6.81063 6.47589
#
# Compressibility (1/GPa) = 0.01778105
#
# Stress axis : x y z
#
# Youngs Moduli (GPa) = 63.25552 63.25552 113.17828
#
# Poissons Ratio (x) = 0.38942 0.29312
# Poissons Ratio (y) = 0.38942 0.29312
# Poissons Ratio (z) = 0.16383 0.16383
#
# Static dielectric constant tensor:
#      x y z
#    x 3.239820 0.000000 0.000000 
#    y 0.000000 3.239820 0.000000 
#    z 0.000000 0.000000 3.713810 
# 
# 
# High freq. dielectric constant tensor:
#      x y z
#    x 1.700390 0.000000 0.000000 
#    y 0.000000 1.700390 0.000000 
#    z 0.000000 0.000000 1.729070 
# 
# From -- ./inp_files/9754.got.cif
#   From: 2010.03.12/outbox.cif.g09.slc.cpg/sg137_5_cif.got.tgz:9754.got - 2010.04.08 09:34:49.
