data_PCOD8318924
_publ_section_title
;
Structure prediction by ZEFSAII (Michael W. Deem and Ramdas Pophale) SiO2 
 PCOD8318924
Probable space group: P 42/N C M
;
_chemical_formula_sum "Si O2"
_cell_formula_units_Z 112
_cell_length_a 23.193786
_cell_length_b 23.193786
_cell_length_c 12.353475
_cell_angle_alpha 90.000000
_cell_angle_beta 90.000000
_cell_angle_gamma 90.000000
_cell_volume 6645.572989
_symmetry_space_group_name_H-M "P 42/N C M"
_symmetry_group_IT_number 138
_space_group.IT_coordinate_system_code '2'
_symmetry_cell_setting 'tetragonal'
loop_
_space_group_symop_operation_xyz
x,y,z
1/2-y,x,1/2+z
1/2-x,1/2-y,z
y,1/2-x,1/2+z
1/2+x,-y,1/2-z
-x,1/2+y,1/2-z
1/2+y,1/2+x,-z
-y,-x,-z
-x,-y,-z
1/2+y,-x,1/2-z
1/2+x,1/2+y,-z
-y,1/2+x,1/2-z
1/2-x,y,1/2+z
x,1/2-y,1/2+z
1/2-y,1/2-x,z
y,x,z
loop_
_atom_site_type_symbol
_atom_site_label
_atom_site_fract_x
_atom_site_fract_y
_atom_site_fract_z
Si Si1 0.341489 0.701667 0.394280
Si Si2 0.852270 0.446399 0.659121
Si Si3 0.678133 0.145602 0.316915
Si Si4 0.020785 0.820145 0.923326
Si Si5 0.502385 0.092329 0.960512
Si Si6 0.515578 0.079342 0.716081
Si Si7 0.475141 0.694144 0.386711
O O1 0.304782 0.695219 0.500000
O O2 0.325013 0.649586 0.313340
O O3 0.321358 0.764350 0.351643
O O4 0.408943 0.699061 0.422056
O O5 0.824748 0.381957 0.643432
O O6 0.836537 0.479632 0.549803
O O7 0.920592 0.439805 0.678601
O O8 0.824330 0.480127 0.760649
O O9 0.680195 0.081418 0.360965
O O10 0.987378 0.872305 0.863176
O O11 0.993820 0.756494 0.905210
O O12 0.514517 0.107220 0.835516
O O13 0.444564 0.055437 0.975473
O O14 0.558089 0.058089 0.000000
O O15 0.493750 0.149121 0.033489
O O16 0.478251 0.021750 0.712078
#
# Coordination Sequence:
#
# PCOD8318924 Si02
#       7
#    16  16  16  16  16  16  16
#     4  10  21  32  47  59  78 119 157 206 252 283
#     4  10  20  35  48  67  95 130 168 204 254 304
#     4   9  20  34  41  60  84 111 162 205 246 293
#     4  10  22  33  50  70  98 131 160 203 251 306
#     4  10  19  33  53  78 102 128 168 214 250 290
#     4  10  20  34  55  79 103 130 167 212 261 305
#     4  10  21  33  51  69  95 130 169 202 243 304
#
# _framework density 16.853324000000001
#
# number of rings (size 3 to 8) (size 9 to 14) (size 15 to 20)
#    0.000    2.143    1.429    2.143    6.000    8.286 
#    0.000    3.571    0.000    0.000    0.000    0.000 
#    0.000    0.571    0.000    3.143    0.000    0.000 
#
# Total GULP energy -1387885.498767 kJ/mol
# GULP energy per Si atom -12391.834810 kJ/mol
# Density = 1.681497 g / cm^3
# Si number density = 16.853324 Si / 1000 Ang^3
#
#
#
# Elastic Constant Matrix: (Units=GPa)
#
#
# Indices 1 2 3 4 5 6 
#
# 1 56.2063 19.3052 39.2992 0.0000 0.0000 0.0000
# 2 19.3052 56.2062 39.2990 0.0000 0.0000 0.0000
# 3 39.2992 39.2990 122.4621 0.0000 0.0000 0.0000
# 4 0.0000 0.0000 0.0000 19.2067 0.0000 0.0000
# 5 0.0000 0.0000 0.0000 0.0000 19.2064 0.0000
# 6 0.0000 0.0000 0.0000 0.0000 0.0000 10.4446
#
#
#
# Elastic Compliance Matrix: (Units=1/GPa)
#
#
# Indices 1 2 3 4 5 6 
#
# 1 0.023492 -0.003607 -0.006381 0.000000 0.000000 0.000000
# 2 -0.003607 0.023492 -0.006381 0.000000 0.000000 0.000000
# 3 -0.006381 -0.006381 0.012261 0.000000 0.000000 0.000000
# 4 0.000000 0.000000 0.000000 0.052065 0.000000 0.000000
# 5 0.000000 0.000000 0.000000 0.000000 0.052066 0.000000
# 6 0.000000 0.000000 0.000000 0.000000 0.000000 0.095743
#
#
# Mechanical properties :
#
#
# Convention : Reuss Voigt Hill
#
# Bulk Modulus (GPa) = 37.72653 47.85349 42.79001
# Shear Modulus (GPa) = 16.62809 18.90293 17.76551
#
# Velocity S-wave (km/s) = 3.14448 3.35268 3.25025
# Velocity P-wave (km/s) = 5.96804 6.59114 6.28731
#
# Compressibility (1/GPa) = 0.02650655
#
# Stress axis : x y z
#
# Youngs Moduli (GPa) = 42.56695 42.56704 81.55652
#
# Poissons Ratio (x) = 0.15355 0.52044
# Poissons Ratio (y) = 0.15355 0.52044
# Poissons Ratio (z) = 0.27164 0.27163
#
# Static dielectric constant tensor:
#      x y z
#    x 3.145060 0.000000 0.000000 
#    y 0.000000 3.145060 0.000000 
#    z 0.000000 0.000000 3.411150 
# 
# 
# High freq. dielectric constant tensor:
#      x y z
#    x 1.614030 0.000000 0.000000 
#    y 0.000000 1.614030 0.000000 
#    z 0.000000 0.000000 1.671390 
# 
# From -- ./inp_files/3305.got.cif
#   From: 2010.03.12/outbox.cif.g09.slc.cpg/sg138_2_cif.got.tgz:3305.got - 2010.04.08 09:41:05.
