data_PCOD8318052
_publ_section_title
;
Structure prediction by ZEFSAII (Michael W. Deem and Ramdas Pophale) SiO2 
 PCOD8318052
Probable space group: P 42/M N M
;
_chemical_formula_sum "Si O2"
_cell_formula_units_Z 112
_cell_length_a 13.840923
_cell_length_b 13.840923
_cell_length_c 32.111457
_cell_angle_alpha 90.000000
_cell_angle_beta 90.000000
_cell_angle_gamma 90.000000
_cell_volume 6151.628729
_symmetry_space_group_name_H-M "P 42/M N M"
_symmetry_group_IT_number 136
_symmetry_cell_setting 'tetragonal'
loop_
_space_group_symop_operation_xyz
x,y,z
1/2-y,1/2+x,1/2+z
-x,-y,z
1/2+y,1/2-x,1/2+z
1/2+x,1/2-y,1/2-z
1/2-x,1/2+y,1/2-z
y,x,-z
-y,-x,-z
-x,-y,-z
1/2+y,1/2-x,1/2-z
x,y,-z
1/2-y,1/2+x,1/2-z
1/2-x,1/2+y,1/2+z
1/2+x,1/2-y,1/2+z
-y,-x,z
y,x,z
loop_
_atom_site_type_symbol
_atom_site_label
_atom_site_fract_x
_atom_site_fract_y
_atom_site_fract_z
Si Si1 0.481462 0.894914 0.046941
Si Si2 0.380232 0.899473 0.751465
Si Si3 0.099383 0.747054 0.327540
Si Si4 0.548044 0.296415 0.549018
Si Si5 0.799864 0.650021 0.084521
Si Si6 0.134744 0.711129 0.915301
Si Si7 0.626517 0.214699 0.834239
O O1 0.539614 0.809011 0.069741
O O2 0.368481 0.871950 0.048713
O O3 0.500000 0.000000 0.068128
O O4 0.518197 0.898241 0.000000
O O5 0.487934 0.872696 0.736902
O O6 0.308750 0.872687 0.714236
O O7 0.348997 0.838792 0.791433
O O8 0.143897 0.856104 0.324675
O O9 0.151316 0.690266 0.365454
O O10 0.984782 0.748250 0.335960
O O11 0.522144 0.288958 0.500000
O O12 0.601644 0.398357 0.558237
O O13 0.615714 0.208179 0.561960
O O14 0.453430 0.287012 0.578262
O O15 0.696424 0.696424 0.071469
O O16 0.234092 0.765908 0.922021
O O17 0.138353 0.656200 0.870599
O O18 0.688456 0.311545 0.837673
#
# Coordination Sequence:
#
# PCOD8318052 Si02
#       7
#    16  16  16  16  16  16  16
#     4  11  21  34  55  80 105 140 185 230 272 320
#     4   9  19  33  55  85 112 136 168 217 274 328
#     4  10  20  35  56  81 108 142 183 225 271 322
#     4  10  21  37  57  82 111 144 184 228 279 340
#     4  10  20  34  54  81 109 139 179 228 277 323
#     4  11  23  37  55  80 112 149 184 223 276 332
#     4  10  21  37  55  78 109 145 182 223 269 322
#
# _framework density 18.206558999999999
#
# number of rings (size 3 to 8) (size 9 to 14) (size 15 to 20)
#    0.000    1.857    2.857    1.286    2.000    2.571 
#    0.000    0.714    0.000    0.429    0.000    3.000 
#    0.000    0.000    0.000    0.000    0.000    0.000 
#
# Total GULP energy -1388280.005745 kJ/mol
# GULP energy per Si atom -12395.357194 kJ/mol
# Density = 1.816512 g / cm^3
# Si number density = 18.206559 Si / 1000 Ang^3
#
#
#
# Elastic Constant Matrix: (Units=GPa)
#
#
# Indices 1 2 3 4 5 6 
#
# 1 94.8195 53.2026 49.0656 0.0000 0.0000 0.0000
# 2 53.2026 94.8195 49.0656 0.0000 0.0000 0.0000
# 3 49.0656 49.0656 98.0036 0.0000 0.0000 0.0000
# 4 0.0000 0.0000 0.0000 26.5872 0.0000 0.0000
# 5 0.0000 0.0000 0.0000 0.0000 26.5872 0.0000
# 6 0.0000 0.0000 0.0000 0.0000 0.0000 29.3608
#
#
#
# Elastic Compliance Matrix: (Units=1/GPa)
#
#
# Indices 1 2 3 4 5 6 
#
# 1 0.017070 -0.006958 -0.005063 0.000000 0.000000 0.000000
# 2 -0.006958 0.017070 -0.005063 0.000000 0.000000 0.000000
# 3 -0.005063 -0.005063 0.015273 0.000000 0.000000 0.000000
# 4 0.000000 0.000000 0.000000 0.037612 0.000000 0.000000
# 5 0.000000 0.000000 0.000000 0.000000 0.037612 0.000000
# 6 0.000000 0.000000 0.000000 0.000000 0.000000 0.034059
#
#
# Mechanical properties :
#
#
# Convention : Reuss Voigt Hill
#
# Bulk Modulus (GPa) = 65.58864 65.59001 65.58933
# Shear Modulus (GPa) = 25.25944 25.59431 25.42688
#
# Velocity S-wave (km/s) = 3.72880 3.75343 3.74114
# Velocity P-wave (km/s) = 7.39199 7.40865 7.40032
#
# Compressibility (1/GPa) = 0.01524654
#
# Stress axis : x y z
#
# Youngs Moduli (GPa) = 58.58110 58.58110 65.47564
#
# Poissons Ratio (x) = 0.40763 0.33147
# Poissons Ratio (y) = 0.40763 0.33147
# Poissons Ratio (z) = 0.29657 0.29657
#
# Static dielectric constant tensor:
#      x y z
#    x 3.380960 0.000000 0.000000 
#    y 0.000000 3.380960 0.000000 
#    z 0.000000 0.000000 3.400670 
# 
# 
# High freq. dielectric constant tensor:
#      x y z
#    x 1.700870 0.000000 0.000000 
#    y 0.000000 1.700870 0.000000 
#    z 0.000000 0.000000 1.709320 
# 
# From -- ./inp_files/9936.got.cif
#   From: 2010.03.12/outbox.cif.g09.slc.cpg/sg136_5_cif.got.tgz:9936.got - 2010.04.06 18:39:43.
