data_PCOD8318648
_publ_section_title
;
Structure prediction by ZEFSAII (Michael W. Deem and Ramdas Pophale) SiO2 
 PCOD8318648
Probable space group: P 42/N M C
;
_chemical_formula_sum "Si O2"
_cell_formula_units_Z 112
_cell_length_a 13.883826
_cell_length_b 13.883826
_cell_length_c 26.804647
_cell_angle_alpha 90.000000
_cell_angle_beta 90.000000
_cell_angle_gamma 90.000000
_cell_volume 5166.880492
_symmetry_space_group_name_H-M "P 42/N M C"
_symmetry_group_IT_number 137
_space_group.IT_coordinate_system_code '2'
_symmetry_cell_setting 'tetragonal'
loop_
_space_group_symop_operation_xyz
x,y,z
1/2-y,x,1/2+z
1/2-x,1/2-y,z
y,1/2-x,1/2+z
1/2+x,-y,-z
-x,1/2+y,-z
1/2+y,1/2+x,1/2-z
-y,-x,1/2-z
-x,-y,-z
1/2+y,-x,1/2-z
1/2+x,1/2+y,-z
-y,1/2+x,1/2-z
1/2-x,y,z
x,1/2-y,z
1/2-y,1/2-x,1/2+z
y,x,1/2+z
loop_
_atom_site_type_symbol
_atom_site_label
_atom_site_fract_x
_atom_site_fract_y
_atom_site_fract_z
Si Si1 0.362088 0.363117 0.352305
Si Si2 0.052903 0.959987 0.896342
Si Si3 0.363138 0.643965 0.803455
Si Si4 0.647507 0.360716 0.598833
Si Si5 0.639747 0.137414 0.010156
Si Si6 0.519781 0.859479 0.245712
Si Si7 0.356790 0.045614 0.144916
O O1 0.250000 0.375747 0.366036
O O2 0.390998 0.250000 0.354104
O O3 0.423865 0.428739 0.391767
O O4 0.385830 0.404423 0.297285
O O5 0.116408 0.922160 0.850564
O O6 0.081706 0.924975 0.950318
O O7 0.944138 0.917608 0.889232
O O8 0.400893 0.599107 0.750000
O O9 0.250000 0.653105 0.796649
O O10 0.407898 0.750000 0.813479
O O11 0.750000 0.407220 0.615984
O O12 0.666221 0.250000 0.585951
O O13 0.612284 0.402829 0.545022
O O14 0.571016 0.372089 0.643032
O O15 0.750000 0.105939 0.015972
O O16 0.626570 0.250000 0.021882
O O17 0.428930 0.928930 0.250000
O O18 0.481596 0.750000 0.239681
O O19 0.578774 0.867874 0.298094
O O20 0.250000 0.074021 0.123811
#
# Coordination Sequence:
#
# PCOD8318648 Si02
#       7
#    16  16  16  16  16  16  16
#     4  10  22  38  54  76 110 151 191 229 276 336
#     4  12  21  32  57  81 110 146 188 227 277 324
#     4   9  19  34  52  79 111 139 173 223 281 337
#     4   8  16  34  58  82 111 143 176 225 291 349
#     4   9  18  34  58  90 119 139 171 226 289 347
#     4  10  20  37  56  79 110 141 186 241 285 327
#     4  10  22  36  52  75 108 147 191 235 277 328
#
# _framework density 21.676521999999999
#
# number of rings (size 3 to 8) (size 9 to 14) (size 15 to 20)
#    0.000    2.286    1.429    3.000    2.000    3.000 
#    0.000    2.143    0.000    2.571    0.000    1.000 
#    0.000   11.429    0.000    0.000    0.000    0.000 
#
# Total GULP energy -1387581.892535 kJ/mol
# GULP energy per Si atom -12389.124040 kJ/mol
# Density = 2.162719 g / cm^3
# Si number density = 21.676522 Si / 1000 Ang^3
#
#
#
# Elastic Constant Matrix: (Units=GPa)
#
#
# Indices 1 2 3 4 5 6 
#
# 1 62.6210 5.8767 13.5423 0.0000 0.0000 0.0000
# 2 5.8767 62.6209 13.5422 0.0000 0.0000 0.0000
# 3 13.5423 13.5422 74.6538 0.0000 0.0000 0.0000
# 4 0.0000 0.0000 0.0000 24.2688 0.0000 0.0000
# 5 0.0000 0.0000 0.0000 0.0000 24.2688 0.0000
# 6 0.0000 0.0000 0.0000 0.0000 0.0000 21.3920
#
#
#
# Elastic Compliance Matrix: (Units=1/GPa)
#
#
# Indices 1 2 3 4 5 6 
#
# 1 0.016675 -0.000948 -0.002853 0.000000 0.000000 0.000000
# 2 -0.000948 0.016675 -0.002853 0.000000 0.000000 0.000000
# 3 -0.002853 -0.002853 0.014430 0.000000 0.000000 0.000000
# 4 0.000000 0.000000 0.000000 0.041205 0.000000 0.000000
# 5 0.000000 0.000000 0.000000 0.000000 0.041205 0.000000
# 6 0.000000 0.000000 0.000000 0.000000 0.000000 0.046746
#
#
# Mechanical properties :
#
#
# Convention : Reuss Voigt Hill
#
# Bulk Modulus (GPa) = 29.00838 29.53533 29.27186
# Shear Modulus (GPa) = 24.78493 25.11488 24.94991
#
# Velocity S-wave (km/s) = 3.38509 3.40755 3.39634
# Velocity P-wave (km/s) = 5.35629 5.39786 5.37712
#
# Compressibility (1/GPa) = 0.03447280
#
# Stress axis : x y z
#
# Youngs Moduli (GPa) = 59.96996 59.96988 69.29910
#
# Poissons Ratio (x) = 0.05685 0.19770
# Poissons Ratio (y) = 0.05685 0.19770
# Poissons Ratio (z) = 0.17109 0.17109
#
# Static dielectric constant tensor:
#      x y z
#    x 3.920530 0.000000 0.000000 
#    y 0.000000 3.920530 0.000000 
#    z 0.000000 0.000000 3.823000 
# 
# 
# High freq. dielectric constant tensor:
#      x y z
#    x 1.842600 0.000000 0.000000 
#    y 0.000000 1.842600 0.000000 
#    z 0.000000 0.000000 1.843470 
# 
# From -- ./inp_files/9816.got.cif
#   From: 2010.03.12/outbox.cif.g09.slc.cpg/sg137_5_cif.got.tgz:9816.got - 2010.04.08 09:34:49.
