data_PCOD8318581
_publ_section_title
;
Structure prediction by ZEFSAII (Michael W. Deem and Ramdas Pophale) SiO2 
 PCOD8318581
Probable space group: P 42/N M C
;
_chemical_formula_sum "Si O2"
_cell_formula_units_Z 80
_cell_length_a 17.927707
_cell_length_b 17.927707
_cell_length_c 13.067889
_cell_angle_alpha 90.000000
_cell_angle_beta 90.000000
_cell_angle_gamma 90.000000
_cell_volume 4200.054524
_symmetry_space_group_name_H-M "P 42/N M C"
_symmetry_group_IT_number 137
_space_group.IT_coordinate_system_code '2'
_symmetry_cell_setting 'tetragonal'
loop_
_space_group_symop_operation_xyz
x,y,z
1/2-y,x,1/2+z
1/2-x,1/2-y,z
y,1/2-x,1/2+z
1/2+x,-y,-z
-x,1/2+y,-z
1/2+y,1/2+x,1/2-z
-y,-x,1/2-z
-x,-y,-z
1/2+y,-x,1/2-z
1/2+x,1/2+y,-z
-y,1/2+x,1/2-z
1/2-x,y,z
x,1/2-y,z
1/2-y,1/2-x,1/2+z
y,x,1/2+z
loop_
_atom_site_type_symbol
_atom_site_label
_atom_site_fract_x
_atom_site_fract_y
_atom_site_fract_z
Si Si1 0.164992 0.987044 0.050461
Si Si2 0.331051 0.833874 0.393162
Si Si3 0.750000 0.662804 0.212688
Si Si4 0.166263 0.986339 0.283973
Si Si5 0.337214 0.250000 0.046866
Si Si6 0.614218 0.613717 0.583194
O O1 0.250000 0.015033 0.039092
O O2 0.157229 0.898363 0.024789
O O3 0.137830 0.997532 0.167910
O O4 0.115629 0.034021 0.972033
O O5 0.250000 0.839153 0.448549
O O6 0.340016 0.750000 0.342075
O O7 0.337105 0.898589 0.308432
O O8 0.750000 0.750000 0.182946
O O9 0.750000 0.651063 0.332911
O O10 0.822988 0.622872 0.168797
O O11 0.250000 0.018045 0.293762
O O12 0.116257 0.033347 0.362588
O O13 0.250000 0.250000 0.017184
O O14 0.377197 0.322921 0.002979
#
# Coordination Sequence:
#
# PCOD8318581 Si02
#       6
#    16  16   8  16   8  16
#     4  10  20  33  52  78 110 142 175 221 270 315
#     4   9  19  37  59  81 105 134 171 224 288 336
#     4  11  20  32  50  72 103 150 193 219 246 299
#     4  10  20  33  52  78 110 142 175 221 270 315
#     4  11  20  32  50  72 103 150 193 219 246 299
#     4  12  19  33  48  74 112 146 182 212 256 312
#
# _framework density 19.047371999999999
#
# number of rings (size 3 to 8) (size 9 to 14) (size 15 to 20)
#    0.000    1.600    4.000    1.800    0.000    6.400 
#    0.000    6.000    0.000    0.000    0.000    0.000 
#    0.000    1.600    0.000    0.000    0.000    0.000 
#
# Total GULP energy -991534.962457 kJ/mol
# GULP energy per Si atom -12394.187031 kJ/mol
# Density = 1.900402 g / cm^3
# Si number density = 19.047372 Si / 1000 Ang^3
#
#
#
# Elastic Constant Matrix: (Units=GPa)
#
#
# Indices 1 2 3 4 5 6 
#
# 1 121.3731 47.9608 51.9295 0.0000 0.0000 0.0000
# 2 47.9608 121.3731 51.9295 0.0000 0.0000 0.0000
# 3 51.9295 51.9295 89.9103 0.0000 0.0000 0.0000
# 4 0.0000 0.0000 0.0000 16.1755 0.0000 0.0000
# 5 0.0000 0.0000 0.0000 0.0000 16.1755 0.0000
# 6 0.0000 0.0000 0.0000 0.0000 0.0000 23.1988
#
#
#
# Elastic Compliance Matrix: (Units=1/GPa)
#
#
# Indices 1 2 3 4 5 6 
#
# 1 0.011383 -0.002238 -0.005282 0.000000 0.000000 0.000000
# 2 -0.002238 0.011383 -0.005282 0.000000 0.000000 0.000000
# 3 -0.005282 -0.005282 0.017224 0.000000 0.000000 0.000000
# 4 0.000000 0.000000 0.000000 0.061822 0.000000 0.000000
# 5 0.000000 0.000000 0.000000 0.000000 0.061822 0.000000
# 6 0.000000 0.000000 0.000000 0.000000 0.000000 0.043106
#
#
# Mechanical properties :
#
#
# Convention : Reuss Voigt Hill
#
# Bulk Modulus (GPa) = 69.51184 70.69954 70.10569
# Shear Modulus (GPa) = 21.08460 23.16572 22.12516
#
# Velocity S-wave (km/s) = 3.33070 3.49121 3.41190
# Velocity P-wave (km/s) = 7.16693 7.31093 7.23929
#
# Compressibility (1/GPa) = 0.01438604
#
# Stress axis : x y z
#
# Youngs Moduli (GPa) = 87.84720 87.84720 58.05993
#
# Poissons Ratio (x) = 0.19663 0.30667
# Poissons Ratio (y) = 0.19663 0.30667
# Poissons Ratio (z) = 0.46400 0.46400
#
# Static dielectric constant tensor:
#      x y z
#    x 3.609840 0.000000 0.000000 
#    y 0.000000 3.609840 0.000000 
#    z 0.000000 0.000000 3.141050 
# 
# 
# High freq. dielectric constant tensor:
#      x y z
#    x 1.740820 0.000000 0.000000 
#    y 0.000000 1.740820 0.000000 
#    z 0.000000 0.000000 1.705820 
# 
# From -- ./inp_files/5021.got.cif
#   From: 2010.03.12/outbox.cif.g09.slc.cpg/sg137_3_cif.got.tgz:5021.got - 2010.04.08 09:34:49.
