data_PCOD8318377
_publ_section_title
;
Structure prediction by ZEFSAII (Michael W. Deem and Ramdas Pophale) SiO2 
 PCOD8318377
Probable space group: P 42/N M C
;
_chemical_formula_sum "Si O2"
_cell_formula_units_Z 112
_cell_length_a 18.451890
_cell_length_b 18.451890
_cell_length_c 19.000847
_cell_angle_alpha 90.000000
_cell_angle_beta 90.000000
_cell_angle_gamma 90.000000
_cell_volume 6469.261027
_symmetry_space_group_name_H-M "P 42/N M C"
_symmetry_group_IT_number 137
_space_group.IT_coordinate_system_code '2'
_symmetry_cell_setting 'tetragonal'
loop_
_space_group_symop_operation_xyz
x,y,z
1/2-y,x,1/2+z
1/2-x,1/2-y,z
y,1/2-x,1/2+z
1/2+x,-y,-z
-x,1/2+y,-z
1/2+y,1/2+x,1/2-z
-y,-x,1/2-z
-x,-y,-z
1/2+y,-x,1/2-z
1/2+x,1/2+y,-z
-y,1/2+x,1/2-z
1/2-x,y,z
x,1/2-y,z
1/2-y,1/2-x,1/2+z
y,x,1/2+z
loop_
_atom_site_type_symbol
_atom_site_label
_atom_site_fract_x
_atom_site_fract_y
_atom_site_fract_z
Si Si1 0.568835 0.981458 0.192173
Si Si2 0.667509 0.056739 0.437199
Si Si3 0.027459 0.470373 0.072961
Si Si4 0.611170 0.334008 0.323518
Si Si5 0.669641 0.403969 0.598014
Si Si6 0.471668 0.329871 0.788092
Si Si7 0.830864 0.028423 0.866409
O O1 0.520650 0.020650 0.250000
O O2 0.518426 0.979440 0.124438
O O3 0.642721 0.026451 0.181193
O O4 0.586068 0.896672 0.209672
O O5 0.750000 0.030876 0.426070
O O6 0.651450 0.124732 0.386668
O O7 0.651674 0.076587 0.517543
O O8 0.614747 0.990413 0.415941
O O9 0.112929 0.481362 0.086944
O O10 0.000000 0.500000 0.000000
O O11 0.651154 0.348847 0.250000
O O12 0.614443 0.250000 0.341924
O O13 0.750000 0.370548 0.603717
O O14 0.663235 0.474992 0.645955
O O15 0.613748 0.343111 0.622497
O O16 0.433381 0.250000 0.789890
O O17 0.515884 0.339636 0.716361
O O18 0.750000 0.007772 0.892065
#
# Coordination Sequence:
#
# PCOD8318377 Si02
#       7
#    16  16  16  16  16  16  16
#     4  10  17  32  54  72  97 136 179 220 261 315
#     4  10  21  35  55  80 106 142 178 219 274 324
#     4  11  19  34  54  76 105 139 182 226 258 313
#     4  10  22  36  53  77 104 138 179 225 277 331
#     4  10  19  33  52  76 108 143 176 212 262 320
#     4  10  18  31  54  79 106 139 181 223 262 315
#     4  11  21  32  51  79 110 144 177 220 271 316
#
# _framework density 17.312642
#
# number of rings (size 3 to 8) (size 9 to 14) (size 15 to 20)
#    0.000    1.714    4.286    0.857    0.000    1.857 
#    0.000    1.429    0.000    3.429    0.000    2.000 
#    0.000    6.000    0.000    0.143    0.000    0.000 
#
# Total GULP energy -1388089.030109 kJ/mol
# GULP energy per Si atom -12393.652055 kJ/mol
# Density = 1.727324 g / cm^3
# Si number density = 17.312642 Si / 1000 Ang^3
#
#
#
# Elastic Constant Matrix: (Units=GPa)
#
#
# Indices 1 2 3 4 5 6 
#
# 1 101.2370 45.2944 21.2351 0.0000 0.0000 0.0000
# 2 45.2944 101.2382 21.2351 0.0000 0.0000 0.0000
# 3 21.2351 21.2351 96.4383 0.0000 0.0000 0.0000
# 4 0.0000 0.0000 0.0000 19.8946 0.0000 0.0000
# 5 0.0000 0.0000 0.0000 0.0000 19.8945 0.0000
# 6 0.0000 0.0000 0.0000 0.0000 0.0000 21.0302
#
#
#
# Elastic Compliance Matrix: (Units=1/GPa)
#
#
# Indices 1 2 3 4 5 6 
#
# 1 0.012583 -0.005293 -0.001605 0.000000 0.000000 0.000000
# 2 -0.005293 0.012582 -0.001605 0.000000 0.000000 0.000000
# 3 -0.001605 -0.001605 0.011076 0.000000 0.000000 0.000000
# 4 0.000000 0.000000 0.000000 0.050265 0.000000 0.000000
# 5 0.000000 0.000000 0.000000 0.000000 0.050265 0.000000
# 6 0.000000 0.000000 0.000000 0.000000 0.000000 0.047551
#
#
# Mechanical properties :
#
#
# Convention : Reuss Voigt Hill
#
# Bulk Modulus (GPa) = 51.98858 52.71586 52.35222
# Shear Modulus (GPa) = 24.06860 26.24047 25.15453
#
# Velocity S-wave (km/s) = 3.73263 3.89740 3.81590
# Velocity P-wave (km/s) = 6.97647 7.12520 7.05122
#
# Compressibility (1/GPa) = 0.01923499
#
# Stress axis : x y z
#
# Youngs Moduli (GPa) = 79.47518 79.47617 90.28365
#
# Poissons Ratio (x) = 0.42065 0.14492
# Poissons Ratio (y) = 0.42065 0.14492
# Poissons Ratio (z) = 0.12757 0.12757
#
# Static dielectric constant tensor:
#      x y z
#    x 3.336380 0.000000 0.000000 
#    y 0.000000 3.336380 0.000000 
#    z 0.000000 0.000000 3.383910 
# 
# 
# High freq. dielectric constant tensor:
#      x y z
#    x 1.650980 0.000000 0.000000 
#    y 0.000000 1.650980 0.000000 
#    z 0.000000 0.000000 1.689700 
# 
# From -- ./inp_files/8078.got.cif
#   From: 2010.03.12/outbox.cif.g09.slc.cpg/sg137_5_cif.got.tgz:8078.got - 2010.04.08 09:34:49.
