data_PCOD8318451
_publ_section_title
;
Structure prediction by ZEFSAII (Michael W. Deem and Ramdas Pophale) SiO2 
 PCOD8318451
Probable space group: P 42/N M C
;
_chemical_formula_sum "Si O2"
_cell_formula_units_Z 80
_cell_length_a 19.471751
_cell_length_b 19.471751
_cell_length_c 13.294336
_cell_angle_alpha 90.000000
_cell_angle_beta 90.000000
_cell_angle_gamma 90.000000
_cell_volume 5040.535357
_symmetry_space_group_name_H-M "P 42/N M C"
_symmetry_group_IT_number 137
_space_group.IT_coordinate_system_code '2'
_symmetry_cell_setting 'tetragonal'
loop_
_space_group_symop_operation_xyz
x,y,z
1/2-y,x,1/2+z
1/2-x,1/2-y,z
y,1/2-x,1/2+z
1/2+x,-y,-z
-x,1/2+y,-z
1/2+y,1/2+x,1/2-z
-y,-x,1/2-z
-x,-y,-z
1/2+y,-x,1/2-z
1/2+x,1/2+y,-z
-y,1/2+x,1/2-z
1/2-x,y,z
x,1/2-y,z
1/2-y,1/2-x,1/2+z
y,x,1/2+z
loop_
_atom_site_type_symbol
_atom_site_label
_atom_site_fract_x
_atom_site_fract_y
_atom_site_fract_z
Si Si1 0.419060 0.548664 0.569745
Si Si2 0.671252 0.943608 0.345472
Si Si3 0.494810 0.171884 0.369418
Si Si4 0.527467 0.064822 0.639583
Si Si5 0.329159 0.427678 0.079281
O O1 0.345999 0.517304 0.602027
O O2 0.439186 0.621809 0.619049
O O3 0.416349 0.556286 0.448658
O O4 0.471049 0.492112 0.614184
O O5 0.750000 0.929607 0.362104
O O6 0.651455 0.950690 0.228163
O O7 0.636822 0.876121 0.392773
O O8 0.522937 0.250000 0.362554
O O9 0.441414 0.163139 0.460435
O O10 0.558539 0.058539 0.750000
O O11 0.494493 0.140946 0.636291
O O12 0.250000 0.415166 0.110590
#
# Coordination Sequence:
#
# PCOD8318451 Si02
#       5
#    16  16  16  16  16
#     4   9  16  27  44  63  84 110 141 180 221 258
#     4  10  19  29  44  66  90 115 145 182 220 256
#     4   9  17  30  47  65  85 113 147 179 218 268
#     4   9  16  27  44  64  84 108 142 184 222 253
#     4   9  18  31  45  62  87 119 150 176 209 261
#
# _framework density 15.871331
#
# number of rings (size 3 to 8) (size 9 to 14) (size 15 to 20)
#    0.000    2.800    0.000    4.200    0.000    0.400 
#    0.000    4.000    0.000    4.200    0.000    2.800 
#    0.000    2.000    0.000    0.200    0.000    0.200 
#
# Total GULP energy -991234.118285 kJ/mol
# GULP energy per Si atom -12390.426479 kJ/mol
# Density = 1.583521 g / cm^3
# Si number density = 15.871331 Si / 1000 Ang^3
#
#
#
# Elastic Constant Matrix: (Units=GPa)
#
#
# Indices 1 2 3 4 5 6 
#
# 1 67.4206 45.1750 54.8934 0.0000 0.0000 0.0000
# 2 45.1750 67.4206 54.8934 0.0000 0.0000 0.0000
# 3 54.8934 54.8934 113.7005 0.0000 0.0000 0.0000
# 4 0.0000 0.0000 0.0000 18.8510 0.0000 0.0000
# 5 0.0000 0.0000 0.0000 0.0000 18.8510 0.0000
# 6 0.0000 0.0000 0.0000 0.0000 0.0000 21.6412
#
#
#
# Elastic Compliance Matrix: (Units=1/GPa)
#
#
# Indices 1 2 3 4 5 6 
#
# 1 0.030867 -0.014086 -0.008102 0.000000 0.000000 0.000000
# 2 -0.014086 0.030867 -0.008102 0.000000 0.000000 0.000000
# 3 -0.008102 -0.008102 0.016618 0.000000 0.000000 0.000000
# 4 0.000000 0.000000 0.000000 0.053048 0.000000 0.000000
# 5 0.000000 0.000000 0.000000 0.000000 0.053048 0.000000
# 6 0.000000 0.000000 0.000000 0.000000 0.000000 0.046208
#
#
# Mechanical properties :
#
#
# Convention : Reuss Voigt Hill
#
# Bulk Modulus (GPa) = 56.26507 62.05172 59.15839
# Shear Modulus (GPa) = 16.82609 18.10729 17.46669
#
# Velocity S-wave (km/s) = 3.25954 3.38136 3.32100
# Velocity P-wave (km/s) = 7.04938 7.37742 7.21527
#
# Compressibility (1/GPa) = 0.01777302
#
# Stress axis : x y z
#
# Youngs Moduli (GPa) = 32.39728 32.39728 60.17651
#
# Poissons Ratio (x) = 0.45635 0.48753
# Poissons Ratio (y) = 0.45635 0.48753
# Poissons Ratio (z) = 0.26247 0.26247
#
# Static dielectric constant tensor:
#      x y z
#    x 3.029100 0.000000 0.000000 
#    y 0.000000 3.029100 0.000000 
#    z 0.000000 0.000000 3.188330 
# 
# 
# High freq. dielectric constant tensor:
#      x y z
#    x 1.588950 0.000000 0.000000 
#    y 0.000000 1.588950 0.000000 
#    z 0.000000 0.000000 1.622660 
# 
# From -- ./inp_files/5189.got.cif
#   From: 2010.03.12/outbox.cif.g09.slc.cpg/sg137_3_cif.got.tgz:5189.got - 2010.04.08 09:34:49.
