data_PCOD8318847
_publ_section_title
;
Structure prediction by ZEFSAII (Michael W. Deem and Ramdas Pophale) SiO2 
 PCOD8318847
Probable space group: P 42/N C M
;
_chemical_formula_sum "Si O2"
_cell_formula_units_Z 112
_cell_length_a 17.745776
_cell_length_b 17.745776
_cell_length_c 22.093299
_cell_angle_alpha 90.000000
_cell_angle_beta 90.000000
_cell_angle_gamma 90.000000
_cell_volume 6957.457476
_symmetry_space_group_name_H-M "P 42/N C M"
_symmetry_group_IT_number 138
_space_group.IT_coordinate_system_code '2'
_symmetry_cell_setting 'tetragonal'
loop_
_space_group_symop_operation_xyz
x,y,z
1/2-y,x,1/2+z
1/2-x,1/2-y,z
y,1/2-x,1/2+z
1/2+x,-y,1/2-z
-x,1/2+y,1/2-z
1/2+y,1/2+x,-z
-y,-x,-z
-x,-y,-z
1/2+y,-x,1/2-z
1/2+x,1/2+y,-z
-y,1/2+x,1/2-z
1/2-x,y,1/2+z
x,1/2-y,1/2+z
1/2-y,1/2-x,z
y,x,z
loop_
_atom_site_type_symbol
_atom_site_label
_atom_site_fract_x
_atom_site_fract_y
_atom_site_fract_z
Si Si1 0.332266 0.743905 0.148939
Si Si2 0.862806 0.517414 0.724935
Si Si3 0.555526 0.065315 0.158937
Si Si4 0.963710 0.297874 0.775840
Si Si5 0.116500 0.834403 0.437401
Si Si6 0.907684 0.029934 0.835097
Si Si7 0.104051 0.662093 0.436648
O O1 0.250000 0.750000 0.177728
O O2 0.384932 0.757541 0.207134
O O3 0.337733 0.803572 0.094992
O O4 0.349458 0.665731 0.116011
O O5 0.898088 0.601913 0.723966
O O6 0.884795 0.474240 0.786108
O O7 0.771360 0.524076 0.719396
O O8 0.901041 0.466838 0.672633
O O9 0.635888 0.025545 0.174587
O O10 0.556151 0.121675 0.102701
O O11 0.501472 0.998529 0.140715
O O12 0.964001 0.335185 0.709514
O O13 0.122032 0.877969 0.500000
O O14 0.089135 0.749535 0.449448
O O15 0.876996 0.031647 0.904478
O O16 0.950944 0.950944 0.822719
O O17 0.122163 0.622163 0.500000
#
# Coordination Sequence:
#
# PCOD8318847 Si02
#       7
#    16  16  16  16  16  16  16
#     4   9  18  29  43  71 101 128 157 196 234 292
#     4   9  17  31  48  69  95 121 156 202 251 302
#     4   9  19  32  46  66  96 129 160 198 248 298
#     4  10  17  32  50  68  94 128 161 205 249 296
#     4  10  18  29  47  69  97 129 163 196 238 284
#     4  10  21  34  48  69  98 132 168 204 247 296
#     4  11  19  31  49  68 103 137 164 199 238 287
#
# _framework density 16.097835
#
# number of rings (size 3 to 8) (size 9 to 14) (size 15 to 20)
#    0.000    2.286    2.857    2.143    0.000    1.714 
#    0.000    0.000    0.000    1.714    0.000    0.000 
#    0.000    0.000    0.000    0.000    0.000    0.000 
#
# Total GULP energy -1387810.137121 kJ/mol
# GULP energy per Si atom -12391.161939 kJ/mol
# Density = 1.606120 g / cm^3
# Si number density = 16.097835 Si / 1000 Ang^3
#
#
#
# Elastic Constant Matrix: (Units=GPa)
#
#
# Indices 1 2 3 4 5 6 
#
# 1 61.7138 28.2795 34.1404 0.0000 0.0000 0.0000
# 2 28.2795 61.7147 34.1406 0.0000 0.0000 0.0000
# 3 34.1404 34.1406 91.6160 0.0000 0.0000 0.0000
# 4 0.0000 0.0000 0.0000 2.7723 0.0000 0.0000
# 5 0.0000 0.0000 0.0000 0.0000 2.7802 0.0000
# 6 0.0000 0.0000 0.0000 0.0000 0.0000 25.6585
#
#
#
# Elastic Compliance Matrix: (Units=1/GPa)
#
#
# Indices 1 2 3 4 5 6 
#
# 1 0.022701 -0.007208 -0.005773 0.000000 0.000000 0.000000
# 2 -0.007208 0.022700 -0.005773 0.000000 0.000000 0.000000
# 3 -0.005773 -0.005773 0.015218 0.000000 0.000000 0.000000
# 4 0.000000 0.000000 0.000000 0.360718 0.000000 0.000000
# 5 0.000000 0.000000 0.000000 0.000000 0.359692 0.000000
# 6 0.000000 0.000000 0.000000 0.000000 0.000000 0.038973
#
#
# Mechanical properties :
#
#
# Convention : Reuss Voigt Hill
#
# Bulk Modulus (GPa) = 43.27203 45.35171 44.31187
# Shear Modulus (GPa) = 5.77891 14.14113 9.96002
#
# Velocity S-wave (km/s) = 1.89675 2.96708 2.49010
# Velocity P-wave (km/s) = 5.63346 6.32232 5.98781
#
# Compressibility (1/GPa) = 0.02310962
#
# Stress axis : x y z
#
# Youngs Moduli (GPa) = 44.05149 44.05211 65.71254
#
# Poissons Ratio (x) = 0.31755 0.37937
# Poissons Ratio (y) = 0.31754 0.37936
# Poissons Ratio (z) = 0.25431 0.25432
#
# Static dielectric constant tensor:
#      x y z
#    x 2.869300 0.000000 0.000000 
#    y 0.000000 2.869190 0.000000 
#    z 0.000000 0.000000 2.961900 
# 
# 
# High freq. dielectric constant tensor:
#      x y z
#    x 1.598900 0.000000 0.000000 
#    y 0.000000 1.598900 0.000000 
#    z 0.000000 0.000000 1.617010 
# 
# From -- ./inp_files/6461.got.cif
#   From: 2010.03.12/outbox.cif.g09.slc.cpg/sg138_4_cif.got.tgz:6461.got - 2010.04.08 09:41:05.
