data_PCOD8318912
_publ_section_title
;
Structure prediction by ZEFSAII (Michael W. Deem and Ramdas Pophale) SiO2 
 PCOD8318912
Probable space group: P 42/N C M
;
_chemical_formula_sum "Si O2"
_cell_formula_units_Z 96
_cell_length_a 20.206003
_cell_length_b 20.206003
_cell_length_c 13.527676
_cell_angle_alpha 90.000000
_cell_angle_beta 90.000000
_cell_angle_gamma 90.000000
_cell_volume 5523.114151
_symmetry_space_group_name_H-M "P 42/N C M"
_symmetry_group_IT_number 138
_space_group.IT_coordinate_system_code '2'
_symmetry_cell_setting 'tetragonal'
loop_
_space_group_symop_operation_xyz
x,y,z
1/2-y,x,1/2+z
1/2-x,1/2-y,z
y,1/2-x,1/2+z
1/2+x,-y,1/2-z
-x,1/2+y,1/2-z
1/2+y,1/2+x,-z
-y,-x,-z
-x,-y,-z
1/2+y,-x,1/2-z
1/2+x,1/2+y,-z
-y,1/2+x,1/2-z
1/2-x,y,1/2+z
x,1/2-y,1/2+z
1/2-y,1/2-x,z
y,x,z
loop_
_atom_site_type_symbol
_atom_site_label
_atom_site_fract_x
_atom_site_fract_y
_atom_site_fract_z
Si Si1 0.463779 0.356954 0.360234
Si Si2 0.777621 0.153353 0.223160
Si Si3 0.949827 0.655812 0.911585
Si Si4 0.458976 0.563705 0.289935
Si Si5 0.732249 0.484096 0.801736
Si Si6 0.103143 0.877398 0.889894
O O1 0.399413 0.399413 0.327760
O O2 0.457182 0.333477 0.472151
O O3 0.530343 0.399296 0.349389
O O4 0.473441 0.293174 0.291458
O O5 0.817362 0.204049 0.297868
O O6 0.775199 0.079752 0.268804
O O7 0.822885 0.153949 0.123540
O O8 0.878478 0.621523 0.887444
O O9 0.008271 0.610317 0.870963
O O10 0.960288 0.726709 0.860967
O O11 0.509746 0.509746 0.249255
O O12 0.435286 0.601249 0.191647
O O13 0.673165 0.457135 0.870849
O O14 0.094699 0.905301 0.000000
#
# Coordination Sequence:
#
# PCOD8318912 Si02
#       6
#    16  16  16  16  16  16
#     4   9  19  34  53  75 102 134 170 211 260 311
#     4   9  18  34  47  63 101 140 175 208 241 295
#     4  10  19  32  53  79 102 134 176 216 258 308
#     4   9  17  32  50  72 103 135 172 216 257 302
#     4  10  20  33  53  74 102 136 168 218 259 303
#     4  10  20  32  48  73 105 142 178 211 258 309
#
# _framework density 17.381498000000001
#
# number of rings (size 3 to 8) (size 9 to 14) (size 15 to 20)
#    0.000    2.500    1.667    0.500    2.333    2.333 
#    0.000    6.667    0.000    1.500    0.000    2.333 
#    0.000    0.000    0.000    0.000    0.000    0.000 
#
# Total GULP energy -1189508.750262 kJ/mol
# GULP energy per Si atom -12390.716149 kJ/mol
# Density = 1.734194 g / cm^3
# Si number density = 17.381498 Si / 1000 Ang^3
#
#
#
# Elastic Constant Matrix: (Units=GPa)
#
#
# Indices 1 2 3 4 5 6 
#
# 1 74.0620 38.8438 51.3328 0.0000 0.0000 0.0000
# 2 38.8438 74.0620 51.3327 0.0000 0.0000 0.0000
# 3 51.3328 51.3327 108.0754 0.0000 0.0000 0.0000
# 4 0.0000 0.0000 0.0000 21.2780 0.0000 0.0000
# 5 0.0000 0.0000 0.0000 0.0000 21.2779 0.0000
# 6 0.0000 0.0000 0.0000 0.0000 0.0000 17.9333
#
#
#
# Elastic Compliance Matrix: (Units=1/GPa)
#
#
# Indices 1 2 3 4 5 6 
#
# 1 0.021992 -0.006402 -0.007405 0.000000 0.000000 0.000000
# 2 -0.006402 0.021992 -0.007405 0.000000 0.000000 0.000000
# 3 -0.007405 -0.007405 0.016287 0.000000 0.000000 0.000000
# 4 0.000000 0.000000 0.000000 0.046997 0.000000 0.000000
# 5 0.000000 0.000000 0.000000 0.000000 0.046997 0.000000
# 6 0.000000 0.000000 0.000000 0.000000 0.000000 0.055762
#
#
# Mechanical properties :
#
#
# Convention : Reuss Voigt Hill
#
# Bulk Modulus (GPa) = 56.02914 59.91314 57.97114
# Shear Modulus (GPa) = 19.34976 19.74384 19.54680
#
# Velocity S-wave (km/s) = 3.34014 3.37399 3.35711
# Velocity P-wave (km/s) = 6.86879 7.05143 6.96071
#
# Compressibility (1/GPa) = 0.01784786
#
# Stress axis : x y z
#
# Youngs Moduli (GPa) = 45.47034 45.47045 61.39840
#
# Poissons Ratio (x) = 0.29110 0.45465
# Poissons Ratio (y) = 0.29110 0.45465
# Poissons Ratio (z) = 0.33671 0.33670
#
# Static dielectric constant tensor:
#      x y z
#    x 3.286940 0.000000 0.000000 
#    y 0.000000 3.286940 0.000000 
#    z 0.000000 0.000000 3.077270 
# 
# 
# High freq. dielectric constant tensor:
#      x y z
#    x 1.661860 0.000000 0.000000 
#    y 0.000000 1.661860 0.000000 
#    z 0.000000 0.000000 1.652280 
# 
# From -- ./inp_files/3145.got.cif
#   From: 2010.03.12/outbox.cif.g09.slc.cpg/sg138_2_cif.got.tgz:3145.got - 2010.04.08 09:41:05.
