data_PCOD8318937
_publ_section_title
;
Structure prediction by ZEFSAII (Michael W. Deem and Ramdas Pophale) SiO2 
 PCOD8318937
Probable space group: P 42/N C M
;
_chemical_formula_sum "Si O2"
_cell_formula_units_Z 112
_cell_length_a 15.641408
_cell_length_b 15.641408
_cell_length_c 25.879081
_cell_angle_alpha 90.000000
_cell_angle_beta 90.000000
_cell_angle_gamma 90.000000
_cell_volume 6331.411476
_symmetry_space_group_name_H-M "P 42/N C M"
_symmetry_group_IT_number 138
_space_group.IT_coordinate_system_code '2'
_symmetry_cell_setting 'tetragonal'
loop_
_space_group_symop_operation_xyz
x,y,z
1/2-y,x,1/2+z
1/2-x,1/2-y,z
y,1/2-x,1/2+z
1/2+x,-y,1/2-z
-x,1/2+y,1/2-z
1/2+y,1/2+x,-z
-y,-x,-z
-x,-y,-z
1/2+y,-x,1/2-z
1/2+x,1/2+y,-z
-y,1/2+x,1/2-z
1/2-x,y,1/2+z
x,1/2-y,1/2+z
1/2-y,1/2-x,z
y,x,z
loop_
_atom_site_type_symbol
_atom_site_label
_atom_site_fract_x
_atom_site_fract_y
_atom_site_fract_z
Si Si1 0.294744 0.434507 0.611558
Si Si2 0.690857 0.951030 0.100641
Si Si3 0.968466 0.670631 0.297647
Si Si4 0.745088 0.888799 0.702768
Si Si5 0.066901 0.571686 0.850190
Si Si6 0.330417 0.638004 0.252158
Si Si7 0.109965 0.246402 0.001239
O O1 0.344958 0.344958 0.620004
O O2 0.214784 0.438490 0.649820
O O3 0.356571 0.514190 0.620141
O O4 0.257181 0.442631 0.554063
O O5 0.631963 0.868037 0.098644
O O6 0.754458 0.941823 0.149458
O O7 0.743967 0.955184 0.047152
O O8 0.634728 0.036332 0.108018
O O9 0.918030 0.581971 0.291299
O O10 0.951056 0.735466 0.250271
O O11 0.070259 0.652985 0.294486
O O12 0.651262 0.848738 0.710811
O O13 0.815054 0.815054 0.701259
O O14 0.114241 0.611262 0.801453
O O15 0.005771 0.494230 0.830859
O O16 0.230416 0.639954 0.268008
O O17 0.181976 0.318025 0.998535
O O18 0.152970 0.152970 0.999092
#
# Coordination Sequence:
#
# PCOD8318937 Si02
#       7
#    16  16  16  16  16  16  16
#     4  10  20  32  49  75 110 145 178 218 265 324
#     4   9  16  27  46  69 101 142 178 217 260 307
#     4  11  20  33  52  74 105 140 174 212 266 327
#     4   9  16  25  41  68 100 135 171 206 251 311
#     4  10  19  34  53  76 107 139 178 224 266 313
#     4  11  22  37  55  75 102 137 176 222 268 313
#     4   9  17  29  45  70 107 147 182 215 260 322
#
# _framework density 17.689578999999998
#
# number of rings (size 3 to 8) (size 9 to 14) (size 15 to 20)
#    0.000    2.143    2.857    1.714    0.000    3.714 
#    0.000    2.857    0.000    0.000    0.000    1.000 
#    0.000    2.286    0.000    0.000    0.000    0.000 
#
# Total GULP energy -1388581.251071 kJ/mol
# GULP energy per Si atom -12398.046885 kJ/mol
# Density = 1.764932 g / cm^3
# Si number density = 17.689579 Si / 1000 Ang^3
#
#
#
# Elastic Constant Matrix: (Units=GPa)
#
#
# Indices 1 2 3 4 5 6 
#
# 1 70.0284 25.8660 22.7554 0.0000 0.0000 0.0000
# 2 25.8660 70.0284 22.7554 0.0000 0.0000 0.0000
# 3 22.7554 22.7554 113.0086 0.0000 0.0000 0.0000
# 4 0.0000 0.0000 0.0000 13.3278 0.0000 0.0000
# 5 0.0000 0.0000 0.0000 0.0000 13.3278 0.0000
# 6 0.0000 0.0000 0.0000 0.0000 0.0000 21.3896
#
#
#
# Elastic Compliance Matrix: (Units=1/GPa)
#
#
# Indices 1 2 3 4 5 6 
#
# 1 0.017087 -0.005557 -0.002322 0.000000 0.000000 0.000000
# 2 -0.005557 0.017087 -0.002322 0.000000 0.000000 0.000000
# 3 -0.002322 -0.002322 0.009784 0.000000 0.000000 0.000000
# 4 0.000000 0.000000 0.000000 0.075031 0.000000 0.000000
# 5 0.000000 0.000000 0.000000 0.000000 0.075031 0.000000
# 6 0.000000 0.000000 0.000000 0.000000 0.000000 0.046752
#
#
# Mechanical properties :
#
#
# Convention : Reuss Voigt Hill
#
# Bulk Modulus (GPa) = 42.44999 43.97990 43.21494
# Shear Modulus (GPa) = 18.58569 21.72162 20.15365
#
# Velocity S-wave (km/s) = 3.24490 3.50799 3.37901
# Velocity P-wave (km/s) = 6.17158 6.42837 6.30129
#
# Compressibility (1/GPa) = 0.02355713
#
# Stress axis : x y z
#
# Youngs Moduli (GPa) = 58.52455 58.52455 102.20904
#
# Poissons Ratio (x) = 0.32521 0.23730
# Poissons Ratio (y) = 0.32521 0.23730
# Poissons Ratio (z) = 0.13588 0.13588
#
# Static dielectric constant tensor:
#      x y z
#    x 3.240220 0.000000 0.000000 
#    y 0.000000 3.240220 0.000000 
#    z 0.000000 0.000000 3.375520 
# 
# 
# High freq. dielectric constant tensor:
#      x y z
#    x 1.667020 0.000000 0.000000 
#    y 0.000000 1.667020 0.000000 
#    z 0.000000 0.000000 1.676630 
# 
# From -- ./inp_files/7562.got.cif
#   From: 2010.03.12/outbox.cif.g09.slc.cpg/sg138_4_cif.got.tgz:7562.got - 2010.04.08 09:41:05.
