data_PCOD8318667
_publ_section_title
;
Structure prediction by ZEFSAII (Michael W. Deem and Ramdas Pophale) SiO2 
 PCOD8318667
Probable space group: P 42/N M C
;
_chemical_formula_sum "Si O2"
_cell_formula_units_Z 96
_cell_length_a 22.106965
_cell_length_b 22.106965
_cell_length_c 10.070928
_cell_angle_alpha 90.000000
_cell_angle_beta 90.000000
_cell_angle_gamma 90.000000
_cell_volume 4921.842798
_symmetry_space_group_name_H-M "P 42/N M C"
_symmetry_group_IT_number 137
_space_group.IT_coordinate_system_code '2'
_symmetry_cell_setting 'tetragonal'
loop_
_space_group_symop_operation_xyz
x,y,z
1/2-y,x,1/2+z
1/2-x,1/2-y,z
y,1/2-x,1/2+z
1/2+x,-y,-z
-x,1/2+y,-z
1/2+y,1/2+x,1/2-z
-y,-x,1/2-z
-x,-y,-z
1/2+y,-x,1/2-z
1/2+x,1/2+y,-z
-y,1/2+x,1/2-z
1/2-x,y,z
x,1/2-y,z
1/2-y,1/2-x,1/2+z
y,x,1/2+z
loop_
_atom_site_type_symbol
_atom_site_label
_atom_site_fract_x
_atom_site_fract_y
_atom_site_fract_z
Si Si1 0.492653 0.319030 0.511455
Si Si2 0.315693 0.679501 0.609065
Si Si3 0.404858 0.182300 0.743786
Si Si4 0.001735 0.320191 0.976214
Si Si5 0.319916 0.429542 0.741997
Si Si6 0.616274 0.108595 0.905531
O O1 0.518732 0.250000 0.523422
O O2 0.431564 0.323946 0.596474
O O3 0.476154 0.334693 0.360099
O O4 0.538275 0.370682 0.564707
O O5 0.344469 0.655532 0.750000
O O6 0.250000 0.649253 0.582773
O O7 0.308105 0.750000 0.630322
O O8 0.356998 0.669241 0.482135
O O9 0.378269 0.250000 0.765749
O O10 0.352618 0.133995 0.764354
O O11 0.458311 0.169864 0.846920
O O12 0.980061 0.250000 0.986285
O O13 0.039049 0.340099 0.105588
O O14 0.946266 0.366834 0.965652
O O15 0.250000 0.412664 0.738638
O O16 0.621419 0.121419 0.750000
#
# Coordination Sequence:
#
# PCOD8318667 Si02
#       6
#    16  16  16  16  16  16
#     4  10  22  39  59  87 122 158 198 250 299 344
#     4   9  20  36  54  81 115 148 191 255 312 349
#     4  10  20  40  65  89 122 154 188 244 305 354
#     4  10  22  39  59  87 122 158 198 250 299 344
#     4  10  22  40  63  91 120 154 196 240 299 368
#     4  12  23  37  58  84 113 162 214 242 287 354
#
# _framework density 19.504888999999999
#
# number of rings (size 3 to 8) (size 9 to 14) (size 15 to 20)
#    0.000    1.833    1.667    2.500    2.333    2.333 
#    0.000    5.833    0.000    6.000    0.000    0.000 
#    0.000    0.000    0.000    0.000    0.000    0.000 
#
# Total GULP energy -1190115.881056 kJ/mol
# GULP energy per Si atom -12397.040428 kJ/mol
# Density = 1.946050 g / cm^3
# Si number density = 19.504889 Si / 1000 Ang^3
#
#
#
# Elastic Constant Matrix: (Units=GPa)
#
#
# Indices 1 2 3 4 5 6 
#
# 1 82.7649 56.0550 30.9854 0.0000 0.0000 0.0000
# 2 56.0550 82.7650 30.9853 0.0000 0.0000 0.0000
# 3 30.9854 30.9853 89.8344 0.0000 0.0000 0.0000
# 4 0.0000 0.0000 0.0000 24.0200 0.0000 0.0000
# 5 0.0000 0.0000 0.0000 0.0000 24.0198 0.0000
# 6 0.0000 0.0000 0.0000 0.0000 0.0000 42.8374
#
#
#
# Elastic Compliance Matrix: (Units=1/GPa)
#
#
# Indices 1 2 3 4 5 6 
#
# 1 0.022977 -0.014462 -0.002937 0.000000 0.000000 0.000000
# 2 -0.014462 0.022977 -0.002937 0.000000 0.000000 0.000000
# 3 -0.002937 -0.002937 0.013158 0.000000 0.000000 0.000000
# 4 0.000000 0.000000 0.000000 0.041632 0.000000 0.000000
# 5 0.000000 0.000000 0.000000 0.000000 0.041632 0.000000
# 6 0.000000 0.000000 0.000000 0.000000 0.000000 0.023344
#
#
# Mechanical properties :
#
#
# Convention : Reuss Voigt Hill
#
# Bulk Modulus (GPa) = 54.23165 54.60174 54.41670
# Shear Modulus (GPa) = 23.52520 27.33134 25.42827
#
# Velocity S-wave (km/s) = 3.47669 3.74740 3.61458
# Velocity P-wave (km/s) = 6.63182 6.83949 6.73645
#
# Compressibility (1/GPa) = 0.01843942
#
# Stress axis : x y z
#
# Youngs Moduli (GPa) = 43.52191 43.52209 76.00223
#
# Poissons Ratio (x) = 0.62943 0.22321
# Poissons Ratio (y) = 0.62943 0.22320
# Poissons Ratio (z) = 0.12782 0.12781
#
# Static dielectric constant tensor:
#      x y z
#    x 3.423690 0.000000 0.000000 
#    y 0.000000 3.423690 0.000000 
#    z 0.000000 0.000000 3.828830 
# 
# 
# High freq. dielectric constant tensor:
#      x y z
#    x 1.745810 0.000000 0.000000 
#    y 0.000000 1.745810 0.000000 
#    z 0.000000 0.000000 1.782580 
# 
# From -- ./inp_files/2188.got.cif
#   From: 2010.03.12/outbox.cif.g09.slc.cpg/sg137_2_cif.got.tgz:2188.got - 2010.04.08 09:34:49.
