data_PCOD8318975
_publ_section_title
;
Structure prediction by ZEFSAII (Michael W. Deem and Ramdas Pophale) SiO2 
 PCOD8318975
Probable space group: P 42/N C M
;
_chemical_formula_sum "Si O2"
_cell_formula_units_Z 96
_cell_length_a 24.853954
_cell_length_b 24.853954
_cell_length_c 9.527900
_cell_angle_alpha 90.000000
_cell_angle_beta 90.000000
_cell_angle_gamma 90.000000
_cell_volume 5885.565141
_symmetry_space_group_name_H-M "P 42/N C M"
_symmetry_group_IT_number 138
_space_group.IT_coordinate_system_code '2'
_symmetry_cell_setting 'tetragonal'
loop_
_space_group_symop_operation_xyz
x,y,z
1/2-y,x,1/2+z
1/2-x,1/2-y,z
y,1/2-x,1/2+z
1/2+x,-y,1/2-z
-x,1/2+y,1/2-z
1/2+y,1/2+x,-z
-y,-x,-z
-x,-y,-z
1/2+y,-x,1/2-z
1/2+x,1/2+y,-z
-y,1/2+x,1/2-z
1/2-x,y,1/2+z
x,1/2-y,1/2+z
1/2-y,1/2-x,z
y,x,z
loop_
_atom_site_type_symbol
_atom_site_label
_atom_site_fract_x
_atom_site_fract_y
_atom_site_fract_z
Si Si1 0.025580 0.690701 0.743734
Si Si2 0.203869 0.639434 0.890851
Si Si3 0.178689 0.856571 0.863956
Si Si4 0.209663 0.984525 0.434250
Si Si5 0.487773 0.927436 0.799663
Si Si6 0.990716 0.594957 0.123105
O O1 0.089709 0.688402 0.725908
O O2 0.998402 0.732429 0.632681
O O3 0.008162 0.711400 0.897771
O O4 0.008203 0.628858 0.715319
O O5 0.263391 0.660312 0.926930
O O6 0.190180 0.656650 0.733554
O O7 0.161942 0.661942 0.000000
O O8 0.197791 0.576151 0.896244
O O9 0.139003 0.860998 0.000000
O O10 0.159637 0.016389 0.360431
O O11 0.535004 0.964997 0.738814
O O12 0.430509 0.959534 0.785544
O O13 0.496492 0.915912 0.961980
O O14 0.935082 0.564919 0.165700
#
# Coordination Sequence:
#
# PCOD8318975 Si02
#       6
#    16  16  16  16  16  16
#     4  10  20  33  47  69  90 121 149 183 230 279
#     4  11  21  34  44  58  80 111 149 190 233 268
#     4  11  23  32  45  60  79 111 150 194 234 268
#     4  10  20  31  49  67  92 119 149 184 227 281
#     4   8  14  27  48  72  92 115 153 195 232 268
#     4   8  14  26  48  73  91 114 153 198 230 262
#
# _framework density 16.311093
#
# number of rings (size 3 to 8) (size 9 to 14) (size 15 to 20)
#    0.000    2.333    1.667    3.000    9.333    2.000 
#    0.000    0.000    0.000    1.500    0.000    0.000 
#    0.000    0.667    0.000    8.333    0.000    0.000 
#
# Total GULP energy -1189365.409793 kJ/mol
# GULP energy per Si atom -12389.223019 kJ/mol
# Density = 1.627397 g / cm^3
# Si number density = 16.311093 Si / 1000 Ang^3
#
#
#
# Elastic Constant Matrix: (Units=GPa)
#
#
# Indices 1 2 3 4 5 6 
#
# 1 56.1913 11.5104 23.3141 0.0000 0.0000 0.0000
# 2 11.5104 56.1899 23.3141 0.0000 0.0000 0.0000
# 3 23.3141 23.3141 59.9489 0.0000 0.0000 0.0000
# 4 0.0000 0.0000 0.0000 16.4908 0.0000 0.0000
# 5 0.0000 0.0000 0.0000 0.0000 16.4910 0.0000
# 6 0.0000 0.0000 0.0000 0.0000 0.0000 19.7045
#
#
#
# Elastic Compliance Matrix: (Units=1/GPa)
#
#
# Indices 1 2 3 4 5 6 
#
# 1 0.021278 -0.001103 -0.007846 0.000000 0.000000 0.000000
# 2 -0.001103 0.021278 -0.007846 0.000000 0.000000 0.000000
# 3 -0.007846 -0.007846 0.022783 0.000000 0.000000 0.000000
# 4 0.000000 0.000000 0.000000 0.060640 0.000000 0.000000
# 5 0.000000 0.000000 0.000000 0.000000 0.060639 0.000000
# 6 0.000000 0.000000 0.000000 0.000000 0.000000 0.050750
#
#
# Mechanical properties :
#
#
# Convention : Reuss Voigt Hill
#
# Bulk Modulus (GPa) = 31.49702 32.06747 31.78225
# Shear Modulus (GPa) = 17.75938 18.15003 17.95470
#
# Velocity S-wave (km/s) = 3.30326 3.33940 3.32138
# Velocity P-wave (km/s) = 5.82244 5.87974 5.85116
#
# Compressibility (1/GPa) = 0.03174903
#
# Stress axis : x y z
#
# Youngs Moduli (GPa) = 46.99771 46.99633 43.89159
#
# Poissons Ratio (x) = 0.05185 0.34436
# Poissons Ratio (y) = 0.05185 0.34437
# Poissons Ratio (z) = 0.36873 0.36873
#
# Static dielectric constant tensor:
#      x y z
#    x 3.194880 0.000000 0.000000 
#    y 0.000000 3.194870 0.000000 
#    z 0.000000 0.000000 2.936620 
# 
# 
# High freq. dielectric constant tensor:
#      x y z
#    x 1.604150 0.000000 0.000000 
#    y 0.000000 1.604150 0.000000 
#    z 0.000000 0.000000 1.611080 
# 
# From -- ./inp_files/1729.got.cif
#   From: 2010.03.12/outbox.cif.g09.slc.cpg/sg138_1_cif.got.tgz:1729.got - 2010.04.08 09:41:05.
