data_PCOD8318940
_publ_section_title
;
Structure prediction by ZEFSAII (Michael W. Deem and Ramdas Pophale) SiO2 
 PCOD8318940
Probable space group: P 42/N C M
;
_chemical_formula_sum "Si O2"
_cell_formula_units_Z 72
_cell_length_a 19.963301
_cell_length_b 19.963301
_cell_length_c 9.825420
_cell_angle_alpha 90.000000
_cell_angle_beta 90.000000
_cell_angle_gamma 90.000000
_cell_volume 3915.757909
_symmetry_space_group_name_H-M "P 42/N C M"
_symmetry_group_IT_number 138
_space_group.IT_coordinate_system_code '2'
_symmetry_cell_setting 'tetragonal'
loop_
_space_group_symop_operation_xyz
x,y,z
1/2-y,x,1/2+z
1/2-x,1/2-y,z
y,1/2-x,1/2+z
1/2+x,-y,1/2-z
-x,1/2+y,1/2-z
1/2+y,1/2+x,-z
-y,-x,-z
-x,-y,-z
1/2+y,-x,1/2-z
1/2+x,1/2+y,-z
-y,1/2+x,1/2-z
1/2-x,y,1/2+z
x,1/2-y,1/2+z
1/2-y,1/2-x,z
y,x,z
loop_
_atom_site_type_symbol
_atom_site_label
_atom_site_fract_x
_atom_site_fract_y
_atom_site_fract_z
Si Si1 0.250000 0.250000 0.508717
Si Si2 0.750000 0.250000 0.750000
Si Si3 0.850119 0.649882 0.894651
Si Si4 0.350140 0.350140 0.912019
Si Si5 0.955398 0.746301 0.013654
Si Si6 0.653835 0.353916 0.153549
Si Si7 0.954776 0.242617 0.237204
O O1 0.293563 0.293563 0.612262
O O2 0.206490 0.293511 0.404627
O O3 0.797151 0.210259 0.853776
O O4 0.870660 0.629341 0.741342
O O5 0.913480 0.680342 0.973768
O O6 0.316601 0.413514 0.989986
O O7 0.019248 0.752555 0.916623
O O8 0.981852 0.732053 0.165170
O O9 0.592948 0.323120 0.243590
O O10 0.686834 0.418684 0.225339
O O11 0.629566 0.370435 0.000000
#
# Coordination Sequence:
#
# PCOD8318940 Si02
#       7
#     4   4   8   8  16  16  16
#     4   8  18  28  52  86 112 134 186 234 302 344
#     4   8  18  28  52  86 112 134 188 234 304 342
#     4  10  19  34  56  83 117 147 184 238 293 341
#     4  10  19  34  56  83 118 148 184 239 294 338
#     4  11  22  37  60  87 115 152 193 237 288 344
#     4  10  19  34  56  83 117 148 185 238 294 340
#     4  11  22  37  60  87 116 150 195 237 287 344
#
# _framework density 18.387245
#
# number of rings (size 3 to 8) (size 9 to 14) (size 15 to 20)
#    0.000    1.778    4.444    0.667    0.000    1.778 
#    0.000    0.000    0.000    8.000    0.000    0.000 
#    0.000    0.000    0.000    0.000    0.000    0.000 
#
# Total GULP energy -892397.542368 kJ/mol
# GULP energy per Si atom -12394.410311 kJ/mol
# Density = 1.834539 g / cm^3
# Si number density = 18.387245 Si / 1000 Ang^3
#
#
#
# Elastic Constant Matrix: (Units=GPa)
#
#
# Indices 1 2 3 4 5 6 
#
# 1 81.7427 33.2128 19.5155 0.0000 0.0000 0.0000
# 2 33.2128 81.7426 19.5154 0.0000 0.0000 0.0000
# 3 19.5155 19.5154 67.4200 0.0000 0.0000 0.0000
# 4 0.0000 0.0000 0.0000 30.1755 0.0000 0.0000
# 5 0.0000 0.0000 0.0000 0.0000 30.1755 0.0000
# 6 0.0000 0.0000 0.0000 0.0000 0.0000 33.0815
#
#
#
# Elastic Compliance Matrix: (Units=1/GPa)
#
#
# Indices 1 2 3 4 5 6 
#
# 1 0.015126 -0.005479 -0.002792 0.000000 0.000000 0.000000
# 2 -0.005479 0.015127 -0.002792 0.000000 0.000000 0.000000
# 3 -0.002792 -0.002792 0.016449 0.000000 0.000000 0.000000
# 4 0.000000 0.000000 0.000000 0.033139 0.000000 0.000000
# 5 0.000000 0.000000 0.000000 0.000000 0.033140 0.000000
# 6 0.000000 0.000000 0.000000 0.000000 0.000000 0.030228
#
#
# Mechanical properties :
#
#
# Convention : Reuss Voigt Hill
#
# Bulk Modulus (GPa) = 40.69436 41.71030 41.20233
# Shear Modulus (GPa) = 28.81361 29.26394 29.03878
#
# Velocity S-wave (km/s) = 3.96288 3.99373 3.97834
# Velocity P-wave (km/s) = 6.56652 6.63326 6.59997
#
# Compressibility (1/GPa) = 0.02457343
#
# Stress axis : x y z
#
# Youngs Moduli (GPa) = 66.10915 66.10912 60.79391
#
# Poissons Ratio (x) = 0.36224 0.16977
# Poissons Ratio (y) = 0.36224 0.16976
# Poissons Ratio (z) = 0.18461 0.18461
#
# Static dielectric constant tensor:
#      x y z
#    x 3.342460 0.000000 0.000000 
#    y 0.000000 3.342460 0.000000 
#    z 0.000000 0.000000 3.193300 
# 
# 
# High freq. dielectric constant tensor:
#      x y z
#    x 1.699090 0.000000 0.000000 
#    y 0.000000 1.699090 0.000000 
#    z 0.000000 0.000000 1.714440 
# 
# From -- ./inp_files/1576.got.cif
#   From: 2010.03.12/outbox.cif.g09.slc.cpg/sg138_1_cif.got.tgz:1576.got - 2010.04.08 09:41:05.
