data_PCOD8318382
_publ_section_title
;
Structure prediction by ZEFSAII (Michael W. Deem and Ramdas Pophale) SiO2 
 PCOD8318382
Probable space group: P 42/N M C
;
_chemical_formula_sum "Si O2"
_cell_formula_units_Z 112
_cell_length_a 14.535956
_cell_length_b 14.535956
_cell_length_c 32.218459
_cell_angle_alpha 90.000000
_cell_angle_beta 90.000000
_cell_angle_gamma 90.000000
_cell_volume 6807.567618
_symmetry_space_group_name_H-M "P 42/N M C"
_symmetry_group_IT_number 137
_space_group.IT_coordinate_system_code '2'
_symmetry_cell_setting 'tetragonal'
loop_
_space_group_symop_operation_xyz
x,y,z
1/2-y,x,1/2+z
1/2-x,1/2-y,z
y,1/2-x,1/2+z
1/2+x,-y,-z
-x,1/2+y,-z
1/2+y,1/2+x,1/2-z
-y,-x,1/2-z
-x,-y,-z
1/2+y,-x,1/2-z
1/2+x,1/2+y,-z
-y,1/2+x,1/2-z
1/2-x,y,z
x,1/2-y,z
1/2-y,1/2-x,1/2+z
y,x,1/2+z
loop_
_atom_site_type_symbol
_atom_site_label
_atom_site_fract_x
_atom_site_fract_y
_atom_site_fract_z
Si Si1 0.640861 0.648190 0.344189
Si Si2 0.358332 0.147077 0.511465
Si Si3 0.358414 0.350610 0.919067
Si Si4 0.140718 0.149641 0.748321
Si Si5 0.640653 0.517306 0.415783
Si Si6 0.035058 0.641772 0.714945
Si Si7 0.641883 0.036305 0.120886
O O1 0.750000 0.645844 0.345634
O O2 0.606579 0.750000 0.357171
O O3 0.605397 0.624682 0.297970
O O4 0.602255 0.573918 0.376291
O O5 0.250000 0.155112 0.518075
O O6 0.400546 0.250000 0.519138
O O7 0.380744 0.109755 0.465301
O O8 0.397140 0.071289 0.543749
O O9 0.250000 0.339110 0.920788
O O10 0.400695 0.250000 0.906666
O O11 0.385981 0.429166 0.886137
O O12 0.250000 0.154997 0.747931
O O13 0.102001 0.250000 0.762243
O O14 0.106060 0.069877 0.779032
O O15 0.750000 0.507448 0.416669
O O16 0.598523 0.415065 0.411527
O O17 0.099979 0.599979 0.750000
O O18 0.039544 0.750000 0.721930
O O19 0.065227 0.616838 0.668141
O O20 0.750000 0.051611 0.111824
#
# Coordination Sequence:
#
# PCOD8318382 Si02
#       7
#    16  16  16  16  16  16  16
#     4   8  13  22  38  60  83 104 128 164 213 262
#     4   8  14  26  46  70  90 108 134 170 215 264
#     4   8  15  30  49  66  86 109 136 178 223 256
#     4   8  14  25  41  59  77  99 129 170 222 266
#     4  10  18  27  41  61  88 119 144 170 205 244
#     4  10  20  32  44  59  82 114 152 186 210 241
#     4  10  21  32  42  60  84 115 154 183 206 245
#
# _framework density 16.452279000000001
#
# number of rings (size 3 to 8) (size 9 to 14) (size 15 to 20)
#    0.000    3.143    0.000    3.000    0.000    5.000 
#    0.000    4.286    0.000    0.000    0.000    0.000 
#    0.000    2.571    0.000    8.714    0.000    3.429 
#
# Total GULP energy -1387591.207263 kJ/mol
# GULP energy per Si atom -12389.207208 kJ/mol
# Density = 1.641483 g / cm^3
# Si number density = 16.452279 Si / 1000 Ang^3
#
#
#
# Elastic Constant Matrix: (Units=GPa)
#
#
# Indices 1 2 3 4 5 6 
#
# 1 47.7631 22.3524 29.4266 0.0000 0.0000 0.0000
# 2 22.3524 47.7631 29.4266 0.0000 0.0000 0.0000
# 3 29.4266 29.4266 71.1697 0.0000 0.0000 0.0000
# 4 0.0000 0.0000 0.0000 20.0819 0.0000 0.0000
# 5 0.0000 0.0000 0.0000 0.0000 20.0819 0.0000
# 6 0.0000 0.0000 0.0000 0.0000 0.0000 9.4525
#
#
#
# Elastic Compliance Matrix: (Units=1/GPa)
#
#
# Indices 1 2 3 4 5 6 
#
# 1 0.030598 -0.008755 -0.009031 0.000000 0.000000 0.000000
# 2 -0.008755 0.030598 -0.009031 0.000000 0.000000 0.000000
# 3 -0.009031 -0.009031 0.021519 0.000000 0.000000 0.000000
# 4 0.000000 0.000000 0.000000 0.049796 0.000000 0.000000
# 5 0.000000 0.000000 0.000000 0.000000 0.049796 0.000000
# 6 0.000000 0.000000 0.000000 0.000000 0.000000 0.105793
#
#
# Mechanical properties :
#
#
# Convention : Reuss Voigt Hill
#
# Bulk Modulus (GPa) = 34.38842 36.56747 35.47795
# Shear Modulus (GPa) = 14.22758 15.62260 14.92509
#
# Velocity S-wave (km/s) = 2.94390 3.08485 3.01520
# Velocity P-wave (km/s) = 5.70112 5.91296 5.80800
#
# Compressibility (1/GPa) = 0.02907955
#
# Stress axis : x y z
#
# Youngs Moduli (GPa) = 32.68167 32.68167 46.46980
#
# Poissons Ratio (x) = 0.28614 0.41969
# Poissons Ratio (y) = 0.28614 0.41969
# Poissons Ratio (z) = 0.29516 0.29516
#
# Static dielectric constant tensor:
#      x y z
#    x 2.985690 0.000000 0.000000 
#    y 0.000000 2.985690 0.000000 
#    z 0.000000 0.000000 3.317220 
# 
# 
# High freq. dielectric constant tensor:
#      x y z
#    x 1.599520 0.000000 0.000000 
#    y 0.000000 1.599520 0.000000 
#    z 0.000000 0.000000 1.638560 
# 
# From -- ./inp_files/10663.got.cif
#   From: 2010.03.12/outbox.cif.g09.slc.cpg/sg137_6_cif.got.tgz:10663.got - 2010.04.08 09:34:49.
