data_PCOD8318918
_publ_section_title
;
Structure prediction by ZEFSAII (Michael W. Deem and Ramdas Pophale) SiO2 
 PCOD8318918
Probable space group: P 42/N C M
;
_chemical_formula_sum "Si O2"
_cell_formula_units_Z 128
_cell_length_a 23.938547
_cell_length_b 23.938547
_cell_length_c 12.373682
_cell_angle_alpha 90.000000
_cell_angle_beta 90.000000
_cell_angle_gamma 90.000000
_cell_volume 7090.788367
_symmetry_space_group_name_H-M "P 42/N C M"
_symmetry_group_IT_number 138
_space_group.IT_coordinate_system_code '2'
_symmetry_cell_setting 'tetragonal'
loop_
_space_group_symop_operation_xyz
x,y,z
1/2-y,x,1/2+z
1/2-x,1/2-y,z
y,1/2-x,1/2+z
1/2+x,-y,1/2-z
-x,1/2+y,1/2-z
1/2+y,1/2+x,-z
-y,-x,-z
-x,-y,-z
1/2+y,-x,1/2-z
1/2+x,1/2+y,-z
-y,1/2+x,1/2-z
1/2-x,y,1/2+z
x,1/2-y,1/2+z
1/2-y,1/2-x,z
y,x,z
loop_
_atom_site_type_symbol
_atom_site_label
_atom_site_fract_x
_atom_site_fract_y
_atom_site_fract_z
Si Si1 0.272527 0.838483 0.079808
Si Si2 0.685942 0.598291 0.336065
Si Si3 0.740884 0.429166 0.589632
Si Si4 0.863941 0.954518 0.123444
Si Si5 0.861285 0.320829 0.737599
Si Si6 0.127626 0.578251 0.395016
Si Si7 0.748746 0.839627 0.670066
Si Si8 0.749072 0.947774 0.032331
O O1 0.209972 0.836843 0.129419
O O2 0.311133 0.836253 0.184253
O O3 0.285880 0.785880 0.000000
O O4 0.284778 0.895242 0.012145
O O5 0.633722 0.633722 0.386575
O O6 0.664548 0.561115 0.236600
O O7 0.731488 0.641592 0.290131
O O8 0.718019 0.557952 0.418100
O O9 0.716127 0.408065 0.703315
O O10 0.806391 0.417542 0.585894
O O11 0.725620 0.494713 0.583280
O O12 0.912272 0.912272 0.089407
O O13 0.889888 0.015771 0.138230
O O14 0.816782 0.953007 0.028449
O O15 0.889607 0.378602 0.699298
O O16 0.092878 0.592878 0.500000
O O17 0.696823 0.803178 0.619819
O O18 0.803486 0.803486 0.682072
O O19 0.766006 0.892446 0.598591
#
# Coordination Sequence:
#
# PCOD8318918 Si02
#       8
#    16  16  16  16  16  16  16  16
#     4  10  22  37  52  78 108 141 178 213 269 333
#     4   9  18  33  55  81 108 144 180 215 268 326
#     4  10  22  37  52  81 109 142 182 223 270 329
#     4   9  21  39  56  79 109 144 187 227 266 316
#     4  11  21  38  56  76 112 142 174 220 277 323
#     4  11  21  37  58  81 105 142 183 225 271 324
#     4   9  18  32  50  80 118 145 174 217 269 332
#     4  10  19  32  57  80 109 141 182 224 268 320
#
# _framework density 18.051590000000001
#
# number of rings (size 3 to 8) (size 9 to 14) (size 15 to 20)
#    0.000    2.125    2.500    1.500    1.750    2.500 
#    2.250    1.250    0.000    1.500    0.000    1.750 
#    0.000    0.000    0.000    0.000    0.000    0.000 
#
# Total GULP energy -1586449.464759 kJ/mol
# GULP energy per Si atom -12394.136443 kJ/mol
# Density = 1.801050 g / cm^3
# Si number density = 18.051590 Si / 1000 Ang^3
#
#
#
# Elastic Constant Matrix: (Units=GPa)
#
#
# Indices 1 2 3 4 5 6 
#
# 1 111.9345 46.8605 40.4477 0.0000 0.0000 0.0000
# 2 46.8605 111.9345 40.4477 0.0000 0.0000 0.0000
# 3 40.4477 40.4477 77.8711 0.0000 0.0000 0.0000
# 4 0.0000 0.0000 0.0000 22.3020 0.0000 0.0000
# 5 0.0000 0.0000 0.0000 0.0000 22.3020 0.0000
# 6 0.0000 0.0000 0.0000 0.0000 0.0000 19.4121
#
#
#
# Elastic Compliance Matrix: (Units=1/GPa)
#
#
# Indices 1 2 3 4 5 6 
#
# 1 0.011965 -0.003402 -0.004448 0.000000 0.000000 0.000000
# 2 -0.003402 0.011965 -0.004448 0.000000 0.000000 0.000000
# 3 -0.004448 -0.004448 0.017462 0.000000 0.000000 0.000000
# 4 0.000000 0.000000 0.000000 0.044839 0.000000 0.000000
# 5 0.000000 0.000000 0.000000 0.000000 0.044839 0.000000
# 6 0.000000 0.000000 0.000000 0.000000 0.000000 0.051514
#
#
# Mechanical properties :
#
#
# Convention : Reuss Voigt Hill
#
# Bulk Modulus (GPa) = 59.53337 61.91687 60.72512
# Shear Modulus (GPa) = 23.49842 24.40215 23.95028
#
# Velocity S-wave (km/s) = 3.61187 3.68067 3.64644
# Velocity P-wave (km/s) = 7.10249 7.24138 7.17227
#
# Compressibility (1/GPa) = 0.01679730
#
# Stress axis : x y z
#
# Youngs Moduli (GPa) = 83.57539 83.57539 57.26573
#
# Poissons Ratio (x) = 0.28431 0.25472
# Poissons Ratio (y) = 0.28431 0.25472
# Poissons Ratio (z) = 0.37174 0.37174
#
# Static dielectric constant tensor:
#      x y z
#    x 3.396220 0.000000 0.000000 
#    y 0.000000 3.396220 0.000000 
#    z 0.000000 0.000000 3.281760 
# 
# 
# High freq. dielectric constant tensor:
#      x y z
#    x 1.694540 0.000000 0.000000 
#    y 0.000000 1.694540 0.000000 
#    z 0.000000 0.000000 1.687840 
# 
# From -- ./inp_files/3332.got.cif
#   From: 2010.03.12/outbox.cif.g09.slc.cpg/sg138_2_cif.got.tgz:3332.got - 2010.04.08 09:41:05.
