data_PCOD8318415
_publ_section_title
;
Structure prediction by ZEFSAII (Michael W. Deem and Ramdas Pophale) SiO2 
 PCOD8318415
Probable space group: P 42/N M C
;
_chemical_formula_sum "Si O2"
_cell_formula_units_Z 104
_cell_length_a 27.175022
_cell_length_b 27.175022
_cell_length_c 9.916727
_cell_angle_alpha 90.000000
_cell_angle_beta 90.000000
_cell_angle_gamma 90.000000
_cell_volume 7323.322610
_symmetry_space_group_name_H-M "P 42/N M C"
_symmetry_group_IT_number 137
_space_group.IT_coordinate_system_code '2'
_symmetry_cell_setting 'tetragonal'
loop_
_space_group_symop_operation_xyz
x,y,z
1/2-y,x,1/2+z
1/2-x,1/2-y,z
y,1/2-x,1/2+z
1/2+x,-y,-z
-x,1/2+y,-z
1/2+y,1/2+x,1/2-z
-y,-x,1/2-z
-x,-y,-z
1/2+y,-x,1/2-z
1/2+x,1/2+y,-z
-y,1/2+x,1/2-z
1/2-x,y,z
x,1/2-y,z
1/2-y,1/2-x,1/2+z
y,x,1/2+z
loop_
_atom_site_type_symbol
_atom_site_label
_atom_site_fract_x
_atom_site_fract_y
_atom_site_fract_z
Si Si1 0.444629 0.851418 0.462342
Si Si2 0.072397 0.492746 0.415749
Si Si3 0.195989 0.695989 0.750000
Si Si4 0.587643 0.304149 0.287600
Si Si5 0.113734 0.806894 0.224544
Si Si6 0.359849 0.572717 0.517952
Si Si7 0.929716 0.984785 0.888023
O O1 0.446874 0.812028 0.582751
O O2 0.428602 0.826120 0.323880
O O3 0.406269 0.892164 0.509718
O O4 0.497736 0.876532 0.442740
O O5 0.122584 0.518809 0.467313
O O6 0.077870 0.468601 0.267515
O O7 0.060437 0.449700 0.523028
O O8 0.029520 0.532588 0.403222
O O9 0.194180 0.750000 0.827075
O O10 0.192545 0.645687 0.838067
O O11 0.576896 0.250000 0.230653
O O12 0.572474 0.342493 0.172309
O O13 0.164513 0.835488 0.250000
O O14 0.124854 0.750000 0.247779
O O15 0.093367 0.815771 0.074316
#
# Coordination Sequence:
#
# PCOD8318415 Si02
#       7
#    16  16   8  16  16  16  16
#     4  10  18  31  44  59  80 103 128 166 216 261
#     4   9  17  28  43  63  82 100 122 151 198 260
#     4   9  18  32  44  56  76  98 134 188 232 264
#     4  11  20  30  43  61  76 102 141 173 213 256
#     4  10  20  33  45  56  77 108 141 180 226 267
#     4  10  18  31  44  59  80 103 128 166 216 261
#     4   9  17  28  43  63  82 100 122 151 198 260
#
# _framework density 14.201204000000001
#
# number of rings (size 3 to 8) (size 9 to 14) (size 15 to 20)
#    0.000    2.231    3.077    0.923    2.154    0.154 
#    0.000    0.000    0.000    0.000    0.000    0.000 
#    0.000    0.000    0.000    0.000    0.000    0.000 
#
# Total GULP energy -1288493.400342 kJ/mol
# GULP energy per Si atom -12389.359619 kJ/mol
# Density = 1.416888 g / cm^3
# Si number density = 14.201204 Si / 1000 Ang^3
#
#
#
# Elastic Constant Matrix: (Units=GPa)
#
#
# Indices 1 2 3 4 5 6 
#
# 1 46.7413 39.3395 21.5658 0.0000 0.0000 0.0000
# 2 39.3395 46.7409 21.5649 0.0000 0.0000 0.0000
# 3 21.5658 21.5649 69.7860 0.0000 0.0000 0.0000
# 4 0.0000 0.0000 0.0000 12.2729 0.0000 0.0000
# 5 0.0000 0.0000 0.0000 0.0000 12.2735 0.0000
# 6 0.0000 0.0000 0.0000 0.0000 0.0000 13.2520
#
#
#
# Elastic Compliance Matrix: (Units=1/GPa)
#
#
# Indices 1 2 3 4 5 6 
#
# 1 0.074426 -0.060680 -0.004248 0.000000 0.000000 0.000000
# 2 -0.060680 0.074425 -0.004247 0.000000 0.000000 0.000000
# 3 -0.004248 -0.004247 0.016955 0.000000 0.000000 0.000000
# 4 0.000000 0.000000 0.000000 0.081481 0.000000 0.000000
# 5 0.000000 0.000000 0.000000 0.000000 0.081477 0.000000
# 6 0.000000 0.000000 0.000000 0.000000 0.000000 0.075460
#
#
# Mechanical properties :
#
#
# Convention : Reuss Voigt Hill
#
# Bulk Modulus (GPa) = 36.42333 36.46762 36.44547
# Shear Modulus (GPa) = 9.06248 12.94620 11.00434
#
# Velocity S-wave (km/s) = 2.52890 3.02259 2.78670
# Velocity P-wave (km/s) = 5.85071 6.15763 6.00613
#
# Compressibility (1/GPa) = 0.02745493
#
# Stress axis : x y z
#
# Youngs Moduli (GPa) = 13.43622 13.43629 58.98067
#
# Poissons Ratio (x) = 0.81532 0.25058
# Poissons Ratio (y) = 0.81531 0.25047
# Poissons Ratio (z) = 0.05708 0.05706
#
# Static dielectric constant tensor:
#      x y z
#    x 2.691610 0.000000 0.000000 
#    y 0.000000 2.691600 0.000000 
#    z 0.000000 0.000000 2.949090 
# 
# 
# High freq. dielectric constant tensor:
#      x y z
#    x 1.505440 0.000000 0.000000 
#    y 0.000000 1.505440 0.000000 
#    z 0.000000 0.000000 1.551220 
# 
# From -- ./inp_files/2318.got.cif
#   From: 2010.03.12/outbox.cif.g09.slc.cpg/sg137_2_cif.got.tgz:2318.got - 2010.04.08 09:34:49.
