data_PCOD8318383
_publ_section_title
;
Structure prediction by ZEFSAII (Michael W. Deem and Ramdas Pophale) SiO2 
 PCOD8318383
Probable space group: P 42/N M C
;
_chemical_formula_sum "Si O2"
_cell_formula_units_Z 96
_cell_length_a 13.837744
_cell_length_b 13.837744
_cell_length_c 31.822606
_cell_angle_alpha 90.000000
_cell_angle_beta 90.000000
_cell_angle_gamma 90.000000
_cell_volume 6093.493125
_symmetry_space_group_name_H-M "P 42/N M C"
_symmetry_group_IT_number 137
_space_group.IT_coordinate_system_code '2'
_symmetry_cell_setting 'tetragonal'
loop_
_space_group_symop_operation_xyz
x,y,z
1/2-y,x,1/2+z
1/2-x,1/2-y,z
y,1/2-x,1/2+z
1/2+x,-y,-z
-x,1/2+y,-z
1/2+y,1/2+x,1/2-z
-y,-x,1/2-z
-x,-y,-z
1/2+y,-x,1/2-z
1/2+x,1/2+y,-z
-y,1/2+x,1/2-z
1/2-x,y,z
x,1/2-y,z
1/2-y,1/2-x,1/2+z
y,x,1/2+z
loop_
_atom_site_type_symbol
_atom_site_label
_atom_site_fract_x
_atom_site_fract_y
_atom_site_fract_z
Si Si1 0.864317 0.644666 0.830561
Si Si2 0.026121 0.634925 0.039831
Si Si3 0.364051 0.356526 0.076779
Si Si4 0.857750 0.136953 0.877066
Si Si5 0.454776 0.636435 0.290495
Si Si6 0.979329 0.635739 0.502102
O O1 0.750000 0.653096 0.832442
O O2 0.908586 0.750000 0.819245
O O3 0.899653 0.609667 0.876896
O O4 0.893796 0.567138 0.795401
O O5 0.017400 0.750000 0.032505
O O6 0.070476 0.610108 0.085349
O O7 0.920694 0.582481 0.037809
O O8 0.096280 0.589205 0.003403
O O9 0.250000 0.349788 0.075454
O O10 0.407093 0.250000 0.067029
O O11 0.398178 0.430764 0.041679
O O12 0.750000 0.092545 0.886251
O O13 0.847715 0.250000 0.872651
O O14 0.898492 0.098550 0.832781
O O15 0.417470 0.582531 0.250000
O O16 0.439178 0.750000 0.283873
O O17 0.977432 0.750000 0.511715
#
# Coordination Sequence:
#
# PCOD8318383 Si02
#       6
#    16  16  16  16  16  16
#     4   8  14  24  38  57  81 108 135 164 203 249
#     4  10  20  31  44  64  89 119 154 186 220 266
#     4   8  13  23  41  63  84 106 134 170 212 253
#     4   9  17  29  44  62  87 117 144 172 211 260
#     4  10  18  27  42  64  88 111 137 172 212 257
#     4  10  19  30  45  65  89 117 151 190 225 257
#
# _framework density 15.754511000000001
#
# number of rings (size 3 to 8) (size 9 to 14) (size 15 to 20)
#    0.000    2.833    0.000    3.500    0.000    5.500 
#    0.000    0.000    0.000    1.000    0.000    2.333 
#    0.000    0.333    0.000    0.000    0.000    0.000 
#
# Total GULP energy -1189375.635394 kJ/mol
# GULP energy per Si atom -12389.329535 kJ/mol
# Density = 1.571865 g / cm^3
# Si number density = 15.754511 Si / 1000 Ang^3
#
#
#
# Elastic Constant Matrix: (Units=GPa)
#
#
# Indices 1 2 3 4 5 6 
#
# 1 65.7280 31.2482 46.5041 0.0000 0.0000 0.0000
# 2 31.2482 65.7286 46.5043 0.0000 0.0000 0.0000
# 3 46.5041 46.5043 90.9799 0.0000 0.0000 0.0000
# 4 0.0000 0.0000 0.0000 22.7982 0.0000 0.0000
# 5 0.0000 0.0000 0.0000 0.0000 22.7980 0.0000
# 6 0.0000 0.0000 0.0000 0.0000 0.0000 14.8995
#
#
#
# Elastic Compliance Matrix: (Units=1/GPa)
#
#
# Indices 1 2 3 4 5 6 
#
# 1 0.024615 -0.004387 -0.010340 0.000000 0.000000 0.000000
# 2 -0.004387 0.024615 -0.010340 0.000000 0.000000 0.000000
# 3 -0.010340 -0.010340 0.021562 0.000000 0.000000 0.000000
# 4 0.000000 0.000000 0.000000 0.043863 0.000000 0.000000
# 5 0.000000 0.000000 0.000000 0.000000 0.043863 0.000000
# 6 0.000000 0.000000 0.000000 0.000000 0.000000 0.067116
#
#
# Mechanical properties :
#
#
# Convention : Reuss Voigt Hill
#
# Bulk Modulus (GPa) = 48.40349 52.32774 50.36561
# Shear Modulus (GPa) = 17.68944 18.64447 18.16695
#
# Velocity S-wave (km/s) = 3.35448 3.44384 3.39946
# Velocity P-wave (km/s) = 6.76710 7.00714 6.88817
#
# Compressibility (1/GPa) = 0.02065967
#
# Stress axis : x y z
#
# Youngs Moduli (GPa) = 40.62487 40.62532 46.37857
#
# Poissons Ratio (x) = 0.17822 0.47954
# Poissons Ratio (y) = 0.17822 0.47954
# Poissons Ratio (z) = 0.42005 0.42005
#
# Static dielectric constant tensor:
#      x y z
#    x 3.122480 0.000000 0.000000 
#    y 0.000000 3.122470 0.000000 
#    z 0.000000 0.000000 2.970030 
# 
# 
# High freq. dielectric constant tensor:
#      x y z
#    x 1.591300 0.000000 0.000000 
#    y 0.000000 1.591300 0.000000 
#    z 0.000000 0.000000 1.585720 
# 
# From -- ./inp_files/10614.got.cif
#   From: 2010.03.12/outbox.cif.g09.slc.cpg/sg137_6_cif.got.tgz:10614.got - 2010.04.08 09:34:49.
