data_PCOD8318371
_publ_section_title
;
Structure prediction by ZEFSAII (Michael W. Deem and Ramdas Pophale) SiO2 
 PCOD8318371
Probable space group: P 42/N M C
;
_chemical_formula_sum "Si O2"
_cell_formula_units_Z 96
_cell_length_a 22.805191
_cell_length_b 22.805191
_cell_length_c 11.605708
_cell_angle_alpha 90.000000
_cell_angle_beta 90.000000
_cell_angle_gamma 90.000000
_cell_volume 6035.858742
_symmetry_space_group_name_H-M "P 42/N M C"
_symmetry_group_IT_number 137
_space_group.IT_coordinate_system_code '2'
_symmetry_cell_setting 'tetragonal'
loop_
_space_group_symop_operation_xyz
x,y,z
1/2-y,x,1/2+z
1/2-x,1/2-y,z
y,1/2-x,1/2+z
1/2+x,-y,-z
-x,1/2+y,-z
1/2+y,1/2+x,1/2-z
-y,-x,1/2-z
-x,-y,-z
1/2+y,-x,1/2-z
1/2+x,1/2+y,-z
-y,1/2+x,1/2-z
1/2-x,y,z
x,1/2-y,z
1/2-y,1/2-x,1/2+z
y,x,1/2+z
loop_
_atom_site_type_symbol
_atom_site_label
_atom_site_fract_x
_atom_site_fract_y
_atom_site_fract_z
Si Si1 0.816345 0.543448 0.359567
Si Si2 0.116179 0.968410 0.796944
Si Si3 0.361901 0.993367 0.405688
Si Si4 0.462131 0.904492 0.444303
Si Si5 0.405802 0.816145 0.266453
Si Si6 0.566883 0.580919 0.284725
O O1 0.750000 0.567841 0.348574
O O2 0.824843 0.488170 0.271468
O O3 0.827619 0.521988 0.489068
O O4 0.865028 0.593386 0.325218
O O5 0.094635 0.905366 0.750000
O O6 0.065185 0.016167 0.770937
O O7 0.126954 0.965691 0.932771
O O8 0.422899 0.963536 0.447068
O O9 0.320526 0.943234 0.351250
O O10 0.373222 0.044212 0.310604
O O11 0.435627 0.856931 0.359994
O O12 0.526862 0.920222 0.399042
O O13 0.339446 0.839446 0.250000
O O14 0.403074 0.750000 0.310638
#
# Coordination Sequence:
#
# PCOD8318371 Si02
#       6
#    16  16  16  16  16  16
#     4  10  21  30  43  68 104 133 153 187 234 299
#     4  10  18  27  44  67  96 130 156 183 231 288
#     4  10  17  30  49  70  97 123 159 197 248 290
#     4  10  17  30  47  73  95 123 161 199 243 292
#     4   9  19  31  47  67  93 127 163 205 240 278
#     4   9  19  27  48  70  98 123 156 193 241 291
#
# _framework density 15.904946000000001
#
# number of rings (size 3 to 8) (size 9 to 14) (size 15 to 20)
#    1.000    1.333    1.667    4.000    0.000    2.833 
#    0.000    0.000    0.000    0.000    0.000    0.000 
#    0.000   23.667    0.000    0.000    0.000    0.000 
#
# Total GULP energy -1189340.177029 kJ/mol
# GULP energy per Si atom -12388.960177 kJ/mol
# Density = 1.586875 g / cm^3
# Si number density = 15.904946 Si / 1000 Ang^3
#
#
#
# Elastic Constant Matrix: (Units=GPa)
#
#
# Indices 1 2 3 4 5 6 
#
# 1 74.6278 20.0598 10.5739 0.0000 0.0000 0.0000
# 2 20.0598 74.6276 10.5736 0.0000 0.0000 0.0000
# 3 10.5739 10.5736 90.3721 0.0000 0.0000 0.0000
# 4 0.0000 0.0000 0.0000 10.1797 0.0000 0.0000
# 5 0.0000 0.0000 0.0000 0.0000 10.1795 0.0000
# 6 0.0000 0.0000 0.0000 0.0000 0.0000 9.4693
#
#
#
# Elastic Compliance Matrix: (Units=1/GPa)
#
#
# Indices 1 2 3 4 5 6 
#
# 1 0.014585 -0.003741 -0.001269 0.000000 0.000000 0.000000
# 2 -0.003741 0.014585 -0.001269 0.000000 0.000000 0.000000
# 3 -0.001269 -0.001269 0.011362 0.000000 0.000000 0.000000
# 4 0.000000 0.000000 0.000000 0.098235 0.000000 0.000000
# 5 0.000000 0.000000 0.000000 0.000000 0.098237 0.000000
# 6 0.000000 0.000000 0.000000 0.000000 0.000000 0.105605
#
#
# Mechanical properties :
#
#
# Convention : Reuss Voigt Hill
#
# Bulk Modulus (GPa) = 35.74512 35.78245 35.76379
# Shear Modulus (GPa) = 13.71778 19.19370 16.45574
#
# Velocity S-wave (km/s) = 2.94000 3.47764 3.22006
# Velocity P-wave (km/s) = 5.83505 6.21867 6.02991
#
# Compressibility (1/GPa) = 0.02797585
#
# Stress axis : x y z
#
# Youngs Moduli (GPa) = 68.56309 68.56295 88.01052
#
# Poissons Ratio (x) = 0.25647 0.11167
# Poissons Ratio (y) = 0.25647 0.11167
# Poissons Ratio (z) = 0.08700 0.08699
#
# Static dielectric constant tensor:
#      x y z
#    x 2.796380 0.000000 0.000000 
#    y 0.000000 2.796370 0.000000 
#    z 0.000000 0.000000 3.102040 
# 
# 
# High freq. dielectric constant tensor:
#      x y z
#    x 1.578450 0.000000 0.000000 
#    y 0.000000 1.578450 0.000000 
#    z 0.000000 0.000000 1.625660 
# 
# From -- ./inp_files/3862.got.cif
#   From: 2010.03.12/outbox.cif.g09.slc.cpg/sg137_2_cif.got.tgz:3862.got - 2010.04.08 09:34:49.
