data_PCOD8318684
_publ_section_title
;
Structure prediction by ZEFSAII (Michael W. Deem and Ramdas Pophale) SiO2 
 PCOD8318684
Probable space group: P 42/N M C
;
_chemical_formula_sum "Si O2"
_cell_formula_units_Z 64
_cell_length_a 13.435982
_cell_length_b 13.435982
_cell_length_c 19.740402
_cell_angle_alpha 90.000000
_cell_angle_beta 90.000000
_cell_angle_gamma 90.000000
_cell_volume 3563.648158
_symmetry_space_group_name_H-M "P 42/N M C"
_symmetry_group_IT_number 137
_space_group.IT_coordinate_system_code '2'
_symmetry_cell_setting 'tetragonal'
loop_
_space_group_symop_operation_xyz
x,y,z
1/2-y,x,1/2+z
1/2-x,1/2-y,z
y,1/2-x,1/2+z
1/2+x,-y,-z
-x,1/2+y,-z
1/2+y,1/2+x,1/2-z
-y,-x,1/2-z
-x,-y,-z
1/2+y,-x,1/2-z
1/2+x,1/2+y,-z
-y,1/2+x,1/2-z
1/2-x,y,z
x,1/2-y,z
1/2-y,1/2-x,1/2+z
y,x,1/2+z
loop_
_atom_site_type_symbol
_atom_site_label
_atom_site_fract_x
_atom_site_fract_y
_atom_site_fract_z
Si Si1 0.750000 0.365421 0.382993
Si Si2 0.750000 0.634639 0.354623
Si Si3 0.422873 0.498397 0.438990
Si Si4 0.919685 0.013172 0.322672
Si Si5 0.133566 0.750000 0.034332
Si Si6 0.864029 0.750000 0.014901
O O1 0.750000 0.250000 0.391956
O O2 0.650388 0.395455 0.344019
O O3 0.750000 0.412435 0.458228
O O4 0.750000 0.750000 0.335110
O O5 0.649429 0.585867 0.323884
O O6 0.750000 0.615261 0.434742
O O7 0.500000 0.500000 0.500000
O O8 0.484501 0.493172 0.370263
O O9 0.352642 0.595805 0.432368
O O10 0.349343 0.405702 0.449973
O O11 0.965545 0.034456 0.250000
O O12 0.250000 0.750000 0.039159
O O13 0.750000 0.750000 0.032127
#
# Coordination Sequence:
#
# PCOD8318684 Si02
#       6
#     8   8  16  16   8   8
#     4  10  21  35  58  93 119 144 183 228 295 364
#     4  10  21  41  62  85 113 152 199 238 288 357
#     4  11  19  38  59  83 118 148 194 245 280 346
#     4  11  23  38  57  85 119 160 189 229 298 347
#     4  10  21  37  62  89 111 144 193 248 292 329
#     4  10  21  37  62  89 115 148 195 248 299 336
#
# _framework density 17.959123999999999
#
# number of rings (size 3 to 8) (size 9 to 14) (size 15 to 20)
#    0.000    1.500    5.000    1.500    3.500    3.000 
#    4.500    0.000    0.000    0.000    0.000    0.000 
#    0.000    0.000    0.000    0.000    0.000    0.000 
#
# Total GULP energy -793373.868692 kJ/mol
# GULP energy per Si atom -12396.466698 kJ/mol
# Density = 1.791825 g / cm^3
# Si number density = 17.959124 Si / 1000 Ang^3
#
#
#
# Elastic Constant Matrix: (Units=GPa)
#
#
# Indices 1 2 3 4 5 6 
#
# 1 147.9061 65.6854 60.7259 0.0000 0.0000 0.0000
# 2 65.6854 147.9058 60.7259 0.0000 0.0000 0.0000
# 3 60.7259 60.7259 136.4924 0.0000 0.0000 0.0000
# 4 0.0000 0.0000 0.0000 23.9143 0.0000 0.0000
# 5 0.0000 0.0000 0.0000 0.0000 23.9139 0.0000
# 6 0.0000 0.0000 0.0000 0.0000 0.0000 12.2021
#
#
#
# Elastic Compliance Matrix: (Units=1/GPa)
#
#
# Indices 1 2 3 4 5 6 
#
# 1 0.009215 -0.002948 -0.002788 0.000000 0.000000 0.000000
# 2 -0.002948 0.009215 -0.002788 0.000000 0.000000 0.000000
# 3 -0.002788 -0.002788 0.009808 0.000000 0.000000 0.000000
# 4 0.000000 0.000000 0.000000 0.041816 0.000000 0.000000
# 5 0.000000 0.000000 0.000000 0.000000 0.041817 0.000000
# 6 0.000000 0.000000 0.000000 0.000000 0.000000 0.081953
#
#
# Mechanical properties :
#
#
# Convention : Reuss Voigt Hill
#
# Bulk Modulus (GPa) = 89.37538 89.61986 89.49762
# Shear Modulus (GPa) = 23.29900 28.35052 25.82476
#
# Velocity S-wave (km/s) = 3.60576 3.97749 3.79618
# Velocity P-wave (km/s) = 8.19813 8.43234 8.31606
#
# Compressibility (1/GPa) = 0.01118876
#
# Stress axis : x y z
#
# Youngs Moduli (GPa) = 108.52031 108.51995 101.96255
#
# Poissons Ratio (x) = 0.31987 0.28431
# Poissons Ratio (y) = 0.31987 0.28431
# Poissons Ratio (z) = 0.30259 0.30259
#
# Static dielectric constant tensor:
#      x y z
#    x 3.396740 0.000000 0.000000 
#    y 0.000000 3.396740 0.000000 
#    z 0.000000 0.000000 3.213580 
# 
# 
# High freq. dielectric constant tensor:
#      x y z
#    x 1.706470 0.000000 0.000000 
#    y 0.000000 1.706470 0.000000 
#    z 0.000000 0.000000 1.677300 
# 
# From -- ./inp_files/6158.got.cif
#   From: 2010.03.12/outbox.cif.g09.slc.cpg/sg137_4_cif.got.tgz:6158.got - 2010.04.08 09:34:49.
