data_PCOD8318560
_publ_section_title
;
Structure prediction by ZEFSAII (Michael W. Deem and Ramdas Pophale) SiO2 
 PCOD8318560
Probable space group: P 42/N M C
;
_chemical_formula_sum "Si O2"
_cell_formula_units_Z 112
_cell_length_a 23.775036
_cell_length_b 23.775036
_cell_length_c 12.324079
_cell_angle_alpha 90.000000
_cell_angle_beta 90.000000
_cell_angle_gamma 90.000000
_cell_volume 6966.214454
_symmetry_space_group_name_H-M "P 42/N M C"
_symmetry_group_IT_number 137
_space_group.IT_coordinate_system_code '2'
_symmetry_cell_setting 'tetragonal'
loop_
_space_group_symop_operation_xyz
x,y,z
1/2-y,x,1/2+z
1/2-x,1/2-y,z
y,1/2-x,1/2+z
1/2+x,-y,-z
-x,1/2+y,-z
1/2+y,1/2+x,1/2-z
-y,-x,1/2-z
-x,-y,-z
1/2+y,-x,1/2-z
1/2+x,1/2+y,-z
-y,1/2+x,1/2-z
1/2-x,y,z
x,1/2-y,z
1/2-y,1/2-x,1/2+z
y,x,1/2+z
loop_
_atom_site_type_symbol
_atom_site_label
_atom_site_fract_x
_atom_site_fract_y
_atom_site_fract_z
Si Si1 0.091410 0.636834 0.016878
Si Si2 0.687689 0.400150 0.296651
Si Si3 0.813826 0.990034 0.158487
Si Si4 0.041647 0.518903 0.590909
Si Si5 0.971270 0.378906 0.774963
Si Si6 0.684980 0.445975 0.936591
Si Si7 0.949549 0.575897 0.725437
O O1 0.096765 0.686153 0.928289
O O2 0.055921 0.588821 0.961640
O O3 0.058469 0.655383 0.126578
O O4 0.153202 0.613191 0.045818
O O5 0.644279 0.355722 0.250000
O O6 0.750000 0.380637 0.262571
O O7 0.674817 0.460466 0.244728
O O8 0.750000 0.966733 0.169972
O O9 0.858650 0.940224 0.189136
O O10 0.824158 0.011671 0.036476
O O11 0.068226 0.462787 0.646369
O O12 0.000000 0.500000 0.500000
O O13 0.008206 0.558958 0.671433
O O14 0.935873 0.435873 0.750000
O O15 0.975695 0.338504 0.671565
O O16 0.034904 0.397807 0.807650
O O17 0.750000 0.430839 0.921371
#
# Coordination Sequence:
#
# PCOD8318560 Si02
#       7
#    16  16  16  16  16  16  16
#     4  11  19  32  47  69  92 124 159 200 240 299
#     4  11  21  34  49  67  89 121 165 212 255 289
#     4  10  20  32  48  68  96 133 162 187 240 296
#     4  11  17  26  42  69  99 120 152 189 234 287
#     4  10  20  30  46  73  96 123 164 194 236 292
#     4  10  20  33  48  64  94 129 159 195 235 292
#     4  11  18  27  45  70  99 125 149 196 232 283
#
# _framework density 16.077598999999999
#
# number of rings (size 3 to 8) (size 9 to 14) (size 15 to 20)
#    0.000    1.429    7.143    0.857    0.000    0.714 
#    0.000    0.000    0.000    0.000    0.000    0.000 
#    0.000    0.571    0.000    3.143    0.000    0.000 
#
# Total GULP energy -1388141.165553 kJ/mol
# GULP energy per Si atom -12394.117550 kJ/mol
# Density = 1.604101 g / cm^3
# Si number density = 16.077599 Si / 1000 Ang^3
#
#
#
# Elastic Constant Matrix: (Units=GPa)
#
#
# Indices 1 2 3 4 5 6 
#
# 1 62.7467 21.7810 28.2406 0.0000 0.0000 0.0000
# 2 21.7810 62.7467 28.2408 0.0000 0.0000 0.0000
# 3 28.2406 28.2408 100.7164 0.0000 0.0000 0.0000
# 4 0.0000 0.0000 0.0000 20.3837 0.0000 0.0000
# 5 0.0000 0.0000 0.0000 0.0000 20.3838 0.0000
# 6 0.0000 0.0000 0.0000 0.0000 0.0000 14.2884
#
#
#
# Elastic Compliance Matrix: (Units=1/GPa)
#
#
# Indices 1 2 3 4 5 6 
#
# 1 0.019484 -0.004926 -0.004082 0.000000 0.000000 0.000000
# 2 -0.004926 0.019484 -0.004082 0.000000 0.000000 0.000000
# 3 -0.004082 -0.004082 0.012218 0.000000 0.000000 0.000000
# 4 0.000000 0.000000 0.000000 0.049059 0.000000 0.000000
# 5 0.000000 0.000000 0.000000 0.000000 0.049058 0.000000
# 6 0.000000 0.000000 0.000000 0.000000 0.000000 0.069987
#
#
# Mechanical properties :
#
#
# Convention : Reuss Voigt Hill
#
# Bulk Modulus (GPa) = 39.99042 42.52607 41.25824
# Shear Modulus (GPa) = 19.70000 20.87435 20.28718
#
# Velocity S-wave (km/s) = 3.50424 3.60717 3.55608
# Velocity P-wave (km/s) = 6.42653 6.62245 6.52522
#
# Compressibility (1/GPa) = 0.02500599
#
# Stress axis : x y z
#
# Youngs Moduli (GPa) = 51.32327 51.32315 81.84597
#
# Poissons Ratio (x) = 0.25283 0.33410
# Poissons Ratio (y) = 0.25283 0.33410
# Poissons Ratio (z) = 0.20950 0.20951
#
# Static dielectric constant tensor:
#      x y z
#    x 3.031130 0.000000 0.000000 
#    y 0.000000 3.031100 0.000000 
#    z 0.000000 0.000000 5.038430 
# 
# 
# High freq. dielectric constant tensor:
#      x y z
#    x 1.583270 0.000000 0.000000 
#    y 0.000000 1.583270 0.000000 
#    z 0.000000 0.000000 1.640740 
# 
# From -- ./inp_files/3966.got.cif
#   From: 2010.03.12/outbox.cif.g09.slc.cpg/sg137_2_cif.got.tgz:3966.got - 2010.04.08 09:34:49.
