data_PCOD8318446
_publ_section_title
;
Structure prediction by ZEFSAII (Michael W. Deem and Ramdas Pophale) SiO2 
 PCOD8318446
Probable space group: P 42/N M C
;
_chemical_formula_sum "Si O2"
_cell_formula_units_Z 88
_cell_length_a 18.338139
_cell_length_b 18.338139
_cell_length_c 14.675861
_cell_angle_alpha 90.000000
_cell_angle_beta 90.000000
_cell_angle_gamma 90.000000
_cell_volume 4935.306287
_symmetry_space_group_name_H-M "P 42/N M C"
_symmetry_group_IT_number 137
_space_group.IT_coordinate_system_code '2'
_symmetry_cell_setting 'tetragonal'
loop_
_space_group_symop_operation_xyz
x,y,z
1/2-y,x,1/2+z
1/2-x,1/2-y,z
y,1/2-x,1/2+z
1/2+x,-y,-z
-x,1/2+y,-z
1/2+y,1/2+x,1/2-z
-y,-x,1/2-z
-x,-y,-z
1/2+y,-x,1/2-z
1/2+x,1/2+y,-z
-y,1/2+x,1/2-z
1/2-x,y,z
x,1/2-y,z
1/2-y,1/2-x,1/2+z
y,x,1/2+z
loop_
_atom_site_type_symbol
_atom_site_label
_atom_site_fract_x
_atom_site_fract_y
_atom_site_fract_z
Si Si1 0.619859 0.332497 0.655589
Si Si2 0.949401 0.750000 0.049060
Si Si3 0.896524 0.987628 0.272876
Si Si4 0.891535 0.250000 0.955799
Si Si5 0.913885 0.932847 0.591397
Si Si6 0.499475 0.580005 0.416665
Si Si7 0.978778 0.250000 0.130434
O O1 0.624002 0.375999 0.750000
O O2 0.629512 0.250000 0.684643
O O3 0.678219 0.349600 0.576621
O O4 0.538796 0.346510 0.617513
O O5 0.913808 0.672532 0.079261
O O6 0.029837 0.750000 0.093615
O O7 0.952346 0.750000 0.938696
O O8 0.940264 0.059737 0.250000
O O9 0.818346 0.016295 0.303093
O O10 0.894000 0.934948 0.185580
O O11 0.933662 0.943916 0.354496
O O12 0.904955 0.250000 0.066701
O O13 0.966211 0.899471 0.513843
O O14 0.933630 0.019485 0.585444
#
# Coordination Sequence:
#
# PCOD8318446 Si02
#       7
#    16   8  16   8  16  16   8
#     4  12  23  35  52  83 126 159 193 237 300 362
#     4  10  18  35  62  84 109 152 187 237 306 375
#     4  10  21  35  60  87 117 147 197 262 291 348
#     4  10  21  34  56  77 115 169 192 226 289 372
#     4  10  19  34  60  84 113 142 195 247 304 343
#     4  10  19  35  53  86 111 146 192 249 287 343
#     4  10  20  39  60  83 112 160 205 239 307 358
#
# _framework density 17.830705999999999
#
# number of rings (size 3 to 8) (size 9 to 14) (size 15 to 20)
#    0.545    1.091    4.545    1.909    5.091    0.000 
#    1.636    0.000    2.000    0.545    0.000    2.545 
#    0.000    0.000    0.000    0.000    0.000    0.000 
#
# Total GULP energy -1090378.151181 kJ/mol
# GULP energy per Si atom -12390.660809 kJ/mol
# Density = 1.779012 g / cm^3
# Si number density = 17.830706 Si / 1000 Ang^3
#
#
#
# Elastic Constant Matrix: (Units=GPa)
#
#
# Indices 1 2 3 4 5 6 
#
# 1 74.4144 17.9747 23.3915 0.0000 0.0000 0.0000
# 2 17.9747 74.4115 23.3895 0.0000 0.0000 0.0000
# 3 23.3915 23.3895 86.9013 0.0000 0.0000 0.0000
# 4 0.0000 0.0000 0.0000 25.2107 0.0000 0.0000
# 5 0.0000 0.0000 0.0000 0.0000 25.2111 0.0000
# 6 0.0000 0.0000 0.0000 0.0000 0.0000 14.3217
#
#
#
# Elastic Compliance Matrix: (Units=1/GPa)
#
#
# Indices 1 2 3 4 5 6 
#
# 1 0.015125 -0.002593 -0.003373 0.000000 0.000000 0.000000
# 2 -0.002593 0.015125 -0.003373 0.000000 0.000000 0.000000
# 3 -0.003373 -0.003373 0.013323 0.000000 0.000000 0.000000
# 4 0.000000 0.000000 0.000000 0.039666 0.000000 0.000000
# 5 0.000000 0.000000 0.000000 0.000000 0.039665 0.000000
# 6 0.000000 0.000000 0.000000 0.000000 0.000000 0.069824
#
#
# Mechanical properties :
#
#
# Convention : Reuss Voigt Hill
#
# Bulk Modulus (GPa) = 40.16943 40.58208 40.37576
# Shear Modulus (GPa) = 22.75773 24.34680 23.55227
#
# Velocity S-wave (km/s) = 3.57644 3.69920 3.63834
# Velocity P-wave (km/s) = 6.29537 6.40738 6.35162
#
# Compressibility (1/GPa) = 0.02489455
#
# Stress axis : x y z
#
# Youngs Moduli (GPa) = 66.11561 66.11384 75.05735
#
# Poissons Ratio (x) = 0.17145 0.25319
# Poissons Ratio (y) = 0.17146 0.25317
# Poissons Ratio (z) = 0.22303 0.22300
#
# Static dielectric constant tensor:
#      x y z
#    x 3.070360 0.000000 0.000000 
#    y 0.000000 3.070360 0.000000 
#    z 0.000000 0.000000 3.397170 
# 
# 
# High freq. dielectric constant tensor:
#      x y z
#    x 1.666660 0.000000 0.000000 
#    y 0.000000 1.666660 0.000000 
#    z 0.000000 0.000000 1.699660 
# 
# From -- ./inp_files/5143.got.cif
#   From: 2010.03.12/outbox.cif.g09.slc.cpg/sg137_3_cif.got.tgz:5143.got - 2010.04.08 09:34:49.
