data_PCOD8318392
_publ_section_title
;
Structure prediction by ZEFSAII (Michael W. Deem and Ramdas Pophale) SiO2 
 PCOD8318392
Probable space group: P 42/N M C
;
_chemical_formula_sum "Si O2"
_cell_formula_units_Z 112
_cell_length_a 33.980161
_cell_length_b 33.980161
_cell_length_c 5.285260
_cell_angle_alpha 90.000000
_cell_angle_beta 90.000000
_cell_angle_gamma 90.000000
_cell_volume 6102.632550
_symmetry_space_group_name_H-M "P 42/N M C"
_symmetry_group_IT_number 137
_space_group.IT_coordinate_system_code '2'
_symmetry_cell_setting 'tetragonal'
loop_
_space_group_symop_operation_xyz
x,y,z
1/2-y,x,1/2+z
1/2-x,1/2-y,z
y,1/2-x,1/2+z
1/2+x,-y,-z
-x,1/2+y,-z
1/2+y,1/2+x,1/2-z
-y,-x,1/2-z
-x,-y,-z
1/2+y,-x,1/2-z
1/2+x,1/2+y,-z
-y,1/2+x,1/2-z
1/2-x,y,z
x,1/2-y,z
1/2-y,1/2-x,1/2+z
y,x,1/2+z
loop_
_atom_site_type_symbol
_atom_site_label
_atom_site_fract_x
_atom_site_fract_y
_atom_site_fract_z
Si Si1 0.565653 0.917114 0.462185
Si Si2 0.296784 0.577985 0.538827
Si Si3 0.832407 0.296388 0.002457
Si Si4 0.296491 0.964309 0.038621
Si Si5 0.173622 0.205649 0.037715
Si Si6 0.594424 0.660123 0.962166
Si Si7 0.831821 0.549305 0.962174
O O1 0.556956 0.943048 0.712179
O O2 0.612526 0.905886 0.462163
O O3 0.538922 0.878348 0.462195
O O4 0.250000 0.575402 0.539277
O O5 0.310830 0.622985 0.540732
O O6 0.314080 0.556791 0.788963
O O7 0.313978 0.556496 0.289386
O O8 0.815984 0.315984 0.750000
O O9 0.829858 0.250000 0.963882
O O10 0.807777 0.307777 0.250000
O O11 0.250000 0.959820 0.038232
O O12 0.307129 0.009811 0.037552
O O13 0.156654 0.250000 0.037710
O O14 0.199867 0.199869 0.287720
O O15 0.139064 0.173684 0.037688
O O16 0.573563 0.678375 0.714699
O O17 0.573524 0.678377 0.209498
#
# Coordination Sequence:
#
# PCOD8318392 Si02
#       7
#    16  16  16  16  16  16  16
#     4   8  14  25  40  57  82 111 140 173 222 291
#     4   9  19  35  50  67  99 141 175 204 250 310
#     4  11  22  36  56  81 109 144 188 235 279 314
#     4  10  19  31  47  68  97 131 167 205 241 288
#     4  12  25  40  55  67  82 108 144 193 250 309
#     4  10  19  33  49  67  91 117 147 187 250 316
#     4  10  18  28  47  71  92 117 155 193 231 283
#
# _framework density 18.352736
#
# number of rings (size 3 to 8) (size 9 to 14) (size 15 to 20)
#    0.000    2.000    0.000    6.000    0.000    5.143 
#    0.000    0.000    0.000    0.000    0.000    0.000 
#    0.000    0.000    0.000    0.000    0.000  450.000 
#
# Total GULP energy -1388419.712064 kJ/mol
# GULP energy per Si atom -12396.604572 kJ/mol
# Density = 1.831096 g / cm^3
# Si number density = 18.352736 Si / 1000 Ang^3
#
#
#
# Elastic Constant Matrix: (Units=GPa)
#
#
# Indices 1 2 3 4 5 6 
#
# 1 62.8484 -7.2960 20.4319 0.0000 0.0000 0.0000
# 2 -7.2960 62.8484 20.4319 0.0000 0.0000 0.0000
# 3 20.4319 20.4319 177.8211 0.0000 0.0000 0.0000
# 4 0.0000 0.0000 0.0000 23.2072 0.0000 0.0000
# 5 0.0000 0.0000 0.0000 0.0000 23.2072 0.0000
# 6 0.0000 0.0000 0.0000 0.0000 0.0000 4.6957
#
#
#
# Elastic Compliance Matrix: (Units=1/GPa)
#
#
# Indices 1 2 3 4 5 6 
#
# 1 0.016960 0.002703 -0.002259 0.000000 0.000000 0.000000
# 2 0.002703 0.016960 -0.002259 0.000000 0.000000 0.000000
# 3 -0.002259 -0.002259 0.006143 0.000000 0.000000 0.000000
# 4 0.000000 0.000000 0.000000 0.043090 0.000000 0.000000
# 5 0.000000 0.000000 0.000000 0.000000 0.043090 0.000000
# 6 0.000000 0.000000 0.000000 0.000000 0.000000 0.212960
#
#
# Mechanical properties :
#
#
# Convention : Reuss Voigt Hill
#
# Bulk Modulus (GPa) = 27.44876 41.18372 34.31624
# Shear Modulus (GPa) = 14.08543 28.21870 21.15207
#
# Velocity S-wave (km/s) = 2.77336 3.92545 3.39858
# Velocity P-wave (km/s) = 5.02434 6.56005 5.84287
#
# Compressibility (1/GPa) = 0.03643152
#
# Stress axis : x y z
#
# Youngs Moduli (GPa) = 58.96355 58.96355 162.79154
#
# Poissons Ratio (x) = -0.15940 0.36780
# Poissons Ratio (y) = -0.15940 0.36780
# Poissons Ratio (z) = 0.13322 0.13322
#
# Static dielectric constant tensor:
#      x y z
#    x 3.033550 0.000000 0.000000 
#    y 0.000000 3.033550 0.000000 
#    z 0.000000 0.000000 4.471200 
# 
# 
# High freq. dielectric constant tensor:
#      x y z
#    x 1.673800 0.000000 0.000000 
#    y 0.000000 1.673800 0.000000 
#    z 0.000000 0.000000 1.752670 
# 
# From -- ./inp_files/671.got.cif
#   From: 2010.03.12/outbox.cif.g09.slc.cpg/sg137_1_cif.got.tgz:671.got - 2010.04.08 09:34:49.
