data_PCOD8318589
_publ_section_title
;
Structure prediction by ZEFSAII (Michael W. Deem and Ramdas Pophale) SiO2 
 PCOD8318589
Probable space group: P 42/N M C
;
_chemical_formula_sum "Si O2"
_cell_formula_units_Z 112
_cell_length_a 14.865054
_cell_length_b 14.865054
_cell_length_c 25.452798
_cell_angle_alpha 90.000000
_cell_angle_beta 90.000000
_cell_angle_gamma 90.000000
_cell_volume 5624.300458
_symmetry_space_group_name_H-M "P 42/N M C"
_symmetry_group_IT_number 137
_space_group.IT_coordinate_system_code '2'
_symmetry_cell_setting 'tetragonal'
loop_
_space_group_symop_operation_xyz
x,y,z
1/2-y,x,1/2+z
1/2-x,1/2-y,z
y,1/2-x,1/2+z
1/2+x,-y,-z
-x,1/2+y,-z
1/2+y,1/2+x,1/2-z
-y,-x,1/2-z
-x,-y,-z
1/2+y,-x,1/2-z
1/2+x,1/2+y,-z
-y,1/2+x,1/2-z
1/2-x,y,z
x,1/2-y,z
1/2-y,1/2-x,1/2+z
y,x,1/2+z
loop_
_atom_site_type_symbol
_atom_site_label
_atom_site_fract_x
_atom_site_fract_y
_atom_site_fract_z
Si Si1 0.350735 0.109833 0.083517
Si Si2 0.142338 0.466439 0.295317
Si Si3 0.347805 0.649088 0.165501
Si Si4 0.651411 0.406913 0.947680
Si Si5 0.643333 0.650169 0.799741
Si Si6 0.971425 0.850603 0.012098
Si Si7 0.351355 0.357167 0.893923
O O1 0.250000 0.152345 0.075919
O O2 0.389205 0.128277 0.141538
O O3 0.344688 0.005148 0.075774
O O4 0.422899 0.151655 0.043917
O O5 0.250000 0.470082 0.297047
O O6 0.103209 0.568351 0.303671
O O7 0.104860 0.423469 0.241281
O O8 0.107873 0.402620 0.342360
O O9 0.250000 0.599801 0.176419
O O10 0.339031 0.750000 0.186479
O O11 0.367868 0.654678 0.103151
O O12 0.750000 0.382842 0.972920
O O13 0.569231 0.399904 0.989300
O O14 0.750000 0.646695 0.797286
O O15 0.609566 0.750000 0.783770
O O16 0.993797 0.750000 0.029650
O O17 0.904530 0.895106 0.055013
O O18 0.250000 0.396809 0.894759
O O19 0.346652 0.250000 0.895690
#
# Coordination Sequence:
#
# PCOD8318589 Si02
#       7
#    16  16  16  16  16  16  16
#     4  10  21  35  50  72 103 139 176 218 275 339
#     4   9  15  26  45  71  99 129 169 216 262 310
#     4   9  16  28  48  72 101 138 179 221 264 316
#     4  10  20  34  51  72 102 138 178 221 269 326
#     4   9  17  30  49  71  98 133 172 216 267 327
#     4  11  20  32  52  75 101 134 174 222 271 326
#     4   9  16  25  41  69 100 128 163 213 269 317
#
# _framework density 19.913585999999999
#
# number of rings (size 3 to 8) (size 9 to 14) (size 15 to 20)
#    0.000    2.429    1.429    2.143    0.000    4.000 
#    0.000    0.714    0.000    3.429    0.000   12.000 
#    0.000    0.000    0.000    0.000    0.000    0.000 
#
# Total GULP energy -1387850.661907 kJ/mol
# GULP energy per Si atom -12391.523767 kJ/mol
# Density = 1.986826 g / cm^3
# Si number density = 19.913586 Si / 1000 Ang^3
#
#
#
# Elastic Constant Matrix: (Units=GPa)
#
#
# Indices 1 2 3 4 5 6 
#
# 1 105.1929 19.3165 41.3170 0.0000 0.0000 0.0000
# 2 19.3165 105.1929 41.3170 0.0000 0.0000 0.0000
# 3 41.3170 41.3170 123.2727 0.0000 0.0000 0.0000
# 4 0.0000 0.0000 0.0000 31.0479 0.0000 0.0000
# 5 0.0000 0.0000 0.0000 0.0000 31.0479 0.0000
# 6 0.0000 0.0000 0.0000 0.0000 0.0000 12.7772
#
#
#
# Elastic Compliance Matrix: (Units=1/GPa)
#
#
# Indices 1 2 3 4 5 6 
#
# 1 0.010987 -0.000658 -0.003462 0.000000 0.000000 0.000000
# 2 -0.000658 0.010987 -0.003462 0.000000 0.000000 0.000000
# 3 -0.003462 -0.003462 0.010433 0.000000 0.000000 0.000000
# 4 0.000000 0.000000 0.000000 0.032208 0.000000 0.000000
# 5 0.000000 0.000000 0.000000 0.000000 0.032208 0.000000
# 6 0.000000 0.000000 0.000000 0.000000 0.000000 0.078265
#
#
# Mechanical properties :
#
#
# Convention : Reuss Voigt Hill
#
# Bulk Modulus (GPa) = 57.99411 59.72885 58.86148
# Shear Modulus (GPa) = 25.51033 30.42179 27.96606
#
# Velocity S-wave (km/s) = 3.58306 3.91281 3.75156
# Velocity P-wave (km/s) = 6.80470 7.10440 6.95616
#
# Compressibility (1/GPa) = 0.01724313
#
# Stress axis : x y z
#
# Youngs Moduli (GPa) = 91.01740 91.01740 95.85155
#
# Poissons Ratio (x) = 0.05986 0.33184
# Poissons Ratio (y) = 0.05986 0.33184
# Poissons Ratio (z) = 0.31510 0.31510
#
# Static dielectric constant tensor:
#      x y z
#    x 3.602200 0.000000 0.000000 
#    y 0.000000 3.602200 0.000000 
#    z 0.000000 0.000000 3.630150 
# 
# 
# High freq. dielectric constant tensor:
#      x y z
#    x 1.751490 0.000000 0.000000 
#    y 0.000000 1.751490 0.000000 
#    z 0.000000 0.000000 1.768940 
# 
# From -- ./inp_files/9746.got.cif
#   From: 2010.03.12/outbox.cif.g09.slc.cpg/sg137_5_cif.got.tgz:9746.got - 2010.04.08 09:34:49.
