data_PCOD8318069
_publ_section_title
;
Structure prediction by ZEFSAII (Michael W. Deem and Ramdas Pophale) SiO2 
 PCOD8318069
Probable space group: P 42/M N M
;
_chemical_formula_sum "Si O2"
_cell_formula_units_Z 96
_cell_length_a 24.487117
_cell_length_b 24.487117
_cell_length_c 8.512729
_cell_angle_alpha 90.000000
_cell_angle_beta 90.000000
_cell_angle_gamma 90.000000
_cell_volume 5104.393190
_symmetry_space_group_name_H-M "P 42/M N M"
_symmetry_group_IT_number 136
_symmetry_cell_setting 'tetragonal'
loop_
_space_group_symop_operation_xyz
x,y,z
1/2-y,1/2+x,1/2+z
-x,-y,z
1/2+y,1/2-x,1/2+z
1/2+x,1/2-y,1/2-z
1/2-x,1/2+y,1/2-z
y,x,-z
-y,-x,-z
-x,-y,-z
1/2+y,1/2-x,1/2-z
x,y,-z
1/2-y,1/2+x,1/2-z
1/2-x,1/2+y,1/2+z
1/2+x,1/2-y,1/2+z
-y,-x,z
y,x,z
loop_
_atom_site_type_symbol
_atom_site_label
_atom_site_fract_x
_atom_site_fract_y
_atom_site_fract_z
Si Si1 0.151037 0.645295 0.812916
Si Si2 0.853130 0.232883 0.184133
Si Si3 0.064573 0.847155 0.681692
Si Si4 0.438921 0.058299 0.312819
Si Si5 0.358809 0.727070 0.813250
Si Si6 0.640223 0.444368 0.813031
O O1 0.139834 0.706266 0.746759
O O2 0.106377 0.601703 0.749782
O O3 0.211802 0.632197 0.748326
O O4 0.149080 0.644000 0.000000
O O5 0.801203 0.198798 0.255798
O O6 0.908707 0.201675 0.221674
O O7 0.844078 0.237100 0.000000
O O8 0.062575 0.829722 0.500000
O O9 0.096743 0.903258 0.705081
O O10 0.005005 0.856542 0.755752
O O11 0.498304 0.076723 0.250708
O O12 0.440514 0.056257 0.500000
O O13 0.301884 0.698116 0.756811
O O14 0.409836 0.691869 0.751547
O O15 0.357852 0.728556 0.000000
O O16 0.584561 0.415440 0.754271
O O17 0.640432 0.446344 0.000000
#
# Coordination Sequence:
#
# PCOD8318069 Si02
#       6
#    16  16  16  16  16  16
#     4   9  17  28  45  68  89 114 148 183 221 268
#     4   9  17  30  47  66  90 118 147 181 222 266
#     4   9  17  28  42  63  92 122 150 182 220 260
#     4  10  20  35  52  69  93 121 151 187 227 270
#     4   8  13  23  40  63  91 117 144 184 228 264
#     4   8  14  24  39  61  88 117 148 183 221 257
#
# _framework density 18.807327999999998
#
# number of rings (size 3 to 8) (size 9 to 14) (size 15 to 20)
#    0.000    3.167    0.000    2.500    0.000    3.667 
#    0.000    5.000    0.000    0.500    0.000    3.500 
#    0.000    4.000    0.000    0.000    0.000    0.000 
#
# Total GULP energy -1189579.840341 kJ/mol
# GULP energy per Si atom -12391.456670 kJ/mol
# Density = 1.876452 g / cm^3
# Si number density = 18.807328 Si / 1000 Ang^3
#
#
#
# Elastic Constant Matrix: (Units=GPa)
#
#
# Indices 1 2 3 4 5 6 
#
# 1 155.5707 98.9358 12.2515 0.0000 0.0000 0.0000
# 2 98.9358 155.5707 12.2515 0.0000 0.0000 0.0000
# 3 12.2515 12.2515 16.7611 0.0000 0.0000 0.0000
# 4 0.0000 0.0000 0.0000 16.0334 0.0000 0.0000
# 5 0.0000 0.0000 0.0000 0.0000 16.0334 0.0000
# 6 0.0000 0.0000 0.0000 0.0000 0.0000 27.5504
#
#
#
# Elastic Compliance Matrix: (Units=1/GPa)
#
#
# Indices 1 2 3 4 5 6 
#
# 1 0.010942 -0.006715 -0.003089 0.000000 0.000000 0.000000
# 2 -0.006715 0.010942 -0.003089 0.000000 0.000000 0.000000
# 3 -0.003089 -0.003089 0.064179 0.000000 0.000000 0.000000
# 4 0.000000 0.000000 0.000000 0.062370 0.000000 0.000000
# 5 0.000000 0.000000 0.000000 0.000000 0.062370 0.000000
# 6 0.000000 0.000000 0.000000 0.000000 0.000000 0.036297
#
#
# Mechanical properties :
#
#
# Convention : Reuss Voigt Hill
#
# Bulk Modulus (GPa) = 16.59091 63.86448 40.22770
# Shear Modulus (GPa) = 17.06612 25.55437 21.31024
#
# Velocity S-wave (km/s) = 3.01561 3.69011 3.36978
# Velocity P-wave (km/s) = 4.57885 7.22405 6.04784
#
# Compressibility (1/GPa) = 0.06027397
#
# Stress axis : x y z
#
# Youngs Moduli (GPa) = 91.39278 91.39278 15.58153
#
# Poissons Ratio (x) = 0.61372 0.04814
# Poissons Ratio (y) = 0.61372 0.04814
# Poissons Ratio (z) = 0.28235 0.28235
#
# Static dielectric constant tensor:
#      x y z
#    x 3.764480 0.000000 0.000000 
#    y 0.000000 3.764480 0.000000 
#    z 0.000000 0.000000 2.893090 
# 
# 
# High freq. dielectric constant tensor:
#      x y z
#    x 1.736950 0.000000 0.000000 
#    y 0.000000 1.736950 0.000000 
#    z 0.000000 0.000000 1.673640 
# 
# From -- ./inp_files/1945.got.cif
#   From: 2010.03.12/outbox.cif.g09.slc.cpg/sg136_1_cif.got.tgz:1945.got - 2010.04.06 18:39:43.
