data_PCOD8318870
_publ_section_title
;
Structure prediction by ZEFSAII (Michael W. Deem and Ramdas Pophale) SiO2 
 PCOD8318870
Probable space group: P 42/N C M
;
_chemical_formula_sum "Si O2"
_cell_formula_units_Z 64
_cell_length_a 13.343647
_cell_length_b 13.343647
_cell_length_c 20.116175
_cell_angle_alpha 90.000000
_cell_angle_beta 90.000000
_cell_angle_gamma 90.000000
_cell_volume 3581.743603
_symmetry_space_group_name_H-M "P 42/N C M"
_symmetry_group_IT_number 138
_space_group.IT_coordinate_system_code '2'
_symmetry_cell_setting 'tetragonal'
loop_
_space_group_symop_operation_xyz
x,y,z
1/2-y,x,1/2+z
1/2-x,1/2-y,z
y,1/2-x,1/2+z
1/2+x,-y,1/2-z
-x,1/2+y,1/2-z
1/2+y,1/2+x,-z
-y,-x,-z
-x,-y,-z
1/2+y,-x,1/2-z
1/2+x,1/2+y,-z
-y,1/2+x,1/2-z
1/2-x,y,1/2+z
x,1/2-y,1/2+z
1/2-y,1/2-x,z
y,x,z
loop_
_atom_site_type_symbol
_atom_site_label
_atom_site_fract_x
_atom_site_fract_y
_atom_site_fract_z
Si Si1 0.126943 0.539235 0.310234
Si Si2 0.513544 0.146390 0.803170
Si Si3 0.193448 0.646858 0.574145
Si Si4 0.047907 0.608484 0.926764
O O1 0.236195 0.495346 0.294766
O O2 0.096659 0.609162 0.248852
O O3 0.126189 0.601932 0.377659
O O4 0.053833 0.446168 0.319162
O O5 0.552467 0.123141 0.876980
O O6 0.408149 0.091852 0.789169
O O7 0.250000 0.750000 0.592656
O O8 0.150343 0.650343 0.500000
O O9 0.271835 0.554337 0.582987
O O10 0.934500 0.565501 0.916117
O O11 0.085983 0.585983 0.000000
#
# Coordination Sequence:
#
# PCOD8318870 Si02
#       4
#    16  16  16  16
#     4  11  23  36  55  82 110 145 183 224 280 336
#     4  10  21  35  53  80 109 142 184 227 272 326
#     4  11  19  34  56  83 110 142 186 234 275 319
#     4  10  18  31  53  80 108 139 181 230 275 318
#
# _framework density 17.868393000000001
#
# number of rings (size 3 to 8) (size 9 to 14) (size 15 to 20)
#    0.000    1.500    5.000    1.500    0.000    1.000 
#    0.000    0.000    0.000    2.250    0.000    0.000 
#    0.000    0.000    0.000    0.000    0.000    0.000 
#
# Total GULP energy -793620.282008 kJ/mol
# GULP energy per Si atom -12400.316906 kJ/mol
# Density = 1.782772 g / cm^3
# Si number density = 17.868393 Si / 1000 Ang^3
#
#
#
# Elastic Constant Matrix: (Units=GPa)
#
#
# Indices 1 2 3 4 5 6 
#
# 1 115.2174 72.6578 50.4047 0.0000 0.0000 0.0000
# 2 72.6578 115.2174 50.4047 0.0000 0.0000 0.0000
# 3 50.4047 50.4047 107.2662 0.0000 0.0000 0.0000
# 4 0.0000 0.0000 0.0000 25.0544 0.0000 0.0000
# 5 0.0000 0.0000 0.0000 0.0000 25.0544 0.0000
# 6 0.0000 0.0000 0.0000 0.0000 0.0000 28.0553
#
#
#
# Elastic Compliance Matrix: (Units=1/GPa)
#
#
# Indices 1 2 3 4 5 6 
#
# 1 0.015307 -0.008190 -0.003344 0.000000 0.000000 0.000000
# 2 -0.008190 0.015307 -0.003344 0.000000 0.000000 0.000000
# 3 -0.003344 -0.003344 0.012466 0.000000 0.000000 0.000000
# 4 0.000000 0.000000 0.000000 0.039913 0.000000 0.000000
# 5 0.000000 0.000000 0.000000 0.000000 0.039913 0.000000
# 6 0.000000 0.000000 0.000000 0.000000 0.000000 0.035644
#
#
# Mechanical properties :
#
#
# Convention : Reuss Voigt Hill
#
# Bulk Modulus (GPa) = 75.06091 76.07060 75.56576
# Shear Modulus (GPa) = 25.94070 26.58174 26.26122
#
# Velocity S-wave (km/s) = 3.81434 3.86118 3.83783
# Velocity P-wave (km/s) = 7.84205 7.90844 7.87531
#
# Compressibility (1/GPa) = 0.01332251
#
# Stress axis : x y z
#
# Youngs Moduli (GPa) = 65.33029 65.33029 80.22030
#
# Poissons Ratio (x) = 0.53503 0.26829
# Poissons Ratio (y) = 0.53503 0.26829
# Poissons Ratio (z) = 0.21849 0.21849
#
# Static dielectric constant tensor:
#      x y z
#    x 3.386350 0.000000 0.000000 
#    y 0.000000 3.386350 0.000000 
#    z 0.000000 0.000000 3.452650 
# 
# 
# High freq. dielectric constant tensor:
#      x y z
#    x 1.679100 0.000000 0.000000 
#    y 0.000000 1.679100 0.000000 
#    z 0.000000 0.000000 1.712020 
# 
# From -- ./inp_files/4882.got.cif
#   From: 2010.03.12/outbox.cif.g09.slc.cpg/sg138_3_cif.got.tgz:4882.got - 2010.04.08 09:41:05.
