data_PCOD8318029
_publ_section_title
;
Structure prediction by ZEFSAII (Michael W. Deem and Ramdas Pophale) SiO2 
 PCOD8318029
Probable space group: P 42/M N M
;
_chemical_formula_sum "Si O2"
_cell_formula_units_Z 96
_cell_length_a 23.729887
_cell_length_b 23.729887
_cell_length_c 8.901347
_cell_angle_alpha 90.000000
_cell_angle_beta 90.000000
_cell_angle_gamma 90.000000
_cell_volume 5012.415585
_symmetry_space_group_name_H-M "P 42/M N M"
_symmetry_group_IT_number 136
_symmetry_cell_setting 'tetragonal'
loop_
_space_group_symop_operation_xyz
x,y,z
1/2-y,1/2+x,1/2+z
-x,-y,z
1/2+y,1/2-x,1/2+z
1/2+x,1/2-y,1/2-z
1/2-x,1/2+y,1/2-z
y,x,-z
-y,-x,-z
-x,-y,-z
1/2+y,1/2-x,1/2-z
x,y,-z
1/2-y,1/2+x,1/2-z
1/2-x,1/2+y,1/2+z
1/2+x,1/2-y,1/2+z
-y,-x,z
y,x,z
loop_
_atom_site_type_symbol
_atom_site_label
_atom_site_fract_x
_atom_site_fract_y
_atom_site_fract_z
Si Si1 0.285827 0.516593 0.823368
Si Si2 0.183682 0.725304 0.323928
Si Si3 0.499996 0.588989 0.821636
Si Si4 0.567886 0.797674 0.323655
Si Si5 0.736076 0.355376 0.829052
Si Si6 0.922807 0.532860 0.678673
O O1 0.347348 0.499031 0.759738
O O2 0.237384 0.484389 0.736530
O O3 0.276924 0.581401 0.783753
O O4 0.280810 0.504287 0.000000
O O5 0.174127 0.725256 0.500000
O O6 0.221113 0.778888 0.272453
O O7 0.123682 0.729127 0.245917
O O8 0.214684 0.667837 0.276933
O O9 0.446007 0.553994 0.759525
O O10 0.557483 0.557483 0.771678
O O11 0.495362 0.590854 0.000000
O O12 0.571424 0.791087 0.500000
O O13 0.559855 0.862896 0.277858
O O14 0.678506 0.321495 0.804899
O O15 0.757626 0.350392 0.000000
O O16 0.931040 0.528103 0.500000
O O17 0.926999 0.470777 0.751509
#
# Coordination Sequence:
#
# PCOD8318029 Si02
#       6
#    16  16  16  16  16  16
#     4  10  20  33  53  83 115 149 188 231 276 328
#     4  10  22  40  61  83 108 144 190 236 282 335
#     4   8  14  27  50  80 112 145 184 231 276 318
#     4  11  25  40  56  84 117 153 190 230 284 341
#     4   9  18  34  57  84 114 148 186 232 285 335
#     4  10  22  40  62  86 112 145 186 233 286 343
#
# _framework density 19.152442000000001
#
# number of rings (size 3 to 8) (size 9 to 14) (size 15 to 20)
#    0.000    2.333    0.000    3.000    2.333    7.000 
#    0.000    1.667    0.000    1.500    0.000    1.167 
#    0.000    0.000    0.000    0.000    0.000    0.000 
#
# Total GULP energy -1190494.944746 kJ/mol
# GULP energy per Si atom -12400.989008 kJ/mol
# Density = 1.910885 g / cm^3
# Si number density = 19.152442 Si / 1000 Ang^3
#
#
#
# Elastic Constant Matrix: (Units=GPa)
#
#
# Indices 1 2 3 4 5 6 
#
# 1 100.3056 47.3922 41.2224 0.0000 0.0000 0.0000
# 2 47.3922 100.3056 41.2224 0.0000 0.0000 0.0000
# 3 41.2224 41.2224 59.8807 0.0000 0.0000 0.0000
# 4 0.0000 0.0000 0.0000 24.6316 0.0000 0.0000
# 5 0.0000 0.0000 0.0000 0.0000 24.6316 0.0000
# 6 0.0000 0.0000 0.0000 0.0000 0.0000 21.7023
#
#
#
# Elastic Compliance Matrix: (Units=1/GPa)
#
#
# Indices 1 2 3 4 5 6 
#
# 1 0.014947 -0.003951 -0.007570 0.000000 0.000000 0.000000
# 2 -0.003951 0.014947 -0.007570 0.000000 0.000000 0.000000
# 3 -0.007570 -0.007570 0.027122 0.000000 0.000000 0.000000
# 4 0.000000 0.000000 0.000000 0.040598 0.000000 0.000000
# 5 0.000000 0.000000 0.000000 0.000000 0.040598 0.000000
# 6 0.000000 0.000000 0.000000 0.000000 0.000000 0.046078
#
#
# Mechanical properties :
#
#
# Convention : Reuss Voigt Hill
#
# Bulk Modulus (GPa) = 53.09252 57.79624 55.44438
# Shear Modulus (GPa) = 21.85779 22.90344 22.38061
#
# Velocity S-wave (km/s) = 3.38191 3.46186 3.42212
# Velocity P-wave (km/s) = 6.55980 6.79866 6.68030
#
# Compressibility (1/GPa) = 0.01883504
#
# Stress axis : x y z
#
# Youngs Moduli (GPa) = 66.90124 66.90124 36.87042
#
# Poissons Ratio (x) = 0.26435 0.27910
# Poissons Ratio (y) = 0.26435 0.27910
# Poissons Ratio (z) = 0.50643 0.50643
#
# Static dielectric constant tensor:
#      x y z
#    x 3.644600 0.000000 0.000000 
#    y 0.000000 3.644600 0.000000 
#    z 0.000000 0.000000 3.333120 
# 
# 
# High freq. dielectric constant tensor:
#      x y z
#    x 1.751800 0.000000 0.000000 
#    y 0.000000 1.751800 0.000000 
#    z 0.000000 0.000000 1.725870 
# 
# From -- ./inp_files/1941.got.cif
#   From: 2010.03.12/outbox.cif.g09.slc.cpg/sg136_1_cif.got.tgz:1941.got - 2010.04.06 18:39:43.
