data_PCOD8318692
_publ_section_title
;
Structure prediction by ZEFSAII (Michael W. Deem and Ramdas Pophale) SiO2 
 PCOD8318692
Probable space group: P 42/N M C
;
_chemical_formula_sum "Si O2"
_cell_formula_units_Z 64
_cell_length_a 13.423757
_cell_length_b 13.423757
_cell_length_c 18.086195
_cell_angle_alpha 90.000000
_cell_angle_beta 90.000000
_cell_angle_gamma 90.000000
_cell_volume 3259.082638
_symmetry_space_group_name_H-M "P 42/N M C"
_symmetry_group_IT_number 137
_space_group.IT_coordinate_system_code '2'
_symmetry_cell_setting 'tetragonal'
loop_
_space_group_symop_operation_xyz
x,y,z
1/2-y,x,1/2+z
1/2-x,1/2-y,z
y,1/2-x,1/2+z
1/2+x,-y,-z
-x,1/2+y,-z
1/2+y,1/2+x,1/2-z
-y,-x,1/2-z
-x,-y,-z
1/2+y,-x,1/2-z
1/2+x,1/2+y,-z
-y,1/2+x,1/2-z
1/2-x,y,z
x,1/2-y,z
1/2-y,1/2-x,1/2+z
y,x,1/2+z
loop_
_atom_site_type_symbol
_atom_site_label
_atom_site_fract_x
_atom_site_fract_y
_atom_site_fract_z
Si Si1 0.750000 0.642032 0.700613
Si Si2 0.750000 0.641430 0.525022
Si Si3 0.527645 0.563881 0.183877
Si Si4 0.033785 0.368880 0.463926
Si Si5 0.635815 0.132994 0.578130
O O1 0.750000 0.750000 0.738684
O O2 0.750000 0.650911 0.612711
O O3 0.848306 0.585444 0.725801
O O4 0.750000 0.750000 0.486831
O O5 0.642834 0.588902 0.506123
O O6 0.514072 0.485929 0.250000
O O7 0.590215 0.512555 0.118162
O O8 0.423294 0.608217 0.153436
O O9 0.039831 0.250000 0.459316
O O10 0.943406 0.404235 0.516132
O O11 0.750000 0.106662 0.554117
O O12 0.624455 0.250000 0.592461
#
# Coordination Sequence:
#
# PCOD8318692 Si02
#       5
#     8   8  16  16  16
#     4   9  18  36  57  77 109 153 193 230 296 356
#     4   7  12  26  54  79  95 133 182 232 277 338
#     4  11  21  34  57  84 115 151 194 243 294 355
#     4   9  18  36  59  80 109 147 197 243 297 348
#     4  10  21  36  55  82 118 154 192 236 289 357
#
# _framework density 19.637428
#
# number of rings (size 3 to 8) (size 9 to 14) (size 15 to 20)
#    0.000    2.500    1.250    3.000    1.750    0.000 
#    0.000    3.750    5.500    0.000    0.000    0.000 
#    0.000    0.000    0.000    0.000    0.000    0.000 
#
# Total GULP energy -792950.795089 kJ/mol
# GULP energy per Si atom -12389.856173 kJ/mol
# Density = 1.959273 g / cm^3
# Si number density = 19.637428 Si / 1000 Ang^3
#
#
#
# Elastic Constant Matrix: (Units=GPa)
#
#
# Indices 1 2 3 4 5 6 
#
# 1 86.1754 45.5963 44.0734 0.0000 0.0000 0.0000
# 2 45.5963 86.1766 44.0743 0.0000 0.0000 0.0000
# 3 44.0734 44.0743 64.7767 0.0000 0.0000 0.0000
# 4 0.0000 0.0000 0.0000 24.0810 0.0000 0.0000
# 5 0.0000 0.0000 0.0000 0.0000 24.0802 0.0000
# 6 0.0000 0.0000 0.0000 0.0000 0.0000 31.7696
#
#
#
# Elastic Compliance Matrix: (Units=1/GPa)
#
#
# Indices 1 2 3 4 5 6 
#
# 1 0.019286 -0.005357 -0.009477 0.000000 0.000000 0.000000
# 2 -0.005357 0.019286 -0.009477 0.000000 0.000000 0.000000
# 3 -0.009477 -0.009477 0.028333 0.000000 0.000000 0.000000
# 4 0.000000 0.000000 0.000000 0.041527 0.000000 0.000000
# 5 0.000000 0.000000 0.000000 0.000000 0.041528 0.000000
# 6 0.000000 0.000000 0.000000 0.000000 0.000000 0.031477
#
#
# Mechanical properties :
#
#
# Convention : Reuss Voigt Hill
#
# Bulk Modulus (GPa) = 54.69537 56.06850 55.38193
# Shear Modulus (GPa) = 21.17286 22.87847 22.02567
#
# Velocity S-wave (km/s) = 3.28714 3.41698 3.35269
# Velocity P-wave (km/s) = 6.50539 6.64692 6.57654
#
# Compressibility (1/GPa) = 0.01828308
#
# Stress axis : x y z
#
# Youngs Moduli (GPa) = 51.85238 51.85240 35.29397
#
# Poissons Ratio (x) = 0.27779 0.33446
# Poissons Ratio (y) = 0.27779 0.33448
# Poissons Ratio (z) = 0.49138 0.49140
#
# Static dielectric constant tensor:
#      x y z
#    x 4.001660 0.000000 0.000000 
#    y 0.000000 4.001660 0.000000 
#    z 0.000000 0.000000 3.039160 
# 
# 
# High freq. dielectric constant tensor:
#      x y z
#    x 1.778730 0.000000 0.000000 
#    y 0.000000 1.778730 0.000000 
#    z 0.000000 0.000000 1.710490 
# 
# From -- ./inp_files/6095.got.cif
#   From: 2010.03.12/outbox.cif.g09.slc.cpg/sg137_4_cif.got.tgz:6095.got - 2010.04.08 09:34:49.
