data_PCOD8318308
_publ_section_title
;
Structure prediction by ZEFSAII (Michael W. Deem and Ramdas Pophale) SiO2 
 PCOD8318308
Probable space group: P 42/M N M
;
_chemical_formula_sum "Si O2"
_cell_formula_units_Z 80
_cell_length_a 17.746930
_cell_length_b 17.746930
_cell_length_c 13.634244
_cell_angle_alpha 90.000000
_cell_angle_beta 90.000000
_cell_angle_gamma 90.000000
_cell_volume 4294.153201
_symmetry_space_group_name_H-M "P 42/M N M"
_symmetry_group_IT_number 136
_symmetry_cell_setting 'tetragonal'
loop_
_space_group_symop_operation_xyz
x,y,z
1/2-y,1/2+x,1/2+z
-x,-y,z
1/2+y,1/2-x,1/2+z
1/2+x,1/2-y,1/2-z
1/2-x,1/2+y,1/2-z
y,x,-z
-y,-x,-z
-x,-y,-z
1/2+y,1/2-x,1/2-z
x,y,-z
1/2-y,1/2+x,1/2-z
1/2-x,1/2+y,1/2+z
1/2+x,1/2-y,1/2+z
-y,-x,z
y,x,z
loop_
_atom_site_type_symbol
_atom_site_label
_atom_site_fract_x
_atom_site_fract_y
_atom_site_fract_z
Si Si1 0.873744 0.246989 0.812803
Si Si2 0.604810 0.134166 0.500000
Si Si3 0.437071 0.562930 0.888837
Si Si4 0.848859 0.727030 0.185610
Si Si5 0.329583 0.930819 0.000000
Si Si6 0.973304 0.675958 0.500000
Si Si7 0.016212 0.221401 0.689883
O O1 0.828000 0.172001 0.842586
O O2 0.816406 0.310233 0.775291
O O3 0.930625 0.227487 0.725232
O O4 0.918114 0.277631 0.905977
O O5 0.641996 0.172018 0.405719
O O6 0.515430 0.140914 0.500000
O O7 0.622880 0.045999 0.500000
O O8 0.500000 0.500000 0.884872
O O9 0.467703 0.635504 0.834244
O O10 0.415919 0.584082 0.000000
O O11 0.798563 0.798563 0.153660
O O12 0.930149 0.753742 0.221492
O O13 0.400188 0.875778 0.000000
O O14 0.971401 0.727479 0.595428
#
# Coordination Sequence:
#
# PCOD8318308 Si02
#       7
#    16   8   8  16   8   8  16
#     4  11  24  41  64  93 123 167 213 262 311 371
#     4  12  24  43  62  90 130 163 206 261 312 383
#     4  11  24  40  64  99 129 167 211 261 326 380
#     4  11  23  40  66  89 120 167 214 255 314 371
#     4  12  24  41  65  91 128 164 210 261 308 381
#     4  12  25  39  63  98 121 162 211 257 316 373
#     4  12  22  42  64  89 131 165 206 261 314 376
#
# _framework density 18.629982999999999
#
# number of rings (size 3 to 8) (size 9 to 14) (size 15 to 20)
#    0.000    0.500    8.000    1.500    0.000    0.000 
#    1.800    0.000    0.000    0.000    0.000    4.200 
#    0.000    0.000    0.000    0.000    0.000    0.000 
#
# Total GULP energy -992444.673416 kJ/mol
# GULP energy per Si atom -12405.558418 kJ/mol
# Density = 1.858758 g / cm^3
# Si number density = 18.629983 Si / 1000 Ang^3
#
#
#
# Elastic Constant Matrix: (Units=GPa)
#
#
# Indices 1 2 3 4 5 6 
#
# 1 82.5571 56.8797 29.0047 0.0000 0.0000 0.0000
# 2 56.8797 82.5630 29.0060 0.0000 0.0000 0.0000
# 3 29.0047 29.0060 89.4158 0.0000 0.0000 0.0000
# 4 0.0000 0.0000 0.0000 37.2124 0.0000 0.0000
# 5 0.0000 0.0000 0.0000 0.0000 37.2123 0.0000
# 6 0.0000 0.0000 0.0000 0.0000 0.0000 28.1073
#
#
#
# Elastic Compliance Matrix: (Units=1/GPa)
#
#
# Indices 1 2 3 4 5 6 
#
# 1 0.023616 -0.015325 -0.002689 0.000000 0.000000 0.000000
# 2 -0.015325 0.023614 -0.002689 0.000000 0.000000 0.000000
# 3 -0.002689 -0.002689 0.012928 0.000000 0.000000 0.000000
# 4 0.000000 0.000000 0.000000 0.026873 0.000000 0.000000
# 5 0.000000 0.000000 0.000000 0.000000 0.026873 0.000000
# 6 0.000000 0.000000 0.000000 0.000000 0.000000 0.035578
#
#
# Mechanical properties :
#
#
# Convention : Reuss Voigt Hill
#
# Bulk Modulus (GPa) = 53.32757 53.81298 53.57028
# Shear Modulus (GPa) = 25.36266 29.81613 27.58939
#
# Velocity S-wave (km/s) = 3.69370 4.00489 3.85244
# Velocity P-wave (km/s) = 6.84675 7.09460 6.97178
#
# Compressibility (1/GPa) = 0.01875203
#
# Stress axis : x y z
#
# Youngs Moduli (GPa) = 42.34395 42.34687 77.34882
#
# Poissons Ratio (x) = 0.64896 0.20801
# Poissons Ratio (y) = 0.64892 0.20802
# Poissons Ratio (z) = 0.11387 0.11388
#
# Static dielectric constant tensor:
#      x y z
#    x 3.471620 0.000000 0.000000 
#    y 0.000000 3.471620 0.000000 
#    z 0.000000 0.000000 3.422400 
# 
# 
# High freq. dielectric constant tensor:
#      x y z
#    x 1.735710 0.000000 0.000000 
#    y 0.000000 1.735710 0.000000 
#    z 0.000000 0.000000 1.730000 
# 
# From -- ./inp_files/4984.got.cif
#   From: 2010.03.12/outbox.cif.g09.slc.cpg/sg136_3_cif.got.tgz:4984.got - 2010.04.06 18:39:43.
