data_PCOD8318688
_publ_section_title
;
Structure prediction by ZEFSAII (Michael W. Deem and Ramdas Pophale) SiO2 
 PCOD8318688
Probable space group: P 42/N M C
;
_chemical_formula_sum "Si O2"
_cell_formula_units_Z 58
_cell_length_a 12.019527
_cell_length_b 12.019527
_cell_length_c 23.039455
_cell_angle_alpha 90.000000
_cell_angle_beta 90.000000
_cell_angle_gamma 90.000000
_cell_volume 3328.487700
_symmetry_space_group_name_H-M "P 42/N M C"
_symmetry_group_IT_number 137
_space_group.IT_coordinate_system_code '2'
_symmetry_cell_setting 'tetragonal'
loop_
_space_group_symop_operation_xyz
x,y,z
1/2-y,x,1/2+z
1/2-x,1/2-y,z
y,1/2-x,1/2+z
1/2+x,-y,-z
-x,1/2+y,-z
1/2+y,1/2+x,1/2-z
-y,-x,1/2-z
-x,-y,-z
1/2+y,-x,1/2-z
1/2+x,1/2+y,-z
-y,1/2+x,1/2-z
1/2-x,y,z
x,1/2-y,z
1/2-y,1/2-x,1/2+z
y,x,1/2+z
loop_
_atom_site_type_symbol
_atom_site_label
_atom_site_fract_x
_atom_site_fract_y
_atom_site_fract_z
Si Si1 0.379511 0.373647 0.510542
Si Si2 0.750000 0.250000 0.250000
Si Si3 0.750000 0.126960 0.138538
Si Si4 0.621173 0.375645 0.682547
Si Si5 0.506380 0.029714 0.404465
O O1 0.250000 0.359795 0.505169
O O2 0.434593 0.250000 0.514745
O O3 0.405349 0.444648 0.567949
O O4 0.418528 0.437639 0.453394
O O5 0.750000 0.140279 0.208859
O O6 0.750000 0.250000 0.109222
O O7 0.639862 0.063689 0.119514
O O8 0.600843 0.399157 0.750000
O O9 0.750000 0.388691 0.666571
O O10 0.582046 0.250000 0.666891
O O11 0.553146 0.467360 0.647919
#
# Coordination Sequence:
#
# PCOD8318688 Si02
#       5
#    16   2   8  16  16
#     4  10  21  36  53  79 111 142 180 231 276 325
#     4   8  24  40  56  76 120 140 192 244 270 328
#     4  10  22  38  55  83 108 150 188 233 280 333
#     4   9  19  35  56  83 111 141 181 231 281 333
#     4  11  20  35  58  79 107 150 184 224 277 342
#
# _framework density 17.425331
#
# number of rings (size 3 to 8) (size 9 to 14) (size 15 to 20)
#    0.414    1.655    1.379    3.310    1.931    0.000 
#    0.000    0.000    0.000    0.000    0.000    0.000 
#    0.000    0.000    0.000    0.000    0.000    0.000 
#
# Total GULP energy -719018.590249 kJ/mol
# GULP energy per Si atom -12396.872246 kJ/mol
# Density = 1.738567 g / cm^3
# Si number density = 17.425331 Si / 1000 Ang^3
#
#
#
# Elastic Constant Matrix: (Units=GPa)
#
#
# Indices 1 2 3 4 5 6 
#
# 1 107.5527 55.5837 50.5242 0.0000 0.0000 0.0000
# 2 55.5837 107.5524 50.5239 0.0000 0.0000 0.0000
# 3 50.5242 50.5239 92.5621 0.0000 0.0000 0.0000
# 4 0.0000 0.0000 0.0000 24.3489 0.0000 0.0000
# 5 0.0000 0.0000 0.0000 0.0000 24.3489 0.0000
# 6 0.0000 0.0000 0.0000 0.0000 0.0000 22.9720
#
#
#
# Elastic Compliance Matrix: (Units=1/GPa)
#
#
# Indices 1 2 3 4 5 6 
#
# 1 0.014252 -0.004991 -0.005055 0.000000 0.000000 0.000000
# 2 -0.004991 0.014252 -0.005055 0.000000 0.000000 0.000000
# 3 -0.005055 -0.005055 0.016322 0.000000 0.000000 0.000000
# 4 0.000000 0.000000 0.000000 0.041070 0.000000 0.000000
# 5 0.000000 0.000000 0.000000 0.000000 0.041070 0.000000
# 6 0.000000 0.000000 0.000000 0.000000 0.000000 0.043531
#
#
# Mechanical properties :
#
#
# Convention : Reuss Voigt Hill
#
# Bulk Modulus (GPa) = 68.38111 68.99231 68.68671
# Shear Modulus (GPa) = 24.32242 24.40300 24.36271
#
# Velocity S-wave (km/s) = 3.74011 3.74629 3.74320
# Velocity P-wave (km/s) = 7.61438 7.64147 7.62793
#
# Compressibility (1/GPa) = 0.01462392
#
# Stress axis : x y z
#
# Youngs Moduli (GPa) = 70.16746 70.16748 61.26711
#
# Poissons Ratio (x) = 0.35018 0.30971
# Poissons Ratio (y) = 0.35018 0.30970
# Poissons Ratio (z) = 0.35470 0.35469
#
# Static dielectric constant tensor:
#      x y z
#    x 3.323370 0.000000 0.000000 
#    y 0.000000 3.323370 0.000000 
#    z 0.000000 0.000000 3.191020 
# 
# 
# High freq. dielectric constant tensor:
#      x y z
#    x 1.677280 0.000000 0.000000 
#    y 0.000000 1.677270 0.000000 
#    z 0.000000 0.000000 1.674150 
# 
# From -- ./inp_files/7362.got.cif
#   From: 2010.03.12/outbox.cif.g09.slc.cpg/sg137_4_cif.got.tgz:7362.got - 2010.04.08 09:34:49.
