data_PCOD8318043
_publ_section_title
;
Structure prediction by ZEFSAII (Michael W. Deem and Ramdas Pophale) SiO2 
 PCOD8318043
Probable space group: P 42/M N M
;
_chemical_formula_sum "Si O2"
_cell_formula_units_Z 72
_cell_length_a 20.899992
_cell_length_b 20.899992
_cell_length_c 9.217484
_cell_angle_alpha 90.000000
_cell_angle_beta 90.000000
_cell_angle_gamma 90.000000
_cell_volume 4026.286104
_symmetry_space_group_name_H-M "P 42/M N M"
_symmetry_group_IT_number 136
_symmetry_cell_setting 'tetragonal'
loop_
_space_group_symop_operation_xyz
x,y,z
1/2-y,1/2+x,1/2+z
-x,-y,z
1/2+y,1/2-x,1/2+z
1/2+x,1/2-y,1/2-z
1/2-x,1/2+y,1/2-z
y,x,-z
-y,-x,-z
-x,-y,-z
1/2+y,1/2-x,1/2-z
x,y,-z
1/2-y,1/2+x,1/2-z
1/2-x,1/2+y,1/2+z
1/2+x,1/2-y,1/2+z
-y,-x,z
y,x,z
loop_
_atom_site_type_symbol
_atom_site_label
_atom_site_fract_x
_atom_site_fract_y
_atom_site_fract_z
Si Si1 0.324783 0.036747 0.164460
Si Si2 0.551211 0.448790 0.671860
Si Si3 0.003953 0.814945 0.830391
Si Si4 0.771553 0.124365 0.664166
Si Si5 0.852860 0.609508 0.667105
O O1 0.248868 0.037459 0.199390
O O2 0.361291 0.081383 0.276322
O O3 0.353738 0.966553 0.187710
O O4 0.336663 0.060208 0.000000
O O5 0.500000 0.500000 0.735359
O O6 0.548791 0.451210 0.500000
O O7 0.534582 0.377158 0.725270
O O8 0.070112 0.812353 0.744441
O O9 0.021242 0.819824 0.000000
O O10 0.757925 0.101741 0.500000
O O11 0.810147 0.189854 0.666680
O O12 0.705247 0.139682 0.743503
O O13 0.843871 0.628142 0.500000
#
# Coordination Sequence:
#
# PCOD8318043 Si02
#       5
#    16   8  16  16  16
#     4   9  19  35  52  75 106 137 173 216 265 313
#     4   9  16  28  51  81 107 139 183 221 257 306
#     4   9  18  33  53  77 107 142 177 218 262 310
#     4  10  20  34  53  77 104 137 176 219 266 310
#     4  10  21  36  56  79 104 137 174 215 261 315
#
# _framework density 17.882484000000002
#
# number of rings (size 3 to 8) (size 9 to 14) (size 15 to 20)
#    0.000    2.556    0.000    3.333    0.000    7.556 
#    2.000    2.778    0.000    2.000    0.000    0.000 
#    0.000    0.000    0.000    0.000    0.000    0.000 
#
# Total GULP energy -892882.260791 kJ/mol
# GULP energy per Si atom -12401.142511 kJ/mol
# Density = 1.784178 g / cm^3
# Si number density = 17.882484 Si / 1000 Ang^3
#
#
#
# Elastic Constant Matrix: (Units=GPa)
#
#
# Indices 1 2 3 4 5 6 
#
# 1 95.5257 65.7539 52.5661 0.0000 0.0000 0.0000
# 2 65.7539 95.5258 52.5662 0.0000 0.0000 0.0000
# 3 52.5661 52.5662 104.1496 0.0000 0.0000 0.0000
# 4 0.0000 0.0000 0.0000 26.9364 0.0000 0.0000
# 5 0.0000 0.0000 0.0000 0.0000 26.9364 0.0000
# 6 0.0000 0.0000 0.0000 0.0000 0.0000 29.0778
#
#
#
# Elastic Compliance Matrix: (Units=1/GPa)
#
#
# Indices 1 2 3 4 5 6 
#
# 1 0.021415 -0.012174 -0.004664 0.000000 0.000000 0.000000
# 2 -0.012174 0.021415 -0.004664 0.000000 0.000000 0.000000
# 3 -0.004664 -0.004664 0.014309 0.000000 0.000000 0.000000
# 4 0.000000 0.000000 0.000000 0.037124 0.000000 0.000000
# 5 0.000000 0.000000 0.000000 0.000000 0.037125 0.000000
# 6 0.000000 0.000000 0.000000 0.000000 0.000000 0.034391
#
#
# Mechanical properties :
#
#
# Convention : Reuss Voigt Hill
#
# Bulk Modulus (GPa) = 70.74577 70.77483 70.76030
# Shear Modulus (GPa) = 23.41986 24.87777 24.14881
#
# Velocity S-wave (km/s) = 3.62284 3.73390 3.67879
# Velocity P-wave (km/s) = 7.55959 7.63237 7.59606
#
# Compressibility (1/GPa) = 0.01413512
#
# Stress axis : x y z
#
# Youngs Moduli (GPa) = 46.69683 46.69681 69.88366
#
# Poissons Ratio (x) = 0.56849 0.32593
# Poissons Ratio (y) = 0.56849 0.32593
# Poissons Ratio (z) = 0.21779 0.21779
#
# Static dielectric constant tensor:
#      x y z
#    x 3.297800 0.000000 0.000000 
#    y 0.000000 3.297790 0.000000 
#    z 0.000000 0.000000 3.318410 
# 
# 
# High freq. dielectric constant tensor:
#      x y z
#    x 1.689440 0.000000 0.000000 
#    y 0.000000 1.689440 0.000000 
#    z 0.000000 0.000000 1.688970 
# 
# From -- ./inp_files/1528.got.cif
#   From: 2010.03.12/outbox.cif.g09.slc.cpg/sg136_1_cif.got.tgz:1528.got - 2010.04.06 18:39:43.
