data_PCOD8318386
_publ_section_title
;
Structure prediction by ZEFSAII (Michael W. Deem and Ramdas Pophale) SiO2 
 PCOD8318386
Probable space group: P 42/N M C
;
_chemical_formula_sum "Si O2"
_cell_formula_units_Z 96
_cell_length_a 13.963941
_cell_length_b 13.963941
_cell_length_c 31.628624
_cell_angle_alpha 90.000000
_cell_angle_beta 90.000000
_cell_angle_gamma 90.000000
_cell_volume 6167.317526
_symmetry_space_group_name_H-M "P 42/N M C"
_symmetry_group_IT_number 137
_space_group.IT_coordinate_system_code '2'
_symmetry_cell_setting 'tetragonal'
loop_
_space_group_symop_operation_xyz
x,y,z
1/2-y,x,1/2+z
1/2-x,1/2-y,z
y,1/2-x,1/2+z
1/2+x,-y,-z
-x,1/2+y,-z
1/2+y,1/2+x,1/2-z
-y,-x,1/2-z
-x,-y,-z
1/2+y,-x,1/2-z
1/2+x,1/2+y,-z
-y,1/2+x,1/2-z
1/2-x,y,z
x,1/2-y,z
1/2-y,1/2-x,1/2+z
y,x,1/2+z
loop_
_atom_site_type_symbol
_atom_site_label
_atom_site_fract_x
_atom_site_fract_y
_atom_site_fract_z
Si Si1 0.143883 0.359829 0.999578
Si Si2 0.636792 0.356489 0.547428
Si Si3 0.483557 0.636206 0.126072
Si Si4 0.636367 0.356513 0.703302
Si Si5 0.952164 0.138166 0.039943
Si Si6 0.024348 0.139939 0.414079
O O1 0.250000 0.377535 0.018574
O O2 0.128622 0.250000 0.985869
O O3 0.065441 0.386000 0.035249
O O4 0.127369 0.418229 0.957274
O O5 0.750000 0.350597 0.548969
O O6 0.592388 0.250000 0.551259
O O7 0.601177 0.420711 0.586230
O O8 0.602860 0.401032 0.503192
O O9 0.500146 0.750000 0.126657
O O10 0.430806 0.599030 0.168328
O O11 0.585254 0.581846 0.123034
O O12 0.606294 0.393707 0.750000
O O13 0.750000 0.349284 0.700911
O O14 0.593990 0.250000 0.694474
O O15 0.933830 0.250000 0.048597
O O16 0.907125 0.080397 0.079106
O O17 0.013307 0.250000 0.400327
#
# Coordination Sequence:
#
# PCOD8318386 Si02
#       6
#    16  16  16  16  16  16
#     4   9  17  29  43  58  79 109 144 182 223 265
#     4   9  16  25  38  57  82 112 146 183 219 254
#     4  10  18  28  42  63  90 117 142 173 215 264
#     4   8  14  26  45  69  96 121 140 162 201 258
#     4  10  19  32  44  56  79 114 156 195 229 256
#     4  11  21  30  42  60  84 115 151 188 224 259
#
# _framework density 15.565924000000001
#
# number of rings (size 3 to 8) (size 9 to 14) (size 15 to 20)
#    0.000    2.500    1.667    2.500    0.000    4.000 
#    0.000    0.833    0.000    0.000    0.000    1.167 
#    0.000    1.333    0.000    0.000    0.000    0.000 
#
# Total GULP energy -1190121.033169 kJ/mol
# GULP energy per Si atom -12397.094096 kJ/mol
# Density = 1.553050 g / cm^3
# Si number density = 15.565924 Si / 1000 Ang^3
#
#
#
# Elastic Constant Matrix: (Units=GPa)
#
#
# Indices 1 2 3 4 5 6 
#
# 1 84.8501 35.4173 36.0572 0.0000 0.0000 0.0000
# 2 35.4173 84.8499 36.0571 0.0000 0.0000 0.0000
# 3 36.0572 36.0571 64.3018 0.0000 0.0000 0.0000
# 4 0.0000 0.0000 0.0000 16.2169 0.0000 0.0000
# 5 0.0000 0.0000 0.0000 0.0000 16.2170 0.0000
# 6 0.0000 0.0000 0.0000 0.0000 0.0000 18.2174
#
#
#
# Elastic Compliance Matrix: (Units=1/GPa)
#
#
# Indices 1 2 3 4 5 6 
#
# 1 0.016378 -0.003851 -0.007024 0.000000 0.000000 0.000000
# 2 -0.003851 0.016378 -0.007024 0.000000 0.000000 0.000000
# 3 -0.007024 -0.007024 0.023429 0.000000 0.000000 0.000000
# 4 0.000000 0.000000 0.000000 0.061664 0.000000 0.000000
# 5 0.000000 0.000000 0.000000 0.000000 0.061664 0.000000
# 6 0.000000 0.000000 0.000000 0.000000 0.000000 0.054892
#
#
# Mechanical properties :
#
#
# Convention : Reuss Voigt Hill
#
# Bulk Modulus (GPa) = 49.05441 49.89610 49.47526
# Shear Modulus (GPa) = 18.05046 18.56162 18.30604
#
# Velocity S-wave (km/s) = 3.40900 3.45694 3.43305
# Velocity P-wave (km/s) = 6.86130 6.93240 6.89694
#
# Compressibility (1/GPa) = 0.02038553
#
# Stress axis : x y z
#
# Youngs Moduli (GPa) = 61.05711 61.05697 42.68128
#
# Poissons Ratio (x) = 0.23515 0.29981
# Poissons Ratio (y) = 0.23515 0.29981
# Poissons Ratio (z) = 0.42889 0.42889
#
# Static dielectric constant tensor:
#      x y z
#    x 3.054760 0.000000 0.000000 
#    y 0.000000 3.054760 0.000000 
#    z 0.000000 0.000000 2.778780 
# 
# 
# High freq. dielectric constant tensor:
#      x y z
#    x 1.594110 0.000000 0.000000 
#    y 0.000000 1.594110 0.000000 
#    z 0.000000 0.000000 1.540950 
# 
# From -- ./inp_files/10585.got.cif
#   From: 2010.03.12/outbox.cif.g09.slc.cpg/sg137_6_cif.got.tgz:10585.got - 2010.04.08 09:34:49.
