data_PCOD8318017
_publ_section_title
;
Structure prediction by ZEFSAII (Michael W. Deem and Ramdas Pophale) SiO2 
 PCOD8318017
Probable space group: P 42/M N M
;
_chemical_formula_sum "Si O2"
_cell_formula_units_Z 64
_cell_length_a 20.154612
_cell_length_b 20.154612
_cell_length_c 8.899241
_cell_angle_alpha 90.000000
_cell_angle_beta 90.000000
_cell_angle_gamma 90.000000
_cell_volume 3614.946313
_symmetry_space_group_name_H-M "P 42/M N M"
_symmetry_group_IT_number 136
_symmetry_cell_setting 'tetragonal'
loop_
_space_group_symop_operation_xyz
x,y,z
1/2-y,1/2+x,1/2+z
-x,-y,z
1/2+y,1/2-x,1/2+z
1/2+x,1/2-y,1/2-z
1/2-x,1/2+y,1/2-z
y,x,-z
-y,-x,-z
-x,-y,-z
1/2+y,1/2-x,1/2-z
x,y,-z
1/2-y,1/2+x,1/2-z
1/2-x,1/2+y,1/2+z
1/2+x,1/2-y,1/2+z
-y,-x,z
y,x,z
loop_
_atom_site_type_symbol
_atom_site_label
_atom_site_fract_x
_atom_site_fract_y
_atom_site_fract_z
Si Si1 0.931808 0.674478 0.323122
Si Si2 0.820834 0.570241 0.677475
Si Si3 0.075374 0.817830 0.322066
Si Si4 0.573155 0.323289 0.177145
O O1 0.946245 0.671724 0.500000
O O2 0.875451 0.623696 0.272584
O O3 0.908651 0.748310 0.274424
O O4 0.999507 0.655496 0.239468
O O5 0.813522 0.566435 0.500000
O O6 0.751502 0.594474 0.746339
O O7 0.078159 0.807757 0.500000
O O8 0.126424 0.873577 0.266188
O O9 0.001730 0.840163 0.270424
O O10 0.624987 0.375014 0.252901
O O11 0.578045 0.330330 0.000000
#
# Coordination Sequence:
#
# PCOD8318017 Si02
#       4
#    16  16  16  16
#     4   9  19  34  50  71  98 126 159 201 247 293
#     4  10  20  33  51  73  97 128 164 204 246 291
#     4   9  18  32  49  71 101 133 163 200 245 290
#     4   8  14  27  48  71  94 122 159 200 235 273
#
# _framework density 17.704274999999999
#
# number of rings (size 3 to 8) (size 9 to 14) (size 15 to 20)
#    0.000    3.000    0.000    2.250    0.000    4.500 
#    0.000    7.500    0.000   12.000    0.000    7.000 
#    0.000    0.000    0.000    0.000    0.000    0.000 
#
# Total GULP energy -793448.900601 kJ/mol
# GULP energy per Si atom -12397.639072 kJ/mol
# Density = 1.766398 g / cm^3
# Si number density = 17.704275 Si / 1000 Ang^3
#
#
#
# Elastic Constant Matrix: (Units=GPa)
#
#
# Indices 1 2 3 4 5 6 
#
# 1 148.6796 133.8192 35.9405 0.0000 0.0000 0.0000
# 2 133.8192 148.6796 35.9405 0.0000 0.0000 0.0000
# 3 35.9405 35.9405 31.8221 0.0000 0.0000 0.0000
# 4 0.0000 0.0000 0.0000 22.9629 0.0000 0.0000
# 5 0.0000 0.0000 0.0000 0.0000 22.9629 0.0000
# 6 0.0000 0.0000 0.0000 0.0000 0.0000 45.2139
#
#
#
# Elastic Compliance Matrix: (Units=1/GPa)
#
#
# Indices 1 2 3 4 5 6 
#
# 1 0.036130 -0.031163 -0.005610 0.000000 0.000000 0.000000
# 2 -0.031163 0.036130 -0.005610 0.000000 0.000000 0.000000
# 3 -0.005610 -0.005610 0.044097 0.000000 0.000000 0.000000
# 4 0.000000 0.000000 0.000000 0.043548 0.000000 0.000000
# 5 0.000000 0.000000 0.000000 0.000000 0.043548 0.000000
# 6 0.000000 0.000000 0.000000 0.000000 0.000000 0.022117
#
#
# Mechanical properties :
#
#
# Convention : Reuss Voigt Hill
#
# Bulk Modulus (GPa) = 31.65447 82.28686 56.97067
# Shear Modulus (GPa) = 15.58271 26.46002 21.02136
#
# Velocity S-wave (km/s) = 2.96998 3.87014 3.44955
# Velocity P-wave (km/s) = 5.44788 8.15782 6.93648
#
# Compressibility (1/GPa) = 0.03159111
#
# Stress axis : x y z
#
# Youngs Moduli (GPa) = 27.67772 27.67772 22.67711
#
# Poissons Ratio (x) = 0.86252 0.12722
# Poissons Ratio (y) = 0.86252 0.12722
# Poissons Ratio (z) = 0.15528 0.15528
#
# Static dielectric constant tensor:
#      x y z
#    x 3.484110 0.000000 0.000000 
#    y 0.000000 3.484110 0.000000 
#    z 0.000000 0.000000 3.003250 
# 
# 
# High freq. dielectric constant tensor:
#      x y z
#    x 1.689910 0.000000 0.000000 
#    y 0.000000 1.689910 0.000000 
#    z 0.000000 0.000000 1.657370 
# 
# From -- ./inp_files/1405.got.cif
#   From: 2010.03.12/outbox.cif.g09.slc.cpg/sg136_1_cif.got.tgz:1405.got - 2010.04.06 18:39:43.
