data_PCOD8318114
_publ_section_title
;
Structure prediction by ZEFSAII (Michael W. Deem and Ramdas Pophale) SiO2 
 PCOD8318114
Probable space group: P 42/M N M
;
_chemical_formula_sum "Si O2"
_cell_formula_units_Z 64
_cell_length_a 20.801890
_cell_length_b 20.801890
_cell_length_c 7.656875
_cell_angle_alpha 90.000000
_cell_angle_beta 90.000000
_cell_angle_gamma 90.000000
_cell_volume 3313.272441
_symmetry_space_group_name_H-M "P 42/M N M"
_symmetry_group_IT_number 136
_symmetry_cell_setting 'tetragonal'
loop_
_space_group_symop_operation_xyz
x,y,z
1/2-y,1/2+x,1/2+z
-x,-y,z
1/2+y,1/2-x,1/2+z
1/2+x,1/2-y,1/2-z
1/2-x,1/2+y,1/2-z
y,x,-z
-y,-x,-z
-x,-y,-z
1/2+y,1/2-x,1/2-z
x,y,-z
1/2-y,1/2+x,1/2-z
1/2-x,1/2+y,1/2+z
1/2+x,1/2-y,1/2+z
-y,-x,z
y,x,z
loop_
_atom_site_type_symbol
_atom_site_label
_atom_site_fract_x
_atom_site_fract_y
_atom_site_fract_z
Si Si1 0.793898 0.313041 0.000000
Si Si2 0.287017 0.395011 0.500000
Si Si3 0.227977 0.122825 0.199870
Si Si4 0.013217 0.599851 0.697377
Si Si5 0.515586 0.752093 0.204367
O O1 0.863672 0.283299 0.000000
O O2 0.786133 0.354216 0.823741
O O3 0.743279 0.256722 0.000000
O O4 0.346467 0.346467 0.500000
O O5 0.288416 0.434508 0.679990
O O6 0.163045 0.163045 0.235108
O O7 0.214526 0.050110 0.254174
O O8 0.250699 0.129936 0.000000
O O9 0.066378 0.557209 0.797513
O O10 0.036807 0.601712 0.500000
O O11 0.010346 0.673246 0.767690
O O12 0.533586 0.746688 0.000000
#
# Coordination Sequence:
#
# PCOD8318114 Si02
#       5
#     8   8  16  16  16
#     4   9  20  38  60  86 122 157 194 250 306 361
#     4  11  26  44  61  86 127 170 204 251 315 370
#     4  10  20  36  62  93 120 152 202 258 311 361
#     4  10  22  35  53  82 120 162 198 242 291 352
#     4  11  24  38  62  91 116 163 206 252 306 364
#
# _framework density 19.316251000000001
#
# number of rings (size 3 to 8) (size 9 to 14) (size 15 to 20)
#    0.000    1.750    2.500    1.500    7.000    1.500 
#    0.000    2.500    0.000    1.500    0.000    1.750 
#    0.000    0.000    0.000    0.000    0.000    0.000 
#
# Total GULP energy -793375.815711 kJ/mol
# GULP energy per Si atom -12396.497120 kJ/mol
# Density = 1.927229 g / cm^3
# Si number density = 19.316251 Si / 1000 Ang^3
#
#
#
# Elastic Constant Matrix: (Units=GPa)
#
#
# Indices 1 2 3 4 5 6 
#
# 1 90.4066 41.0877 43.4958 0.0000 0.0000 0.0000
# 2 41.0877 90.4054 43.4966 0.0000 0.0000 0.0000
# 3 43.4958 43.4966 140.1518 0.0000 0.0000 0.0000
# 4 0.0000 0.0000 0.0000 28.1471 0.0000 0.0000
# 5 0.0000 0.0000 0.0000 0.0000 28.1471 0.0000
# 6 0.0000 0.0000 0.0000 0.0000 0.0000 24.6544
#
#
#
# Elastic Compliance Matrix: (Units=1/GPa)
#
#
# Indices 1 2 3 4 5 6 
#
# 1 0.014923 -0.005353 -0.002970 0.000000 0.000000 0.000000
# 2 -0.005353 0.014923 -0.002970 0.000000 0.000000 0.000000
# 3 -0.002970 -0.002970 0.008979 0.000000 0.000000 0.000000
# 4 0.000000 0.000000 0.000000 0.035528 0.000000 0.000000
# 5 0.000000 0.000000 0.000000 0.000000 0.035528 0.000000
# 6 0.000000 0.000000 0.000000 0.000000 0.000000 0.040561
#
#
# Mechanical properties :
#
#
# Convention : Reuss Voigt Hill
#
# Bulk Modulus (GPa) = 61.58313 64.12488 62.85400
# Shear Modulus (GPa) = 28.02060 29.04863 28.53461
#
# Velocity S-wave (km/s) = 3.81284 3.88215 3.84765
# Velocity P-wave (km/s) = 7.16480 7.30508 7.23528
#
# Compressibility (1/GPa) = 0.01623821
#
# Stress axis : x y z
#
# Youngs Moduli (GPa) = 67.01089 67.00939 111.37592
#
# Poissons Ratio (x) = 0.35872 0.33077
# Poissons Ratio (y) = 0.35873 0.33080
# Poissons Ratio (z) = 0.19901 0.19902
#
# Static dielectric constant tensor:
#      x y z
#    x 3.466470 0.000000 0.000000 
#    y 0.000000 3.466460 0.000000 
#    z 0.000000 0.000000 3.376290 
# 
# 
# High freq. dielectric constant tensor:
#      x y z
#    x 1.737450 0.000000 0.000000 
#    y 0.000000 1.737450 0.000000 
#    z 0.000000 0.000000 1.768670 
# 
# From -- ./inp_files/1489.got.cif
#   From: 2010.03.12/outbox.cif.g09.slc.cpg/sg136_1_cif.got.tgz:1489.got - 2010.04.06 18:39:43.
