data_PCOD8318434
_publ_section_title
;
Structure prediction by ZEFSAII (Michael W. Deem and Ramdas Pophale) SiO2 
 PCOD8318434
Probable space group: P 42/N M C
;
_chemical_formula_sum "Si O2"
_cell_formula_units_Z 112
_cell_length_a 31.535789
_cell_length_b 31.535789
_cell_length_c 5.536594
_cell_angle_alpha 90.000000
_cell_angle_beta 90.000000
_cell_angle_gamma 90.000000
_cell_volume 5506.175885
_symmetry_space_group_name_H-M "P 42/N M C"
_symmetry_group_IT_number 137
_space_group.IT_coordinate_system_code '2'
_symmetry_cell_setting 'tetragonal'
loop_
_space_group_symop_operation_xyz
x,y,z
1/2-y,x,1/2+z
1/2-x,1/2-y,z
y,1/2-x,1/2+z
1/2+x,-y,-z
-x,1/2+y,-z
1/2+y,1/2+x,1/2-z
-y,-x,1/2-z
-x,-y,-z
1/2+y,-x,1/2-z
1/2+x,1/2+y,-z
-y,1/2+x,1/2-z
1/2-x,y,z
x,1/2-y,z
1/2-y,1/2-x,1/2+z
y,x,1/2+z
loop_
_atom_site_type_symbol
_atom_site_label
_atom_site_fract_x
_atom_site_fract_y
_atom_site_fract_z
Si Si1 0.200025 0.836103 0.993529
Si Si2 0.392932 0.365350 0.840182
Si Si3 0.044799 0.436829 0.315682
Si Si4 0.455877 0.202790 0.708021
Si Si5 0.847247 0.088512 0.844818
Si Si6 0.958761 0.203744 0.008157
Si Si7 0.644848 0.493785 0.106930
O O1 0.190823 0.809178 0.750000
O O2 0.250000 0.842335 0.012720
O O3 0.184123 0.815878 0.250000
O O4 0.176159 0.881635 0.957255
O O5 0.366110 0.364995 0.587571
O O6 0.424403 0.405563 0.834053
O O7 0.419745 0.321922 0.856965
O O8 0.034739 0.460942 0.571290
O O9 0.013430 0.397462 0.283614
O O10 0.439757 0.250000 0.634631
O O11 0.498391 0.207059 0.857150
O O12 0.466772 0.174519 0.472498
O O13 0.889060 0.110941 0.750000
O O14 0.810450 0.081842 0.645766
O O15 0.864831 0.041406 0.905333
O O16 0.948947 0.250000 0.121528
O O17 0.964193 0.168620 0.207208
#
# Coordination Sequence:
#
# PCOD8318434 Si02
#       7
#    16  16  16  16  16  16  16
#     4  11  25  45  70  97 127 161 204 256 311 373
#     4  10  18  32  53  76 114 158 199 236 292 358
#     4  10  19  33  58  85 115 155 204 245 299 360
#     4  10  20  33  50  86 123 154 191 244 302 361
#     4  10  25  42  59  85 120 161 206 250 308 371
#     4  10  21  36  58  86 119 152 194 242 302 367
#     4  11  21  35  61  85 118 162 201 249 306 375
#
# _framework density 20.340795
#
# number of rings (size 3 to 8) (size 9 to 14) (size 15 to 20)
#    0.000    1.714    2.857    3.000    6.000    2.571 
#    0.000    0.000    0.000    0.857    0.000    0.000 
#    0.000    1.714    0.000    0.000    0.000    0.000 
#
# Total GULP energy -1387597.513388 kJ/mol
# GULP energy per Si atom -12389.263512 kJ/mol
# Density = 2.029450 g / cm^3
# Si number density = 20.340795 Si / 1000 Ang^3
#
#
#
# Elastic Constant Matrix: (Units=GPa)
#
#
# Indices 1 2 3 4 5 6 
#
# 1 69.2474 46.2694 19.5088 0.0000 0.0000 0.0000
# 2 46.2694 69.2539 19.5114 0.0000 0.0000 0.0000
# 3 19.5088 19.5114 120.4628 0.0000 0.0000 0.0000
# 4 0.0000 0.0000 0.0000 18.3551 0.0000 0.0000
# 5 0.0000 0.0000 0.0000 0.0000 18.3562 0.0000
# 6 0.0000 0.0000 0.0000 0.0000 0.0000 -92.1500
#
#
#
# Elastic Compliance Matrix: (Units=1/GPa)
#
#
# Indices 1 2 3 4 5 6 
#
# 1 0.026337 -0.017178 -0.001483 0.000000 0.000000 0.000000
# 2 -0.017178 0.026335 -0.001483 0.000000 0.000000 0.000000
# 3 -0.001483 -0.001483 0.008782 0.000000 0.000000 0.000000
# 4 0.000000 0.000000 0.000000 0.054481 0.000000 0.000000
# 5 0.000000 0.000000 0.000000 0.000000 0.054477 0.000000
# 6 0.000000 0.000000 0.000000 0.000000 0.000000 -0.010852
#
#
# Mechanical properties :
#
#
# Convention : Reuss Voigt Hill
#
# Bulk Modulus (GPa) = 47.24977 47.72705 47.48841
# Shear Modulus (GPa) = 24.16591 0.49057 12.32824
#
# Velocity S-wave (km/s) = 3.45055 0.49163 2.46455
# Velocity P-wave (km/s) = 6.25736 4.88231 5.61211
#
# Compressibility (1/GPa) = 0.02116412
#
# Stress axis : x y z
#
# Youngs Moduli (GPa) = 37.96978 37.97300 113.87275
#
# Poissons Ratio (x) = 0.65231 0.16886
# Poissons Ratio (y) = 0.65225 0.16892
# Poissons Ratio (z) = 0.05630 0.05633
#
# Static dielectric constant tensor:
#      x y z
#    x 3.595850 0.000000 0.000000 
#    y 0.000000 3.595850 0.000000 
#    z 0.000000 0.000000 4.394600 
# 
# 
# High freq. dielectric constant tensor:
#      x y z
#    x 1.773400 0.000000 0.000000 
#    y 0.000000 1.773400 0.000000 
#    z 0.000000 0.000000 1.803720 
# 
# From -- ./inp_files/669.got.cif
#   From: 2010.03.12/outbox.cif.g09.slc.cpg/sg137_1_cif.got.tgz:669.got - 2010.04.08 09:34:49.
