data_PCOD8318472
_publ_section_title
;
Structure prediction by ZEFSAII (Michael W. Deem and Ramdas Pophale) SiO2 
 PCOD8318472
Probable space group: P 42/N M C
;
_chemical_formula_sum "Si O2"
_cell_formula_units_Z 48
_cell_length_a 7.723173
_cell_length_b 7.723173
_cell_length_c 38.409497
_cell_angle_alpha 90.000000
_cell_angle_beta 90.000000
_cell_angle_gamma 90.000000
_cell_volume 2291.026677
_symmetry_space_group_name_H-M "P 42/N M C"
_symmetry_group_IT_number 137
_space_group.IT_coordinate_system_code '2'
_symmetry_cell_setting 'tetragonal'
loop_
_space_group_symop_operation_xyz
x,y,z
1/2-y,x,1/2+z
1/2-x,1/2-y,z
y,1/2-x,1/2+z
1/2+x,-y,-z
-x,1/2+y,-z
1/2+y,1/2+x,1/2-z
-y,-x,1/2-z
-x,-y,-z
1/2+y,-x,1/2-z
1/2+x,1/2+y,-z
-y,1/2+x,1/2-z
1/2-x,y,z
x,1/2-y,z
1/2-y,1/2-x,1/2+z
y,x,1/2+z
loop_
_atom_site_type_symbol
_atom_site_label
_atom_site_fract_x
_atom_site_fract_y
_atom_site_fract_z
Si Si1 0.558255 0.455352 0.788825
Si Si2 0.750000 0.543132 0.164052
Si Si3 0.043107 0.250000 0.414497
Si Si4 0.953831 0.441494 0.538436
O O1 0.494590 0.505411 0.750000
O O2 0.750000 0.533075 0.796591
O O3 0.568554 0.250000 0.791381
O O4 0.421092 0.529610 0.816615
O O5 0.750000 0.750000 0.164812
O O6 0.750000 0.471880 0.124780
O O7 0.250000 0.250000 0.415209
O O8 0.969679 0.420724 0.433981
O O9 0.750000 0.434582 0.542601
O O10 0.032440 0.250000 0.545714
O O11 0.000000 0.500000 0.500000
#
# Coordination Sequence:
#
# PCOD8318472 Si02
#       4
#    16   8   8  16
#     4   8  14  25  42  67  96 124 162 203 242 301
#     4   9  16  26  44  70 100 134 163 203 267 310
#     4   9  18  30  43  69 105 127 165 221 259 309
#     4  10  19  31  49  72  97 130 171 214 259 309
#
# _framework density 20.951305999999999
#
# number of rings (size 3 to 8) (size 9 to 14) (size 15 to 20)
#    0.000    3.000    1.667    1.000    0.000    1.333 
#    0.000    6.667    0.000    0.500    8.667    0.000 
#    0.000    0.000    0.000    0.000    0.000    0.000 
#
# Total GULP energy -594895.542438 kJ/mol
# GULP energy per Si atom -12393.657134 kJ/mol
# Density = 2.090362 g / cm^3
# Si number density = 20.951306 Si / 1000 Ang^3
#
#
#
# Elastic Constant Matrix: (Units=GPa)
#
#
# Indices 1 2 3 4 5 6 
#
# 1 99.4252 23.0798 64.6323 0.0000 0.0000 0.0000
# 2 23.0798 99.4250 64.6322 0.0000 0.0000 0.0000
# 3 64.6323 64.6322 208.0898 0.0000 0.0000 0.0000
# 4 0.0000 0.0000 0.0000 23.5661 0.0000 0.0000
# 5 0.0000 0.0000 0.0000 0.0000 23.5662 0.0000
# 6 0.0000 0.0000 0.0000 0.0000 0.0000 5.7540
#
#
#
# Elastic Compliance Matrix: (Units=1/GPa)
#
#
# Indices 1 2 3 4 5 6 
#
# 1 0.012620 -0.000478 -0.003771 0.000000 0.000000 0.000000
# 2 -0.000478 0.012620 -0.003771 0.000000 0.000000 0.000000
# 3 -0.003771 -0.003771 0.007148 0.000000 0.000000 0.000000
# 4 0.000000 0.000000 0.000000 0.042434 0.000000 0.000000
# 5 0.000000 0.000000 0.000000 0.000000 0.042434 0.000000
# 6 0.000000 0.000000 0.000000 0.000000 0.000000 0.173793
#
#
# Mechanical properties :
#
#
# Convention : Reuss Voigt Hill
#
# Bulk Modulus (GPa) = 61.17092 79.06984 70.12038
# Shear Modulus (GPa) = 15.99791 27.55029 21.77410
#
# Velocity S-wave (km/s) = 2.76628 3.63018 3.22727
# Velocity P-wave (km/s) = 6.28197 7.44263 6.88680
#
# Compressibility (1/GPa) = 0.01634764
#
# Stress axis : x y z
#
# Youngs Moduli (GPa) = 79.23675 79.23657 139.89137
#
# Poissons Ratio (x) = 0.03787 0.52759
# Poissons Ratio (y) = 0.03787 0.52759
# Poissons Ratio (z) = 0.29883 0.29883
#
# Static dielectric constant tensor:
#      x y z
#    x 3.834720 0.000000 0.000000 
#    y 0.000000 3.834730 0.000000 
#    z 0.000000 0.000000 3.889590 
# 
# 
# High freq. dielectric constant tensor:
#      x y z
#    x 1.801560 0.000000 0.000000 
#    y 0.000000 1.801560 0.000000 
#    z 0.000000 0.000000 1.812410 
# 
# From -- ./inp_files/10051.got.cif
#   From: 2010.03.12/outbox.cif.g09.slc.cpg/sg137_6_cif.got.tgz:10051.got - 2010.04.08 09:34:49.
