data_PCOD8318959
_publ_section_title
;
Structure prediction by ZEFSAII (Michael W. Deem and Ramdas Pophale) SiO2 
 PCOD8318959
Probable space group: P 42/N C M
;
_chemical_formula_sum "Si O2"
_cell_formula_units_Z 112
_cell_length_a 14.350252
_cell_length_b 14.350252
_cell_length_c 27.621818
_cell_angle_alpha 90.000000
_cell_angle_beta 90.000000
_cell_angle_gamma 90.000000
_cell_volume 5688.153591
_symmetry_space_group_name_H-M "P 42/N C M"
_symmetry_group_IT_number 138
_space_group.IT_coordinate_system_code '2'
_symmetry_cell_setting 'tetragonal'
loop_
_space_group_symop_operation_xyz
x,y,z
1/2-y,x,1/2+z
1/2-x,1/2-y,z
y,1/2-x,1/2+z
1/2+x,-y,1/2-z
-x,1/2+y,1/2-z
1/2+y,1/2+x,-z
-y,-x,-z
-x,-y,-z
1/2+y,-x,1/2-z
1/2+x,1/2+y,-z
-y,1/2+x,1/2-z
1/2-x,y,1/2+z
x,1/2-y,1/2+z
1/2-y,1/2-x,z
y,x,z
loop_
_atom_site_type_symbol
_atom_site_label
_atom_site_fract_x
_atom_site_fract_y
_atom_site_fract_z
Si Si1 0.439329 0.284613 0.425112
Si Si2 0.811522 0.111869 0.240956
Si Si3 0.483423 0.632635 0.144273
Si Si4 0.283765 0.437109 0.533376
Si Si5 0.154376 0.006853 0.671112
Si Si6 0.068225 0.578932 0.925800
Si Si7 0.487015 0.342141 0.118888
O O1 0.358219 0.358219 0.407722
O O2 0.450745 0.199543 0.388250
O O3 0.414679 0.249161 0.479257
O O4 0.544219 0.326169 0.429868
O O5 0.707120 0.130224 0.259497
O O6 0.810986 0.063252 0.188436
O O7 0.862175 0.042370 0.277853
O O8 0.552361 0.552361 0.164154
O O9 0.397977 0.585536 0.113632
O O10 0.354466 0.354466 0.551573
O O11 0.337711 0.536979 0.538325
O O12 0.194583 0.447603 0.567570
O O13 0.110390 0.110390 0.673032
O O14 0.262946 0.009287 0.659175
O O15 0.104507 0.946841 0.629921
O O16 0.010769 0.489232 0.942272
O O17 0.413211 0.413211 0.140691
#
# Coordination Sequence:
#
# PCOD8318959 Si02
#       7
#    16  16  16  16  16  16  16
#     4  10  20  36  58  84 116 158 200 241 294 355
#     4  11  22  39  63  88 113 147 189 239 293 358
#     4  11  24  41  58  82 121 158 195 246 300 360
#     4   9  18  33  57  87 119 155 199 243 288 348
#     4  10  19  35  59  86 113 144 185 233 290 352
#     4   8  15  30  55  85 113 142 182 237 289 339
#     4  10  21  38  57  81 114 152 194 243 294 341
#
# _framework density 19.690044
#
# number of rings (size 3 to 8) (size 9 to 14) (size 15 to 20)
#    0.000    2.143    1.429    3.000    0.000    4.286 
#    0.000    4.286    0.000    5.143    0.000    0.000 
#    0.000    0.000    0.000    0.000    0.000    0.000 
#
# Total GULP energy -1387725.681834 kJ/mol
# GULP energy per Si atom -12390.407874 kJ/mol
# Density = 1.964523 g / cm^3
# Si number density = 19.690044 Si / 1000 Ang^3
#
#
#
# Elastic Constant Matrix: (Units=GPa)
#
#
# Indices 1 2 3 4 5 6 
#
# 1 84.1302 35.9493 34.1123 0.0000 0.0000 0.0000
# 2 35.9493 84.1302 34.1123 0.0000 0.0000 0.0000
# 3 34.1123 34.1123 104.3982 0.0000 0.0000 0.0000
# 4 0.0000 0.0000 0.0000 15.7572 0.0000 0.0000
# 5 0.0000 0.0000 0.0000 0.0000 15.7572 0.0000
# 6 0.0000 0.0000 0.0000 0.0000 0.0000 30.4386
#
#
#
# Elastic Compliance Matrix: (Units=1/GPa)
#
#
# Indices 1 2 3 4 5 6 
#
# 1 0.015491 -0.005264 -0.003341 0.000000 0.000000 0.000000
# 2 -0.005264 0.015491 -0.003341 0.000000 0.000000 0.000000
# 3 -0.003341 -0.003341 0.011762 0.000000 0.000000 0.000000
# 4 0.000000 0.000000 0.000000 0.063463 0.000000 0.000000
# 5 0.000000 0.000000 0.000000 0.000000 0.063463 0.000000
# 6 0.000000 0.000000 0.000000 0.000000 0.000000 0.032853
#
#
# Mechanical properties :
#
#
# Convention : Reuss Voigt Hill
#
# Bulk Modulus (GPa) = 53.05285 53.44515 53.24900
# Shear Modulus (GPa) = 21.48686 23.62293 22.55490
#
# Velocity S-wave (km/s) = 3.30700 3.46748 3.38819
# Velocity P-wave (km/s) = 6.44858 6.57521 6.51220
#
# Compressibility (1/GPa) = 0.01884913
#
# Stress axis : x y z
#
# Youngs Moduli (GPa) = 64.55487 64.55487 85.01692
#
# Poissons Ratio (x) = 0.33984 0.28408
# Poissons Ratio (y) = 0.33984 0.28408
# Poissons Ratio (z) = 0.21571 0.21571
#
# Static dielectric constant tensor:
#      x y z
#    x 3.570320 0.000000 0.000000 
#    y 0.000000 3.570320 0.000000 
#    z 0.000000 0.000000 3.435220 
# 
# 
# High freq. dielectric constant tensor:
#      x y z
#    x 1.760380 0.000000 0.000000 
#    y 0.000000 1.760380 0.000000 
#    z 0.000000 0.000000 1.759410 
# 
# From -- ./inp_files/7582.got.cif
#   From: 2010.03.12/outbox.cif.g09.slc.cpg/sg138_4_cif.got.tgz:7582.got - 2010.04.08 09:41:05.
