data_PCOD8318131
_publ_section_title
;
Structure prediction by ZEFSAII (Michael W. Deem and Ramdas Pophale) SiO2 
 PCOD8318131
Probable space group: P 42/M N M
;
_chemical_formula_sum "Si O2"
_cell_formula_units_Z 96
_cell_length_a 14.001764
_cell_length_b 14.001764
_cell_length_c 21.898758
_cell_angle_alpha 90.000000
_cell_angle_beta 90.000000
_cell_angle_gamma 90.000000
_cell_volume 4293.238260
_symmetry_space_group_name_H-M "P 42/M N M"
_symmetry_group_IT_number 136
_symmetry_cell_setting 'tetragonal'
loop_
_space_group_symop_operation_xyz
x,y,z
1/2-y,1/2+x,1/2+z
-x,-y,z
1/2+y,1/2-x,1/2+z
1/2+x,1/2-y,1/2-z
1/2-x,1/2+y,1/2-z
y,x,-z
-y,-x,-z
-x,-y,-z
1/2+y,1/2-x,1/2-z
x,y,-z
1/2-y,1/2+x,1/2-z
1/2-x,1/2+y,1/2+z
1/2+x,1/2-y,1/2+z
-y,-x,z
y,x,z
loop_
_atom_site_type_symbol
_atom_site_label
_atom_site_fract_x
_atom_site_fract_y
_atom_site_fract_z
Si Si1 0.560949 0.709665 0.116541
Si Si2 0.426328 0.573673 0.303903
Si Si3 0.613654 0.163336 0.432816
Si Si4 0.278539 0.125170 0.570675
Si Si5 0.901692 0.542615 0.341142
Si Si6 0.560694 0.721922 0.257102
Si Si7 0.614271 0.385730 0.564985
O O1 0.602979 0.602979 0.115933
O O2 0.636418 0.778549 0.083801
O O3 0.461108 0.704103 0.080554
O O4 0.548307 0.744279 0.186280
O O5 0.500000 0.500000 0.273785
O O6 0.459714 0.677390 0.280744
O O7 0.434977 0.565024 0.377278
O O8 0.590645 0.121646 0.500000
O O9 0.545055 0.122480 0.383171
O O10 0.595817 0.274699 0.432252
O O11 0.311856 0.130279 0.500000
O O12 0.225155 0.225155 0.588001
O O13 0.365809 0.095379 0.614249
O O14 0.824606 0.569908 0.289464
O O15 0.000000 0.500000 0.311735
O O16 0.652103 0.652103 0.271425
O O17 0.573754 0.426246 0.500000
#
# Coordination Sequence:
#
# PCOD8318131 Si02
#       7
#    16   8  16  16  16  16   8
#     4  11  24  43  68  95 128 170 217 270 331 391
#     4  10  20  41  68  92 127 171 221 267 326 392
#     4  11  22  39  65  96 130 168 213 268 327 386
#     4  11  26  46  66  94 135 178 219 271 334 395
#     4  12  24  43  68  95 132 172 222 266 326 393
#     4  10  24  44  66  95 134 177 215 267 329 396
#     4  10  20  37  64  98 131 165 211 271 331 381
#
# _framework density 22.360744
#
# number of rings (size 3 to 8) (size 9 to 14) (size 15 to 20)
#    0.000    1.167    4.167    1.500    1.167    3.500 
#    3.000    0.833    0.000    0.000    0.000    0.000 
#    0.000    0.000    0.000    0.000    0.000    0.000 
#
# Total GULP energy -1189521.493782 kJ/mol
# GULP energy per Si atom -12390.848894 kJ/mol
# Density = 2.230985 g / cm^3
# Si number density = 22.360744 Si / 1000 Ang^3
#
#
#
# Elastic Constant Matrix: (Units=GPa)
#
#
# Indices 1 2 3 4 5 6 
#
# 1 74.3798 35.2267 10.9728 0.0000 0.0000 0.0000
# 2 35.2267 74.3796 10.9729 0.0000 0.0000 0.0000
# 3 10.9728 10.9729 69.3394 0.0000 0.0000 0.0000
# 4 0.0000 0.0000 0.0000 53.2013 0.0000 0.0000
# 5 0.0000 0.0000 0.0000 0.0000 53.2018 0.0000
# 6 0.0000 0.0000 0.0000 0.0000 0.0000 32.7067
#
#
#
# Elastic Compliance Matrix: (Units=1/GPa)
#
#
# Indices 1 2 3 4 5 6 
#
# 1 0.017481 -0.008059 -0.001491 0.000000 0.000000 0.000000
# 2 -0.008059 0.017482 -0.001491 0.000000 0.000000 0.000000
# 3 -0.001491 -0.001491 0.014894 0.000000 0.000000 0.000000
# 4 0.000000 0.000000 0.000000 0.018797 0.000000 0.000000
# 5 0.000000 0.000000 0.000000 0.000000 0.018796 0.000000
# 6 0.000000 0.000000 0.000000 0.000000 0.000000 0.030575
#
#
# Mechanical properties :
#
#
# Convention : Reuss Voigt Hill
#
# Bulk Modulus (GPa) = 36.00519 36.93819 36.47169
# Shear Modulus (GPa) = 33.47501 38.55037 36.01269
#
# Velocity S-wave (km/s) = 3.87336 4.15664 4.01750
# Velocity P-wave (km/s) = 6.01172 6.29221 6.15357
#
# Compressibility (1/GPa) = 0.02777378
#
# Stress axis : x y z
#
# Youngs Moduli (GPa) = 57.20353 57.20329 67.14238
#
# Poissons Ratio (x) = 0.46102 0.10011
# Poissons Ratio (y) = 0.46103 0.10011
# Poissons Ratio (z) = 0.08529 0.08529
#
# Static dielectric constant tensor:
#      x y z
#    x 4.009950 0.000000 0.000000 
#    y 0.000000 4.009950 0.000000 
#    z 0.000000 0.000000 4.223030 
# 
# 
# High freq. dielectric constant tensor:
#      x y z
#    x 1.878240 0.000000 0.000000 
#    y 0.000000 1.878240 0.000000 
#    z 0.000000 0.000000 1.894170 
# 
# From -- ./inp_files/7553.got.cif
#   From: 2010.03.12/outbox.cif.g09.slc.cpg/sg136_4_cif.got.tgz:7553.got - 2010.04.06 18:39:43.
