data_PCOD8318385
_publ_section_title
;
Structure prediction by ZEFSAII (Michael W. Deem and Ramdas Pophale) SiO2 
 PCOD8318385
Probable space group: P 42/N M C
;
_chemical_formula_sum "Si O2"
_cell_formula_units_Z 96
_cell_length_a 14.282360
_cell_length_b 14.282360
_cell_length_c 30.218937
_cell_angle_alpha 90.000000
_cell_angle_beta 90.000000
_cell_angle_gamma 90.000000
_cell_volume 6164.234256
_symmetry_space_group_name_H-M "P 42/N M C"
_symmetry_group_IT_number 137
_space_group.IT_coordinate_system_code '2'
_symmetry_cell_setting 'tetragonal'
loop_
_space_group_symop_operation_xyz
x,y,z
1/2-y,x,1/2+z
1/2-x,1/2-y,z
y,1/2-x,1/2+z
1/2+x,-y,-z
-x,1/2+y,-z
1/2+y,1/2+x,1/2-z
-y,-x,1/2-z
-x,-y,-z
1/2+y,-x,1/2-z
1/2+x,1/2+y,-z
-y,1/2+x,1/2-z
1/2-x,y,z
x,1/2-y,z
1/2-y,1/2-x,1/2+z
y,x,1/2+z
loop_
_atom_site_type_symbol
_atom_site_label
_atom_site_fract_x
_atom_site_fract_y
_atom_site_fract_z
Si Si1 0.150468 0.948576 0.547184
Si Si2 0.113461 0.854979 0.454911
Si Si3 0.359121 0.029626 0.919353
Si Si4 0.511054 0.145065 0.874544
Si Si5 0.353052 0.406036 0.018832
Si Si6 0.354439 0.638854 0.200588
O O1 0.250000 0.927327 0.570276
O O2 0.148371 0.893181 0.501425
O O3 0.070628 0.910610 0.579553
O O4 0.150994 0.060519 0.538398
O O5 0.153042 0.750000 0.447530
O O6 0.150059 0.922783 0.417143
O O7 0.002109 0.853173 0.454473
O O8 0.250000 0.019417 0.906008
O O9 0.414824 0.089020 0.882745
O O10 0.370188 0.078706 0.966735
O O11 0.480555 0.250000 0.861874
O O12 0.570297 0.098105 0.834394
O O13 0.250000 0.357657 0.025322
O O14 0.388125 0.611876 0.250000
O O15 0.250000 0.597783 0.191042
O O16 0.349095 0.750000 0.195900
#
# Coordination Sequence:
#
# PCOD8318385 Si02
#       6
#    16  16  16  16  16  16
#     4  11  19  30  45  60  84 120 159 194 230 264
#     4  10  18  28  42  61  86 114 151 193 225 257
#     4  10  20  33  44  60  89 118 151 192 230 265
#     4  11  19  28  45  67  90 117 150 183 219 265
#     4   9  17  30  44  57  84 121 152 189 231 266
#     4   8  15  28  45  68  97 120 137 166 213 270
#
# _framework density 15.57371
#
# number of rings (size 3 to 8) (size 9 to 14) (size 15 to 20)
#    0.000    2.167    3.333    4.000    0.000    3.667 
#    0.000    1.667    0.000    0.000    0.000    1.167 
#    0.000    1.333    0.000    0.000    0.000    0.000 
#
# Total GULP energy -1189653.129985 kJ/mol
# GULP energy per Si atom -12392.220104 kJ/mol
# Density = 1.553826 g / cm^3
# Si number density = 15.573710 Si / 1000 Ang^3
#
#
#
# Elastic Constant Matrix: (Units=GPa)
#
#
# Indices 1 2 3 4 5 6 
#
# 1 94.5079 36.3927 22.6363 0.0000 0.0000 0.0000
# 2 36.3927 94.5081 22.6363 0.0000 0.0000 0.0000
# 3 22.6363 22.6363 48.5301 0.0000 0.0000 0.0000
# 4 0.0000 0.0000 0.0000 14.3932 0.0000 0.0000
# 5 0.0000 0.0000 0.0000 0.0000 14.3932 0.0000
# 6 0.0000 0.0000 0.0000 0.0000 0.0000 2.5053
#
#
#
# Elastic Compliance Matrix: (Units=1/GPa)
#
#
# Indices 1 2 3 4 5 6 
#
# 1 0.013158 -0.004049 -0.004249 0.000000 0.000000 0.000000
# 2 -0.004049 0.013158 -0.004249 0.000000 0.000000 0.000000
# 3 -0.004249 -0.004249 0.024569 0.000000 0.000000 0.000000
# 4 0.000000 0.000000 0.000000 0.069477 0.000000 0.000000
# 5 0.000000 0.000000 0.000000 0.000000 0.069477 0.000000
# 6 0.000000 0.000000 0.000000 0.000000 0.000000 0.399150
#
#
# Mechanical properties :
#
#
# Convention : Reuss Voigt Hill
#
# Bulk Modulus (GPa) = 38.77155 44.54186 41.65671
# Shear Modulus (GPa) = 8.02980 16.65040 12.34010
#
# Velocity S-wave (km/s) = 2.27315 3.27331 2.81796
# Velocity P-wave (km/s) = 5.64262 6.55354 6.11506
#
# Compressibility (1/GPa) = 0.02579211
#
# Stress axis : x y z
#
# Youngs Moduli (GPa) = 75.99937 75.99950 40.70121
#
# Poissons Ratio (x) = 0.30774 0.17293
# Poissons Ratio (y) = 0.30774 0.17293
# Poissons Ratio (z) = 0.32290 0.32290
#
# Static dielectric constant tensor:
#      x y z
#    x 2.822980 0.000000 0.000000 
#    y 0.000000 2.823040 0.000000 
#    z 0.000000 0.000000 2.728910 
# 
# 
# High freq. dielectric constant tensor:
#      x y z
#    x 1.596250 0.000000 0.000000 
#    y 0.000000 1.596250 0.000000 
#    z 0.000000 0.000000 1.541720 
# 
# From -- ./inp_files/10583.got.cif
#   From: 2010.03.12/outbox.cif.g09.slc.cpg/sg137_6_cif.got.tgz:10583.got - 2010.04.08 09:34:49.
