data_PCOD8318374
_publ_section_title
;
Structure prediction by ZEFSAII (Michael W. Deem and Ramdas Pophale) SiO2 
 PCOD8318374
Probable space group: P 42/N M C
;
_chemical_formula_sum "Si O2"
_cell_formula_units_Z 72
_cell_length_a 12.317773
_cell_length_b 12.317773
_cell_length_c 24.814599
_cell_angle_alpha 90.000000
_cell_angle_beta 90.000000
_cell_angle_gamma 90.000000
_cell_volume 3765.057856
_symmetry_space_group_name_H-M "P 42/N M C"
_symmetry_group_IT_number 137
_space_group.IT_coordinate_system_code '2'
_symmetry_cell_setting 'tetragonal'
loop_
_space_group_symop_operation_xyz
x,y,z
1/2-y,x,1/2+z
1/2-x,1/2-y,z
y,1/2-x,1/2+z
1/2+x,-y,-z
-x,1/2+y,-z
1/2+y,1/2+x,1/2-z
-y,-x,1/2-z
-x,-y,-z
1/2+y,-x,1/2-z
1/2+x,1/2+y,-z
-y,1/2+x,1/2-z
1/2-x,y,z
x,1/2-y,z
1/2-y,1/2-x,1/2+z
y,x,1/2+z
loop_
_atom_site_type_symbol
_atom_site_label
_atom_site_fract_x
_atom_site_fract_y
_atom_site_fract_z
Si Si1 0.523407 0.250000 0.191253
Si Si2 0.375667 0.873091 0.993022
Si Si3 0.530236 0.548582 0.421704
Si Si4 0.120112 0.250000 0.292692
Si Si5 0.486707 0.953560 0.691722
Si Si6 0.367684 0.250000 0.095607
O O1 0.420395 0.250000 0.231421
O O2 0.592123 0.361376 0.197148
O O3 0.472336 0.250000 0.132799
O O4 0.250000 0.872621 0.979475
O O5 0.421618 0.750000 0.992510
O O6 0.430313 0.947547 0.947178
O O7 0.397584 0.924327 0.051912
O O8 0.507607 0.539771 0.357279
O O9 0.636151 0.622292 0.436774
O O10 0.250000 0.250000 0.296835
O O11 0.070722 0.142937 0.321255
O O12 0.511613 0.011613 0.750000
O O13 0.250000 0.250000 0.124252
#
# Coordination Sequence:
#
# PCOD8318374 Si02
#       6
#     8  16  16   8  16   8
#     4   8  17  33  50  75 106 146 182 221 266 328
#     4  10  21  37  56  76 106 147 184 226 277 322
#     4  10  20  35  55  80 108 141 182 227 274 332
#     4  10  19  31  49  76 111 147 179 222 285 333
#     4   9  19  34  53  79 111 143 184 228 281 340
#     4  10  17  30  54  82 106 132 174 225 270 321
#
# _framework density 19.123213
#
# number of rings (size 3 to 8) (size 9 to 14) (size 15 to 20)
#    0.000    2.444    1.111    1.000    1.556    1.333 
#    0.000    3.333    0.000    0.000    0.000    1.556 
#    0.000    3.556    0.000    0.000    0.000    0.000 
#
# Total GULP energy -891950.379859 kJ/mol
# GULP energy per Si atom -12388.199720 kJ/mol
# Density = 1.907969 g / cm^3
# Si number density = 19.123213 Si / 1000 Ang^3
#
#
#
# Elastic Constant Matrix: (Units=GPa)
#
#
# Indices 1 2 3 4 5 6 
#
# 1 85.6313 32.3732 7.5209 0.0000 0.0000 0.0000
# 2 32.3732 85.6313 7.5209 0.0000 0.0000 0.0000
# 3 7.5209 7.5209 85.1984 0.0000 0.0000 0.0000
# 4 0.0000 0.0000 0.0000 22.5016 0.0000 0.0000
# 5 0.0000 0.0000 0.0000 0.0000 22.5016 0.0000
# 6 0.0000 0.0000 0.0000 0.0000 0.0000 23.4982
#
#
#
# Elastic Compliance Matrix: (Units=1/GPa)
#
#
# Indices 1 2 3 4 5 6 
#
# 1 0.013674 -0.005103 -0.000757 0.000000 0.000000 0.000000
# 2 -0.005103 0.013674 -0.000757 0.000000 0.000000 0.000000
# 3 -0.000757 -0.000757 0.011871 0.000000 0.000000 0.000000
# 4 0.000000 0.000000 0.000000 0.044441 0.000000 0.000000
# 5 0.000000 0.000000 0.000000 0.000000 0.044441 0.000000
# 6 0.000000 0.000000 0.000000 0.000000 0.000000 0.042556
#
#
# Mechanical properties :
#
#
# Convention : Reuss Voigt Hill
#
# Bulk Modulus (GPa) = 38.48232 39.03233 38.75732
# Shear Modulus (GPa) = 25.96713 27.63669 26.80191
#
# Velocity S-wave (km/s) = 3.68895 3.80569 3.74777
# Velocity P-wave (km/s) = 6.18963 6.30605 6.24811
#
# Compressibility (1/GPa) = 0.02598596
#
# Stress axis : x y z
#
# Youngs Moduli (GPa) = 73.13368 73.13368 84.23970
#
# Poissons Ratio (x) = 0.37319 0.06373
# Poissons Ratio (y) = 0.37319 0.06373
# Poissons Ratio (z) = 0.05533 0.05533
#
# Static dielectric constant tensor:
#      x y z
#    x 3.494150 0.000000 0.000000 
#    y 0.000000 3.494150 0.000000 
#    z 0.000000 0.000000 3.461900 
# 
# 
# High freq. dielectric constant tensor:
#      x y z
#    x 1.730350 0.000000 0.000000 
#    y 0.000000 1.730350 0.000000 
#    z 0.000000 0.000000 1.735490 
# 
# From -- ./inp_files/9580.got.cif
#   From: 2010.03.12/outbox.cif.g09.slc.cpg/sg137_5_cif.got.tgz:9580.got - 2010.04.08 09:34:49.
