data_PCOD8318059
_publ_section_title
;
Structure prediction by ZEFSAII (Michael W. Deem and Ramdas Pophale) SiO2 
 PCOD8318059
Probable space group: P 42/M N M
;
_chemical_formula_sum "Si O2"
_cell_formula_units_Z 72
_cell_length_a 17.174797
_cell_length_b 17.174797
_cell_length_c 13.866259
_cell_angle_alpha 90.000000
_cell_angle_beta 90.000000
_cell_angle_gamma 90.000000
_cell_volume 4090.181057
_symmetry_space_group_name_H-M "P 42/M N M"
_symmetry_group_IT_number 136
_symmetry_cell_setting 'tetragonal'
loop_
_space_group_symop_operation_xyz
x,y,z
1/2-y,1/2+x,1/2+z
-x,-y,z
1/2+y,1/2-x,1/2+z
1/2+x,1/2-y,1/2-z
1/2-x,1/2+y,1/2-z
y,x,-z
-y,-x,-z
-x,-y,-z
1/2+y,1/2-x,1/2-z
x,y,-z
1/2-y,1/2+x,1/2-z
1/2-x,1/2+y,1/2+z
1/2+x,1/2-y,1/2+z
-y,-x,z
y,x,z
loop_
_atom_site_type_symbol
_atom_site_label
_atom_site_fract_x
_atom_site_fract_y
_atom_site_fract_z
Si Si1 0.873735 0.996074 0.000000
Si Si2 0.700749 0.574885 0.672135
Si Si3 0.325327 0.799813 0.109783
Si Si4 0.015492 0.316642 0.720033
Si Si5 0.572298 0.942932 0.109444
O O1 0.822305 0.009696 0.905566
O O2 0.942207 0.057794 0.000000
O O3 0.908572 0.908572 0.000000
O O4 0.626900 0.626900 0.705022
O O5 0.767557 0.628968 0.627725
O O6 0.733739 0.526487 0.762736
O O7 0.281181 0.718819 0.130100
O O8 0.399009 0.804430 0.178722
O O9 0.354651 0.804176 0.000000
O O10 0.022099 0.360878 0.822513
O O11 0.958490 0.360158 0.646244
O O12 0.500000 0.000000 0.114358
O O13 0.604260 0.935142 0.000000
#
# Coordination Sequence:
#
# PCOD8318059 Si02
#       5
#     8  16  16  16  16
#     4   9  18  34  56  82 109 142 185 227 275 330
#     4  10  20  34  55  79 110 147 183 227 277 329
#     4  10  20  36  59  83 108 146 194 236 274 325
#     4  12  20  35  55  80 111 146 184 226 281 336
#     4  11  21  33  51  81 113 141 178 226 278 333
#
# _framework density 17.603133
#
# number of rings (size 3 to 8) (size 9 to 14) (size 15 to 20)
#    0.000    1.444    5.556    0.667    1.556    2.667 
#    0.000    0.000    0.000    4.000    0.000    1.556 
#    0.000    0.000    0.000    0.000    0.000    0.000 
#
# Total GULP energy -892798.183109 kJ/mol
# GULP energy per Si atom -12399.974765 kJ/mol
# Density = 1.756307 g / cm^3
# Si number density = 17.603133 Si / 1000 Ang^3
#
#
#
# Elastic Constant Matrix: (Units=GPa)
#
#
# Indices 1 2 3 4 5 6 
#
# 1 78.0460 31.2090 38.1889 0.0000 0.0000 0.0000
# 2 31.2090 78.0454 38.1888 0.0000 0.0000 0.0000
# 3 38.1889 38.1888 99.6131 0.0000 0.0000 0.0000
# 4 0.0000 0.0000 0.0000 29.2433 0.0000 0.0000
# 5 0.0000 0.0000 0.0000 0.0000 29.2432 0.0000
# 6 0.0000 0.0000 0.0000 0.0000 0.0000 31.2039
#
#
#
# Elastic Compliance Matrix: (Units=1/GPa)
#
#
# Indices 1 2 3 4 5 6 
#
# 1 0.016927 -0.004423 -0.004794 0.000000 0.000000 0.000000
# 2 -0.004423 0.016928 -0.004794 0.000000 0.000000 0.000000
# 3 -0.004794 -0.004794 0.013714 0.000000 0.000000 0.000000
# 4 0.000000 0.000000 0.000000 0.034196 0.000000 0.000000
# 5 0.000000 0.000000 0.000000 0.000000 0.034196 0.000000
# 6 0.000000 0.000000 0.000000 0.000000 0.000000 0.032047
#
#
# Mechanical properties :
#
#
# Convention : Reuss Voigt Hill
#
# Bulk Modulus (GPa) = 51.15682 52.31976 51.73829
# Shear Modulus (GPa) = 27.39035 27.81258 27.60146
#
# Velocity S-wave (km/s) = 3.94889 3.97921 3.96408
# Velocity P-wave (km/s) = 7.06512 7.13432 7.09980
#
# Compressibility (1/GPa) = 0.01954774
#
# Stress axis : x y z
#
# Youngs Moduli (GPa) = 59.07586 59.07537 72.91596
#
# Poissons Ratio (x) = 0.26131 0.34954
# Poissons Ratio (y) = 0.26131 0.34954
# Poissons Ratio (z) = 0.28319 0.28319
#
# Static dielectric constant tensor:
#      x y z
#    x 3.398730 0.000000 0.000000 
#    y 0.000000 3.398730 0.000000 
#    z 0.000000 0.000000 3.346770 
# 
# 
# High freq. dielectric constant tensor:
#      x y z
#    x 1.674710 0.000000 0.000000 
#    y 0.000000 1.674710 0.000000 
#    z 0.000000 0.000000 1.671820 
# 
# From -- ./inp_files/3427.got.cif
#   From: 2010.03.12/outbox.cif.g09.slc.cpg/sg136_2_cif.got.tgz:3427.got - 2010.04.06 18:39:43.
