data_PCOD8318440
_publ_section_title
;
Structure prediction by ZEFSAII (Michael W. Deem and Ramdas Pophale) SiO2 
 PCOD8318440
Probable space group: P 42/N M C
;
_chemical_formula_sum "Si O2"
_cell_formula_units_Z 96
_cell_length_a 21.907368
_cell_length_b 21.907368
_cell_length_c 9.988188
_cell_angle_alpha 90.000000
_cell_angle_beta 90.000000
_cell_angle_gamma 90.000000
_cell_volume 4793.658761
_symmetry_space_group_name_H-M "P 42/N M C"
_symmetry_group_IT_number 137
_space_group.IT_coordinate_system_code '2'
_symmetry_cell_setting 'tetragonal'
loop_
_space_group_symop_operation_xyz
x,y,z
1/2-y,x,1/2+z
1/2-x,1/2-y,z
y,1/2-x,1/2+z
1/2+x,-y,-z
-x,1/2+y,-z
1/2+y,1/2+x,1/2-z
-y,-x,1/2-z
-x,-y,-z
1/2+y,-x,1/2-z
1/2+x,1/2+y,-z
-y,1/2+x,1/2-z
1/2-x,y,z
x,1/2-y,z
1/2-y,1/2-x,1/2+z
y,x,1/2+z
loop_
_atom_site_type_symbol
_atom_site_label
_atom_site_fract_x
_atom_site_fract_y
_atom_site_fract_z
Si Si1 0.395770 0.820374 0.025409
Si Si2 0.012628 0.822202 0.797179
Si Si3 0.030216 0.625502 0.253256
Si Si4 0.320152 0.093204 0.326305
Si Si5 0.566934 0.178480 0.478677
Si Si6 0.678810 0.620866 0.373708
O O1 0.377077 0.750000 0.006988
O O2 0.421101 0.832282 0.173998
O O3 0.336386 0.861313 0.995818
O O4 0.447558 0.843429 0.923127
O O5 0.012856 0.750000 0.793679
O O6 0.041115 0.848513 0.660586
O O7 0.943882 0.845408 0.817768
O O8 0.055113 0.555113 0.250000
O O9 0.026777 0.647621 0.405826
O O10 0.963275 0.633229 0.190391
O O11 0.250000 0.069127 0.326142
O O12 0.334543 0.125785 0.467736
O O13 0.327628 0.141457 0.205998
O O14 0.557733 0.250000 0.485419
O O15 0.750000 0.630949 0.343960
#
# Coordination Sequence:
#
# PCOD8318440 Si02
#       6
#    16  16  16  16  16  16
#     4  10  18  33  55  76 111 158 200 247 307 368
#     4   9  18  35  55  77 109 148 194 235 286 353
#     4  10  21  38  59  86 117 157 207 248 296 355
#     4  11  23  42  66  91 125 163 198 243 307 364
#     4  10  20  31  51  84 114 149 201 255 305 358
#     4  10  23  41  64  92 120 158 200 243 297 364
#
# _framework density 20.026456
#
# number of rings (size 3 to 8) (size 9 to 14) (size 15 to 20)
#    0.000    2.000    1.667    2.000    2.333    1.333 
#    0.000    4.167    0.000    6.000    0.000    0.000 
#    0.000    0.000    0.000    0.000    0.000    0.000 
#
# Total GULP energy -1190394.646186 kJ/mol
# GULP energy per Si atom -12399.944231 kJ/mol
# Density = 1.998088 g / cm^3
# Si number density = 20.026456 Si / 1000 Ang^3
#
#
#
# Elastic Constant Matrix: (Units=GPa)
#
#
# Indices 1 2 3 4 5 6 
#
# 1 60.9890 27.9286 30.6123 0.0000 0.0000 0.0000
# 2 27.9286 60.9890 30.6123 0.0000 0.0000 0.0000
# 3 30.6123 30.6123 127.6632 0.0000 0.0000 0.0000
# 4 0.0000 0.0000 0.0000 30.6430 0.0000 0.0000
# 5 0.0000 0.0000 0.0000 0.0000 30.6430 0.0000
# 6 0.0000 0.0000 0.0000 0.0000 0.0000 25.1532
#
#
#
# Elastic Compliance Matrix: (Units=1/GPa)
#
#
# Indices 1 2 3 4 5 6 
#
# 1 0.021859 -0.008389 -0.003230 0.000000 0.000000 0.000000
# 2 -0.008389 0.021859 -0.003230 0.000000 0.000000 0.000000
# 3 -0.003230 -0.003230 0.009382 0.000000 0.000000 0.000000
# 4 0.000000 0.000000 0.000000 0.032634 0.000000 0.000000
# 5 0.000000 0.000000 0.000000 0.000000 0.032634 0.000000
# 6 0.000000 0.000000 0.000000 0.000000 0.000000 0.039756
#
#
# Mechanical properties :
#
#
# Convention : Reuss Voigt Hill
#
# Bulk Modulus (GPa) = 42.72995 47.54975 45.13985
# Shear Modulus (GPa) = 25.55940 27.98706 26.77323
#
# Velocity S-wave (km/s) = 3.57638 3.74238 3.66032
# Velocity P-wave (km/s) = 6.19977 6.51681 6.36027
#
# Compressibility (1/GPa) = 0.02340279
#
# Stress axis : x y z
#
# Youngs Moduli (GPa) = 45.74765 45.74765 106.58497
#
# Poissons Ratio (x) = 0.38376 0.34428
# Poissons Ratio (y) = 0.38376 0.34428
# Poissons Ratio (z) = 0.14777 0.14777
#
# Static dielectric constant tensor:
#      x y z
#    x 3.438800 0.000000 0.000000 
#    y 0.000000 3.438800 0.000000 
#    z 0.000000 0.000000 3.936750 
# 
# 
# High freq. dielectric constant tensor:
#      x y z
#    x 1.761290 0.000000 0.000000 
#    y 0.000000 1.761290 0.000000 
#    z 0.000000 0.000000 1.802730 
# 
# From -- ./inp_files/2158.got.cif
#   From: 2010.03.12/outbox.cif.g09.slc.cpg/sg137_2_cif.got.tgz:2158.got - 2010.04.08 09:34:49.
