data_PCOD8318722
_publ_section_title
;
Structure prediction by ZEFSAII (Michael W. Deem and Ramdas Pophale) SiO2 
 PCOD8318722
Probable space group: P 42/N M C
;
_chemical_formula_sum "Si O2"
_cell_formula_units_Z 72
_cell_length_a 18.828279
_cell_length_b 18.828279
_cell_length_c 10.321912
_cell_angle_alpha 90.000000
_cell_angle_beta 90.000000
_cell_angle_gamma 90.000000
_cell_volume 3659.160022
_symmetry_space_group_name_H-M "P 42/N M C"
_symmetry_group_IT_number 137
_space_group.IT_coordinate_system_code '2'
_symmetry_cell_setting 'tetragonal'
loop_
_space_group_symop_operation_xyz
x,y,z
1/2-y,x,1/2+z
1/2-x,1/2-y,z
y,1/2-x,1/2+z
1/2+x,-y,-z
-x,1/2+y,-z
1/2+y,1/2+x,1/2-z
-y,-x,1/2-z
-x,-y,-z
1/2+y,-x,1/2-z
1/2+x,1/2+y,-z
-y,1/2+x,1/2-z
1/2-x,y,z
x,1/2-y,z
1/2-y,1/2-x,1/2+z
y,x,1/2+z
loop_
_atom_site_type_symbol
_atom_site_label
_atom_site_fract_x
_atom_site_fract_y
_atom_site_fract_z
Si Si1 0.449275 0.667496 0.462008
Si Si2 0.469934 0.947662 0.893540
Si Si3 0.170638 0.332028 0.870849
Si Si4 0.829666 0.170335 0.750000
Si Si5 0.602909 0.886706 0.379016
O O1 0.453502 0.750000 0.509775
O O2 0.428928 0.612943 0.579373
O O3 0.386343 0.657087 0.361170
O O4 0.523401 0.642929 0.400451
O O5 0.479224 0.979224 0.750000
O O6 0.528490 0.884868 0.900216
O O7 0.500000 0.000000 0.000000
O O8 0.250000 0.359961 0.848350
O O9 0.164193 0.250000 0.839712
O O10 0.120564 0.372620 0.770762
O O11 0.150998 0.344981 0.020225
O O12 0.750000 0.161027 0.692737
#
# Coordination Sequence:
#
# PCOD8318722 Si02
#       5
#    16  16  16   8  16
#     4  10  21  37  61  86 118 156 201 252 310 373
#     4  10  22  38  60  87 122 158 195 254 311 354
#     4  11  23  39  57  83 122 160 195 241 295 351
#     4   9  20  38  60  88 120 154 198 258 320 375
#     4  11  22  36  60  87 114 157 203 245 292 358
#
# _framework density 19.676648
#
# number of rings (size 3 to 8) (size 9 to 14) (size 15 to 20)
#    0.000    1.667    0.000    5.333    9.333    1.778 
#    0.000    3.333    0.000    0.000    0.000    0.000 
#    0.000    0.000    0.000    0.000    0.000    0.000 
#
# Total GULP energy -892021.892805 kJ/mol
# GULP energy per Si atom -12389.192956 kJ/mol
# Density = 1.963186 g / cm^3
# Si number density = 19.676648 Si / 1000 Ang^3
#
#
#
# Elastic Constant Matrix: (Units=GPa)
#
#
# Indices 1 2 3 4 5 6 
#
# 1 97.1974 50.6378 33.0741 0.0000 0.0000 0.0000
# 2 50.6378 97.1984 33.0739 0.0000 0.0000 0.0000
# 3 33.0741 33.0739 106.2289 0.0000 0.0000 0.0000
# 4 0.0000 0.0000 0.0000 30.0085 0.0000 0.0000
# 5 0.0000 0.0000 0.0000 0.0000 30.0089 0.0000
# 6 0.0000 0.0000 0.0000 0.0000 0.0000 25.0777
#
#
#
# Elastic Compliance Matrix: (Units=1/GPa)
#
#
# Indices 1 2 3 4 5 6 
#
# 1 0.014668 -0.006809 -0.002447 0.000000 0.000000 0.000000
# 2 -0.006809 0.014668 -0.002447 0.000000 0.000000 0.000000
# 3 -0.002447 -0.002447 0.010937 0.000000 0.000000 0.000000
# 4 0.000000 0.000000 0.000000 0.033324 0.000000 0.000000
# 5 0.000000 0.000000 0.000000 0.000000 0.033323 0.000000
# 6 0.000000 0.000000 0.000000 0.000000 0.000000 0.039876
#
#
# Mechanical properties :
#
#
# Convention : Reuss Voigt Hill
#
# Bulk Modulus (GPa) = 59.28417 59.35514 59.31965
# Shear Modulus (GPa) = 28.43717 29.27495 28.85606
#
# Velocity S-wave (km/s) = 3.80573 3.86139 3.83366
# Velocity P-wave (km/s) = 7.03606 7.07892 7.05752
#
# Compressibility (1/GPa) = 0.01686791
#
# Stress axis : x y z
#
# Youngs Moduli (GPa) = 68.17339 68.17428 91.43015
#
# Poissons Ratio (x) = 0.46422 0.22373
# Poissons Ratio (y) = 0.46421 0.22372
# Poissons Ratio (z) = 0.16682 0.16681
#
# Static dielectric constant tensor:
#      x y z
#    x 3.967120 0.000000 0.000000 
#    y 0.000000 3.967100 0.000000 
#    z 0.000000 0.000000 3.637120 
# 
# 
# High freq. dielectric constant tensor:
#      x y z
#    x 1.770350 0.000000 0.000000 
#    y 0.000000 1.770350 0.000000 
#    z 0.000000 0.000000 1.763180 
# 
# From -- ./inp_files/1962.got.cif
#   From: 2010.03.12/outbox.cif.g09.slc.cpg/sg137_1_cif.got.tgz:1962.got - 2010.04.08 09:34:49.
