data_PCOD8318264
_publ_section_title
;
Structure prediction by ZEFSAII (Michael W. Deem and Ramdas Pophale) SiO2 
 PCOD8318264
Probable space group: P 42/M N M
;
_chemical_formula_sum "Si O2"
_cell_formula_units_Z 64
_cell_length_a 18.709931
_cell_length_b 18.709931
_cell_length_c 11.575459
_cell_angle_alpha 90.000000
_cell_angle_beta 90.000000
_cell_angle_gamma 90.000000
_cell_volume 4052.122749
_symmetry_space_group_name_H-M "P 42/M N M"
_symmetry_group_IT_number 136
_symmetry_cell_setting 'tetragonal'
loop_
_space_group_symop_operation_xyz
x,y,z
1/2-y,1/2+x,1/2+z
-x,-y,z
1/2+y,1/2-x,1/2+z
1/2+x,1/2-y,1/2-z
1/2-x,1/2+y,1/2-z
y,x,-z
-y,-x,-z
-x,-y,-z
1/2+y,1/2-x,1/2-z
x,y,-z
1/2-y,1/2+x,1/2-z
1/2-x,1/2+y,1/2+z
1/2+x,1/2-y,1/2+z
-y,-x,z
y,x,z
loop_
_atom_site_type_symbol
_atom_site_label
_atom_site_fract_x
_atom_site_fract_y
_atom_site_fract_z
Si Si1 0.763162 0.355007 0.368283
Si Si2 0.557491 0.442510 0.136591
Si Si3 0.197611 0.013601 0.234009
Si Si4 0.116963 0.002109 0.000000
Si Si5 0.877509 0.239538 0.634206
O O1 0.770728 0.382012 0.500000
O O2 0.692945 0.307056 0.357122
O O3 0.754424 0.422293 0.283010
O O4 0.832494 0.309758 0.331648
O O5 0.500000 0.500000 0.184695
O O6 0.635509 0.463560 0.179083
O O7 0.557580 0.442421 0.000000
O O8 0.240374 0.947464 0.287261
O O9 0.165421 0.991702 0.111453
O O10 0.081066 0.081066 0.000000
O O11 0.056761 0.943240 0.000000
O O12 0.898978 0.241985 0.500000
O O13 0.831583 0.168418 0.659046
#
# Coordination Sequence:
#
# PCOD8318264 Si02
#       5
#    16   8  16   8  16
#     4   9  17  33  53  74  96 133 177 211 248 307
#     4  11  22  31  45  73 109 140 167 198 251 316
#     4  12  19  31  52  74 103 135 169 211 253 305
#     4  11  20  28  44  76 110 135 156 195 257 326
#     4   9  19  34  53  73 100 135 176 212 248 299
#
# _framework density 15.794191
#
# number of rings (size 3 to 8) (size 9 to 14) (size 15 to 20)
#    0.000    1.750    3.750    4.500    0.000    2.000 
#    0.000    0.000    5.500    0.750    0.000    3.500 
#    0.000    0.000    0.000    0.000    0.000    0.000 
#
# Total GULP energy -793690.128007 kJ/mol
# GULP energy per Si atom -12401.408250 kJ/mol
# Density = 1.575824 g / cm^3
# Si number density = 15.794191 Si / 1000 Ang^3
#
#
#
# Elastic Constant Matrix: (Units=GPa)
#
#
# Indices 1 2 3 4 5 6 
#
# 1 102.3842 61.0563 48.6504 0.0000 0.0000 0.0000
# 2 61.0563 102.3839 48.6501 0.0000 0.0000 0.0000
# 3 48.6504 48.6501 76.4491 0.0000 0.0000 0.0000
# 4 0.0000 0.0000 0.0000 24.5008 0.0000 0.0000
# 5 0.0000 0.0000 0.0000 0.0000 24.4964 0.0000
# 6 0.0000 0.0000 0.0000 0.0000 0.0000 28.1765
#
#
#
# Elastic Compliance Matrix: (Units=1/GPa)
#
#
# Indices 1 2 3 4 5 6 
#
# 1 0.017024 -0.007173 -0.006268 0.000000 0.000000 0.000000
# 2 -0.007173 0.017024 -0.006268 0.000000 0.000000 0.000000
# 3 -0.006268 -0.006268 0.021059 0.000000 0.000000 0.000000
# 4 0.000000 0.000000 0.000000 0.040815 0.000000 0.000000
# 5 0.000000 0.000000 0.000000 0.000000 0.040822 0.000000
# 6 0.000000 0.000000 0.000000 0.000000 0.000000 0.035491
#
#
# Mechanical properties :
#
#
# Convention : Reuss Voigt Hill
#
# Bulk Modulus (GPa) = 63.75331 66.43675 65.09503
# Shear Modulus (GPa) = 23.05397 23.62543 23.33970
#
# Velocity S-wave (km/s) = 3.82468 3.87179 3.84831
# Velocity P-wave (km/s) = 7.74318 7.88309 7.81345
#
# Compressibility (1/GPa) = 0.01568546
#
# Stress axis : x y z
#
# Youngs Moduli (GPa) = 58.74224 58.74231 47.48628
#
# Poissons Ratio (x) = 0.42138 0.29767
# Poissons Ratio (y) = 0.42138 0.29766
# Poissons Ratio (z) = 0.36822 0.36822
#
# Static dielectric constant tensor:
#      x y z
#    x 2.960700 0.000000 0.000000 
#    y 0.000000 2.960700 0.000000 
#    z 0.000000 0.000000 3.520510 
# 
# 
# High freq. dielectric constant tensor:
#      x y z
#    x 1.593320 0.000000 0.000000 
#    y 0.000000 1.593320 0.000000 
#    z 0.000000 0.000000 1.605950 
# 
# From -- ./inp_files/3571.got.cif
#   From: 2010.03.12/outbox.cif.g09.slc.cpg/sg136_2_cif.got.tgz:3571.got - 2010.04.06 18:39:43.
