data_PCOD8318418
_publ_section_title
;
Structure prediction by ZEFSAII (Michael W. Deem and Ramdas Pophale) SiO2 
 PCOD8318418
Probable space group: P 42/N M C
;
_chemical_formula_sum "Si O2"
_cell_formula_units_Z 96
_cell_length_a 22.324284
_cell_length_b 22.324284
_cell_length_c 11.183812
_cell_angle_alpha 90.000000
_cell_angle_beta 90.000000
_cell_angle_gamma 90.000000
_cell_volume 5573.717276
_symmetry_space_group_name_H-M "P 42/N M C"
_symmetry_group_IT_number 137
_space_group.IT_coordinate_system_code '2'
_symmetry_cell_setting 'tetragonal'
loop_
_space_group_symop_operation_xyz
x,y,z
1/2-y,x,1/2+z
1/2-x,1/2-y,z
y,1/2-x,1/2+z
1/2+x,-y,-z
-x,1/2+y,-z
1/2+y,1/2+x,1/2-z
-y,-x,1/2-z
-x,-y,-z
1/2+y,-x,1/2-z
1/2+x,1/2+y,-z
-y,1/2+x,1/2-z
1/2-x,y,z
x,1/2-y,z
1/2-y,1/2-x,1/2+z
y,x,1/2+z
loop_
_atom_site_type_symbol
_atom_site_label
_atom_site_fract_x
_atom_site_fract_y
_atom_site_fract_z
Si Si1 0.551936 0.106542 0.996941
Si Si2 0.485437 0.317306 0.651661
Si Si3 0.101378 0.685366 0.208132
Si Si4 0.818145 0.414789 0.283476
Si Si5 0.996091 0.132746 0.405323
Si Si6 0.067340 0.029297 0.305962
O O1 0.549100 0.153987 0.104425
O O2 0.583909 0.047001 0.037578
O O3 0.585320 0.134801 0.885203
O O4 0.488038 0.086290 0.942423
O O5 0.458875 0.250000 0.681403
O O6 0.556434 0.315151 0.678988
O O7 0.471946 0.331053 0.512200
O O8 0.459215 0.372021 0.729794
O O9 0.168356 0.668356 0.250000
O O10 0.102770 0.750000 0.145625
O O11 0.855116 0.355116 0.250000
O O12 0.750000 0.396172 0.311670
O O13 0.818952 0.459916 0.172192
O O14 0.039121 0.095384 0.316590
O O15 0.020331 0.979670 0.250000
#
# Coordination Sequence:
#
# PCOD8318418 Si02
#       6
#    16  16  16  16  16  16
#     4  10  18  33  49  72 101 135 171 216 274 323
#     4  10  20  34  51  72 105 140 167 205 262 320
#     4  10  18  31  48  66  94 137 183 226 262 297
#     4  10  22  35  50  73 104 145 189 226 262 308
#     4  11  20  32  54  75 106 136 172 215 270 319
#     4  11  20  32  55  82 105 135 173 218 266 325
#
# _framework density 17.223693999999998
#
# number of rings (size 3 to 8) (size 9 to 14) (size 15 to 20)
#    0.000    1.667    3.333    4.000    2.333    1.000 
#    0.000    0.000    0.000    2.000    0.000    0.000 
#    0.000    5.333    0.000    0.000    0.000    0.000 
#
# Total GULP energy -1189260.342129 kJ/mol
# GULP energy per Si atom -12388.128564 kJ/mol
# Density = 1.718449 g / cm^3
# Si number density = 17.223694 Si / 1000 Ang^3
#
#
#
# Elastic Constant Matrix: (Units=GPa)
#
#
# Indices 1 2 3 4 5 6 
#
# 1 70.3758 35.2216 19.7074 0.0000 0.0000 0.0000
# 2 35.2216 70.3760 19.7076 0.0000 0.0000 0.0000
# 3 19.7074 19.7076 75.6481 0.0000 0.0000 0.0000
# 4 0.0000 0.0000 0.0000 15.3901 0.0000 0.0000
# 5 0.0000 0.0000 0.0000 0.0000 15.3900 0.0000
# 6 0.0000 0.0000 0.0000 0.0000 0.0000 15.8321
#
#
#
# Elastic Compliance Matrix: (Units=1/GPa)
#
#
# Indices 1 2 3 4 5 6 
#
# 1 0.019468 -0.008978 -0.002733 0.000000 0.000000 0.000000
# 2 -0.008978 0.019468 -0.002733 0.000000 0.000000 0.000000
# 3 -0.002733 -0.002733 0.014643 0.000000 0.000000 0.000000
# 4 0.000000 0.000000 0.000000 0.064977 0.000000 0.000000
# 5 0.000000 0.000000 0.000000 0.000000 0.064977 0.000000
# 6 0.000000 0.000000 0.000000 0.000000 0.000000 0.063163
#
#
# Mechanical properties :
#
#
# Convention : Reuss Voigt Hill
#
# Bulk Modulus (GPa) = 40.49945 40.63036 40.56491
# Shear Modulus (GPa) = 17.61717 18.77331 18.19524
#
# Velocity S-wave (km/s) = 3.20166 3.30505 3.25377
# Velocity P-wave (km/s) = 6.10183 6.18106 6.14158
#
# Compressibility (1/GPa) = 0.02469169
#
# Stress axis : x y z
#
# Youngs Moduli (GPa) = 51.36625 51.36632 68.29214
#
# Poissons Ratio (x) = 0.46117 0.18663
# Poissons Ratio (y) = 0.46117 0.18663
# Poissons Ratio (z) = 0.14037 0.14038
#
# Static dielectric constant tensor:
#      x y z
#    x 3.100650 0.000000 0.000000 
#    y 0.000000 3.100650 0.000000 
#    z 0.000000 0.000000 3.520170 
# 
# 
# High freq. dielectric constant tensor:
#      x y z
#    x 1.637840 0.000000 0.000000 
#    y 0.000000 1.637840 0.000000 
#    z 0.000000 0.000000 1.678100 
# 
# From -- ./inp_files/3861.got.cif
#   From: 2010.03.12/outbox.cif.g09.slc.cpg/sg137_2_cif.got.tgz:3861.got - 2010.04.08 09:34:49.
