data_PCOD8318462
_publ_section_title
;
Structure prediction by ZEFSAII (Michael W. Deem and Ramdas Pophale) SiO2 
 PCOD8318462
Probable space group: P 42/N M C
;
_chemical_formula_sum "Si O2"
_cell_formula_units_Z 112
_cell_length_a 14.275185
_cell_length_b 14.275185
_cell_length_c 25.853408
_cell_angle_alpha 90.000000
_cell_angle_beta 90.000000
_cell_angle_gamma 90.000000
_cell_volume 5268.430926
_symmetry_space_group_name_H-M "P 42/N M C"
_symmetry_group_IT_number 137
_space_group.IT_coordinate_system_code '2'
_symmetry_cell_setting 'tetragonal'
loop_
_space_group_symop_operation_xyz
x,y,z
1/2-y,x,1/2+z
1/2-x,1/2-y,z
y,1/2-x,1/2+z
1/2+x,-y,-z
-x,1/2+y,-z
1/2+y,1/2+x,1/2-z
-y,-x,1/2-z
-x,-y,-z
1/2+y,-x,1/2-z
1/2+x,1/2+y,-z
-y,1/2+x,1/2-z
1/2-x,y,z
x,1/2-y,z
1/2-y,1/2-x,1/2+z
y,x,1/2+z
loop_
_atom_site_type_symbol
_atom_site_label
_atom_site_fract_x
_atom_site_fract_y
_atom_site_fract_z
Si Si1 0.639723 0.962257 0.357855
Si Si2 0.644687 0.354412 0.603271
Si Si3 0.460559 0.141282 0.845414
Si Si4 0.359175 0.142179 0.947259
Si Si5 0.647150 0.138798 0.192466
Si Si6 0.142744 0.458673 0.050636
Si Si7 0.642093 0.640028 0.254124
O O1 0.750000 0.954053 0.367011
O O2 0.588002 0.923102 0.407224
O O3 0.608255 0.904447 0.307578
O O4 0.605903 0.069861 0.349342
O O5 0.750000 0.372228 0.581313
O O6 0.636054 0.250000 0.627164
O O7 0.623053 0.427657 0.649681
O O8 0.571646 0.366420 0.555846
O O9 0.434892 0.250000 0.842217
O O10 0.412704 0.101788 0.897372
O O11 0.418452 0.095206 0.793306
O O12 0.250000 0.133840 0.935772
O O13 0.386808 0.250000 0.959883
O O14 0.390525 0.075449 0.994492
O O15 0.611424 0.111424 0.250000
O O16 0.750000 0.095381 0.179568
O O17 0.654529 0.250000 0.191415
O O18 0.250000 0.426179 0.060081
O O19 0.750000 0.615286 0.242755
O O20 0.625582 0.750000 0.259413
#
# Coordination Sequence:
#
# PCOD8318462 Si02
#       7
#    16  16  16  16  16  16  16
#     4  10  19  30  49  78 109 140 170 203 252 312
#     4   9  19  36  55  73  96 132 178 222 262 302
#     4   9  17  31  52  75 100 132 169 209 252 300
#     4   9  17  30  51  80 110 135 159 194 248 314
#     4   8  15  29  47  66  93 134 179 213 241 284
#     4  10  20  33  51  76 105 137 171 209 257 311
#     4   9  17  29  47  75 109 138 165 204 257 313
#
# _framework density 21.258703000000001
#
# number of rings (size 3 to 8) (size 9 to 14) (size 15 to 20)
#    0.000    2.857    0.000    1.714    0.000    4.857 
#    0.000    0.000    0.000    4.286    0.000   11.000 
#    0.000    6.857    0.000    0.000    0.000    0.000 
#
# Total GULP energy -1388314.911998 kJ/mol
# GULP energy per Si atom -12395.668857 kJ/mol
# Density = 2.121032 g / cm^3
# Si number density = 21.258703 Si / 1000 Ang^3
#
#
#
# Elastic Constant Matrix: (Units=GPa)
#
#
# Indices 1 2 3 4 5 6 
#
# 1 68.2222 25.7421 37.4737 0.0000 0.0000 0.0000
# 2 25.7421 68.2222 37.4737 0.0000 0.0000 0.0000
# 3 37.4737 37.4737 103.8492 0.0000 0.0000 0.0000
# 4 0.0000 0.0000 0.0000 14.8532 0.0000 0.0000
# 5 0.0000 0.0000 0.0000 0.0000 14.8532 0.0000
# 6 0.0000 0.0000 0.0000 0.0000 0.0000 17.8357
#
#
#
# Elastic Compliance Matrix: (Units=1/GPa)
#
#
# Indices 1 2 3 4 5 6 
#
# 1 0.019242 -0.004299 -0.005392 0.000000 0.000000 0.000000
# 2 -0.004299 0.019242 -0.005392 0.000000 0.000000 0.000000
# 3 -0.005392 -0.005392 0.013521 0.000000 0.000000 0.000000
# 4 0.000000 0.000000 0.000000 0.067326 0.000000 0.000000
# 5 0.000000 0.000000 0.000000 0.000000 0.067326 0.000000
# 6 0.000000 0.000000 0.000000 0.000000 0.000000 0.056067
#
#
# Mechanical properties :
#
#
# Convention : Reuss Voigt Hill
#
# Bulk Modulus (GPa) = 45.79074 49.07475 47.43274
# Shear Modulus (GPa) = 17.84640 18.81536 18.33088
#
# Velocity S-wave (km/s) = 2.90053 2.97823 2.93964
# Velocity P-wave (km/s) = 5.72748 5.91280 5.82087
#
# Compressibility (1/GPa) = 0.02183848
#
# Stress axis : x y z
#
# Youngs Moduli (GPa) = 51.97006 51.97006 73.95956
#
# Poissons Ratio (x) = 0.22340 0.39881
# Poissons Ratio (y) = 0.22340 0.39881
# Poissons Ratio (z) = 0.28024 0.28024
#
# Static dielectric constant tensor:
#      x y z
#    x 4.076800 0.000000 0.000000 
#    y 0.000000 4.076800 0.000000 
#    z 0.000000 0.000000 3.608660 
# 
# 
# High freq. dielectric constant tensor:
#      x y z
#    x 1.836120 0.000000 0.000000 
#    y 0.000000 1.836120 0.000000 
#    z 0.000000 0.000000 1.803320 
# 
# From -- ./inp_files/9001.got.cif
#   From: 2010.03.12/outbox.cif.g09.slc.cpg/sg137_5_cif.got.tgz:9001.got - 2010.04.08 09:34:49.
