data_PCOD8318297
_publ_section_title
;
Structure prediction by ZEFSAII (Michael W. Deem and Ramdas Pophale) SiO2 
 PCOD8318297
Probable space group: P 42/M N M
;
_chemical_formula_sum "Si O2"
_cell_formula_units_Z 56
_cell_length_a 12.263413
_cell_length_b 12.263413
_cell_length_c 18.316220
_cell_angle_alpha 90.000000
_cell_angle_beta 90.000000
_cell_angle_gamma 90.000000
_cell_volume 2754.600108
_symmetry_space_group_name_H-M "P 42/M N M"
_symmetry_group_IT_number 136
_symmetry_cell_setting 'tetragonal'
loop_
_space_group_symop_operation_xyz
x,y,z
1/2-y,1/2+x,1/2+z
-x,-y,z
1/2+y,1/2-x,1/2+z
1/2+x,1/2-y,1/2-z
1/2-x,1/2+y,1/2-z
y,x,-z
-y,-x,-z
-x,-y,-z
1/2+y,1/2-x,1/2-z
x,y,-z
1/2-y,1/2+x,1/2-z
1/2-x,1/2+y,1/2+z
1/2+x,1/2-y,1/2+z
-y,-x,z
y,x,z
loop_
_atom_site_type_symbol
_atom_site_label
_atom_site_fract_x
_atom_site_fract_y
_atom_site_fract_z
Si Si1 0.527678 0.824000 0.585833
Si Si2 0.085131 0.914870 0.913216
Si Si3 0.599085 0.223537 0.169828
Si Si4 0.141934 0.683254 0.323164
O O1 0.506632 0.828198 0.500000
O O2 0.550046 0.702568 0.616055
O O3 0.636094 0.891849 0.604289
O O4 0.420609 0.870695 0.624379
O O5 0.084851 0.915149 0.000000
O O6 0.000000 0.000000 0.879931
O O7 0.665940 0.334061 0.151891
O O8 0.471262 0.250762 0.177990
O O9 0.644085 0.166127 0.241932
O O10 0.237067 0.762934 0.352380
#
# Coordination Sequence:
#
# PCOD8318297 Si02
#       4
#    16   8  16  16
#     4  11  22  39  64  94 124 163 211 258 312 369
#     4   9  18  34  58  92 131 159 192 252 312 359
#     4  11  23  41  64  91 126 167 209 256 311 375
#     4  11  24  41  62  91 127 168 209 255 312 373
#
# _framework density 20.329630999999999
#
# number of rings (size 3 to 8) (size 9 to 14) (size 15 to 20)
#    0.000    1.286    4.286    1.714    0.000    4.571 
#    0.000    0.000    0.000    0.000    0.000    4.000 
#    0.000    0.000    0.000    0.000    0.000    0.000 
#
# Total GULP energy -694545.617208 kJ/mol
# GULP energy per Si atom -12402.600307 kJ/mol
# Density = 2.028336 g / cm^3
# Si number density = 20.329631 Si / 1000 Ang^3
#
#
#
# Elastic Constant Matrix: (Units=GPa)
#
#
# Indices 1 2 3 4 5 6 
#
# 1 98.8546 33.4025 15.3273 0.0000 0.0000 0.0000
# 2 33.4025 98.8546 15.3274 0.0000 0.0000 0.0000
# 3 15.3273 15.3274 58.0864 0.0000 0.0000 0.0000
# 4 0.0000 0.0000 0.0000 24.7347 0.0000 0.0000
# 5 0.0000 0.0000 0.0000 0.0000 24.7346 0.0000
# 6 0.0000 0.0000 0.0000 0.0000 0.0000 29.2325
#
#
#
# Elastic Compliance Matrix: (Units=1/GPa)
#
#
# Indices 1 2 3 4 5 6 
#
# 1 0.011666 -0.003612 -0.002125 0.000000 0.000000 0.000000
# 2 -0.003612 0.011666 -0.002125 0.000000 0.000000 0.000000
# 3 -0.002125 -0.002125 0.018337 0.000000 0.000000 0.000000
# 4 0.000000 0.000000 0.000000 0.040429 0.000000 0.000000
# 5 0.000000 0.000000 0.000000 0.000000 0.040429 0.000000
# 6 0.000000 0.000000 0.000000 0.000000 0.000000 0.034209
#
#
# Mechanical properties :
#
#
# Convention : Reuss Voigt Hill
#
# Bulk Modulus (GPa) = 38.54457 42.65665 40.60061
# Shear Modulus (GPa) = 27.60765 28.52291 28.06528
#
# Velocity S-wave (km/s) = 3.68910 3.74976 3.71955
# Velocity P-wave (km/s) = 6.09483 6.30679 6.20172
#
# Compressibility (1/GPa) = 0.02594399
#
# Stress axis : x y z
#
# Youngs Moduli (GPa) = 85.71937 85.71936 54.53377
#
# Poissons Ratio (x) = 0.30965 0.11589
# Poissons Ratio (y) = 0.30965 0.11589
# Poissons Ratio (z) = 0.18216 0.18216
#
# Static dielectric constant tensor:
#      x y z
#    x 3.794720 0.000000 0.000000 
#    y 0.000000 3.794710 0.000000 
#    z 0.000000 0.000000 3.459230 
# 
# 
# High freq. dielectric constant tensor:
#      x y z
#    x 1.797760 0.000000 0.000000 
#    y 0.000000 1.797760 0.000000 
#    z 0.000000 0.000000 1.778780 
# 
# From -- ./inp_files/6901.got.cif
#   From: 2010.03.12/outbox.cif.g09.slc.cpg/sg136_4_cif.got.tgz:6901.got - 2010.04.06 18:39:43.
