data_PCOD8318218
_publ_section_title
;
Structure prediction by ZEFSAII (Michael W. Deem and Ramdas Pophale) SiO2 
 PCOD8318218
Probable space group: P 42/M N M
;
_chemical_formula_sum "Si O2"
_cell_formula_units_Z 88
_cell_length_a 12.449147
_cell_length_b 12.449147
_cell_length_c 27.612002
_cell_angle_alpha 90.000000
_cell_angle_beta 90.000000
_cell_angle_gamma 90.000000
_cell_volume 4279.342889
_symmetry_space_group_name_H-M "P 42/M N M"
_symmetry_group_IT_number 136
_symmetry_cell_setting 'tetragonal'
loop_
_space_group_symop_operation_xyz
x,y,z
1/2-y,1/2+x,1/2+z
-x,-y,z
1/2+y,1/2-x,1/2+z
1/2+x,1/2-y,1/2-z
1/2-x,1/2+y,1/2-z
y,x,-z
-y,-x,-z
-x,-y,-z
1/2+y,1/2-x,1/2-z
x,y,-z
1/2-y,1/2+x,1/2-z
1/2-x,1/2+y,1/2+z
1/2+x,1/2-y,1/2+z
-y,-x,z
y,x,z
loop_
_atom_site_type_symbol
_atom_site_label
_atom_site_fract_x
_atom_site_fract_y
_atom_site_fract_z
Si Si1 0.597838 0.229045 0.790646
Si Si2 0.266939 0.439786 0.709709
Si Si3 0.074984 0.748930 0.900801
Si Si4 0.589216 0.410785 0.946148
Si Si5 0.301497 0.027197 0.607273
Si Si6 0.861185 0.685892 0.944099
O O1 0.690515 0.309485 0.809578
O O2 0.652982 0.115667 0.778414
O O3 0.545593 0.275358 0.742142
O O4 0.514028 0.215392 0.834819
O O5 0.364754 0.364754 0.725714
O O6 0.274061 0.467718 0.653114
O O7 0.160461 0.839540 0.917470
O O8 0.129574 0.632727 0.903898
O O9 0.972105 0.750524 0.935741
O O10 0.500000 0.500000 0.950111
O O11 0.688079 0.463095 0.918556
O O12 0.625458 0.374542 0.000000
O O13 0.361688 0.921129 0.588502
O O14 0.761765 0.761765 0.929528
O O15 0.853167 0.652061 0.000000
#
# Coordination Sequence:
#
# PCOD8318218 Si02
#       6
#    16  16  16   8  16  16
#     4  10  21  39  60  89 124 162 206 253 307 376
#     4   9  21  38  58  86 122 157 198 252 304 362
#     4  10  22  44  67  91 125 165 218 268 318 378
#     4  11  22  36  60  94 131 167 201 253 325 385
#     4  11  21  42  64  92 127 166 212 264 316 385
#     4  11  26  44  63  93 131 168 212 266 323 384
#
# _framework density 20.563905999999999
#
# number of rings (size 3 to 8) (size 9 to 14) (size 15 to 20)
#    0.000    1.727    1.818    2.727    2.545    7.273 
#    0.000    2.727    0.000    0.000    0.000    0.000 
#    0.000    0.000    0.000    0.000    0.000    0.000 
#
# Total GULP energy -1091467.111126 kJ/mol
# GULP energy per Si atom -12403.035354 kJ/mol
# Density = 2.051710 g / cm^3
# Si number density = 20.563906 Si / 1000 Ang^3
#
#
#
# Elastic Constant Matrix: (Units=GPa)
#
#
# Indices 1 2 3 4 5 6 
#
# 1 83.5365 22.3202 30.5897 0.0000 0.0000 0.0000
# 2 22.3202 83.5366 30.5896 0.0000 0.0000 0.0000
# 3 30.5897 30.5896 65.1710 0.0000 0.0000 0.0000
# 4 0.0000 0.0000 0.0000 41.9224 0.0000 0.0000
# 5 0.0000 0.0000 0.0000 0.0000 41.9235 0.0000
# 6 0.0000 0.0000 0.0000 0.0000 0.0000 24.6001
#
#
#
# Elastic Compliance Matrix: (Units=1/GPa)
#
#
# Indices 1 2 3 4 5 6 
#
# 1 0.014649 -0.001686 -0.006085 0.000000 0.000000 0.000000
# 2 -0.001686 0.014649 -0.006085 0.000000 0.000000 0.000000
# 3 -0.006085 -0.006085 0.021056 0.000000 0.000000 0.000000
# 4 0.000000 0.000000 0.000000 0.023854 0.000000 0.000000
# 5 0.000000 0.000000 0.000000 0.000000 0.023853 0.000000
# 6 0.000000 0.000000 0.000000 0.000000 0.000000 0.040650
#
#
# Mechanical properties :
#
#
# Convention : Reuss Voigt Hill
#
# Bulk Modulus (GPa) = 44.16137 44.36034 44.26085
# Shear Modulus (GPa) = 28.74044 31.60549 30.17297
#
# Velocity S-wave (km/s) = 3.74253 3.92464 3.83466
# Velocity P-wave (km/s) = 6.34012 6.49275 6.41689
#
# Compressibility (1/GPa) = 0.02264423
#
# Stress axis : x y z
#
# Youngs Moduli (GPa) = 68.26195 68.26223 47.49186
#
# Poissons Ratio (x) = 0.11510 0.28897
# Poissons Ratio (y) = 0.11510 0.28897
# Poissons Ratio (z) = 0.41535 0.41535
#
# Static dielectric constant tensor:
#      x y z
#    x 3.674160 0.000000 0.000000 
#    y 0.000000 3.674160 0.000000 
#    z 0.000000 0.000000 3.694610 
# 
# 
# High freq. dielectric constant tensor:
#      x y z
#    x 1.803690 0.000000 0.000000 
#    y 0.000000 1.803690 0.000000 
#    z 0.000000 0.000000 1.805140 
# 
# From -- ./inp_files/9746.got.cif
#   From: 2010.03.12/outbox.cif.g09.slc.cpg/sg136_5_cif.got.tgz:9746.got - 2010.04.06 18:39:43.
