data_PCOD8318866
_publ_section_title
;
Structure prediction by ZEFSAII (Michael W. Deem and Ramdas Pophale) SiO2 
 PCOD8318866
Probable space group: P 42/N C M
;
_chemical_formula_sum "Si O2"
_cell_formula_units_Z 92
_cell_length_a 26.180590
_cell_length_b 26.180590
_cell_length_c 8.543508
_cell_angle_alpha 90.000000
_cell_angle_beta 90.000000
_cell_angle_gamma 90.000000
_cell_volume 5855.919385
_symmetry_space_group_name_H-M "P 42/N C M"
_symmetry_group_IT_number 138
_space_group.IT_coordinate_system_code '2'
_symmetry_cell_setting 'tetragonal'
loop_
_space_group_symop_operation_xyz
x,y,z
1/2-y,x,1/2+z
1/2-x,1/2-y,z
y,1/2-x,1/2+z
1/2+x,-y,1/2-z
-x,1/2+y,1/2-z
1/2+y,1/2+x,-z
-y,-x,-z
-x,-y,-z
1/2+y,-x,1/2-z
1/2+x,1/2+y,-z
-y,1/2+x,1/2-z
1/2-x,y,1/2+z
x,1/2-y,1/2+z
1/2-y,1/2-x,z
y,x,z
loop_
_atom_site_type_symbol
_atom_site_label
_atom_site_fract_x
_atom_site_fract_y
_atom_site_fract_z
Si Si1 0.689902 0.810099 0.797698
Si Si2 0.024705 0.106869 0.340940
Si Si3 0.962769 0.623356 0.815909
Si Si4 0.785929 0.912720 0.168046
Si Si5 0.680408 0.597473 0.813844
Si Si6 0.750000 0.750000 0.547340
Si Si7 0.546299 0.039251 0.673665
O O1 0.630262 0.800589 0.794000
O O2 0.714056 0.785945 0.644602
O O3 0.713311 0.786690 0.951941
O O4 0.056353 0.056353 0.382211
O O5 0.023119 0.137357 0.504685
O O6 0.052186 0.139337 0.203866
O O7 0.969271 0.088635 0.279134
O O8 0.911415 0.588586 0.795439
O O9 0.958907 0.677398 0.723191
O O10 0.011826 0.595188 0.745352
O O11 0.724987 0.918153 0.191112
O O12 0.798076 0.899416 0.988932
O O13 0.652204 0.652204 0.774715
O O14 0.559192 0.059192 0.500000
O O15 0.498270 0.001731 0.666525
#
# Coordination Sequence:
#
# PCOD8318866 Si02
#       7
#     8  16  16  16  16   4  16
#     4  11  22  36  46  60  76 102 142 192 235 281
#     4   9  18  31  47  66  85 107 137 174 218 267
#     4  10  18  31  46  66  86 109 137 175 218 268
#     4  12  22  35  47  62  83 113 145 188 235 272
#     4  11  23  37  47  63  84 113 150 192 233 279
#     4  10  24  34  48  58  72  98 144 194 240 272
#     4   9  16  27  47  68  88 108 130 166 213 264
#
# _framework density 15.710599
#
# number of rings (size 3 to 8) (size 9 to 14) (size 15 to 20)
#    0.000    1.739    1.739    3.652    2.435    4.870 
#    1.565    0.000    0.000    0.000    0.000    0.000 
#    0.000    0.000    0.000    0.000    0.000    0.870 
#
# Total GULP energy -1140139.177694 kJ/mol
# GULP energy per Si atom -12392.817149 kJ/mol
# Density = 1.567484 g / cm^3
# Si number density = 15.710599 Si / 1000 Ang^3
#
#
#
# Elastic Constant Matrix: (Units=GPa)
#
#
# Indices 1 2 3 4 5 6 
#
# 1 53.4318 44.1999 25.0690 0.0000 0.0000 0.0000
# 2 44.1999 53.4318 25.0690 0.0000 0.0000 0.0000
# 3 25.0690 25.0690 74.0481 0.0000 0.0000 0.0000
# 4 0.0000 0.0000 0.0000 21.1671 0.0000 0.0000
# 5 0.0000 0.0000 0.0000 0.0000 21.1671 0.0000
# 6 0.0000 0.0000 0.0000 0.0000 0.0000 24.3553
#
#
#
# Elastic Compliance Matrix: (Units=1/GPa)
#
#
# Indices 1 2 3 4 5 6 
#
# 1 0.060359 -0.047961 -0.004197 0.000000 0.000000 0.000000
# 2 -0.047961 0.060359 -0.004197 0.000000 0.000000 0.000000
# 3 -0.004197 -0.004197 0.016347 0.000000 0.000000 0.000000
# 4 0.000000 0.000000 0.000000 0.047243 0.000000 0.000000
# 5 0.000000 0.000000 0.000000 0.000000 0.047243 0.000000
# 6 0.000000 0.000000 0.000000 0.000000 0.000000 0.041059
#
#
# Mechanical properties :
#
#
# Convention : Reuss Voigt Hill
#
# Bulk Modulus (GPa) = 41.06189 41.06526 41.06357
# Shear Modulus (GPa) = 12.70840 19.10948 15.90894
#
# Velocity S-wave (km/s) = 2.84721 3.49140 3.18563
# Velocity P-wave (km/s) = 6.08293 6.51525 6.30279
#
# Compressibility (1/GPa) = 0.02435348
#
# Stress axis : x y z
#
# Youngs Moduli (GPa) = 16.56743 16.56743 61.17408
#
# Poissons Ratio (x) = 0.79460 0.25677
# Poissons Ratio (y) = 0.79460 0.25677
# Poissons Ratio (z) = 0.06954 0.06954
#
# Static dielectric constant tensor:
#      x y z
#    x 2.847580 0.000000 0.000000 
#    y 0.000000 2.847580 0.000000 
#    z 0.000000 0.000000 3.144020 
# 
# 
# High freq. dielectric constant tensor:
#      x y z
#    x 1.565800 0.000000 0.000000 
#    y 0.000000 1.565800 0.000000 
#    z 0.000000 0.000000 1.625760 
# 
# From -- ./inp_files/1762.got.cif
#   From: 2010.03.12/outbox.cif.g09.slc.cpg/sg138_1_cif.got.tgz:1762.got - 2010.04.08 09:41:05.
