data_PCOD8318028
_publ_section_title
;
Structure prediction by ZEFSAII (Michael W. Deem and Ramdas Pophale) SiO2 
 PCOD8318028
Probable space group: P 42/M N M
;
_chemical_formula_sum "Si O2"
_cell_formula_units_Z 80
_cell_length_a 17.403631
_cell_length_b 17.403631
_cell_length_c 13.840749
_cell_angle_alpha 90.000000
_cell_angle_beta 90.000000
_cell_angle_gamma 90.000000
_cell_volume 4192.174250
_symmetry_space_group_name_H-M "P 42/M N M"
_symmetry_group_IT_number 136
_symmetry_cell_setting 'tetragonal'
loop_
_space_group_symop_operation_xyz
x,y,z
1/2-y,1/2+x,1/2+z
-x,-y,z
1/2+y,1/2-x,1/2+z
1/2+x,1/2-y,1/2-z
1/2-x,1/2+y,1/2-z
y,x,-z
-y,-x,-z
-x,-y,-z
1/2+y,1/2-x,1/2-z
x,y,-z
1/2-y,1/2+x,1/2-z
1/2-x,1/2+y,1/2+z
1/2+x,1/2-y,1/2+z
-y,-x,z
y,x,z
loop_
_atom_site_type_symbol
_atom_site_label
_atom_site_fract_x
_atom_site_fract_y
_atom_site_fract_z
Si Si1 0.856360 0.388057 0.737918
Si Si2 0.729750 0.609558 0.500000
Si Si3 0.020810 0.587141 0.894552
Si Si4 0.543700 0.339888 0.500000
Si Si5 0.900034 0.229429 0.786279
Si Si6 0.570692 0.307349 0.289436
O O1 0.868795 0.448398 0.651678
O O2 0.882142 0.300047 0.713389
O O3 0.765524 0.388404 0.760869
O O4 0.903352 0.416363 0.830008
O O5 0.694839 0.694839 0.500000
O O6 0.659438 0.548389 0.500000
O O7 0.770764 0.597104 0.394758
O O8 0.000000 0.500000 0.911714
O O9 0.037702 0.625923 0.000000
O O10 0.571313 0.428688 0.500000
O O11 0.577283 0.297467 0.405326
O O12 0.835013 0.164988 0.781310
O O13 0.980782 0.189751 0.758673
O O14 0.615189 0.384812 0.254899
#
# Coordination Sequence:
#
# PCOD8318028 Si02
#       6
#    16   8  16   8  16  16
#     4  12  20  36  54  80 112 145 191 228 282 330
#     4   8  16  29  46  73 103 141 182 224 276 324
#     4  11  22  36  56  82 113 151 185 224 279 343
#     4   8  16  29  46  73 103 141 182 224 276 324
#     4  10  20  33  53  77 110 148 189 236 281 333
#     4  10  20  33  53  77 110 148 189 236 281 333
#
# _framework density 19.083176000000002
#
# number of rings (size 3 to 8) (size 9 to 14) (size 15 to 20)
#    0.000    1.800    4.000    0.600    2.800    0.600 
#    0.000    4.000    0.000    0.000    0.000    0.000 
#    0.000    0.000    0.000    8.400    0.000    0.400 
#
# Total GULP energy -991058.328696 kJ/mol
# GULP energy per Si atom -12388.229109 kJ/mol
# Density = 1.903974 g / cm^3
# Si number density = 19.083176 Si / 1000 Ang^3
#
#
#
# Elastic Constant Matrix: (Units=GPa)
#
#
# Indices 1 2 3 4 5 6 
#
# 1 76.6563 18.7365 26.3108 0.0000 0.0000 0.0000
# 2 18.7365 76.6552 26.3105 0.0000 0.0000 0.0000
# 3 26.3108 26.3105 58.2094 0.0000 0.0000 0.0000
# 4 0.0000 0.0000 0.0000 15.3426 0.0000 0.0000
# 5 0.0000 0.0000 0.0000 0.0000 15.3426 0.0000
# 6 0.0000 0.0000 0.0000 0.0000 0.0000 33.0270
#
#
#
# Elastic Compliance Matrix: (Units=1/GPa)
#
#
# Indices 1 2 3 4 5 6 
#
# 1 0.015615 -0.001650 -0.006312 0.000000 0.000000 0.000000
# 2 -0.001650 0.015615 -0.006312 0.000000 0.000000 0.000000
# 3 -0.006312 -0.006312 0.022886 0.000000 0.000000 0.000000
# 4 0.000000 0.000000 0.000000 0.065178 0.000000 0.000000
# 5 0.000000 0.000000 0.000000 0.000000 0.065178 0.000000
# 6 0.000000 0.000000 0.000000 0.000000 0.000000 0.030278
#
#
# Mechanical properties :
#
#
# Convention : Reuss Voigt Hill
#
# Bulk Modulus (GPa) = 39.11311 39.35960 39.23636
# Shear Modulus (GPa) = 19.85531 22.08664 20.97098
#
# Velocity S-wave (km/s) = 3.22912 3.40573 3.31860
# Velocity P-wave (km/s) = 5.86886 6.01127 5.94050
#
# Compressibility (1/GPa) = 0.02556687
#
# Stress axis : x y z
#
# Youngs Moduli (GPa) = 64.04045 64.03959 43.69560
#
# Poissons Ratio (x) = 0.10568 0.27582
# Poissons Ratio (y) = 0.10568 0.27582
# Poissons Ratio (z) = 0.40424 0.40423
#
# Static dielectric constant tensor:
#      x y z
#    x 3.578470 0.000000 0.000000 
#    y 0.000000 3.578470 0.000000 
#    z 0.000000 0.000000 3.417460 
# 
# 
# High freq. dielectric constant tensor:
#      x y z
#    x 1.748890 0.000000 0.000000 
#    y 0.000000 1.748890 0.000000 
#    z 0.000000 0.000000 1.702180 
# 
# From -- ./inp_files/4938.got.cif
#   From: 2010.03.12/outbox.cif.g09.slc.cpg/sg136_3_cif.got.tgz:4938.got - 2010.04.06 18:39:43.
