data_PCOD8318653
_publ_section_title
;
Structure prediction by ZEFSAII (Michael W. Deem and Ramdas Pophale) SiO2 
 PCOD8318653
Probable space group: P 42/N M C
;
_chemical_formula_sum "Si O2"
_cell_formula_units_Z 96
_cell_length_a 14.068474
_cell_length_b 14.068474
_cell_length_c 24.496797
_cell_angle_alpha 90.000000
_cell_angle_beta 90.000000
_cell_angle_gamma 90.000000
_cell_volume 4848.454093
_symmetry_space_group_name_H-M "P 42/N M C"
_symmetry_group_IT_number 137
_space_group.IT_coordinate_system_code '2'
_symmetry_cell_setting 'tetragonal'
loop_
_space_group_symop_operation_xyz
x,y,z
1/2-y,x,1/2+z
1/2-x,1/2-y,z
y,1/2-x,1/2+z
1/2+x,-y,-z
-x,1/2+y,-z
1/2+y,1/2+x,1/2-z
-y,-x,1/2-z
-x,-y,-z
1/2+y,-x,1/2-z
1/2+x,1/2+y,-z
-y,1/2+x,1/2-z
1/2-x,y,z
x,1/2-y,z
1/2-y,1/2-x,1/2+z
y,x,1/2+z
loop_
_atom_site_type_symbol
_atom_site_label
_atom_site_fract_x
_atom_site_fract_y
_atom_site_fract_z
Si Si1 0.860482 0.546822 0.828894
Si Si2 0.640059 0.860265 0.718192
Si Si3 0.521611 0.861096 0.612737
Si Si4 0.859133 0.976146 0.532053
Si Si5 0.143689 0.641274 0.385255
Si Si6 0.639300 0.002395 0.407699
O O1 0.750000 0.570003 0.834076
O O2 0.895992 0.575954 0.768748
O O3 0.882599 0.434829 0.839021
O O4 0.908691 0.612931 0.874199
O O5 0.750000 0.879370 0.704422
O O6 0.622436 0.750000 0.732513
O O7 0.580626 0.892740 0.665833
O O8 0.506136 0.750000 0.609446
O O9 0.578644 0.894253 0.559509
O O10 0.418350 0.908748 0.616649
O O11 0.750000 0.943632 0.534769
O O12 0.875139 0.076806 0.561986
O O13 0.892787 0.986747 0.469983
O O14 0.250000 0.623026 0.361027
O O15 0.133245 0.750000 0.404967
O O16 0.750000 0.026235 0.402654
#
# Coordination Sequence:
#
# PCOD8318653 Si02
#       6
#    16  16  16  16  16  16
#     4  10  20  37  63  88 115 153 196 243 300 358
#     4   9  19  37  61  89 117 149 196 251 300 346
#     4  11  23  39  61  86 116 156 202 246 290 345
#     4  10  21  39  60  86 121 154 190 240 293 348
#     4   9  18  34  59  90 121 153 189 232 289 358
#     4  11  24  40  58  86 123 157 195 244 296 349
#
# _framework density 19.800125999999999
#
# number of rings (size 3 to 8) (size 9 to 14) (size 15 to 20)
#    0.000    2.000    1.667    1.500    0.000    4.333 
#    0.000    3.333    0.000    1.000    0.000    7.000 
#    0.000    0.000    0.000    0.000    0.000    0.000 
#
# Total GULP energy -1190695.303079 kJ/mol
# GULP energy per Si atom -12403.076074 kJ/mol
# Density = 1.975506 g / cm^3
# Si number density = 19.800126 Si / 1000 Ang^3
#
#
#
# Elastic Constant Matrix: (Units=GPa)
#
#
# Indices 1 2 3 4 5 6 
#
# 1 93.5353 50.2096 71.3908 0.0000 0.0000 0.0000
# 2 50.2096 93.5353 71.3908 0.0000 0.0000 0.0000
# 3 71.3908 71.3908 141.0935 0.0000 0.0000 0.0000
# 4 0.0000 0.0000 0.0000 32.7264 0.0000 0.0000
# 5 0.0000 0.0000 0.0000 0.0000 32.7264 0.0000
# 6 0.0000 0.0000 0.0000 0.0000 0.0000 28.5998
#
#
#
# Elastic Compliance Matrix: (Units=1/GPa)
#
#
# Indices 1 2 3 4 5 6 
#
# 1 0.018534 -0.004547 -0.007077 0.000000 0.000000 0.000000
# 2 -0.004547 0.018534 -0.007077 0.000000 0.000000 0.000000
# 3 -0.007077 -0.007077 0.014249 0.000000 0.000000 0.000000
# 4 0.000000 0.000000 0.000000 0.030556 0.000000 0.000000
# 5 0.000000 0.000000 0.000000 0.000000 0.030556 0.000000
# 6 0.000000 0.000000 0.000000 0.000000 0.000000 0.034965
#
#
# Mechanical properties :
#
#
# Convention : Reuss Voigt Hill
#
# Bulk Modulus (GPa) = 71.86915 79.34963 75.60939
# Shear Modulus (GPa) = 26.39445 27.82204 27.10825
#
# Velocity S-wave (km/s) = 3.65505 3.75259 3.70414
# Velocity P-wave (km/s) = 7.36129 7.67712 7.52087
#
# Compressibility (1/GPa) = 0.01391418
#
# Stress axis : x y z
#
# Youngs Moduli (GPa) = 53.95626 53.95626 70.18106
#
# Poissons Ratio (x) = 0.24537 0.49665
# Poissons Ratio (y) = 0.24537 0.49665
# Poissons Ratio (z) = 0.38183 0.38183
#
# Static dielectric constant tensor:
#      x y z
#    x 3.657750 0.000000 0.000000 
#    y 0.000000 3.657750 0.000000 
#    z 0.000000 0.000000 3.621610 
# 
# 
# High freq. dielectric constant tensor:
#      x y z
#    x 1.776620 0.000000 0.000000 
#    y 0.000000 1.776620 0.000000 
#    z 0.000000 0.000000 1.766850 
# 
# From -- ./inp_files/7798.got.cif
#   From: 2010.03.12/outbox.cif.g09.slc.cpg/sg137_4_cif.got.tgz:7798.got - 2010.04.08 09:34:49.
