data_PCOD8318569
_publ_section_title
;
Structure prediction by ZEFSAII (Michael W. Deem and Ramdas Pophale) SiO2 
 PCOD8318569
Probable space group: P 42/N M C
;
_chemical_formula_sum "Si O2"
_cell_formula_units_Z 112
_cell_length_a 14.328515
_cell_length_b 14.328515
_cell_length_c 30.332977
_cell_angle_alpha 90.000000
_cell_angle_beta 90.000000
_cell_angle_gamma 90.000000
_cell_volume 6227.552553
_symmetry_space_group_name_H-M "P 42/N M C"
_symmetry_group_IT_number 137
_space_group.IT_coordinate_system_code '2'
_symmetry_cell_setting 'tetragonal'
loop_
_space_group_symop_operation_xyz
x,y,z
1/2-y,x,1/2+z
1/2-x,1/2-y,z
y,1/2-x,1/2+z
1/2+x,-y,-z
-x,1/2+y,-z
1/2+y,1/2+x,1/2-z
-y,-x,1/2-z
-x,-y,-z
1/2+y,-x,1/2-z
1/2+x,1/2+y,-z
-y,1/2+x,1/2-z
1/2-x,y,z
x,1/2-y,z
1/2-y,1/2-x,1/2+z
y,x,1/2+z
loop_
_atom_site_type_symbol
_atom_site_label
_atom_site_fract_x
_atom_site_fract_y
_atom_site_fract_z
Si Si1 0.483572 0.140457 0.087065
Si Si2 0.858106 0.143764 0.801688
Si Si3 0.143813 0.003145 0.928217
Si Si4 0.147864 0.467231 0.831095
Si Si5 0.141230 0.355399 0.003026
Si Si6 0.456686 0.461666 0.174140
Si Si7 0.352623 0.356430 0.248458
O O1 0.503770 0.250000 0.094710
O O2 0.412105 0.122497 0.047807
O O3 0.432828 0.096360 0.130077
O O4 0.580539 0.089261 0.075098
O O5 0.874346 0.125655 0.750000
O O6 0.750000 0.129536 0.813860
O O7 0.888677 0.250000 0.813835
O O8 0.918631 0.068418 0.829413
O O9 0.250000 0.970823 0.938036
O O10 0.139330 0.061543 0.882431
O O11 0.106256 0.072871 0.965724
O O12 0.250000 0.512452 0.821934
O O13 0.133599 0.377576 0.799966
O O14 0.068466 0.542178 0.820009
O O15 0.250000 0.369006 0.012664
O O16 0.120019 0.250000 0.986912
O O17 0.419800 0.415163 0.218076
O O18 0.250000 0.398643 0.242432
O O19 0.356743 0.250000 0.232841
#
# Coordination Sequence:
#
# PCOD8318569 Si02
#       7
#    16  16  16  16  16  16  16
#     4  10  21  35  51  75 105 136 172 210 247 293
#     4   9  18  32  50  73 100 131 170 213 255 303
#     4   9  18  34  56  78  99 128 167 210 259 307
#     4   9  19  33  48  70  98 128 166 211 254 293
#     4   9  18  33  54  79 105 131 160 200 251 306
#     4  11  20  32  51  72  99 139 176 206 245 299
#     4  10  20  32  48  73 103 132 164 206 254 303
#
# _framework density 17.984591999999999
#
# number of rings (size 3 to 8) (size 9 to 14) (size 15 to 20)
#    0.000    2.429    0.000    3.000    0.000    3.714 
#    0.000    6.429    0.000    2.143    0.000   10.000 
#    0.000    0.000    0.000    0.000    0.000    0.000 
#
# Total GULP energy -1388244.368864 kJ/mol
# GULP energy per Si atom -12395.039008 kJ/mol
# Density = 1.794366 g / cm^3
# Si number density = 17.984592 Si / 1000 Ang^3
#
#
#
# Elastic Constant Matrix: (Units=GPa)
#
#
# Indices 1 2 3 4 5 6 
#
# 1 99.1303 53.2241 60.5455 0.0000 0.0000 0.0000
# 2 53.2241 99.1306 60.5455 0.0000 0.0000 0.0000
# 3 60.5455 60.5455 105.1849 0.0000 0.0000 0.0000
# 4 0.0000 0.0000 0.0000 29.5351 0.0000 0.0000
# 5 0.0000 0.0000 0.0000 0.0000 29.5350 0.0000
# 6 0.0000 0.0000 0.0000 0.0000 0.0000 25.0755
#
#
#
# Elastic Compliance Matrix: (Units=1/GPa)
#
#
# Indices 1 2 3 4 5 6 
#
# 1 0.016941 -0.004842 -0.006964 0.000000 0.000000 0.000000
# 2 -0.004842 0.016941 -0.006964 0.000000 0.000000 0.000000
# 3 -0.006964 -0.006964 0.017524 0.000000 0.000000 0.000000
# 4 0.000000 0.000000 0.000000 0.033858 0.000000 0.000000
# 5 0.000000 0.000000 0.000000 0.000000 0.033858 0.000000
# 6 0.000000 0.000000 0.000000 0.000000 0.000000 0.039880
#
#
# Mechanical properties :
#
#
# Convention : Reuss Voigt Hill
#
# Bulk Modulus (GPa) = 72.12305 72.45288 72.28797
# Shear Modulus (GPa) = 24.85518 25.43784 25.14651
#
# Velocity S-wave (km/s) = 3.72159 3.76496 3.74334
# Velocity P-wave (km/s) = 7.65877 7.69893 7.67887
#
# Compressibility (1/GPa) = 0.01386519
#
# Stress axis : x y z
#
# Youngs Moduli (GPa) = 59.02791 59.02818 57.06352
#
# Poissons Ratio (x) = 0.28584 0.39740
# Poissons Ratio (y) = 0.28584 0.39740
# Poissons Ratio (z) = 0.41108 0.41108
#
# Static dielectric constant tensor:
#      x y z
#    x 3.407110 0.000000 0.000000 
#    y 0.000000 3.407110 0.000000 
#    z 0.000000 0.000000 3.330810 
# 
# 
# High freq. dielectric constant tensor:
#      x y z
#    x 1.695470 0.000000 0.000000 
#    y 0.000000 1.695470 0.000000 
#    z 0.000000 0.000000 1.690170 
# 
# From -- ./inp_files/10719.got.cif
#   From: 2010.03.12/outbox.cif.g09.slc.cpg/sg137_6_cif.got.tgz:10719.got - 2010.04.08 09:34:49.
