data_PCOD8318945
_publ_section_title
;
Structure prediction by ZEFSAII (Michael W. Deem and Ramdas Pophale) SiO2 
 PCOD8318945
Probable space group: P 42/N C M
;
_chemical_formula_sum "Si O2"
_cell_formula_units_Z 96
_cell_length_a 16.930297
_cell_length_b 16.930297
_cell_length_c 17.555728
_cell_angle_alpha 90.000000
_cell_angle_beta 90.000000
_cell_angle_gamma 90.000000
_cell_volume 5032.085332
_symmetry_space_group_name_H-M "P 42/N C M"
_symmetry_group_IT_number 138
_space_group.IT_coordinate_system_code '2'
_symmetry_cell_setting 'tetragonal'
loop_
_space_group_symop_operation_xyz
x,y,z
1/2-y,x,1/2+z
1/2-x,1/2-y,z
y,1/2-x,1/2+z
1/2+x,-y,1/2-z
-x,1/2+y,1/2-z
1/2+y,1/2+x,-z
-y,-x,-z
-x,-y,-z
1/2+y,-x,1/2-z
1/2+x,1/2+y,-z
-y,1/2+x,1/2-z
1/2-x,y,1/2+z
x,1/2-y,1/2+z
1/2-y,1/2-x,z
y,x,z
loop_
_atom_site_type_symbol
_atom_site_label
_atom_site_fract_x
_atom_site_fract_y
_atom_site_fract_z
Si Si1 0.675035 0.549603 0.727239
Si Si2 0.677122 0.192515 0.082716
Si Si3 0.785907 0.031299 0.945293
Si Si4 0.228698 0.553677 0.376015
Si Si5 0.447916 0.923262 0.337561
Si Si6 0.751054 0.622437 0.871880
O O1 0.615298 0.615298 0.695311
O O2 0.729084 0.523913 0.656336
O O3 0.625745 0.477382 0.764040
O O4 0.733047 0.586983 0.789419
O O5 0.750000 0.250000 0.074771
O O6 0.597631 0.239541 0.105992
O O7 0.707094 0.123738 0.139634
O O8 0.656071 0.156071 0.000000
O O9 0.875065 0.028402 0.913690
O O10 0.743728 0.947168 0.933993
O O11 0.789788 0.050500 0.034370
O O12 0.146488 0.566091 0.331408
O O13 0.491989 0.008012 0.341487
O O14 0.835635 0.664366 0.868991
O O15 0.682804 0.682804 0.897220
#
# Coordination Sequence:
#
# PCOD8318945 Si02
#       6
#    16  16  16  16  16  16
#     4   9  21  39  54  74 110 148 181 223 273 324
#     4   9  17  32  51  76 112 145 170 207 269 332
#     4  10  19  34  58  84 111 142 182 227 277 330
#     4  11  21  34  57  85 110 141 184 232 274 319
#     4  10  21  37  55  79 112 145 177 222 282 338
#     4   9  19  38  60  79 107 150 190 225 277 340
#
# _framework density 19.077577000000002
#
# number of rings (size 3 to 8) (size 9 to 14) (size 15 to 20)
#    0.000    2.333    1.667    2.000    0.000    6.000 
#    0.000    2.500    0.000    5.000    0.000    0.000 
#    0.000    0.000    0.000    0.000    0.000    0.000 
#
# Total GULP energy -1189820.231219 kJ/mol
# GULP energy per Si atom -12393.960742 kJ/mol
# Density = 1.903416 g / cm^3
# Si number density = 19.077577 Si / 1000 Ang^3
#
#
#
# Elastic Constant Matrix: (Units=GPa)
#
#
# Indices 1 2 3 4 5 6 
#
# 1 105.9275 49.9170 16.0251 0.0000 0.0000 0.0000
# 2 49.9170 105.9275 16.0251 0.0000 0.0000 0.0000
# 3 16.0251 16.0251 32.5531 0.0000 0.0000 0.0000
# 4 0.0000 0.0000 0.0000 38.5598 0.0000 0.0000
# 5 0.0000 0.0000 0.0000 0.0000 38.5598 0.0000
# 6 0.0000 0.0000 0.0000 0.0000 0.0000 35.2546
#
#
#
# Elastic Compliance Matrix: (Units=1/GPa)
#
#
# Indices 1 2 3 4 5 6 
#
# 1 0.012497 -0.005357 -0.003515 0.000000 0.000000 0.000000
# 2 -0.005357 0.012497 -0.003515 0.000000 0.000000 0.000000
# 3 -0.003515 -0.003515 0.034179 0.000000 0.000000 0.000000
# 4 0.000000 0.000000 0.000000 0.025934 0.000000 0.000000
# 5 0.000000 0.000000 0.000000 0.000000 0.025934 0.000000
# 6 0.000000 0.000000 0.000000 0.000000 0.000000 0.028365
#
#
# Mechanical properties :
#
#
# Convention : Reuss Voigt Hill
#
# Bulk Modulus (GPa) = 29.06984 45.37138 37.22061
# Shear Modulus (GPa) = 28.46663 33.30426 30.88544
#
# Velocity S-wave (km/s) = 3.86703 4.18272 4.02797
# Velocity P-wave (km/s) = 5.93374 6.86739 6.41757
#
# Compressibility (1/GPa) = 0.03439991
#
# Stress axis : x y z
#
# Youngs Moduli (GPa) = 80.02171 80.02171 29.25748
#
# Poissons Ratio (x) = 0.42869 0.10283
# Poissons Ratio (y) = 0.42869 0.10283
# Poissons Ratio (z) = 0.28124 0.28124
#
# Static dielectric constant tensor:
#      x y z
#    x 3.693580 0.000000 0.000000 
#    y 0.000000 3.693580 0.000000 
#    z 0.000000 0.000000 3.164060 
# 
# 
# High freq. dielectric constant tensor:
#      x y z
#    x 1.743630 0.000000 0.000000 
#    y 0.000000 1.743630 0.000000 
#    z 0.000000 0.000000 1.710520 
# 
# From -- ./inp_files/5192.got.cif
#   From: 2010.03.12/outbox.cif.g09.slc.cpg/sg138_3_cif.got.tgz:5192.got - 2010.04.08 09:41:05.
