data_PCOD8318662
_publ_section_title
;
Structure prediction by ZEFSAII (Michael W. Deem and Ramdas Pophale) SiO2 
 PCOD8318662
Probable space group: P 42/N M C
;
_chemical_formula_sum "Si O2"
_cell_formula_units_Z 88
_cell_length_a 13.868225
_cell_length_b 13.868225
_cell_length_c 22.030460
_cell_angle_alpha 90.000000
_cell_angle_beta 90.000000
_cell_angle_gamma 90.000000
_cell_volume 4237.066923
_symmetry_space_group_name_H-M "P 42/N M C"
_symmetry_group_IT_number 137
_space_group.IT_coordinate_system_code '2'
_symmetry_cell_setting 'tetragonal'
loop_
_space_group_symop_operation_xyz
x,y,z
1/2-y,x,1/2+z
1/2-x,1/2-y,z
y,1/2-x,1/2+z
1/2+x,-y,-z
-x,1/2+y,-z
1/2+y,1/2+x,1/2-z
-y,-x,1/2-z
-x,-y,-z
1/2+y,-x,1/2-z
1/2+x,1/2+y,-z
-y,1/2+x,1/2-z
1/2-x,y,z
x,1/2-y,z
1/2-y,1/2-x,1/2+z
y,x,1/2+z
loop_
_atom_site_type_symbol
_atom_site_label
_atom_site_fract_x
_atom_site_fract_y
_atom_site_fract_z
Si Si1 0.943266 0.860175 0.063588
Si Si2 0.960371 0.361168 0.376894
Si Si3 0.541434 0.638256 0.926356
Si Si4 0.457605 0.142703 0.683813
Si Si5 0.855712 0.357841 0.883437
Si Si6 0.453262 0.953262 0.750000
O O1 0.918252 0.750000 0.080450
O O2 0.057902 0.881509 0.070102
O O3 0.881134 0.926733 0.108978
O O4 0.918573 0.882280 0.993700
O O5 0.934453 0.250000 0.389902
O O6 0.900352 0.431975 0.420354
O O7 0.931650 0.385101 0.307225
O O8 0.538291 0.750000 0.911204
O O9 0.616203 0.589069 0.880815
O O10 0.423646 0.250000 0.703646
O O11 0.572746 0.138028 0.674747
O O12 0.430612 0.065010 0.734637
O O13 0.750000 0.370589 0.915441
O O14 0.867745 0.250000 0.857783
#
# Coordination Sequence:
#
# PCOD8318662 Si02
#       6
#    16  16  16  16  16   8
#     4  10  20  38  63  91 125 155 185 237 300 361
#     4  11  24  41  62  87 117 158 205 250 296 344
#     4  10  22  40  60  88 122 156 197 242 294 353
#     4  10  21  37  60  86 116 155 195 240 298 360
#     4   9  17  31  55  88 120 147 181 230 292 357
#     4  10  22  40  56  86 116 154 200 254 296 340
#
# _framework density 20.769085
#
# number of rings (size 3 to 8) (size 9 to 14) (size 15 to 20)
#    0.000    2.000    3.636    0.545    0.000    6.909 
#    0.000    3.636    0.000    0.000    0.000    0.000 
#    0.000    0.000    0.000    0.000    0.000    0.000 
#
# Total GULP energy -1090814.041121 kJ/mol
# GULP energy per Si atom -12395.614104 kJ/mol
# Density = 2.072181 g / cm^3
# Si number density = 20.769085 Si / 1000 Ang^3
#
#
#
# Elastic Constant Matrix: (Units=GPa)
#
#
# Indices 1 2 3 4 5 6 
#
# 1 76.6925 10.1690 4.1756 0.0000 0.0000 0.0000
# 2 10.1690 76.6925 4.1756 0.0000 0.0000 0.0000
# 3 4.1756 4.1756 54.6149 0.0000 0.0000 0.0000
# 4 0.0000 0.0000 0.0000 15.5589 0.0000 0.0000
# 5 0.0000 0.0000 0.0000 0.0000 15.5589 0.0000
# 6 0.0000 0.0000 0.0000 0.0000 0.0000 19.6468
#
#
#
# Elastic Compliance Matrix: (Units=1/GPa)
#
#
# Indices 1 2 3 4 5 6 
#
# 1 0.013315 -0.001717 -0.000887 0.000000 0.000000 0.000000
# 2 -0.001717 0.013315 -0.000887 0.000000 0.000000 0.000000
# 3 -0.000887 -0.000887 0.018446 0.000000 0.000000 0.000000
# 4 0.000000 0.000000 0.000000 0.064272 0.000000 0.000000
# 5 0.000000 0.000000 0.000000 0.000000 0.064272 0.000000
# 6 0.000000 0.000000 0.000000 0.000000 0.000000 0.050899
#
#
# Mechanical properties :
#
#
# Convention : Reuss Voigt Hill
#
# Bulk Modulus (GPa) = 26.25056 27.22669 26.73862
# Shear Modulus (GPa) = 20.47517 22.78488 21.63003
#
# Velocity S-wave (km/s) = 3.14323 3.31578 3.23066
# Velocity P-wave (km/s) = 5.08329 5.27228 5.17865
#
# Compressibility (1/GPa) = 0.03809442
#
# Stress axis : x y z
#
# Youngs Moduli (GPa) = 75.10291 75.10291 54.21348
#
# Poissons Ratio (x) = 0.12897 0.04807
# Poissons Ratio (y) = 0.12897 0.04807
# Poissons Ratio (z) = 0.06659 0.06659
#
# Static dielectric constant tensor:
#      x y z
#    x 3.836580 0.000000 0.000000 
#    y 0.000000 3.836580 0.000000 
#    z 0.000000 0.000000 3.462330 
# 
# 
# High freq. dielectric constant tensor:
#      x y z
#    x 1.811350 0.000000 0.000000 
#    y 0.000000 1.811350 0.000000 
#    z 0.000000 0.000000 1.791530 
# 
# From -- ./inp_files/7745.got.cif
#   From: 2010.03.12/outbox.cif.g09.slc.cpg/sg137_4_cif.got.tgz:7745.got - 2010.04.08 09:34:49.
