data_PCOD8318657
_publ_section_title
;
Structure prediction by ZEFSAII (Michael W. Deem and Ramdas Pophale) SiO2 
 PCOD8318657
Probable space group: P 42/N M C
;
_chemical_formula_sum "Si O2"
_cell_formula_units_Z 112
_cell_length_a 30.894995
_cell_length_b 30.894995
_cell_length_c 5.472248
_cell_angle_alpha 90.000000
_cell_angle_beta 90.000000
_cell_angle_gamma 90.000000
_cell_volume 5223.264634
_symmetry_space_group_name_H-M "P 42/N M C"
_symmetry_group_IT_number 137
_space_group.IT_coordinate_system_code '2'
_symmetry_cell_setting 'tetragonal'
loop_
_space_group_symop_operation_xyz
x,y,z
1/2-y,x,1/2+z
1/2-x,1/2-y,z
y,1/2-x,1/2+z
1/2+x,-y,-z
-x,1/2+y,-z
1/2+y,1/2+x,1/2-z
-y,-x,1/2-z
-x,-y,-z
1/2+y,-x,1/2-z
1/2+x,1/2+y,-z
-y,1/2+x,1/2-z
1/2-x,y,z
x,1/2-y,z
1/2-y,1/2-x,1/2+z
y,x,1/2+z
loop_
_atom_site_type_symbol
_atom_site_label
_atom_site_fract_x
_atom_site_fract_y
_atom_site_fract_z
Si Si1 0.952922 0.202137 0.548781
Si Si2 0.299927 0.164490 0.536220
Si Si3 0.871462 0.592425 0.464489
Si Si4 0.700884 0.365653 0.650163
Si Si5 0.447819 0.480286 0.227169
Si Si6 0.858561 0.501576 0.649141
Si Si7 0.857561 0.078068 0.343959
O O1 0.963681 0.250000 0.452513
O O2 0.904851 0.201010 0.659473
O O3 0.953760 0.167685 0.335384
O O4 0.992366 0.188066 0.726555
O O5 0.250000 0.150494 0.536296
O O6 0.308756 0.191239 0.286211
O O7 0.328611 0.121396 0.536216
O O8 0.898800 0.601124 0.716420
O O9 0.854778 0.542599 0.467461
O O10 0.677151 0.322849 0.750000
O O11 0.750000 0.353010 0.576263
O O12 0.674452 0.382758 0.417778
O O13 0.478101 0.521900 0.250000
O O14 0.448390 0.460049 0.503228
O O15 0.398264 0.491397 0.163542
O O16 0.872966 0.454876 0.547558
O O17 0.901952 0.098049 0.250000
#
# Coordination Sequence:
#
# PCOD8318657 Si02
#       7
#    16  16  16  16  16  16  16
#     4  10  23  41  61  89 123 158 205 263 325 384
#     4  10  21  38  63  96 131 169 215 268 327 389
#     4  10  23  43  66  91 134 181 223 266 330 390
#     4  10  20  38  60  86 118 155 195 249 316 392
#     4  10  23  39  59  90 130 164 204 262 323 377
#     4  11  25  37  66  90 122 163 219 264 312 386
#     4  11  23  38  64  90 120 162 207 263 329 388
#
# _framework density 21.442526999999998
#
# number of rings (size 3 to 8) (size 9 to 14) (size 15 to 20)
#    0.000    1.714    1.429    1.714    6.000    2.714 
#    0.000    0.000    0.000    0.000    0.000    0.000 
#    0.000    0.000    0.000    0.000    0.000    0.000 
#
# Total GULP energy -1387736.258318 kJ/mol
# GULP energy per Si atom -12390.502306 kJ/mol
# Density = 2.139372 g / cm^3
# Si number density = 21.442527 Si / 1000 Ang^3
#
#
#
# Elastic Constant Matrix: (Units=GPa)
#
#
# Indices 1 2 3 4 5 6 
#
# 1 99.3448 61.6097 27.2754 0.0000 0.0000 0.0000
# 2 61.6097 99.3510 27.2758 0.0000 0.0000 0.0000
# 3 27.2754 27.2758 93.7847 0.0000 0.0000 0.0000
# 4 0.0000 0.0000 0.0000 17.3601 0.0000 0.0000
# 5 0.0000 0.0000 0.0000 0.0000 17.3567 0.0000
# 6 0.0000 0.0000 0.0000 0.0000 0.0000 15.1723
#
#
#
# Elastic Compliance Matrix: (Units=1/GPa)
#
#
# Indices 1 2 3 4 5 6 
#
# 1 0.016696 -0.009803 -0.002005 0.000000 0.000000 0.000000
# 2 -0.009803 0.016695 -0.002004 0.000000 0.000000 0.000000
# 3 -0.002005 -0.002004 0.011829 0.000000 0.000000 0.000000
# 4 0.000000 0.000000 0.000000 0.057603 0.000000 0.000000
# 5 0.000000 0.000000 0.000000 0.000000 0.057615 0.000000
# 6 0.000000 0.000000 0.000000 0.000000 0.000000 0.065910
#
#
# Mechanical properties :
#
#
# Convention : Reuss Voigt Hill
#
# Bulk Modulus (GPa) = 56.83393 58.31136 57.57265
# Shear Modulus (GPa) = 19.24292 21.73246 20.48769
#
# Velocity S-wave (km/s) = 2.99894 3.18704 3.09442
# Velocity P-wave (km/s) = 6.20921 6.38719 6.29883
#
# Compressibility (1/GPa) = 0.01759512
#
# Stress axis : x y z
#
# Youngs Moduli (GPa) = 59.89525 59.89912 84.54057
#
# Poissons Ratio (x) = 0.58720 0.16947
# Poissons Ratio (y) = 0.58716 0.16945
# Poissons Ratio (z) = 0.12006 0.12006
#
# Static dielectric constant tensor:
#      x y z
#    x 3.870820 0.000000 0.000000 
#    y 0.000000 3.870810 0.000000 
#    z 0.000000 0.000000 4.187700 
# 
# 
# High freq. dielectric constant tensor:
#      x y z
#    x 1.844100 0.000000 0.000000 
#    y 0.000000 1.844100 0.000000 
#    z 0.000000 0.000000 1.838060 
# 
# From -- ./inp_files/683.got.cif
#   From: 2010.03.12/outbox.cif.g09.slc.cpg/sg137_1_cif.got.tgz:683.got - 2010.04.08 09:34:49.
