data_PCOD8318507
_publ_section_title
;
Structure prediction by ZEFSAII (Michael W. Deem and Ramdas Pophale) SiO2 
 PCOD8318507
Probable space group: P 42/N M C
;
_chemical_formula_sum "Si O2"
_cell_formula_units_Z 112
_cell_length_a 14.140277
_cell_length_b 14.140277
_cell_length_c 30.661412
_cell_angle_alpha 90.000000
_cell_angle_beta 90.000000
_cell_angle_gamma 90.000000
_cell_volume 6130.670641
_symmetry_space_group_name_H-M "P 42/N M C"
_symmetry_group_IT_number 137
_space_group.IT_coordinate_system_code '2'
_symmetry_cell_setting 'tetragonal'
loop_
_space_group_symop_operation_xyz
x,y,z
1/2-y,x,1/2+z
1/2-x,1/2-y,z
y,1/2-x,1/2+z
1/2+x,-y,-z
-x,1/2+y,-z
1/2+y,1/2+x,1/2-z
-y,-x,1/2-z
-x,-y,-z
1/2+y,-x,1/2-z
1/2+x,1/2+y,-z
-y,1/2+x,1/2-z
1/2-x,y,z
x,1/2-y,z
1/2-y,1/2-x,1/2+z
y,x,1/2+z
loop_
_atom_site_type_symbol
_atom_site_label
_atom_site_fract_x
_atom_site_fract_y
_atom_site_fract_z
Si Si1 0.859279 0.645464 0.087434
Si Si2 0.467275 0.862374 0.711939
Si Si3 0.142121 0.040989 0.320406
Si Si4 0.862485 0.037514 0.042028
Si Si5 0.855105 0.137816 0.373252
Si Si6 0.145862 0.637923 0.136928
Si Si7 0.355567 0.862106 0.458949
O O1 0.750000 0.626556 0.098647
O O2 0.876170 0.750000 0.067961
O O3 0.912428 0.632508 0.132530
O O4 0.895266 0.570689 0.051205
O O5 0.402157 0.902157 0.750000
O O6 0.474637 0.750000 0.716923
O O7 0.572420 0.907974 0.713771
O O8 0.420574 0.895195 0.666598
O O9 0.250000 0.049483 0.302975
O O10 0.111027 0.930715 0.326154
O O11 0.750000 0.043143 0.040326
O O12 0.900858 0.102137 0.081603
O O13 0.904684 0.075128 0.996236
O O14 0.750000 0.095354 0.367333
O O15 0.850416 0.250000 0.373834
O O16 0.250000 0.597181 0.149723
O O17 0.152478 0.750000 0.132347
O O18 0.112644 0.601860 0.088845
O O19 0.250000 0.904972 0.465239
O O20 0.349243 0.750000 0.463406
#
# Coordination Sequence:
#
# PCOD8318507 Si02
#       7
#    16  16  16  16  16  16  16
#     4   9  16  26  41  62  90 127 169 208 245 289
#     4  11  22  36  53  76 103 131 163 201 250 311
#     4  10  19  33  54  75  98 131 169 209 252 298
#     4   9  14  22  38  64  95 128 166 205 248 295
#     4   9  16  26  42  65  94 128 162 195 240 299
#     4   8  15  29  49  73  99 129 167 210 255 298
#     4   8  13  22  39  65  97 130 164 204 249 296
#
# _framework density 18.268801
#
# number of rings (size 3 to 8) (size 9 to 14) (size 15 to 20)
#    0.000    2.857    1.429    2.143    0.000    3.286 
#    0.000    1.429    0.000    0.000    0.000    1.000 
#    0.000    1.143    0.000    0.000    0.000    0.000 
#
# Total GULP energy -1388001.561866 kJ/mol
# GULP energy per Si atom -12392.871088 kJ/mol
# Density = 1.822722 g / cm^3
# Si number density = 18.268801 Si / 1000 Ang^3
#
#
#
# Elastic Constant Matrix: (Units=GPa)
#
#
# Indices 1 2 3 4 5 6 
#
# 1 79.8523 29.3965 26.3235 0.0000 0.0000 0.0000
# 2 29.3965 79.8523 26.3235 0.0000 0.0000 0.0000
# 3 26.3235 26.3235 47.4567 0.0000 0.0000 0.0000
# 4 0.0000 0.0000 0.0000 17.4897 0.0000 0.0000
# 5 0.0000 0.0000 0.0000 0.0000 17.4897 0.0000
# 6 0.0000 0.0000 0.0000 0.0000 0.0000 13.7214
#
#
#
# Elastic Compliance Matrix: (Units=1/GPa)
#
#
# Indices 1 2 3 4 5 6 
#
# 1 0.016156 -0.003663 -0.006930 0.000000 0.000000 0.000000
# 2 -0.003663 0.016156 -0.006930 0.000000 0.000000 0.000000
# 3 -0.006930 -0.006930 0.028759 0.000000 0.000000 0.000000
# 4 0.000000 0.000000 0.000000 0.057177 0.000000 0.000000
# 5 0.000000 0.000000 0.000000 0.000000 0.057177 0.000000
# 6 0.000000 0.000000 0.000000 0.000000 0.000000 0.072879
#
#
# Mechanical properties :
#
#
# Convention : Reuss Voigt Hill
#
# Bulk Modulus (GPa) = 38.42221 41.24982 39.83602
# Shear Modulus (GPa) = 17.12190 18.08134 17.60162
#
# Velocity S-wave (km/s) = 3.06473 3.14942 3.10736
# Velocity P-wave (km/s) = 5.79661 5.98778 5.89297
#
# Compressibility (1/GPa) = 0.02602661
#
# Stress axis : x y z
#
# Youngs Moduli (GPa) = 61.89632 61.89632 34.77133
#
# Poissons Ratio (x) = 0.22674 0.24095
# Poissons Ratio (y) = 0.22674 0.24095
# Poissons Ratio (z) = 0.42891 0.42891
#
# Static dielectric constant tensor:
#      x y z
#    x 3.468340 0.000000 0.000000 
#    y 0.000000 3.468340 0.000000 
#    z 0.000000 0.000000 3.253730 
# 
# 
# High freq. dielectric constant tensor:
#      x y z
#    x 1.692300 0.000000 0.000000 
#    y 0.000000 1.692300 0.000000 
#    z 0.000000 0.000000 1.680970 
# 
# From -- ./inp_files/10725.got.cif
#   From: 2010.03.12/outbox.cif.g09.slc.cpg/sg137_6_cif.got.tgz:10725.got - 2010.04.08 09:34:49.
