data_PCOD8318465
_publ_section_title
;
Structure prediction by ZEFSAII (Michael W. Deem and Ramdas Pophale) SiO2 
 PCOD8318465
Probable space group: P 42/N M C
;
_chemical_formula_sum "Si O2"
_cell_formula_units_Z 112
_cell_length_a 24.093594
_cell_length_b 24.093594
_cell_length_c 12.434345
_cell_angle_alpha 90.000000
_cell_angle_beta 90.000000
_cell_angle_gamma 90.000000
_cell_volume 7218.153087
_symmetry_space_group_name_H-M "P 42/N M C"
_symmetry_group_IT_number 137
_space_group.IT_coordinate_system_code '2'
_symmetry_cell_setting 'tetragonal'
loop_
_space_group_symop_operation_xyz
x,y,z
1/2-y,x,1/2+z
1/2-x,1/2-y,z
y,1/2-x,1/2+z
1/2+x,-y,-z
-x,1/2+y,-z
1/2+y,1/2+x,1/2-z
-y,-x,1/2-z
-x,-y,-z
1/2+y,-x,1/2-z
1/2+x,1/2+y,-z
-y,1/2+x,1/2-z
1/2-x,y,z
x,1/2-y,z
1/2-y,1/2-x,1/2+z
y,x,1/2+z
loop_
_atom_site_type_symbol
_atom_site_label
_atom_site_fract_x
_atom_site_fract_y
_atom_site_fract_z
Si Si1 0.513589 0.092606 0.554708
Si Si2 0.989385 0.395596 0.890013
Si Si3 0.430180 0.009198 0.816658
Si Si4 0.250000 0.313167 0.010531
Si Si5 0.841969 0.859115 0.851208
Si Si6 0.313180 0.250000 0.260767
Si Si7 0.315065 0.019794 0.209073
Si Si8 0.456841 0.397604 0.103939
O O1 0.570300 0.068522 0.607237
O O2 0.518029 0.095774 0.424395
O O3 0.502690 0.154071 0.601548
O O4 0.464676 0.050006 0.589442
O O5 0.038646 0.434439 0.847479
O O6 0.988389 0.342110 0.812117
O O7 0.001311 0.375717 0.012552
O O8 0.467023 0.967023 0.750000
O O9 0.383554 0.024353 0.726695
O O10 0.250000 0.250000 0.054107
O O11 0.197818 0.347545 0.050026
O O12 0.250000 0.313820 0.885750
O O13 0.844498 0.805654 0.774896
O O14 0.823358 0.913556 0.783405
O O15 0.899193 0.866988 0.913448
O O16 0.250000 0.250000 0.217358
O O17 0.250000 0.004653 0.203778
#
# Coordination Sequence:
#
# PCOD8318465 Si02
#       8
#    16  16  16   8  16   8  16  16
#     4  10  19  30  53  71  96 127 156 196 239 306
#     4  11  18  32  49  72 100 126 154 197 251 305
#     4  11  15  29  50  75  96 118 157 204 242 294
#     4  11  22  36  52  58  78 124 186 230 258 289
#     4  11  20  36  46  64  88 119 168 218 256 300
#     4  11  22  36  50  58  76 122 178 230 262 285
#     4  11  22  34  48  70  99 127 163 199 246 299
#     4  10  20  28  49  75  95 119 157 205 263 303
#
# _framework density 15.516436000000001
#
# number of rings (size 3 to 8) (size 9 to 14) (size 15 to 20)
#    0.000    1.286    7.857    1.286    2.000    1.143 
#    1.286    0.000    0.000    0.000    0.000    0.000 
#    0.000    4.571    0.000    0.000    0.000    0.000 
#
# Total GULP energy -1387992.065564 kJ/mol
# GULP energy per Si atom -12392.786300 kJ/mol
# Density = 1.548112 g / cm^3
# Si number density = 15.516436 Si / 1000 Ang^3
#
#
#
# Elastic Constant Matrix: (Units=GPa)
#
#
# Indices 1 2 3 4 5 6 
#
# 1 66.2071 37.5208 34.8233 0.0000 0.0000 0.0000
# 2 37.5208 66.2071 34.8233 0.0000 0.0000 0.0000
# 3 34.8233 34.8233 126.0268 0.0000 0.0000 0.0000
# 4 0.0000 0.0000 0.0000 19.5767 0.0000 0.0000
# 5 0.0000 0.0000 0.0000 0.0000 19.5767 0.0000
# 6 0.0000 0.0000 0.0000 0.0000 0.0000 27.0394
#
#
#
# Elastic Compliance Matrix: (Units=1/GPa)
#
#
# Indices 1 2 3 4 5 6 
#
# 1 0.023348 -0.011512 -0.003271 0.000000 0.000000 0.000000
# 2 -0.011512 0.023348 -0.003271 0.000000 0.000000 0.000000
# 3 -0.003271 -0.003271 0.009742 0.000000 0.000000 0.000000
# 4 0.000000 0.000000 0.000000 0.051081 0.000000 0.000000
# 5 0.000000 0.000000 0.000000 0.000000 0.051081 0.000000
# 6 0.000000 0.000000 0.000000 0.000000 0.000000 0.036983
#
#
# Mechanical properties :
#
#
# Convention : Reuss Voigt Hill
#
# Bulk Modulus (GPa) = 49.18131 52.53068 50.85599
# Shear Modulus (GPa) = 20.96721 23.32347 22.14534
#
# Velocity S-wave (km/s) = 3.67998 3.88125 3.78195
# Velocity P-wave (km/s) = 7.05843 7.34941 7.20539
#
# Compressibility (1/GPa) = 0.02033293
#
# Stress axis : x y z
#
# Youngs Moduli (GPa) = 42.82976 42.82976 102.64521
#
# Poissons Ratio (x) = 0.49304 0.33572
# Poissons Ratio (y) = 0.49304 0.33572
# Poissons Ratio (z) = 0.14008 0.14008
#
# Static dielectric constant tensor:
#      x y z
#    x 2.819860 0.000000 0.000000 
#    y 0.000000 2.819860 0.000000 
#    z 0.000000 0.000000 3.408330 
# 
# 
# High freq. dielectric constant tensor:
#      x y z
#    x 1.558960 0.000000 0.000000 
#    y 0.000000 1.558960 0.000000 
#    z 0.000000 0.000000 1.620200 
# 
# From -- ./inp_files/3981.got.cif
#   From: 2010.03.12/outbox.cif.g09.slc.cpg/sg137_2_cif.got.tgz:3981.got - 2010.04.08 09:34:49.
