data_PCOD8318375
_publ_section_title
;
Structure prediction by ZEFSAII (Michael W. Deem and Ramdas Pophale) SiO2 
 PCOD8318375
Probable space group: P 42/N M C
;
_chemical_formula_sum "Si O2"
_cell_formula_units_Z 64
_cell_length_a 12.374684
_cell_length_b 12.374684
_cell_length_c 19.279757
_cell_angle_alpha 90.000000
_cell_angle_beta 90.000000
_cell_angle_gamma 90.000000
_cell_volume 2952.363252
_symmetry_space_group_name_H-M "P 42/N M C"
_symmetry_group_IT_number 137
_space_group.IT_coordinate_system_code '2'
_symmetry_cell_setting 'tetragonal'
loop_
_space_group_symop_operation_xyz
x,y,z
1/2-y,x,1/2+z
1/2-x,1/2-y,z
y,1/2-x,1/2+z
1/2+x,-y,-z
-x,1/2+y,-z
1/2+y,1/2+x,1/2-z
-y,-x,1/2-z
-x,-y,-z
1/2+y,-x,1/2-z
1/2+x,1/2+y,-z
-y,1/2+x,1/2-z
1/2-x,y,z
x,1/2-y,z
1/2-y,1/2-x,1/2+z
y,x,1/2+z
loop_
_atom_site_type_symbol
_atom_site_label
_atom_site_fract_x
_atom_site_fract_y
_atom_site_fract_z
Si Si1 0.250000 0.378986 0.001115
Si Si2 0.621166 0.750000 0.656874
Si Si3 0.451387 0.370656 0.753414
Si Si4 0.124103 0.420537 0.606808
Si Si5 0.620539 0.130836 0.327320
O O1 0.250000 0.250000 0.005970
O O2 0.356251 0.426422 0.041330
O O3 0.250000 0.417769 0.922583
O O4 0.750000 0.750000 0.665330
O O5 0.577423 0.639146 0.693697
O O6 0.561144 0.438857 0.750000
O O7 0.481534 0.250000 0.779685
O O8 0.399110 0.357707 0.677782
O O9 0.250000 0.426321 0.594349
O O10 0.080428 0.544124 0.615315
O O11 0.587514 0.087514 0.250000
O O12 0.750000 0.141713 0.326146
O O13 0.570034 0.250000 0.344638
#
# Coordination Sequence:
#
# PCOD8318375 Si02
#       5
#     8   8  16  16  16
#     4   9  18  32  58  90 120 162 205 254 310 360
#     4   9  20  40  64  91 125 161 206 264 317 365
#     4  11  22  38  63  91 122 160 212 264 308 362
#     4  10  17  30  56  85 118 156 202 254 303 367
#     4   8  14  24  40  71 117 156 187 240 308 370
#
# _framework density 21.677548000000002
#
# number of rings (size 3 to 8) (size 9 to 14) (size 15 to 20)
#    0.000    2.500    2.500    1.500    0.000    0.250 
#    2.250    1.250    0.000    1.875    0.000    7.000 
#    3.750    0.000    0.000    0.000    0.000    0.000 
#
# Total GULP energy -793318.001779 kJ/mol
# GULP energy per Si atom -12395.593778 kJ/mol
# Density = 2.162821 g / cm^3
# Si number density = 21.677548 Si / 1000 Ang^3
#
#
#
# Elastic Constant Matrix: (Units=GPa)
#
#
# Indices 1 2 3 4 5 6 
#
# 1 201.9473 -23.9389 56.0721 0.0000 0.0000 0.0000
# 2 -23.9389 201.9600 56.0710 0.0000 0.0000 0.0000
# 3 56.0721 56.0710 151.2518 0.0000 0.0000 0.0000
# 4 0.0000 0.0000 0.0000 18.6709 0.0000 0.0000
# 5 0.0000 0.0000 0.0000 0.0000 18.6697 0.0000
# 6 0.0000 0.0000 0.0000 0.0000 0.0000 33.0257
#
#
#
# Elastic Compliance Matrix: (Units=1/GPa)
#
#
# Indices 1 2 3 4 5 6 
#
# 1 0.005878 0.001451 -0.002717 0.000000 0.000000 0.000000
# 2 0.001451 0.005878 -0.002717 0.000000 0.000000 0.000000
# 3 -0.002717 -0.002717 0.008626 0.000000 0.000000 0.000000
# 4 0.000000 0.000000 0.000000 0.053559 0.000000 0.000000
# 5 0.000000 0.000000 0.000000 0.000000 0.053563 0.000000
# 6 0.000000 0.000000 0.000000 0.000000 0.000000 0.030279
#
#
# Mechanical properties :
#
#
# Convention : Reuss Voigt Hill
#
# Bulk Modulus (GPa) = 80.54031 81.28528 80.91280
# Shear Modulus (GPa) = 29.43116 45.20360 37.31738
#
# Velocity S-wave (km/s) = 3.68867 4.57143 4.15357
# Velocity P-wave (km/s) = 7.44151 8.08968 7.77235
#
# Compressibility (1/GPa) = 0.01241614
#
# Stress axis : x y z
#
# Youngs Moduli (GPa) = 170.11906 170.13180 115.92865
#
# Poissons Ratio (x) = -0.24688 0.31499
# Poissons Ratio (y) = -0.24687 0.31497
# Poissons Ratio (z) = 0.46224 0.46224
#
# Static dielectric constant tensor:
#      x y z
#    x 4.117610 0.000000 0.000000 
#    y 0.000000 4.117610 0.000000 
#    z 0.000000 0.000000 3.641010 
# 
# 
# High freq. dielectric constant tensor:
#      x y z
#    x 1.863250 0.000000 0.000000 
#    y 0.000000 1.863250 0.000000 
#    z 0.000000 0.000000 1.817280 
# 
# From -- ./inp_files/7485.got.cif
#   From: 2010.03.12/outbox.cif.g09.slc.cpg/sg137_4_cif.got.tgz:7485.got - 2010.04.08 09:34:49.
