data_PCOD8318493
_publ_section_title
;
Structure prediction by ZEFSAII (Michael W. Deem and Ramdas Pophale) SiO2 
 PCOD8318493
Probable space group: P 42/N M C
;
_chemical_formula_sum "Si O2"
_cell_formula_units_Z 96
_cell_length_a 19.913583
_cell_length_b 19.913583
_cell_length_c 13.527493
_cell_angle_alpha 90.000000
_cell_angle_beta 90.000000
_cell_angle_gamma 90.000000
_cell_volume 5364.338007
_symmetry_space_group_name_H-M "P 42/N M C"
_symmetry_group_IT_number 137
_space_group.IT_coordinate_system_code '2'
_symmetry_cell_setting 'tetragonal'
loop_
_space_group_symop_operation_xyz
x,y,z
1/2-y,x,1/2+z
1/2-x,1/2-y,z
y,1/2-x,1/2+z
1/2+x,-y,-z
-x,1/2+y,-z
1/2+y,1/2+x,1/2-z
-y,-x,1/2-z
-x,-y,-z
1/2+y,-x,1/2-z
1/2+x,1/2+y,-z
-y,1/2+x,1/2-z
1/2-x,y,z
x,1/2-y,z
1/2-y,1/2-x,1/2+z
y,x,1/2+z
loop_
_atom_site_type_symbol
_atom_site_label
_atom_site_fract_x
_atom_site_fract_y
_atom_site_fract_z
Si Si1 0.674015 0.937792 0.231294
Si Si2 0.950882 0.403899 0.957543
Si Si3 0.827517 0.937586 0.450329
Si Si4 0.175670 0.174365 0.911353
Si Si5 0.172727 0.826913 0.366466
Si Si6 0.502080 0.050241 0.354412
O O1 0.750000 0.968551 0.227957
O O2 0.640735 0.941452 0.340547
O O3 0.675280 0.860823 0.195392
O O4 0.625651 0.973959 0.153500
O O5 0.878818 0.378265 0.918910
O O6 0.991993 0.447074 0.876333
O O7 0.943224 0.445845 0.057085
O O8 0.995029 0.339159 0.987036
O O9 0.750000 0.923941 0.433450
O O10 0.859877 0.875125 0.509950
O O11 0.250000 0.170895 0.958565
O O12 0.152181 0.250000 0.890288
O O13 0.164029 0.835972 0.250000
O O14 0.250000 0.841768 0.396927
O O15 0.154145 0.750000 0.396645
O O16 0.535843 0.035843 0.250000
#
# Coordination Sequence:
#
# PCOD8318493 Si02
#       6
#    16  16  16  16  16  16
#     4  10  20  35  53  73 105 143 178 216 264 318
#     4  11  21  34  57  79 108 142 178 224 268 327
#     4  10  19  32  53  78 102 136 180 218 261 316
#     4   9  18  33  52  74 103 137 175 220 262 306
#     4   9  19  38  62  85 108 135 173 227 286 335
#     4  11  22  36  52  78 111 145 182 222 269 322
#
# _framework density 17.895963999999999
#
# number of rings (size 3 to 8) (size 9 to 14) (size 15 to 20)
#    0.000    2.000    3.333    1.500    0.000    1.333 
#    0.000    3.333    0.000    0.000    0.000    1.167 
#    0.000    0.000    0.000    0.000    0.000    0.000 
#
# Total GULP energy -1189611.355593 kJ/mol
# GULP energy per Si atom -12391.784954 kJ/mol
# Density = 1.785523 g / cm^3
# Si number density = 17.895964 Si / 1000 Ang^3
#
#
#
# Elastic Constant Matrix: (Units=GPa)
#
#
# Indices 1 2 3 4 5 6 
#
# 1 92.6804 44.7747 41.7514 0.0000 0.0000 0.0000
# 2 44.7747 92.6804 41.7513 0.0000 0.0000 0.0000
# 3 41.7514 41.7513 85.5159 0.0000 0.0000 0.0000
# 4 0.0000 0.0000 0.0000 26.4825 0.0000 0.0000
# 5 0.0000 0.0000 0.0000 0.0000 26.4826 0.0000
# 6 0.0000 0.0000 0.0000 0.0000 0.0000 27.3859
#
#
#
# Elastic Compliance Matrix: (Units=1/GPa)
#
#
# Indices 1 2 3 4 5 6 
#
# 1 0.015609 -0.005266 -0.005050 0.000000 0.000000 0.000000
# 2 -0.005266 0.015609 -0.005050 0.000000 0.000000 0.000000
# 3 -0.005050 -0.005050 0.016624 0.000000 0.000000 0.000000
# 4 0.000000 0.000000 0.000000 0.037761 0.000000 0.000000
# 5 0.000000 0.000000 0.000000 0.000000 0.037761 0.000000
# 6 0.000000 0.000000 0.000000 0.000000 0.000000 0.036515
#
#
# Mechanical properties :
#
#
# Convention : Reuss Voigt Hill
#
# Bulk Modulus (GPa) = 58.44046 58.60348 58.52197
# Shear Modulus (GPa) = 25.46967 25.57682 25.52325
#
# Velocity S-wave (km/s) = 3.77663 3.78457 3.78060
# Velocity P-wave (km/s) = 7.19332 7.20522 7.19927
#
# Compressibility (1/GPa) = 0.01711143
#
# Stress axis : x y z
#
# Youngs Moduli (GPa) = 64.06764 64.06762 60.15232
#
# Poissons Ratio (x) = 0.33737 0.30375
# Poissons Ratio (y) = 0.33737 0.30374
# Poissons Ratio (z) = 0.32352 0.32352
#
# Static dielectric constant tensor:
#      x y z
#    x 3.335120 0.000000 0.000000 
#    y 0.000000 3.335120 0.000000 
#    z 0.000000 0.000000 3.405370 
# 
# 
# High freq. dielectric constant tensor:
#      x y z
#    x 1.689530 0.000000 0.000000 
#    y 0.000000 1.689530 0.000000 
#    z 0.000000 0.000000 1.691730 
# 
# From -- ./inp_files/3738.got.cif
#   From: 2010.03.12/outbox.cif.g09.slc.cpg/sg137_2_cif.got.tgz:3738.got - 2010.04.08 09:34:49.
