data_PCOD8318568
_publ_section_title
;
Structure prediction by ZEFSAII (Michael W. Deem and Ramdas Pophale) SiO2 
 PCOD8318568
Probable space group: P 42/N M C
;
_chemical_formula_sum "Si O2"
_cell_formula_units_Z 96
_cell_length_a 13.983370
_cell_length_b 13.983370
_cell_length_c 27.261809
_cell_angle_alpha 90.000000
_cell_angle_beta 90.000000
_cell_angle_gamma 90.000000
_cell_volume 5330.627915
_symmetry_space_group_name_H-M "P 42/N M C"
_symmetry_group_IT_number 137
_space_group.IT_coordinate_system_code '2'
_symmetry_cell_setting 'tetragonal'
loop_
_space_group_symop_operation_xyz
x,y,z
1/2-y,x,1/2+z
1/2-x,1/2-y,z
y,1/2-x,1/2+z
1/2+x,-y,-z
-x,1/2+y,-z
1/2+y,1/2+x,1/2-z
-y,-x,1/2-z
-x,-y,-z
1/2+y,-x,1/2-z
1/2+x,1/2+y,-z
-y,1/2+x,1/2-z
1/2-x,y,z
x,1/2-y,z
1/2-y,1/2-x,1/2+z
y,x,1/2+z
loop_
_atom_site_type_symbol
_atom_site_label
_atom_site_fract_x
_atom_site_fract_y
_atom_site_fract_z
Si Si1 0.855324 0.637842 0.641906
Si Si2 0.356205 0.643573 0.191795
Si Si3 0.503579 0.979185 0.693166
Si Si4 0.481791 0.363016 0.447085
Si Si5 0.971724 0.360411 0.106658
Si Si6 0.859273 0.642298 0.961827
O O1 0.750000 0.591638 0.646803
O O2 0.845991 0.750000 0.641114
O O3 0.922081 0.608153 0.687388
O O4 0.905062 0.599562 0.592525
O O5 0.356521 0.643480 0.250000
O O6 0.250000 0.619594 0.171978
O O7 0.386804 0.750000 0.173277
O O8 0.427019 0.560321 0.173638
O O9 0.477127 0.977127 0.750000
O O10 0.408756 0.964730 0.660330
O O11 0.493774 0.250000 0.444365
O O12 0.585190 0.407742 0.434364
O O13 0.438392 0.394325 0.499518
O O14 0.937335 0.250000 0.110912
O O15 0.080549 0.366533 0.087976
O O16 0.750000 0.623385 0.947217
O O17 0.870849 0.750000 0.984238
#
# Coordination Sequence:
#
# PCOD8318568 Si02
#       6
#    16  16  16  16  16  16
#     4   9  17  30  49  73  95 114 149 205 257 294
#     4   8  14  26  45  67  88 112 148 195 245 296
#     4  10  20  32  47  66  93 132 172 207 242 283
#     4   9  17  31  53  76  96 122 156 196 246 300
#     4  10  21  34  48  70 100 133 169 207 243 282
#     4   9  17  31  52  77 103 128 153 186 237 302
#
# _framework density 18.009136000000002
#
# number of rings (size 3 to 8) (size 9 to 14) (size 15 to 20)
#    0.000    2.833    0.000    2.000    0.000    4.333 
#    0.000    0.000    0.000    3.000    0.000    2.333 
#    0.000    0.000    0.000    0.000    0.000    0.000 
#
# Total GULP energy -1189703.245541 kJ/mol
# GULP energy per Si atom -12392.742141 kJ/mol
# Density = 1.796815 g / cm^3
# Si number density = 18.009136 Si / 1000 Ang^3
#
#
#
# Elastic Constant Matrix: (Units=GPa)
#
#
# Indices 1 2 3 4 5 6 
#
# 1 80.0167 31.8005 29.4145 0.0000 0.0000 0.0000
# 2 31.8005 80.0167 29.4145 0.0000 0.0000 0.0000
# 3 29.4145 29.4145 68.2474 0.0000 0.0000 0.0000
# 4 0.0000 0.0000 0.0000 22.2362 0.0000 0.0000
# 5 0.0000 0.0000 0.0000 0.0000 22.2362 0.0000
# 6 0.0000 0.0000 0.0000 0.0000 0.0000 28.1990
#
#
#
# Elastic Compliance Matrix: (Units=1/GPa)
#
#
# Indices 1 2 3 4 5 6 
#
# 1 0.016153 -0.004587 -0.004985 0.000000 0.000000 0.000000
# 2 -0.004587 0.016153 -0.004985 0.000000 0.000000 0.000000
# 3 -0.004985 -0.004985 0.018949 0.000000 0.000000 0.000000
# 4 0.000000 0.000000 0.000000 0.044972 0.000000 0.000000
# 5 0.000000 0.000000 0.000000 0.000000 0.044972 0.000000
# 6 0.000000 0.000000 0.000000 0.000000 0.000000 0.035462
#
#
# Mechanical properties :
#
#
# Convention : Reuss Voigt Hill
#
# Bulk Modulus (GPa) = 45.16363 45.50443 45.33403
# Shear Modulus (GPa) = 23.45715 23.71106 23.58410
#
# Velocity S-wave (km/s) = 3.61295 3.63245 3.62271
# Velocity P-wave (km/s) = 6.52205 6.55097 6.53653
#
# Compressibility (1/GPa) = 0.02214171
#
# Stress axis : x y z
#
# Youngs Moduli (GPa) = 61.90863 61.90861 52.77192
#
# Poissons Ratio (x) = 0.28398 0.26306
# Poissons Ratio (y) = 0.28398 0.26306
# Poissons Ratio (z) = 0.30860 0.30860
#
# Static dielectric constant tensor:
#      x y z
#    x 3.475540 0.000000 0.000000 
#    y 0.000000 3.475540 0.000000 
#    z 0.000000 0.000000 3.058430 
# 
# 
# High freq. dielectric constant tensor:
#      x y z
#    x 1.698170 0.000000 0.000000 
#    y 0.000000 1.698170 0.000000 
#    z 0.000000 0.000000 1.669340 
# 
# From -- ./inp_files/10575.got.cif
#   From: 2010.03.12/outbox.cif.g09.slc.cpg/sg137_6_cif.got.tgz:10575.got - 2010.04.08 09:34:49.
