data_PCOD8318488
_publ_section_title
;
Structure prediction by ZEFSAII (Michael W. Deem and Ramdas Pophale) SiO2 
 PCOD8318488
Probable space group: P 42/N M C
;
_chemical_formula_sum "Si O2"
_cell_formula_units_Z 96
_cell_length_a 19.723675
_cell_length_b 19.723675
_cell_length_c 14.162885
_cell_angle_alpha 90.000000
_cell_angle_beta 90.000000
_cell_angle_gamma 90.000000
_cell_volume 5509.693046
_symmetry_space_group_name_H-M "P 42/N M C"
_symmetry_group_IT_number 137
_space_group.IT_coordinate_system_code '2'
_symmetry_cell_setting 'tetragonal'
loop_
_space_group_symop_operation_xyz
x,y,z
1/2-y,x,1/2+z
1/2-x,1/2-y,z
y,1/2-x,1/2+z
1/2+x,-y,-z
-x,1/2+y,-z
1/2+y,1/2+x,1/2-z
-y,-x,1/2-z
-x,-y,-z
1/2+y,-x,1/2-z
1/2+x,1/2+y,-z
-y,1/2+x,1/2-z
1/2-x,y,z
x,1/2-y,z
1/2-y,1/2-x,1/2+z
y,x,1/2+z
loop_
_atom_site_type_symbol
_atom_site_label
_atom_site_fract_x
_atom_site_fract_y
_atom_site_fract_z
Si Si1 0.672899 0.560201 0.081320
Si Si2 0.424773 0.563694 0.948937
Si Si3 0.547145 0.004724 0.854139
Si Si4 0.323805 0.170591 0.290486
Si Si5 0.828040 0.170830 0.139993
Si Si6 0.079303 0.176009 0.626811
O O1 0.750000 0.540000 0.109327
O O2 0.627592 0.494248 0.080527
O O3 0.638236 0.614331 0.151399
O O4 0.670015 0.598591 0.982042
O O5 0.492103 0.552441 0.885109
O O6 0.384770 0.632847 0.924039
O O7 0.446644 0.560459 0.060219
O O8 0.533165 0.033165 0.750000
O O9 0.620874 0.973903 0.840338
O O10 0.250000 0.146119 0.328728
O O11 0.329615 0.250000 0.299064
O O12 0.332799 0.149626 0.182095
O O13 0.843564 0.156437 0.250000
O O14 0.750000 0.148641 0.116287
O O15 0.836430 0.250000 0.117704
O O16 0.046321 0.250000 0.647333
#
# Coordination Sequence:
#
# PCOD8318488 Si02
#       6
#    16  16  16  16  16  16
#     4   9  17  29  47  69  91 122 161 192 229 286
#     4  10  19  32  52  74 101 131 162 205 252 298
#     4  10  20  33  50  73  98 127 166 207 248 295
#     4   9  17  28  43  65  92 121 154 193 232 269
#     4   9  18  33  54  80 107 134 165 205 257 312
#     4   9  18  32  47  64  90 124 159 193 234 285
#
# _framework density 17.423836999999999
#
# number of rings (size 3 to 8) (size 9 to 14) (size 15 to 20)
#    0.000    2.667    0.000    2.500    0.000    1.333 
#    0.000    6.667    0.000    6.000    0.000    1.167 
#    0.000    0.000    0.000    0.000    0.000    0.000 
#
# Total GULP energy -1189281.702382 kJ/mol
# GULP energy per Si atom -12388.351066 kJ/mol
# Density = 1.738418 g / cm^3
# Si number density = 17.423837 Si / 1000 Ang^3
#
#
#
# Elastic Constant Matrix: (Units=GPa)
#
#
# Indices 1 2 3 4 5 6 
#
# 1 72.1654 29.9078 38.8030 0.0000 0.0000 0.0000
# 2 29.9078 72.1655 38.8030 0.0000 0.0000 0.0000
# 3 38.8030 38.8030 84.9490 0.0000 0.0000 0.0000
# 4 0.0000 0.0000 0.0000 26.3224 0.0000 0.0000
# 5 0.0000 0.0000 0.0000 0.0000 26.3223 0.0000
# 6 0.0000 0.0000 0.0000 0.0000 0.0000 24.4584
#
#
#
# Elastic Compliance Matrix: (Units=1/GPa)
#
#
# Indices 1 2 3 4 5 6 
#
# 1 0.019337 -0.004327 -0.006856 0.000000 0.000000 0.000000
# 2 -0.004327 0.019337 -0.006856 0.000000 0.000000 0.000000
# 3 -0.006856 -0.006856 0.018035 0.000000 0.000000 0.000000
# 4 0.000000 0.000000 0.000000 0.037990 0.000000 0.000000
# 5 0.000000 0.000000 0.000000 0.000000 0.037991 0.000000
# 6 0.000000 0.000000 0.000000 0.000000 0.000000 0.040886
#
#
# Mechanical properties :
#
#
# Convention : Reuss Voigt Hill
#
# Bulk Modulus (GPa) = 48.47304 49.36750 48.92027
# Shear Modulus (GPa) = 23.09132 23.53836 23.31484
#
# Velocity S-wave (km/s) = 3.64438 3.67949 3.66197
# Velocity P-wave (km/s) = 6.75196 6.81515 6.78363
#
# Compressibility (1/GPa) = 0.02063002
#
# Stress axis : x y z
#
# Youngs Moduli (GPa) = 51.71447 51.71452 55.44719
#
# Poissons Ratio (x) = 0.22379 0.38015
# Poissons Ratio (y) = 0.22379 0.38015
# Poissons Ratio (z) = 0.35456 0.35456
#
# Static dielectric constant tensor:
#      x y z
#    x 3.304620 0.000000 0.000000 
#    y 0.000000 3.304630 0.000000 
#    z 0.000000 0.000000 3.399850 
# 
# 
# High freq. dielectric constant tensor:
#      x y z
#    x 1.666460 0.000000 0.000000 
#    y 0.000000 1.666460 0.000000 
#    z 0.000000 0.000000 1.670960 
# 
# From -- ./inp_files/3782.got.cif
#   From: 2010.03.12/outbox.cif.g09.slc.cpg/sg137_2_cif.got.tgz:3782.got - 2010.04.08 09:34:49.
