data_PCOD8318649
_publ_section_title
;
Structure prediction by ZEFSAII (Michael W. Deem and Ramdas Pophale) SiO2 
 PCOD8318649
Probable space group: P 42/N M C
;
_chemical_formula_sum "Si O2"
_cell_formula_units_Z 80
_cell_length_a 28.529612
_cell_length_b 28.529612
_cell_length_c 5.133941
_cell_angle_alpha 90.000000
_cell_angle_beta 90.000000
_cell_angle_gamma 90.000000
_cell_volume 4178.713576
_symmetry_space_group_name_H-M "P 42/N M C"
_symmetry_group_IT_number 137
_space_group.IT_coordinate_system_code '2'
_symmetry_cell_setting 'tetragonal'
loop_
_space_group_symop_operation_xyz
x,y,z
1/2-y,x,1/2+z
1/2-x,1/2-y,z
y,1/2-x,1/2+z
1/2+x,-y,-z
-x,1/2+y,-z
1/2+y,1/2+x,1/2-z
-y,-x,1/2-z
-x,-y,-z
1/2+y,-x,1/2-z
1/2+x,1/2+y,-z
-y,1/2+x,1/2-z
1/2-x,y,z
x,1/2-y,z
1/2-y,1/2-x,1/2+z
y,x,1/2+z
loop_
_atom_site_type_symbol
_atom_site_label
_atom_site_fract_x
_atom_site_fract_y
_atom_site_fract_z
Si Si1 0.067053 0.609943 0.989205
Si Si2 0.195410 0.048008 0.003361
Si Si3 0.051046 0.478011 0.671716
Si Si4 0.490228 0.804679 0.985795
Si Si5 0.847480 0.804968 0.543875
O O1 0.087791 0.587791 0.250000
O O2 0.057397 0.665357 0.029497
O O3 0.102942 0.602942 0.750000
O O4 0.017239 0.587400 0.915270
O O5 0.250000 0.052267 0.945320
O O6 0.175564 0.014589 0.776118
O O7 0.174245 0.100109 0.989512
O O8 0.184723 0.026215 0.282817
O O9 0.046773 0.437048 0.450048
O O10 0.000021 0.500021 0.750000
O O11 0.475966 0.750000 0.973014
O O12 0.845672 0.750000 0.486281
O O13 0.814107 0.830518 0.337097
#
# Coordination Sequence:
#
# PCOD8318649 Si02
#       5
#    16  16  16  16  16
#     4  11  21  33  52  79 109 137 169 210 256 307
#     4   9  19  36  55  72  95 133 176 217 259 305
#     4   9  16  28  44  62  91 131 164 190 232 290
#     4  10  20  37  58  77 102 138 178 215 259 309
#     4  11  22  36  54  76 105 137 174 226 282 332
#
# _framework density 19.144646999999999
#
# number of rings (size 3 to 8) (size 9 to 14) (size 15 to 20)
#    0.000    2.000    0.000    6.000    0.000    4.400 
#    0.000    6.000    0.000    2.400    0.000    0.000 
#    0.000    2.400    0.000    0.000    0.000    0.000 
#
# Total GULP energy -991700.734137 kJ/mol
# GULP energy per Si atom -12396.259177 kJ/mol
# Density = 1.910107 g / cm^3
# Si number density = 19.144647 Si / 1000 Ang^3
#
#
#
# Elastic Constant Matrix: (Units=GPa)
#
#
# Indices 1 2 3 4 5 6 
#
# 1 67.3263 45.7833 28.3569 0.0000 0.0000 0.0000
# 2 45.7833 67.3263 28.3569 0.0000 0.0000 0.0000
# 3 28.3569 28.3569 128.7715 0.0000 0.0000 0.0000
# 4 0.0000 0.0000 0.0000 21.7710 0.0000 0.0000
# 5 0.0000 0.0000 0.0000 0.0000 21.7710 0.0000
# 6 0.0000 0.0000 0.0000 0.0000 0.0000 20.8296
#
#
#
# Elastic Compliance Matrix: (Units=1/GPa)
#
#
# Indices 1 2 3 4 5 6 
#
# 1 0.028179 -0.018240 -0.002189 0.000000 0.000000 0.000000
# 2 -0.018240 0.028179 -0.002189 0.000000 0.000000 0.000000
# 3 -0.002189 -0.002189 0.008730 0.000000 0.000000 0.000000
# 4 0.000000 0.000000 0.000000 0.045933 0.000000 0.000000
# 5 0.000000 0.000000 0.000000 0.000000 0.045933 0.000000
# 6 0.000000 0.000000 0.000000 0.000000 0.000000 0.048009
#
#
# Mechanical properties :
#
#
# Convention : Reuss Voigt Hill
#
# Bulk Modulus (GPa) = 50.37251 52.04650 51.20951
# Shear Modulus (GPa) = 19.46944 23.60279 21.53612
#
# Velocity S-wave (km/s) = 3.19245 3.51503 3.35762
# Velocity P-wave (km/s) = 6.32121 6.61202 6.46825
#
# Compressibility (1/GPa) = 0.01985210
#
# Stress axis : x y z
#
# Youngs Moduli (GPa) = 35.48787 35.48787 114.55317
#
# Poissons Ratio (x) = 0.64731 0.25070
# Poissons Ratio (y) = 0.64731 0.25070
# Poissons Ratio (z) = 0.07767 0.07767
#
# Static dielectric constant tensor:
#      x y z
#    x 3.332590 0.000000 0.000000 
#    y 0.000000 3.332590 0.000000 
#    z 0.000000 0.000000 3.929270 
# 
# 
# High freq. dielectric constant tensor:
#      x y z
#    x 1.712860 0.000000 0.000000 
#    y 0.000000 1.712860 0.000000 
#    z 0.000000 0.000000 1.776550 
# 
# From -- ./inp_files/573.got.cif
#   From: 2010.03.12/outbox.cif.g09.slc.cpg/sg137_1_cif.got.tgz:573.got - 2010.04.08 09:34:49.
