data_PCOD8318354
_publ_section_title
;
Structure prediction by ZEFSAII (Michael W. Deem and Ramdas Pophale) SiO2 
 PCOD8318354
Probable space group: P 42/M N M
;
_chemical_formula_sum "Si O2"
_cell_formula_units_Z 64
_cell_length_a 12.214021
_cell_length_b 12.214021
_cell_length_c 22.083531
_cell_angle_alpha 90.000000
_cell_angle_beta 90.000000
_cell_angle_gamma 90.000000
_cell_volume 3294.472145
_symmetry_space_group_name_H-M "P 42/M N M"
_symmetry_group_IT_number 136
_symmetry_cell_setting 'tetragonal'
loop_
_space_group_symop_operation_xyz
x,y,z
1/2-y,1/2+x,1/2+z
-x,-y,z
1/2+y,1/2-x,1/2+z
1/2+x,1/2-y,1/2-z
1/2-x,1/2+y,1/2-z
y,x,-z
-y,-x,-z
-x,-y,-z
1/2+y,1/2-x,1/2-z
x,y,-z
1/2-y,1/2+x,1/2-z
1/2-x,1/2+y,1/2+z
1/2+x,1/2-y,1/2+z
-y,-x,z
y,x,z
loop_
_atom_site_type_symbol
_atom_site_label
_atom_site_fract_x
_atom_site_fract_y
_atom_site_fract_z
Si Si1 0.995888 0.180027 0.500000
Si Si2 0.907480 0.907480 0.068557
Si Si3 0.676263 0.009507 0.258721
Si Si4 0.737424 0.559414 0.364024
Si Si5 0.228147 0.587390 0.882033
O O1 0.875754 0.124247 0.500000
O O2 0.011043 0.255517 0.440677
O O3 0.087045 0.087045 0.500000
O O4 0.949150 0.795098 0.099990
O O5 0.878845 0.878845 0.000000
O O6 0.000000 0.000000 0.074128
O O7 0.612094 0.903971 0.233759
O O8 0.735760 0.988326 0.322485
O O9 0.766456 0.036449 0.207835
O O10 0.649994 0.649994 0.381579
O O11 0.856215 0.607288 0.384323
O O12 0.321572 0.678429 0.877249
#
# Coordination Sequence:
#
# PCOD8318354 Si02
#       5
#     8   8  16  16  16
#     4   9  18  32  50  74 101 133 172 212 253 300
#     4   9  18  30  48  74 104 129 158 208 259 303
#     4   9  18  33  52  71  99 133 164 202 248 298
#     4   9  18  31  49  75  97 127 168 206 252 302
#     4   9  18  31  51  73  97 132 168 206 250 301
#
# _framework density 19.426480999999999
#
# number of rings (size 3 to 8) (size 9 to 14) (size 15 to 20)
#    0.000    3.000    0.000    0.000    3.500    1.000 
#    0.000    0.000    2.750    3.000    0.000    0.000 
#    0.000    0.000    0.000    0.000    0.000    0.000 
#
# Total GULP energy -793365.228924 kJ/mol
# GULP energy per Si atom -12396.331702 kJ/mol
# Density = 1.938227 g / cm^3
# Si number density = 19.426481 Si / 1000 Ang^3
#
#
#
# Elastic Constant Matrix: (Units=GPa)
#
#
# Indices 1 2 3 4 5 6 
#
# 1 51.7696 22.9879 49.2642 0.0000 0.0000 0.0000
# 2 22.9879 51.7694 49.2640 0.0000 0.0000 0.0000
# 3 49.2642 49.2640 166.5441 0.0000 0.0000 0.0000
# 4 0.0000 0.0000 0.0000 28.3700 0.0000 0.0000
# 5 0.0000 0.0000 0.0000 0.0000 28.3702 0.0000
# 6 0.0000 0.0000 0.0000 0.0000 0.0000 18.3320
#
#
#
# Elastic Compliance Matrix: (Units=1/GPa)
#
#
# Indices 1 2 3 4 5 6 
#
# 1 0.028334 -0.006410 -0.006485 0.000000 0.000000 0.000000
# 2 -0.006410 0.028334 -0.006485 0.000000 0.000000 0.000000
# 3 -0.006485 -0.006485 0.009841 0.000000 0.000000 0.000000
# 4 0.000000 0.000000 0.000000 0.035248 0.000000 0.000000
# 5 0.000000 0.000000 0.000000 0.000000 0.035248 0.000000
# 6 0.000000 0.000000 0.000000 0.000000 0.000000 0.054550
#
#
# Mechanical properties :
#
#
# Convention : Reuss Voigt Hill
#
# Bulk Modulus (GPa) = 36.03840 57.01283 46.52561
# Shear Modulus (GPa) = 20.87107 24.91889 22.89498
#
# Velocity S-wave (km/s) = 3.28130 3.58540 3.43672
# Velocity P-wave (km/s) = 5.73998 6.82289 6.30473
#
# Compressibility (1/GPa) = 0.02774818
#
# Stress axis : x y z
#
# Youngs Moduli (GPa) = 35.29322 35.29305 101.61537
#
# Poissons Ratio (x) = 0.22624 0.65899
# Poissons Ratio (y) = 0.22624 0.65899
# Poissons Ratio (z) = 0.22888 0.22888
#
# Static dielectric constant tensor:
#      x y z
#    x 3.456590 0.000000 0.000000 
#    y 0.000000 3.456590 0.000000 
#    z 0.000000 0.000000 3.608130 
# 
# 
# High freq. dielectric constant tensor:
#      x y z
#    x 1.734490 0.000000 0.000000 
#    y 0.000000 1.734490 0.000000 
#    z 0.000000 0.000000 1.760570 
# 
# From -- ./inp_files/8176.got.cif
#   From: 2010.03.12/outbox.cif.g09.slc.cpg/sg136_5_cif.got.tgz:8176.got - 2010.04.06 18:39:43.
