data_PCOD8318246
_publ_section_title
;
Structure prediction by ZEFSAII (Michael W. Deem and Ramdas Pophale) SiO2 
 PCOD8318246
Probable space group: P 42/M N M
;
_chemical_formula_sum "Si O2"
_cell_formula_units_Z 64
_cell_length_a 11.291975
_cell_length_b 11.291975
_cell_length_c 24.980978
_cell_angle_alpha 90.000000
_cell_angle_beta 90.000000
_cell_angle_gamma 90.000000
_cell_volume 3185.292015
_symmetry_space_group_name_H-M "P 42/M N M"
_symmetry_group_IT_number 136
_symmetry_cell_setting 'tetragonal'
loop_
_space_group_symop_operation_xyz
x,y,z
1/2-y,1/2+x,1/2+z
-x,-y,z
1/2+y,1/2-x,1/2+z
1/2+x,1/2-y,1/2-z
1/2-x,1/2+y,1/2-z
y,x,-z
-y,-x,-z
-x,-y,-z
1/2+y,1/2-x,1/2-z
x,y,-z
1/2-y,1/2+x,1/2-z
1/2-x,1/2+y,1/2+z
1/2+x,1/2-y,1/2+z
-y,-x,z
y,x,z
loop_
_atom_site_type_symbol
_atom_site_label
_atom_site_fract_x
_atom_site_fract_y
_atom_site_fract_z
Si Si1 0.501080 0.686063 0.857063
Si Si2 0.903021 0.903021 0.826753
Si Si3 0.332557 0.667444 0.439688
Si Si4 0.193509 0.533332 0.747811
Si Si5 0.055198 0.627827 0.440570
O O1 0.413398 0.586603 0.878854
O O2 0.634928 0.634928 0.856614
O O3 0.461574 0.720773 0.798076
O O4 0.489063 0.794686 0.896898
O O5 0.899878 0.899878 0.891654
O O6 0.773316 0.940291 0.804469
O O7 0.000000 0.000000 0.809007
O O8 0.372902 0.627099 0.500000
O O9 0.195256 0.635492 0.432304
O O10 0.134376 0.404694 0.744423
O O11 0.023659 0.673900 0.500000
O O12 0.000000 0.500000 0.431234
#
# Coordination Sequence:
#
# PCOD8318246 Si02
#       5
#    16   8   8  16  16
#     4  11  23  39  62  93 129 163 209 271 327 378
#     4  12  26  43  68  96 133 170 215 268 325 389
#     4  10  22  43  67  94 130 171 219 273 319 386
#     4  11  26  43  65  93 127 173 217 263 320 387
#     4  10  22  41  66  93 125 170 220 264 321 388
#
# _framework density 20.092348999999999
#
# number of rings (size 3 to 8) (size 9 to 14) (size 15 to 20)
#    0.000    1.250    2.500    2.250   10.500    0.750 
#    0.000    1.250    0.000    4.500    0.000    0.000 
#    0.000    0.000    0.000    0.000    0.000    0.000 
#
# Total GULP energy -793558.594964 kJ/mol
# GULP energy per Si atom -12399.353046 kJ/mol
# Density = 2.004662 g / cm^3
# Si number density = 20.092349 Si / 1000 Ang^3
#
#
#
# Elastic Constant Matrix: (Units=GPa)
#
#
# Indices 1 2 3 4 5 6 
#
# 1 93.9796 53.7971 41.3617 0.0000 0.0000 0.0000
# 2 53.7971 93.9799 41.3617 0.0000 0.0000 0.0000
# 3 41.3617 41.3617 139.1727 0.0000 0.0000 0.0000
# 4 0.0000 0.0000 0.0000 28.7718 0.0000 0.0000
# 5 0.0000 0.0000 0.0000 0.0000 28.7718 0.0000
# 6 0.0000 0.0000 0.0000 0.0000 0.0000 34.6011
#
#
#
# Elastic Compliance Matrix: (Units=1/GPa)
#
#
# Indices 1 2 3 4 5 6 
#
# 1 0.016502 -0.008384 -0.002412 0.000000 0.000000 0.000000
# 2 -0.008384 0.016502 -0.002412 0.000000 0.000000 0.000000
# 3 -0.002412 -0.002412 0.008619 0.000000 0.000000 0.000000
# 4 0.000000 0.000000 0.000000 0.034756 0.000000 0.000000
# 5 0.000000 0.000000 0.000000 0.000000 0.034756 0.000000
# 6 0.000000 0.000000 0.000000 0.000000 0.000000 0.028901
#
#
# Mechanical properties :
#
#
# Convention : Reuss Voigt Hill
#
# Bulk Modulus (GPa) = 65.77114 66.68591 66.22853
# Shear Modulus (GPa) = 29.15056 31.13639 30.14347
#
# Velocity S-wave (km/s) = 3.81311 3.94085 3.87750
# Velocity P-wave (km/s) = 7.22439 7.34635 7.28562
#
# Compressibility (1/GPa) = 0.01520424
#
# Stress axis : x y z
#
# Youngs Moduli (GPa) = 60.59903 60.59919 116.01901
#
# Poissons Ratio (x) = 0.50809 0.27989
# Poissons Ratio (y) = 0.50809 0.27989
# Poissons Ratio (z) = 0.14619 0.14619
#
# Static dielectric constant tensor:
#      x y z
#    x 3.669460 0.000000 0.000000 
#    y 0.000000 3.669470 0.000000 
#    z 0.000000 0.000000 3.825710 
# 
# 
# High freq. dielectric constant tensor:
#      x y z
#    x 1.785330 0.000000 0.000000 
#    y 0.000000 1.785330 0.000000 
#    z 0.000000 0.000000 1.796450 
# 
# From -- ./inp_files/8141.got.cif
#   From: 2010.03.12/outbox.cif.g09.slc.cpg/sg136_5_cif.got.tgz:8141.got - 2010.04.06 18:39:43.
