data_PCOD8318226
_publ_section_title
;
Structure prediction by ZEFSAII (Michael W. Deem and Ramdas Pophale) SiO2 
 PCOD8318226
Probable space group: P 42/M N M
;
_chemical_formula_sum "Si O2"
_cell_formula_units_Z 44
_cell_length_a 10.158201
_cell_length_b 10.158201
_cell_length_c 19.082440
_cell_angle_alpha 90.000000
_cell_angle_beta 90.000000
_cell_angle_gamma 90.000000
_cell_volume 1969.098809
_symmetry_space_group_name_H-M "P 42/M N M"
_symmetry_group_IT_number 136
_symmetry_cell_setting 'tetragonal'
loop_
_space_group_symop_operation_xyz
x,y,z
1/2-y,1/2+x,1/2+z
-x,-y,z
1/2+y,1/2-x,1/2+z
1/2+x,1/2-y,1/2-z
1/2-x,1/2+y,1/2-z
y,x,-z
-y,-x,-z
-x,-y,-z
1/2+y,1/2-x,1/2-z
x,y,-z
1/2-y,1/2+x,1/2-z
1/2-x,1/2+y,1/2+z
1/2+x,1/2-y,1/2+z
-y,-x,z
y,x,z
loop_
_atom_site_type_symbol
_atom_site_label
_atom_site_fract_x
_atom_site_fract_y
_atom_site_fract_z
Si Si1 0.289582 0.490853 0.077213
Si Si2 0.500000 0.000000 0.250000
Si Si3 0.994131 0.784924 0.000000
Si Si4 0.819866 0.599751 0.359880
O O1 0.395429 0.604572 0.066872
O O2 0.359329 0.359329 0.107999
O O3 0.179783 0.544020 0.129329
O O4 0.229339 0.460066 0.000000
O O5 0.362143 0.989507 0.205959
O O6 0.009588 0.701550 0.928665
O O7 0.107832 0.892169 0.000000
O O8 0.850683 0.850683 0.000000
O O9 0.692975 0.692975 0.344617
#
# Coordination Sequence:
#
# PCOD8318226 Si02
#       4
#    16   4   8  16
#     4   8  13  26  54  86 111 142 186 238 296 343
#     4  12  28  38  56  88 128 166 200 228 292 378
#     4   9  18  37  67  91 110 151 207 256 299 343
#     4  10  21  40  60  83 120 158 197 249 297 345
#
# _framework density 22.345244999999998
#
# number of rings (size 3 to 8) (size 9 to 14) (size 15 to 20)
#    0.000    2.727    1.818    1.091    0.000    3.636 
#    0.000    0.000    0.000    0.000    0.000    0.000 
#    0.000    0.000    0.000    0.000    0.000    0.000 
#
# Total GULP energy -545161.984361 kJ/mol
# GULP energy per Si atom -12390.045099 kJ/mol
# Density = 2.229439 g / cm^3
# Si number density = 22.345245 Si / 1000 Ang^3
#
#
#
# Elastic Constant Matrix: (Units=GPa)
#
#
# Indices 1 2 3 4 5 6 
#
# 1 61.8825 33.0503 49.4816 0.0000 0.0000 0.0000
# 2 33.0503 61.8825 49.4816 0.0000 0.0000 0.0000
# 3 49.4816 49.4816 134.1421 0.0000 0.0000 0.0000
# 4 0.0000 0.0000 0.0000 23.9306 0.0000 0.0000
# 5 0.0000 0.0000 0.0000 0.0000 23.9310 0.0000
# 6 0.0000 0.0000 0.0000 0.0000 0.0000 35.4845
#
#
#
# Elastic Compliance Matrix: (Units=1/GPa)
#
#
# Indices 1 2 3 4 5 6 
#
# 1 0.025899 -0.008784 -0.006313 0.000000 0.000000 0.000000
# 2 -0.008784 0.025899 -0.006313 0.000000 0.000000 0.000000
# 3 -0.006313 -0.006313 0.012112 0.000000 0.000000 0.000000
# 4 0.000000 0.000000 0.000000 0.041788 0.000000 0.000000
# 5 0.000000 0.000000 0.000000 0.000000 0.041787 0.000000
# 6 0.000000 0.000000 0.000000 0.000000 0.000000 0.028181
#
#
# Mechanical properties :
#
#
# Convention : Reuss Voigt Hill
#
# Bulk Modulus (GPa) = 47.41728 57.99270 52.70499
# Shear Modulus (GPa) = 22.17116 25.06212 23.61664
#
# Velocity S-wave (km/s) = 3.15335 3.35264 3.25452
# Velocity P-wave (km/s) = 5.87576 6.40284 6.14495
#
# Compressibility (1/GPa) = 0.02108936
#
# Stress axis : x y z
#
# Youngs Moduli (GPa) = 38.61108 38.61113 82.55971
#
# Poissons Ratio (x) = 0.33917 0.52123
# Poissons Ratio (y) = 0.33917 0.52123
# Poissons Ratio (z) = 0.24377 0.24376
#
# Static dielectric constant tensor:
#      x y z
#    x 4.061100 0.000000 0.000000 
#    y 0.000000 4.061090 0.000000 
#    z 0.000000 0.000000 3.942760 
# 
# 
# High freq. dielectric constant tensor:
#      x y z
#    x 1.872280 0.000000 0.000000 
#    y 0.000000 1.872280 0.000000 
#    z 0.000000 0.000000 1.857370 
# 
# From -- ./inp_files/5662.got.cif
#   From: 2010.03.12/outbox.cif.g09.slc.cpg/sg136_3_cif.got.tgz:5662.got - 2010.04.06 18:39:43.
