data_PCOD8318700
_publ_section_title
;
Structure prediction by ZEFSAII (Michael W. Deem and Ramdas Pophale) SiO2 
 PCOD8318700
Probable space group: P 42/N M C
;
_chemical_formula_sum "Si O2"
_cell_formula_units_Z 96
_cell_length_a 24.585211
_cell_length_b 24.585211
_cell_length_c 7.643751
_cell_angle_alpha 90.000000
_cell_angle_beta 90.000000
_cell_angle_gamma 90.000000
_cell_volume 4620.132290
_symmetry_space_group_name_H-M "P 42/N M C"
_symmetry_group_IT_number 137
_space_group.IT_coordinate_system_code '2'
_symmetry_cell_setting 'tetragonal'
loop_
_space_group_symop_operation_xyz
x,y,z
1/2-y,x,1/2+z
1/2-x,1/2-y,z
y,1/2-x,1/2+z
1/2+x,-y,-z
-x,1/2+y,-z
1/2+y,1/2+x,1/2-z
-y,-x,1/2-z
-x,-y,-z
1/2+y,-x,1/2-z
1/2+x,1/2+y,-z
-y,1/2+x,1/2-z
1/2-x,y,z
x,1/2-y,z
1/2-y,1/2-x,1/2+z
y,x,1/2+z
loop_
_atom_site_type_symbol
_atom_site_label
_atom_site_fract_x
_atom_site_fract_y
_atom_site_fract_z
Si Si1 0.689712 0.587914 0.039909
Si Si2 0.878115 0.916168 0.382185
Si Si3 0.664948 0.027319 0.064637
Si Si4 0.186657 0.987398 0.531904
Si Si5 0.555410 0.000938 0.899966
Si Si6 0.189161 0.600296 0.244153
O O1 0.750000 0.614921 0.037328
O O2 0.665000 0.578510 0.229584
O O3 0.646733 0.626052 0.940554
O O4 0.693849 0.525613 0.974883
O O5 0.939938 0.930872 0.327595
O O6 0.852413 0.960576 0.516147
O O7 0.687491 0.077466 0.953731
O O8 0.600349 0.021379 0.035940
O O9 0.676465 0.035521 0.271078
O O10 0.250000 0.003633 0.510812
O O11 0.168592 0.942967 0.389050
O O12 0.546516 0.046516 0.750000
O O13 0.500000 0.000000 0.000000
O O14 0.153801 0.653801 0.250000
O O15 0.250000 0.617973 0.291238
#
# Coordination Sequence:
#
# PCOD8318700 Si02
#       6
#    16  16  16  16  16  16
#     4  10  21  39  60  85 118 158 205 252 304 370
#     4  10  21  36  60  87 116 159 202 250 313 370
#     4  10  21  39  62  87 125 162 202 252 301 372
#     4  10  22  41  64  89 119 158 206 256 312 373
#     4  11  22  34  53  90 130 163 193 246 317 386
#     4  11  25  42  65  93 124 165 212 259 312 371
#
# _framework density 20.778627
#
# number of rings (size 3 to 8) (size 9 to 14) (size 15 to 20)
#    0.000    1.667    0.000    6.500    9.333    0.833 
#    3.000    0.833    0.000    4.000    0.000    2.333 
#    0.000    0.000    0.000    0.000    0.000    0.000 
#
# Total GULP energy -1189590.858864 kJ/mol
# GULP energy per Si atom -12391.571447 kJ/mol
# Density = 2.073133 g / cm^3
# Si number density = 20.778627 Si / 1000 Ang^3
#
#
#
# Elastic Constant Matrix: (Units=GPa)
#
#
# Indices 1 2 3 4 5 6 
#
# 1 126.5025 55.1273 24.3578 0.0000 0.0000 0.0000
# 2 55.1273 126.5025 24.3578 0.0000 0.0000 0.0000
# 3 24.3578 24.3578 57.7209 0.0000 0.0000 0.0000
# 4 0.0000 0.0000 0.0000 20.6216 0.0000 0.0000
# 5 0.0000 0.0000 0.0000 0.0000 20.6216 0.0000
# 6 0.0000 0.0000 0.0000 0.0000 0.0000 23.7351
#
#
#
# Elastic Compliance Matrix: (Units=1/GPa)
#
#
# Indices 1 2 3 4 5 6 
#
# 1 0.010109 -0.003901 -0.002620 0.000000 0.000000 0.000000
# 2 -0.003901 0.010109 -0.002620 0.000000 0.000000 0.000000
# 3 -0.002620 -0.002620 0.019536 0.000000 0.000000 0.000000
# 4 0.000000 0.000000 0.000000 0.048493 0.000000 0.000000
# 5 0.000000 0.000000 0.000000 0.000000 0.048493 0.000000
# 6 0.000000 0.000000 0.000000 0.000000 0.000000 0.042132
#
#
# Mechanical properties :
#
#
# Convention : Reuss Voigt Hill
#
# Bulk Modulus (GPa) = 46.56988 57.60128 52.08558
# Shear Modulus (GPa) = 24.47245 26.78787 25.63016
#
# Velocity S-wave (km/s) = 3.43559 3.59444 3.51591
# Velocity P-wave (km/s) = 6.18051 6.70882 6.45008
#
# Compressibility (1/GPa) = 0.02147311
#
# Stress axis : x y z
#
# Youngs Moduli (GPa) = 98.91753 98.91753 51.18785
#
# Poissons Ratio (x) = 0.38588 0.13411
# Poissons Ratio (y) = 0.38588 0.13411
# Poissons Ratio (z) = 0.25915 0.25915
#
# Static dielectric constant tensor:
#      x y z
#    x 4.010870 0.000000 0.000000 
#    y 0.000000 4.010870 0.000000 
#    z 0.000000 0.000000 3.865820 
# 
# 
# High freq. dielectric constant tensor:
#      x y z
#    x 1.804960 0.000000 0.000000 
#    y 0.000000 1.804960 0.000000 
#    z 0.000000 0.000000 1.811880 
# 
# From -- ./inp_files/2129.got.cif
#   From: 2010.03.12/outbox.cif.g09.slc.cpg/sg137_2_cif.got.tgz:2129.got - 2010.04.08 09:34:49.
