data_PCOD8318095
_publ_section_title
;
Structure prediction by ZEFSAII (Michael W. Deem and Ramdas Pophale) SiO2 
 PCOD8318095
Probable space group: P 42/M N M
;
_chemical_formula_sum "Si O2"
_cell_formula_units_Z 96
_cell_length_a 23.966863
_cell_length_b 23.966863
_cell_length_c 8.874568
_cell_angle_alpha 90.000000
_cell_angle_beta 90.000000
_cell_angle_gamma 90.000000
_cell_volume 5097.645238
_symmetry_space_group_name_H-M "P 42/M N M"
_symmetry_group_IT_number 136
_symmetry_cell_setting 'tetragonal'
loop_
_space_group_symop_operation_xyz
x,y,z
1/2-y,1/2+x,1/2+z
-x,-y,z
1/2+y,1/2-x,1/2+z
1/2+x,1/2-y,1/2-z
1/2-x,1/2+y,1/2-z
y,x,-z
-y,-x,-z
-x,-y,-z
1/2+y,1/2-x,1/2-z
x,y,-z
1/2-y,1/2+x,1/2-z
1/2-x,1/2+y,1/2+z
1/2+x,1/2-y,1/2+z
-y,-x,z
y,x,z
loop_
_atom_site_type_symbol
_atom_site_label
_atom_site_fract_x
_atom_site_fract_y
_atom_site_fract_z
Si Si1 0.999208 0.089955 0.174493
Si Si2 0.799471 0.432488 0.179100
Si Si3 0.690310 0.222804 0.820614
Si Si4 0.027881 0.421322 0.319776
Si Si5 0.777244 0.131792 0.828220
Si Si6 0.483854 0.293796 0.177244
O O1 0.055898 0.055898 0.201109
O O2 0.004228 0.146656 0.265158
O O3 0.990765 0.104232 0.000000
O O4 0.946543 0.053458 0.231532
O O5 0.783514 0.371711 0.246249
O O6 0.860940 0.450392 0.232310
O O7 0.754271 0.475932 0.243469
O O8 0.797761 0.430395 0.000000
O O9 0.720011 0.279990 0.762466
O O10 0.726728 0.169875 0.767894
O O11 0.689586 0.223587 0.000000
O O12 0.025237 0.427770 0.500000
O O13 0.070190 0.466619 0.250555
O O14 0.835367 0.164634 0.816297
O O15 0.779926 0.078616 0.722987
O O16 0.766925 0.112866 0.000000
O O17 0.488025 0.294649 0.000000
#
# Coordination Sequence:
#
# PCOD8318095 Si02
#       6
#    16  16  16  16  16  16
#     4   9  19  37  58  77 102 140 182 221 259 304
#     4   9  20  34  49  76 111 141 172 215 263 314
#     4   8  15  31  54  75  96 130 175 215 251 299
#     4  10  20  36  56  78 105 137 176 220 268 318
#     4   9  18  33  55  79 100 130 176 221 256 300
#     4  11  22  33  49  79 113 140 168 211 267 318
#
# _framework density 18.832224
#
# number of rings (size 3 to 8) (size 9 to 14) (size 15 to 20)
#    0.000    2.667    0.000    3.500    2.333    3.667 
#    0.000    5.000    0.000    2.000    0.000    0.000 
#    0.000    0.000    0.000    0.000    0.000    0.000 
#
# Total GULP energy -1190269.856856 kJ/mol
# GULP energy per Si atom -12398.644342 kJ/mol
# Density = 1.878936 g / cm^3
# Si number density = 18.832224 Si / 1000 Ang^3
#
#
#
# Elastic Constant Matrix: (Units=GPa)
#
#
# Indices 1 2 3 4 5 6 
#
# 1 143.7642 93.2891 34.2574 0.0000 0.0000 0.0000
# 2 93.2891 143.7642 34.2574 0.0000 0.0000 0.0000
# 3 34.2574 34.2574 44.8746 0.0000 0.0000 0.0000
# 4 0.0000 0.0000 0.0000 21.4352 0.0000 0.0000
# 5 0.0000 0.0000 0.0000 0.0000 21.4352 0.0000
# 6 0.0000 0.0000 0.0000 0.0000 0.0000 23.5773
#
#
#
# Elastic Compliance Matrix: (Units=1/GPa)
#
#
# Indices 1 2 3 4 5 6 
#
# 1 0.012612 -0.007199 -0.004132 0.000000 0.000000 0.000000
# 2 -0.007199 0.012612 -0.004132 0.000000 0.000000 0.000000
# 3 -0.004132 -0.004132 0.028593 0.000000 0.000000 0.000000
# 4 0.000000 0.000000 0.000000 0.046652 0.000000 0.000000
# 5 0.000000 0.000000 0.000000 0.000000 0.046652 0.000000
# 6 0.000000 0.000000 0.000000 0.000000 0.000000 0.042414
#
#
# Mechanical properties :
#
#
# Convention : Reuss Voigt Hill
#
# Bulk Modulus (GPa) = 43.68658 72.89008 58.28833
# Shear Modulus (GPa) = 21.92083 24.66281 23.29182
#
# Velocity S-wave (km/s) = 3.41546 3.62277 3.52064
# Velocity P-wave (km/s) = 6.22912 7.50255 6.89530
#
# Compressibility (1/GPa) = 0.02289033
#
# Stress axis : x y z
#
# Youngs Moduli (GPa) = 79.28799 79.28799 34.97326
#
# Poissons Ratio (x) = 0.57083 0.14451
# Poissons Ratio (y) = 0.57083 0.14451
# Poissons Ratio (z) = 0.32763 0.32763
#
# Static dielectric constant tensor:
#      x y z
#    x 3.642860 0.000000 0.000000 
#    y 0.000000 3.642860 0.000000 
#    z 0.000000 0.000000 3.079940 
# 
# 
# High freq. dielectric constant tensor:
#      x y z
#    x 1.740340 0.000000 0.000000 
#    y 0.000000 1.740340 0.000000 
#    z 0.000000 0.000000 1.696200 
# 
# From -- ./inp_files/1920.got.cif
#   From: 2010.03.12/outbox.cif.g09.slc.cpg/sg136_1_cif.got.tgz:1920.got - 2010.04.06 18:39:43.
