data_PCOD8318557
_publ_section_title
;
Structure prediction by ZEFSAII (Michael W. Deem and Ramdas Pophale) SiO2 
 PCOD8318557
Probable space group: P 42/N M C
;
_chemical_formula_sum "Si O2"
_cell_formula_units_Z 128
_cell_length_a 22.555699
_cell_length_b 22.555699
_cell_length_c 12.728814
_cell_angle_alpha 90.000000
_cell_angle_beta 90.000000
_cell_angle_gamma 90.000000
_cell_volume 6475.905777
_symmetry_space_group_name_H-M "P 42/N M C"
_symmetry_group_IT_number 137
_space_group.IT_coordinate_system_code '2'
_symmetry_cell_setting 'tetragonal'
loop_
_space_group_symop_operation_xyz
x,y,z
1/2-y,x,1/2+z
1/2-x,1/2-y,z
y,1/2-x,1/2+z
1/2+x,-y,-z
-x,1/2+y,-z
1/2+y,1/2+x,1/2-z
-y,-x,1/2-z
-x,-y,-z
1/2+y,-x,1/2-z
1/2+x,1/2+y,-z
-y,1/2+x,1/2-z
1/2-x,y,z
x,1/2-y,z
1/2-y,1/2-x,1/2+z
y,x,1/2+z
loop_
_atom_site_type_symbol
_atom_site_label
_atom_site_fract_x
_atom_site_fract_y
_atom_site_fract_z
Si Si1 0.816480 0.481611 0.889566
Si Si2 0.681827 0.100569 0.068280
Si Si3 0.683562 0.817844 0.306470
Si Si4 0.398305 0.316639 0.513832
Si Si5 0.536036 0.368321 0.237726
Si Si6 0.179379 0.921671 0.523595
Si Si7 0.394836 0.092592 0.817313
Si Si8 0.967664 0.381510 0.811377
O O1 0.750000 0.466505 0.916815
O O2 0.828188 0.462344 0.771055
O O3 0.848401 0.442659 0.980040
O O4 0.829430 0.551365 0.898875
O O5 0.750000 0.117924 0.051350
O O6 0.676062 0.067658 0.180325
O O7 0.645007 0.161775 0.059067
O O8 0.750000 0.843759 0.293996
O O9 0.681607 0.750000 0.268094
O O10 0.665144 0.821916 0.429088
O O11 0.636055 0.852490 0.238682
O O12 0.405509 0.250000 0.465128
O O13 0.407718 0.368359 0.432674
O O14 0.568286 0.431715 0.250000
O O15 0.537195 0.340536 0.120948
O O16 0.467164 0.377712 0.258445
O O17 0.250000 0.926151 0.503292
O O18 0.142209 0.940019 0.419695
O O19 0.464930 0.099055 0.829434
O O20 0.935214 0.435214 0.750000
#
# Coordination Sequence:
#
# PCOD8318557 Si02
#       8
#    16  16  16  16  16  16  16  16
#     4  10  19  38  64  85 115 163 213 249 296 373
#     4  10  20  40  70  94 126 171 213 255 310 381
#     4  10  23  41  59  85 122 158 201 263 323 378
#     4  10  21  39  62  89 116 155 210 259 308 376
#     4  10  23  43  62  96 132 167 207 264 322 373
#     4  11  25  42  64  98 136 167 209 269 326 374
#     4  12  24  39  64  93 119 166 216 260 315 386
#     4  12  25  41  60  91 132 171 205 259 319 375
#
# _framework density 19.765574999999998
#
# number of rings (size 3 to 8) (size 9 to 14) (size 15 to 20)
#    0.000    1.375    3.750    1.500    1.750    2.750 
#    0.000    3.750    0.000    2.250    0.000    0.000 
#    0.000    0.000    0.000    0.000    0.000    0.000 
#
# Total GULP energy -1586310.386511 kJ/mol
# GULP energy per Si atom -12393.049895 kJ/mol
# Density = 1.972059 g / cm^3
# Si number density = 19.765575 Si / 1000 Ang^3
#
#
#
# Elastic Constant Matrix: (Units=GPa)
#
#
# Indices 1 2 3 4 5 6 
#
# 1 102.1815 44.4346 36.8410 0.0000 0.0000 0.0000
# 2 44.4346 102.1858 36.8438 0.0000 0.0000 0.0000
# 3 36.8410 36.8438 127.6183 0.0000 0.0000 0.0000
# 4 0.0000 0.0000 0.0000 4.7578 0.0000 0.0000
# 5 0.0000 0.0000 0.0000 0.0000 4.7556 0.0000
# 6 0.0000 0.0000 0.0000 0.0000 0.0000 14.3497
#
#
#
# Elastic Compliance Matrix: (Units=1/GPa)
#
#
# Indices 1 2 3 4 5 6 
#
# 1 0.012647 -0.004669 -0.002303 0.000000 0.000000 0.000000
# 2 -0.004669 0.012647 -0.002303 0.000000 0.000000 0.000000
# 3 -0.002303 -0.002303 0.009166 0.000000 0.000000 0.000000
# 4 0.000000 0.000000 0.000000 0.210182 0.000000 0.000000
# 5 0.000000 0.000000 0.000000 0.000000 0.210279 0.000000
# 6 0.000000 0.000000 0.000000 0.000000 0.000000 0.069688
#
#
# Mechanical properties :
#
#
# Convention : Reuss Voigt Hill
#
# Bulk Modulus (GPa) = 62.85804 63.13604 62.99704
# Shear Modulus (GPa) = 9.11638 19.03036 14.07337
#
# Velocity S-wave (km/s) = 2.14995 3.10627 2.67125
# Velocity P-wave (km/s) = 6.16716 6.69903 6.43859
#
# Compressibility (1/GPa) = 0.01590886
#
# Stress axis : x y z
#
# Youngs Moduli (GPa) = 79.06835 79.07067 109.10273
#
# Poissons Ratio (x) = 0.36920 0.25127
# Poissons Ratio (y) = 0.36918 0.25130
# Poissons Ratio (z) = 0.18210 0.18212
#
# Static dielectric constant tensor:
#      x y z
#    x 5.165680 0.000000 0.000000 
#    y 0.000000 5.160350 0.000000 
#    z 0.000000 0.000000 3.651000 
# 
# 
# High freq. dielectric constant tensor:
#      x y z
#    x 1.770300 0.000000 0.000000 
#    y 0.000000 1.770300 0.000000 
#    z 0.000000 0.000000 1.778420 
# 
# From -- ./inp_files/4005.got.cif
#   From: 2010.03.12/outbox.cif.g09.slc.cpg/sg137_3_cif.got.tgz:4005.got - 2010.04.08 09:34:49.
