data_PCOD8318836
_publ_section_title
;
Structure prediction by ZEFSAII (Michael W. Deem and Ramdas Pophale) SiO2 
 PCOD8318836
Probable space group: P 42/N C M
;
_chemical_formula_sum "Si O2"
_cell_formula_units_Z 72
_cell_length_a 11.492062
_cell_length_b 11.492062
_cell_length_c 27.778514
_cell_angle_alpha 90.000000
_cell_angle_beta 90.000000
_cell_angle_gamma 90.000000
_cell_volume 3668.638592
_symmetry_space_group_name_H-M "P 42/N C M"
_symmetry_group_IT_number 138
_space_group.IT_coordinate_system_code '2'
_symmetry_cell_setting 'tetragonal'
loop_
_space_group_symop_operation_xyz
x,y,z
1/2-y,x,1/2+z
1/2-x,1/2-y,z
y,1/2-x,1/2+z
1/2+x,-y,1/2-z
-x,1/2+y,1/2-z
1/2+y,1/2+x,-z
-y,-x,-z
-x,-y,-z
1/2+y,-x,1/2-z
1/2+x,1/2+y,-z
-y,1/2+x,1/2-z
1/2-x,y,1/2+z
x,1/2-y,1/2+z
1/2-y,1/2-x,z
y,x,z
loop_
_atom_site_type_symbol
_atom_site_label
_atom_site_fract_x
_atom_site_fract_y
_atom_site_fract_z
Si Si1 0.046119 0.453882 0.626950
Si Si2 0.224655 0.927420 0.269136
Si Si3 0.592482 0.907519 0.479872
Si Si4 0.427506 0.760158 0.019239
Si Si5 0.114188 0.722458 0.626179
Si Si6 0.343988 0.343988 0.219027
O O1 0.095524 0.404477 0.577349
O O2 0.077142 0.588937 0.631192
O O3 0.111024 0.388977 0.668843
O O4 0.350260 0.876251 0.254927
O O5 0.209885 0.932750 0.326943
O O6 0.216585 0.056814 0.250242
O O7 0.553879 0.779391 0.498832
O O8 0.500000 0.000000 0.500000
O O9 0.440350 0.769137 0.076766
O O10 0.387301 0.887301 0.000000
O O11 0.333497 0.666504 0.000000
O O12 0.250000 0.750000 0.623528
O O13 0.250000 0.250000 0.205511
#
# Coordination Sequence:
#
# PCOD8318836 Si02
#       6
#     8  16   8  16  16   8
#     4  12  20  34  60  80 120 151 198 248 296 359
#     4  11  23  42  64  87 119 155 204 256 300 367
#     4  10  16  28  46  84 111 144 189 239 290 343
#     4  10  16  26  46  80 122 140 182 245 289 348
#     4  12  19  32  56  88 115 154 194 244 304 353
#     4  12  28  42  60  88 124 160 204 257 316 362
#
# _framework density 19.625809
#
# number of rings (size 3 to 8) (size 9 to 14) (size 15 to 20)
#    0.000    0.889   11.111    0.000    3.111    0.000 
#    0.000    0.000    0.000    0.000    2.889    0.778 
#    0.000    0.889    0.000    0.000    0.000    0.000 
#
# Total GULP energy -892439.574865 kJ/mol
# GULP energy per Si atom -12394.994095 kJ/mol
# Density = 1.958114 g / cm^3
# Si number density = 19.625809 Si / 1000 Ang^3
#
#
#
# Elastic Constant Matrix: (Units=GPa)
#
#
# Indices 1 2 3 4 5 6 
#
# 1 72.1784 47.3972 19.4778 0.0000 0.0000 0.0000
# 2 47.3972 72.1783 19.4778 0.0000 0.0000 0.0000
# 3 19.4778 19.4778 174.1001 0.0000 0.0000 0.0000
# 4 0.0000 0.0000 0.0000 15.5332 0.0000 0.0000
# 5 0.0000 0.0000 0.0000 0.0000 15.5332 0.0000
# 6 0.0000 0.0000 0.0000 0.0000 0.0000 41.8761
#
#
#
# Elastic Compliance Matrix: (Units=1/GPa)
#
#
# Indices 1 2 3 4 5 6 
#
# 1 0.024516 -0.015837 -0.000971 0.000000 0.000000 0.000000
# 2 -0.015837 0.024516 -0.000971 0.000000 0.000000 0.000000
# 3 -0.000971 -0.000971 0.005961 0.000000 0.000000 0.000000
# 4 0.000000 0.000000 0.000000 0.064378 0.000000 0.000000
# 5 0.000000 0.000000 0.000000 0.000000 0.064378 0.000000
# 6 0.000000 0.000000 0.000000 0.000000 0.000000 0.023880
#
#
# Mechanical properties :
#
#
# Convention : Reuss Voigt Hill
#
# Bulk Modulus (GPa) = 51.45210 54.57361 53.01286
# Shear Modulus (GPa) = 20.02672 30.06211 25.04442
#
# Velocity S-wave (km/s) = 3.19788 3.91802 3.57612
# Velocity P-wave (km/s) = 6.31733 6.95236 6.64244
#
# Compressibility (1/GPa) = 0.01943555
#
# Stress axis : x y z
#
# Youngs Moduli (GPa) = 40.78934 40.78930 167.75462
#
# Poissons Ratio (x) = 0.64598 0.16289
# Poissons Ratio (y) = 0.64598 0.16289
# Poissons Ratio (z) = 0.03961 0.03961
#
# Static dielectric constant tensor:
#      x y z
#    x 3.713060 0.000000 0.000000 
#    y 0.000000 3.713050 0.000000 
#    z 0.000000 0.000000 4.179170 
# 
# 
# High freq. dielectric constant tensor:
#      x y z
#    x 1.740230 0.000000 0.000000 
#    y 0.000000 1.740230 0.000000 
#    z 0.000000 0.000000 1.792120 
# 
# From -- ./inp_files/7454.got.cif
#   From: 2010.03.12/outbox.cif.g09.slc.cpg/sg138_4_cif.got.tgz:7454.got - 2010.04.08 09:41:05.
