data_PCOD8318787
_publ_section_title
;
Structure prediction by ZEFSAII (Michael W. Deem and Ramdas Pophale) SiO2 
 PCOD8318787
Probable space group: P 42/N M C
;
_chemical_formula_sum "Si O2"
_cell_formula_units_Z 88
_cell_length_a 18.486781
_cell_length_b 18.486781
_cell_length_c 13.025570
_cell_angle_alpha 90.000000
_cell_angle_beta 90.000000
_cell_angle_gamma 90.000000
_cell_volume 4451.632763
_symmetry_space_group_name_H-M "P 42/N M C"
_symmetry_group_IT_number 137
_space_group.IT_coordinate_system_code '2'
_symmetry_cell_setting 'tetragonal'
loop_
_space_group_symop_operation_xyz
x,y,z
1/2-y,x,1/2+z
1/2-x,1/2-y,z
y,1/2-x,1/2+z
1/2+x,-y,-z
-x,1/2+y,-z
1/2+y,1/2+x,1/2-z
-y,-x,1/2-z
-x,-y,-z
1/2+y,-x,1/2-z
1/2+x,1/2+y,-z
-y,1/2+x,1/2-z
1/2-x,y,z
x,1/2-y,z
1/2-y,1/2-x,1/2+z
y,x,1/2+z
loop_
_atom_site_type_symbol
_atom_site_label
_atom_site_fract_x
_atom_site_fract_y
_atom_site_fract_z
Si Si1 0.829680 0.329680 0.750000
Si Si2 0.667726 0.930075 0.677412
Si Si3 0.438229 0.336150 0.432466
Si Si4 0.576998 0.964473 0.873223
Si Si5 0.566346 0.128443 0.928719
Si Si6 0.586364 0.417944 0.138905
O O1 0.842073 0.250000 0.705686
O O2 0.879619 0.339501 0.847143
O O3 0.750000 0.912022 0.708596
O O4 0.628921 0.856079 0.642010
O O5 0.624990 0.967861 0.770804
O O6 0.666046 0.988415 0.584753
O O7 0.443038 0.250000 0.446017
O O8 0.423420 0.374641 0.541885
O O9 0.510872 0.366965 0.382628
O O10 0.500213 0.928460 0.850889
O O11 0.557206 0.043309 0.913811
O O12 0.596562 0.139511 0.045300
O O13 0.612622 0.387379 0.250000
#
# Coordination Sequence:
#
# PCOD8318787 Si02
#       6
#     8  16  16  16  16  16
#     4  11  24  40  60  94 136 164 196 264 337 386
#     4  12  22  36  60  90 125 167 208 256 309 370
#     4  11  23  38  57  89 124 162 206 253 310 374
#     4  11  19  38  63  89 116 154 207 268 308 353
#     4  11  20  35  61  93 120 155 208 259 312 369
#     4  11  20  39  66  90 119 158 204 263 309 355
#
# _framework density 19.768028000000001
#
# number of rings (size 3 to 8) (size 9 to 14) (size 15 to 20)
#    0.000    0.818    7.273    2.182    0.000    3.273 
#    0.000    4.545    0.000    2.182    0.000    1.273 
#    0.000    0.000    0.000    0.000    0.000    0.000 
#
# Total GULP energy -1090791.566810 kJ/mol
# GULP energy per Si atom -12395.358714 kJ/mol
# Density = 1.972303 g / cm^3
# Si number density = 19.768028 Si / 1000 Ang^3
#
#
#
# Elastic Constant Matrix: (Units=GPa)
#
#
# Indices 1 2 3 4 5 6 
#
# 1 125.3879 -31.8873 18.4392 0.0000 0.0000 0.0000
# 2 -31.8873 125.3877 18.4392 0.0000 0.0000 0.0000
# 3 18.4392 18.4392 114.9734 0.0000 0.0000 0.0000
# 4 0.0000 0.0000 0.0000 11.3047 0.0000 0.0000
# 5 0.0000 0.0000 0.0000 0.0000 11.3049 0.0000
# 6 0.0000 0.0000 0.0000 0.0000 0.0000 18.5659
#
#
#
# Elastic Compliance Matrix: (Units=1/GPa)
#
#
# Indices 1 2 3 4 5 6 
#
# 1 0.008888 0.002530 -0.001831 0.000000 0.000000 0.000000
# 2 0.002530 0.008888 -0.001831 0.000000 0.000000 0.000000
# 3 -0.001831 -0.001831 0.009285 0.000000 0.000000 0.000000
# 4 0.000000 0.000000 0.000000 0.088459 0.000000 0.000000
# 5 0.000000 0.000000 0.000000 0.000000 0.088457 0.000000
# 6 0.000000 0.000000 0.000000 0.000000 0.000000 0.053862
#
#
# Mechanical properties :
#
#
# Convention : Reuss Voigt Hill
#
# Bulk Modulus (GPa) = 40.33015 41.74788 41.03901
# Shear Modulus (GPa) = 18.63109 32.28565 25.45837
#
# Velocity S-wave (km/s) = 3.07332 4.04570 3.59256
# Velocity P-wave (km/s) = 5.74802 6.55655 6.16555
#
# Compressibility (1/GPa) = 0.02479535
#
# Stress axis : x y z
#
# Youngs Moduli (GPa) = 112.51364 112.51348 107.70063
#
# Poissons Ratio (x) = -0.28461 0.19721
# Poissons Ratio (y) = -0.28461 0.19721
# Poissons Ratio (z) = 0.20602 0.20602
#
# Static dielectric constant tensor:
#      x y z
#    x 3.459470 0.000000 0.000000 
#    y 0.000000 3.459470 0.000000 
#    z 0.000000 0.000000 4.042740 
# 
# 
# High freq. dielectric constant tensor:
#      x y z
#    x 1.747410 0.000000 0.000000 
#    y 0.000000 1.747410 0.000000 
#    z 0.000000 0.000000 1.786100 
# 
# From -- ./inp_files/5105.got.cif
#   From: 2010.03.12/outbox.cif.g09.slc.cpg/sg137_3_cif.got.tgz:5105.got - 2010.04.08 09:34:49.
