data_PCOD8318879
_publ_section_title
;
Structure prediction by ZEFSAII (Michael W. Deem and Ramdas Pophale) SiO2 
 PCOD8318879
Probable space group: P 42/N C M
;
_chemical_formula_sum "Si O2"
_cell_formula_units_Z 128
_cell_length_a 23.328939
_cell_length_b 23.328939
_cell_length_c 12.083262
_cell_angle_alpha 90.000000
_cell_angle_beta 90.000000
_cell_angle_gamma 90.000000
_cell_volume 6576.187199
_symmetry_space_group_name_H-M "P 42/N C M"
_symmetry_group_IT_number 138
_space_group.IT_coordinate_system_code '2'
_symmetry_cell_setting 'tetragonal'
loop_
_space_group_symop_operation_xyz
x,y,z
1/2-y,x,1/2+z
1/2-x,1/2-y,z
y,1/2-x,1/2+z
1/2+x,-y,1/2-z
-x,1/2+y,1/2-z
1/2+y,1/2+x,-z
-y,-x,-z
-x,-y,-z
1/2+y,-x,1/2-z
1/2+x,1/2+y,-z
-y,1/2+x,1/2-z
1/2-x,y,1/2+z
x,1/2-y,1/2+z
1/2-y,1/2-x,z
y,x,z
loop_
_atom_site_type_symbol
_atom_site_label
_atom_site_fract_x
_atom_site_fract_y
_atom_site_fract_z
Si Si1 0.351103 0.656478 0.291760
Si Si2 0.032301 0.701058 0.454508
Si Si3 0.158894 0.769357 0.917630
Si Si4 0.918834 0.669758 0.099859
Si Si5 0.186794 0.528555 0.301737
Si Si6 0.821549 0.464541 0.215743
Si Si7 0.206651 0.058039 0.626976
Si Si8 0.156226 0.250871 0.272730
O O1 0.306375 0.663105 0.192854
O O2 0.333617 0.702486 0.385349
O O3 0.415704 0.657572 0.248099
O O4 0.345947 0.592484 0.342585
O O5 0.096502 0.725302 0.473669
O O6 0.017007 0.668812 0.570028
O O7 0.032036 0.659761 0.346395
O O8 0.986129 0.750763 0.434259
O O9 0.209027 0.790974 0.000000
O O10 0.880558 0.619443 0.149297
O O11 0.887650 0.730367 0.130389
O O12 0.979922 0.657668 0.153153
O O13 0.922967 0.662936 0.967984
O O14 0.253751 0.539468 0.290623
O O15 0.172076 0.472527 0.227429
O O16 0.238242 0.115662 0.667290
O O17 0.191455 0.308546 0.307480
O O18 0.201319 0.201319 0.240722
#
# Coordination Sequence:
#
# PCOD8318879 Si02
#       8
#    16  16  16  16  16  16  16  16
#     4  11  21  38  57  87 118 159 206 254 313 368
#     4  10  18  34  59  84 113 159 205 245 299 364
#     4  11  22  37  56  82 127 160 199 261 315 368
#     4  11  22  39  63  89 121 163 202 244 305 379
#     4  11  19  36  58  84 116 154 213 249 299 362
#     4  10  21  37  59  84 119 157 209 250 301 370
#     4  11  19  36  60  87 123 160 203 246 294 373
#     4  10  21  37  60  95 131 158 191 245 314 380
#
# _framework density 19.464165000000001
#
# number of rings (size 3 to 8) (size 9 to 14) (size 15 to 20)
#    0.000    1.375    8.750    0.375    0.000    0.750 
#    0.000   10.000    0.000    3.000    0.000    0.875 
#    0.000    0.000    0.000    0.000    0.000    0.000 
#
# Total GULP energy -1586208.945747 kJ/mol
# GULP energy per Si atom -12392.257389 kJ/mol
# Density = 1.941986 g / cm^3
# Si number density = 19.464165 Si / 1000 Ang^3
#
#
#
# Elastic Constant Matrix: (Units=GPa)
#
#
# Indices 1 2 3 4 5 6 
#
# 1 100.7957 35.3733 45.1097 0.0000 0.0000 0.0000
# 2 35.3733 100.7964 45.1096 0.0000 0.0000 0.0000
# 3 45.1097 45.1096 124.2660 0.0000 0.0000 0.0000
# 4 0.0000 0.0000 0.0000 16.2640 0.0000 0.0000
# 5 0.0000 0.0000 0.0000 0.0000 16.2642 0.0000
# 6 0.0000 0.0000 0.0000 0.0000 0.0000 3.2390
#
#
#
# Elastic Compliance Matrix: (Units=1/GPa)
#
#
# Indices 1 2 3 4 5 6 
#
# 1 0.012477 -0.002808 -0.003510 0.000000 0.000000 0.000000
# 2 -0.002808 0.012477 -0.003510 0.000000 0.000000 0.000000
# 3 -0.003510 -0.003510 0.010596 0.000000 0.000000 0.000000
# 4 0.000000 0.000000 0.000000 0.061485 0.000000 0.000000
# 5 0.000000 0.000000 0.000000 0.000000 0.061485 0.000000
# 6 0.000000 0.000000 0.000000 0.000000 0.000000 0.308736
#
#
# Mechanical properties :
#
#
# Convention : Reuss Voigt Hill
#
# Bulk Modulus (GPa) = 62.91631 64.11591 63.51611
# Shear Modulus (GPa) = 10.15825 20.50448 15.33136
#
# Velocity S-wave (km/s) = 2.28698 3.24921 2.80959
# Velocity P-wave (km/s) = 6.27440 6.86210 6.57482
#
# Compressibility (1/GPa) = 0.01589413
#
# Stress axis : x y z
#
# Youngs Moduli (GPa) = 80.14512 80.14591 94.37851
#
# Poissons Ratio (x) = 0.22504 0.33128
# Poissons Ratio (y) = 0.22504 0.33127
# Poissons Ratio (z) = 0.28132 0.28132
#
# Static dielectric constant tensor:
#      x y z
#    x 3.594100 0.000000 0.000000 
#    y 0.000000 3.594100 0.000000 
#    z 0.000000 0.000000 3.945290 
# 
# 
# High freq. dielectric constant tensor:
#      x y z
#    x 1.739390 0.000000 0.000000 
#    y 0.000000 1.739390 0.000000 
#    z 0.000000 0.000000 1.765970 
# 
# From -- ./inp_files/3359.got.cif
#   From: 2010.03.12/outbox.cif.g09.slc.cpg/sg138_2_cif.got.tgz:3359.got - 2010.04.08 09:41:05.
