data_PCOD8318740
_publ_section_title
;
Structure prediction by ZEFSAII (Michael W. Deem and Ramdas Pophale) SiO2 
 PCOD8318740
Probable space group: P 42/N M C
;
_chemical_formula_sum "Si O2"
_cell_formula_units_Z 72
_cell_length_a 19.196796
_cell_length_b 19.196796
_cell_length_c 9.857960
_cell_angle_alpha 90.000000
_cell_angle_beta 90.000000
_cell_angle_gamma 90.000000
_cell_volume 3632.825615
_symmetry_space_group_name_H-M "P 42/N M C"
_symmetry_group_IT_number 137
_space_group.IT_coordinate_system_code '2'
_symmetry_cell_setting 'tetragonal'
loop_
_space_group_symop_operation_xyz
x,y,z
1/2-y,x,1/2+z
1/2-x,1/2-y,z
y,1/2-x,1/2+z
1/2+x,-y,-z
-x,1/2+y,-z
1/2+y,1/2+x,1/2-z
-y,-x,1/2-z
-x,-y,-z
1/2+y,-x,1/2-z
1/2+x,1/2+y,-z
-y,1/2+x,1/2-z
1/2-x,y,z
x,1/2-y,z
1/2-y,1/2-x,1/2+z
y,x,1/2+z
loop_
_atom_site_type_symbol
_atom_site_label
_atom_site_fract_x
_atom_site_fract_y
_atom_site_fract_z
Si Si1 0.529502 0.054917 0.893245
Si Si2 0.828075 0.594893 0.979166
Si Si3 0.171631 0.828370 0.750000
Si Si4 0.827744 0.439078 0.015414
Si Si5 0.425823 0.168593 0.827432
O O1 0.517739 0.017739 0.750000
O O2 0.611234 0.074488 0.907834
O O3 0.489209 0.127790 0.897865
O O4 0.500000 0.000000 0.000000
O O5 0.750000 0.620363 0.960824
O O6 0.833878 0.520574 0.057625
O O7 0.859553 0.588287 0.826123
O O8 0.861493 0.654049 0.072883
O O9 0.250000 0.836372 0.688662
O O10 0.112185 0.840782 0.639902
O O11 0.750000 0.426147 0.952807
O O12 0.444241 0.250000 0.824935
#
# Coordination Sequence:
#
# PCOD8318740 Si02
#       5
#    16  16   8  16  16
#     4  12  23  38  63  90 123 163 205 253 311 367
#     4  10  22  41  63  90 127 165 201 251 311 368
#     4   9  20  38  60  90 126 166 210 254 301 364
#     4  10  21  38  62  87 124 165 204 253 309 367
#     4  11  23  41  63  92 123 161 209 254 304 370
#
# _framework density 19.819284
#
# number of rings (size 3 to 8) (size 9 to 14) (size 15 to 20)
#    0.000    1.444    4.444    0.000    1.556    4.000 
#    0.000    4.444    0.000    0.000    0.000    0.000 
#    0.000    0.000    0.000    0.000    0.000    0.000 
#
# Total GULP energy -892239.733229 kJ/mol
# GULP energy per Si atom -12392.218517 kJ/mol
# Density = 1.977417 g / cm^3
# Si number density = 19.819284 Si / 1000 Ang^3
#
#
#
# Elastic Constant Matrix: (Units=GPa)
#
#
# Indices 1 2 3 4 5 6 
#
# 1 106.5505 36.8308 63.2202 0.0000 0.0000 0.0000
# 2 36.8308 106.5493 63.2207 0.0000 0.0000 0.0000
# 3 63.2202 63.2207 126.0899 0.0000 0.0000 0.0000
# 4 0.0000 0.0000 0.0000 33.1480 0.0000 0.0000
# 5 0.0000 0.0000 0.0000 0.0000 33.1475 0.0000
# 6 0.0000 0.0000 0.0000 0.0000 0.0000 30.8276
#
#
#
# Elastic Compliance Matrix: (Units=1/GPa)
#
#
# Indices 1 2 3 4 5 6 
#
# 1 0.013423 -0.000920 -0.006269 0.000000 0.000000 0.000000
# 2 -0.000920 0.013423 -0.006269 0.000000 0.000000 0.000000
# 3 -0.006269 -0.006269 0.014217 0.000000 0.000000 0.000000
# 4 0.000000 0.000000 0.000000 0.030168 0.000000 0.000000
# 5 0.000000 0.000000 0.000000 0.000000 0.030168 0.000000
# 6 0.000000 0.000000 0.000000 0.000000 0.000000 0.032438
#
#
# Mechanical properties :
#
#
# Convention : Reuss Voigt Hill
#
# Bulk Modulus (GPa) = 70.68476 73.97034 72.32755
# Shear Modulus (GPa) = 30.21729 31.15248 30.68489
#
# Velocity S-wave (km/s) = 3.90890 3.96893 3.93903
# Velocity P-wave (km/s) = 7.49098 7.64242 7.56708
#
# Compressibility (1/GPa) = 0.01414732
#
# Stress axis : x y z
#
# Youngs Moduli (GPa) = 74.50067 74.49892 70.33872
#
# Poissons Ratio (x) = 0.06857 0.44092
# Poissons Ratio (y) = 0.06857 0.44093
# Poissons Ratio (z) = 0.46701 0.46701
#
# Static dielectric constant tensor:
#      x y z
#    x 3.761880 0.000000 0.000000 
#    y 0.000000 3.761890 0.000000 
#    z 0.000000 0.000000 3.633380 
# 
# 
# High freq. dielectric constant tensor:
#      x y z
#    x 1.778940 0.000000 0.000000 
#    y 0.000000 1.778940 0.000000 
#    z 0.000000 0.000000 1.758280 
# 
# From -- ./inp_files/1955.got.cif
#   From: 2010.03.12/outbox.cif.g09.slc.cpg/sg137_1_cif.got.tgz:1955.got - 2010.04.08 09:34:49.
