data_PCOD8318233
_publ_section_title
;
Structure prediction by ZEFSAII (Michael W. Deem and Ramdas Pophale) SiO2 
 PCOD8318233
Probable space group: P 42/M N M
;
_chemical_formula_sum "Si O2"
_cell_formula_units_Z 96
_cell_length_a 23.435797
_cell_length_b 23.435797
_cell_length_c 8.958545
_cell_angle_alpha 90.000000
_cell_angle_beta 90.000000
_cell_angle_gamma 90.000000
_cell_volume 4920.360627
_symmetry_space_group_name_H-M "P 42/M N M"
_symmetry_group_IT_number 136
_symmetry_cell_setting 'tetragonal'
loop_
_space_group_symop_operation_xyz
x,y,z
1/2-y,1/2+x,1/2+z
-x,-y,z
1/2+y,1/2-x,1/2+z
1/2+x,1/2-y,1/2-z
1/2-x,1/2+y,1/2-z
y,x,-z
-y,-x,-z
-x,-y,-z
1/2+y,1/2-x,1/2-z
x,y,-z
1/2-y,1/2+x,1/2-z
1/2-x,1/2+y,1/2+z
1/2+x,1/2-y,1/2+z
-y,-x,z
y,x,z
loop_
_atom_site_type_symbol
_atom_site_label
_atom_site_fract_x
_atom_site_fract_y
_atom_site_fract_z
Si Si1 0.501255 0.854829 0.335006
Si Si2 0.774147 0.133820 0.327502
Si Si3 0.790757 0.332903 0.673928
Si Si4 0.010910 0.775408 0.829610
Si Si5 0.620785 0.900999 0.668844
Si Si6 0.191821 0.101897 0.670773
O O1 0.487912 0.879163 0.500000
O O2 0.487475 0.788472 0.322707
O O3 0.467032 0.891122 0.210389
O O4 0.567526 0.861226 0.301087
O O5 0.760635 0.120570 0.500000
O O6 0.834534 0.165467 0.307624
O O7 0.724643 0.177192 0.266198
O O8 0.779488 0.073533 0.243644
O O9 0.776732 0.326903 0.500000
O O10 0.832824 0.384847 0.707677
O O11 0.732555 0.349454 0.756799
O O12 0.960523 0.810816 0.748563
O O13 0.016564 0.796756 0.000000
O O14 0.643363 0.895082 0.500000
O O15 0.211307 0.092848 0.500000
O O16 0.128009 0.128009 0.679801
#
# Coordination Sequence:
#
# PCOD8318233 Si02
#       6
#    16  16  16  16  16  16
#     4  10  22  38  54  79 112 149 196 243 289 339
#     4  10  22  39  60  88 121 157 195 235 285 345
#     4  11  21  35  58  87 120 154 190 236 287 340
#     4  11  22  38  61  87 117 153 191 235 288 346
#     4  11  22  36  56  79 110 151 197 243 288 339
#     4  11  24  40  60  88 120 154 193 236 286 345
#
# _framework density 19.510766
#
# number of rings (size 3 to 8) (size 9 to 14) (size 15 to 20)
#    0.000    1.333    3.333    2.500    0.000    5.333 
#    0.000    1.667    0.000    0.500    0.000    3.500 
#    0.000    0.000    0.000    0.000    0.000    0.000 
#
# Total GULP energy -1189726.856707 kJ/mol
# GULP energy per Si atom -12392.988091 kJ/mol
# Density = 1.946636 g / cm^3
# Si number density = 19.510766 Si / 1000 Ang^3
#
#
#
# Elastic Constant Matrix: (Units=GPa)
#
#
# Indices 1 2 3 4 5 6 
#
# 1 76.1336 35.8166 42.3168 0.0000 0.0000 0.0000
# 2 35.8166 76.1336 42.3168 0.0000 0.0000 0.0000
# 3 42.3168 42.3168 92.3266 0.0000 0.0000 0.0000
# 4 0.0000 0.0000 0.0000 28.6640 0.0000 0.0000
# 5 0.0000 0.0000 0.0000 0.0000 28.6640 0.0000
# 6 0.0000 0.0000 0.0000 0.0000 0.0000 24.5866
#
#
#
# Elastic Compliance Matrix: (Units=1/GPa)
#
#
# Indices 1 2 3 4 5 6 
#
# 1 0.019236 -0.005567 -0.006265 0.000000 0.000000 0.000000
# 2 -0.005567 0.019236 -0.006265 0.000000 0.000000 0.000000
# 3 -0.006265 -0.006265 0.016574 0.000000 0.000000 0.000000
# 4 0.000000 0.000000 0.000000 0.034887 0.000000 0.000000
# 5 0.000000 0.000000 0.000000 0.000000 0.034887 0.000000
# 6 0.000000 0.000000 0.000000 0.000000 0.000000 0.040673
#
#
# Mechanical properties :
#
#
# Convention : Reuss Voigt Hill
#
# Bulk Modulus (GPa) = 53.04507 53.94379 53.49443
# Shear Modulus (GPa) = 24.04184 24.65919 24.35051
#
# Velocity S-wave (km/s) = 3.51413 3.55896 3.53662
# Velocity P-wave (km/s) = 6.61151 6.67806 6.64487
#
# Compressibility (1/GPa) = 0.01885189
#
# Stress axis : x y z
#
# Youngs Moduli (GPa) = 51.98564 51.98564 60.33536
#
# Poissons Ratio (x) = 0.28942 0.37800
# Poissons Ratio (y) = 0.28942 0.37800
# Poissons Ratio (z) = 0.32569 0.32569
#
# Static dielectric constant tensor:
#      x y z
#    x 3.473790 0.000000 0.000000 
#    y 0.000000 3.473790 0.000000 
#    z 0.000000 0.000000 3.606380 
# 
# 
# High freq. dielectric constant tensor:
#      x y z
#    x 1.750260 0.000000 0.000000 
#    y 0.000000 1.750260 0.000000 
#    z 0.000000 0.000000 1.764260 
# 
# From -- ./inp_files/1934.got.cif
#   From: 2010.03.12/outbox.cif.g09.slc.cpg/sg136_1_cif.got.tgz:1934.got - 2010.04.06 18:39:43.
