data_PCOD8318115
_publ_section_title
;
Structure prediction by ZEFSAII (Michael W. Deem and Ramdas Pophale) SiO2 
 PCOD8318115
Probable space group: P 42/M N M
;
_chemical_formula_sum "Si O2"
_cell_formula_units_Z 88
_cell_length_a 11.962395
_cell_length_b 11.962395
_cell_length_c 31.199819
_cell_angle_alpha 90.000000
_cell_angle_beta 90.000000
_cell_angle_gamma 90.000000
_cell_volume 4464.659596
_symmetry_space_group_name_H-M "P 42/M N M"
_symmetry_group_IT_number 136
_symmetry_cell_setting 'tetragonal'
loop_
_space_group_symop_operation_xyz
x,y,z
1/2-y,1/2+x,1/2+z
-x,-y,z
1/2+y,1/2-x,1/2+z
1/2+x,1/2-y,1/2-z
1/2-x,1/2+y,1/2-z
y,x,-z
-y,-x,-z
-x,-y,-z
1/2+y,1/2-x,1/2-z
x,y,-z
1/2-y,1/2+x,1/2-z
1/2-x,1/2+y,1/2+z
1/2+x,1/2-y,1/2+z
-y,-x,z
y,x,z
loop_
_atom_site_type_symbol
_atom_site_label
_atom_site_fract_x
_atom_site_fract_y
_atom_site_fract_z
Si Si1 0.286137 0.894941 0.420344
Si Si2 0.172362 0.526461 0.762684
Si Si3 0.079027 0.261373 0.641437
Si Si4 0.184045 0.003315 0.500000
Si Si5 0.502576 0.677493 0.688213
Si Si6 0.375863 0.993358 0.124961
O O1 0.221774 0.778227 0.427371
O O2 0.419812 0.869660 0.415254
O O3 0.240384 0.954632 0.377093
O O4 0.262923 0.981632 0.458944
O O5 0.114409 0.405319 0.762742
O O6 0.198436 0.572930 0.809652
O O7 0.289487 0.515821 0.737642
O O8 0.148700 0.148700 0.636542
O O9 0.136863 0.361597 0.612957
O O10 0.128449 0.128449 0.500000
O O11 0.083705 0.916296 0.500000
O O12 0.416673 0.583328 0.674185
O O13 0.628332 0.628332 0.681840
O O14 0.475296 0.783994 0.659471
O O15 0.500000 0.000000 0.146512
#
# Coordination Sequence:
#
# PCOD8318115 Si02
#       6
#    16  16  16   8  16  16
#     4  10  21  37  61  88 113 146 185 229 284 348
#     4  11  22  36  57  79 107 149 197 240 287 340
#     4  11  22  36  57  82 114 152 190 239 291 339
#     4   9  18  36  61  90 123 149 177 229 294 353
#     4  11  23  37  55  81 111 147 195 246 292 334
#     4  10  20  37  55  80 111 148 192 226 276 340
#
# _framework density 19.710350999999999
#
# number of rings (size 3 to 8) (size 9 to 14) (size 15 to 20)
#    0.000    1.545    1.818    4.364    2.545    2.545 
#    0.000    4.091    0.000    0.000    0.000    1.909 
#    0.000   10.182    0.000    0.000    0.000    1.091 
#
# Total GULP energy -1090509.793575 kJ/mol
# GULP energy per Si atom -12392.156745 kJ/mol
# Density = 1.966549 g / cm^3
# Si number density = 19.710351 Si / 1000 Ang^3
#
#
#
# Elastic Constant Matrix: (Units=GPa)
#
#
# Indices 1 2 3 4 5 6 
#
# 1 84.2529 26.8110 32.4334 0.0000 0.0000 0.0000
# 2 26.8110 84.2529 32.4334 0.0000 0.0000 0.0000
# 3 32.4334 32.4334 76.6413 0.0000 0.0000 0.0000
# 4 0.0000 0.0000 0.0000 26.8822 0.0000 0.0000
# 5 0.0000 0.0000 0.0000 0.0000 26.8822 0.0000
# 6 0.0000 0.0000 0.0000 0.0000 0.0000 24.6386
#
#
#
# Elastic Compliance Matrix: (Units=1/GPa)
#
#
# Indices 1 2 3 4 5 6 
#
# 1 0.014684 -0.002725 -0.005061 0.000000 0.000000 0.000000
# 2 -0.002725 0.014684 -0.005061 0.000000 0.000000 0.000000
# 3 -0.005061 -0.005061 0.017331 0.000000 0.000000 0.000000
# 4 0.000000 0.000000 0.000000 0.037199 0.000000 0.000000
# 5 0.000000 0.000000 0.000000 0.000000 0.037199 0.000000
# 6 0.000000 0.000000 0.000000 0.000000 0.000000 0.040587
#
#
# Mechanical properties :
#
#
# Convention : Reuss Voigt Hill
#
# Bulk Modulus (GPa) = 47.60488 47.61142 47.60815
# Shear Modulus (GPa) = 25.72260 25.91188 25.81724
#
# Velocity S-wave (km/s) = 3.61644 3.62972 3.62309
# Velocity P-wave (km/s) = 6.45313 6.46332 6.45822
#
# Compressibility (1/GPa) = 0.02100625
#
# Stress axis : x y z
#
# Youngs Moduli (GPa) = 68.09963 68.09966 57.69860
#
# Poissons Ratio (x) = 0.18554 0.29202
# Poissons Ratio (y) = 0.18554 0.29202
# Poissons Ratio (z) = 0.34467 0.34467
#
# Static dielectric constant tensor:
#      x y z
#    x 3.753920 0.000000 0.000000 
#    y 0.000000 3.753920 0.000000 
#    z 0.000000 0.000000 3.390870 
# 
# 
# High freq. dielectric constant tensor:
#      x y z
#    x 1.769990 0.000000 0.000000 
#    y 0.000000 1.769990 0.000000 
#    z 0.000000 0.000000 1.734690 
# 
# From -- ./inp_files/9751.got.cif
#   From: 2010.03.12/outbox.cif.g09.slc.cpg/sg136_5_cif.got.tgz:9751.got - 2010.04.06 18:39:43.
