data_PCOD8318019
_publ_section_title
;
Structure prediction by ZEFSAII (Michael W. Deem and Ramdas Pophale) SiO2 
 PCOD8318019
Probable space group: P 42/M N M
;
_chemical_formula_sum "Si O2"
_cell_formula_units_Z 128
_cell_length_a 19.896359
_cell_length_b 19.896359
_cell_length_c 18.180241
_cell_angle_alpha 90.000000
_cell_angle_beta 90.000000
_cell_angle_gamma 90.000000
_cell_volume 7196.922948
_symmetry_space_group_name_H-M "P 42/M N M"
_symmetry_group_IT_number 136
_symmetry_cell_setting 'tetragonal'
loop_
_space_group_symop_operation_xyz
x,y,z
1/2-y,1/2+x,1/2+z
-x,-y,z
1/2+y,1/2-x,1/2+z
1/2+x,1/2-y,1/2-z
1/2-x,1/2+y,1/2-z
y,x,-z
-y,-x,-z
-x,-y,-z
1/2+y,1/2-x,1/2-z
x,y,-z
1/2-y,1/2+x,1/2-z
1/2-x,1/2+y,1/2+z
1/2+x,1/2-y,1/2+z
-y,-x,z
y,x,z
loop_
_atom_site_type_symbol
_atom_site_label
_atom_site_fract_x
_atom_site_fract_y
_atom_site_fract_z
Si Si1 0.285611 0.179349 0.181193
Si Si2 0.203301 0.094240 0.418550
Si Si3 0.009092 0.629927 0.665240
Si Si4 0.467397 0.366586 0.916657
Si Si5 0.798889 0.309676 0.849172
Si Si6 0.355028 0.045983 0.824035
Si Si7 0.579724 0.875501 0.413766
Si Si8 0.598231 0.770596 0.082665
O O1 0.209074 0.209074 0.172810
O O2 0.312629 0.195012 0.262855
O O3 0.293793 0.099697 0.166268
O O4 0.333093 0.217987 0.125324
O O5 0.230202 0.070277 0.500000
O O6 0.158314 0.158314 0.431430
O O7 0.263514 0.117914 0.365894
O O8 0.159861 0.035623 0.378143
O O9 0.071785 0.579542 0.670669
O O10 0.032453 0.694429 0.618312
O O11 0.991071 0.653987 0.746749
O O12 0.945280 0.594472 0.628015
O O13 0.432821 0.432821 0.879232
O O14 0.412034 0.308669 0.916216
O O15 0.487087 0.385844 0.000000
O O16 0.754292 0.245709 0.876162
O O17 0.868921 0.314952 0.892608
O O18 0.348685 0.993289 0.890330
O O19 0.581457 0.889059 0.500000
O O20 0.606468 0.798464 0.000000
#
# Coordination Sequence:
#
# PCOD8318019 Si02
#       8
#    16  16  16  16  16  16  16  16
#     4  10  21  37  57  76  99 137 183 222 268 319
#     4   9  17  29  47  71 100 133 169 210 254 304
#     4  11  20  35  54  76 109 152 182 218 267 322
#     4   9  17  28  43  67  99 132 165 204 251 299
#     4  10  20  37  56  77 104 140 182 228 277 327
#     4  11  22  36  55  77 111 148 182 221 271 322
#     4  12  23  34  54  83 111 146 185 227 271 324
#     4  10  20  33  51  75 104 135 178 224 261 306
#
# _framework density 17.785378000000001
#
# number of rings (size 3 to 8) (size 9 to 14) (size 15 to 20)
#    0.000    1.750    2.500    3.000    0.000    5.750 
#    0.000    1.250    0.000    0.000    0.000    0.000 
#    0.000    0.500    0.000    1.125    0.000    0.125 
#
# Total GULP energy -1586317.416783 kJ/mol
# GULP energy per Si atom -12393.104819 kJ/mol
# Density = 1.774490 g / cm^3
# Si number density = 17.785378 Si / 1000 Ang^3
#
#
#
# Elastic Constant Matrix: (Units=GPa)
#
#
# Indices 1 2 3 4 5 6 
#
# 1 71.7197 36.8347 16.8052 0.0000 0.0000 0.0000
# 2 36.8347 71.7197 16.8052 0.0000 0.0000 0.0000
# 3 16.8052 16.8052 75.1869 0.0000 0.0000 0.0000
# 4 0.0000 0.0000 0.0000 20.8383 0.0000 0.0000
# 5 0.0000 0.0000 0.0000 0.0000 20.8383 0.0000
# 6 0.0000 0.0000 0.0000 0.0000 0.0000 25.7400
#
#
#
# Elastic Compliance Matrix: (Units=1/GPa)
#
#
# Indices 1 2 3 4 5 6 
#
# 1 0.019281 -0.009384 -0.002212 0.000000 0.000000 0.000000
# 2 -0.009384 0.019281 -0.002212 0.000000 0.000000 0.000000
# 3 -0.002212 -0.002212 0.014289 0.000000 0.000000 0.000000
# 4 0.000000 0.000000 0.000000 0.047989 0.000000 0.000000
# 5 0.000000 0.000000 0.000000 0.000000 0.047989 0.000000
# 6 0.000000 0.000000 0.000000 0.000000 0.000000 0.038850
#
#
# Mechanical properties :
#
#
# Convention : Reuss Voigt Hill
#
# Bulk Modulus (GPa) = 39.62831 39.94628 39.78729
# Shear Modulus (GPa) = 22.35064 23.36207 22.85635
#
# Velocity S-wave (km/s) = 3.54882 3.62823 3.58875
# Velocity P-wave (km/s) = 6.25476 6.32938 6.29218
#
# Compressibility (1/GPa) = 0.02523449
#
# Stress axis : x y z
#
# Youngs Moduli (GPa) = 51.86391 51.86391 69.98370
#
# Poissons Ratio (x) = 0.48671 0.15481
# Poissons Ratio (y) = 0.48671 0.15481
# Poissons Ratio (z) = 0.11473 0.11473
#
# Static dielectric constant tensor:
#      x y z
#    x 3.410780 0.000000 0.000000 
#    y 0.000000 3.410780 0.000000 
#    z 0.000000 0.000000 3.355680 
# 
# 
# High freq. dielectric constant tensor:
#      x y z
#    x 1.683070 0.000000 0.000000 
#    y 0.000000 1.683070 0.000000 
#    z 0.000000 0.000000 1.669580 
# 
# From -- ./inp_files/6628.got.cif
#   From: 2010.03.12/outbox.cif.g09.slc.cpg/sg136_4_cif.got.tgz:6628.got - 2010.04.06 18:39:43.
