data_PCOD8318432
_publ_section_title
;
Structure prediction by ZEFSAII (Michael W. Deem and Ramdas Pophale) SiO2 
 PCOD8318432
Probable space group: P 42/N M C
;
_chemical_formula_sum "Si O2"
_cell_formula_units_Z 80
_cell_length_a 14.118869
_cell_length_b 14.118869
_cell_length_c 24.738127
_cell_angle_alpha 90.000000
_cell_angle_beta 90.000000
_cell_angle_gamma 90.000000
_cell_volume 4931.359137
_symmetry_space_group_name_H-M "P 42/N M C"
_symmetry_group_IT_number 137
_space_group.IT_coordinate_system_code '2'
_symmetry_cell_setting 'tetragonal'
loop_
_space_group_symop_operation_xyz
x,y,z
1/2-y,x,1/2+z
1/2-x,1/2-y,z
y,1/2-x,1/2+z
1/2+x,-y,-z
-x,1/2+y,-z
1/2+y,1/2+x,1/2-z
-y,-x,1/2-z
-x,-y,-z
1/2+y,-x,1/2-z
1/2+x,1/2+y,-z
-y,1/2+x,1/2-z
1/2-x,y,z
x,1/2-y,z
1/2-y,1/2-x,1/2+z
y,x,1/2+z
loop_
_atom_site_type_symbol
_atom_site_label
_atom_site_fract_x
_atom_site_fract_y
_atom_site_fract_z
Si Si1 0.641748 0.640555 0.332468
Si Si2 0.048823 0.461874 0.571658
Si Si3 0.491087 0.358392 0.264182
Si Si4 0.641704 0.975325 0.538501
Si Si5 0.028601 0.141688 0.387619
O O1 0.750000 0.615859 0.347942
O O2 0.626815 0.750000 0.322078
O O3 0.573170 0.609296 0.380580
O O4 0.611074 0.591295 0.276813
O O5 0.122157 0.443224 0.523131
O O6 0.938198 0.444335 0.553177
O O7 0.056277 0.571779 0.592256
O O8 0.584793 0.415208 0.250000
O O9 0.520026 0.250000 0.256635
O O10 0.452603 0.377156 0.324415
O O11 0.750000 0.011606 0.544606
O O12 0.624074 0.885809 0.578875
O O13 0.999580 0.250000 0.399154
#
# Coordination Sequence:
#
# PCOD8318432 Si02
#       5
#    16  16  16  16  16
#     4  10  20  33  52  76  98 127 169 211 250 290
#     4   9  18  34  51  72 102 132 163 210 248 295
#     4  10  18  32  51  72 103 133 161 198 244 294
#     4   9  18  32  51  74 100 133 166 204 250 291
#     4   9  18  31  51  76 102 133 162 196 246 297
#
# _framework density 16.222707
#
# number of rings (size 3 to 8) (size 9 to 14) (size 15 to 20)
#    1.200    1.400    2.000    0.600    0.000    2.200 
#    0.000    2.000    0.000    4.200    0.000    0.000 
#    0.000    0.000    0.000    0.000    0.000    0.000 
#
# Total GULP energy -991104.588147 kJ/mol
# GULP energy per Si atom -12388.807352 kJ/mol
# Density = 1.618578 g / cm^3
# Si number density = 16.222707 Si / 1000 Ang^3
#
#
#
# Elastic Constant Matrix: (Units=GPa)
#
#
# Indices 1 2 3 4 5 6 
#
# 1 73.4396 33.5965 46.3443 0.0000 0.0000 0.0000
# 2 33.5965 73.4435 46.3443 0.0000 0.0000 0.0000
# 3 46.3443 46.3443 138.7845 0.0000 0.0000 0.0000
# 4 0.0000 0.0000 0.0000 18.7116 0.0000 0.0000
# 5 0.0000 0.0000 0.0000 0.0000 18.7113 0.0000
# 6 0.0000 0.0000 0.0000 0.0000 0.0000 20.2635
#
#
#
# Elastic Compliance Matrix: (Units=1/GPa)
#
#
# Indices 1 2 3 4 5 6 
#
# 1 0.019121 -0.005977 -0.004389 0.000000 0.000000 0.000000
# 2 -0.005977 0.019119 -0.004389 0.000000 0.000000 0.000000
# 3 -0.004389 -0.004389 0.010137 0.000000 0.000000 0.000000
# 4 0.000000 0.000000 0.000000 0.053443 0.000000 0.000000
# 5 0.000000 0.000000 0.000000 0.000000 0.053444 0.000000
# 6 0.000000 0.000000 0.000000 0.000000 0.000000 0.049350
#
#
# Mechanical properties :
#
#
# Convention : Reuss Voigt Hill
#
# Bulk Modulus (GPa) = 53.00229 59.80421 56.40325
# Shear Modulus (GPa) = 20.79769 22.16280 21.48024
#
# Velocity S-wave (km/s) = 3.58440 3.70017 3.64275
# Velocity P-wave (km/s) = 7.06209 7.42964 7.24820
#
# Compressibility (1/GPa) = 0.01886711
#
# Stress axis : x y z
#
# Youngs Moduli (GPa) = 52.29932 52.30283 98.65309
#
# Poissons Ratio (x) = 0.31262 0.43299
# Poissons Ratio (y) = 0.31260 0.43295
# Poissons Ratio (z) = 0.22954 0.22954
#
# Static dielectric constant tensor:
#      x y z
#    x 2.859260 0.000000 0.000000 
#    y 0.000000 2.859260 0.000000 
#    z 0.000000 0.000000 3.266510 
# 
# 
# High freq. dielectric constant tensor:
#      x y z
#    x 1.599440 0.000000 0.000000 
#    y 0.000000 1.599440 0.000000 
#    z 0.000000 0.000000 1.646450 
# 
# From -- ./inp_files/8727.got.cif
#   From: 2010.03.12/outbox.cif.g09.slc.cpg/sg137_5_cif.got.tgz:8727.got - 2010.04.08 09:34:49.
