data_PCOD8318168
_publ_section_title
;
Structure prediction by ZEFSAII (Michael W. Deem and Ramdas Pophale) SiO2 
 PCOD8318168
Probable space group: P 42/M N M
;
_chemical_formula_sum "Si O2"
_cell_formula_units_Z 96
_cell_length_a 24.038165
_cell_length_b 24.038165
_cell_length_c 8.568714
_cell_angle_alpha 90.000000
_cell_angle_beta 90.000000
_cell_angle_gamma 90.000000
_cell_volume 4951.288943
_symmetry_space_group_name_H-M "P 42/M N M"
_symmetry_group_IT_number 136
_symmetry_cell_setting 'tetragonal'
loop_
_space_group_symop_operation_xyz
x,y,z
1/2-y,1/2+x,1/2+z
-x,-y,z
1/2+y,1/2-x,1/2+z
1/2+x,1/2-y,1/2-z
1/2-x,1/2+y,1/2-z
y,x,-z
-y,-x,-z
-x,-y,-z
1/2+y,1/2-x,1/2-z
x,y,-z
1/2-y,1/2+x,1/2-z
1/2-x,1/2+y,1/2+z
1/2+x,1/2-y,1/2+z
-y,-x,z
y,x,z
loop_
_atom_site_type_symbol
_atom_site_label
_atom_site_fract_x
_atom_site_fract_y
_atom_site_fract_z
Si Si1 0.055314 0.146338 0.177337
Si Si2 0.937787 0.557716 0.315950
Si Si3 0.650449 0.142976 0.317193
Si Si4 0.439319 0.351108 0.176370
Si Si5 0.267386 0.645895 0.685297
Si Si6 0.858768 0.231139 0.180156
O O1 0.089850 0.089850 0.188838
O O2 0.092038 0.198067 0.237493
O O3 0.003842 0.141300 0.291456
O O4 0.035465 0.156276 0.000000
O O5 0.945859 0.557169 0.500000
O O6 0.922059 0.495570 0.260585
O O7 0.888333 0.599428 0.272032
O O8 0.637701 0.138016 0.500000
O O9 0.639079 0.205002 0.250226
O O10 0.715109 0.131789 0.286415
O O11 0.410855 0.410855 0.202005
O O12 0.412824 0.306742 0.294288
O O13 0.430349 0.329871 0.000000
O O14 0.266476 0.650115 0.500000
O O15 0.298146 0.701855 0.750330
O O16 0.803403 0.196598 0.230944
O O17 0.855245 0.248672 0.000000
#
# Coordination Sequence:
#
# PCOD8318168 Si02
#       6
#    16  16  16  16  16  16
#     4   9  18  34  55  78 106 142 184 228 275 328
#     4  11  23  42  63  84 113 147 185 230 281 333
#     4  11  21  35  59  88 114 145 184 223 271 335
#     4  10  21  36  53  75 106 144 185 230 280 332
#     4   8  16  32  54  80 110 143 178 219 267 320
#     4  10  21  37  56  80 112 147 184 230 281 330
#
# _framework density 19.388891000000001
#
# number of rings (size 3 to 8) (size 9 to 14) (size 15 to 20)
#    0.000    2.167    0.000    5.000    0.000    4.667 
#    0.000    8.333    0.000    2.000    0.000    0.000 
#    0.000    0.000    0.000    0.000    0.000    0.000 
#
# Total GULP energy -1190399.171687 kJ/mol
# GULP energy per Si atom -12399.991372 kJ/mol
# Density = 1.934476 g / cm^3
# Si number density = 19.388891 Si / 1000 Ang^3
#
#
#
# Elastic Constant Matrix: (Units=GPa)
#
#
# Indices 1 2 3 4 5 6 
#
# 1 165.2034 1.7069 20.6142 0.0000 0.0000 0.0000
# 2 1.7069 165.2034 20.6142 0.0000 0.0000 0.0000
# 3 20.6142 20.6142 56.3857 0.0000 0.0000 0.0000
# 4 0.0000 0.0000 0.0000 28.7263 0.0000 0.0000
# 5 0.0000 0.0000 0.0000 0.0000 28.7263 0.0000
# 6 0.0000 0.0000 0.0000 0.0000 0.0000 24.1240
#
#
#
# Elastic Compliance Matrix: (Units=1/GPa)
#
#
# Indices 1 2 3 4 5 6 
#
# 1 0.006351 0.000235 -0.002408 0.000000 0.000000 0.000000
# 2 0.000235 0.006351 -0.002408 0.000000 0.000000 0.000000
# 3 -0.002408 -0.002408 0.019496 0.000000 0.000000 0.000000
# 4 0.000000 0.000000 0.000000 0.034811 0.000000 0.000000
# 5 0.000000 0.000000 0.000000 0.000000 0.034811 0.000000
# 6 0.000000 0.000000 0.000000 0.000000 0.000000 0.041453
#
#
# Mechanical properties :
#
#
# Convention : Reuss Voigt Hill
#
# Bulk Modulus (GPa) = 43.40965 52.51810 47.96387
# Shear Modulus (GPa) = 31.22790 39.23914 35.23352
#
# Velocity S-wave (km/s) = 4.01759 4.50354 4.26749
# Velocity P-wave (km/s) = 6.63015 7.36125 7.00525
#
# Compressibility (1/GPa) = 0.02303635
#
# Stress axis : x y z
#
# Youngs Moduli (GPa) = 157.45143 157.45143 51.29384
#
# Poissons Ratio (x) = -0.03697 0.12350
# Poissons Ratio (y) = -0.03697 0.12350
# Poissons Ratio (z) = 0.37911 0.37911
#
# Static dielectric constant tensor:
#      x y z
#    x 3.578250 0.000000 0.000000 
#    y 0.000000 3.578250 0.000000 
#    z 0.000000 0.000000 3.366270 
# 
# 
# High freq. dielectric constant tensor:
#      x y z
#    x 1.756150 0.000000 0.000000 
#    y 0.000000 1.756150 0.000000 
#    z 0.000000 0.000000 1.745810 
# 
# From -- ./inp_files/2001.got.cif
#   From: 2010.03.12/outbox.cif.g09.slc.cpg/sg136_2_cif.got.tgz:2001.got - 2010.04.06 18:39:43.
