data_PCOD8318552
_publ_section_title
;
Structure prediction by ZEFSAII (Michael W. Deem and Ramdas Pophale) SiO2 
 PCOD8318552
Probable space group: P 42/N M C
;
_chemical_formula_sum "Si O2"
_cell_formula_units_Z 112
_cell_length_a 14.807245
_cell_length_b 14.807245
_cell_length_c 24.501496
_cell_angle_alpha 90.000000
_cell_angle_beta 90.000000
_cell_angle_gamma 90.000000
_cell_volume 5372.063365
_symmetry_space_group_name_H-M "P 42/N M C"
_symmetry_group_IT_number 137
_space_group.IT_coordinate_system_code '2'
_symmetry_cell_setting 'tetragonal'
loop_
_space_group_symop_operation_xyz
x,y,z
1/2-y,x,1/2+z
1/2-x,1/2-y,z
y,1/2-x,1/2+z
1/2+x,-y,-z
-x,1/2+y,-z
1/2+y,1/2+x,1/2-z
-y,-x,1/2-z
-x,-y,-z
1/2+y,-x,1/2-z
1/2+x,1/2+y,-z
-y,1/2+x,1/2-z
1/2-x,y,z
x,1/2-y,z
1/2-y,1/2-x,1/2+z
y,x,1/2+z
loop_
_atom_site_type_symbol
_atom_site_label
_atom_site_fract_x
_atom_site_fract_y
_atom_site_fract_z
Si Si1 0.430713 0.650708 0.133022
Si Si2 0.850651 0.566868 0.730389
Si Si3 0.650333 0.030300 0.212286
Si Si4 0.849743 0.590596 0.551664
Si Si5 0.033119 0.149552 0.644184
Si Si6 0.021812 0.354293 0.067436
Si Si7 0.038791 0.650193 0.586933
O O1 0.383949 0.750000 0.135732
O O2 0.485187 0.632713 0.188699
O O3 0.493887 0.646170 0.080230
O O4 0.358705 0.570999 0.125069
O O5 0.750000 0.606915 0.722386
O O6 0.865914 0.532180 0.791347
O O7 0.922095 0.645240 0.717845
O O8 0.576616 0.076616 0.250000
O O9 0.750000 0.061531 0.230393
O O10 0.631229 0.057238 0.150325
O O11 0.750000 0.634297 0.563367
O O12 0.862257 0.580157 0.487046
O O13 0.931570 0.650611 0.574200
O O14 0.067182 0.250000 0.628790
O O15 0.097896 0.076481 0.616102
O O16 0.003808 0.250000 0.083391
O O17 0.926791 0.405116 0.055676
O O18 0.074664 0.750000 0.570755
#
# Coordination Sequence:
#
# PCOD8318552 Si02
#       7
#    16  16  16  16  16  16  16
#     4  10  19  36  62  87 118 155 191 242 304 361
#     4  10  20  36  60  87 117 154 196 246 301 362
#     4  11  23  38  58  86 121 161 203 249 301 355
#     4  10  21  40  65  90 118 155 197 244 304 364
#     4  11  23  37  59  90 120 158 204 244 296 362
#     4  11  24  43  63  85 123 165 203 251 302 357
#     4  11  23  39  64  94 122 157 205 255 306 362
#
# _framework density 20.848600999999999
#
# number of rings (size 3 to 8) (size 9 to 14) (size 15 to 20)
#    0.000    1.429    2.857    2.571    0.000    4.429 
#    0.000    5.714    0.000    5.143    0.000    0.000 
#    0.000    0.000    0.000    0.000    0.000    0.000 
#
# Total GULP energy -1388527.278363 kJ/mol
# GULP energy per Si atom -12397.564985 kJ/mol
# Density = 2.080115 g / cm^3
# Si number density = 20.848601 Si / 1000 Ang^3
#
#
#
# Elastic Constant Matrix: (Units=GPa)
#
#
# Indices 1 2 3 4 5 6 
#
# 1 97.7427 36.9469 16.1347 0.0000 0.0000 0.0000
# 2 36.9469 97.7427 16.1347 0.0000 0.0000 0.0000
# 3 16.1347 16.1347 61.6674 0.0000 0.0000 0.0000
# 4 0.0000 0.0000 0.0000 18.1243 0.0000 0.0000
# 5 0.0000 0.0000 0.0000 0.0000 18.1243 0.0000
# 6 0.0000 0.0000 0.0000 0.0000 0.0000 14.8793
#
#
#
# Elastic Compliance Matrix: (Units=1/GPa)
#
#
# Indices 1 2 3 4 5 6 
#
# 1 0.012185 -0.004264 -0.002072 0.000000 0.000000 0.000000
# 2 -0.004264 0.012185 -0.002072 0.000000 0.000000 0.000000
# 3 -0.002072 -0.002072 0.017301 0.000000 0.000000 0.000000
# 4 0.000000 0.000000 0.000000 0.055175 0.000000 0.000000
# 5 0.000000 0.000000 0.000000 0.000000 0.055175 0.000000
# 6 0.000000 0.000000 0.000000 0.000000 0.000000 0.067208
#
#
# Mechanical properties :
#
#
# Convention : Reuss Voigt Hill
#
# Bulk Modulus (GPa) = 40.23707 43.95391 42.09549
# Shear Modulus (GPa) = 20.46426 22.75466 21.60946
#
# Velocity S-wave (km/s) = 3.13639 3.30725 3.22296
# Velocity P-wave (km/s) = 5.69715 5.97596 5.83822
#
# Compressibility (1/GPa) = 0.02485270
#
# Stress axis : x y z
#
# Youngs Moduli (GPa) = 82.06972 82.06972 57.80177
#
# Poissons Ratio (x) = 0.34993 0.11979
# Poissons Ratio (y) = 0.34993 0.11979
# Poissons Ratio (z) = 0.17009 0.17009
#
# Static dielectric constant tensor:
#      x y z
#    x 3.747320 0.000000 0.000000 
#    y 0.000000 3.747320 0.000000 
#    z 0.000000 0.000000 3.778090 
# 
# 
# High freq. dielectric constant tensor:
#      x y z
#    x 1.808390 0.000000 0.000000 
#    y 0.000000 1.808390 0.000000 
#    z 0.000000 0.000000 1.823000 
# 
# From -- ./inp_files/8932.got.cif
#   From: 2010.03.12/outbox.cif.g09.slc.cpg/sg137_5_cif.got.tgz:8932.got - 2010.04.08 09:34:49.
