data_PCOD8318988
_publ_section_title
;
Structure prediction by ZEFSAII (Michael W. Deem and Ramdas Pophale) SiO2 
 PCOD8318988
Probable space group: P 42/N C M
;
_chemical_formula_sum "Si O2"
_cell_formula_units_Z 64
_cell_length_a 11.702875
_cell_length_b 11.702875
_cell_length_c 22.771111
_cell_angle_alpha 90.000000
_cell_angle_beta 90.000000
_cell_angle_gamma 90.000000
_cell_volume 3118.669499
_symmetry_space_group_name_H-M "P 42/N C M"
_symmetry_group_IT_number 138
_space_group.IT_coordinate_system_code '2'
_symmetry_cell_setting 'tetragonal'
loop_
_space_group_symop_operation_xyz
x,y,z
1/2-y,x,1/2+z
1/2-x,1/2-y,z
y,1/2-x,1/2+z
1/2+x,-y,1/2-z
-x,1/2+y,1/2-z
1/2+y,1/2+x,-z
-y,-x,-z
-x,-y,-z
1/2+y,-x,1/2-z
1/2+x,1/2+y,-z
-y,1/2+x,1/2-z
1/2-x,y,1/2+z
x,1/2-y,1/2+z
1/2-y,1/2-x,z
y,x,z
loop_
_atom_site_type_symbol
_atom_site_label
_atom_site_fract_x
_atom_site_fract_y
_atom_site_fract_z
Si Si1 0.695786 0.987468 0.725753
Si Si2 0.346604 0.346604 0.349191
Si Si3 0.153703 0.153703 0.481041
Si Si4 0.026448 0.658877 0.331972
Si Si5 0.516326 0.324248 0.034524
O O1 0.626351 0.873650 0.739262
O O2 0.805096 0.958183 0.685744
O O3 0.732489 0.034604 0.789193
O O4 0.625781 0.074971 0.687221
O O5 0.250000 0.250000 0.352362
O O6 0.380519 0.380519 0.415035
O O7 0.250000 0.250000 0.483655
O O8 0.037609 0.204958 0.510387
O O9 0.050651 0.698683 0.398127
O O10 0.902923 0.597078 0.326823
O O11 0.422108 0.422108 0.029769
O O12 0.630020 0.369981 0.000000
#
# Coordination Sequence:
#
# PCOD8318988 Si02
#       5
#    16   8   8  16  16
#     4  10  20  33  52  78 108 148 179 232 282 331
#     4   9  16  30  50  75 108 145 185 222 274 341
#     4   9  16  26  46  75 105 148 189 226 290 333
#     4  10  20  33  51  78 112 143 190 228 284 333
#     4   9  17  29  46  75 113 147 181 237 283 340
#
# _framework density 20.521573
#
# number of rings (size 3 to 8) (size 9 to 14) (size 15 to 20)
#    0.000    2.500    1.250    1.500    1.750    6.500 
#    0.000    0.000    0.000    0.000    0.000   14.000 
#    0.000    0.000    0.000    0.000    0.000    0.000 
#
# Total GULP energy -793313.891422 kJ/mol
# GULP energy per Si atom -12395.529553 kJ/mol
# Density = 2.047486 g / cm^3
# Si number density = 20.521573 Si / 1000 Ang^3
#
#
#
# Elastic Constant Matrix: (Units=GPa)
#
#
# Indices 1 2 3 4 5 6 
#
# 1 54.9046 36.4272 48.1193 0.0000 0.0000 0.0000
# 2 36.4272 54.9050 48.1192 0.0000 0.0000 0.0000
# 3 48.1193 48.1192 196.5911 0.0000 0.0000 0.0000
# 4 0.0000 0.0000 0.0000 16.4323 0.0000 0.0000
# 5 0.0000 0.0000 0.0000 0.0000 16.4321 0.0000
# 6 0.0000 0.0000 0.0000 0.0000 0.0000 22.8038
#
#
#
# Elastic Compliance Matrix: (Units=1/GPa)
#
#
# Indices 1 2 3 4 5 6 
#
# 1 0.034437 -0.019683 -0.003611 0.000000 0.000000 0.000000
# 2 -0.019683 0.034437 -0.003611 0.000000 0.000000 0.000000
# 3 -0.003611 -0.003611 0.006855 0.000000 0.000000 0.000000
# 4 0.000000 0.000000 0.000000 0.060856 0.000000 0.000000
# 5 0.000000 0.000000 0.000000 0.000000 0.060857 0.000000
# 6 0.000000 0.000000 0.000000 0.000000 0.000000 0.043852
#
#
# Mechanical properties :
#
#
# Convention : Reuss Voigt Hill
#
# Bulk Modulus (GPa) = 45.62480 63.52578 54.57529
# Shear Modulus (GPa) = 16.53383 22.71597 19.62490
#
# Velocity S-wave (km/s) = 2.84153 3.33067 3.09577
# Velocity P-wave (km/s) = 5.74862 6.76860 6.27935
#
# Compressibility (1/GPa) = 0.02191790
#
# Stress axis : x y z
#
# Youngs Moduli (GPa) = 29.03831 29.03863 145.88683
#
# Poissons Ratio (x) = 0.57156 0.52687
# Poissons Ratio (y) = 0.57155 0.52685
# Poissons Ratio (z) = 0.10487 0.10487
#
# Static dielectric constant tensor:
#      x y z
#    x 3.491770 0.000000 0.000000 
#    y 0.000000 3.491770 0.000000 
#    z 0.000000 0.000000 3.905810 
# 
# 
# High freq. dielectric constant tensor:
#      x y z
#    x 1.774560 0.000000 0.000000 
#    y 0.000000 1.774560 0.000000 
#    z 0.000000 0.000000 1.817110 
# 
# From -- ./inp_files/4928.got.cif
#   From: 2010.03.12/outbox.cif.g09.slc.cpg/sg138_3_cif.got.tgz:4928.got - 2010.04.08 09:41:05.
