data_PCOD8318906
_publ_section_title
;
Structure prediction by ZEFSAII (Michael W. Deem and Ramdas Pophale) SiO2 
 PCOD8318906
Probable space group: P 42/N C M
;
_chemical_formula_sum "Si O2"
_cell_formula_units_Z 64
_cell_length_a 12.621411
_cell_length_b 12.621411
_cell_length_c 22.819444
_cell_angle_alpha 90.000000
_cell_angle_beta 90.000000
_cell_angle_gamma 90.000000
_cell_volume 3635.137786
_symmetry_space_group_name_H-M "P 42/N C M"
_symmetry_group_IT_number 138
_space_group.IT_coordinate_system_code '2'
_symmetry_cell_setting 'tetragonal'
loop_
_space_group_symop_operation_xyz
x,y,z
1/2-y,x,1/2+z
1/2-x,1/2-y,z
y,1/2-x,1/2+z
1/2+x,-y,1/2-z
-x,1/2+y,1/2-z
1/2+y,1/2+x,-z
-y,-x,-z
-x,-y,-z
1/2+y,-x,1/2-z
1/2+x,1/2+y,-z
-y,1/2+x,1/2-z
1/2-x,y,1/2+z
x,1/2-y,1/2+z
1/2-y,1/2-x,z
y,x,z
loop_
_atom_site_type_symbol
_atom_site_label
_atom_site_fract_x
_atom_site_fract_y
_atom_site_fract_z
Si Si1 0.079707 0.256319 0.869682
Si Si2 0.168025 0.994284 0.757112
Si Si3 0.108229 0.568114 0.433776
Si Si4 0.205602 0.630782 0.670770
O O1 0.126514 0.373487 0.884659
O O2 0.172916 0.172916 0.874658
O O3 0.036424 0.257279 0.802867
O O4 0.989092 0.219684 0.916036
O O5 0.211501 0.955331 0.694535
O O6 0.112704 0.896480 0.789028
O O7 0.083884 0.083884 0.742238
O O8 0.108093 0.608093 0.500000
O O9 0.099347 0.675004 0.395435
O O10 0.009659 0.490342 0.420913
O O11 0.250000 0.750000 0.676223
#
# Coordination Sequence:
#
# PCOD8318906 Si02
#       4
#    16  16  16  16
#     4   8  15  28  48  74 100 130 169 209 254 311
#     4  10  19  32  51  77 108 137 167 215 271 320
#     4   9  19  35  53  73 101 140 179 218 265 311
#     4  11  19  35  52  76 104 137 177 208 259 322
#
# _framework density 17.605936
#
# number of rings (size 3 to 8) (size 9 to 14) (size 15 to 20)
#    0.000    2.500    2.500    2.250    0.000    2.500 
#    0.000    1.250    0.000    1.500    0.000    5.250 
#    0.000    0.000    0.000    0.000    0.000    0.000 
#
# Total GULP energy -793021.776089 kJ/mol
# GULP energy per Si atom -12390.965251 kJ/mol
# Density = 1.756586 g / cm^3
# Si number density = 17.605936 Si / 1000 Ang^3
#
#
#
# Elastic Constant Matrix: (Units=GPa)
#
#
# Indices 1 2 3 4 5 6 
#
# 1 74.2172 43.3840 64.4400 0.0000 0.0000 0.0000
# 2 43.3840 74.2172 64.4400 0.0000 0.0000 0.0000
# 3 64.4400 64.4400 142.6494 0.0000 0.0000 0.0000
# 4 0.0000 0.0000 0.0000 22.0604 0.0000 0.0000
# 5 0.0000 0.0000 0.0000 0.0000 22.0604 0.0000
# 6 0.0000 0.0000 0.0000 0.0000 0.0000 23.3728
#
#
#
# Elastic Compliance Matrix: (Units=1/GPa)
#
#
# Indices 1 2 3 4 5 6 
#
# 1 0.024636 -0.007796 -0.007607 0.000000 0.000000 0.000000
# 2 -0.007796 0.024636 -0.007607 0.000000 0.000000 0.000000
# 3 -0.007607 -0.007607 0.013883 0.000000 0.000000 0.000000
# 4 0.000000 0.000000 0.000000 0.045330 0.000000 0.000000
# 5 0.000000 0.000000 0.000000 0.000000 0.045330 0.000000
# 6 0.000000 0.000000 0.000000 0.000000 0.000000 0.042785
#
#
# Mechanical properties :
#
#
# Convention : Reuss Voigt Hill
#
# Bulk Modulus (GPa) = 58.36237 70.62354 64.49296
# Shear Modulus (GPa) = 20.13415 21.42005 20.77710
#
# Velocity S-wave (km/s) = 3.38538 3.49182 3.43901
# Velocity P-wave (km/s) = 6.96436 7.51383 7.24431
#
# Compressibility (1/GPa) = 0.01713433
#
# Stress axis : x y z
#
# Youngs Moduli (GPa) = 40.59029 40.59029 72.02918
#
# Poissons Ratio (x) = 0.31645 0.54795
# Poissons Ratio (y) = 0.31645 0.54795
# Poissons Ratio (z) = 0.30879 0.30879
#
# Static dielectric constant tensor:
#      x y z
#    x 3.413970 0.000000 0.000000 
#    y 0.000000 3.413970 0.000000 
#    z 0.000000 0.000000 3.288710 
# 
# 
# High freq. dielectric constant tensor:
#      x y z
#    x 1.669230 0.000000 0.000000 
#    y 0.000000 1.669230 0.000000 
#    z 0.000000 0.000000 1.664260 
# 
# From -- ./inp_files/6734.got.cif
#   From: 2010.03.12/outbox.cif.g09.slc.cpg/sg138_4_cif.got.tgz:6734.got - 2010.04.08 09:41:05.
