data_PCOD8318730
_publ_section_title
;
Structure prediction by ZEFSAII (Michael W. Deem and Ramdas Pophale) SiO2 
 PCOD8318730
Probable space group: P 42/N M C
;
_chemical_formula_sum "Si O2"
_cell_formula_units_Z 64
_cell_length_a 13.545861
_cell_length_b 13.545861
_cell_length_c 16.219172
_cell_angle_alpha 90.000000
_cell_angle_beta 90.000000
_cell_angle_gamma 90.000000
_cell_volume 2976.061551
_symmetry_space_group_name_H-M "P 42/N M C"
_symmetry_group_IT_number 137
_space_group.IT_coordinate_system_code '2'
_symmetry_cell_setting 'tetragonal'
loop_
_space_group_symop_operation_xyz
x,y,z
1/2-y,x,1/2+z
1/2-x,1/2-y,z
y,1/2-x,1/2+z
1/2+x,-y,-z
-x,1/2+y,-z
1/2+y,1/2+x,1/2-z
-y,-x,1/2-z
-x,-y,-z
1/2+y,-x,1/2-z
1/2+x,1/2+y,-z
-y,1/2+x,1/2-z
1/2-x,y,z
x,1/2-y,z
1/2-y,1/2-x,1/2+z
y,x,1/2+z
loop_
_atom_site_type_symbol
_atom_site_label
_atom_site_fract_x
_atom_site_fract_y
_atom_site_fract_z
Si Si1 0.137362 0.943293 0.668115
Si Si2 0.635521 0.461979 0.005967
Si Si3 0.363933 0.360244 0.752777
Si Si4 0.962700 0.863433 0.073784
O O1 0.120059 0.879942 0.750000
O O2 0.250000 0.933851 0.640610
O O3 0.072623 0.897700 0.596400
O O4 0.108766 0.058540 0.684038
O O5 0.750000 0.444129 0.988713
O O6 0.607606 0.578299 0.008596
O O7 0.574952 0.403296 0.935968
O O8 0.250000 0.372240 0.780710
O O9 0.383288 0.250000 0.717074
O O10 0.431374 0.379529 0.832162
O O11 0.955996 0.750000 0.047262
#
# Coordination Sequence:
#
# PCOD8318730 Si02
#       4
#    16  16  16  16
#     4  11  21  34  55  85 119 154 192 240 300 362
#     4  11  23  39  60  89 122 156 198 247 300 361
#     4   9  18  36  61  84 111 153 200 244 296 357
#     4  10  21  38  60  83 113 155 199 242 289 350
#
# _framework density 21.504932
#
# number of rings (size 3 to 8) (size 9 to 14) (size 15 to 20)
#    0.000    1.750    2.500    2.250    0.000    4.750 
#    0.000    6.250    0.000   13.500    0.000    0.000 
#    0.000    0.000    0.000    0.000    0.000    0.000 
#
# Total GULP energy -793553.450060 kJ/mol
# GULP energy per Si atom -12399.272657 kJ/mol
# Density = 2.145599 g / cm^3
# Si number density = 21.504932 Si / 1000 Ang^3
#
#
#
# Elastic Constant Matrix: (Units=GPa)
#
#
# Indices 1 2 3 4 5 6 
#
# 1 137.6351 48.1727 22.0790 0.0000 0.0000 0.0000
# 2 48.1727 137.6363 22.0784 0.0000 0.0000 0.0000
# 3 22.0790 22.0784 28.8328 0.0000 0.0000 0.0000
# 4 0.0000 0.0000 0.0000 27.6955 0.0000 0.0000
# 5 0.0000 0.0000 0.0000 0.0000 27.6953 0.0000
# 6 0.0000 0.0000 0.0000 0.0000 0.0000 26.4123
#
#
#
# Elastic Compliance Matrix: (Units=1/GPa)
#
#
# Indices 1 2 3 4 5 6 
#
# 1 0.008879 -0.002299 -0.005038 0.000000 0.000000 0.000000
# 2 -0.002299 0.008878 -0.005038 0.000000 0.000000 0.000000
# 3 -0.005038 -0.005038 0.042398 0.000000 0.000000 0.000000
# 4 0.000000 0.000000 0.000000 0.036107 0.000000 0.000000
# 5 0.000000 0.000000 0.000000 0.000000 0.036107 0.000000
# 6 0.000000 0.000000 0.000000 0.000000 0.000000 0.037861
#
#
# Mechanical properties :
#
#
# Convention : Reuss Voigt Hill
#
# Bulk Modulus (GPa) = 28.24481 54.30718 41.27599
# Shear Modulus (GPa) = 24.17996 30.47890 27.32943
#
# Velocity S-wave (km/s) = 3.35683 3.76879 3.56876
# Velocity P-wave (km/s) = 5.30915 6.65181 6.01804
#
# Compressibility (1/GPa) = 0.03540473
#
# Stress axis : x y z
#
# Youngs Moduli (GPa) = 112.63086 112.63274 23.58580
#
# Poissons Ratio (x) = 0.25898 0.11883
# Poissons Ratio (y) = 0.25897 0.11882
# Poissons Ratio (z) = 0.56745 0.56742
#
# Static dielectric constant tensor:
#      x y z
#    x 4.150040 0.000000 0.000000 
#    y 0.000000 4.150040 0.000000 
#    z 0.000000 0.000000 3.538110 
# 
# 
# High freq. dielectric constant tensor:
#      x y z
#    x 1.851000 0.000000 0.000000 
#    y 0.000000 1.851000 0.000000 
#    z 0.000000 0.000000 1.822130 
# 
# From -- ./inp_files/4730.got.cif
#   From: 2010.03.12/outbox.cif.g09.slc.cpg/sg137_3_cif.got.tgz:4730.got - 2010.04.08 09:34:49.
