data_PCOD8318705
_publ_section_title
;
Structure prediction by ZEFSAII (Michael W. Deem and Ramdas Pophale) SiO2 
 PCOD8318705
Probable space group: P 42/N M C
;
_chemical_formula_sum "Si O2"
_cell_formula_units_Z 112
_cell_length_a 13.915548
_cell_length_b 13.915548
_cell_length_c 29.286585
_cell_angle_alpha 90.000000
_cell_angle_beta 90.000000
_cell_angle_gamma 90.000000
_cell_volume 5671.126837
_symmetry_space_group_name_H-M "P 42/N M C"
_symmetry_group_IT_number 137
_space_group.IT_coordinate_system_code '2'
_symmetry_cell_setting 'tetragonal'
loop_
_space_group_symop_operation_xyz
x,y,z
1/2-y,x,1/2+z
1/2-x,1/2-y,z
y,1/2-x,1/2+z
1/2+x,-y,-z
-x,1/2+y,-z
1/2+y,1/2+x,1/2-z
-y,-x,1/2-z
-x,-y,-z
1/2+y,-x,1/2-z
1/2+x,1/2+y,-z
-y,1/2+x,1/2-z
1/2-x,y,z
x,1/2-y,z
1/2-y,1/2-x,1/2+z
y,x,1/2+z
loop_
_atom_site_type_symbol
_atom_site_label
_atom_site_fract_x
_atom_site_fract_y
_atom_site_fract_z
Si Si1 0.463469 0.638123 0.112523
Si Si2 0.360880 0.975242 0.283547
Si Si3 0.144028 0.018903 0.880863
Si Si4 0.141594 0.564750 0.026447
Si Si5 0.144930 0.144057 0.045273
Si Si6 0.062850 0.855829 0.938597
Si Si7 0.006648 0.860768 0.722875
O O1 0.454316 0.750000 0.101052
O O2 0.438275 0.614626 0.165255
O O3 0.573200 0.604831 0.105696
O O4 0.393950 0.579217 0.078668
O O5 0.388545 0.888545 0.250000
O O6 0.250000 0.000663 0.279505
O O7 0.414294 0.072518 0.267036
O O8 0.250000 0.062428 0.887010
O O9 0.131574 0.928799 0.913617
O O10 0.130116 0.974110 0.830832
O O11 0.250000 0.604814 0.022252
O O12 0.140049 0.450511 0.013114
O O13 0.070714 0.622082 0.992872
O O14 0.250000 0.139685 0.071077
O O15 0.138287 0.250000 0.020231
O O16 0.049632 0.136412 0.077180
O O17 0.102284 0.750000 0.928384
O O18 0.987132 0.750000 0.737455
O O19 0.099420 0.900580 0.750000
#
# Coordination Sequence:
#
# PCOD8318705 Si02
#       7
#    16  16  16  16  16  16  16
#     4  10  21  37  56  81 110 142 183 225 270 322
#     4   9  19  36  58  83 111 143 180 225 275 326
#     4  10  21  37  56  81 110 142 183 225 270 322
#     4  11  22  37  56  78 111 148 182 224 273 325
#     4   9  19  36  58  80 101 136 185 230 272 319
#     4  11  22  37  56  78 111 148 182 224 273 325
#     4   9  19  36  58  83 111 143 180 225 275 326
#
# _framework density 19.749161000000001
#
# number of rings (size 3 to 8) (size 9 to 14) (size 15 to 20)
#    0.000    2.143    1.429    1.286    0.000    4.000 
#    0.000    5.714    0.000    0.000    0.000    0.000 
#    0.000    0.000    0.000    0.000    0.000    0.000 
#
# Total GULP energy -1387539.070540 kJ/mol
# GULP energy per Si atom -12388.741701 kJ/mol
# Density = 1.970421 g / cm^3
# Si number density = 19.749161 Si / 1000 Ang^3
#
#
#
# Elastic Constant Matrix: (Units=GPa)
#
#
# Indices 1 2 3 4 5 6 
#
# 1 99.7079 24.0016 32.4476 0.0000 0.0000 0.0000
# 2 24.0016 99.7092 32.4471 0.0000 0.0000 0.0000
# 3 32.4476 32.4471 67.1503 0.0000 0.0000 0.0000
# 4 0.0000 0.0000 0.0000 22.3478 0.0000 0.0000
# 5 0.0000 0.0000 0.0000 0.0000 22.3478 0.0000
# 6 0.0000 0.0000 0.0000 0.0000 0.0000 20.4317
#
#
#
# Elastic Compliance Matrix: (Units=1/GPa)
#
#
# Indices 1 2 3 4 5 6 
#
# 1 0.012019 -0.001190 -0.005232 0.000000 0.000000 0.000000
# 2 -0.001190 0.012018 -0.005232 0.000000 0.000000 0.000000
# 3 -0.005232 -0.005232 0.019948 0.000000 0.000000 0.000000
# 4 0.000000 0.000000 0.000000 0.044747 0.000000 0.000000
# 5 0.000000 0.000000 0.000000 0.000000 0.044747 0.000000
# 6 0.000000 0.000000 0.000000 0.000000 0.000000 0.048944
#
#
# Mechanical properties :
#
#
# Convention : Reuss Voigt Hill
#
# Bulk Modulus (GPa) = 48.36569 49.37334 48.86952
# Shear Modulus (GPa) = 23.51564 24.87020 24.19292
#
# Velocity S-wave (km/s) = 3.45442 3.55252 3.50381
# Velocity P-wave (km/s) = 6.36033 6.47160 6.41621
#
# Compressibility (1/GPa) = 0.02067581
#
# Stress axis : x y z
#
# Youngs Moduli (GPa) = 83.20456 83.20630 50.12934
#
# Poissons Ratio (x) = 0.09905 0.26229
# Poissons Ratio (y) = 0.09905 0.26228
# Poissons Ratio (z) = 0.43535 0.43534
#
# Static dielectric constant tensor:
#      x y z
#    x 3.750560 0.000000 0.000000 
#    y 0.000000 3.750560 0.000000 
#    z 0.000000 0.000000 3.429560 
# 
# 
# High freq. dielectric constant tensor:
#      x y z
#    x 1.780080 0.000000 0.000000 
#    y 0.000000 1.780080 0.000000 
#    z 0.000000 0.000000 1.735310 
# 
# From -- ./inp_files/8984.got.cif
#   From: 2010.03.12/outbox.cif.g09.slc.cpg/sg137_5_cif.got.tgz:8984.got - 2010.04.08 09:34:49.
