data_PCOD8318994
_publ_section_title
;
Structure prediction by ZEFSAII (Michael W. Deem and Ramdas Pophale) SiO2 
 PCOD8318994
Probable space group: P 42/N C M
;
_chemical_formula_sum "Si O2"
_cell_formula_units_Z 112
_cell_length_a 13.569469
_cell_length_b 13.569469
_cell_length_c 34.707910
_cell_angle_alpha 90.000000
_cell_angle_beta 90.000000
_cell_angle_gamma 90.000000
_cell_volume 6390.784438
_symmetry_space_group_name_H-M "P 42/N C M"
_symmetry_group_IT_number 138
_space_group.IT_coordinate_system_code '2'
_symmetry_cell_setting 'tetragonal'
loop_
_space_group_symop_operation_xyz
x,y,z
1/2-y,x,1/2+z
1/2-x,1/2-y,z
y,1/2-x,1/2+z
1/2+x,-y,1/2-z
-x,1/2+y,1/2-z
1/2+y,1/2+x,-z
-y,-x,-z
-x,-y,-z
1/2+y,-x,1/2-z
1/2+x,1/2+y,-z
-y,1/2+x,1/2-z
1/2-x,y,1/2+z
x,1/2-y,1/2+z
1/2-y,1/2-x,z
y,x,z
loop_
_atom_site_type_symbol
_atom_site_label
_atom_site_fract_x
_atom_site_fract_y
_atom_site_fract_z
Si Si1 0.588975 0.754655 0.017845
Si Si2 0.255426 0.410172 0.335363
Si Si3 0.508696 0.675112 0.091018
Si Si4 0.854139 0.016917 0.789691
Si Si5 0.864182 0.470240 0.377818
Si Si6 0.006922 0.169272 0.761615
Si Si7 0.410661 0.255321 0.567687
O O1 0.640623 0.859378 0.026979
O O2 0.671064 0.671064 0.019527
O O3 0.541098 0.757030 0.975139
O O4 0.505794 0.731611 0.049948
O O5 0.173532 0.326469 0.336300
O O6 0.363134 0.363134 0.329146
O O7 0.254374 0.468204 0.375644
O O8 0.232677 0.484276 0.300629
O O9 0.591744 0.591744 0.090747
O O10 0.402925 0.626940 0.100156
O O11 0.840716 0.053541 0.833523
O O12 0.911517 0.099761 0.765244
O O13 0.744421 0.003835 0.773608
O O14 0.913687 0.913687 0.787975
O O15 0.766425 0.506425 0.400283
O O16 0.947583 0.552418 0.379554
O O17 0.104310 0.104310 0.754334
O O18 0.328173 0.171828 0.568776
O O19 0.360538 0.360538 0.577051
#
# Coordination Sequence:
#
# PCOD8318994 Si02
#       7
#    16  16  16  16  16  16  16
#     4   8  13  20  30  48  76 111 153 196 233 279
#     4   9  15  24  40  61  84 112 148 190 236 283
#     4   9  14  21  34  53  79 111 148 191 239 285
#     4  10  20  34  50  69  95 123 159 207 249 294
#     4   9  16  26  39  55  80 114 151 198 246 284
#     4  10  20  34  50  70  94 122 157 199 245 297
#     4   8  14  23  33  48  75 113 157 199 236 279
#
# _framework density 17.525236
#
# number of rings (size 3 to 8) (size 9 to 14) (size 15 to 20)
#    0.000    3.000    1.429    1.714    0.000    4.000 
#    0.000    4.286    0.000    0.000    0.000    0.000 
#    0.000    0.000    0.000    1.286    3.714   15.714 
#
# Total GULP energy -1388127.155589 kJ/mol
# GULP energy per Si atom -12393.992461 kJ/mol
# Density = 1.748535 g / cm^3
# Si number density = 17.525236 Si / 1000 Ang^3
#
#
#
# Elastic Constant Matrix: (Units=GPa)
#
#
# Indices 1 2 3 4 5 6 
#
# 1 57.3843 34.6211 45.8672 0.0000 0.0000 0.0000
# 2 34.6211 57.3843 45.8672 0.0000 0.0000 0.0000
# 3 45.8672 45.8672 114.1437 0.0000 0.0000 0.0000
# 4 0.0000 0.0000 0.0000 10.2169 0.0000 0.0000
# 5 0.0000 0.0000 0.0000 0.0000 10.2169 0.0000
# 6 0.0000 0.0000 0.0000 0.0000 0.0000 20.1355
#
#
#
# Elastic Compliance Matrix: (Units=1/GPa)
#
#
# Indices 1 2 3 4 5 6 
#
# 1 0.031033 -0.012898 -0.007287 0.000000 0.000000 0.000000
# 2 -0.012898 0.031033 -0.007287 0.000000 0.000000 0.000000
# 3 -0.007287 -0.007287 0.014617 0.000000 0.000000 0.000000
# 4 0.000000 0.000000 0.000000 0.097877 0.000000 0.000000
# 5 0.000000 0.000000 0.000000 0.000000 0.097877 0.000000
# 6 0.000000 0.000000 0.000000 0.000000 0.000000 0.049664
#
#
# Mechanical properties :
#
#
# Convention : Reuss Voigt Hill
#
# Bulk Modulus (GPa) = 46.00242 53.51369 49.75805
# Shear Modulus (GPa) = 13.01097 14.95097 13.98097
#
# Velocity S-wave (km/s) = 2.72768 2.92398 2.82753
# Velocity P-wave (km/s) = 6.01885 6.48082 6.25410
#
# Compressibility (1/GPa) = 0.02173799
#
# Stress axis : x y z
#
# Youngs Moduli (GPa) = 32.22414 32.22414 68.41163
#
# Poissons Ratio (x) = 0.41563 0.49853
# Poissons Ratio (y) = 0.41563 0.49853
# Poissons Ratio (z) = 0.23482 0.23482
#
# Static dielectric constant tensor:
#      x y z
#    x 2.988030 0.000000 0.000000 
#    y 0.000000 2.988030 0.000000 
#    z 0.000000 0.000000 3.501890 
# 
# 
# High freq. dielectric constant tensor:
#      x y z
#    x 1.635350 0.000000 0.000000 
#    y 0.000000 1.635350 0.000000 
#    z 0.000000 0.000000 1.689020 
# 
# From -- ./inp_files/8276.got.cif
#   From: 2010.03.12/outbox.cif.g09.slc.cpg/sg138_5_cif.got.tgz:8276.got - 2010.04.08 09:41:05.
