data_PCOD8318047
_publ_section_title
;
Structure prediction by ZEFSAII (Michael W. Deem and Ramdas Pophale) SiO2 
 PCOD8318047
Probable space group: P 42/M N M
;
_chemical_formula_sum "Si O2"
_cell_formula_units_Z 96
_cell_length_a 24.230714
_cell_length_b 24.230714
_cell_length_c 8.696398
_cell_angle_alpha 90.000000
_cell_angle_beta 90.000000
_cell_angle_gamma 90.000000
_cell_volume 5105.894425
_symmetry_space_group_name_H-M "P 42/M N M"
_symmetry_group_IT_number 136
_symmetry_cell_setting 'tetragonal'
loop_
_space_group_symop_operation_xyz
x,y,z
1/2-y,1/2+x,1/2+z
-x,-y,z
1/2+y,1/2-x,1/2+z
1/2+x,1/2-y,1/2-z
1/2-x,1/2+y,1/2-z
y,x,-z
-y,-x,-z
-x,-y,-z
1/2+y,1/2-x,1/2-z
x,y,-z
1/2-y,1/2+x,1/2-z
1/2-x,1/2+y,1/2+z
1/2+x,1/2-y,1/2+z
-y,-x,z
y,x,z
loop_
_atom_site_type_symbol
_atom_site_label
_atom_site_fract_x
_atom_site_fract_y
_atom_site_fract_z
Si Si1 0.744077 0.619024 0.180788
Si Si2 0.001435 0.418469 0.179712
Si Si3 0.451497 0.701208 0.319098
Si Si4 0.010990 0.696605 0.319122
Si Si5 0.330318 0.669683 0.682743
Si Si6 0.742046 0.742046 0.183576
Si Si7 0.940434 0.143918 0.176120
O O1 0.789320 0.573810 0.233774
O O2 0.757561 0.680423 0.245068
O O3 0.683911 0.599072 0.229109
O O4 0.743449 0.622477 0.000000
O O5 0.057306 0.450204 0.224572
O O6 0.009461 0.355175 0.222293
O O7 0.990122 0.425830 0.000000
O O8 0.450268 0.715280 0.500000
O O9 0.469910 0.754212 0.223486
O O10 0.391455 0.684094 0.257516
O O11 0.494832 0.651358 0.282336
O O12 0.007454 0.684631 0.500000
O O13 0.329582 0.670419 0.500000
O O14 0.286150 0.713851 0.749584
O O15 0.743618 0.743618 0.000000
O O16 0.919064 0.080937 0.206578
O O17 0.931850 0.160743 0.000000
#
# Coordination Sequence:
#
# PCOD8318047 Si02
#       7
#    16  16  16  16   8   8  16
#     4   9  17  29  48  73 101 128 166 213 260 316
#     4  11  22  38  58  80 108 142 179 224 270 318
#     4   9  18  33  51  72  99 137 179 217 266 323
#     4  10  20  34  53  80 108 138 176 222 272 327
#     4   9  18  32  50  71 100 138 179 217 258 323
#     4   9  16  28  47  72  97 125 165 214 261 305
#     4   9  16  27  46  71  99 127 160 210 267 316
#
# _framework density 18.8018
#
# number of rings (size 3 to 8) (size 9 to 14) (size 15 to 20)
#    0.000    2.500    0.833    2.500    0.000    2.000 
#    0.000    4.167    0.000    4.500    0.000    0.000 
#    0.000    5.333    0.000    0.000    0.000    0.000 
#
# Total GULP energy -1189912.659660 kJ/mol
# GULP energy per Si atom -12394.923538 kJ/mol
# Density = 1.875901 g / cm^3
# Si number density = 18.801800 Si / 1000 Ang^3
#
#
#
# Elastic Constant Matrix: (Units=GPa)
#
#
# Indices 1 2 3 4 5 6 
#
# 1 126.9997 62.6926 14.8540 0.0000 0.0000 0.0000
# 2 62.6926 126.9999 14.8541 0.0000 0.0000 0.0000
# 3 14.8540 14.8541 29.6626 0.0000 0.0000 0.0000
# 4 0.0000 0.0000 0.0000 21.2765 0.0000 0.0000
# 5 0.0000 0.0000 0.0000 0.0000 21.2764 0.0000
# 6 0.0000 0.0000 0.0000 0.0000 0.0000 21.6409
#
#
#
# Elastic Compliance Matrix: (Units=1/GPa)
#
#
# Indices 1 2 3 4 5 6 
#
# 1 0.010635 -0.004915 -0.002865 0.000000 0.000000 0.000000
# 2 -0.004915 0.010635 -0.002865 0.000000 0.000000 0.000000
# 3 -0.002865 -0.002865 0.036581 0.000000 0.000000 0.000000
# 4 0.000000 0.000000 0.000000 0.047000 0.000000 0.000000
# 5 0.000000 0.000000 0.000000 0.000000 0.047000 0.000000
# 6 0.000000 0.000000 0.000000 0.000000 0.000000 0.046209
#
#
# Mechanical properties :
#
#
# Convention : Reuss Voigt Hill
#
# Bulk Modulus (GPa) = 27.34942 52.05152 39.70047
# Shear Modulus (GPa) = 21.59476 25.58953 23.59214
#
# Velocity S-wave (km/s) = 3.39270 3.69320 3.54613
# Velocity P-wave (km/s) = 5.47037 6.77722 6.15856
#
# Compressibility (1/GPa) = 0.03656385
#
# Stress axis : x y z
#
# Youngs Moduli (GPa) = 94.02618 94.02625 27.33629
#
# Poissons Ratio (x) = 0.46214 0.07831
# Poissons Ratio (y) = 0.46214 0.07831
# Poissons Ratio (z) = 0.26934 0.26934
#
# Static dielectric constant tensor:
#      x y z
#    x 3.633220 0.000000 0.000000 
#    y 0.000000 3.633210 0.000000 
#    z 0.000000 0.000000 3.238730 
# 
# 
# High freq. dielectric constant tensor:
#      x y z
#    x 1.726330 0.000000 0.000000 
#    y 0.000000 1.726330 0.000000 
#    z 0.000000 0.000000 1.710710 
# 
# From -- ./inp_files/2079.got.cif
#   From: 2010.03.12/outbox.cif.g09.slc.cpg/sg136_2_cif.got.tgz:2079.got - 2010.04.06 18:39:43.
