data_PCOD8318871
_publ_section_title
;
Structure prediction by ZEFSAII (Michael W. Deem and Ramdas Pophale) SiO2 
 PCOD8318871
Probable space group: P 42/N C M
;
_chemical_formula_sum "Si O2"
_cell_formula_units_Z 92
_cell_length_a 28.871369
_cell_length_b 28.871369
_cell_length_c 7.594486
_cell_angle_alpha 90.000000
_cell_angle_beta 90.000000
_cell_angle_gamma 90.000000
_cell_volume 6330.428977
_symmetry_space_group_name_H-M "P 42/N C M"
_symmetry_group_IT_number 138
_space_group.IT_coordinate_system_code '2'
_symmetry_cell_setting 'tetragonal'
loop_
_space_group_symop_operation_xyz
x,y,z
1/2-y,x,1/2+z
1/2-x,1/2-y,z
y,1/2-x,1/2+z
1/2+x,-y,1/2-z
-x,1/2+y,1/2-z
1/2+y,1/2+x,-z
-y,-x,-z
-x,-y,-z
1/2+y,-x,1/2-z
1/2+x,1/2+y,-z
-y,1/2+x,1/2-z
1/2-x,y,1/2+z
x,1/2-y,1/2+z
1/2-y,1/2-x,z
y,x,z
loop_
_atom_site_type_symbol
_atom_site_label
_atom_site_fract_x
_atom_site_fract_y
_atom_site_fract_z
Si Si1 0.191321 0.191321 0.352453
Si Si2 0.395886 0.288079 0.166253
Si Si3 0.540481 0.615082 0.342452
Si Si4 0.127493 0.451144 0.766217
Si Si5 0.250000 0.250000 0.600567
Si Si6 0.187012 0.113943 0.773674
Si Si7 0.502606 0.075309 0.472932
O O1 0.136974 0.200347 0.332725
O O2 0.214283 0.214283 0.518077
O O3 0.215939 0.215939 0.192292
O O4 0.440855 0.319722 0.203487
O O5 0.402342 0.232533 0.166990
O O6 0.375246 0.301921 0.976962
O O7 0.567737 0.567737 0.371616
O O8 0.526370 0.631399 0.538287
O O9 0.571439 0.652184 0.239153
O O10 0.497452 0.604492 0.210895
O O11 0.095824 0.404177 0.760750
O O12 0.107576 0.490703 0.639205
O O13 0.160865 0.160865 0.696911
O O14 0.464451 0.035550 0.459517
O O15 0.553413 0.053413 0.500000
#
# Coordination Sequence:
#
# PCOD8318871 Si02
#       7
#     8  16  16  16   4  16  16
#     4  11  22  34  42  54  73 101 136 186 234 271
#     4  12  21  33  46  57  78 111 144 186 231 269
#     4   9  18  31  47  64  85 106 132 167 208 261
#     4  10  18  32  47  63  84 108 134 170 217 266
#     4  10  24  34  40  54  76  94 136 198 232 272
#     4  11  22  35  44  60  80 110 148 188 228 274
#     4   9  17  30  49  68  88 107 127 162 212 268
#
# _framework density 14.53298
#
# number of rings (size 3 to 8) (size 9 to 14) (size 15 to 20)
#    0.000    1.739    3.478    2.087    2.435    0.696 
#    1.565    3.478    0.000    0.000    0.000    0.000 
#    0.000    0.000    0.000    0.000    0.000    0.000 
#
# Total GULP energy -1139769.203297 kJ/mol
# GULP energy per Si atom -12388.795688 kJ/mol
# Density = 1.449990 g / cm^3
# Si number density = 14.532980 Si / 1000 Ang^3
#
#
#
# Elastic Constant Matrix: (Units=GPa)
#
#
# Indices 1 2 3 4 5 6 
#
# 1 49.6160 43.1509 25.3991 0.0000 0.0000 0.0000
# 2 43.1509 49.6160 25.3991 0.0000 0.0000 0.0000
# 3 25.3991 25.3991 67.7950 0.0000 0.0000 0.0000
# 4 0.0000 0.0000 0.0000 14.7028 0.0000 0.0000
# 5 0.0000 0.0000 0.0000 0.0000 14.7028 0.0000
# 6 0.0000 0.0000 0.0000 0.0000 0.0000 26.3988
#
#
#
# Elastic Compliance Matrix: (Units=1/GPa)
#
#
# Indices 1 2 3 4 5 6 
#
# 1 0.084119 -0.070557 -0.005081 0.000000 0.000000 0.000000
# 2 -0.070557 0.084119 -0.005081 0.000000 0.000000 0.000000
# 3 -0.005081 -0.005081 0.018557 0.000000 0.000000 0.000000
# 4 0.000000 0.000000 0.000000 0.068014 0.000000 0.000000
# 5 0.000000 0.000000 0.000000 0.000000 0.068014 0.000000
# 6 0.000000 0.000000 0.000000 0.000000 0.000000 0.037880
#
#
# Mechanical properties :
#
#
# Convention : Reuss Voigt Hill
#
# Bulk Modulus (GPa) = 39.43580 39.43612 39.43596
# Shear Modulus (GPa) = 9.42336 16.03273 12.72804
#
# Velocity S-wave (km/s) = 2.54916 3.32504 2.96261
# Velocity P-wave (km/s) = 5.98820 6.47578 6.23676
#
# Compressibility (1/GPa) = 0.02535767
#
# Stress axis : x y z
#
# Youngs Moduli (GPa) = 11.88787 11.88787 53.88677
#
# Poissons Ratio (x) = 0.83878 0.27379
# Poissons Ratio (y) = 0.83878 0.27379
# Poissons Ratio (z) = 0.06040 0.06040
#
# Static dielectric constant tensor:
#      x y z
#    x 2.651680 0.000000 0.000000 
#    y 0.000000 2.651680 0.000000 
#    z 0.000000 0.000000 3.125390 
# 
# 
# High freq. dielectric constant tensor:
#      x y z
#    x 1.508930 0.000000 0.000000 
#    y 0.000000 1.508930 0.000000 
#    z 0.000000 0.000000 1.584970 
# 
# From -- ./inp_files/1860.got.cif
#   From: 2010.03.12/outbox.cif.g09.slc.cpg/sg138_1_cif.got.tgz:1860.got - 2010.04.08 09:41:05.
