data_PCOD8318309
_publ_section_title
;
Structure prediction by ZEFSAII (Michael W. Deem and Ramdas Pophale) SiO2 
 PCOD8318309
Probable space group: P 42/M N M
;
_chemical_formula_sum "Si O2"
_cell_formula_units_Z 56
_cell_length_a 13.621996
_cell_length_b 13.621996
_cell_length_c 13.501787
_cell_angle_alpha 90.000000
_cell_angle_beta 90.000000
_cell_angle_gamma 90.000000
_cell_volume 2505.375056
_symmetry_space_group_name_H-M "P 42/M N M"
_symmetry_group_IT_number 136
_symmetry_cell_setting 'tetragonal'
loop_
_space_group_symop_operation_xyz
x,y,z
1/2-y,1/2+x,1/2+z
-x,-y,z
1/2+y,1/2-x,1/2+z
1/2+x,1/2-y,1/2-z
1/2-x,1/2+y,1/2-z
y,x,-z
-y,-x,-z
-x,-y,-z
1/2+y,1/2-x,1/2-z
x,y,-z
1/2-y,1/2+x,1/2-z
1/2-x,1/2+y,1/2+z
1/2+x,1/2-y,1/2+z
-y,-x,z
y,x,z
loop_
_atom_site_type_symbol
_atom_site_label
_atom_site_fract_x
_atom_site_fract_y
_atom_site_fract_z
Si Si1 0.506169 0.342431 0.389874
Si Si2 0.424328 0.575673 0.883476
Si Si3 0.478444 0.793490 0.882508
Si Si4 0.126368 0.706610 0.773317
O O1 0.530407 0.303012 0.500000
O O2 0.604113 0.395888 0.344958
O O3 0.419495 0.419495 0.398608
O O4 0.471047 0.253690 0.322166
O O5 0.500000 0.500000 0.831600
O O6 0.454760 0.682998 0.850221
O O7 0.432722 0.567279 0.000000
O O8 0.586268 0.820164 0.837029
O O9 0.390688 0.856712 0.836600
O O10 0.482248 0.810264 0.000000
O O11 0.221098 0.778903 0.771160
#
# Coordination Sequence:
#
# PCOD8318309 Si02
#       4
#    16   8  16  16
#     4   8  15  29  52  85 124 165 212 270 337 409
#     4   9  18  36  66 102 134 168 217 280 346 408
#     4  11  24  43  68  98 136 182 232 289 358 429
#     4  11  23  40  66  98 137 182 233 293 359 434
#
# _framework density 22.351945000000001
#
# number of rings (size 3 to 8) (size 9 to 14) (size 15 to 20)
#    0.000    2.143    1.429    2.571    2.000    3.429 
#    0.000    4.286    0.000    0.000    0.000    0.000 
#    0.000    0.000    0.000    0.000    0.000    0.000 
#
# Total GULP energy -694043.267820 kJ/mol
# GULP energy per Si atom -12393.629783 kJ/mol
# Density = 2.230107 g / cm^3
# Si number density = 22.351945 Si / 1000 Ang^3
#
#
#
# Elastic Constant Matrix: (Units=GPa)
#
#
# Indices 1 2 3 4 5 6 
#
# 1 83.5326 18.2439 49.3259 0.0000 0.0000 0.0000
# 2 18.2439 83.5322 49.3264 0.0000 0.0000 0.0000
# 3 49.3259 49.3264 113.5268 0.0000 0.0000 0.0000
# 4 0.0000 0.0000 0.0000 33.9880 0.0000 0.0000
# 5 0.0000 0.0000 0.0000 0.0000 33.9880 0.0000
# 6 0.0000 0.0000 0.0000 0.0000 0.0000 38.4843
#
#
#
# Elastic Compliance Matrix: (Units=1/GPa)
#
#
# Indices 1 2 3 4 5 6 
#
# 1 0.016145 0.000829 -0.007375 0.000000 0.000000 0.000000
# 2 0.000829 0.016146 -0.007375 0.000000 0.000000 0.000000
# 3 -0.007375 -0.007375 0.015217 0.000000 0.000000 0.000000
# 4 0.000000 0.000000 0.000000 0.029422 0.000000 0.000000
# 5 0.000000 0.000000 0.000000 0.000000 0.029422 0.000000
# 6 0.000000 0.000000 0.000000 0.000000 0.000000 0.025985
#
#
# Mechanical properties :
#
#
# Convention : Reuss Voigt Hill
#
# Bulk Modulus (GPa) = 50.85108 57.15380 54.00244
# Shear Modulus (GPa) = 29.98772 32.20510 31.09641
#
# Velocity S-wave (km/s) = 3.66678 3.79993 3.73395
# Velocity P-wave (km/s) = 6.38174 6.69911 6.54235
#
# Compressibility (1/GPa) = 0.01966527
#
# Stress axis : x y z
#
# Youngs Moduli (GPa) = 61.93756 61.93669 65.71472
#
# Poissons Ratio (x) = -0.05133 0.48465
# Poissons Ratio (y) = -0.05133 0.48466
# Poissons Ratio (z) = 0.45679 0.45679
#
# Static dielectric constant tensor:
#      x y z
#    x 3.975140 0.000000 0.000000 
#    y 0.000000 3.975160 0.000000 
#    z 0.000000 0.000000 4.286670 
# 
# 
# High freq. dielectric constant tensor:
#      x y z
#    x 1.864750 0.000000 0.000000 
#    y 0.000000 1.864750 0.000000 
#    z 0.000000 0.000000 1.899320 
# 
# From -- ./inp_files/4606.got.cif
#   From: 2010.03.12/outbox.cif.g09.slc.cpg/sg136_3_cif.got.tgz:4606.got - 2010.04.06 18:39:43.
