data_PCOD8318738
_publ_section_title
;
Structure prediction by ZEFSAII (Michael W. Deem and Ramdas Pophale) SiO2 
 PCOD8318738
Probable space group: P 42/N M C
;
_chemical_formula_sum "Si O2"
_cell_formula_units_Z 96
_cell_length_a 22.915272
_cell_length_b 22.915272
_cell_length_c 9.832708
_cell_angle_alpha 90.000000
_cell_angle_beta 90.000000
_cell_angle_gamma 90.000000
_cell_volume 5163.250258
_symmetry_space_group_name_H-M "P 42/N M C"
_symmetry_group_IT_number 137
_space_group.IT_coordinate_system_code '2'
_symmetry_cell_setting 'tetragonal'
loop_
_space_group_symop_operation_xyz
x,y,z
1/2-y,x,1/2+z
1/2-x,1/2-y,z
y,1/2-x,1/2+z
1/2+x,-y,-z
-x,1/2+y,-z
1/2+y,1/2+x,1/2-z
-y,-x,1/2-z
-x,-y,-z
1/2+y,-x,1/2-z
1/2+x,1/2+y,-z
-y,1/2+x,1/2-z
1/2-x,y,z
x,1/2-y,z
1/2-y,1/2-x,1/2+z
y,x,1/2+z
loop_
_atom_site_type_symbol
_atom_site_label
_atom_site_fract_x
_atom_site_fract_y
_atom_site_fract_z
Si Si1 0.417667 0.420669 0.351089
Si Si2 0.318850 0.897636 0.842955
Si Si3 0.511229 0.945677 0.403239
Si Si4 0.505496 0.815093 0.064314
Si Si5 0.525333 0.814247 0.751212
Si Si6 0.886337 0.110302 0.602362
O O1 0.440083 0.413208 0.505846
O O2 0.456889 0.462623 0.249396
O O3 0.352574 0.447808 0.348365
O O4 0.421032 0.355353 0.293028
O O5 0.350917 0.850917 0.750000
O O6 0.250000 0.890278 0.823363
O O7 0.339141 0.963033 0.802157
O O8 0.336587 0.882860 0.997235
O O9 0.453335 0.908683 0.385059
O O10 0.500000 0.000000 0.500000
O O11 0.501009 0.750000 0.128291
O O12 0.442571 0.845229 0.057798
O O13 0.527367 0.810935 0.912058
O O14 0.535668 0.750000 0.688880
O O15 0.866218 0.133783 0.750000
#
# Coordination Sequence:
#
# PCOD8318738 Si02
#       6
#    16  16  16  16  16  16
#     4  12  21  36  58  88 121 158 191 241 298 360
#     4  11  24  40  61  86 115 156 203 247 287 345
#     4  12  21  32  55  90 120 150 190 235 297 359
#     4  11  23  38  59  87 122 160 196 240 297 354
#     4  10  21  38  61  89 120 155 196 246 298 351
#     4  12  22  37  56  87 124 155 189 242 301 353
#
# _framework density 18.592939000000001
#
# number of rings (size 3 to 8) (size 9 to 14) (size 15 to 20)
#    0.000    0.667    8.333    0.500    0.000    0.833 
#    0.000    0.833    0.000    0.500    0.000    3.500 
#    0.000    0.000    0.000    0.000    0.000    0.000 
#
# Total GULP energy -1189847.673351 kJ/mol
# GULP energy per Si atom -12394.246597 kJ/mol
# Density = 1.855062 g / cm^3
# Si number density = 18.592939 Si / 1000 Ang^3
#
#
#
# Elastic Constant Matrix: (Units=GPa)
#
#
# Indices 1 2 3 4 5 6 
#
# 1 94.1799 37.6697 17.5467 0.0000 0.0000 0.0000
# 2 37.6697 94.1796 17.5467 0.0000 0.0000 0.0000
# 3 17.5467 17.5467 100.2072 0.0000 0.0000 0.0000
# 4 0.0000 0.0000 0.0000 25.0145 0.0000 0.0000
# 5 0.0000 0.0000 0.0000 0.0000 25.0146 0.0000
# 6 0.0000 0.0000 0.0000 0.0000 0.0000 17.0703
#
#
#
# Elastic Compliance Matrix: (Units=1/GPa)
#
#
# Indices 1 2 3 4 5 6 
#
# 1 0.012826 -0.004870 -0.001393 0.000000 0.000000 0.000000
# 2 -0.004870 0.012826 -0.001393 0.000000 0.000000 0.000000
# 3 -0.001393 -0.001393 0.010467 0.000000 0.000000 0.000000
# 4 0.000000 0.000000 0.000000 0.039977 0.000000 0.000000
# 5 0.000000 0.000000 0.000000 0.000000 0.039977 0.000000
# 6 0.000000 0.000000 0.000000 0.000000 0.000000 0.058581
#
#
# Mechanical properties :
#
#
# Convention : Reuss Voigt Hill
#
# Bulk Modulus (GPa) = 48.06406 48.23253 48.14830
# Shear Modulus (GPa) = 25.39347 27.80678 26.60013
#
# Velocity S-wave (km/s) = 3.69963 3.87144 3.78651
# Velocity P-wave (km/s) = 6.64503 6.78098 6.71335
#
# Compressibility (1/GPa) = 0.02080557
#
# Stress axis : x y z
#
# Youngs Moduli (GPa) = 77.96935 77.96912 95.53693
#
# Poissons Ratio (x) = 0.37974 0.13308
# Poissons Ratio (y) = 0.37974 0.13308
# Poissons Ratio (z) = 0.10861 0.10861
#
# Static dielectric constant tensor:
#      x y z
#    x 3.415580 0.000000 0.000000 
#    y 0.000000 3.415580 0.000000 
#    z 0.000000 0.000000 3.402100 
# 
# 
# High freq. dielectric constant tensor:
#      x y z
#    x 1.698960 0.000000 0.000000 
#    y 0.000000 1.698960 0.000000 
#    z 0.000000 0.000000 1.740500 
# 
# From -- ./inp_files/2164.got.cif
#   From: 2010.03.12/outbox.cif.g09.slc.cpg/sg137_2_cif.got.tgz:2164.got - 2010.04.08 09:34:49.
