data_PCOD8318000
_publ_section_title
;
Structure prediction by ZEFSAII (Michael W. Deem and Ramdas Pophale) SiO2 
 PCOD8318000
Probable space group: P 42/M N M
;
_chemical_formula_sum "Si O2"
_cell_formula_units_Z 96
_cell_length_a 16.032702
_cell_length_b 16.032702
_cell_length_c 21.393200
_cell_angle_alpha 90.000000
_cell_angle_beta 90.000000
_cell_angle_gamma 90.000000
_cell_volume 5499.069292
_symmetry_space_group_name_H-M "P 42/M N M"
_symmetry_group_IT_number 136
_symmetry_cell_setting 'tetragonal'
loop_
_space_group_symop_operation_xyz
x,y,z
1/2-y,1/2+x,1/2+z
-x,-y,z
1/2+y,1/2-x,1/2+z
1/2+x,1/2-y,1/2-z
1/2-x,1/2+y,1/2-z
y,x,-z
-y,-x,-z
-x,-y,-z
1/2+y,1/2-x,1/2-z
x,y,-z
1/2-y,1/2+x,1/2-z
1/2-x,1/2+y,1/2+z
1/2+x,1/2-y,1/2+z
-y,-x,z
y,x,z
loop_
_atom_site_type_symbol
_atom_site_label
_atom_site_fract_x
_atom_site_fract_y
_atom_site_fract_z
Si Si1 0.956518 0.828308 0.301811
Si Si2 0.173149 0.959046 0.569058
Si Si3 0.070398 0.560967 0.320963
Si Si4 0.297418 0.165513 0.356149
Si Si5 0.294244 0.947860 0.225093
Si Si6 0.644718 0.990522 0.430754
O O1 0.909307 0.909307 0.273777
O O2 0.892546 0.751347 0.307079
O O3 0.987102 0.855936 0.371169
O O4 0.026545 0.796847 0.252629
O O5 0.147800 0.997630 0.500000
O O6 0.132768 0.867233 0.575238
O O7 0.272468 0.952888 0.571523
O O8 0.161934 0.519555 0.317200
O O9 0.070143 0.647986 0.284617
O O10 0.000000 0.500000 0.291959
O O11 0.042291 0.577219 0.391940
O O12 0.232927 0.232927 0.386642
O O13 0.366910 0.216875 0.317969
O O14 0.338771 0.104299 0.407002
O O15 0.608973 0.981784 0.500000
#
# Coordination Sequence:
#
# PCOD8318000 Si02
#       6
#    16  16  16  16  16  16
#     4  10  20  32  48  71  99 128 169 213 249 292
#     4   9  18  33  50  68  98 140 177 205 241 293
#     4  12  17  30  52  75  98 128 160 203 255 305
#     4  10  20  33  49  71  96 131 169 203 248 299
#     4  12  18  33  51  72 100 132 165 207 249 306
#     4  10  20  34  51  76 103 129 164 209 255 302
#
# _framework density 17.4575
#
# number of rings (size 3 to 8) (size 9 to 14) (size 15 to 20)
#    0.000    1.500    8.333    0.000    0.000    2.000 
#    0.000    5.000    0.000    0.000    0.000    0.000 
#    0.000    0.667    0.000    1.500    0.000    0.167 
#
# Total GULP energy -1189304.696986 kJ/mol
# GULP energy per Si atom -12388.590594 kJ/mol
# Density = 1.741777 g / cm^3
# Si number density = 17.457500 Si / 1000 Ang^3
#
#
#
# Elastic Constant Matrix: (Units=GPa)
#
#
# Indices 1 2 3 4 5 6 
#
# 1 51.1615 37.0668 40.9172 0.0000 0.0000 0.0000
# 2 37.0668 51.1615 40.9172 0.0000 0.0000 0.0000
# 3 40.9172 40.9172 105.9757 0.0000 0.0000 0.0000
# 4 0.0000 0.0000 0.0000 12.9949 0.0000 0.0000
# 5 0.0000 0.0000 0.0000 0.0000 12.9949 0.0000
# 6 0.0000 0.0000 0.0000 0.0000 0.0000 35.2815
#
#
#
# Elastic Compliance Matrix: (Units=1/GPa)
#
#
# Indices 1 2 3 4 5 6 
#
# 1 0.044303 -0.026645 -0.006818 0.000000 0.000000 0.000000
# 2 -0.026645 0.044303 -0.006818 0.000000 0.000000 0.000000
# 3 -0.006818 -0.006818 0.014701 0.000000 0.000000 0.000000
# 4 0.000000 0.000000 0.000000 0.076953 0.000000 0.000000
# 5 0.000000 0.000000 0.000000 0.000000 0.076953 0.000000
# 6 0.000000 0.000000 0.000000 0.000000 0.000000 0.028343
#
#
# Mechanical properties :
#
#
# Convention : Reuss Voigt Hill
#
# Bulk Modulus (GPa) = 43.96444 49.56680 46.76562
# Shear Modulus (GPa) = 13.37968 18.21409 15.79688
#
# Velocity S-wave (km/s) = 2.77142 3.23358 3.01138
# Velocity P-wave (km/s) = 5.95646 6.51121 6.24000
#
# Compressibility (1/GPa) = 0.02274565
#
# Stress axis : x y z
#
# Youngs Moduli (GPa) = 22.57169 22.57169 68.02386
#
# Poissons Ratio (x) = 0.60143 0.46376
# Poissons Ratio (y) = 0.60143 0.46376
# Poissons Ratio (z) = 0.15389 0.15389
#
# Static dielectric constant tensor:
#      x y z
#    x 3.181610 0.000000 0.000000 
#    y 0.000000 3.181610 0.000000 
#    z 0.000000 0.000000 3.244400 
# 
# 
# High freq. dielectric constant tensor:
#      x y z
#    x 1.656880 0.000000 0.000000 
#    y 0.000000 1.656880 0.000000 
#    z 0.000000 0.000000 1.660440 
# 
# From -- ./inp_files/7673.got.cif
#   From: 2010.03.12/outbox.cif.g09.slc.cpg/sg136_4_cif.got.tgz:7673.got - 2010.04.06 18:39:43.
