data_PCOD8318342
_publ_section_title
;
Structure prediction by ZEFSAII (Michael W. Deem and Ramdas Pophale) SiO2 
 PCOD8318342
Probable space group: P 42/M N M
;
_chemical_formula_sum "Si O2"
_cell_formula_units_Z 72
_cell_length_a 16.024911
_cell_length_b 16.024911
_cell_length_c 19.899582
_cell_angle_alpha 90.000000
_cell_angle_beta 90.000000
_cell_angle_gamma 90.000000
_cell_volume 5110.168332
_symmetry_space_group_name_H-M "P 42/M N M"
_symmetry_group_IT_number 136
_symmetry_cell_setting 'tetragonal'
loop_
_space_group_symop_operation_xyz
x,y,z
1/2-y,1/2+x,1/2+z
-x,-y,z
1/2+y,1/2-x,1/2+z
1/2+x,1/2-y,1/2-z
1/2-x,1/2+y,1/2-z
y,x,-z
-y,-x,-z
-x,-y,-z
1/2+y,1/2-x,1/2-z
x,y,-z
1/2-y,1/2+x,1/2-z
1/2-x,1/2+y,1/2+z
1/2+x,1/2-y,1/2+z
-y,-x,z
y,x,z
loop_
_atom_site_type_symbol
_atom_site_label
_atom_site_fract_x
_atom_site_fract_y
_atom_site_fract_z
Si Si1 0.883925 0.566023 0.325324
Si Si2 0.065579 0.934422 0.920198
Si Si3 0.480916 0.251469 0.577841
Si Si4 0.332229 0.804544 0.577407
Si Si5 0.940479 0.376400 0.675903
O O1 0.813006 0.577337 0.381437
O O2 0.844968 0.580917 0.251197
O O3 0.918002 0.472855 0.329394
O O4 0.960094 0.630748 0.339431
O O5 0.041501 0.842752 0.894915
O O6 0.061358 0.938643 0.000000
O O7 0.000000 0.000000 0.888992
O O8 0.458166 0.240025 0.500000
O O9 0.578888 0.238440 0.590892
O O10 0.323779 0.831698 0.500000
O O11 0.260901 0.739100 0.597838
O O12 0.322211 0.887674 0.622571
#
# Coordination Sequence:
#
# PCOD8318342 Si02
#       5
#    16   8  16  16  16
#     4   8  14  25  39  54  73  98 128 155 189 232
#     4   9  16  26  38  52  74 104 130 152 186 224
#     4   9  16  25  38  55  75  99 128 160 186 219
#     4   9  16  25  37  55  77  99 126 158 189 226
#     4   8  14  25  39  53  74 101 123 154 193 232
#
# _framework density 14.089555000000001
#
# number of rings (size 3 to 8) (size 9 to 14) (size 15 to 20)
#    0.000    3.444    0.000    2.000    0.000    3.556 
#    2.000    4.444    0.000    0.000    0.000    0.000 
#    0.000    0.000    0.000    0.000    0.000   12.000 
#
# Total GULP energy -892362.732529 kJ/mol
# GULP energy per Si atom -12393.926841 kJ/mol
# Density = 1.405749 g / cm^3
# Si number density = 14.089555 Si / 1000 Ang^3
#
#
#
# Elastic Constant Matrix: (Units=GPa)
#
#
# Indices 1 2 3 4 5 6 
#
# 1 74.8622 40.5166 49.5437 0.0000 0.0000 0.0000
# 2 40.5166 74.8621 49.5439 0.0000 0.0000 0.0000
# 3 49.5437 49.5439 79.8915 0.0000 0.0000 0.0000
# 4 0.0000 0.0000 0.0000 13.2511 0.0000 0.0000
# 5 0.0000 0.0000 0.0000 0.0000 13.2511 0.0000
# 6 0.0000 0.0000 0.0000 0.0000 0.0000 15.7321
#
#
#
# Elastic Compliance Matrix: (Units=1/GPa)
#
#
# Indices 1 2 3 4 5 6 
#
# 1 0.023829 -0.005287 -0.011499 0.000000 0.000000 0.000000
# 2 -0.005287 0.023829 -0.011499 0.000000 0.000000 0.000000
# 3 -0.011499 -0.011499 0.026779 0.000000 0.000000 0.000000
# 4 0.000000 0.000000 0.000000 0.075466 0.000000 0.000000
# 5 0.000000 0.000000 0.000000 0.000000 0.075466 0.000000
# 6 0.000000 0.000000 0.000000 0.000000 0.000000 0.063564
#
#
# Mechanical properties :
#
#
# Convention : Reuss Voigt Hill
#
# Bulk Modulus (GPa) = 55.96568 56.53602 56.25085
# Shear Modulus (GPa) = 14.22648 14.44761 14.33705
#
# Velocity S-wave (km/s) = 3.18105 3.20568 3.19339
# Velocity P-wave (km/s) = 7.30067 7.34269 7.32171
#
# Compressibility (1/GPa) = 0.01786809
#
# Stress axis : x y z
#
# Youngs Moduli (GPa) = 41.96567 41.96544 37.34316
#
# Poissons Ratio (x) = 0.22186 0.42940
# Poissons Ratio (y) = 0.22186 0.42940
# Poissons Ratio (z) = 0.48255 0.48256
#
# Static dielectric constant tensor:
#      x y z
#    x 2.773770 0.000000 0.000000 
#    y 0.000000 2.773760 0.000000 
#    z 0.000000 0.000000 2.849850 
# 
# 
# High freq. dielectric constant tensor:
#      x y z
#    x 1.514890 0.000000 0.000000 
#    y 0.000000 1.514890 0.000000 
#    z 0.000000 0.000000 1.529660 
# 
# From -- ./inp_files/6200.got.cif
#   From: 2010.03.12/outbox.cif.g09.slc.cpg/sg136_4_cif.got.tgz:6200.got - 2010.04.06 18:39:43.
