data_PCOD8318257
_publ_section_title
;
Structure prediction by ZEFSAII (Michael W. Deem and Ramdas Pophale) SiO2 
 PCOD8318257
Probable space group: P 42/M N M
;
_chemical_formula_sum "Si O2"
_cell_formula_units_Z 72
_cell_length_a 11.552932
_cell_length_b 11.552932
_cell_length_c 27.014414
_cell_angle_alpha 90.000000
_cell_angle_beta 90.000000
_cell_angle_gamma 90.000000
_cell_volume 3605.620261
_symmetry_space_group_name_H-M "P 42/M N M"
_symmetry_group_IT_number 136
_symmetry_cell_setting 'tetragonal'
loop_
_space_group_symop_operation_xyz
x,y,z
1/2-y,1/2+x,1/2+z
-x,-y,z
1/2+y,1/2-x,1/2+z
1/2+x,1/2-y,1/2-z
1/2-x,1/2+y,1/2-z
y,x,-z
-y,-x,-z
-x,-y,-z
1/2+y,1/2-x,1/2-z
x,y,-z
1/2-y,1/2+x,1/2-z
1/2-x,1/2+y,1/2+z
1/2+x,1/2-y,1/2+z
-y,-x,z
y,x,z
loop_
_atom_site_type_symbol
_atom_site_label
_atom_site_fract_x
_atom_site_fract_y
_atom_site_fract_z
Si Si1 0.096270 0.903731 0.653677
Si Si2 0.998321 0.808289 0.000000
Si Si3 0.240153 0.055423 0.283152
Si Si4 0.546655 0.130802 0.420528
Si Si5 0.688142 0.688142 0.943543
Si Si6 0.869152 0.529096 0.311457
O O1 0.114612 0.885389 0.595497
O O2 0.055120 0.786397 0.681639
O O3 0.000000 0.000000 0.658416
O O4 0.020458 0.725988 0.952854
O O5 0.869693 0.869693 0.000000
O O6 0.093474 0.906527 0.000000
O O7 0.122944 0.122944 0.273514
O O8 0.331404 0.136767 0.312188
O O9 0.282896 0.019030 0.229293
O O10 0.679917 0.150702 0.434133
O O11 0.525206 0.164633 0.363807
O O12 0.500000 0.000000 0.431689
O O13 0.655413 0.655413 0.000000
O O14 0.000000 0.500000 0.295992
#
# Coordination Sequence:
#
# PCOD8318257 Si02
#       6
#     8   8  16  16   8  16
#     4  10  24  43  60  92 134 163 202 272 325 369
#     4  11  23  44  66  91 132 172 210 272 343 389
#     4  11  23  39  62  90 128 167 206 254 317 383
#     4  11  23  41  66  98 126 166 222 269 319 393
#     4  12  24  41  72  94 120 176 223 271 332 382
#     4  11  22  37  61  93 121 161 214 253 304 382
#
# _framework density 19.968824999999999
#
# number of rings (size 3 to 8) (size 9 to 14) (size 15 to 20)
#    0.000    1.000    4.444    3.000    3.111    1.111 
#    0.000    1.111    0.000    0.000    0.000    0.000 
#    0.000    0.000    0.000    0.000    0.000    0.000 
#
# Total GULP energy -892429.230902 kJ/mol
# GULP energy per Si atom -12394.850429 kJ/mol
# Density = 1.992338 g / cm^3
# Si number density = 19.968825 Si / 1000 Ang^3
#
#
#
# Elastic Constant Matrix: (Units=GPa)
#
#
# Indices 1 2 3 4 5 6 
#
# 1 92.7456 40.4832 57.2555 0.0000 0.0000 0.0000
# 2 40.4832 92.7445 57.2553 0.0000 0.0000 0.0000
# 3 57.2555 57.2553 195.6896 0.0000 0.0000 0.0000
# 4 0.0000 0.0000 0.0000 23.2914 0.0000 0.0000
# 5 0.0000 0.0000 0.0000 0.0000 23.2886 0.0000
# 6 0.0000 0.0000 0.0000 0.0000 0.0000 31.3322
#
#
#
# Elastic Compliance Matrix: (Units=1/GPa)
#
#
# Indices 1 2 3 4 5 6 
#
# 1 0.014581 -0.004553 -0.002934 0.000000 0.000000 0.000000
# 2 -0.004553 0.014581 -0.002934 0.000000 0.000000 0.000000
# 3 -0.002934 -0.002934 0.006827 0.000000 0.000000 0.000000
# 4 0.000000 0.000000 0.000000 0.042934 0.000000 0.000000
# 5 0.000000 0.000000 0.000000 0.000000 0.042940 0.000000
# 6 0.000000 0.000000 0.000000 0.000000 0.000000 0.031916
#
#
# Mechanical properties :
#
#
# Convention : Reuss Voigt Hill
#
# Bulk Modulus (GPa) = 66.02150 76.79641 71.40896
# Shear Modulus (GPa) = 27.82876 30.66147 29.24512
#
# Velocity S-wave (km/s) = 3.73716 3.92275 3.83108
# Velocity P-wave (km/s) = 7.19416 7.68498 7.44362
#
# Compressibility (1/GPa) = 0.01514658
#
# Stress axis : x y z
#
# Youngs Moduli (GPa) = 68.58268 68.58180 146.47810
#
# Poissons Ratio (x) = 0.31228 0.42975
# Poissons Ratio (y) = 0.31228 0.42976
# Poissons Ratio (z) = 0.20121 0.20121
#
# Static dielectric constant tensor:
#      x y z
#    x 3.888130 0.000000 0.000000 
#    y 0.000000 3.888120 0.000000 
#    z 0.000000 0.000000 3.976110 
# 
# 
# High freq. dielectric constant tensor:
#      x y z
#    x 1.778140 0.000000 0.000000 
#    y 0.000000 1.778140 0.000000 
#    z 0.000000 0.000000 1.792810 
# 
# From -- ./inp_files/8992.got.cif
#   From: 2010.03.12/outbox.cif.g09.slc.cpg/sg136_5_cif.got.tgz:8992.got - 2010.04.06 18:39:43.
