data_PCOD8318883
_publ_section_title
;
Structure prediction by ZEFSAII (Michael W. Deem and Ramdas Pophale) SiO2 
 PCOD8318883
Probable space group: P 42/N C M
;
_chemical_formula_sum "Si O2"
_cell_formula_units_Z 96
_cell_length_a 17.067897
_cell_length_b 17.067897
_cell_length_c 18.313515
_cell_angle_alpha 90.000000
_cell_angle_beta 90.000000
_cell_angle_gamma 90.000000
_cell_volume 5334.966973
_symmetry_space_group_name_H-M "P 42/N C M"
_symmetry_group_IT_number 138
_space_group.IT_coordinate_system_code '2'
_symmetry_cell_setting 'tetragonal'
loop_
_space_group_symop_operation_xyz
x,y,z
1/2-y,x,1/2+z
1/2-x,1/2-y,z
y,1/2-x,1/2+z
1/2+x,-y,1/2-z
-x,1/2+y,1/2-z
1/2+y,1/2+x,-z
-y,-x,-z
-x,-y,-z
1/2+y,-x,1/2-z
1/2+x,1/2+y,-z
-y,1/2+x,1/2-z
1/2-x,y,1/2+z
x,1/2-y,1/2+z
1/2-y,1/2-x,z
y,x,z
loop_
_atom_site_type_symbol
_atom_site_label
_atom_site_fract_x
_atom_site_fract_y
_atom_site_fract_z
Si Si1 0.028579 0.260210 0.854193
Si Si2 0.385595 0.514191 0.769666
Si Si3 0.487350 0.139234 0.714263
Si Si4 0.786601 0.976372 0.367336
Si Si5 0.813700 0.686301 0.814997
Si Si6 0.814807 0.814807 0.152185
Si Si7 0.998923 0.129995 0.485380
O O1 0.046846 0.314281 0.784099
O O2 0.109027 0.222875 0.886765
O O3 0.976286 0.186073 0.827514
O O4 0.987144 0.315331 0.914205
O O5 0.443158 0.443158 0.792740
O O6 0.432805 0.595010 0.766781
O O7 0.354862 0.503886 0.687331
O O8 0.420719 0.079282 0.686964
O O9 0.511289 0.201161 0.651271
O O10 0.776439 0.883382 0.360866
O O11 0.809502 0.997534 0.448666
O O12 0.750000 0.750000 0.800653
O O13 0.842040 0.657961 0.734159
O O14 0.750000 0.750000 0.153484
O O15 0.924217 0.075784 0.500000
O O16 0.077249 0.077249 0.477908
#
# Coordination Sequence:
#
# PCOD8318883 Si02
#       7
#    16  16  16  16   8   8  16
#     4  11  20  35  54  83 115 148 184 229 278 329
#     4  10  18  35  57  80 106 144 187 232 272 325
#     4  10  20  33  57  82 107 142 188 226 273 329
#     4  11  19  35  53  81 112 142 180 226 274 328
#     4  11  18  30  53  79 116 145 170 218 283 340
#     4  11  18  30  54  81 115 142 174 225 291 344
#     4  11  23  38  56  81 113 148 186 224 275 339
#
# _framework density 17.994486999999999
#
# number of rings (size 3 to 8) (size 9 to 14) (size 15 to 20)
#    0.000    1.333    5.833    3.000    0.000    2.667 
#    3.000    0.833    0.000   20.000    0.000    0.000 
#    0.000    0.000    0.000    0.000    0.000    0.000 
#
# Total GULP energy -1190079.604045 kJ/mol
# GULP energy per Si atom -12396.662542 kJ/mol
# Density = 1.795353 g / cm^3
# Si number density = 17.994487 Si / 1000 Ang^3
#
#
#
# Elastic Constant Matrix: (Units=GPa)
#
#
# Indices 1 2 3 4 5 6 
#
# 1 81.7190 29.7107 17.0169 0.0000 0.0000 0.0000
# 2 29.7107 81.7171 17.0156 0.0000 0.0000 0.0000
# 3 17.0169 17.0156 72.8594 0.0000 0.0000 0.0000
# 4 0.0000 0.0000 0.0000 22.8811 0.0000 0.0000
# 5 0.0000 0.0000 0.0000 0.0000 22.8814 0.0000
# 6 0.0000 0.0000 0.0000 0.0000 0.0000 30.5489
#
#
#
# Elastic Compliance Matrix: (Units=1/GPa)
#
#
# Indices 1 2 3 4 5 6 
#
# 1 0.014446 -0.004782 -0.002257 0.000000 0.000000 0.000000
# 2 -0.004782 0.014446 -0.002257 0.000000 0.000000 0.000000
# 3 -0.002257 -0.002257 0.014779 0.000000 0.000000 0.000000
# 4 0.000000 0.000000 0.000000 0.043704 0.000000 0.000000
# 5 0.000000 0.000000 0.000000 0.000000 0.043704 0.000000
# 6 0.000000 0.000000 0.000000 0.000000 0.000000 0.032734
#
#
# Mechanical properties :
#
#
# Convention : Reuss Voigt Hill
#
# Bulk Modulus (GPa) = 39.87426 40.42021 40.14724
# Shear Modulus (GPa) = 26.21025 26.76575 26.48800
#
# Velocity S-wave (km/s) = 3.82065 3.86092 3.84084
# Velocity P-wave (km/s) = 6.45526 6.51052 6.48295
#
# Compressibility (1/GPa) = 0.02507884
#
# Stress axis : x y z
#
# Youngs Moduli (GPa) = 69.22462 69.22344 67.66224
#
# Poissons Ratio (x) = 0.33104 0.15272
# Poissons Ratio (y) = 0.33105 0.15270
# Poissons Ratio (z) = 0.15625 0.15622
#
# Static dielectric constant tensor:
#      x y z
#    x 3.396790 0.000000 0.000000 
#    y 0.000000 3.396800 0.000000 
#    z 0.000000 0.000000 3.141500 
# 
# 
# High freq. dielectric constant tensor:
#      x y z
#    x 1.695580 0.000000 0.000000 
#    y 0.000000 1.695580 0.000000 
#    z 0.000000 0.000000 1.668500 
# 
# From -- ./inp_files/5268.got.cif
#   From: 2010.03.12/outbox.cif.g09.slc.cpg/sg138_3_cif.got.tgz:5268.got - 2010.04.08 09:41:05.
