data_PCOD8318717
_publ_section_title
;
Structure prediction by ZEFSAII (Michael W. Deem and Ramdas Pophale) SiO2 
 PCOD8318717
Probable space group: P 42/N M C
;
_chemical_formula_sum "Si O2"
_cell_formula_units_Z 112
_cell_length_a 14.919455
_cell_length_b 14.919455
_cell_length_c 24.470348
_cell_angle_alpha 90.000000
_cell_angle_beta 90.000000
_cell_angle_gamma 90.000000
_cell_volume 5446.858126
_symmetry_space_group_name_H-M "P 42/N M C"
_symmetry_group_IT_number 137
_space_group.IT_coordinate_system_code '2'
_symmetry_cell_setting 'tetragonal'
loop_
_space_group_symop_operation_xyz
x,y,z
1/2-y,x,1/2+z
1/2-x,1/2-y,z
y,1/2-x,1/2+z
1/2+x,-y,-z
-x,1/2+y,-z
1/2+y,1/2+x,1/2-z
-y,-x,1/2-z
-x,-y,-z
1/2+y,-x,1/2-z
1/2+x,1/2+y,-z
-y,1/2+x,1/2-z
1/2-x,y,z
x,1/2-y,z
1/2-y,1/2-x,1/2+z
y,x,1/2+z
loop_
_atom_site_type_symbol
_atom_site_label
_atom_site_fract_x
_atom_site_fract_y
_atom_site_fract_z
Si Si1 0.647712 0.499828 0.242166
Si Si2 0.102638 0.853911 0.581646
Si Si3 0.588866 0.901841 0.547667
Si Si4 0.152678 0.147187 0.337468
Si Si5 0.151325 0.899077 0.466076
Si Si6 0.152368 0.023361 0.636689
Si Si7 0.653809 0.538462 0.932140
O O1 0.588338 0.411663 0.250000
O O2 0.750000 0.472066 0.226763
O O3 0.605468 0.568193 0.196279
O O4 0.645504 0.550492 0.300100
O O5 0.090402 0.750000 0.600784
O O6 0.160957 0.857970 0.526712
O O7 0.011268 0.906619 0.569944
O O8 0.145554 0.914443 0.629663
O O9 0.646072 0.859804 0.596805
O O10 0.584194 0.844406 0.492156
O O11 0.628731 0.996562 0.530364
O O12 0.250000 0.104522 0.320964
O O13 0.153706 0.250000 0.320252
O O14 0.250000 0.884589 0.438258
O O15 0.070215 0.852176 0.433896
O O16 0.250000 0.053269 0.614316
O O17 0.075269 0.074248 0.604338
O O18 0.750000 0.561343 0.905477
#
# Coordination Sequence:
#
# PCOD8318717 Si02
#       7
#    16  16  16  16  16  16  16
#     4  10  23  41  63  87 117 156 198 250 303 355
#     4  11  21  36  59  85 122 163 199 241 297 359
#     4  11  19  36  58  87 121 157 193 245 296 353
#     4  10  21  37  59  88 118 152 201 253 302 356
#     4  11  21  35  57  85 123 163 200 243 294 356
#     4  11  23  40  59  87 121 157 203 249 300 363
#     4  11  23  39  59  88 125 163 200 243 298 359
#
# _framework density 20.562313
#
# number of rings (size 3 to 8) (size 9 to 14) (size 15 to 20)
#    0.000    1.286    2.857    5.143    0.000    5.286 
#    0.000    2.857    0.000    0.000    0.000    0.000 
#    0.000    0.286    0.000    0.000    0.000    0.000 
#
# Total GULP energy -1387528.629557 kJ/mol
# GULP energy per Si atom -12388.648478 kJ/mol
# Density = 2.051551 g / cm^3
# Si number density = 20.562313 Si / 1000 Ang^3
#
#
#
# Elastic Constant Matrix: (Units=GPa)
#
#
# Indices 1 2 3 4 5 6 
#
# 1 108.2132 41.1876 33.1122 0.0000 0.0000 0.0000
# 2 41.1876 108.2136 33.1111 0.0000 0.0000 0.0000
# 3 33.1122 33.1111 77.0831 0.0000 0.0000 0.0000
# 4 0.0000 0.0000 0.0000 19.0837 0.0000 0.0000
# 5 0.0000 0.0000 0.0000 0.0000 19.0840 0.0000
# 6 0.0000 0.0000 0.0000 0.0000 0.0000 32.8983
#
#
#
# Elastic Compliance Matrix: (Units=1/GPa)
#
#
# Indices 1 2 3 4 5 6 
#
# 1 0.011594 -0.003326 -0.003552 0.000000 0.000000 0.000000
# 2 -0.003326 0.011594 -0.003551 0.000000 0.000000 0.000000
# 3 -0.003552 -0.003551 0.016024 0.000000 0.000000 0.000000
# 4 0.000000 0.000000 0.000000 0.052401 0.000000 0.000000
# 5 0.000000 0.000000 0.000000 0.000000 0.052400 0.000000
# 6 0.000000 0.000000 0.000000 0.000000 0.000000 0.030397
#
#
# Mechanical properties :
#
#
# Convention : Reuss Voigt Hill
#
# Bulk Modulus (GPa) = 54.48515 56.48131 55.48323
# Shear Modulus (GPa) = 24.82818 26.61982 25.72400
#
# Velocity S-wave (km/s) = 3.47862 3.60195 3.54082
# Velocity P-wave (km/s) = 6.53372 6.69527 6.61499
#
# Compressibility (1/GPa) = 0.01835362
#
# Stress axis : x y z
#
# Youngs Moduli (GPa) = 86.25387 86.25504 62.40609
#
# Poissons Ratio (x) = 0.28689 0.22164
# Poissons Ratio (y) = 0.28688 0.22162
# Poissons Ratio (z) = 0.30633 0.30632
#
# Static dielectric constant tensor:
#      x y z
#    x 3.787600 0.000000 0.000000 
#    y 0.000000 3.787600 0.000000 
#    z 0.000000 0.000000 3.738890 
# 
# 
# High freq. dielectric constant tensor:
#      x y z
#    x 1.800470 0.000000 0.000000 
#    y 0.000000 1.800470 0.000000 
#    z 0.000000 0.000000 1.781430 
# 
# From -- ./inp_files/8979.got.cif
#   From: 2010.03.12/outbox.cif.g09.slc.cpg/sg137_5_cif.got.tgz:8979.got - 2010.04.08 09:34:49.
