data_PCOD8318015
_publ_section_title
;
Structure prediction by ZEFSAII (Michael W. Deem and Ramdas Pophale) SiO2 
 PCOD8318015
Probable space group: P 42/M N M
;
_chemical_formula_sum "Si O2"
_cell_formula_units_Z 96
_cell_length_a 25.109132
_cell_length_b 25.109132
_cell_length_c 8.933408
_cell_angle_alpha 90.000000
_cell_angle_beta 90.000000
_cell_angle_gamma 90.000000
_cell_volume 5632.232429
_symmetry_space_group_name_H-M "P 42/M N M"
_symmetry_group_IT_number 136
_symmetry_cell_setting 'tetragonal'
loop_
_space_group_symop_operation_xyz
x,y,z
1/2-y,1/2+x,1/2+z
-x,-y,z
1/2+y,1/2-x,1/2+z
1/2+x,1/2-y,1/2-z
1/2-x,1/2+y,1/2-z
y,x,-z
-y,-x,-z
-x,-y,-z
1/2+y,1/2-x,1/2-z
x,y,-z
1/2-y,1/2+x,1/2-z
1/2-x,1/2+y,1/2+z
1/2+x,1/2-y,1/2+z
-y,-x,z
y,x,z
loop_
_atom_site_type_symbol
_atom_site_label
_atom_site_fract_x
_atom_site_fract_y
_atom_site_fract_z
Si Si1 0.423830 0.423830 0.178494
Si Si2 0.077314 0.630891 0.176206
Si Si3 0.464206 0.620085 0.821013
Si Si4 0.264912 0.516799 0.169998
Si Si5 0.660634 0.660634 0.177748
Si Si6 0.149133 0.532309 0.177940
Si Si7 0.603411 0.763283 0.170742
O O1 0.408842 0.482521 0.238379
O O2 0.381499 0.381499 0.245136
O O3 0.422946 0.422946 0.000000
O O4 0.114885 0.582618 0.228250
O O5 0.106303 0.685122 0.224946
O O6 0.020552 0.622705 0.254351
O O7 0.068825 0.631070 0.000000
O O8 0.412832 0.587169 0.764591
O O9 0.460945 0.680633 0.754715
O O10 0.466406 0.622218 0.000000
O O11 0.209730 0.538736 0.242379
O O12 0.266201 0.453104 0.181757
O O13 0.265210 0.536118 0.000000
O O14 0.646992 0.720773 0.229263
O O15 0.656698 0.656698 0.000000
O O16 0.150850 0.524467 0.000000
O O17 0.614301 0.781103 0.000000
#
# Coordination Sequence:
#
# PCOD8318015 Si02
#       7
#     8  16  16  16   8  16  16
#     4   9  13  18  29  55  91 120 148 188 234 270
#     4  10  20  33  50  73  97 121 152 191 237 287
#     4   9  14  18  29  54  88 121 150 185 228 268
#     4   8  13  24  40  57  82 118 154 183 217 268
#     4   9  14  23  43  66  87 122 168 204 234 275
#     4   9  19  34  51  69  94 124 151 186 232 285
#     4   9  16  28  47  68  91 123 162 197 233 276
#
# _framework density 17.044751999999999
#
# number of rings (size 3 to 8) (size 9 to 14) (size 15 to 20)
#    0.000    3.000    1.667    1.750    0.000    2.667 
#    0.000    2.083    1.833    0.000    0.000    0.000 
#    0.000    6.500    0.000    6.000    0.000    6.667 
#
# Total GULP energy -1189710.439531 kJ/mol
# GULP energy per Si atom -12392.817078 kJ/mol
# Density = 1.700596 g / cm^3
# Si number density = 17.044752 Si / 1000 Ang^3
#
#
#
# Elastic Constant Matrix: (Units=GPa)
#
#
# Indices 1 2 3 4 5 6 
#
# 1 128.1132 90.0764 20.2057 0.0000 0.0000 0.0000
# 2 90.0764 128.1132 20.2057 0.0000 0.0000 0.0000
# 3 20.2057 20.2057 16.7417 0.0000 0.0000 0.0000
# 4 0.0000 0.0000 0.0000 14.2350 0.0000 0.0000
# 5 0.0000 0.0000 0.0000 0.0000 14.2350 0.0000
# 6 0.0000 0.0000 0.0000 0.0000 0.0000 32.0603
#
#
#
# Elastic Compliance Matrix: (Units=1/GPa)
#
#
# Indices 1 2 3 4 5 6 
#
# 1 0.016096 -0.010194 -0.007124 0.000000 0.000000 0.000000
# 2 -0.010194 0.016096 -0.007124 0.000000 0.000000 0.000000
# 3 -0.007124 -0.007124 0.076927 0.000000 0.000000 0.000000
# 4 0.000000 0.000000 0.000000 0.070249 0.000000 0.000000
# 5 0.000000 0.000000 0.000000 0.000000 0.070249 0.000000
# 6 0.000000 0.000000 0.000000 0.000000 0.000000 0.031191
#
#
# Mechanical properties :
#
#
# Convention : Reuss Voigt Hill
#
# Bulk Modulus (GPa) = 16.60122 59.32706 37.96414
# Shear Modulus (GPa) = 14.29502 21.60475 17.94989
#
# Velocity S-wave (km/s) = 2.89913 3.56410 3.24868
# Velocity P-wave (km/s) = 4.57903 7.19856 6.03270
#
# Compressibility (1/GPa) = 0.06023653
#
# Stress axis : x y z
#
# Youngs Moduli (GPa) = 62.12545 62.12545 12.99935
#
# Poissons Ratio (x) = 0.63330 0.09261
# Poissons Ratio (y) = 0.63330 0.09261
# Poissons Ratio (z) = 0.44258 0.44258
#
# Static dielectric constant tensor:
#      x y z
#    x 3.316490 0.000000 0.000000 
#    y 0.000000 3.316490 0.000000 
#    z 0.000000 0.000000 2.669630 
# 
# 
# High freq. dielectric constant tensor:
#      x y z
#    x 1.655420 0.000000 0.000000 
#    y 0.000000 1.655420 0.000000 
#    z 0.000000 0.000000 1.601250 
# 
# From -- ./inp_files/2075.got.cif
#   From: 2010.03.12/outbox.cif.g09.slc.cpg/sg136_2_cif.got.tgz:2075.got - 2010.04.06 18:39:43.
