data_PCOD8318053
_publ_section_title
;
Structure prediction by ZEFSAII (Michael W. Deem and Ramdas Pophale) SiO2 
 PCOD8318053
Probable space group: P 42/M N M
;
_chemical_formula_sum "Si O2"
_cell_formula_units_Z 48
_cell_length_a 16.611510
_cell_length_b 16.611510
_cell_length_c 8.744870
_cell_angle_alpha 90.000000
_cell_angle_beta 90.000000
_cell_angle_gamma 90.000000
_cell_volume 2413.079230
_symmetry_space_group_name_H-M "P 42/M N M"
_symmetry_group_IT_number 136
_symmetry_cell_setting 'tetragonal'
loop_
_space_group_symop_operation_xyz
x,y,z
1/2-y,1/2+x,1/2+z
-x,-y,z
1/2+y,1/2-x,1/2+z
1/2+x,1/2-y,1/2-z
1/2-x,1/2+y,1/2-z
y,x,-z
-y,-x,-z
-x,-y,-z
1/2+y,1/2-x,1/2-z
x,y,-z
1/2-y,1/2+x,1/2-z
1/2-x,1/2+y,1/2+z
1/2+x,1/2-y,1/2+z
-y,-x,z
y,x,z
loop_
_atom_site_type_symbol
_atom_site_label
_atom_site_fract_x
_atom_site_fract_y
_atom_site_fract_z
Si Si1 0.610063 0.742115 0.177161
Si Si2 0.370370 0.505294 0.671368
Si Si3 0.930330 0.402068 0.180216
O O1 0.683840 0.683840 0.221327
O O2 0.524315 0.700050 0.216236
O O3 0.620459 0.823103 0.275053
O O4 0.610210 0.764289 0.000000
O O5 0.334838 0.514491 0.500000
O O6 0.409218 0.590783 0.725773
O O7 0.440280 0.440280 0.670382
O O8 0.890385 0.478105 0.263874
O O9 0.927861 0.416593 0.000000
#
# Coordination Sequence:
#
# PCOD8318053 Si02
#       3
#    16  16  16
#     4  10  20  34  54  82 115 147 181 224 274 325
#     4   8  14  26  45  70 102 141 182 220 262 316
#     4  11  22  39  62  84 109 141 182 226 270 323
#
# _framework density 19.891596
#
# number of rings (size 3 to 8) (size 9 to 14) (size 15 to 20)
#    0.000    2.333    0.000    6.000    0.000    2.667 
#    0.000    5.000    0.000   10.000    0.000    0.000 
#    0.000    0.000    0.000    0.000    0.000    0.000 
#
# Total GULP energy -595055.094697 kJ/mol
# GULP energy per Si atom -12396.981140 kJ/mol
# Density = 1.984632 g / cm^3
# Si number density = 19.891596 Si / 1000 Ang^3
#
#
#
# Elastic Constant Matrix: (Units=GPa)
#
#
# Indices 1 2 3 4 5 6 
#
# 1 66.5807 19.0034 18.4204 0.0000 0.0000 0.0000
# 2 19.0034 66.5807 18.4204 0.0000 0.0000 0.0000
# 3 18.4204 18.4204 78.9543 0.0000 0.0000 0.0000
# 4 0.0000 0.0000 0.0000 31.4964 0.0000 0.0000
# 5 0.0000 0.0000 0.0000 0.0000 31.4964 0.0000
# 6 0.0000 0.0000 0.0000 0.0000 0.0000 14.9351
#
#
#
# Elastic Compliance Matrix: (Units=1/GPa)
#
#
# Indices 1 2 3 4 5 6 
#
# 1 0.017004 -0.004015 -0.003030 0.000000 0.000000 0.000000
# 2 -0.004015 0.017004 -0.003030 0.000000 0.000000 0.000000
# 3 -0.003030 -0.003030 0.014080 0.000000 0.000000 0.000000
# 4 0.000000 0.000000 0.000000 0.031750 0.000000 0.000000
# 5 0.000000 0.000000 0.000000 0.000000 0.031750 0.000000
# 6 0.000000 0.000000 0.000000 0.000000 0.000000 0.066956
#
#
# Mechanical properties :
#
#
# Convention : Reuss Voigt Hill
#
# Bulk Modulus (GPa) = 35.79631 35.97824 35.88727
# Shear Modulus (GPa) = 24.03785 26.00370 25.02077
#
# Velocity S-wave (km/s) = 3.48004 3.61954 3.55047
# Velocity P-wave (km/s) = 5.84656 5.96612 5.90664
#
# Compressibility (1/GPa) = 0.02793584
#
# Stress axis : x y z
#
# Youngs Moduli (GPa) = 58.81096 58.81096 71.02499
#
# Poissons Ratio (x) = 0.23611 0.21523
# Poissons Ratio (y) = 0.23611 0.21523
# Poissons Ratio (z) = 0.17822 0.17822
#
# Static dielectric constant tensor:
#      x y z
#    x 3.611500 0.000000 0.000000 
#    y 0.000000 3.611500 0.000000 
#    z 0.000000 0.000000 3.624760 
# 
# 
# High freq. dielectric constant tensor:
#      x y z
#    x 1.759780 0.000000 0.000000 
#    y 0.000000 1.759780 0.000000 
#    z 0.000000 0.000000 1.776990 
# 
# From -- ./inp_files/827.got.cif
#   From: 2010.03.12/outbox.cif.g09.slc.cpg/sg136_1_cif.got.tgz:827.got - 2010.04.06 18:39:43.
