data_PCOD8318477
_publ_section_title
;
Structure prediction by ZEFSAII (Michael W. Deem and Ramdas Pophale) SiO2 
 PCOD8318477
Probable space group: P 42/N M C
;
_chemical_formula_sum "Si O2"
_cell_formula_units_Z 96
_cell_length_a 22.516623
_cell_length_b 22.516623
_cell_length_c 10.248799
_cell_angle_alpha 90.000000
_cell_angle_beta 90.000000
_cell_angle_gamma 90.000000
_cell_volume 5196.123786
_symmetry_space_group_name_H-M "P 42/N M C"
_symmetry_group_IT_number 137
_space_group.IT_coordinate_system_code '2'
_symmetry_cell_setting 'tetragonal'
loop_
_space_group_symop_operation_xyz
x,y,z
1/2-y,x,1/2+z
1/2-x,1/2-y,z
y,1/2-x,1/2+z
1/2+x,-y,-z
-x,1/2+y,-z
1/2+y,1/2+x,1/2-z
-y,-x,1/2-z
-x,-y,-z
1/2+y,-x,1/2-z
1/2+x,1/2+y,-z
-y,1/2+x,1/2-z
1/2-x,y,z
x,1/2-y,z
1/2-y,1/2-x,1/2+z
y,x,1/2+z
loop_
_atom_site_type_symbol
_atom_site_label
_atom_site_fract_x
_atom_site_fract_y
_atom_site_fract_z
Si Si1 0.386411 0.393510 0.508947
Si Si2 0.183126 0.387692 0.763614
Si Si3 0.086719 0.817988 0.241664
Si Si4 0.371630 0.969403 0.500074
Si Si5 0.026517 0.883301 0.471643
Si Si6 0.528346 0.183682 0.270048
O O1 0.364930 0.351646 0.391159
O O2 0.353602 0.367620 0.636351
O O3 0.367027 0.460409 0.478870
O O4 0.456847 0.394890 0.528752
O O5 0.250000 0.360825 0.760490
O O6 0.186802 0.457909 0.769128
O O7 0.150227 0.849774 0.250000
O O8 0.096993 0.750000 0.276381
O O9 0.060010 0.824461 0.097344
O O10 0.040347 0.845901 0.343076
O O11 0.438107 0.945883 0.468586
O O12 0.353916 0.949780 0.646043
O O13 0.049670 0.847706 0.597865
O O14 0.555347 0.250000 0.264792
#
# Coordination Sequence:
#
# PCOD8318477 Si02
#       6
#    16  16  16  16  16  16
#     4  10  19  34  54  77 106 136 164 208 266 319
#     4   9  19  34  52  75  98 128 169 203 243 305
#     4  10  21  35  51  74 104 140 184 228 266 310
#     4  10  19  31  50  77 106 134 168 212 265 323
#     4  10  19  31  50  77 106 134 168 212 265 323
#     4   9  17  30  48  70 100 135 168 202 243 300
#
# _framework density 18.47531
#
# number of rings (size 3 to 8) (size 9 to 14) (size 15 to 20)
#    0.000    2.333    0.000    3.000    0.000    1.500 
#    0.000    5.833    0.000    1.500    0.000    0.000 
#    0.000   12.000    0.000    0.000    0.000    0.000 
#
# Total GULP energy -1190455.709303 kJ/mol
# GULP energy per Si atom -12400.580305 kJ/mol
# Density = 1.843326 g / cm^3
# Si number density = 18.475310 Si / 1000 Ang^3
#
#
#
# Elastic Constant Matrix: (Units=GPa)
#
#
# Indices 1 2 3 4 5 6 
#
# 1 73.9354 7.7787 22.2675 0.0000 0.0000 0.0000
# 2 7.7787 73.9386 22.2690 0.0000 0.0000 0.0000
# 3 22.2675 22.2690 118.7426 0.0000 0.0000 0.0000
# 4 0.0000 0.0000 0.0000 24.1464 0.0000 0.0000
# 5 0.0000 0.0000 0.0000 0.0000 24.1456 0.0000
# 6 0.0000 0.0000 0.0000 0.0000 0.0000 4.5202
#
#
#
# Elastic Compliance Matrix: (Units=1/GPa)
#
#
# Indices 1 2 3 4 5 6 
#
# 1 0.014373 -0.000742 -0.002556 0.000000 0.000000 0.000000
# 2 -0.000742 0.014373 -0.002556 0.000000 0.000000 0.000000
# 3 -0.002556 -0.002556 0.009380 0.000000 0.000000 0.000000
# 4 0.000000 0.000000 0.000000 0.041414 0.000000 0.000000
# 5 0.000000 0.000000 0.000000 0.000000 0.041415 0.000000
# 6 0.000000 0.000000 0.000000 0.000000 0.000000 0.221229
#
#
# Mechanical properties :
#
#
# Convention : Reuss Voigt Hill
#
# Bulk Modulus (GPa) = 37.85454 41.24966 39.55210
# Shear Modulus (GPa) = 13.78552 24.84920 19.31736
#
# Velocity S-wave (km/s) = 2.73455 3.67140 3.23705
# Velocity P-wave (km/s) = 5.52305 6.35197 5.95196
#
# Compressibility (1/GPa) = 0.02641691
#
# Stress axis : x y z
#
# Youngs Moduli (GPa) = 69.57354 69.57628 106.60599
#
# Poissons Ratio (x) = 0.05164 0.27250
# Poissons Ratio (y) = 0.05164 0.27251
# Poissons Ratio (z) = 0.17784 0.17786
#
# Static dielectric constant tensor:
#      x y z
#    x 3.257480 0.000000 0.000000 
#    y 0.000000 3.257480 0.000000 
#    z 0.000000 0.000000 3.631180 
# 
# 
# High freq. dielectric constant tensor:
#      x y z
#    x 1.699140 0.000000 0.000000 
#    y 0.000000 1.699140 0.000000 
#    z 0.000000 0.000000 1.735520 
# 
# From -- ./inp_files/2161.got.cif
#   From: 2010.03.12/outbox.cif.g09.slc.cpg/sg137_2_cif.got.tgz:2161.got - 2010.04.08 09:34:49.
