data_PCOD8318612
_publ_section_title
;
Structure prediction by ZEFSAII (Michael W. Deem and Ramdas Pophale) SiO2 
 PCOD8318612
Probable space group: P 42/N M C
;
_chemical_formula_sum "Si O2"
_cell_formula_units_Z 40
_cell_length_a 7.729249
_cell_length_b 7.729249
_cell_length_c 32.612113
_cell_angle_alpha 90.000000
_cell_angle_beta 90.000000
_cell_angle_gamma 90.000000
_cell_volume 1948.289704
_symmetry_space_group_name_H-M "P 42/N M C"
_symmetry_group_IT_number 137
_space_group.IT_coordinate_system_code '2'
_symmetry_cell_setting 'tetragonal'
loop_
_space_group_symop_operation_xyz
x,y,z
1/2-y,x,1/2+z
1/2-x,1/2-y,z
y,1/2-x,1/2+z
1/2+x,-y,-z
-x,1/2+y,-z
1/2+y,1/2+x,1/2-z
-y,-x,1/2-z
-x,-y,-z
1/2+y,-x,1/2-z
1/2+x,1/2+y,-z
-y,1/2+x,1/2-z
1/2-x,y,z
x,1/2-y,z
1/2-y,1/2-x,1/2+z
y,x,1/2+z
loop_
_atom_site_type_symbol
_atom_site_label
_atom_site_fract_x
_atom_site_fract_y
_atom_site_fract_z
Si Si1 0.750000 0.446557 0.902860
Si Si2 0.550818 0.449183 0.250000
Si Si3 0.953820 0.940119 0.545160
Si Si4 0.750000 0.550676 0.811911
O O1 0.750000 0.250000 0.918133
O O2 0.576950 0.533877 0.922008
O O3 0.750000 0.447150 0.853921
O O4 0.750000 0.478962 0.235979
O O5 0.502034 0.576315 0.287137
O O6 0.750000 0.927867 0.550293
O O7 0.035299 0.750000 0.553563
O O8 0.000000 0.000000 0.500000
O O9 0.750000 0.750000 0.823597
#
# Coordination Sequence:
#
# PCOD8318612 Si02
#       4
#     8   8  16   8
#     4  10  22  36  52  84 118 146 192 246 280 351
#     4   9  20  39  60  86 120 151 190 247 296 358
#     4  10  20  35  55  79 111 151 193 237 290 345
#     4  10  22  38  60  88 114 152 198 231 301 364
#
# _framework density 20.530826999999999
#
# number of rings (size 3 to 8) (size 9 to 14) (size 15 to 20)
#    0.000    2.200    2.000    0.000    2.800    3.200 
#    0.000    0.000    0.000    0.000    0.000    0.000 
#    0.000    0.000    0.000    0.000    0.000    0.000 
#
# Total GULP energy -495822.984013 kJ/mol
# GULP energy per Si atom -12395.574600 kJ/mol
# Density = 2.048410 g / cm^3
# Si number density = 20.530827 Si / 1000 Ang^3
#
#
#
# Elastic Constant Matrix: (Units=GPa)
#
#
# Indices 1 2 3 4 5 6 
#
# 1 114.8505 34.4980 58.4198 0.0000 0.0000 0.0000
# 2 34.4980 114.8494 58.4201 0.0000 0.0000 0.0000
# 3 58.4198 58.4201 153.2693 0.0000 0.0000 0.0000
# 4 0.0000 0.0000 0.0000 31.3063 0.0000 0.0000
# 5 0.0000 0.0000 0.0000 0.0000 31.3060 0.0000
# 6 0.0000 0.0000 0.0000 0.0000 0.0000 16.2395
#
#
#
# Elastic Compliance Matrix: (Units=1/GPa)
#
#
# Indices 1 2 3 4 5 6 
#
# 1 0.010993 -0.001452 -0.003637 0.000000 0.000000 0.000000
# 2 -0.001452 0.010993 -0.003637 0.000000 0.000000 0.000000
# 3 -0.003637 -0.003637 0.009297 0.000000 0.000000 0.000000
# 4 0.000000 0.000000 0.000000 0.031942 0.000000 0.000000
# 5 0.000000 0.000000 0.000000 0.000000 0.031943 0.000000
# 6 0.000000 0.000000 0.000000 0.000000 0.000000 0.061578
#
#
# Mechanical properties :
#
#
# Convention : Reuss Voigt Hill
#
# Bulk Modulus (GPa) = 72.29609 76.18279 74.23944
# Shear Modulus (GPa) = 27.96305 31.21245 29.58775
#
# Velocity S-wave (km/s) = 3.69454 3.90330 3.80035
# Velocity P-wave (km/s) = 7.31364 7.58297 7.44952
#
# Compressibility (1/GPa) = 0.01383201
#
# Stress axis : x y z
#
# Youngs Moduli (GPa) = 90.96756 90.96621 107.56540
#
# Poissons Ratio (x) = 0.13211 0.39116
# Poissons Ratio (y) = 0.13211 0.39117
# Poissons Ratio (z) = 0.33080 0.33081
#
# Static dielectric constant tensor:
#      x y z
#    x 4.033990 0.000000 0.000000 
#    y 0.000000 4.034000 0.000000 
#    z 0.000000 0.000000 3.382080 
# 
# 
# High freq. dielectric constant tensor:
#      x y z
#    x 1.808510 0.000000 0.000000 
#    y 0.000000 1.808510 0.000000 
#    z 0.000000 0.000000 1.783410 
# 
# From -- ./inp_files/9340.got.cif
#   From: 2010.03.12/outbox.cif.g09.slc.cpg/sg137_5_cif.got.tgz:9340.got - 2010.04.08 09:34:49.
