data_PCOD8318631
_publ_section_title
;
Structure prediction by ZEFSAII (Michael W. Deem and Ramdas Pophale) SiO2 
 PCOD8318631
Probable space group: P 42/N M C
;
_chemical_formula_sum "Si O2"
_cell_formula_units_Z 112
_cell_length_a 14.798567
_cell_length_b 14.798567
_cell_length_c 24.187913
_cell_angle_alpha 90.000000
_cell_angle_beta 90.000000
_cell_angle_gamma 90.000000
_cell_volume 5297.094539
_symmetry_space_group_name_H-M "P 42/N M C"
_symmetry_group_IT_number 137
_space_group.IT_coordinate_system_code '2'
_symmetry_cell_setting 'tetragonal'
loop_
_space_group_symop_operation_xyz
x,y,z
1/2-y,x,1/2+z
1/2-x,1/2-y,z
y,1/2-x,1/2+z
1/2+x,-y,-z
-x,1/2+y,-z
1/2+y,1/2+x,1/2-z
-y,-x,1/2-z
-x,-y,-z
1/2+y,-x,1/2-z
1/2+x,1/2+y,-z
-y,1/2+x,1/2-z
1/2-x,y,z
x,1/2-y,z
1/2-y,1/2-x,1/2+z
y,x,1/2+z
loop_
_atom_site_type_symbol
_atom_site_label
_atom_site_fract_x
_atom_site_fract_y
_atom_site_fract_z
Si Si1 0.522706 0.591610 0.090198
Si Si2 0.649096 0.103205 0.310651
Si Si3 0.073039 0.852075 0.579588
Si Si4 0.479433 0.347081 0.028911
Si Si5 0.148923 0.100595 0.693082
Si Si6 0.649417 0.852869 0.186885
Si Si7 0.646186 0.525637 0.901634
O O1 0.593410 0.517677 0.068508
O O2 0.570726 0.638868 0.141879
O O3 0.421815 0.558794 0.108524
O O4 0.512390 0.655325 0.037459
O O5 0.608213 0.108213 0.250000
O O6 0.750000 0.142962 0.310166
O O7 0.589203 0.158457 0.354308
O O8 0.647209 0.000230 0.331440
O O9 0.071686 0.750000 0.554366
O O10 0.146625 0.917027 0.551176
O O11 0.442291 0.250000 0.048199
O O12 0.405409 0.418696 0.050306
O O13 0.250000 0.141613 0.689522
O O14 0.118923 0.095746 0.757305
O O15 0.081624 0.157982 0.655108
O O16 0.750000 0.886572 0.166265
O O17 0.657490 0.750000 0.204541
O O18 0.750000 0.498404 0.919273
#
# Coordination Sequence:
#
# PCOD8318631 Si02
#       7
#    16  16  16  16  16  16  16
#     4  11  23  40  61  83 120 156 200 253 297 361
#     4  11  21  33  52  83 122 159 194 233 284 358
#     4  11  22  38  59  84 118 159 196 237 297 368
#     4  11  24  41  60  86 114 151 199 251 304 357
#     4  10  20  36  58  86 120 155 198 249 302 364
#     4  10  21  37  60  91 123 159 201 249 311 370
#     4  11  23  39  61  87 116 155 201 249 303 363
#
# _framework density 21.143668000000002
#
# number of rings (size 3 to 8) (size 9 to 14) (size 15 to 20)
#    0.000    1.286    2.857    5.143    0.000    7.571 
#    0.000    0.000    0.000    1.286    0.000    0.000 
#    0.000    4.571    0.000    0.000    0.000    0.000 
#
# Total GULP energy -1387855.143803 kJ/mol
# GULP energy per Si atom -12391.563784 kJ/mol
# Density = 2.109554 g / cm^3
# Si number density = 21.143668 Si / 1000 Ang^3
#
#
#
# Elastic Constant Matrix: (Units=GPa)
#
#
# Indices 1 2 3 4 5 6 
#
# 1 104.9339 21.5176 18.1836 0.0000 0.0000 0.0000
# 2 21.5176 104.9339 18.1836 0.0000 0.0000 0.0000
# 3 18.1836 18.1836 107.1161 0.0000 0.0000 0.0000
# 4 0.0000 0.0000 0.0000 22.1813 0.0000 0.0000
# 5 0.0000 0.0000 0.0000 0.0000 22.1813 0.0000
# 6 0.0000 0.0000 0.0000 0.0000 0.0000 22.4545
#
#
#
# Elastic Compliance Matrix: (Units=1/GPa)
#
#
# Indices 1 2 3 4 5 6 
#
# 1 0.010151 -0.001837 -0.001411 0.000000 0.000000 0.000000
# 2 -0.001837 0.010151 -0.001411 0.000000 0.000000 0.000000
# 3 -0.001411 -0.001411 0.009815 0.000000 0.000000 0.000000
# 4 0.000000 0.000000 0.000000 0.045083 0.000000 0.000000
# 5 0.000000 0.000000 0.000000 0.000000 0.045083 0.000000
# 6 0.000000 0.000000 0.000000 0.000000 0.000000 0.044534
#
#
# Mechanical properties :
#
#
# Convention : Reuss Voigt Hill
#
# Bulk Modulus (GPa) = 48.08260 48.08370 48.08315
# Shear Modulus (GPa) = 27.61374 30.63672 29.12523
#
# Velocity S-wave (km/s) = 3.61779 3.81067 3.71548
# Velocity P-wave (km/s) = 6.34362 6.49249 6.41849
#
# Compressibility (1/GPa) = 0.02079754
#
# Stress axis : x y z
#
# Youngs Moduli (GPa) = 98.51182 98.51182 101.88654
#
# Poissons Ratio (x) = 0.18097 0.14380
# Poissons Ratio (y) = 0.18097 0.14380
# Poissons Ratio (z) = 0.13904 0.13904
#
# Static dielectric constant tensor:
#      x y z
#    x 3.829280 0.000000 0.000000 
#    y 0.000000 3.829280 0.000000 
#    z 0.000000 0.000000 3.785290 
# 
# 
# High freq. dielectric constant tensor:
#      x y z
#    x 1.816220 0.000000 0.000000 
#    y 0.000000 1.816220 0.000000 
#    z 0.000000 0.000000 1.833640 
# 
# From -- ./inp_files/8995.got.cif
#   From: 2010.03.12/outbox.cif.g09.slc.cpg/sg137_5_cif.got.tgz:8995.got - 2010.04.08 09:34:49.
