data_PCOD8318782
_publ_section_title
;
Structure prediction by ZEFSAII (Michael W. Deem and Ramdas Pophale) SiO2 
 PCOD8318782
Probable space group: P 42/N M C
;
_chemical_formula_sum "Si O2"
_cell_formula_units_Z 80
_cell_length_a 13.901507
_cell_length_b 13.901507
_cell_length_c 26.555277
_cell_angle_alpha 90.000000
_cell_angle_beta 90.000000
_cell_angle_gamma 90.000000
_cell_volume 5131.857652
_symmetry_space_group_name_H-M "P 42/N M C"
_symmetry_group_IT_number 137
_space_group.IT_coordinate_system_code '2'
_symmetry_cell_setting 'tetragonal'
loop_
_space_group_symop_operation_xyz
x,y,z
1/2-y,x,1/2+z
1/2-x,1/2-y,z
y,1/2-x,1/2+z
1/2+x,-y,-z
-x,1/2+y,-z
1/2+y,1/2+x,1/2-z
-y,-x,1/2-z
-x,-y,-z
1/2+y,-x,1/2-z
1/2+x,1/2+y,-z
-y,1/2+x,1/2-z
1/2-x,y,z
x,1/2-y,z
1/2-y,1/2-x,1/2+z
y,x,1/2+z
loop_
_atom_site_type_symbol
_atom_site_label
_atom_site_fract_x
_atom_site_fract_y
_atom_site_fract_z
Si Si1 0.456262 0.534815 0.395238
Si Si2 0.362742 0.360940 0.447687
Si Si3 0.355779 0.861130 0.016681
Si Si4 0.360014 0.466374 0.549448
Si Si5 0.860235 0.138754 0.808263
O O1 0.419704 0.426935 0.407757
O O2 0.411655 0.612102 0.432663
O O3 0.571813 0.544883 0.401995
O O4 0.427705 0.565345 0.339001
O O5 0.250000 0.378338 0.438606
O O6 0.391661 0.250000 0.439478
O O7 0.388166 0.391626 0.505005
O O8 0.250000 0.897404 0.000606
O O9 0.356116 0.750000 0.030377
O O10 0.426564 0.881905 0.970580
O O11 0.250000 0.452167 0.566715
O O12 0.881320 0.118681 0.750000
O O13 0.750000 0.111878 0.821239
O O14 0.879216 0.250000 0.821425
#
# Coordination Sequence:
#
# PCOD8318782 Si02
#       5
#    16  16  16  16  16
#     4  11  18  26  45  64  82 113 149 176 205 252
#     4   9  17  28  41  61  91 120 143 170 205 249
#     4   9  16  26  42  65  90 111 136 175 216 251
#     4   9  19  30  38  57  88 119 149 177 203 237
#     4   9  18  32  49  69  89 104 125 168 223 267
#
# _framework density 15.588896999999999
#
# number of rings (size 3 to 8) (size 9 to 14) (size 15 to 20)
#    0.000    2.600    0.000    6.600    0.000    5.600 
#    0.000    0.000    0.000    1.200    0.000    2.800 
#    0.000    0.000    0.000    1.800    0.000    0.200 
#
# Total GULP energy -991760.124485 kJ/mol
# GULP energy per Si atom -12397.001556 kJ/mol
# Density = 1.555342 g / cm^3
# Si number density = 15.588897 Si / 1000 Ang^3
#
#
#
# Elastic Constant Matrix: (Units=GPa)
#
#
# Indices 1 2 3 4 5 6 
#
# 1 81.8386 42.6673 46.6086 0.0000 0.0000 0.0000
# 2 42.6673 81.8389 46.6087 0.0000 0.0000 0.0000
# 3 46.6086 46.6087 68.9187 0.0000 0.0000 0.0000
# 4 0.0000 0.0000 0.0000 17.3422 0.0000 0.0000
# 5 0.0000 0.0000 0.0000 0.0000 17.3421 0.0000
# 6 0.0000 0.0000 0.0000 0.0000 0.0000 12.0134
#
#
#
# Elastic Compliance Matrix: (Units=1/GPa)
#
#
# Indices 1 2 3 4 5 6 
#
# 1 0.020899 -0.004630 -0.011003 0.000000 0.000000 0.000000
# 2 -0.004630 0.020899 -0.011003 0.000000 0.000000 0.000000
# 3 -0.011003 -0.011003 0.029392 0.000000 0.000000 0.000000
# 4 0.000000 0.000000 0.000000 0.057663 0.000000 0.000000
# 5 0.000000 0.000000 0.000000 0.000000 0.057663 0.000000
# 6 0.000000 0.000000 0.000000 0.000000 0.000000 0.083240
#
#
# Mechanical properties :
#
#
# Convention : Reuss Voigt Hill
#
# Bulk Modulus (GPa) = 55.80459 56.04059 55.92259
# Shear Modulus (GPa) = 15.19758 15.78701 15.49229
#
# Velocity S-wave (km/s) = 3.12572 3.18576 3.15588
# Velocity P-wave (km/s) = 6.99301 7.03983 7.01646
#
# Compressibility (1/GPa) = 0.01791967
#
# Stress axis : x y z
#
# Youngs Moduli (GPa) = 47.84880 47.84896 34.02303
#
# Poissons Ratio (x) = 0.22152 0.37435
# Poissons Ratio (y) = 0.22152 0.37435
# Poissons Ratio (z) = 0.52647 0.52647
#
# Static dielectric constant tensor:
#      x y z
#    x 2.261170 0.000000 0.000000 
#    y 0.000000 2.261150 0.000000 
#    z 0.000000 0.000000 2.637090 
# 
# 
# High freq. dielectric constant tensor:
#      x y z
#    x 1.602720 0.000000 0.000000 
#    y 0.000000 1.602720 0.000000 
#    z 0.000000 0.000000 1.545270 
# 
# From -- ./inp_files/8706.got.cif
#   From: 2010.03.12/outbox.cif.g09.slc.cpg/sg137_5_cif.got.tgz:8706.got - 2010.04.08 09:34:49.
