data_PCOD8318460
_publ_section_title
;
Structure prediction by ZEFSAII (Michael W. Deem and Ramdas Pophale) SiO2 
 PCOD8318460
Probable space group: P 42/N M C
;
_chemical_formula_sum "Si O2"
_cell_formula_units_Z 96
_cell_length_a 22.461878
_cell_length_b 22.461878
_cell_length_c 10.550647
_cell_angle_alpha 90.000000
_cell_angle_beta 90.000000
_cell_angle_gamma 90.000000
_cell_volume 5323.180847
_symmetry_space_group_name_H-M "P 42/N M C"
_symmetry_group_IT_number 137
_space_group.IT_coordinate_system_code '2'
_symmetry_cell_setting 'tetragonal'
loop_
_space_group_symop_operation_xyz
x,y,z
1/2-y,x,1/2+z
1/2-x,1/2-y,z
y,1/2-x,1/2+z
1/2+x,-y,-z
-x,1/2+y,-z
1/2+y,1/2+x,1/2-z
-y,-x,1/2-z
-x,-y,-z
1/2+y,-x,1/2-z
1/2+x,1/2+y,-z
-y,1/2+x,1/2-z
1/2-x,y,z
x,1/2-y,z
1/2-y,1/2-x,1/2+z
y,x,1/2+z
loop_
_atom_site_type_symbol
_atom_site_label
_atom_site_fract_x
_atom_site_fract_y
_atom_site_fract_z
Si Si1 0.684425 0.474485 0.694985
Si Si2 0.636864 0.897459 0.734305
Si Si3 0.108043 0.317531 0.495686
Si Si4 0.955708 0.974238 0.340348
Si Si5 0.064998 0.924524 0.040467
Si Si6 0.468386 0.815596 0.487284
O O1 0.750000 0.463430 0.634639
O O2 0.671796 0.544596 0.688537
O O3 0.635622 0.435214 0.621512
O O4 0.685456 0.453247 0.839140
O O5 0.664295 0.869612 0.863380
O O6 0.640839 0.852909 0.616158
O O7 0.568144 0.911121 0.765745
O O8 0.125528 0.250000 0.472699
O O9 0.037539 0.328584 0.487420
O O10 0.015341 0.937060 0.374375
O O11 0.923041 0.003991 0.459823
O O12 0.971121 0.028880 0.250000
O O13 0.127666 0.929729 0.960903
O O14 0.451060 0.750000 0.545131
#
# Coordination Sequence:
#
# PCOD8318460 Si02
#       6
#    16  16  16  16  16  16
#     4  10  19  30  48  74 104 141 176 216 267 325
#     4  11  19  35  55  79 110 143 180 225 279 332
#     4  10  21  36  56  80 108 143 181 225 272 329
#     4  11  19  27  50  81 108 131 168 221 285 331
#     4  11  18  30  48  77 109 137 174 223 268 330
#     4   9  17  30  49  74 107 142 175 211 262 324
#
# _framework density 18.034331000000002
#
# number of rings (size 3 to 8) (size 9 to 14) (size 15 to 20)
#    0.000    1.667    5.000    4.000    0.000    0.000 
#    0.000    4.167    0.000    5.500    0.000    2.333 
#    0.000    0.000    0.000    2.333    0.000    0.167 
#
# Total GULP energy -1189646.719549 kJ/mol
# GULP energy per Si atom -12392.153329 kJ/mol
# Density = 1.799328 g / cm^3
# Si number density = 18.034331 Si / 1000 Ang^3
#
#
#
# Elastic Constant Matrix: (Units=GPa)
#
#
# Indices 1 2 3 4 5 6 
#
# 1 68.3462 36.7280 19.5769 0.0000 0.0000 0.0000
# 2 36.7280 68.3477 19.5798 0.0000 0.0000 0.0000
# 3 19.5769 19.5798 50.4963 0.0000 0.0000 0.0000
# 4 0.0000 0.0000 0.0000 17.4440 0.0000 0.0000
# 5 0.0000 0.0000 0.0000 0.0000 17.4444 0.0000
# 6 0.0000 0.0000 0.0000 0.0000 0.0000 12.4805
#
#
#
# Elastic Compliance Matrix: (Units=1/GPa)
#
#
# Indices 1 2 3 4 5 6 
#
# 1 0.021375 -0.010251 -0.004312 0.000000 0.000000 0.000000
# 2 -0.010251 0.021376 -0.004314 0.000000 0.000000 0.000000
# 3 -0.004312 -0.004314 0.023148 0.000000 0.000000 0.000000
# 4 0.000000 0.000000 0.000000 0.057326 0.000000 0.000000
# 5 0.000000 0.000000 0.000000 0.000000 0.057325 0.000000
# 6 0.000000 0.000000 0.000000 0.000000 0.000000 0.080125
#
#
# Mechanical properties :
#
#
# Convention : Reuss Voigt Hill
#
# Bulk Modulus (GPa) = 35.53130 37.66218 36.59674
# Shear Modulus (GPa) = 16.24372 16.89415 16.56894
#
# Velocity S-wave (km/s) = 3.00444 3.06400 3.03437
# Velocity P-wave (km/s) = 5.63741 5.78329 5.71081
#
# Compressibility (1/GPa) = 0.02814420
#
# Stress axis : x y z
#
# Youngs Moduli (GPa) = 46.78287 46.78229 43.20030
#
# Poissons Ratio (x) = 0.47957 0.18629
# Poissons Ratio (y) = 0.47958 0.18637
# Poissons Ratio (z) = 0.20173 0.20182
#
# Static dielectric constant tensor:
#      x y z
#    x 3.311040 0.000000 0.000000 
#    y 0.000000 3.311040 0.000000 
#    z 0.000000 0.000000 3.234110 
# 
# 
# High freq. dielectric constant tensor:
#      x y z
#    x 1.677270 0.000000 0.000000 
#    y 0.000000 1.677270 0.000000 
#    z 0.000000 0.000000 1.680150 
# 
# From -- ./inp_files/3757.got.cif
#   From: 2010.03.12/outbox.cif.g09.slc.cpg/sg137_2_cif.got.tgz:3757.got - 2010.04.08 09:34:49.
