data_PCOD8318744
_publ_section_title
;
Structure prediction by ZEFSAII (Michael W. Deem and Ramdas Pophale) SiO2 
 PCOD8318744
Probable space group: P 42/N M C
;
_chemical_formula_sum "Si O2"
_cell_formula_units_Z 112
_cell_length_a 15.160307
_cell_length_b 15.160307
_cell_length_c 23.448363
_cell_angle_alpha 90.000000
_cell_angle_beta 90.000000
_cell_angle_gamma 90.000000
_cell_volume 5389.252361
_symmetry_space_group_name_H-M "P 42/N M C"
_symmetry_group_IT_number 137
_space_group.IT_coordinate_system_code '2'
_symmetry_cell_setting 'tetragonal'
loop_
_space_group_symop_operation_xyz
x,y,z
1/2-y,x,1/2+z
1/2-x,1/2-y,z
y,1/2-x,1/2+z
1/2+x,-y,-z
-x,1/2+y,-z
1/2+y,1/2+x,1/2-z
-y,-x,1/2-z
-x,-y,-z
1/2+y,-x,1/2-z
1/2+x,1/2+y,-z
-y,1/2+x,1/2-z
1/2-x,y,z
x,1/2-y,z
1/2-y,1/2-x,1/2+z
y,x,1/2+z
loop_
_atom_site_type_symbol
_atom_site_label
_atom_site_fract_x
_atom_site_fract_y
_atom_site_fract_z
Si Si1 0.154315 0.956058 0.376318
Si Si2 0.149339 0.850303 0.902366
Si Si3 0.347884 0.401171 0.286206
Si Si4 0.650862 0.850414 0.421177
Si Si5 0.152755 0.541056 0.791637
Si Si6 0.896639 0.007426 0.496195
Si Si7 0.991686 0.850232 0.331295
O O1 0.250000 0.910670 0.366791
O O2 0.141818 0.969847 0.442848
O O3 0.080759 0.898670 0.346400
O O4 0.153857 0.050812 0.346590
O O5 0.250000 0.862328 0.923285
O O6 0.134373 0.750000 0.879665
O O7 0.126909 0.922157 0.853838
O O8 0.085954 0.868051 0.955006
O O9 0.250000 0.354404 0.277372
O O10 0.434194 0.339338 0.288935
O O11 0.363121 0.470194 0.234932
O O12 0.750000 0.855513 0.397105
O O13 0.627931 0.750000 0.439740
O O14 0.588900 0.885848 0.370155
O O15 0.641225 0.913510 0.475666
O O16 0.077664 0.577664 0.750000
O O17 0.250000 0.577427 0.775035
O O18 0.000000 0.000000 0.500000
O O19 0.008188 0.750000 0.347297
#
# Coordination Sequence:
#
# PCOD8318744 Si02
#       7
#    16  16  16  16  16  16  16
#     4  11  22  38  60  89 122 163 211 257 310 376
#     4  10  23  42  62  92 132 169 212 264 318 382
#     4  10  23  42  63  89 127 165 210 264 316 378
#     4  10  22  40  62  90 124 163 211 263 314 373
#     4  11  23  39  64  94 126 167 211 258 319 382
#     4  12  23  39  65  90 126 169 208 258 315 374
#     4  10  21  39  61  88 121 160 205 264 322 371
#
# _framework density 20.782101999999998
#
# number of rings (size 3 to 8) (size 9 to 14) (size 15 to 20)
#    0.000    1.429    1.429    3.857    2.000    3.000 
#    0.000    2.143    0.000    3.429    0.000    0.000 
#    0.000    0.000    0.000    0.000    0.000    0.000 
#
# Total GULP energy -1388387.020639 kJ/mol
# GULP energy per Si atom -12396.312684 kJ/mol
# Density = 2.073480 g / cm^3
# Si number density = 20.782102 Si / 1000 Ang^3
#
#
#
# Elastic Constant Matrix: (Units=GPa)
#
#
# Indices 1 2 3 4 5 6 
#
# 1 116.7965 32.0021 35.1150 0.0000 0.0000 0.0000
# 2 32.0021 116.7965 35.1150 0.0000 0.0000 0.0000
# 3 35.1150 35.1150 104.0393 0.0000 0.0000 0.0000
# 4 0.0000 0.0000 0.0000 22.0776 0.0000 0.0000
# 5 0.0000 0.0000 0.0000 0.0000 22.0776 0.0000
# 6 0.0000 0.0000 0.0000 0.0000 0.0000 29.5203
#
#
#
# Elastic Compliance Matrix: (Units=1/GPa)
#
#
# Indices 1 2 3 4 5 6 
#
# 1 0.009894 -0.001900 -0.002698 0.000000 0.000000 0.000000
# 2 -0.001900 0.009894 -0.002698 0.000000 0.000000 0.000000
# 3 -0.002698 -0.002698 0.011433 0.000000 0.000000 0.000000
# 4 0.000000 0.000000 0.000000 0.045295 0.000000 0.000000
# 5 0.000000 0.000000 0.000000 0.000000 0.045295 0.000000
# 6 0.000000 0.000000 0.000000 0.000000 0.000000 0.033875
#
#
# Mechanical properties :
#
#
# Convention : Reuss Voigt Hill
#
# Bulk Modulus (GPa) = 60.13746 60.23296 60.18521
# Shear Modulus (GPa) = 28.43831 30.42845 29.43338
#
# Velocity S-wave (km/s) = 3.70321 3.83059 3.76744
# Velocity P-wave (km/s) = 6.87641 6.97213 6.92443
#
# Compressibility (1/GPa) = 0.01662857
#
# Stress axis : x y z
#
# Youngs Moduli (GPa) = 101.07554 101.07554 87.46568
#
# Poissons Ratio (x) = 0.19201 0.23599
# Poissons Ratio (y) = 0.19201 0.23599
# Poissons Ratio (z) = 0.27271 0.27271
#
# Static dielectric constant tensor:
#      x y z
#    x 3.665060 0.000000 0.000000 
#    y 0.000000 3.665060 0.000000 
#    z 0.000000 0.000000 3.736050 
# 
# 
# High freq. dielectric constant tensor:
#      x y z
#    x 1.820300 0.000000 0.000000 
#    y 0.000000 1.820300 0.000000 
#    z 0.000000 0.000000 1.811220 
# 
# From -- ./inp_files/8993.got.cif
#   From: 2010.03.12/outbox.cif.g09.slc.cpg/sg137_5_cif.got.tgz:8993.got - 2010.04.08 09:34:49.
