data_PCOD8318253
_publ_section_title
;
Structure prediction by ZEFSAII (Michael W. Deem and Ramdas Pophale) SiO2 
 PCOD8318253
Probable space group: P 42/M N M
;
_chemical_formula_sum "Si O2"
_cell_formula_units_Z 88
_cell_length_a 12.299942
_cell_length_b 12.299942
_cell_length_c 27.404580
_cell_angle_alpha 90.000000
_cell_angle_beta 90.000000
_cell_angle_gamma 90.000000
_cell_volume 4145.999807
_symmetry_space_group_name_H-M "P 42/M N M"
_symmetry_group_IT_number 136
_symmetry_cell_setting 'tetragonal'
loop_
_space_group_symop_operation_xyz
x,y,z
1/2-y,1/2+x,1/2+z
-x,-y,z
1/2+y,1/2-x,1/2+z
1/2+x,1/2-y,1/2-z
1/2-x,1/2+y,1/2-z
y,x,-z
-y,-x,-z
-x,-y,-z
1/2+y,1/2-x,1/2-z
x,y,-z
1/2-y,1/2+x,1/2-z
1/2-x,1/2+y,1/2+z
1/2+x,1/2-y,1/2+z
-y,-x,z
y,x,z
loop_
_atom_site_type_symbol
_atom_site_label
_atom_site_fract_x
_atom_site_fract_y
_atom_site_fract_z
Si Si1 0.743732 0.431267 0.944657
Si Si2 0.671691 0.848288 0.306199
Si Si3 0.811249 0.641151 0.894487
Si Si4 0.909111 0.090890 0.943300
Si Si5 0.323246 0.946734 0.905210
Si Si6 0.583317 0.756204 0.790754
O O1 0.653460 0.346541 0.924609
O O2 0.739584 0.538689 0.911927
O O3 0.862123 0.375653 0.942798
O O4 0.718266 0.463679 0.000000
O O5 0.749433 0.749433 0.319611
O O6 0.586787 0.858374 0.350481
O O7 0.605845 0.827954 0.256853
O O8 0.746864 0.954676 0.300004
O O9 0.750970 0.750970 0.912724
O O10 0.816282 0.641744 0.835880
O O11 0.932392 0.632116 0.916033
O O12 0.805028 0.048231 0.913993
O O13 0.882314 0.117687 0.000000
O O14 0.000000 0.000000 0.939460
O O15 0.634422 0.634422 0.785029
#
# Coordination Sequence:
#
# PCOD8318253 Si02
#       6
#    16  16  16   8  16  16
#     4  11  24  43  68  97 129 170 224 277 329 397
#     4  11  22  40  66  95 130 175 224 275 332 398
#     4  11  25  42  63  95 133 173 218 273 331 397
#     4  11  24  42  66  96 135 177 217 273 341 407
#     4  12  22  41  67  97 130 171 223 274 332 399
#     4  10  23  40  62  95 132 171 221 275 334 397
#
# _framework density 21.225276999999998
#
# number of rings (size 3 to 8) (size 9 to 14) (size 15 to 20)
#    0.000    1.000    3.636    2.727    0.000    5.091 
#    0.000    3.636    0.000    0.000    0.000    0.000 
#    0.000    0.000    0.000    0.000    0.000    0.000 
#
# Total GULP energy -1091328.588472 kJ/mol
# GULP energy per Si atom -12401.461233 kJ/mol
# Density = 2.117697 g / cm^3
# Si number density = 21.225277 Si / 1000 Ang^3
#
#
#
# Elastic Constant Matrix: (Units=GPa)
#
#
# Indices 1 2 3 4 5 6 
#
# 1 115.6159 34.0578 28.1836 0.0000 0.0000 0.0000
# 2 34.0578 115.6158 28.1835 0.0000 0.0000 0.0000
# 3 28.1836 28.1835 97.1044 0.0000 0.0000 0.0000
# 4 0.0000 0.0000 0.0000 27.4258 0.0000 0.0000
# 5 0.0000 0.0000 0.0000 0.0000 27.4257 0.0000
# 6 0.0000 0.0000 0.0000 0.0000 0.0000 30.8495
#
#
#
# Elastic Compliance Matrix: (Units=1/GPa)
#
#
# Indices 1 2 3 4 5 6 
#
# 1 0.009881 -0.002380 -0.002177 0.000000 0.000000 0.000000
# 2 -0.002380 0.009881 -0.002177 0.000000 0.000000 0.000000
# 3 -0.002177 -0.002177 0.011562 0.000000 0.000000 0.000000
# 4 0.000000 0.000000 0.000000 0.036462 0.000000 0.000000
# 5 0.000000 0.000000 0.000000 0.000000 0.036462 0.000000
# 6 0.000000 0.000000 0.000000 0.000000 0.000000 0.032415
#
#
# Mechanical properties :
#
#
# Convention : Reuss Voigt Hill
#
# Bulk Modulus (GPa) = 56.00452 56.57622 56.29037
# Shear Modulus (GPa) = 32.03395 33.00094 32.51745
#
# Velocity S-wave (km/s) = 3.88910 3.94737 3.91834
# Velocity P-wave (km/s) = 6.82714 6.89120 6.85924
#
# Compressibility (1/GPa) = 0.01785570
#
# Stress axis : x y z
#
# Youngs Moduli (GPa) = 101.20281 101.20272 86.49053
#
# Poissons Ratio (x) = 0.24087 0.18830
# Poissons Ratio (y) = 0.24087 0.18830
# Poissons Ratio (z) = 0.22033 0.22033
#
# Static dielectric constant tensor:
#      x y z
#    x 3.778340 0.000000 0.000000 
#    y 0.000000 3.778340 0.000000 
#    z 0.000000 0.000000 3.857610 
# 
# 
# High freq. dielectric constant tensor:
#      x y z
#    x 1.831090 0.000000 0.000000 
#    y 0.000000 1.831090 0.000000 
#    z 0.000000 0.000000 1.837840 
# 
# From -- ./inp_files/9727.got.cif
#   From: 2010.03.12/outbox.cif.g09.slc.cpg/sg136_5_cif.got.tgz:9727.got - 2010.04.06 18:39:43.
