data_PCOD8318886
_publ_section_title
;
Structure prediction by ZEFSAII (Michael W. Deem and Ramdas Pophale) SiO2 
 PCOD8318886
Probable space group: P 42/N C M
;
_chemical_formula_sum "Si O2"
_cell_formula_units_Z 112
_cell_length_a 26.909587
_cell_length_b 26.909587
_cell_length_c 11.555081
_cell_angle_alpha 90.000000
_cell_angle_beta 90.000000
_cell_angle_gamma 90.000000
_cell_volume 8367.333111
_symmetry_space_group_name_H-M "P 42/N C M"
_symmetry_group_IT_number 138
_space_group.IT_coordinate_system_code '2'
_symmetry_cell_setting 'tetragonal'
loop_
_space_group_symop_operation_xyz
x,y,z
1/2-y,x,1/2+z
1/2-x,1/2-y,z
y,1/2-x,1/2+z
1/2+x,-y,1/2-z
-x,1/2+y,1/2-z
1/2+y,1/2+x,-z
-y,-x,-z
-x,-y,-z
1/2+y,-x,1/2-z
1/2+x,1/2+y,-z
-y,1/2+x,1/2-z
1/2-x,y,1/2+z
x,1/2-y,1/2+z
1/2-y,1/2-x,z
y,x,z
loop_
_atom_site_type_symbol
_atom_site_label
_atom_site_fract_x
_atom_site_fract_y
_atom_site_fract_z
Si Si1 0.009334 0.406785 0.722164
Si Si2 0.129559 0.453920 0.497746
Si Si3 0.541089 0.875456 0.759888
Si Si4 0.842102 0.578150 0.150017
Si Si5 0.301466 0.381213 0.120218
Si Si6 0.894418 0.688917 0.913619
Si Si7 0.970374 0.054032 0.625086
O O1 0.959401 0.430920 0.773461
O O2 0.054108 0.445893 0.722670
O O3 0.003103 0.386857 0.589834
O O4 0.024444 0.360225 0.804110
O O5 0.086928 0.413073 0.493025
O O6 0.137472 0.477373 0.370366
O O7 0.179778 0.426896 0.540672
O O8 0.580033 0.919968 0.755386
O O9 0.566885 0.826701 0.813323
O O10 0.494645 0.893168 0.839363
O O11 0.891226 0.608775 0.117269
O O12 0.810196 0.606442 0.245938
O O13 0.810444 0.574126 0.032883
O O14 0.330699 0.330699 0.086486
O O15 0.243295 0.372411 0.105692
O O16 0.847500 0.652500 0.917635
O O17 0.943061 0.056940 0.500000
O O18 0.012091 0.012091 0.618663
#
# Coordination Sequence:
#
# PCOD8318886 Si02
#       7
#    16  16  16  16  16  16  16
#     4   8  13  23  39  53  69  93 113 132 162 211
#     4   8  15  27  39  51  69  90 113 144 182 221
#     4   9  17  26  36  54  75  91 109 140 182 225
#     4   8  15  28  40  52  66  85 114 143 179 227
#     4   9  18  30  42  51  64  88 120 157 196 240
#     4  10  19  28  40  53  68  89 115 154 200 241
#     4   9  15  22  35  55  76  95 113 132 160 210
#
# _framework density 13.385389
#
# number of rings (size 3 to 8) (size 9 to 14) (size 15 to 20)
#    0.000    3.286    0.000    2.571    2.000    4.286 
#    0.000    2.857    0.000    2.571    0.000    0.000 
#    0.000    0.000    0.000    0.000    0.000    0.000 
#
# Total GULP energy -1387717.110444 kJ/mol
# GULP energy per Si atom -12390.331343 kJ/mol
# Density = 1.335492 g / cm^3
# Si number density = 13.385389 Si / 1000 Ang^3
#
#
#
# Elastic Constant Matrix: (Units=GPa)
#
#
# Indices 1 2 3 4 5 6 
#
# 1 34.1963 32.5791 26.7046 0.0000 0.0000 0.0000
# 2 32.5791 34.1961 26.7046 0.0000 0.0000 0.0000
# 3 26.7046 26.7046 102.3921 0.0000 0.0000 0.0000
# 4 0.0000 0.0000 0.0000 11.5635 0.0000 0.0000
# 5 0.0000 0.0000 0.0000 0.0000 11.5635 0.0000
# 6 0.0000 0.0000 0.0000 0.0000 0.0000 13.1736
#
#
#
# Elastic Compliance Matrix: (Units=1/GPa)
#
#
# Indices 1 2 3 4 5 6 
#
# 1 0.318647 -0.299725 -0.004935 0.000000 0.000000 0.000000
# 2 -0.299725 0.318649 -0.004935 0.000000 0.000000 0.000000
# 3 -0.004935 -0.004935 0.012341 0.000000 0.000000 0.000000
# 4 0.000000 0.000000 0.000000 0.086479 0.000000 0.000000
# 5 0.000000 0.000000 0.000000 0.000000 0.086479 0.000000
# 6 0.000000 0.000000 0.000000 0.000000 0.000000 0.075909
#
#
# Mechanical properties :
#
#
# Convention : Reuss Voigt Hill
#
# Bulk Modulus (GPa) = 32.84541 38.08455 35.46498
# Shear Modulus (GPa) = 3.27258 12.91320 8.09289
#
# Velocity S-wave (km/s) = 1.56531 3.10937 2.46154
# Velocity P-wave (km/s) = 5.27811 6.43467 5.88487
#
# Compressibility (1/GPa) = 0.03044566
#
# Stress axis : x y z
#
# Youngs Moduli (GPa) = 3.13827 3.13825 81.03289
#
# Poissons Ratio (x) = 0.94061 0.39990
# Poissons Ratio (y) = 0.94062 0.39994
# Poissons Ratio (z) = 0.01549 0.01549
#
# Static dielectric constant tensor:
#      x y z
#    x 2.375330 0.000000 0.000000 
#    y 0.000000 2.375330 0.000000 
#    z 0.000000 0.000000 3.053160 
# 
# 
# High freq. dielectric constant tensor:
#      x y z
#    x 1.461360 0.000000 0.000000 
#    y 0.000000 1.461360 0.000000 
#    z 0.000000 0.000000 1.532400 
# 
# From -- ./inp_files/3297.got.cif
#   From: 2010.03.12/outbox.cif.g09.slc.cpg/sg138_2_cif.got.tgz:3297.got - 2010.04.08 09:41:05.
