data_PCOD8318858
_publ_section_title
;
Structure prediction by ZEFSAII (Michael W. Deem and Ramdas Pophale) SiO2 
 PCOD8318858
Probable space group: P 42/N C M
;
_chemical_formula_sum "Si O2"
_cell_formula_units_Z 96
_cell_length_a 15.146211
_cell_length_b 15.146211
_cell_length_c 23.651594
_cell_angle_alpha 90.000000
_cell_angle_beta 90.000000
_cell_angle_gamma 90.000000
_cell_volume 5425.857962
_symmetry_space_group_name_H-M "P 42/N C M"
_symmetry_group_IT_number 138
_space_group.IT_coordinate_system_code '2'
_symmetry_cell_setting 'tetragonal'
loop_
_space_group_symop_operation_xyz
x,y,z
1/2-y,x,1/2+z
1/2-x,1/2-y,z
y,1/2-x,1/2+z
1/2+x,-y,1/2-z
-x,1/2+y,1/2-z
1/2+y,1/2+x,-z
-y,-x,-z
-x,-y,-z
1/2+y,-x,1/2-z
1/2+x,1/2+y,-z
-y,1/2+x,1/2-z
1/2-x,y,1/2+z
x,1/2-y,1/2+z
1/2-y,1/2-x,z
y,x,z
loop_
_atom_site_type_symbol
_atom_site_label
_atom_site_fract_x
_atom_site_fract_y
_atom_site_fract_z
Si Si1 0.324379 0.324379 0.274570
Si Si2 0.939445 0.708024 0.925467
Si Si3 0.724979 0.993972 0.155255
Si Si4 0.383641 0.798816 0.744329
Si Si5 0.952062 0.097161 0.652836
Si Si6 0.250766 0.104590 0.954603
Si Si7 0.175748 0.324253 0.645439
O O1 0.250000 0.250000 0.282423
O O2 0.291623 0.414065 0.302356
O O3 0.346888 0.346888 0.209972
O O4 0.856865 0.643136 0.927324
O O5 0.912788 0.790468 0.885700
O O6 0.026179 0.660180 0.900627
O O7 0.956676 0.738791 0.989838
O O8 0.790816 0.062595 0.185732
O O9 0.634835 0.042587 0.137917
O O10 0.769910 0.959129 0.098020
O O11 0.357280 0.702538 0.767974
O O12 0.443778 0.844368 0.791230
O O13 0.033099 0.033099 0.665215
O O14 0.339350 0.160651 0.940957
O O15 0.169471 0.169471 0.965292
O O16 0.250000 0.250000 0.644086
#
# Coordination Sequence:
#
# PCOD8318858 Si02
#       7
#     8  16  16  16  16  16   8
#     4  11  20  30  48  77 112 137 171 216 271 329
#     4   9  17  29  47  71  99 139 173 213 260 313
#     4  11  20  32  48  77 109 138 171 220 273 316
#     4   9  20  37  56  75 104 145 182 215 262 330
#     4  10  19  33  52  77 107 130 174 226 270 312
#     4  10  18  30  48  72 109 143 176 214 267 328
#     4   9  16  28  44  68  94 130 179 211 249 312
#
# _framework density 17.693055000000001
#
# number of rings (size 3 to 8) (size 9 to 14) (size 15 to 20)
#    0.000    2.167    2.500    1.500    0.000    3.333 
#    0.000    2.500    0.000    1.000    0.000    5.833 
#    0.000    0.000    0.000    0.000    0.000    0.000 
#
# Total GULP energy -1190427.060687 kJ/mol
# GULP energy per Si atom -12400.281882 kJ/mol
# Density = 1.765278 g / cm^3
# Si number density = 17.693055 Si / 1000 Ang^3
#
#
#
# Elastic Constant Matrix: (Units=GPa)
#
#
# Indices 1 2 3 4 5 6 
#
# 1 49.2537 23.4892 31.5465 0.0000 0.0000 0.0000
# 2 23.4892 49.2537 31.5465 0.0000 0.0000 0.0000
# 3 31.5465 31.5465 122.4083 0.0000 0.0000 0.0000
# 4 0.0000 0.0000 0.0000 18.9328 0.0000 0.0000
# 5 0.0000 0.0000 0.0000 0.0000 18.9328 0.0000
# 6 0.0000 0.0000 0.0000 0.0000 0.0000 22.9220
#
#
#
# Elastic Compliance Matrix: (Units=1/GPa)
#
#
# Indices 1 2 3 4 5 6 
#
# 1 0.028259 -0.010554 -0.004563 0.000000 0.000000 0.000000
# 2 -0.010554 0.028259 -0.004563 0.000000 0.000000 0.000000
# 3 -0.004563 -0.004563 0.010521 0.000000 0.000000 0.000000
# 4 0.000000 0.000000 0.000000 0.052818 0.000000 0.000000
# 5 0.000000 0.000000 0.000000 0.000000 0.052818 0.000000
# 6 0.000000 0.000000 0.000000 0.000000 0.000000 0.043626
#
#
# Mechanical properties :
#
#
# Convention : Reuss Voigt Hill
#
# Bulk Modulus (GPa) = 36.12817 43.78667 39.95742
# Shear Modulus (GPa) = 18.87592 21.11308 19.99450
#
# Velocity S-wave (km/s) = 3.26982 3.45816 3.36531
# Velocity P-wave (km/s) = 5.89231 6.38333 6.14273
#
# Compressibility (1/GPa) = 0.02767923
#
# Stress axis : x y z
#
# Youngs Moduli (GPa) = 35.38725 35.38725 95.04677
#
# Poissons Ratio (x) = 0.37349 0.43367
# Poissons Ratio (y) = 0.37349 0.43367
# Poissons Ratio (z) = 0.16146 0.16146
#
# Static dielectric constant tensor:
#      x y z
#    x 3.205570 0.000000 0.000000 
#    y 0.000000 3.205570 0.000000 
#    z 0.000000 0.000000 3.400150 
# 
# 
# High freq. dielectric constant tensor:
#      x y z
#    x 1.667310 0.000000 0.000000 
#    y 0.000000 1.667310 0.000000 
#    z 0.000000 0.000000 1.689670 
# 
# From -- ./inp_files/7535.got.cif
#   From: 2010.03.12/outbox.cif.g09.slc.cpg/sg138_4_cif.got.tgz:7535.got - 2010.04.08 09:41:05.
