data_PCOD8318922
_publ_section_title
;
Structure prediction by ZEFSAII (Michael W. Deem and Ramdas Pophale) SiO2 
 PCOD8318922
Probable space group: P 42/N C M
;
_chemical_formula_sum "Si O2"
_cell_formula_units_Z 72
_cell_length_a 20.776043
_cell_length_b 20.776043
_cell_length_c 10.044866
_cell_angle_alpha 90.000000
_cell_angle_beta 90.000000
_cell_angle_gamma 90.000000
_cell_volume 4335.805765
_symmetry_space_group_name_H-M "P 42/N C M"
_symmetry_group_IT_number 138
_space_group.IT_coordinate_system_code '2'
_symmetry_cell_setting 'tetragonal'
loop_
_space_group_symop_operation_xyz
x,y,z
1/2-y,x,1/2+z
1/2-x,1/2-y,z
y,1/2-x,1/2+z
1/2+x,-y,1/2-z
-x,1/2+y,1/2-z
1/2+y,1/2+x,-z
-y,-x,-z
-x,-y,-z
1/2+y,-x,1/2-z
1/2+x,1/2+y,-z
-y,1/2+x,1/2-z
1/2-x,y,1/2+z
x,1/2-y,1/2+z
1/2-y,1/2-x,z
y,x,z
loop_
_atom_site_type_symbol
_atom_site_label
_atom_site_fract_x
_atom_site_fract_y
_atom_site_fract_z
Si Si1 0.353660 0.853660 0.000000
Si Si2 0.437852 0.744099 0.074138
Si Si3 0.534813 0.965188 0.671582
Si Si4 0.928735 0.928735 0.894473
Si Si5 0.617939 0.075959 0.739617
Si Si6 0.179937 0.985351 0.183396
O O1 0.281713 0.869034 0.946670
O O2 0.407066 0.863985 0.888515
O O3 0.420177 0.678072 0.142664
O O4 0.484028 0.785569 0.172501
O O5 0.474502 0.732039 0.934464
O O6 0.572384 0.927617 0.554425
O O7 0.496329 0.910507 0.752353
O O8 0.482134 0.017867 0.633397
O O9 0.947286 0.858377 0.835802
O O10 0.569889 0.126519 0.672722
#
# Coordination Sequence:
#
# PCOD8318922 Si02
#       6
#     8  16   8   8  16  16
#     4  10  22  33  47  72 102 138 168 206 259 289
#     4  11  19  34  51  71  99 138 167 208 247 296
#     4   9  16  27  52  74  96 126 169 204 264 310
#     4   9  16  30  48  78  92 129 168 213 253 305
#     4  10  19  33  51  73 100 134 171 214 255 303
#     4  10  20  32  54  70 104 130 172 210 257 295
#
# _framework density 16.605910000000002
#
# number of rings (size 3 to 8) (size 9 to 14) (size 15 to 20)
#    0.000    2.000    4.444    0.667    0.000    0.444 
#    0.000    3.333    0.000    0.000    0.000    0.000 
#    0.000    7.111    0.000    0.000    0.000    0.000 
#
# Total GULP energy -892167.687039 kJ/mol
# GULP energy per Si atom -12391.217876 kJ/mol
# Density = 1.656811 g / cm^3
# Si number density = 16.605910 Si / 1000 Ang^3
#
#
#
# Elastic Constant Matrix: (Units=GPa)
#
#
# Indices 1 2 3 4 5 6 
#
# 1 56.6514 58.4646 22.8314 0.0000 0.0000 0.0000
# 2 58.4646 56.6514 22.8314 0.0000 0.0000 0.0000
# 3 22.8314 22.8314 70.7906 0.0000 0.0000 0.0000
# 4 0.0000 0.0000 0.0000 20.7885 0.0000 0.0000
# 5 0.0000 0.0000 0.0000 0.0000 20.7885 0.0000
# 6 0.0000 0.0000 0.0000 0.0000 0.0000 25.4194
#
#
#
# Elastic Compliance Matrix: (Units=1/GPa)
#
#
# Indices 1 2 3 4 5 6 
#
# 1 -0.270776 0.280738 -0.003213 0.000000 0.000000 0.000000
# 2 0.280738 -0.270776 -0.003213 0.000000 0.000000 0.000000
# 3 -0.003213 -0.003213 0.016198 0.000000 0.000000 0.000000
# 4 0.000000 0.000000 0.000000 0.048104 0.000000 0.000000
# 5 0.000000 0.000000 0.000000 0.000000 0.048104 0.000000
# 6 0.000000 0.000000 0.000000 0.000000 0.000000 0.039340
#
#
# Mechanical properties :
#
#
# Convention : Reuss Voigt Hill
#
# Bulk Modulus (GPa) = 42.97342 43.59424 43.28383
# Shear Modulus (GPa) = -5.37244 18.73036 6.67896
#
# Velocity S-wave (km/s) = -1.80063 3.36212 2.00768
# Velocity P-wave (km/s) = 4.64882 6.43281 5.61215
#
# Compressibility (1/GPa) = 0.02327020
#
# Stress axis : x y z
#
# Youngs Moduli (GPa) = -3.69308 -3.69308 61.73415
#
# Poissons Ratio (x) = 1.03679 0.19833
# Poissons Ratio (y) = 1.03679 0.19833
# Poissons Ratio (z) = -0.01186 -0.01186
#
# Static dielectric constant tensor:
#      x y z
#    x 3.137500 0.000000 0.000000 
#    y 0.000000 3.137500 0.000000 
#    z 0.000000 0.000000 3.398930 
# 
# 
# High freq. dielectric constant tensor:
#      x y z
#    x 1.614610 0.000000 0.000000 
#    y 0.000000 1.614610 0.000000 
#    z 0.000000 0.000000 1.650660 
# 
# From -- ./inp_files/1614.got.cif
#   From: 2010.03.12/outbox.cif.g09.slc.cpg/sg138_1_cif.got.tgz:1614.got - 2010.04.08 09:41:05.
