data_PCOD8318881
_publ_section_title
;
Structure prediction by ZEFSAII (Michael W. Deem and Ramdas Pophale) SiO2 
 PCOD8318881
Probable space group: P 42/N C M
;
_chemical_formula_sum "Si O2"
_cell_formula_units_Z 72
_cell_length_a 14.377496
_cell_length_b 14.377496
_cell_length_c 17.768357
_cell_angle_alpha 90.000000
_cell_angle_beta 90.000000
_cell_angle_gamma 90.000000
_cell_volume 3672.939564
_symmetry_space_group_name_H-M "P 42/N C M"
_symmetry_group_IT_number 138
_space_group.IT_coordinate_system_code '2'
_symmetry_cell_setting 'tetragonal'
loop_
_space_group_symop_operation_xyz
x,y,z
1/2-y,x,1/2+z
1/2-x,1/2-y,z
y,1/2-x,1/2+z
1/2+x,-y,1/2-z
-x,1/2+y,1/2-z
1/2+y,1/2+x,-z
-y,-x,-z
-x,-y,-z
1/2+y,-x,1/2-z
1/2+x,1/2+y,-z
-y,1/2+x,1/2-z
1/2-x,y,1/2+z
x,1/2-y,1/2+z
1/2-y,1/2-x,z
y,x,z
loop_
_atom_site_type_symbol
_atom_site_label
_atom_site_fract_x
_atom_site_fract_y
_atom_site_fract_z
Si Si1 0.178557 0.321444 0.324978
Si Si2 0.480391 0.019610 0.913072
Si Si3 0.884412 0.615589 0.827205
Si Si4 0.231741 0.020226 0.418250
Si Si5 0.789378 0.943421 0.916169
Si Si6 0.563792 0.417810 0.911490
O O1 0.250000 0.250000 0.284003
O O2 0.120079 0.379922 0.263251
O O3 0.240345 0.385342 0.378435
O O4 0.506219 0.127002 0.895186
O O5 0.540908 0.959093 0.855605
O O6 0.500000 0.000000 0.000000
O O7 0.781820 0.589674 0.853918
O O8 0.233263 0.032599 0.508304
O O9 0.307529 0.941479 0.392782
O O10 0.864496 0.864496 0.935498
O O11 0.842478 0.033550 0.880223
O O12 0.470077 0.470077 0.881206
O O13 0.567352 0.432649 0.000000
#
# Coordination Sequence:
#
# PCOD8318881 Si02
#       6
#     8   8   8  16  16  16
#     4  12  24  40  61  95 120 155 210 266 323 383
#     4  12  24  40  64  90 126 172 215 264 325 365
#     4  12  26  41  54  92 133 158 207 271 312 377
#     4  11  19  37  64  90 123 161 211 251 312 384
#     4  10  18  34  64  92 123 160 201 263 317 358
#     4   8  15  29  55  93 120 149 200 252 302 358
#
# _framework density 19.602827999999999
#
# number of rings (size 3 to 8) (size 9 to 14) (size 15 to 20)
#    0.000    1.556    5.556    2.333    0.000    0.000 
#    4.000    1.111    0.000    0.000    0.000    0.000 
#    0.000    0.000    0.000    0.000    0.000    0.000 
#
# Total GULP energy -892344.793661 kJ/mol
# GULP energy per Si atom -12393.677690 kJ/mol
# Density = 1.955821 g / cm^3
# Si number density = 19.602828 Si / 1000 Ang^3
#
#
#
# Elastic Constant Matrix: (Units=GPa)
#
#
# Indices 1 2 3 4 5 6 
#
# 1 98.3046 69.7537 15.4517 0.0000 0.0000 0.0000
# 2 69.7537 98.3047 15.4518 0.0000 0.0000 0.0000
# 3 15.4517 15.4518 49.7425 0.0000 0.0000 0.0000
# 4 0.0000 0.0000 0.0000 13.4639 0.0000 0.0000
# 5 0.0000 0.0000 0.0000 0.0000 13.4640 0.0000
# 6 0.0000 0.0000 0.0000 0.0000 0.0000 41.6087
#
#
#
# Elastic Compliance Matrix: (Units=1/GPa)
#
#
# Indices 1 2 3 4 5 6 
#
# 1 0.020668 -0.014357 -0.001960 0.000000 0.000000 0.000000
# 2 -0.014357 0.020668 -0.001960 0.000000 0.000000 0.000000
# 3 -0.001960 -0.001960 0.021321 0.000000 0.000000 0.000000
# 4 0.000000 0.000000 0.000000 0.074273 0.000000 0.000000
# 5 0.000000 0.000000 0.000000 0.000000 0.074272 0.000000
# 6 0.000000 0.000000 0.000000 0.000000 0.000000 0.024033
#
#
# Mechanical properties :
#
#
# Convention : Reuss Voigt Hill
#
# Bulk Modulus (GPa) = 38.31180 49.74070 44.02625
# Shear Modulus (GPa) = 17.82584 23.42029 20.62307
#
# Velocity S-wave (km/s) = 3.01882 3.46025 3.24704
# Velocity P-wave (km/s) = 5.63360 6.43380 6.04695
#
# Compressibility (1/GPa) = 0.02610162
#
# Stress axis : x y z
#
# Youngs Moduli (GPa) = 48.38407 48.38407 46.90113
#
# Poissons Ratio (x) = 0.69466 0.09194
# Poissons Ratio (y) = 0.69466 0.09194
# Poissons Ratio (z) = 0.09485 0.09485
#
# Static dielectric constant tensor:
#      x y z
#    x 3.922830 0.000000 0.000000 
#    y 0.000000 3.922820 0.000000 
#    z 0.000000 0.000000 3.147700 
# 
# 
# High freq. dielectric constant tensor:
#      x y z
#    x 1.762780 0.000000 0.000000 
#    y 0.000000 1.762780 0.000000 
#    z 0.000000 0.000000 1.728920 
# 
# From -- ./inp_files/5053.got.cif
#   From: 2010.03.12/outbox.cif.g09.slc.cpg/sg138_3_cif.got.tgz:5053.got - 2010.04.08 09:41:05.
