data_PCOD8318541
_publ_section_title
;
Structure prediction by ZEFSAII (Michael W. Deem and Ramdas Pophale) SiO2 
 PCOD8318541
Probable space group: P 42/N M C
;
_chemical_formula_sum "Si O2"
_cell_formula_units_Z 96
_cell_length_a 18.266043
_cell_length_b 18.266043
_cell_length_c 16.238770
_cell_angle_alpha 90.000000
_cell_angle_beta 90.000000
_cell_angle_gamma 90.000000
_cell_volume 5418.038441
_symmetry_space_group_name_H-M "P 42/N M C"
_symmetry_group_IT_number 137
_space_group.IT_coordinate_system_code '2'
_symmetry_cell_setting 'tetragonal'
loop_
_space_group_symop_operation_xyz
x,y,z
1/2-y,x,1/2+z
1/2-x,1/2-y,z
y,1/2-x,1/2+z
1/2+x,-y,-z
-x,1/2+y,-z
1/2+y,1/2+x,1/2-z
-y,-x,1/2-z
-x,-y,-z
1/2+y,-x,1/2-z
1/2+x,1/2+y,-z
-y,1/2+x,1/2-z
1/2-x,y,z
x,1/2-y,z
1/2-y,1/2-x,1/2+z
y,x,1/2+z
loop_
_atom_site_type_symbol
_atom_site_label
_atom_site_fract_x
_atom_site_fract_y
_atom_site_fract_z
Si Si1 0.168607 0.034462 0.591571
Si Si2 0.165311 0.939922 0.002925
Si Si3 0.484553 0.407400 0.779344
Si Si4 0.059814 0.579457 0.663778
Si Si5 0.669676 0.448499 0.572950
Si Si6 0.165271 0.077499 0.117315
O O1 0.250000 0.022371 0.631129
O O2 0.149929 0.120675 0.591407
O O3 0.102171 0.994082 0.637767
O O4 0.168917 0.006322 0.499729
O O5 0.250000 0.917313 0.005413
O O6 0.120005 0.882643 0.056663
O O7 0.151884 0.017981 0.045273
O O8 0.140589 0.937895 0.907043
O O9 0.562582 0.437419 0.750000
O O10 0.436915 0.475134 0.815069
O O11 0.501631 0.350308 0.850159
O O12 0.446600 0.363066 0.706497
O O13 0.101318 0.601318 0.750000
O O14 0.750000 0.414591 0.585868
O O15 0.250000 0.098230 0.123865
#
# Coordination Sequence:
#
# PCOD8318541 Si02
#       6
#    16  16  16  16  16  16
#     4  10  20  35  54  77 104 141 184 221 265 321
#     4  10  21  35  54  80 109 141 182 226 269 318
#     4  11  18  33  56  82 108 136 177 227 268 319
#     4  10  19  35  56  79 105 140 180 230 270 311
#     4  10  20  34  55  78 107 144 179 218 268 325
#     4  11  21  35  55  82 112 144 178 221 275 327
#
# _framework density 17.718589000000001
#
# number of rings (size 3 to 8) (size 9 to 14) (size 15 to 20)
#    0.000    1.667    5.000    1.500    0.000    4.000 
#    0.000    0.000    0.000    0.000    0.000    4.667 
#    0.000    0.000    0.000    0.000    0.000    0.000 
#
# Total GULP energy -1189642.380752 kJ/mol
# GULP energy per Si atom -12392.108133 kJ/mol
# Density = 1.767826 g / cm^3
# Si number density = 17.718589 Si / 1000 Ang^3
#
#
#
# Elastic Constant Matrix: (Units=GPa)
#
#
# Indices 1 2 3 4 5 6 
#
# 1 83.4683 36.0868 23.6463 0.0000 0.0000 0.0000
# 2 36.0868 83.4688 23.6466 0.0000 0.0000 0.0000
# 3 23.6463 23.6466 81.0249 0.0000 0.0000 0.0000
# 4 0.0000 0.0000 0.0000 20.7656 0.0000 0.0000
# 5 0.0000 0.0000 0.0000 0.0000 20.7654 0.0000
# 6 0.0000 0.0000 0.0000 0.0000 0.0000 16.9692
#
#
#
# Elastic Compliance Matrix: (Units=1/GPa)
#
#
# Indices 1 2 3 4 5 6 
#
# 1 0.015281 -0.005825 -0.002760 0.000000 0.000000 0.000000
# 2 -0.005825 0.015281 -0.002760 0.000000 0.000000 0.000000
# 3 -0.002760 -0.002760 0.013953 0.000000 0.000000 0.000000
# 4 0.000000 0.000000 0.000000 0.048157 0.000000 0.000000
# 5 0.000000 0.000000 0.000000 0.000000 0.048157 0.000000
# 6 0.000000 0.000000 0.000000 0.000000 0.000000 0.058930
#
#
# Mechanical properties :
#
#
# Convention : Reuss Voigt Hill
#
# Bulk Modulus (GPa) = 45.81691 46.08015 45.94853
# Shear Modulus (GPa) = 21.76556 22.67220 22.21888
#
# Velocity S-wave (km/s) = 3.50866 3.58099 3.54501
# Velocity P-wave (km/s) = 6.50604 6.56971 6.53795
#
# Compressibility (1/GPa) = 0.02182600
#
# Stress axis : x y z
#
# Youngs Moduli (GPa) = 65.44249 65.44276 71.67095
#
# Poissons Ratio (x) = 0.38118 0.19778
# Poissons Ratio (y) = 0.38118 0.19779
# Poissons Ratio (z) = 0.18060 0.18060
#
# Static dielectric constant tensor:
#      x y z
#    x 3.357650 0.000000 0.000000 
#    y 0.000000 3.357650 0.000000 
#    z 0.000000 0.000000 3.546690 
# 
# 
# High freq. dielectric constant tensor:
#      x y z
#    x 1.675460 0.000000 0.000000 
#    y 0.000000 1.675460 0.000000 
#    z 0.000000 0.000000 1.700680 
# 
# From -- ./inp_files/6459.got.cif
#   From: 2010.03.12/outbox.cif.g09.slc.cpg/sg137_4_cif.got.tgz:6459.got - 2010.04.08 09:34:49.
