data_PCOD8318976
_publ_section_title
;
Structure prediction by ZEFSAII (Michael W. Deem and Ramdas Pophale) SiO2 
 PCOD8318976
Probable space group: P 42/N C M
;
_chemical_formula_sum "Si O2"
_cell_formula_units_Z 96
_cell_length_a 15.512215
_cell_length_b 15.512215
_cell_length_c 22.754172
_cell_angle_alpha 90.000000
_cell_angle_beta 90.000000
_cell_angle_gamma 90.000000
_cell_volume 5475.309427
_symmetry_space_group_name_H-M "P 42/N C M"
_symmetry_group_IT_number 138
_space_group.IT_coordinate_system_code '2'
_symmetry_cell_setting 'tetragonal'
loop_
_space_group_symop_operation_xyz
x,y,z
1/2-y,x,1/2+z
1/2-x,1/2-y,z
y,1/2-x,1/2+z
1/2+x,-y,1/2-z
-x,1/2+y,1/2-z
1/2+y,1/2+x,-z
-y,-x,-z
-x,-y,-z
1/2+y,-x,1/2-z
1/2+x,1/2+y,-z
-y,1/2+x,1/2-z
1/2-x,y,1/2+z
x,1/2-y,1/2+z
1/2-y,1/2-x,z
y,x,z
loop_
_atom_site_type_symbol
_atom_site_label
_atom_site_fract_x
_atom_site_fract_y
_atom_site_fract_z
Si Si1 0.537271 0.962730 0.561675
Si Si2 0.188006 0.895473 0.449936
Si Si3 0.071364 0.707945 0.869959
Si Si4 0.179590 0.179590 0.971948
Si Si5 0.310297 0.054006 0.030908
Si Si6 0.104177 0.644317 0.620896
Si Si7 0.797034 0.383132 0.745653
O O1 0.613075 0.886925 0.562582
O O2 0.454424 0.933073 0.598621
O O3 0.500000 0.000000 0.500000
O O4 0.178557 0.821444 0.500000
O O5 0.125288 0.873099 0.395679
O O6 0.284534 0.904754 0.428974
O O7 0.164964 0.986181 0.480243
O O8 0.126565 0.794786 0.874344
O O9 0.051246 0.691532 0.800928
O O10 0.985839 0.721595 0.907674
O O11 0.250000 0.250000 0.940662
O O12 0.235315 0.117638 0.011921
O O13 0.397789 0.102211 0.045235
O O14 0.070809 0.673723 0.685382
O O15 0.855759 0.301584 0.762010
#
# Coordination Sequence:
#
# PCOD8318976 Si02
#       7
#     8  16  16   8  16  16  16
#     4  12  24  36  56  86 118 148 185 250 285 327
#     4  10  20  31  54  81 110 137 176 222 278 330
#     4  10  20  33  54  79 110 143 171 225 277 336
#     4  10  20  38  58  78 108 152 190 220 280 343
#     4  10  21  36  54  80 106 144 185 228 272 326
#     4  11  21  35  53  81 114 141 186 225 278 334
#     4   9  17  33  54  77 106 143 180 219 272 338
#
# _framework density 17.533256000000002
#
# number of rings (size 3 to 8) (size 9 to 14) (size 15 to 20)
#    0.000    1.833    3.333    1.500    2.333    5.000 
#    1.500    0.000    0.000    0.000   13.000    0.000 
#    0.000    0.000    0.000    0.000    0.000    0.000 
#
# Total GULP energy -1189263.578091 kJ/mol
# GULP energy per Si atom -12388.162272 kJ/mol
# Density = 1.749335 g / cm^3
# Si number density = 17.533256 Si / 1000 Ang^3
#
#
#
# Elastic Constant Matrix: (Units=GPa)
#
#
# Indices 1 2 3 4 5 6 
#
# 1 51.9029 15.6628 25.5365 0.0000 0.0000 0.0000
# 2 15.6628 51.9043 25.5367 0.0000 0.0000 0.0000
# 3 25.5365 25.5367 109.8919 0.0000 0.0000 0.0000
# 4 0.0000 0.0000 0.0000 19.6363 0.0000 0.0000
# 5 0.0000 0.0000 0.0000 0.0000 19.6361 0.0000
# 6 0.0000 0.0000 0.0000 0.0000 0.0000 35.4127
#
#
#
# Elastic Compliance Matrix: (Units=1/GPa)
#
#
# Indices 1 2 3 4 5 6 
#
# 1 0.022774 -0.004820 -0.004172 0.000000 0.000000 0.000000
# 2 -0.004820 0.022773 -0.004172 0.000000 0.000000 0.000000
# 3 -0.004172 -0.004172 0.011039 0.000000 0.000000 0.000000
# 4 0.000000 0.000000 0.000000 0.050926 0.000000 0.000000
# 5 0.000000 0.000000 0.000000 0.000000 0.050927 0.000000
# 6 0.000000 0.000000 0.000000 0.000000 0.000000 0.028238
#
#
# Mechanical properties :
#
#
# Convention : Reuss Voigt Hill
#
# Bulk Modulus (GPa) = 33.04878 38.57455 35.81167
# Shear Modulus (GPa) = 22.41237 24.73456 23.57346
#
# Velocity S-wave (km/s) = 3.57918 3.76003 3.67072
# Velocity P-wave (km/s) = 5.99757 6.39523 6.19959
#
# Compressibility (1/GPa) = 0.03025830
#
# Stress axis : x y z
#
# Youngs Moduli (GPa) = 43.90990 43.91117 90.58886
#
# Poissons Ratio (x) = 0.21163 0.37795
# Poissons Ratio (y) = 0.21163 0.37794
# Poissons Ratio (z) = 0.18320 0.18320
#
# Static dielectric constant tensor:
#      x y z
#    x 3.349650 0.000000 0.000000 
#    y 0.000000 3.349650 0.000000 
#    z 0.000000 0.000000 3.488210 
# 
# 
# High freq. dielectric constant tensor:
#      x y z
#    x 1.667400 0.000000 0.000000 
#    y 0.000000 1.667400 0.000000 
#    z 0.000000 0.000000 1.677370 
# 
# From -- ./inp_files/7002.got.cif
#   From: 2010.03.12/outbox.cif.g09.slc.cpg/sg138_4_cif.got.tgz:7002.got - 2010.04.08 09:41:05.
