data_PCOD8318529
_publ_section_title
;
Structure prediction by ZEFSAII (Michael W. Deem and Ramdas Pophale) SiO2 
 PCOD8318529
Probable space group: P 42/N M C
;
_chemical_formula_sum "Si O2"
_cell_formula_units_Z 112
_cell_length_a 15.399036
_cell_length_b 15.399036
_cell_length_c 23.885035
_cell_angle_alpha 90.000000
_cell_angle_beta 90.000000
_cell_angle_gamma 90.000000
_cell_volume 5663.865747
_symmetry_space_group_name_H-M "P 42/N M C"
_symmetry_group_IT_number 137
_space_group.IT_coordinate_system_code '2'
_symmetry_cell_setting 'tetragonal'
loop_
_space_group_symop_operation_xyz
x,y,z
1/2-y,x,1/2+z
1/2-x,1/2-y,z
y,1/2-x,1/2+z
1/2+x,-y,-z
-x,1/2+y,-z
1/2+y,1/2+x,1/2-z
-y,-x,1/2-z
-x,-y,-z
1/2+y,-x,1/2-z
1/2+x,1/2+y,-z
-y,1/2+x,1/2-z
1/2-x,y,z
x,1/2-y,z
1/2-y,1/2-x,1/2+z
y,x,1/2+z
loop_
_atom_site_type_symbol
_atom_site_label
_atom_site_fract_x
_atom_site_fract_y
_atom_site_fract_z
Si Si1 0.475626 0.651805 0.885671
Si Si2 0.343485 0.409778 0.971991
Si Si3 0.850842 0.652766 0.216492
Si Si4 0.848151 0.595881 0.838599
Si Si5 0.022942 0.845709 0.013083
Si Si6 0.348136 0.507190 0.861104
Si Si7 0.844481 0.036193 0.927793
O O1 0.439623 0.750000 0.880162
O O2 0.575221 0.654064 0.864893
O O3 0.471004 0.618638 0.949871
O O4 0.414395 0.587013 0.849317
O O5 0.250000 0.361508 0.963910
O O6 0.351117 0.486460 0.926738
O O7 0.423015 0.343518 0.966418
O O8 0.347464 0.452051 0.032949
O O9 0.750000 0.642801 0.233295
O O10 0.867420 0.750000 0.191629
O O11 0.908562 0.638864 0.271916
O O12 0.878146 0.579465 0.171955
O O13 0.750000 0.632356 0.851962
O O14 0.857631 0.498838 0.864451
O O15 0.061395 0.750000 0.015548
O O16 0.077993 0.900580 0.056878
O O17 0.250000 0.534643 0.843365
O O18 0.750000 0.082508 0.933598
#
# Coordination Sequence:
#
# PCOD8318529 Si02
#       7
#    16  16  16  16  16  16  16
#     4  11  22  34  53  83 118 156 196 231 274 334
#     4  10  19  34  55  79 109 146 185 229 286 340
#     4   9  19  37  60  84 109 139 181 234 289 341
#     4  10  20  36  59  82 105 138 183 238 291 336
#     4  11  22  34  51  79 117 155 189 230 276 337
#     4  10  21  37  58  81 114 156 192 232 279 334
#     4  10  19  34  56  80 108 145 186 230 283 336
#
# _framework density 19.774478999999999
#
# number of rings (size 3 to 8) (size 9 to 14) (size 15 to 20)
#    0.000    1.857    2.857    1.714    0.000    2.857 
#    0.000    4.286    0.000    0.000    0.000    2.000 
#    0.000    1.143    0.000    0.286    0.000    0.143 
#
# Total GULP energy -1387978.845879 kJ/mol
# GULP energy per Si atom -12392.668267 kJ/mol
# Density = 1.972947 g / cm^3
# Si number density = 19.774479 Si / 1000 Ang^3
#
#
#
# Elastic Constant Matrix: (Units=GPa)
#
#
# Indices 1 2 3 4 5 6 
#
# 1 108.5200 68.0282 41.1811 0.0000 0.0000 0.0000
# 2 68.0282 108.5200 41.1811 0.0000 0.0000 0.0000
# 3 41.1811 41.1811 64.8739 0.0000 0.0000 0.0000
# 4 0.0000 0.0000 0.0000 27.4582 0.0000 0.0000
# 5 0.0000 0.0000 0.0000 0.0000 27.4582 0.0000
# 6 0.0000 0.0000 0.0000 0.0000 0.0000 14.8178
#
#
#
# Elastic Compliance Matrix: (Units=1/GPa)
#
#
# Indices 1 2 3 4 5 6 
#
# 1 0.016372 -0.008325 -0.005108 0.000000 0.000000 0.000000
# 2 -0.008325 0.016372 -0.005108 0.000000 0.000000 0.000000
# 3 -0.005108 -0.005108 0.021900 0.000000 0.000000 0.000000
# 4 0.000000 0.000000 0.000000 0.036419 0.000000 0.000000
# 5 0.000000 0.000000 0.000000 0.000000 0.036419 0.000000
# 6 0.000000 0.000000 0.000000 0.000000 0.000000 0.067486
#
#
# Mechanical properties :
#
#
# Convention : Reuss Voigt Hill
#
# Bulk Modulus (GPa) = 56.94364 64.74383 60.84374
# Shear Modulus (GPa) = 21.01690 22.71507 21.86599
#
# Velocity S-wave (km/s) = 3.26364 3.39293 3.32892
# Velocity P-wave (km/s) = 6.56208 6.93985 6.75361
#
# Compressibility (1/GPa) = 0.01756122
#
# Stress axis : x y z
#
# Youngs Moduli (GPa) = 61.08062 61.08062 45.66235
#
# Poissons Ratio (x) = 0.50847 0.23326
# Poissons Ratio (y) = 0.50847 0.23326
# Poissons Ratio (z) = 0.31202 0.31202
#
# Static dielectric constant tensor:
#      x y z
#    x 3.516850 0.000000 0.000000 
#    y 0.000000 3.516850 0.000000 
#    z 0.000000 0.000000 3.471070 
# 
# 
# High freq. dielectric constant tensor:
#      x y z
#    x 1.758840 0.000000 0.000000 
#    y 0.000000 1.758840 0.000000 
#    z 0.000000 0.000000 1.756000 
# 
# From -- ./inp_files/8951.got.cif
#   From: 2010.03.12/outbox.cif.g09.slc.cpg/sg137_5_cif.got.tgz:8951.got - 2010.04.08 09:34:49.
