data_PCOD8318925
_publ_section_title
;
Structure prediction by ZEFSAII (Michael W. Deem and Ramdas Pophale) SiO2 
 PCOD8318925
Probable space group: P 42/N C M
;
_chemical_formula_sum "Si O2"
_cell_formula_units_Z 96
_cell_length_a 17.031535
_cell_length_b 17.031535
_cell_length_c 17.243604
_cell_angle_alpha 90.000000
_cell_angle_beta 90.000000
_cell_angle_gamma 90.000000
_cell_volume 5001.907124
_symmetry_space_group_name_H-M "P 42/N C M"
_symmetry_group_IT_number 138
_space_group.IT_coordinate_system_code '2'
_symmetry_cell_setting 'tetragonal'
loop_
_space_group_symop_operation_xyz
x,y,z
1/2-y,x,1/2+z
1/2-x,1/2-y,z
y,1/2-x,1/2+z
1/2+x,-y,1/2-z
-x,1/2+y,1/2-z
1/2+y,1/2+x,-z
-y,-x,-z
-x,-y,-z
1/2+y,-x,1/2-z
1/2+x,1/2+y,-z
-y,1/2+x,1/2-z
1/2-x,y,1/2+z
x,1/2-y,1/2+z
1/2-y,1/2-x,z
y,x,z
loop_
_atom_site_type_symbol
_atom_site_label
_atom_site_fract_x
_atom_site_fract_y
_atom_site_fract_z
Si Si1 0.594341 0.782370 0.267256
Si Si2 0.510200 0.213586 0.355650
Si Si3 0.004699 0.495302 0.871707
Si Si4 0.807075 0.139437 0.265952
Si Si5 0.356217 0.904213 0.918946
Si Si6 0.945151 0.554850 0.298992
Si Si7 0.060205 0.439796 0.362662
Si Si8 0.611597 0.888404 0.808531
O O1 0.682217 0.817784 0.255281
O O2 0.559507 0.764274 0.182241
O O3 0.539939 0.850638 0.306871
O O4 0.595796 0.704703 0.320452
O O5 0.563519 0.176242 0.286616
O O6 0.561178 0.268346 0.411781
O O7 0.474219 0.139083 0.403329
O O8 0.080308 0.526124 0.917931
O O9 0.027674 0.472327 0.785306
O O10 0.937271 0.562730 0.871634
O O11 0.714038 0.152591 0.275288
O O12 0.843711 0.124426 0.350075
O O13 0.358495 0.858495 0.000000
O O14 0.993017 0.506984 0.363507
O O15 0.086459 0.413542 0.277112
#
# Coordination Sequence:
#
# PCOD8318925 Si02
#       8
#    16  16   8  16  16   8   8   8
#     4   9  16  26  45  76 112 140 177 233 278 321
#     4  10  19  33  53  79 113 147 186 235 284 341
#     4  11  19  35  48  79 118 150 180 228 293 350
#     4   9  19  34  52  80 112 147 186 231 286 326
#     4  11  21  35  57  85 112 150 193 233 286 346
#     4   9  16  26  49  76 114 144 185 232 274 341
#     4   9  18  29  46  77 102 151 187 224 288 321
#     4   9  17  27  47  76 111 147 184 232 280 335
#
# _framework density 19.192678999999998
#
# number of rings (size 3 to 8) (size 9 to 14) (size 15 to 20)
#    0.500    1.833    1.667    3.500    2.333    0.000 
#    0.000    6.667    0.000    0.000   10.833    1.167 
#    0.000    0.000    0.000    0.000    0.000    0.000 
#
# Total GULP energy -1189789.840032 kJ/mol
# GULP energy per Si atom -12393.644167 kJ/mol
# Density = 1.914900 g / cm^3
# Si number density = 19.192679 Si / 1000 Ang^3
#
#
#
# Elastic Constant Matrix: (Units=GPa)
#
#
# Indices 1 2 3 4 5 6 
#
# 1 120.5343 51.2507 30.1652 0.0000 0.0000 0.0000
# 2 51.2507 120.5343 30.1652 0.0000 0.0000 0.0000
# 3 30.1652 30.1652 62.2897 0.0000 0.0000 0.0000
# 4 0.0000 0.0000 0.0000 8.1537 0.0000 0.0000
# 5 0.0000 0.0000 0.0000 0.0000 8.1537 0.0000
# 6 0.0000 0.0000 0.0000 0.0000 0.0000 39.9313
#
#
#
# Elastic Compliance Matrix: (Units=1/GPa)
#
#
# Indices 1 2 3 4 5 6 
#
# 1 0.010724 -0.003710 -0.003397 0.000000 0.000000 0.000000
# 2 -0.003710 0.010724 -0.003397 0.000000 0.000000 0.000000
# 3 -0.003397 -0.003397 0.019344 0.000000 0.000000 0.000000
# 4 0.000000 0.000000 0.000000 0.122644 0.000000 0.000000
# 5 0.000000 0.000000 0.000000 0.000000 0.122644 0.000000
# 6 0.000000 0.000000 0.000000 0.000000 0.000000 0.025043
#
#
# Mechanical properties :
#
#
# Convention : Reuss Voigt Hill
#
# Bulk Modulus (GPa) = 50.54284 58.50228 54.52256
# Shear Modulus (GPa) = 14.76132 24.03289 19.39711
#
# Velocity S-wave (km/s) = 2.77630 3.54247 3.18252
# Velocity P-wave (km/s) = 6.05547 6.87603 6.47876
#
# Compressibility (1/GPa) = 0.01978519
#
# Stress axis : x y z
#
# Youngs Moduli (GPa) = 93.25060 93.25060 51.69582
#
# Poissons Ratio (x) = 0.34593 0.17560
# Poissons Ratio (y) = 0.34593 0.17560
# Poissons Ratio (z) = 0.31675 0.31675
#
# Static dielectric constant tensor:
#      x y z
#    x 3.806840 0.000000 0.000000 
#    y 0.000000 3.806840 0.000000 
#    z 0.000000 0.000000 2.815670 
# 
# 
# High freq. dielectric constant tensor:
#      x y z
#    x 1.764210 0.000000 0.000000 
#    y 0.000000 1.764210 0.000000 
#    z 0.000000 0.000000 1.663490 
# 
# From -- ./inp_files/5278.got.cif
#   From: 2010.03.12/outbox.cif.g09.slc.cpg/sg138_3_cif.got.tgz:5278.got - 2010.04.08 09:41:05.
