data_PCOD8318714
_publ_section_title
;
Structure prediction by ZEFSAII (Michael W. Deem and Ramdas Pophale) SiO2 
 PCOD8318714
Probable space group: P 42/N M C
;
_chemical_formula_sum "Si O2"
_cell_formula_units_Z 96
_cell_length_a 14.777306
_cell_length_b 14.777306
_cell_length_c 22.650160
_cell_angle_alpha 90.000000
_cell_angle_beta 90.000000
_cell_angle_gamma 90.000000
_cell_volume 4946.087639
_symmetry_space_group_name_H-M "P 42/N M C"
_symmetry_group_IT_number 137
_space_group.IT_coordinate_system_code '2'
_symmetry_cell_setting 'tetragonal'
loop_
_space_group_symop_operation_xyz
x,y,z
1/2-y,x,1/2+z
1/2-x,1/2-y,z
y,1/2-x,1/2+z
1/2+x,-y,-z
-x,1/2+y,-z
1/2+y,1/2+x,1/2-z
-y,-x,1/2-z
-x,-y,-z
1/2+y,-x,1/2-z
1/2+x,1/2+y,-z
-y,1/2+x,1/2-z
1/2-x,y,z
x,1/2-y,z
1/2-y,1/2-x,1/2+z
y,x,1/2+z
loop_
_atom_site_type_symbol
_atom_site_label
_atom_site_fract_x
_atom_site_fract_y
_atom_site_fract_z
Si Si1 0.061455 0.354025 0.135678
Si Si2 0.145668 0.926684 0.374256
Si Si3 0.010593 0.073095 0.386364
Si Si4 0.644989 0.144989 0.750000
Si Si5 0.750000 0.352758 0.947700
Si Si6 0.010022 0.250000 0.465820
Si Si7 0.853502 0.494836 0.237950
Si Si8 0.143841 0.250000 0.574576
O O1 0.039465 0.250000 0.118883
O O2 0.160272 0.382980 0.111743
O O3 0.980833 0.415170 0.108316
O O4 0.063063 0.366497 0.206783
O O5 0.250000 0.952987 0.377784
O O6 0.113986 0.913647 0.306324
O O7 0.123827 0.835543 0.408255
O O8 0.089670 0.005236 0.406218
O O9 0.014842 0.159932 0.427335
O O10 0.037130 0.101422 0.319966
O O11 0.628864 0.250000 0.735641
O O12 0.750000 0.250000 0.969365
O O13 0.750000 0.411850 0.005843
O O14 0.090346 0.250000 0.513276
O O15 0.897485 0.397485 0.250000
O O16 0.750000 0.474605 0.224624
O O17 0.250000 0.250000 0.559925
#
# Coordination Sequence:
#
# PCOD8318714 Si02
#       8
#    16  16  16   8   8   8  16   8
#     4   9  20  39  64  89 116 149 202 255 304 347
#     4  10  21  37  58  90 126 158 198 242 307 366
#     4  11  23  39  58  86 123 160 202 242 307 359
#     4   9  16  32  60  92 124 156 185 240 308 374
#     4  10  22  42  62  88 122 156 200 257 296 353
#     4  12  26  42  60  84 122 168 208 245 294 358
#     4   9  18  36  59  85 117 152 192 257 307 350
#     4  10  22  42  64  88 118 160 202 244 288 353
#
# _framework density 19.409279999999999
#
# number of rings (size 3 to 8) (size 9 to 14) (size 15 to 20)
#    0.000    2.083    1.667    1.000    3.500    4.167 
#    1.500    3.333    0.000    0.000    0.000    0.000 
#    0.000    0.000    0.000    0.000    0.000    0.000 
#
# Total GULP energy -1190272.644567 kJ/mol
# GULP energy per Si atom -12398.673381 kJ/mol
# Density = 1.936510 g / cm^3
# Si number density = 19.409280 Si / 1000 Ang^3
#
#
#
# Elastic Constant Matrix: (Units=GPa)
#
#
# Indices 1 2 3 4 5 6 
#
# 1 126.8131 77.6442 68.6193 0.0000 0.0000 0.0000
# 2 77.6442 126.8131 68.6193 0.0000 0.0000 0.0000
# 3 68.6193 68.6193 97.8484 0.0000 0.0000 0.0000
# 4 0.0000 0.0000 0.0000 25.9339 0.0000 0.0000
# 5 0.0000 0.0000 0.0000 0.0000 25.9339 0.0000
# 6 0.0000 0.0000 0.0000 0.0000 0.0000 28.4929
#
#
#
# Elastic Compliance Matrix: (Units=1/GPa)
#
#
# Indices 1 2 3 4 5 6 
#
# 1 0.014789 -0.005549 -0.006481 0.000000 0.000000 0.000000
# 2 -0.005549 0.014789 -0.006481 0.000000 0.000000 0.000000
# 3 -0.006481 -0.006481 0.019309 0.000000 0.000000 0.000000
# 4 0.000000 0.000000 0.000000 0.038560 0.000000 0.000000
# 5 0.000000 0.000000 0.000000 0.000000 0.038560 0.000000
# 6 0.000000 0.000000 0.000000 0.000000 0.000000 0.035096
#
#
# Mechanical properties :
#
#
# Convention : Reuss Voigt Hill
#
# Bulk Modulus (GPa) = 84.25259 86.80449 85.52854
# Shear Modulus (GPa) = 24.74277 25.17826 24.96052
#
# Velocity S-wave (km/s) = 3.57429 3.60561 3.58999
# Velocity P-wave (km/s) = 7.78054 7.88379 7.83234
#
# Compressibility (1/GPa) = 0.01186907
#
# Stress axis : x y z
#
# Youngs Moduli (GPa) = 67.61554 67.61554 51.78873
#
# Poissons Ratio (x) = 0.37517 0.33562
# Poissons Ratio (y) = 0.37517 0.33562
# Poissons Ratio (z) = 0.43818 0.43818
#
# Static dielectric constant tensor:
#      x y z
#    x 3.600590 0.000000 0.000000 
#    y 0.000000 3.600590 0.000000 
#    z 0.000000 0.000000 3.556790 
# 
# 
# High freq. dielectric constant tensor:
#      x y z
#    x 1.758760 0.000000 0.000000 
#    y 0.000000 1.758760 0.000000 
#    z 0.000000 0.000000 1.750800 
# 
# From -- ./inp_files/7939.got.cif
#   From: 2010.03.12/outbox.cif.g09.slc.cpg/sg137_4_cif.got.tgz:7939.got - 2010.04.08 09:34:49.
