data_PCOD8318793
_publ_section_title
;
Structure prediction by ZEFSAII (Michael W. Deem and Ramdas Pophale) SiO2 
 PCOD8318793
Probable space group: P 42/N M C
;
_chemical_formula_sum "Si O2"
_cell_formula_units_Z 64
_cell_length_a 19.404886
_cell_length_b 19.404886
_cell_length_c 8.885456
_cell_angle_alpha 90.000000
_cell_angle_beta 90.000000
_cell_angle_gamma 90.000000
_cell_volume 3345.814909
_symmetry_space_group_name_H-M "P 42/N M C"
_symmetry_group_IT_number 137
_space_group.IT_coordinate_system_code '2'
_symmetry_cell_setting 'tetragonal'
loop_
_space_group_symop_operation_xyz
x,y,z
1/2-y,x,1/2+z
1/2-x,1/2-y,z
y,1/2-x,1/2+z
1/2+x,-y,-z
-x,1/2+y,-z
1/2+y,1/2+x,1/2-z
-y,-x,1/2-z
-x,-y,-z
1/2+y,-x,1/2-z
1/2+x,1/2+y,-z
-y,1/2+x,1/2-z
1/2-x,y,z
x,1/2-y,z
1/2-y,1/2-x,1/2+z
y,x,1/2+z
loop_
_atom_site_type_symbol
_atom_site_label
_atom_site_fract_x
_atom_site_fract_y
_atom_site_fract_z
Si Si1 0.000697 0.896155 0.319613
Si Si2 0.001930 0.398777 0.322130
Si Si3 0.134970 0.750000 0.963339
Si Si4 0.750000 0.144737 0.960834
Si Si5 0.543415 0.250000 0.774688
Si Si6 0.250000 0.959972 0.799806
O O1 0.068740 0.931261 0.250000
O O2 0.999929 0.907761 0.498367
O O3 0.999741 0.816249 0.274987
O O4 0.932951 0.929689 0.245892
O O5 0.934456 0.434456 0.250000
O O6 0.004599 0.318662 0.272585
O O7 0.060734 0.750000 0.047789
O O8 0.180205 0.817051 0.996452
O O9 0.112489 0.750000 0.790477
O O10 0.750000 0.067697 0.029755
O O11 0.750000 0.123440 0.785883
#
# Coordination Sequence:
#
# PCOD8318793 Si02
#       6
#    16  16   8   8   8   8
#     4  11  23  40  61  88 119 157 203 253 301 354
#     4  11  23  40  61  88 119 157 203 253 301 354
#     4  11  24  32  58  82 124 159 202 224 294 361
#     4  11  20  40  50  86 120 163 190 242 282 359
#     4  12  24  37  60  85 120 160 201 248 297 357
#     4  12  24  37  60  85 120 160 201 248 297 357
#
# _framework density 19.128374000000001
#
# number of rings (size 3 to 8) (size 9 to 14) (size 15 to 20)
#    0.000    0.750    2.500    7.500    7.000    2.000 
#    0.000    0.000    0.000    0.750    0.000    3.500 
#    0.000    0.000    0.000    0.000    0.000    0.000 
#
# Total GULP energy -793613.479668 kJ/mol
# GULP energy per Si atom -12400.210620 kJ/mol
# Density = 1.908484 g / cm^3
# Si number density = 19.128374 Si / 1000 Ang^3
#
#
#
# Elastic Constant Matrix: (Units=GPa)
#
#
# Indices 1 2 3 4 5 6 
#
# 1 137.7426 66.1091 39.8772 0.0000 0.0000 0.0000
# 2 66.1091 137.7439 39.8770 0.0000 0.0000 0.0000
# 3 39.8772 39.8770 99.2778 0.0000 0.0000 0.0000
# 4 0.0000 0.0000 0.0000 28.5389 0.0000 0.0000
# 5 0.0000 0.0000 0.0000 0.0000 28.5388 0.0000
# 6 0.0000 0.0000 0.0000 0.0000 0.0000 28.9984
#
#
#
# Elastic Compliance Matrix: (Units=1/GPa)
#
#
# Indices 1 2 3 4 5 6 
#
# 1 0.009890 -0.004070 -0.002338 0.000000 0.000000 0.000000
# 2 -0.004070 0.009890 -0.002338 0.000000 0.000000 0.000000
# 3 -0.002338 -0.002338 0.011951 0.000000 0.000000 0.000000
# 4 0.000000 0.000000 0.000000 0.035040 0.000000 0.000000
# 5 0.000000 0.000000 0.000000 0.000000 0.035040 0.000000
# 6 0.000000 0.000000 0.000000 0.000000 0.000000 0.034485
#
#
# Mechanical properties :
#
#
# Convention : Reuss Voigt Hill
#
# Bulk Modulus (GPa) = 70.22510 74.05453 72.13982
# Shear Modulus (GPa) = 31.53924 32.47531 32.00727
#
# Velocity S-wave (km/s) = 4.06497 4.12485 4.09502
# Velocity P-wave (km/s) = 7.66969 7.84120 7.75592
#
# Compressibility (1/GPa) = 0.01423992
#
# Stress axis : x y z
#
# Youngs Moduli (GPa) = 101.11193 101.11316 83.67655
#
# Poissons Ratio (x) = 0.41151 0.19562
# Poissons Ratio (y) = 0.41151 0.19561
# Poissons Ratio (z) = 0.23638 0.23638
#
# Static dielectric constant tensor:
#      x y z
#    x 3.395550 0.000000 0.000000 
#    y 0.000000 3.395550 0.000000 
#    z 0.000000 0.000000 3.740030 
# 
# 
# High freq. dielectric constant tensor:
#      x y z
#    x 1.725260 0.000000 0.000000 
#    y 0.000000 1.725260 0.000000 
#    z 0.000000 0.000000 1.774490 
# 
# From -- ./inp_files/1876.got.cif
#   From: 2010.03.12/outbox.cif.g09.slc.cpg/sg137_1_cif.got.tgz:1876.got - 2010.04.08 09:34:49.
