data_PCOD8318683
_publ_section_title
;
Structure prediction by ZEFSAII (Michael W. Deem and Ramdas Pophale) SiO2 
 PCOD8318683
Probable space group: P 42/N M C
;
_chemical_formula_sum "Si O2"
_cell_formula_units_Z 112
_cell_length_a 13.783298
_cell_length_b 13.783298
_cell_length_c 27.804264
_cell_angle_alpha 90.000000
_cell_angle_beta 90.000000
_cell_angle_gamma 90.000000
_cell_volume 5282.234716
_symmetry_space_group_name_H-M "P 42/N M C"
_symmetry_group_IT_number 137
_space_group.IT_coordinate_system_code '2'
_symmetry_cell_setting 'tetragonal'
loop_
_space_group_symop_operation_xyz
x,y,z
1/2-y,x,1/2+z
1/2-x,1/2-y,z
y,1/2-x,1/2+z
1/2+x,-y,-z
-x,1/2+y,-z
1/2+y,1/2+x,1/2-z
-y,-x,1/2-z
-x,-y,-z
1/2+y,-x,1/2-z
1/2+x,1/2+y,-z
-y,1/2+x,1/2-z
1/2-x,y,z
x,1/2-y,z
1/2-y,1/2-x,1/2+z
y,x,1/2+z
loop_
_atom_site_type_symbol
_atom_site_label
_atom_site_fract_x
_atom_site_fract_y
_atom_site_fract_z
Si Si1 0.552255 0.134844 0.513286
Si Si2 0.529377 0.365632 0.792581
Si Si3 0.357294 0.864800 0.914637
Si Si4 0.531834 0.864371 0.855083
Si Si5 0.364946 0.016443 0.750955
Si Si6 0.359567 0.635313 0.112944
Si Si7 0.136533 0.143735 0.051888
O O1 0.567063 0.250000 0.512582
O O2 0.599769 0.092969 0.464733
O O3 0.602322 0.094876 0.561873
O O4 0.437925 0.104564 0.513332
O O5 0.600661 0.399340 0.750000
O O6 0.518176 0.250000 0.791099
O O7 0.422875 0.415429 0.788232
O O8 0.573286 0.403163 0.843367
O O9 0.250000 0.909619 0.906754
O O10 0.350888 0.750000 0.917067
O O11 0.425106 0.902681 0.871375
O O12 0.524623 0.750000 0.854594
O O13 0.559850 0.896202 0.801387
O O14 0.611044 0.896322 0.894573
O O15 0.405377 0.905377 0.750000
O O16 0.250000 0.017148 0.761623
O O17 0.250000 0.594585 0.119422
O O18 0.357749 0.750000 0.114601
O O19 0.250000 0.156365 0.050090
O O20 0.087913 0.250000 0.041428
#
# Coordination Sequence:
#
# PCOD8318683 Si02
#       7
#    16  16  16  16  16  16  16
#     4   9  17  28  49  79 110 144 178 216 269 329
#     4  10  21  35  55  83 115 150 186 227 279 341
#     4   9  17  31  52  79 108 135 168 215 275 341
#     4   9  19  35  53  75 102 132 173 227 283 331
#     4  10  23  40  58  82 108 141 190 245 297 345
#     4   9  17  30  50  80 117 150 180 219 271 334
#     4   9  18  31  48  72 103 138 176 219 264 314
#
# _framework density 21.203146
#
# number of rings (size 3 to 8) (size 9 to 14) (size 15 to 20)
#    0.000    2.714    0.000    0.857    4.000    4.571 
#    0.000    2.857    0.000    0.000    0.000    1.000 
#    0.000    0.000    0.000    0.000    0.000    0.000 
#
# Total GULP energy -1387834.798100 kJ/mol
# GULP energy per Si atom -12391.382126 kJ/mol
# Density = 2.115489 g / cm^3
# Si number density = 21.203146 Si / 1000 Ang^3
#
#
#
# Elastic Constant Matrix: (Units=GPa)
#
#
# Indices 1 2 3 4 5 6 
#
# 1 43.6431 23.0682 6.4197 0.0000 0.0000 0.0000
# 2 23.0682 43.6434 6.4198 0.0000 0.0000 0.0000
# 3 6.4197 6.4198 56.3789 0.0000 0.0000 0.0000
# 4 0.0000 0.0000 0.0000 19.8049 0.0000 0.0000
# 5 0.0000 0.0000 0.0000 0.0000 19.8050 0.0000
# 6 0.0000 0.0000 0.0000 0.0000 0.0000 23.6365
#
#
#
# Elastic Compliance Matrix: (Units=1/GPa)
#
#
# Indices 1 2 3 4 5 6 
#
# 1 0.031964 -0.016638 -0.001745 0.000000 0.000000 0.000000
# 2 -0.016638 0.031964 -0.001745 0.000000 0.000000 0.000000
# 3 -0.001745 -0.001745 0.018135 0.000000 0.000000 0.000000
# 4 0.000000 0.000000 0.000000 0.050492 0.000000 0.000000
# 5 0.000000 0.000000 0.000000 0.000000 0.050492 0.000000
# 6 0.000000 0.000000 0.000000 0.000000 0.000000 0.042307
#
#
# Mechanical properties :
#
#
# Convention : Reuss Voigt Hill
#
# Bulk Modulus (GPa) = 23.92019 23.94232 23.93125
# Shear Modulus (GPa) = 17.88605 19.83313 18.85959
#
# Velocity S-wave (km/s) = 2.90756 3.06173 2.98564
# Velocity P-wave (km/s) = 4.75161 4.88009 4.81628
#
# Compressibility (1/GPa) = 0.04180568
#
# Stress axis : x y z
#
# Youngs Moduli (GPa) = 31.28495 31.28514 55.14329
#
# Poissons Ratio (x) = 0.52053 0.09623
# Poissons Ratio (y) = 0.52053 0.09623
# Poissons Ratio (z) = 0.05460 0.05460
#
# Static dielectric constant tensor:
#      x y z
#    x 3.928420 0.000000 0.000000 
#    y 0.000000 3.928420 0.000000 
#    z 0.000000 0.000000 4.232590 
# 
# 
# High freq. dielectric constant tensor:
#      x y z
#    x 1.826300 0.000000 0.000000 
#    y 0.000000 1.826300 0.000000 
#    z 0.000000 0.000000 1.824390 
# 
# From -- ./inp_files/9009.got.cif
#   From: 2010.03.12/outbox.cif.g09.slc.cpg/sg137_5_cif.got.tgz:9009.got - 2010.04.08 09:34:49.
