data_PCOD8318442
_publ_section_title
;
Structure prediction by ZEFSAII (Michael W. Deem and Ramdas Pophale) SiO2 
 PCOD8318442
Probable space group: P 42/N M C
;
_chemical_formula_sum "Si O2"
_cell_formula_units_Z 80
_cell_length_a 13.994956
_cell_length_b 13.994956
_cell_length_c 19.508763
_cell_angle_alpha 90.000000
_cell_angle_beta 90.000000
_cell_angle_gamma 90.000000
_cell_volume 3820.962783
_symmetry_space_group_name_H-M "P 42/N M C"
_symmetry_group_IT_number 137
_space_group.IT_coordinate_system_code '2'
_symmetry_cell_setting 'tetragonal'
loop_
_space_group_symop_operation_xyz
x,y,z
1/2-y,x,1/2+z
1/2-x,1/2-y,z
y,1/2-x,1/2+z
1/2+x,-y,-z
-x,1/2+y,-z
1/2+y,1/2+x,1/2-z
-y,-x,1/2-z
-x,-y,-z
1/2+y,-x,1/2-z
1/2+x,1/2+y,-z
-y,1/2+x,1/2-z
1/2-x,y,z
x,1/2-y,z
1/2-y,1/2-x,1/2+z
y,x,1/2+z
loop_
_atom_site_type_symbol
_atom_site_label
_atom_site_fract_x
_atom_site_fract_y
_atom_site_fract_z
Si Si1 0.391280 0.356921 0.488116
Si Si2 0.041997 0.142198 0.131041
Si Si3 0.142913 0.604067 0.944677
Si Si4 0.849179 0.450934 0.577770
Si Si5 0.635664 0.026937 0.809107
O O1 0.347469 0.250000 0.475703
O O2 0.363259 0.392988 0.563239
O O3 0.503426 0.351102 0.481504
O O4 0.358832 0.434364 0.431556
O O5 0.039597 0.250000 0.158606
O O6 0.932134 0.107347 0.118447
O O7 0.091670 0.079893 0.191740
O O8 0.250000 0.637158 0.921355
O O9 0.098725 0.669044 0.004267
O O10 0.750000 0.435328 0.619377
O O11 0.934559 0.401057 0.617793
O O12 0.592679 0.092679 0.750000
O O13 0.750000 0.026238 0.804693
#
# Coordination Sequence:
#
# PCOD8318442 Si02
#       5
#    16  16  16  16  16
#     4  10  18  33  59  91 128 163 191 234 301 363
#     4  11  22  39  63  90 123 161 203 247 299 363
#     4  10  18  33  60  93 129 161 190 236 299 362
#     4  11  21  35  57  87 122 156 196 244 295 354
#     4  12  26  45  63  83 114 153 204 254 299 351
#
# _framework density 20.937131999999998
#
# number of rings (size 3 to 8) (size 9 to 14) (size 15 to 20)
#    0.000    1.200    4.000    5.400    0.000    6.600 
#    0.000    2.000    0.000    2.400    0.000    0.000 
#    0.000    0.000    0.000    0.000    0.000    0.000 
#
# Total GULP energy -991059.425051 kJ/mol
# GULP energy per Si atom -12388.242813 kJ/mol
# Density = 2.088948 g / cm^3
# Si number density = 20.937132 Si / 1000 Ang^3
#
#
#
# Elastic Constant Matrix: (Units=GPa)
#
#
# Indices 1 2 3 4 5 6 
#
# 1 170.7691 47.9615 30.3019 0.0000 0.0000 0.0000
# 2 47.9615 170.7691 30.3019 0.0000 0.0000 0.0000
# 3 30.3019 30.3019 47.2020 0.0000 0.0000 0.0000
# 4 0.0000 0.0000 0.0000 21.6260 0.0000 0.0000
# 5 0.0000 0.0000 0.0000 0.0000 21.6260 0.0000
# 6 0.0000 0.0000 0.0000 0.0000 0.0000 -29.4716
#
#
#
# Elastic Compliance Matrix: (Units=1/GPa)
#
#
# Indices 1 2 3 4 5 6 
#
# 1 0.006852 -0.001291 -0.003570 0.000000 0.000000 0.000000
# 2 -0.001291 0.006852 -0.003570 0.000000 0.000000 0.000000
# 3 -0.003570 -0.003570 0.025769 0.000000 0.000000 0.000000
# 4 0.000000 0.000000 0.000000 0.046241 0.000000 0.000000
# 5 0.000000 0.000000 0.000000 0.000000 0.046241 0.000000
# 6 0.000000 0.000000 0.000000 0.000000 0.000000 -0.033931
#
#
# Mechanical properties :
#
#
# Convention : Reuss Voigt Hill
#
# Bulk Modulus (GPa) = 44.22570 67.31898 55.77234
# Shear Modulus (GPa) = 40.84242 21.43442 31.13842
#
# Velocity S-wave (km/s) = 4.42148 3.20308 3.86065
# Velocity P-wave (km/s) = 6.87277 6.77513 6.82412
#
# Compressibility (1/GPa) = 0.02261129
#
# Stress axis : x y z
#
# Youngs Moduli (GPa) = 145.94524 145.94524 38.80619
#
# Poissons Ratio (x) = 0.18841 0.13854
# Poissons Ratio (y) = 0.18841 0.13854
# Poissons Ratio (z) = 0.52101 0.52101
#
# Static dielectric constant tensor:
#      x y z
#    x 4.225480 0.000000 0.000000 
#    y 0.000000 4.225480 0.000000 
#    z 0.000000 0.000000 3.216700 
# 
# 
# High freq. dielectric constant tensor:
#      x y z
#    x 1.839960 0.000000 0.000000 
#    y 0.000000 1.839960 0.000000 
#    z 0.000000 0.000000 1.751390 
# 
# From -- ./inp_files/7610.got.cif
#   From: 2010.03.12/outbox.cif.g09.slc.cpg/sg137_4_cif.got.tgz:7610.got - 2010.04.08 09:34:49.
