data_PCOD8318626
_publ_section_title
;
Structure prediction by ZEFSAII (Michael W. Deem and Ramdas Pophale) SiO2 
 PCOD8318626
Probable space group: P 42/N M C
;
_chemical_formula_sum "Si O2"
_cell_formula_units_Z 96
_cell_length_a 14.476108
_cell_length_b 14.476108
_cell_length_c 19.538985
_cell_angle_alpha 90.000000
_cell_angle_beta 90.000000
_cell_angle_gamma 90.000000
_cell_volume 4094.544812
_symmetry_space_group_name_H-M "P 42/N M C"
_symmetry_group_IT_number 137
_space_group.IT_coordinate_system_code '2'
_symmetry_cell_setting 'tetragonal'
loop_
_space_group_symop_operation_xyz
x,y,z
1/2-y,x,1/2+z
1/2-x,1/2-y,z
y,1/2-x,1/2+z
1/2+x,-y,-z
-x,1/2+y,-z
1/2+y,1/2+x,1/2-z
-y,-x,1/2-z
-x,-y,-z
1/2+y,-x,1/2-z
1/2+x,1/2+y,-z
-y,1/2+x,1/2-z
1/2-x,y,z
x,1/2-y,z
1/2-y,1/2-x,1/2+z
y,x,1/2+z
loop_
_atom_site_type_symbol
_atom_site_label
_atom_site_fract_x
_atom_site_fract_y
_atom_site_fract_z
Si Si1 0.099281 0.461976 0.374068
Si Si2 0.349012 0.648253 0.561296
Si Si3 0.539691 0.403723 0.179029
Si Si4 0.356388 0.351389 0.744495
Si Si5 0.147159 0.144571 0.508737
Si Si6 0.540919 0.143421 0.570115
O O1 0.157592 0.423616 0.310253
O O2 0.139863 0.422059 0.443767
O O3 0.093968 0.575004 0.377387
O O4 0.995730 0.429975 0.361017
O O5 0.250000 0.650430 0.522737
O O6 0.374290 0.750000 0.589937
O O7 0.330869 0.578486 0.624997
O O8 0.425200 0.618239 0.506295
O O9 0.596464 0.403537 0.250000
O O10 0.430105 0.392664 0.192865
O O11 0.250000 0.372599 0.766062
O O12 0.362254 0.250000 0.708226
O O13 0.250000 0.130988 0.540917
O O14 0.133026 0.250000 0.483537
O O15 0.069809 0.121831 0.566530
O O16 0.561849 0.250000 0.590428
#
# Coordination Sequence:
#
# PCOD8318626 Si02
#       6
#    16  16  16  16  16  16
#     4  11  21  37  61  92 120 160 206 252 313 371
#     4  10  21  37  58  86 124 167 204 247 306 370
#     4  10  22  37  59  86 120 158 206 256 311 369
#     4  10  22  41  65  93 124 158 204 265 323 379
#     4  10  20  35  59  90 123 161 203 249 304 366
#     4  10  22  40  60  90 131 165 207 259 307 369
#
# _framework density 23.445830999999998
#
# number of rings (size 3 to 8) (size 9 to 14) (size 15 to 20)
#    0.000    1.833    1.667    2.000    0.000    6.667 
#    0.000    1.667    0.000    3.000    0.000    0.000 
#    0.000    0.000    0.000    0.000    0.000    0.000 
#
# Total GULP energy -1189343.818492 kJ/mol
# GULP energy per Si atom -12388.998109 kJ/mol
# Density = 2.339247 g / cm^3
# Si number density = 23.445831 Si / 1000 Ang^3
#
#
#
# Elastic Constant Matrix: (Units=GPa)
#
#
# Indices 1 2 3 4 5 6 
#
# 1 112.7546 30.4241 24.2151 0.0000 0.0000 0.0000
# 2 30.4241 112.7549 24.2150 0.0000 0.0000 0.0000
# 3 24.2151 24.2150 50.3273 0.0000 0.0000 0.0000
# 4 0.0000 0.0000 0.0000 22.2730 0.0000 0.0000
# 5 0.0000 0.0000 0.0000 0.0000 22.2729 0.0000
# 6 0.0000 0.0000 0.0000 0.0000 0.0000 27.7785
#
#
#
# Elastic Compliance Matrix: (Units=1/GPa)
#
#
# Indices 1 2 3 4 5 6 
#
# 1 0.010244 -0.001902 -0.004014 0.000000 0.000000 0.000000
# 2 -0.001902 0.010244 -0.004014 0.000000 0.000000 0.000000
# 3 -0.004014 -0.004014 0.023732 0.000000 0.000000 0.000000
# 4 0.000000 0.000000 0.000000 0.044897 0.000000 0.000000
# 5 0.000000 0.000000 0.000000 0.000000 0.044898 0.000000
# 6 0.000000 0.000000 0.000000 0.000000 0.000000 0.035999
#
#
# Mechanical properties :
#
#
# Convention : Reuss Voigt Hill
#
# Bulk Modulus (GPa) = 41.04875 48.17170 44.61023
# Shear Modulus (GPa) = 25.25329 27.59706 26.42517
#
# Velocity S-wave (km/s) = 3.28547 3.43455 3.36083
# Velocity P-wave (km/s) = 5.65140 6.02650 5.84196
#
# Compressibility (1/GPa) = 0.02436128
#
# Stress axis : x y z
#
# Youngs Moduli (GPa) = 97.61770 97.61802 42.13656
#
# Poissons Ratio (x) = 0.18568 0.16913
# Poissons Ratio (y) = 0.18568 0.16912
# Poissons Ratio (z) = 0.39181 0.39181
#
# Static dielectric constant tensor:
#      x y z
#    x 4.371730 0.000000 0.000000 
#    y 0.000000 4.371730 0.000000 
#    z 0.000000 0.000000 3.871780 
# 
# 
# High freq. dielectric constant tensor:
#      x y z
#    x 1.934370 0.000000 0.000000 
#    y 0.000000 1.934370 0.000000 
#    z 0.000000 0.000000 1.896740 
# 
# From -- ./inp_files/7851.got.cif
#   From: 2010.03.12/outbox.cif.g09.slc.cpg/sg137_4_cif.got.tgz:7851.got - 2010.04.08 09:34:49.
