data_PCOD8318956
_publ_section_title
;
Structure prediction by ZEFSAII (Michael W. Deem and Ramdas Pophale) SiO2 
 PCOD8318956
Probable space group: P 42/N C M
;
_chemical_formula_sum "Si O2"
_cell_formula_units_Z 84
_cell_length_a 10.629252
_cell_length_b 10.629252
_cell_length_c 33.516415
_cell_angle_alpha 90.000000
_cell_angle_beta 90.000000
_cell_angle_gamma 90.000000
_cell_volume 3786.718019
_symmetry_space_group_name_H-M "P 42/N C M"
_symmetry_group_IT_number 138
_space_group.IT_coordinate_system_code '2'
_symmetry_cell_setting 'tetragonal'
loop_
_space_group_symop_operation_xyz
x,y,z
1/2-y,x,1/2+z
1/2-x,1/2-y,z
y,1/2-x,1/2+z
1/2+x,-y,1/2-z
-x,1/2+y,1/2-z
1/2+y,1/2+x,-z
-y,-x,-z
-x,-y,-z
1/2+y,-x,1/2-z
1/2+x,1/2+y,-z
-y,1/2+x,1/2-z
1/2-x,y,1/2+z
x,1/2-y,1/2+z
1/2-y,1/2-x,z
y,x,z
loop_
_atom_site_type_symbol
_atom_site_label
_atom_site_fract_x
_atom_site_fract_y
_atom_site_fract_z
Si Si1 0.037146 0.673417 0.033093
Si Si2 0.609826 0.890175 0.294729
Si Si3 0.795571 0.503628 0.854389
Si Si4 0.083551 0.083551 0.829558
Si Si5 0.023330 0.687535 0.124281
Si Si6 0.357179 0.142822 0.588431
Si Si7 0.144005 0.144005 0.999886
Si Si8 0.250000 0.250000 0.272417
O O1 0.078728 0.684905 0.079098
O O2 0.934820 0.565181 0.028577
O O3 0.978569 0.808289 0.022728
O O4 0.146054 0.646054 0.000000
O O5 0.555648 0.762012 0.313553
O O6 0.655182 0.844819 0.251203
O O7 0.503061 0.996940 0.300515
O O8 0.911688 0.588313 0.868497
O O9 0.858077 0.365907 0.850009
O O10 0.689871 0.516576 0.888945
O O11 0.164385 0.164385 0.799623
O O12 0.001150 0.173188 0.858557
O O13 0.894140 0.605861 0.127601
O O14 0.250000 0.250000 0.590966
O O15 0.394848 0.105153 0.544321
O O16 0.250000 0.250000 0.001365
#
# Coordination Sequence:
#
# PCOD8318956 Si02
#       8
#    16   8  16   8  16   8   8   4
#     4   9  16  25  43  78 122 171 217 265 311 361
#     4  11  24  44  70  96 121 158 209 268 326 404
#     4   9  17  34  62  89 117 158 202 266 326 371
#     4  12  26  42  67  97 129 177 211 256 347 411
#     4  10  19  35  58  89 133 173 219 262 317 397
#     4   8  13  23  43  79 115 156 212 265 320 365
#     4   9  14  20  34  63 113 159 204 259 311 361
#     4  12  26  50  68  98 134 160 206 272 338 408
#
# _framework density 22.182797999999998
#
# number of rings (size 3 to 8) (size 9 to 14) (size 15 to 20)
#    0.000    2.286    1.905    2.286    0.000    8.381 
#    0.000    0.000    0.000    0.000    0.000   30.667 
#    0.000    0.000    0.000    0.190    0.000    0.190 
#
# Total GULP energy -1040611.321916 kJ/mol
# GULP energy per Si atom -12388.230023 kJ/mol
# Density = 2.213231 g / cm^3
# Si number density = 22.182798 Si / 1000 Ang^3
#
#
#
# Elastic Constant Matrix: (Units=GPa)
#
#
# Indices 1 2 3 4 5 6 
#
# 1 77.2836 65.7084 34.9240 0.0000 0.0000 0.0000
# 2 65.7084 77.2836 34.9240 0.0000 0.0000 0.0000
# 3 34.9240 34.9240 104.2647 0.0000 0.0000 0.0000
# 4 0.0000 0.0000 0.0000 9.4969 0.0000 0.0000
# 5 0.0000 0.0000 0.0000 0.0000 9.4969 0.0000
# 6 0.0000 0.0000 0.0000 0.0000 0.0000 52.4398
#
#
#
# Elastic Compliance Matrix: (Units=1/GPa)
#
#
# Indices 1 2 3 4 5 6 
#
# 1 0.047377 -0.039015 -0.002801 0.000000 0.000000 0.000000
# 2 -0.039015 0.047377 -0.002801 0.000000 0.000000 0.000000
# 3 -0.002801 -0.002801 0.011467 0.000000 0.000000 0.000000
# 4 0.000000 0.000000 0.000000 0.105297 0.000000 0.000000
# 5 0.000000 0.000000 0.000000 0.000000 0.105297 0.000000
# 6 0.000000 0.000000 0.000000 0.000000 0.000000 0.019070
#
#
# Mechanical properties :
#
#
# Convention : Reuss Voigt Hill
#
# Bulk Modulus (GPa) = 58.86760 58.88277 58.87518
# Shear Modulus (GPa) = 11.60687 22.50509 17.05598
#
# Velocity S-wave (km/s) = 2.28992 3.18862 2.77588
# Velocity P-wave (km/s) = 5.79541 6.33706 6.07228
#
# Compressibility (1/GPa) = 0.01698727
#
# Stress axis : x y z
#
# Youngs Moduli (GPa) = 21.10747 21.10747 87.20518
#
# Poissons Ratio (x) = 0.82351 0.24424
# Poissons Ratio (y) = 0.82351 0.24424
# Poissons Ratio (z) = 0.05912 0.05912
#
# Static dielectric constant tensor:
#      x y z
#    x 4.009730 0.000000 0.000000 
#    y 0.000000 4.009730 0.000000 
#    z 0.000000 0.000000 3.861100 
# 
# 
# High freq. dielectric constant tensor:
#      x y z
#    x 1.862790 0.000000 0.000000 
#    y 0.000000 1.862790 0.000000 
#    z 0.000000 0.000000 1.855340 
# 
# From -- ./inp_files/8151.got.cif
#   From: 2010.03.12/outbox.cif.g09.slc.cpg/sg138_5_cif.got.tgz:8151.got - 2010.04.08 09:41:05.
