data_PCOD8318393
_publ_section_title
;
Structure prediction by ZEFSAII (Michael W. Deem and Ramdas Pophale) SiO2 
 PCOD8318393
Probable space group: P 42/N M C
;
_chemical_formula_sum "Si O2"
_cell_formula_units_Z 112
_cell_length_a 14.816849
_cell_length_b 14.816849
_cell_length_c 25.583815
_cell_angle_alpha 90.000000
_cell_angle_beta 90.000000
_cell_angle_gamma 90.000000
_cell_volume 5616.645527
_symmetry_space_group_name_H-M "P 42/N M C"
_symmetry_group_IT_number 137
_space_group.IT_coordinate_system_code '2'
_symmetry_cell_setting 'tetragonal'
loop_
_space_group_symop_operation_xyz
x,y,z
1/2-y,x,1/2+z
1/2-x,1/2-y,z
y,1/2-x,1/2+z
1/2+x,-y,-z
-x,1/2+y,-z
1/2+y,1/2+x,1/2-z
-y,-x,1/2-z
-x,-y,-z
1/2+y,-x,1/2-z
1/2+x,1/2+y,-z
-y,1/2+x,1/2-z
1/2-x,y,z
x,1/2-y,z
1/2-y,1/2-x,1/2+z
y,x,1/2+z
loop_
_atom_site_type_symbol
_atom_site_label
_atom_site_fract_x
_atom_site_fract_y
_atom_site_fract_z
Si Si1 0.348390 0.851479 0.578566
Si Si2 0.352135 0.114123 0.485832
Si Si3 0.849017 0.088902 0.532673
Si Si4 0.965180 0.854417 0.616799
Si Si5 0.357482 0.149206 0.788468
Si Si6 0.350659 0.142474 0.672638
Si Si7 0.149286 0.475447 0.082166
O O1 0.250000 0.898528 0.590859
O O2 0.343405 0.750000 0.599663
O O3 0.364262 0.844379 0.515983
O O4 0.436234 0.900327 0.604781
O O5 0.250000 0.153625 0.488237
O O6 0.394942 0.136668 0.430188
O O7 0.413030 0.155909 0.531108
O O8 0.350835 0.007944 0.494454
O O9 0.750000 0.105912 0.559275
O O10 0.930584 0.095779 0.574051
O O11 0.983645 0.750000 0.627084
O O12 0.919734 0.898296 0.668479
O O13 0.250000 0.153489 0.792645
O O14 0.396371 0.250000 0.798748
O O15 0.384749 0.114715 0.730561
O O16 0.250000 0.103559 0.661963
O O17 0.346436 0.250000 0.668309
O O18 0.419821 0.102892 0.629513
O O19 0.250000 0.503996 0.097947
#
# Coordination Sequence:
#
# PCOD8318393 Si02
#       7
#    16  16  16  16  16  16  16
#     4   9  17  30  47  68  97 135 178 215 248 295
#     4  11  22  32  45  71 105 137 165 207 268 320
#     4  10  21  35  48  66  99 142 178 209 253 308
#     4  10  18  28  47  74 101 134 172 212 256 311
#     4   8  14  26  44  68 101 135 164 200 254 324
#     4   8  15  28  46  70 101 135 166 202 257 321
#     4  11  20  31  50  74 101 135 174 217 256 307
#
# _framework density 19.940729000000001
#
# number of rings (size 3 to 8) (size 9 to 14) (size 15 to 20)
#    0.000    2.429    1.429    3.000    0.000    3.143 
#    0.000    0.000    0.000    0.857    0.000    0.000 
#    0.000    6.857    0.000   45.429    0.000    0.286 
#
# Total GULP energy -1387713.949076 kJ/mol
# GULP energy per Si atom -12390.303117 kJ/mol
# Density = 1.989534 g / cm^3
# Si number density = 19.940729 Si / 1000 Ang^3
#
#
#
# Elastic Constant Matrix: (Units=GPa)
#
#
# Indices 1 2 3 4 5 6 
#
# 1 94.8475 18.9498 43.6549 0.0000 0.0000 0.0000
# 2 18.9498 94.8475 43.6549 0.0000 0.0000 0.0000
# 3 43.6549 43.6549 135.5838 0.0000 0.0000 0.0000
# 4 0.0000 0.0000 0.0000 5.8068 0.0000 0.0000
# 5 0.0000 0.0000 0.0000 0.0000 5.8068 0.0000
# 6 0.0000 0.0000 0.0000 0.0000 0.0000 18.0793
#
#
#
# Elastic Compliance Matrix: (Units=1/GPa)
#
#
# Indices 1 2 3 4 5 6 
#
# 1 0.012423 -0.000753 -0.003758 0.000000 0.000000 0.000000
# 2 -0.000753 0.012423 -0.003758 0.000000 0.000000 0.000000
# 3 -0.003758 -0.003758 0.009795 0.000000 0.000000 0.000000
# 4 0.000000 0.000000 0.000000 0.172212 0.000000 0.000000
# 5 0.000000 0.000000 0.000000 0.000000 0.172212 0.000000
# 6 0.000000 0.000000 0.000000 0.000000 0.000000 0.055312
#
#
# Mechanical properties :
#
#
# Convention : Reuss Voigt Hill
#
# Bulk Modulus (GPa) = 55.23091 59.75530 57.49310
# Shear Modulus (GPa) = 10.94216 20.53985 15.74100
#
# Velocity S-wave (km/s) = 2.34505 3.21291 2.81266
# Velocity P-wave (km/s) = 5.92368 6.61780 6.28034
#
# Compressibility (1/GPa) = 0.01810580
#
# Stress axis : x y z
#
# Youngs Moduli (GPa) = 80.49516 80.49516 102.09002
#
# Poissons Ratio (x) = 0.06057 0.38362
# Poissons Ratio (y) = 0.06057 0.38362
# Poissons Ratio (z) = 0.30247 0.30247
#
# Static dielectric constant tensor:
#      x y z
#    x 3.685420 0.000000 0.000000 
#    y 0.000000 3.685420 0.000000 
#    z 0.000000 0.000000 3.644510 
# 
# 
# High freq. dielectric constant tensor:
#      x y z
#    x 1.765610 0.000000 0.000000 
#    y 0.000000 1.765610 0.000000 
#    z 0.000000 0.000000 1.749950 
# 
# From -- ./inp_files/8960.got.cif
#   From: 2010.03.12/outbox.cif.g09.slc.cpg/sg137_5_cif.got.tgz:8960.got - 2010.04.08 09:34:49.
