data_PCOD8318350
_publ_section_title
;
Structure prediction by ZEFSAII (Michael W. Deem and Ramdas Pophale) SiO2 
 PCOD8318350
Probable space group: P 42/M N M
;
_chemical_formula_sum "Si O2"
_cell_formula_units_Z 64
_cell_length_a 23.936867
_cell_length_b 23.936867
_cell_length_c 7.743898
_cell_angle_alpha 90.000000
_cell_angle_beta 90.000000
_cell_angle_gamma 90.000000
_cell_volume 4437.049129
_symmetry_space_group_name_H-M "P 42/M N M"
_symmetry_group_IT_number 136
_symmetry_cell_setting 'tetragonal'
loop_
_space_group_symop_operation_xyz
x,y,z
1/2-y,1/2+x,1/2+z
-x,-y,z
1/2+y,1/2-x,1/2+z
1/2+x,1/2-y,1/2-z
1/2-x,1/2+y,1/2-z
y,x,-z
-y,-x,-z
-x,-y,-z
1/2+y,1/2-x,1/2-z
x,y,-z
1/2-y,1/2+x,1/2-z
1/2-x,1/2+y,1/2+z
1/2+x,1/2-y,1/2+z
-y,-x,z
y,x,z
loop_
_atom_site_type_symbol
_atom_site_label
_atom_site_fract_x
_atom_site_fract_y
_atom_site_fract_z
Si Si1 0.790486 0.304101 0.500000
Si Si2 0.878156 0.215187 0.500000
Si Si3 0.643558 0.262951 0.809601
Si Si4 0.850069 0.938297 0.202261
Si Si5 0.065527 0.842480 0.802001
O O1 0.744020 0.255981 0.500000
O O2 0.852399 0.277411 0.500000
O O3 0.784763 0.343400 0.331048
O O4 0.828110 0.171891 0.500000
O O5 0.914289 0.206660 0.674197
O O6 0.688530 0.311471 0.786212
O O7 0.583194 0.291855 0.784292
O O8 0.646564 0.235605 0.000000
O O9 0.903235 0.903235 0.273962
O O10 0.859123 0.002763 0.249720
O O11 0.844654 0.929061 0.000000
O O12 0.102054 0.897947 0.775013
O O13 0.069690 0.820874 0.000000
#
# Coordination Sequence:
#
# PCOD8318350 Si02
#       5
#     8   8  16  16  16
#     4   9  16  28  42  57  77  97 126 170 209 245
#     4   9  18  30  43  56  75 105 139 173 205 241
#     4   9  16  25  39  59  78  97 125 164 210 251
#     4   9  16  27  42  58  81 109 138 177 212 239
#     4   9  18  30  41  56  79 109 146 178 202 236
#
# _framework density 14.424002
#
# number of rings (size 3 to 8) (size 9 to 14) (size 15 to 20)
#    0.000    3.000    1.250    0.000    1.750    1.500 
#    0.000    7.500    0.000    2.250    0.000    0.000 
#    0.000    0.000    0.000    0.000    0.000    3.750 
#
# Total GULP energy -793264.735863 kJ/mol
# GULP energy per Si atom -12394.761498 kJ/mol
# Density = 1.439117 g / cm^3
# Si number density = 14.424002 Si / 1000 Ang^3
#
#
#
# Elastic Constant Matrix: (Units=GPa)
#
#
# Indices 1 2 3 4 5 6 
#
# 1 52.9335 50.6788 44.7276 0.0000 0.0000 0.0000
# 2 50.6788 52.9331 44.7276 0.0000 0.0000 0.0000
# 3 44.7276 44.7276 100.5604 0.0000 0.0000 0.0000
# 4 0.0000 0.0000 0.0000 13.3812 0.0000 0.0000
# 5 0.0000 0.0000 0.0000 0.0000 13.3813 0.0000
# 6 0.0000 0.0000 0.0000 0.0000 0.0000 18.5756
#
#
#
# Elastic Compliance Matrix: (Units=1/GPa)
#
#
# Indices 1 2 3 4 5 6 
#
# 1 0.229611 -0.213944 -0.006968 0.000000 0.000000 0.000000
# 2 -0.213944 0.229613 -0.006969 0.000000 0.000000 0.000000
# 3 -0.006968 -0.006969 0.016144 0.000000 0.000000 0.000000
# 4 0.000000 0.000000 0.000000 0.074732 0.000000 0.000000
# 5 0.000000 0.000000 0.000000 0.000000 0.074731 0.000000
# 6 0.000000 0.000000 0.000000 0.000000 0.000000 0.053834
#
#
# Mechanical properties :
#
#
# Convention : Reuss Voigt Hill
#
# Bulk Modulus (GPa) = 51.00963 54.07722 52.54343
# Shear Modulus (GPa) = 4.38227 13.48717 8.93472
#
# Velocity S-wave (km/s) = 1.74493 3.06118 2.49154
# Velocity P-wave (km/s) = 6.28497 7.07580 6.69208
#
# Compressibility (1/GPa) = 0.01960414
#
# Stress axis : x y z
#
# Youngs Moduli (GPa) = 4.35520 4.35515 61.94416
#
# Poissons Ratio (x) = 0.93176 0.43166
# Poissons Ratio (y) = 0.93177 0.43171
# Poissons Ratio (z) = 0.03035 0.03035
#
# Static dielectric constant tensor:
#      x y z
#    x 2.655130 0.000000 0.000000 
#    y 0.000000 2.655130 0.000000 
#    z 0.000000 0.000000 3.010560 
# 
# 
# High freq. dielectric constant tensor:
#      x y z
#    x 1.511410 0.000000 0.000000 
#    y 0.000000 1.511410 0.000000 
#    z 0.000000 0.000000 1.569870 
# 
# From -- ./inp_files/1440.got.cif
#   From: 2010.03.12/outbox.cif.g09.slc.cpg/sg136_1_cif.got.tgz:1440.got - 2010.04.06 18:39:43.
