data_PCOD8318279
_publ_section_title
;
Structure prediction by ZEFSAII (Michael W. Deem and Ramdas Pophale) SiO2 
 PCOD8318279
Probable space group: P 42/M N M
;
_chemical_formula_sum "Si O2"
_cell_formula_units_Z 72
_cell_length_a 19.055924
_cell_length_b 19.055924
_cell_length_c 8.465621
_cell_angle_alpha 90.000000
_cell_angle_beta 90.000000
_cell_angle_gamma 90.000000
_cell_volume 3074.106050
_symmetry_space_group_name_H-M "P 42/M N M"
_symmetry_group_IT_number 136
_symmetry_cell_setting 'tetragonal'
loop_
_space_group_symop_operation_xyz
x,y,z
1/2-y,1/2+x,1/2+z
-x,-y,z
1/2+y,1/2-x,1/2+z
1/2+x,1/2-y,1/2-z
1/2-x,1/2+y,1/2-z
y,x,-z
-y,-x,-z
-x,-y,-z
1/2+y,1/2-x,1/2-z
x,y,-z
1/2-y,1/2+x,1/2-z
1/2-x,1/2+y,1/2+z
1/2+x,1/2-y,1/2+z
-y,-x,z
y,x,z
loop_
_atom_site_type_symbol
_atom_site_label
_atom_site_fract_x
_atom_site_fract_y
_atom_site_fract_z
Si Si1 0.442304 0.442304 0.175450
Si Si2 0.026781 0.597244 0.178603
Si Si3 0.128919 0.701378 0.315360
Si Si4 0.263847 0.622945 0.815012
Si Si5 0.200528 0.972429 0.184621
O O1 0.500000 0.500000 0.152497
O O2 0.380665 0.479318 0.274188
O O3 0.417701 0.417701 0.000000
O O4 0.085093 0.536973 0.201542
O O5 0.062702 0.668791 0.222579
O O6 0.998545 0.597423 0.000000
O O7 0.129171 0.685365 0.500000
O O8 0.202464 0.674874 0.247896
O O9 0.102133 0.779579 0.274941
O O10 0.337308 0.662693 0.778663
O O11 0.261475 0.545845 0.737121
O O12 0.252085 0.613089 0.000000
O O13 0.213668 0.963012 0.000000
#
# Coordination Sequence:
#
# PCOD8318279 Si02
#       5
#     8  16  16  16  16
#     4  11  25  47  75 105 139 181 233 292 355 418
#     4  11  21  36  57  85 122 165 217 270 329 393
#     4  12  25  42  65  94 133 177 226 279 342 412
#     4  11  25  46  71 100 139 183 232 290 358 428
#     4  12  26  45  71 104 142 184 235 290 353 423
#
# _framework density 23.421444000000001
#
# number of rings (size 3 to 8) (size 9 to 14) (size 15 to 20)
#    0.000    0.556    0.000    9.667    1.556    5.333 
#    0.000    0.000    0.000    0.000    0.000    0.000 
#    0.000    0.000    0.000    0.000    0.000    0.000 
#
# Total GULP energy -892358.773406 kJ/mol
# GULP energy per Si atom -12393.871853 kJ/mol
# Density = 2.336814 g / cm^3
# Si number density = 23.421444 Si / 1000 Ang^3
#
#
#
# Elastic Constant Matrix: (Units=GPa)
#
#
# Indices 1 2 3 4 5 6 
#
# 1 61.6294 64.0816 33.6785 0.0000 0.0000 0.0000
# 2 64.0816 61.6294 33.6785 0.0000 0.0000 0.0000
# 3 33.6785 33.6785 150.0728 0.0000 0.0000 0.0000
# 4 0.0000 0.0000 0.0000 34.3776 0.0000 0.0000
# 5 0.0000 0.0000 0.0000 0.0000 34.3776 0.0000
# 6 0.0000 0.0000 0.0000 0.0000 0.0000 33.3436
#
#
#
# Elastic Compliance Matrix: (Units=1/GPa)
#
#
# Indices 1 2 3 4 5 6 
#
# 1 -0.199371 0.208413 -0.002029 0.000000 0.000000 0.000000
# 2 0.208413 -0.199371 -0.002029 0.000000 0.000000 0.000000
# 3 -0.002029 -0.002029 0.007574 0.000000 0.000000 0.000000
# 4 0.000000 0.000000 0.000000 0.029089 0.000000 0.000000
# 5 0.000000 0.000000 0.000000 0.000000 0.029089 0.000000
# 6 0.000000 0.000000 0.000000 0.000000 0.000000 0.029991
#
#
# Mechanical properties :
#
#
# Convention : Reuss Voigt Hill
#
# Bulk Modulus (GPa) = 57.00752 59.57875 58.29314
# Shear Modulus (GPa) = -7.08354 29.87928 11.39787
#
# Velocity S-wave (km/s) = -1.74096 3.57560 2.20839
# Velocity P-wave (km/s) = 4.51126 6.52223 5.60763
#
# Compressibility (1/GPa) = 0.01754155
#
# Stress axis : x y z
#
# Youngs Moduli (GPa) = -5.01577 -5.01577 132.02760
#
# Poissons Ratio (x) = 1.04535 0.26790
# Poissons Ratio (y) = 1.04535 0.26790
# Poissons Ratio (z) = -0.01018 -0.01018
#
# Static dielectric constant tensor:
#      x y z
#    x 4.428250 0.000000 0.000000 
#    y 0.000000 4.428250 0.000000 
#    z 0.000000 0.000000 4.404320 
# 
# 
# High freq. dielectric constant tensor:
#      x y z
#    x 1.936830 0.000000 0.000000 
#    y 0.000000 1.936830 0.000000 
#    z 0.000000 0.000000 1.934160 
# 
# From -- ./inp_files/1588.got.cif
#   From: 2010.03.12/outbox.cif.g09.slc.cpg/sg136_1_cif.got.tgz:1588.got - 2010.04.06 18:39:43.
