data_PCOD8318247
_publ_section_title
;
Structure prediction by ZEFSAII (Michael W. Deem and Ramdas Pophale) SiO2 
 PCOD8318247
Probable space group: P 42/M N M
;
_chemical_formula_sum "Si O2"
_cell_formula_units_Z 96
_cell_length_a 23.002223
_cell_length_b 23.002223
_cell_length_c 8.181791
_cell_angle_alpha 90.000000
_cell_angle_beta 90.000000
_cell_angle_gamma 90.000000
_cell_volume 4329.004133
_symmetry_space_group_name_H-M "P 42/M N M"
_symmetry_group_IT_number 136
_symmetry_cell_setting 'tetragonal'
loop_
_space_group_symop_operation_xyz
x,y,z
1/2-y,1/2+x,1/2+z
-x,-y,z
1/2+y,1/2-x,1/2+z
1/2+x,1/2-y,1/2-z
1/2-x,1/2+y,1/2-z
y,x,-z
-y,-x,-z
-x,-y,-z
1/2+y,1/2-x,1/2-z
x,y,-z
1/2-y,1/2+x,1/2-z
1/2-x,1/2+y,1/2+z
1/2+x,1/2-y,1/2+z
-y,-x,z
y,x,z
loop_
_atom_site_type_symbol
_atom_site_label
_atom_site_fract_x
_atom_site_fract_y
_atom_site_fract_z
Si Si1 0.043575 0.867277 0.190910
Si Si2 0.334879 0.880819 0.688216
Si Si3 0.851608 0.851608 0.182850
Si Si4 0.012109 0.740502 0.808434
Si Si5 0.437231 0.562770 0.814832
Si Si6 0.615314 0.230221 0.189042
Si Si7 0.946791 0.569756 0.691001
O O1 0.104716 0.895285 0.257402
O O2 0.027915 0.804277 0.268029
O O3 0.994017 0.914202 0.224842
O O4 0.049918 0.857472 0.000000
O O5 0.316124 0.879741 0.500000
O O6 0.299431 0.931173 0.779464
O O7 0.333684 0.816899 0.768592
O O8 0.403279 0.889975 0.712112
O O9 0.888017 0.888017 0.313188
O O10 0.866224 0.784472 0.202825
O O11 0.870180 0.870180 0.000000
O O12 0.953243 0.714931 0.725695
O O13 0.000014 0.744392 0.000000
O O14 0.452901 0.547100 0.000000
O O15 0.620792 0.245080 0.000000
O O16 0.953986 0.587276 0.500000
O O17 0.922907 0.504687 0.704467
#
# Coordination Sequence:
#
# PCOD8318247 Si02
#       7
#    16  16   8  16   8  16  16
#     4  10  22  41  66  95 131 174 215 261 324 392
#     4  12  25  42  62  89 125 168 215 264 319 382
#     4  12  24  43  69  98 130 171 218 269 325 386
#     4  11  23  42  67  95 131 174 219 270 329 390
#     4  12  23  37  64 101 136 170 212 266 321 381
#     4  12  25  44  69  98 130 169 218 273 328 389
#     4  11  21  36  57  85 119 156 202 257 318 380
#
# _framework density 22.175999999999998
#
# number of rings (size 3 to 8) (size 9 to 14) (size 15 to 20)
#    0.000    0.667    1.667    8.250    0.000    2.000 
#    1.500    0.000    0.000    0.000    0.000    0.000 
#    0.000    0.000    0.000    0.000    0.000    0.000 
#
# Total GULP energy -1189784.773602 kJ/mol
# GULP energy per Si atom -12393.591392 kJ/mol
# Density = 2.212553 g / cm^3
# Si number density = 22.176000 Si / 1000 Ang^3
#
#
#
# Elastic Constant Matrix: (Units=GPa)
#
#
# Indices 1 2 3 4 5 6 
#
# 1 103.9423 11.5896 8.7467 0.0000 0.0000 0.0000
# 2 11.5896 103.9419 8.7465 0.0000 0.0000 0.0000
# 3 8.7467 8.7465 72.2807 0.0000 0.0000 0.0000
# 4 0.0000 0.0000 0.0000 14.4519 0.0000 0.0000
# 5 0.0000 0.0000 0.0000 0.0000 14.4516 0.0000
# 6 0.0000 0.0000 0.0000 0.0000 0.0000 46.5139
#
#
#
# Elastic Compliance Matrix: (Units=1/GPa)
#
#
# Indices 1 2 3 4 5 6 
#
# 1 0.009823 -0.001005 -0.001067 0.000000 0.000000 0.000000
# 2 -0.001005 0.009823 -0.001067 0.000000 0.000000 0.000000
# 3 -0.001067 -0.001067 0.014093 0.000000 0.000000 0.000000
# 4 0.000000 0.000000 0.000000 0.069195 0.000000 0.000000
# 5 0.000000 0.000000 0.000000 0.000000 0.069196 0.000000
# 6 0.000000 0.000000 0.000000 0.000000 0.000000 0.021499
#
#
# Mechanical properties :
#
#
# Convention : Reuss Voigt Hill
#
# Bulk Modulus (GPa) = 36.41696 37.59225 37.00461
# Shear Modulus (GPa) = 23.91650 31.82230 27.86940
#
# Velocity S-wave (km/s) = 3.28759 3.79223 3.54889
# Velocity P-wave (km/s) = 5.55594 6.01359 5.78929
#
# Compressibility (1/GPa) = 0.02745974
#
# Stress axis : x y z
#
# Youngs Moduli (GPa) = 101.80593 101.80551 70.95632
#
# Poissons Ratio (x) = 0.10236 0.07571
# Poissons Ratio (y) = 0.10236 0.07571
# Poissons Ratio (z) = 0.10862 0.10862
#
# Static dielectric constant tensor:
#      x y z
#    x 4.533470 0.000000 0.000000 
#    y 0.000000 4.533470 0.000000 
#    z 0.000000 0.000000 3.579320 
# 
# 
# High freq. dielectric constant tensor:
#      x y z
#    x 1.876000 0.000000 0.000000 
#    y 0.000000 1.876000 0.000000 
#    z 0.000000 0.000000 1.869040 
# 
# From -- ./inp_files/2022.got.cif
#   From: 2010.03.12/outbox.cif.g09.slc.cpg/sg136_2_cif.got.tgz:2022.got - 2010.04.06 18:39:43.
