data_PCOD8318798
_publ_section_title
;
Structure prediction by ZEFSAII (Michael W. Deem and Ramdas Pophale) SiO2 
 PCOD8318798
Probable space group: P 42/N M C
;
_chemical_formula_sum "Si O2"
_cell_formula_units_Z 72
_cell_length_a 18.408488
_cell_length_b 18.408488
_cell_length_c 10.448293
_cell_angle_alpha 90.000000
_cell_angle_beta 90.000000
_cell_angle_gamma 90.000000
_cell_volume 3540.638443
_symmetry_space_group_name_H-M "P 42/N M C"
_symmetry_group_IT_number 137
_space_group.IT_coordinate_system_code '2'
_symmetry_cell_setting 'tetragonal'
loop_
_space_group_symop_operation_xyz
x,y,z
1/2-y,x,1/2+z
1/2-x,1/2-y,z
y,1/2-x,1/2+z
1/2+x,-y,-z
-x,1/2+y,-z
1/2+y,1/2+x,1/2-z
-y,-x,1/2-z
-x,-y,-z
1/2+y,-x,1/2-z
1/2+x,1/2+y,-z
-y,1/2+x,1/2-z
1/2-x,y,z
x,1/2-y,z
1/2-y,1/2-x,1/2+z
y,x,1/2+z
loop_
_atom_site_type_symbol
_atom_site_label
_atom_site_fract_x
_atom_site_fract_y
_atom_site_fract_z
Si Si1 0.897569 0.102432 0.250000
Si Si2 0.668166 0.166165 0.499564
Si Si3 0.836542 0.942459 0.259475
Si Si4 0.085114 0.410317 0.496027
Si Si5 0.436854 0.933844 0.108805
O O1 0.849634 0.126437 0.130933
O O2 0.982873 0.117611 0.228731
O O3 0.750000 0.138487 0.485656
O O4 0.664387 0.250000 0.534217
O O5 0.629474 0.123090 0.614245
O O6 0.750000 0.955085 0.264862
O O7 0.862233 0.893293 0.382151
O O8 0.857121 0.901340 0.125914
O O9 0.100239 0.493329 0.458700
O O10 0.000694 0.402205 0.532071
O O11 0.458995 0.958995 0.250000
#
# Coordination Sequence:
#
# PCOD8318798 Si02
#       5
#     8  16  16  16  16
#     4  12  20  35  62  96 134 166 210 259 308 382
#     4  11  23  36  53  86 136 182 213 249 306 383
#     4  12  24  42  71 103 130 168 220 273 334 397
#     4  11  22  40  64  95 128 164 218 279 328 385
#     4  11  21  36  60  88 125 178 223 265 316 372
#
# _framework density 20.335315000000001
#
# number of rings (size 3 to 8) (size 9 to 14) (size 15 to 20)
#    0.000    0.667    6.667    3.333    0.000    1.778 
#    0.000    2.222    0.000    2.000    0.000    0.000 
#    0.000    0.000    0.000    0.000    0.000    0.000 
#
# Total GULP energy -892711.849614 kJ/mol
# GULP energy per Si atom -12398.775689 kJ/mol
# Density = 2.028903 g / cm^3
# Si number density = 20.335315 Si / 1000 Ang^3
#
#
#
# Elastic Constant Matrix: (Units=GPa)
#
#
# Indices 1 2 3 4 5 6 
#
# 1 33.9832 79.6037 32.2140 0.0000 0.0000 0.0000
# 2 79.6037 33.9817 32.2137 0.0000 0.0000 0.0000
# 3 32.2140 32.2137 137.9687 0.0000 0.0000 0.0000
# 4 0.0000 0.0000 0.0000 23.9995 0.0000 0.0000
# 5 0.0000 0.0000 0.0000 0.0000 23.9997 0.0000
# 6 0.0000 0.0000 0.0000 0.0000 0.0000 29.4120
#
#
#
# Elastic Compliance Matrix: (Units=1/GPa)
#
#
# Indices 1 2 3 4 5 6 
#
# 1 -0.005886 0.016034 -0.002369 0.000000 0.000000 0.000000
# 2 0.016034 -0.005886 -0.002369 0.000000 0.000000 0.000000
# 3 -0.002369 -0.002369 0.008354 0.000000 0.000000 0.000000
# 4 0.000000 0.000000 0.000000 0.041668 0.000000 0.000000
# 5 0.000000 0.000000 0.000000 0.000000 0.041667 0.000000
# 6 0.000000 0.000000 0.000000 0.000000 0.000000 0.034000
#
#
# Mechanical properties :
#
#
# Convention : Reuss Voigt Hill
#
# Bulk Modulus (GPa) = 52.15775 54.88846 53.52310
# Shear Modulus (GPa) = 51.16758 19.60905 35.38832
#
# Velocity S-wave (km/s) = 5.02161 3.10866 4.17614
# Velocity P-wave (km/s) = 7.70238 6.31944 7.04493
#
# Compressibility (1/GPa) = 0.01917261
#
# Stress axis : x y z
#
# Youngs Moduli (GPa) = -169.90243 -169.89364 119.69652
#
# Poissons Ratio (x) = 2.72403 0.28361
# Poissons Ratio (y) = 2.72417 0.28361
# Poissons Ratio (z) = -0.40257 -0.40254
#
# Static dielectric constant tensor:
#      x y z
#    x 3.506250 0.000000 0.000000 
#    y 0.000000 3.506270 0.000000 
#    z 0.000000 0.000000 3.989600 
# 
# 
# High freq. dielectric constant tensor:
#      x y z
#    x 1.771020 0.000000 0.000000 
#    y 0.000000 1.771020 0.000000 
#    z 0.000000 0.000000 1.815860 
# 
# From -- ./inp_files/3479.got.cif
#   From: 2010.03.12/outbox.cif.g09.slc.cpg/sg137_2_cif.got.tgz:3479.got - 2010.04.08 09:34:49.
