data_PCOD8318724
_publ_section_title
;
Structure prediction by ZEFSAII (Michael W. Deem and Ramdas Pophale) SiO2 
 PCOD8318724
Probable space group: P 42/N M C
;
_chemical_formula_sum "Si O2"
_cell_formula_units_Z 112
_cell_length_a 16.280006
_cell_length_b 16.280006
_cell_length_c 20.146240
_cell_angle_alpha 90.000000
_cell_angle_beta 90.000000
_cell_angle_gamma 90.000000
_cell_volume 5339.531151
_symmetry_space_group_name_H-M "P 42/N M C"
_symmetry_group_IT_number 137
_space_group.IT_coordinate_system_code '2'
_symmetry_cell_setting 'tetragonal'
loop_
_space_group_symop_operation_xyz
x,y,z
1/2-y,x,1/2+z
1/2-x,1/2-y,z
y,1/2-x,1/2+z
1/2+x,-y,-z
-x,1/2+y,-z
1/2+y,1/2+x,1/2-z
-y,-x,1/2-z
-x,-y,-z
1/2+y,-x,1/2-z
1/2+x,1/2+y,-z
-y,1/2+x,1/2-z
1/2-x,y,z
x,1/2-y,z
1/2-y,1/2-x,1/2+z
y,x,1/2+z
loop_
_atom_site_type_symbol
_atom_site_label
_atom_site_fract_x
_atom_site_fract_y
_atom_site_fract_z
Si Si1 0.845593 0.340774 0.063880
Si Si2 0.094599 0.841915 0.421957
Si Si3 0.944736 0.574389 0.243651
Si Si4 0.517247 0.842963 0.115654
Si Si5 0.923757 0.343913 0.307232
Si Si6 0.840569 0.910030 0.878409
Si Si7 0.156271 0.154877 0.982723
O O1 0.750000 0.330253 0.079154
O O2 0.885314 0.250000 0.055497
O O3 0.886199 0.388444 0.125836
O O4 0.861869 0.394231 0.999128
O O5 0.134716 0.750000 0.405028
O O6 0.000406 0.834757 0.406742
O O7 0.127283 0.922296 0.384274
O O8 0.951075 0.648676 0.191344
O O9 0.885696 0.507866 0.212126
O O10 0.906335 0.601590 0.313922
O O11 0.035520 0.535520 0.250000
O O12 0.513517 0.750000 0.093898
O O13 0.585175 0.885110 0.065456
O O14 0.855884 0.355884 0.250000
O O15 0.943794 0.250000 0.319169
O O16 0.750000 0.879513 0.856602
O O17 0.872691 0.855728 0.940367
O O18 0.250000 0.117117 0.972537
O O19 0.162339 0.250000 0.965510
#
# Coordination Sequence:
#
# PCOD8318724 Si02
#       7
#    16  16  16  16  16  16  16
#     4   9  18  34  56  85 122 158 195 245 304 370
#     4  10  21  37  62  93 120 156 204 255 316 381
#     4  11  23  40  56  85 123 161 206 253 300 371
#     4  11  23  39  64  90 122 163 202 258 319 370
#     4  10  22  37  58  86 121 163 203 249 304 372
#     4  10  21  40  65  87 120 166 207 258 318 371
#     4   9  21  41  63  91 123 160 210 260 310 375
#
# _framework density 20.975624
#
# number of rings (size 3 to 8) (size 9 to 14) (size 15 to 20)
#    0.000    2.000    1.429    1.286    2.000    5.571 
#    0.000    1.429    0.000    4.286    0.000    0.000 
#    0.000    0.000    0.000    0.000    0.000    0.000 
#
# Total GULP energy -1387462.395290 kJ/mol
# GULP energy per Si atom -12388.057101 kJ/mol
# Density = 2.092788 g / cm^3
# Si number density = 20.975624 Si / 1000 Ang^3
#
#
#
# Elastic Constant Matrix: (Units=GPa)
#
#
# Indices 1 2 3 4 5 6 
#
# 1 62.2984 26.0947 28.8081 0.0000 0.0000 0.0000
# 2 26.0947 62.2984 28.8081 0.0000 0.0000 0.0000
# 3 28.8081 28.8081 116.1530 0.0000 0.0000 0.0000
# 4 0.0000 0.0000 0.0000 34.4618 0.0000 0.0000
# 5 0.0000 0.0000 0.0000 0.0000 34.4618 0.0000
# 6 0.0000 0.0000 0.0000 0.0000 0.0000 22.5955
#
#
#
# Elastic Compliance Matrix: (Units=1/GPa)
#
#
# Indices 1 2 3 4 5 6 
#
# 1 0.020558 -0.007063 -0.003347 0.000000 0.000000 0.000000
# 2 -0.007063 0.020558 -0.003347 0.000000 0.000000 0.000000
# 3 -0.003347 -0.003347 0.010270 0.000000 0.000000 0.000000
# 4 0.000000 0.000000 0.000000 0.029018 0.000000 0.000000
# 5 0.000000 0.000000 0.000000 0.000000 0.029018 0.000000
# 6 0.000000 0.000000 0.000000 0.000000 0.000000 0.044257
#
#
# Mechanical properties :
#
#
# Convention : Reuss Voigt Hill
#
# Bulk Modulus (GPa) = 41.89150 45.35239 43.62194
# Shear Modulus (GPa) = 26.43414 28.77306 27.60360
#
# Velocity S-wave (km/s) = 3.55383 3.70772 3.63159
# Velocity P-wave (km/s) = 6.07079 6.32439 6.19889
#
# Compressibility (1/GPa) = 0.02387119
#
# Stress axis : x y z
#
# Youngs Moduli (GPa) = 48.64259 48.64259 97.37538
#
# Poissons Ratio (x) = 0.34358 0.32591
# Poissons Ratio (y) = 0.34358 0.32591
# Poissons Ratio (z) = 0.16280 0.16280
#
# Static dielectric constant tensor:
#      x y z
#    x 4.105540 0.000000 0.000000 
#    y 0.000000 4.105540 0.000000 
#    z 0.000000 0.000000 3.966200 
# 
# 
# High freq. dielectric constant tensor:
#      x y z
#    x 1.811970 0.000000 0.000000 
#    y 0.000000 1.811970 0.000000 
#    z 0.000000 0.000000 1.825890 
# 
# From -- ./inp_files/8091.got.cif
#   From: 2010.03.12/outbox.cif.g09.slc.cpg/sg137_5_cif.got.tgz:8091.got - 2010.04.08 09:34:49.
