data_PCOD8318571
_publ_section_title
;
Structure prediction by ZEFSAII (Michael W. Deem and Ramdas Pophale) SiO2 
 PCOD8318571
Probable space group: P 42/N M C
;
_chemical_formula_sum "Si O2"
_cell_formula_units_Z 96
_cell_length_a 15.534159
_cell_length_b 15.534159
_cell_length_c 22.583829
_cell_angle_alpha 90.000000
_cell_angle_beta 90.000000
_cell_angle_gamma 90.000000
_cell_volume 5449.705940
_symmetry_space_group_name_H-M "P 42/N M C"
_symmetry_group_IT_number 137
_space_group.IT_coordinate_system_code '2'
_symmetry_cell_setting 'tetragonal'
loop_
_space_group_symop_operation_xyz
x,y,z
1/2-y,x,1/2+z
1/2-x,1/2-y,z
y,1/2-x,1/2+z
1/2+x,-y,-z
-x,1/2+y,-z
1/2+y,1/2+x,1/2-z
-y,-x,1/2-z
-x,-y,-z
1/2+y,-x,1/2-z
1/2+x,1/2+y,-z
-y,1/2+x,1/2-z
1/2-x,y,z
x,1/2-y,z
1/2-y,1/2-x,1/2+z
y,x,1/2+z
loop_
_atom_site_type_symbol
_atom_site_label
_atom_site_fract_x
_atom_site_fract_y
_atom_site_fract_z
Si Si1 0.003250 0.590768 0.898260
Si Si2 0.345686 0.573269 0.482001
Si Si3 0.349704 0.344744 0.798778
Si Si4 0.084573 0.086834 0.417049
Si Si5 0.988226 0.150328 0.230922
Si Si6 0.520895 0.844432 0.462816
O O1 0.063412 0.507769 0.888874
O O2 0.000438 0.647282 0.839523
O O3 0.908224 0.557436 0.913797
O O4 0.037981 0.649600 0.951223
O O5 0.250000 0.611435 0.471442
O O6 0.362517 0.497460 0.435311
O O7 0.418282 0.645093 0.472260
O O8 0.250000 0.340618 0.784157
O O9 0.390119 0.250000 0.782886
O O10 0.361999 0.361332 0.868556
O O11 0.388441 0.424023 0.760435
O O12 0.069617 0.144524 0.474900
O O13 0.906094 0.093907 0.250000
O O14 0.972418 0.250000 0.249928
O O15 0.538940 0.750000 0.438137
#
# Coordination Sequence:
#
# PCOD8318571 Si02
#       6
#    16  16  16  16  16  16
#     4   9  18  33  51  70  98 138 176 208 252 310
#     4   9  17  29  48  74 101 132 170 207 249 307
#     4  10  20  32  50  76 101 130 172 220 263 305
#     4   9  16  31  51  70  98 134 169 207 253 309
#     4  11  22  37  56  76 106 142 178 220 265 314
#     4   9  18  30  49  75 103 135 167 206 260 313
#
# _framework density 17.615628999999998
#
# number of rings (size 3 to 8) (size 9 to 14) (size 15 to 20)
#    0.000    2.500    1.667    3.500    0.000    1.167 
#    0.000    0.000    0.000   11.500    0.000    0.000 
#    0.000    0.333    0.000    0.000    0.000    0.000 
#
# Total GULP energy -1189899.667418 kJ/mol
# GULP energy per Si atom -12394.788202 kJ/mol
# Density = 1.757554 g / cm^3
# Si number density = 17.615629 Si / 1000 Ang^3
#
#
#
# Elastic Constant Matrix: (Units=GPa)
#
#
# Indices 1 2 3 4 5 6 
#
# 1 82.1432 19.9376 12.5289 0.0000 0.0000 0.0000
# 2 19.9376 82.1421 12.5288 0.0000 0.0000 0.0000
# 3 12.5289 12.5288 64.2933 0.0000 0.0000 0.0000
# 4 0.0000 0.0000 0.0000 18.5870 0.0000 0.0000
# 5 0.0000 0.0000 0.0000 0.0000 18.5873 0.0000
# 6 0.0000 0.0000 0.0000 0.0000 0.0000 13.0224
#
#
#
# Elastic Compliance Matrix: (Units=1/GPa)
#
#
# Indices 1 2 3 4 5 6 
#
# 1 0.013182 -0.002894 -0.002005 0.000000 0.000000 0.000000
# 2 -0.002894 0.013182 -0.002005 0.000000 0.000000 0.000000
# 3 -0.002005 -0.002005 0.016335 0.000000 0.000000 0.000000
# 4 0.000000 0.000000 0.000000 0.053801 0.000000 0.000000
# 5 0.000000 0.000000 0.000000 0.000000 0.053800 0.000000
# 6 0.000000 0.000000 0.000000 0.000000 0.000000 0.076791
#
#
# Mechanical properties :
#
#
# Convention : Reuss Voigt Hill
#
# Bulk Modulus (GPa) = 34.61139 35.39660 35.00399
# Shear Modulus (GPa) = 19.95778 22.27824 21.11801
#
# Velocity S-wave (km/s) = 3.36960 3.56010 3.46616
# Velocity P-wave (km/s) = 5.90167 6.08577 5.99442
#
# Compressibility (1/GPa) = 0.02889223
#
# Stress axis : x y z
#
# Youngs Moduli (GPa) = 75.86092 75.85985 61.21786
#
# Poissons Ratio (x) = 0.21952 0.12274
# Poissons Ratio (y) = 0.21952 0.12274
# Poissons Ratio (z) = 0.15209 0.15209
#
# Static dielectric constant tensor:
#      x y z
#    x 3.211130 0.000000 0.000000 
#    y 0.000000 3.211130 0.000000 
#    z 0.000000 0.000000 3.110390 
# 
# 
# High freq. dielectric constant tensor:
#      x y z
#    x 1.671890 0.000000 0.000000 
#    y 0.000000 1.671890 0.000000 
#    z 0.000000 0.000000 1.671850 
# 
# From -- ./inp_files/7802.got.cif
#   From: 2010.03.12/outbox.cif.g09.slc.cpg/sg137_4_cif.got.tgz:7802.got - 2010.04.08 09:34:49.
