data_PCOD8318608
_publ_section_title
;
Structure prediction by ZEFSAII (Michael W. Deem and Ramdas Pophale) SiO2 
 PCOD8318608
Probable space group: P 42/N M C
;
_chemical_formula_sum "Si O2"
_cell_formula_units_Z 104
_cell_length_a 18.085211
_cell_length_b 18.085211
_cell_length_c 17.327296
_cell_angle_alpha 90.000000
_cell_angle_beta 90.000000
_cell_angle_gamma 90.000000
_cell_volume 5667.322860
_symmetry_space_group_name_H-M "P 42/N M C"
_symmetry_group_IT_number 137
_space_group.IT_coordinate_system_code '2'
_symmetry_cell_setting 'tetragonal'
loop_
_space_group_symop_operation_xyz
x,y,z
1/2-y,x,1/2+z
1/2-x,1/2-y,z
y,1/2-x,1/2+z
1/2+x,-y,-z
-x,1/2+y,-z
1/2+y,1/2+x,1/2-z
-y,-x,1/2-z
-x,-y,-z
1/2+y,-x,1/2-z
1/2+x,1/2+y,-z
-y,1/2+x,1/2-z
1/2-x,y,z
x,1/2-y,z
1/2-y,1/2-x,1/2+z
y,x,1/2+z
loop_
_atom_site_type_symbol
_atom_site_label
_atom_site_fract_x
_atom_site_fract_y
_atom_site_fract_z
Si Si1 0.333909 0.062971 0.426319
Si Si2 0.094868 0.165376 0.638118
Si Si3 0.333185 0.833185 0.750000
Si Si4 0.833894 0.541186 0.026880
Si Si5 0.592278 0.055075 0.145415
Si Si6 0.330885 0.025090 0.595847
Si Si7 0.415656 0.475688 0.279823
O O1 0.250000 0.085950 0.406408
O O2 0.381084 0.137589 0.438373
O O3 0.337355 0.014118 0.503856
O O4 0.368523 0.013539 0.357831
O O5 0.122650 0.250000 0.646614
O O6 0.037803 0.158553 0.565976
O O7 0.163690 0.111755 0.618934
O O8 0.057256 0.139441 0.716693
O O9 0.343953 0.750000 0.781707
O O10 0.345854 0.891676 0.818642
O O11 0.750000 0.533216 0.054272
O O12 0.880599 0.473310 0.062174
O O13 0.517231 0.101905 0.136193
O O14 0.577321 0.986395 0.202888
O O15 0.250000 0.996776 0.623547
O O16 0.444989 0.555011 0.250000
#
# Coordination Sequence:
#
# PCOD8318608 Si02
#       7
#    16  16   8  16  16  16  16
#     4   9  20  34  52  78 110 141 180 224 271 329
#     4  10  20  35  53  79 111 141 182 224 270 332
#     4  11  22  34  50  72 100 134 168 214 273 326
#     4   9  20  34  55  79 106 146 182 224 273 319
#     4  11  20  35  54  77 107 137 183 228 264 324
#     4  10  20  35  55  79 107 147 184 224 277 325
#     4  11  20  32  54  79 105 142 173 224 273 313
#
# _framework density 18.350815999999998
#
# number of rings (size 3 to 8) (size 9 to 14) (size 15 to 20)
#    0.000    1.923    2.308    1.385    2.154    2.462 
#    0.000    6.154    0.000    3.692    0.000    0.000 
#    0.000    4.923    0.000    0.000    0.000    0.000 
#
# Total GULP energy -1289164.155601 kJ/mol
# GULP energy per Si atom -12395.809188 kJ/mol
# Density = 1.830905 g / cm^3
# Si number density = 18.350816 Si / 1000 Ang^3
#
#
#
# Elastic Constant Matrix: (Units=GPa)
#
#
# Indices 1 2 3 4 5 6 
#
# 1 97.5708 39.2893 33.2207 0.0000 0.0000 0.0000
# 2 39.2893 97.5708 33.2207 0.0000 0.0000 0.0000
# 3 33.2207 33.2207 95.7626 0.0000 0.0000 0.0000
# 4 0.0000 0.0000 0.0000 25.4956 0.0000 0.0000
# 5 0.0000 0.0000 0.0000 0.0000 25.4956 0.0000
# 6 0.0000 0.0000 0.0000 0.0000 0.0000 21.3522
#
#
#
# Elastic Compliance Matrix: (Units=1/GPa)
#
#
# Indices 1 2 3 4 5 6 
#
# 1 0.012972 -0.004186 -0.003048 0.000000 0.000000 0.000000
# 2 -0.004186 0.012972 -0.003048 0.000000 0.000000 0.000000
# 3 -0.003048 -0.003048 0.012557 0.000000 0.000000 0.000000
# 4 0.000000 0.000000 0.000000 0.039222 0.000000 0.000000
# 5 0.000000 0.000000 0.000000 0.000000 0.039222 0.000000
# 6 0.000000 0.000000 0.000000 0.000000 0.000000 0.046834
#
#
# Mechanical properties :
#
#
# Convention : Reuss Voigt Hill
#
# Bulk Modulus (GPa) = 55.74791 55.81844 55.78317
# Shear Modulus (GPa) = 26.27103 26.81357 26.54230
#
# Velocity S-wave (km/s) = 3.78775 3.82667 3.80726
# Velocity P-wave (km/s) = 7.04091 7.07163 7.05628
#
# Compressibility (1/GPa) = 0.01793789
#
# Stress axis : x y z
#
# Youngs Moduli (GPa) = 77.08738 77.08738 79.63496
#
# Poissons Ratio (x) = 0.32267 0.24273
# Poissons Ratio (y) = 0.32267 0.24273
# Poissons Ratio (z) = 0.23497 0.23497
#
# Static dielectric constant tensor:
#      x y z
#    x 3.320300 0.000000 0.000000 
#    y 0.000000 3.320300 0.000000 
#    z 0.000000 0.000000 3.535630 
# 
# 
# High freq. dielectric constant tensor:
#      x y z
#    x 1.696920 0.000000 0.000000 
#    y 0.000000 1.696920 0.000000 
#    z 0.000000 0.000000 1.723860 
# 
# From -- ./inp_files/6611.got.cif
#   From: 2010.03.12/outbox.cif.g09.slc.cpg/sg137_4_cif.got.tgz:6611.got - 2010.04.08 09:34:49.
