data_PCOD8318058
_publ_section_title
;
Structure prediction by ZEFSAII (Michael W. Deem and Ramdas Pophale) SiO2 
 PCOD8318058
Probable space group: P 42/M N M
;
_chemical_formula_sum "Si O2"
_cell_formula_units_Z 56
_cell_length_a 17.013765
_cell_length_b 17.013765
_cell_length_c 10.120324
_cell_angle_alpha 90.000000
_cell_angle_beta 90.000000
_cell_angle_gamma 90.000000
_cell_volume 2929.511966
_symmetry_space_group_name_H-M "P 42/M N M"
_symmetry_group_IT_number 136
_symmetry_cell_setting 'tetragonal'
loop_
_space_group_symop_operation_xyz
x,y,z
1/2-y,1/2+x,1/2+z
-x,-y,z
1/2+y,1/2-x,1/2+z
1/2+x,1/2-y,1/2-z
1/2-x,1/2+y,1/2-z
y,x,-z
-y,-x,-z
-x,-y,-z
1/2+y,1/2-x,1/2-z
x,y,-z
1/2-y,1/2+x,1/2-z
1/2-x,1/2+y,1/2+z
1/2+x,1/2-y,1/2+z
-y,-x,z
y,x,z
loop_
_atom_site_type_symbol
_atom_site_label
_atom_site_fract_x
_atom_site_fract_y
_atom_site_fract_z
Si Si1 0.441381 0.687728 0.733474
Si Si2 0.229518 0.898045 0.144676
Si Si3 0.188731 0.680815 0.648935
Si Si4 0.627204 0.502591 0.000000
O O1 0.389668 0.610333 0.698957
O O2 0.512792 0.698534 0.632778
O O3 0.388925 0.765660 0.723469
O O4 0.483648 0.681632 0.875311
O O5 0.155026 0.844975 0.179673
O O6 0.296303 0.885042 0.257363
O O7 0.264061 0.875629 0.000000
O O8 0.161016 0.656662 0.500000
O O9 0.245443 0.754558 0.636682
O O10 0.592853 0.592853 0.000000
O O11 0.552978 0.447023 0.000000
#
# Coordination Sequence:
#
# PCOD8318058 Si02
#       4
#    16  16  16   8
#     4  10  20  34  55  79 109 148 186 224 275 339
#     4  10  21  34  52  80 112 141 176 229 282 330
#     4   9  19  35  54  75 104 145 190 229 270 330
#     4   9  18  30  48  80 116 145 175 219 274 335
#
# _framework density 19.115811999999998
#
# number of rings (size 3 to 8) (size 9 to 14) (size 15 to 20)
#    0.000    2.429    0.000    1.714    4.000    3.429 
#    0.000    1.429    0.000    0.857    0.000    4.000 
#    0.000    0.000    0.000    0.000    0.000    0.000 
#
# Total GULP energy -693877.855550 kJ/mol
# GULP energy per Si atom -12390.675992 kJ/mol
# Density = 1.907230 g / cm^3
# Si number density = 19.115812 Si / 1000 Ang^3
#
#
#
# Elastic Constant Matrix: (Units=GPa)
#
#
# Indices 1 2 3 4 5 6 
#
# 1 74.8639 50.7266 52.7732 0.0000 0.0000 0.0000
# 2 50.7266 74.8636 52.7732 0.0000 0.0000 0.0000
# 3 52.7732 52.7732 125.0375 0.0000 0.0000 0.0000
# 4 0.0000 0.0000 0.0000 23.8334 0.0000 0.0000
# 5 0.0000 0.0000 0.0000 0.0000 23.8339 0.0000
# 6 0.0000 0.0000 0.0000 0.0000 0.0000 32.2650
#
#
#
# Elastic Compliance Matrix: (Units=1/GPa)
#
#
# Indices 1 2 3 4 5 6 
#
# 1 0.026884 -0.014545 -0.005208 0.000000 0.000000 0.000000
# 2 -0.014545 0.026885 -0.005208 0.000000 0.000000 0.000000
# 3 -0.005208 -0.005208 0.012394 0.000000 0.000000 0.000000
# 4 0.000000 0.000000 0.000000 0.041958 0.000000 0.000000
# 5 0.000000 0.000000 0.000000 0.000000 0.041957 0.000000
# 6 0.000000 0.000000 0.000000 0.000000 0.000000 0.030993
#
#
# Mechanical properties :
#
#
# Convention : Reuss Voigt Hill
#
# Bulk Modulus (GPa) = 61.57457 65.25680 63.41568
# Shear Modulus (GPa) = 21.15001 23.88592 22.51796
#
# Velocity S-wave (km/s) = 3.32989 3.53871 3.43589
# Velocity P-wave (km/s) = 6.86043 7.13501 6.99907
#
# Compressibility (1/GPa) = 0.01624047
#
# Stress axis : x y z
#
# Youngs Moduli (GPa) = 37.19628 37.19609 80.68679
#
# Poissons Ratio (x) = 0.54103 0.42020
# Poissons Ratio (y) = 0.54104 0.42020
# Poissons Ratio (z) = 0.19371 0.19371
#
# Static dielectric constant tensor:
#      x y z
#    x 3.329330 0.000000 0.000000 
#    y 0.000000 3.329330 0.000000 
#    z 0.000000 0.000000 3.872080 
# 
# 
# High freq. dielectric constant tensor:
#      x y z
#    x 1.714400 0.000000 0.000000 
#    y 0.000000 1.714400 0.000000 
#    z 0.000000 0.000000 1.761130 
# 
# From -- ./inp_files/1134.got.cif
#   From: 2010.03.12/outbox.cif.g09.slc.cpg/sg136_1_cif.got.tgz:1134.got - 2010.04.06 18:39:43.
