data_PCOD8318285
_publ_section_title
;
Structure prediction by ZEFSAII (Michael W. Deem and Ramdas Pophale) SiO2 
 PCOD8318285
Probable space group: P 42/M N M
;
_chemical_formula_sum "Si O2"
_cell_formula_units_Z 88
_cell_length_a 12.316276
_cell_length_b 12.316276
_cell_length_c 28.380521
_cell_angle_alpha 90.000000
_cell_angle_beta 90.000000
_cell_angle_gamma 90.000000
_cell_volume 4305.059806
_symmetry_space_group_name_H-M "P 42/M N M"
_symmetry_group_IT_number 136
_symmetry_cell_setting 'tetragonal'
loop_
_space_group_symop_operation_xyz
x,y,z
1/2-y,1/2+x,1/2+z
-x,-y,z
1/2+y,1/2-x,1/2+z
1/2+x,1/2-y,1/2-z
1/2-x,1/2+y,1/2-z
y,x,-z
-y,-x,-z
-x,-y,-z
1/2+y,1/2-x,1/2-z
x,y,-z
1/2-y,1/2+x,1/2-z
1/2-x,1/2+y,1/2+z
1/2+x,1/2-y,1/2+z
-y,-x,z
y,x,z
loop_
_atom_site_type_symbol
_atom_site_label
_atom_site_fract_x
_atom_site_fract_y
_atom_site_fract_z
Si Si1 0.590313 0.409688 0.945631
Si Si2 0.891302 0.431241 0.448528
Si Si3 0.076940 0.742296 0.110977
Si Si4 0.739550 0.442116 0.703231
Si Si5 0.088684 0.734344 0.292009
Si Si6 0.208439 0.525504 0.115188
O O1 0.500000 0.500000 0.939039
O O2 0.552578 0.300658 0.921587
O O3 0.614965 0.385036 0.000000
O O4 0.866052 0.378230 0.500000
O O5 0.784877 0.501592 0.434277
O O6 0.000000 0.500000 0.454071
O O7 0.917179 0.346470 0.406831
O O8 0.164584 0.835417 0.098360
O O9 0.132612 0.628707 0.123949
O O10 0.001345 0.780727 0.153733
O O11 0.642448 0.357553 0.712479
O O12 0.738806 0.534805 0.742478
O O13 0.857764 0.385384 0.706205
O O14 0.182739 0.817262 0.302791
O O15 0.000520 0.751031 0.332915
#
# Coordination Sequence:
#
# PCOD8318285 Si02
#       6
#     8  16  16  16  16  16
#     4  11  24  40  62  98 141 175 205 261 331 385
#     4   9  19  36  61  92 125 163 211 263 315 368
#     4  11  22  39  62  92 127 168 214 268 321 373
#     4  11  25  43  63  91 125 163 209 264 324 386
#     4  11  24  40  63  90 121 163 208 255 316 385
#     4  11  21  40  64  92 129 167 216 262 314 389
#
# _framework density 20.441063
#
# number of rings (size 3 to 8) (size 9 to 14) (size 15 to 20)
#    0.000    1.364    2.727    2.727    1.273    5.818 
#    0.000    0.000    0.000    1.636    0.000    1.273 
#    0.000    0.000    0.000    0.000    0.000    0.000 
#
# Total GULP energy -1091044.605897 kJ/mol
# GULP energy per Si atom -12398.234158 kJ/mol
# Density = 2.039454 g / cm^3
# Si number density = 20.441063 Si / 1000 Ang^3
#
#
#
# Elastic Constant Matrix: (Units=GPa)
#
#
# Indices 1 2 3 4 5 6 
#
# 1 74.2440 24.0548 12.1178 0.0000 0.0000 0.0000
# 2 24.0548 74.2442 12.1180 0.0000 0.0000 0.0000
# 3 12.1178 12.1180 78.7244 0.0000 0.0000 0.0000
# 4 0.0000 0.0000 0.0000 21.9985 0.0000 0.0000
# 5 0.0000 0.0000 0.0000 0.0000 21.9988 0.0000
# 6 0.0000 0.0000 0.0000 0.0000 0.0000 38.6380
#
#
#
# Elastic Compliance Matrix: (Units=1/GPa)
#
#
# Indices 1 2 3 4 5 6 
#
# 1 0.015249 -0.004675 -0.001628 0.000000 0.000000 0.000000
# 2 -0.004675 0.015249 -0.001628 0.000000 0.000000 0.000000
# 3 -0.001628 -0.001628 0.013204 0.000000 0.000000 0.000000
# 4 0.000000 0.000000 0.000000 0.045458 0.000000 0.000000
# 5 0.000000 0.000000 0.000000 0.000000 0.045457 0.000000
# 6 0.000000 0.000000 0.000000 0.000000 0.000000 0.025881
#
#
# Mechanical properties :
#
#
# Convention : Reuss Voigt Hill
#
# Bulk Modulus (GPa) = 35.91748 35.97709 35.94729
# Shear Modulus (GPa) = 26.93384 28.45518 27.69451
#
# Velocity S-wave (km/s) = 3.63386 3.73508 3.68482
# Velocity P-wave (km/s) = 5.93431 6.01994 5.97728
#
# Compressibility (1/GPa) = 0.02784159
#
# Stress axis : x y z
#
# Youngs Moduli (GPa) = 65.57599 65.57612 75.73667
#
# Poissons Ratio (x) = 0.30657 0.12327
# Poissons Ratio (y) = 0.30657 0.12328
# Poissons Ratio (z) = 0.10674 0.10674
#
# Static dielectric constant tensor:
#      x y z
#    x 3.953310 0.000000 0.000000 
#    y 0.000000 3.953330 0.000000 
#    z 0.000000 0.000000 3.806490 
# 
# 
# High freq. dielectric constant tensor:
#      x y z
#    x 1.794210 0.000000 0.000000 
#    y 0.000000 1.794210 0.000000 
#    z 0.000000 0.000000 1.810270 
# 
# From -- ./inp_files/9748.got.cif
#   From: 2010.03.12/outbox.cif.g09.slc.cpg/sg136_5_cif.got.tgz:9748.got - 2010.04.06 18:39:43.
