data_PCOD8318965
_publ_section_title
;
Structure prediction by ZEFSAII (Michael W. Deem and Ramdas Pophale) SiO2 
 PCOD8318965
Probable space group: P 42/N C M
;
_chemical_formula_sum "Si O2"
_cell_formula_units_Z 68
_cell_length_a 11.285684
_cell_length_b 11.285684
_cell_length_c 26.288085
_cell_angle_alpha 90.000000
_cell_angle_beta 90.000000
_cell_angle_gamma 90.000000
_cell_volume 3348.225672
_symmetry_space_group_name_H-M "P 42/N C M"
_symmetry_group_IT_number 138
_space_group.IT_coordinate_system_code '2'
_symmetry_cell_setting 'tetragonal'
loop_
_space_group_symop_operation_xyz
x,y,z
1/2-y,x,1/2+z
1/2-x,1/2-y,z
y,1/2-x,1/2+z
1/2+x,-y,1/2-z
-x,1/2+y,1/2-z
1/2+y,1/2+x,-z
-y,-x,-z
-x,-y,-z
1/2+y,-x,1/2-z
1/2+x,1/2+y,-z
-y,1/2+x,1/2-z
1/2-x,y,1/2+z
x,1/2-y,1/2+z
1/2-y,1/2-x,z
y,x,z
loop_
_atom_site_type_symbol
_atom_site_label
_atom_site_fract_x
_atom_site_fract_y
_atom_site_fract_z
Si Si1 0.703874 0.983448 0.887560
Si Si2 0.192111 0.493055 0.500482
Si Si3 0.250000 0.750000 0.250000
Si Si4 0.401661 0.590455 0.174623
Si Si5 0.386509 0.779060 0.092432
O O1 0.638423 0.861578 0.874650
O O2 0.812671 0.993207 0.848824
O O3 0.613548 0.093715 0.879753
O O4 0.744755 0.985446 0.945729
O O5 0.134389 0.365612 0.487974
O O6 0.286186 0.529978 0.457204
O O7 0.091379 0.591379 0.500000
O O8 0.337195 0.665974 0.218096
O O9 0.517994 0.517994 0.194334
O O10 0.440276 0.680636 0.130166
O O11 0.250000 0.750000 0.077568
#
# Coordination Sequence:
#
# PCOD8318965 Si02
#       5
#    16  16   4  16  16
#     4  11  23  38  60  94 133 170 214 264 320 384
#     4  11  20  31  54  87 125 169 214 254 300 373
#     4  12  24  48  68 106 124 164 220 276 340 410
#     4  11  23  43  71  95 123 164 213 268 326 390
#     4  10  19  36  59  87 121 166 214 249 306 380
#
# _framework density 20.309265
#
# number of rings (size 3 to 8) (size 9 to 14) (size 15 to 20)
#    0.000    1.176    8.235    2.118    0.000    4.706 
#    0.000    0.000    0.000    3.529    0.000    0.000 
#    0.000    0.000    0.000    0.000    0.000    0.000 
#
# Total GULP energy -842927.291644 kJ/mol
# GULP energy per Si atom -12395.989583 kJ/mol
# Density = 2.026304 g / cm^3
# Si number density = 20.309265 Si / 1000 Ang^3
#
#
#
# Elastic Constant Matrix: (Units=GPa)
#
#
# Indices 1 2 3 4 5 6 
#
# 1 61.7711 57.2567 27.6071 0.0000 0.0000 0.0000
# 2 57.2567 61.7711 27.6071 0.0000 0.0000 0.0000
# 3 27.6071 27.6071 83.8338 0.0000 0.0000 0.0000
# 4 0.0000 0.0000 0.0000 15.8626 0.0000 0.0000
# 5 0.0000 0.0000 0.0000 0.0000 15.8626 0.0000
# 6 0.0000 0.0000 0.0000 0.0000 0.0000 50.9513
#
#
#
# Elastic Compliance Matrix: (Units=1/GPa)
#
#
# Indices 1 2 3 4 5 6 
#
# 1 0.115715 -0.105799 -0.003265 0.000000 0.000000 0.000000
# 2 -0.105799 0.115715 -0.003265 0.000000 0.000000 0.000000
# 3 -0.003265 -0.003265 0.014079 0.000000 0.000000 0.000000
# 4 0.000000 0.000000 0.000000 0.063041 0.000000 0.000000
# 5 0.000000 0.000000 0.000000 0.000000 0.063041 0.000000
# 6 0.000000 0.000000 0.000000 0.000000 0.000000 0.019627
#
#
# Mechanical properties :
#
#
# Convention : Reuss Voigt Hill
#
# Bulk Modulus (GPa) = 47.96271 48.03528 47.99899
# Shear Modulus (GPa) = 8.02791 22.86234 15.44513
#
# Velocity S-wave (km/s) = 1.99033 3.35880 2.76070
# Velocity P-wave (km/s) = 5.38046 6.22457 5.81784
#
# Compressibility (1/GPa) = 0.02084953
#
# Stress axis : x y z
#
# Youngs Moduli (GPa) = 8.64193 8.64193 71.02758
#
# Poissons Ratio (x) = 0.91431 0.23194
# Poissons Ratio (y) = 0.91431 0.23194
# Poissons Ratio (z) = 0.02822 0.02822
#
# Static dielectric constant tensor:
#      x y z
#    x 3.995930 0.000000 0.000000 
#    y 0.000000 3.995930 0.000000 
#    z 0.000000 0.000000 3.643280 
# 
# 
# High freq. dielectric constant tensor:
#      x y z
#    x 1.784820 0.000000 0.000000 
#    y 0.000000 1.784820 0.000000 
#    z 0.000000 0.000000 1.773190 
# 
# From -- ./inp_files/7417.got.cif
#   From: 2010.03.12/outbox.cif.g09.slc.cpg/sg138_4_cif.got.tgz:7417.got - 2010.04.08 09:41:05.
