data_PCOD8318645
_publ_section_title
;
Structure prediction by ZEFSAII (Michael W. Deem and Ramdas Pophale) SiO2 
 PCOD8318645
Probable space group: P 42/N M C
;
_chemical_formula_sum "Si O2"
_cell_formula_units_Z 72
_cell_length_a 14.305467
_cell_length_b 14.305467
_cell_length_c 18.785435
_cell_angle_alpha 90.000000
_cell_angle_beta 90.000000
_cell_angle_gamma 90.000000
_cell_volume 3844.371384
_symmetry_space_group_name_H-M "P 42/N M C"
_symmetry_group_IT_number 137
_space_group.IT_coordinate_system_code '2'
_symmetry_cell_setting 'tetragonal'
loop_
_space_group_symop_operation_xyz
x,y,z
1/2-y,x,1/2+z
1/2-x,1/2-y,z
y,1/2-x,1/2+z
1/2+x,-y,-z
-x,1/2+y,-z
1/2+y,1/2+x,1/2-z
-y,-x,1/2-z
-x,-y,-z
1/2+y,-x,1/2-z
1/2+x,1/2+y,-z
-y,1/2+x,1/2-z
1/2-x,y,z
x,1/2-y,z
1/2-y,1/2-x,1/2+z
y,x,1/2+z
loop_
_atom_site_type_symbol
_atom_site_label
_atom_site_fract_x
_atom_site_fract_y
_atom_site_fract_z
Si Si1 0.450397 0.141136 0.442031
Si Si2 0.358044 0.250000 0.990904
Si Si3 0.358170 0.750000 0.033245
Si Si4 0.986455 0.049102 0.168287
Si Si5 0.509305 0.250000 0.102364
Si Si6 0.951282 0.358607 0.586872
O O1 0.466119 0.250000 0.431455
O O2 0.340948 0.113974 0.445303
O O3 0.495247 0.092479 0.374963
O O4 0.500397 0.107149 0.514045
O O5 0.250000 0.250000 0.010856
O O6 0.407692 0.250000 0.066907
O O7 0.250000 0.750000 0.010775
O O8 0.381994 0.659046 0.080823
O O9 0.413411 0.750000 0.959486
O O10 0.964448 0.035553 0.250000
O O11 0.982232 0.159016 0.151532
O O12 0.085914 0.000888 0.150710
O O13 0.969095 0.250000 0.601788
#
# Coordination Sequence:
#
# PCOD8318645 Si02
#       6
#    16   8   8  16   8  16
#     4  10  20  38  65  91 119 149 201 251 295 347
#     4  10  20  36  68  96 112 143 200 264 302 340
#     4  10  20  36  68  96 116 143 202 264 301 340
#     4  12  26  40  58  87 126 168 195 238 300 368
#     4  12  22  38  62  88 120 158 200 240 299 364
#     4  10  20  40  65  92 117 154 203 255 296 348
#
# _framework density 18.728680000000001
#
# number of rings (size 3 to 8) (size 9 to 14) (size 15 to 20)
#    0.000    1.333    4.444    2.000    1.556    0.000 
#    4.000    0.000    0.000    0.000    0.000    0.000 
#    0.000    0.000    0.000    0.000    0.000    0.000 
#
# Total GULP energy -892975.364053 kJ/mol
# GULP energy per Si atom -12402.435612 kJ/mol
# Density = 1.868605 g / cm^3
# Si number density = 18.728680 Si / 1000 Ang^3
#
#
#
# Elastic Constant Matrix: (Units=GPa)
#
#
# Indices 1 2 3 4 5 6 
#
# 1 130.3236 46.6238 58.9467 0.0000 0.0000 0.0000
# 2 46.6238 130.3234 58.9466 0.0000 0.0000 0.0000
# 3 58.9467 58.9466 125.6790 0.0000 0.0000 0.0000
# 4 0.0000 0.0000 0.0000 17.4437 0.0000 0.0000
# 5 0.0000 0.0000 0.0000 0.0000 17.4436 0.0000
# 6 0.0000 0.0000 0.0000 0.0000 0.0000 17.1728
#
#
#
# Elastic Compliance Matrix: (Units=1/GPa)
#
#
# Indices 1 2 3 4 5 6 
#
# 1 0.010084 -0.001864 -0.003855 0.000000 0.000000 0.000000
# 2 -0.001864 0.010084 -0.003855 0.000000 0.000000 0.000000
# 3 -0.003855 -0.003855 0.011573 0.000000 0.000000 0.000000
# 4 0.000000 0.000000 0.000000 0.057327 0.000000 0.000000
# 5 0.000000 0.000000 0.000000 0.000000 0.057328 0.000000
# 6 0.000000 0.000000 0.000000 0.000000 0.000000 0.058232
#
#
# Mechanical properties :
#
#
# Convention : Reuss Voigt Hill
#
# Bulk Modulus (GPa) = 79.41641 79.48447 79.45044
# Shear Modulus (GPa) = 21.93230 25.19927 23.56578
#
# Velocity S-wave (km/s) = 3.42578 3.67207 3.55106
# Velocity P-wave (km/s) = 7.62520 7.77888 7.70242
#
# Compressibility (1/GPa) = 0.01259186
#
# Stress axis : x y z
#
# Youngs Moduli (GPa) = 99.16889 99.16889 86.40511
#
# Poissons Ratio (x) = 0.18482 0.33313
# Poissons Ratio (y) = 0.18482 0.33313
# Poissons Ratio (z) = 0.38234 0.38234
#
# Static dielectric constant tensor:
#      x y z
#    x 3.563490 0.000000 0.000000 
#    y 0.000000 3.563570 0.000000 
#    z 0.000000 0.000000 3.063520 
# 
# 
# High freq. dielectric constant tensor:
#      x y z
#    x 1.749720 0.000000 0.000000 
#    y 0.000000 1.749720 0.000000 
#    z 0.000000 0.000000 1.686350 
# 
# From -- ./inp_files/6243.got.cif
#   From: 2010.03.12/outbox.cif.g09.slc.cpg/sg137_4_cif.got.tgz:6243.got - 2010.04.08 09:34:49.
