data_PCOD8318643
_publ_section_title
;
Structure prediction by ZEFSAII (Michael W. Deem and Ramdas Pophale) SiO2 
 PCOD8318643
Probable space group: P 42/N M C
;
_chemical_formula_sum "Si O2"
_cell_formula_units_Z 112
_cell_length_a 15.040953
_cell_length_b 15.040953
_cell_length_c 23.917762
_cell_angle_alpha 90.000000
_cell_angle_beta 90.000000
_cell_angle_gamma 90.000000
_cell_volume 5410.921687
_symmetry_space_group_name_H-M "P 42/N M C"
_symmetry_group_IT_number 137
_space_group.IT_coordinate_system_code '2'
_symmetry_cell_setting 'tetragonal'
loop_
_space_group_symop_operation_xyz
x,y,z
1/2-y,x,1/2+z
1/2-x,1/2-y,z
y,1/2-x,1/2+z
1/2+x,-y,-z
-x,1/2+y,-z
1/2+y,1/2+x,1/2-z
-y,-x,1/2-z
-x,-y,-z
1/2+y,-x,1/2-z
1/2+x,1/2+y,-z
-y,1/2+x,1/2-z
1/2-x,y,z
x,1/2-y,z
1/2-y,1/2-x,1/2+z
y,x,1/2+z
loop_
_atom_site_type_symbol
_atom_site_label
_atom_site_fract_x
_atom_site_fract_y
_atom_site_fract_z
Si Si1 0.891927 0.152679 0.308677
Si Si2 0.400120 0.989331 0.985430
Si Si3 0.353538 0.154035 0.909699
Si Si4 0.350037 0.968946 0.592729
Si Si5 0.956650 0.650622 0.400634
Si Si6 0.403138 0.146511 0.290439
Si Si7 0.015207 0.850619 0.279579
O O1 0.841282 0.158719 0.250000
O O2 0.882533 0.250000 0.338109
O O3 0.851502 0.073196 0.345515
O O4 0.992943 0.130717 0.295084
O O5 0.372215 0.077868 0.953567
O O6 0.396737 0.903042 0.945619
O O7 0.345982 0.980845 0.043543
O O8 0.500000 0.000000 0.000000
O O9 0.250000 0.157892 0.899951
O O10 0.389313 0.250000 0.931781
O O11 0.393063 0.136335 0.848223
O O12 0.250000 0.974092 0.570258
O O13 0.386125 0.070370 0.592570
O O14 0.912347 0.750000 0.395025
O O15 0.017149 0.631878 0.346342
O O16 0.378861 0.250000 0.278581
O O17 0.365025 0.086449 0.240471
O O18 0.082845 0.917156 0.250000
O O19 0.045165 0.750000 0.266300
#
# Coordination Sequence:
#
# PCOD8318643 Si02
#       7
#    16  16  16  16  16  16  16
#     4  11  22  36  58  90 131 175 212 251 304 376
#     4  10  22  39  60  87 124 162 202 256 308 375
#     4  10  20  36  62  93 122 158 206 258 314 372
#     4  11  23  40  62  92 129 171 211 255 313 380
#     4  10  23  43  66  90 121 165 215 269 328 376
#     4  10  20  37  63  95 127 159 201 260 320 372
#     4  11  24  41  65  93 125 168 212 259 315 372
#
# _framework density 20.698875999999998
#
# number of rings (size 3 to 8) (size 9 to 14) (size 15 to 20)
#    0.000    1.571    1.429    3.429    2.000    6.857 
#    0.000    2.143    0.000    0.857    0.000    0.000 
#    0.000    0.000    0.000    0.000    0.000    0.000 
#
# Total GULP energy -1387933.772714 kJ/mol
# GULP energy per Si atom -12392.265828 kJ/mol
# Density = 2.065176 g / cm^3
# Si number density = 20.698876 Si / 1000 Ang^3
#
#
#
# Elastic Constant Matrix: (Units=GPa)
#
#
# Indices 1 2 3 4 5 6 
#
# 1 108.9381 44.1005 51.6832 0.0000 0.0000 0.0000
# 2 44.1005 108.9350 51.6830 0.0000 0.0000 0.0000
# 3 51.6832 51.6830 141.7756 0.0000 0.0000 0.0000
# 4 0.0000 0.0000 0.0000 -0.0354 0.0000 0.0000
# 5 0.0000 0.0000 0.0000 0.0000 -0.0389 0.0000
# 6 0.0000 0.0000 0.0000 0.0000 0.0000 17.5733
#
#
#
# Elastic Compliance Matrix: (Units=1/GPa)
#
#
# Indices 1 2 3 4 5 6 
#
# 1 0.012046 -0.003377 -0.003160 0.000000 0.000000 0.000000
# 2 -0.003377 0.012046 -0.003160 0.000000 0.000000 0.000000
# 3 -0.003160 -0.003160 0.009357 0.000000 0.000000 0.000000
# 4 0.000000 0.000000 0.000000-28.225790 0.000000 0.000000
# 5 0.000000 0.000000 0.000000 0.000000-25.709257 0.000000
# 6 0.000000 0.000000 0.000000 0.000000 0.000000 0.056904
#
#
# Mechanical properties :
#
#
# Convention : Reuss Voigt Hill
#
# Bulk Modulus (GPa) = 71.15172 72.73137 71.94155
# Shear Modulus (GPa) = -0.09290 17.64526 8.77618
#
# Velocity S-wave (km/s) = -0.21208 2.92288 2.06134
# Velocity P-wave (km/s) = 5.86424 6.82679 6.36374
#
# Compressibility (1/GPa) = 0.01405447
#
# Stress axis : x y z
#
# Youngs Moduli (GPa) = 83.01527 83.01251 106.86716
#
# Poissons Ratio (x) = 0.28036 0.33771
# Poissons Ratio (y) = 0.28037 0.33772
# Poissons Ratio (z) = 0.26234 0.26234
#
# Static dielectric constant tensor:
#      x y z
#    x 5.133230 0.000000 0.000000 
#    y 0.000000 5.133630 0.000000 
#    z 0.000000 0.000000 2.505600 
# 
# 
# High freq. dielectric constant tensor:
#      x y z
#    x 1.801970 0.000000 0.000000 
#    y 0.000000 1.801970 0.000000 
#    z 0.000000 0.000000 1.819930 
# 
# From -- ./inp_files/8950.got.cif
#   From: 2010.03.12/outbox.cif.g09.slc.cpg/sg137_5_cif.got.tgz:8950.got - 2010.04.08 09:34:49.
