data_PCOD8318305
_publ_section_title
;
Structure prediction by ZEFSAII (Michael W. Deem and Ramdas Pophale) SiO2 
 PCOD8318305
Probable space group: P 42/M N M
;
_chemical_formula_sum "Si O2"
_cell_formula_units_Z 80
_cell_length_a 11.432430
_cell_length_b 11.432430
_cell_length_c 28.425166
_cell_angle_alpha 90.000000
_cell_angle_beta 90.000000
_cell_angle_gamma 90.000000
_cell_volume 3715.182150
_symmetry_space_group_name_H-M "P 42/M N M"
_symmetry_group_IT_number 136
_symmetry_cell_setting 'tetragonal'
loop_
_space_group_symop_operation_xyz
x,y,z
1/2-y,1/2+x,1/2+z
-x,-y,z
1/2+y,1/2-x,1/2+z
1/2+x,1/2-y,1/2-z
1/2-x,1/2+y,1/2-z
y,x,-z
-y,-x,-z
-x,-y,-z
1/2+y,1/2-x,1/2-z
x,y,-z
1/2-y,1/2+x,1/2-z
1/2-x,1/2+y,1/2+z
1/2+x,1/2-y,1/2+z
-y,-x,z
y,x,z
loop_
_atom_site_type_symbol
_atom_site_label
_atom_site_fract_x
_atom_site_fract_y
_atom_site_fract_z
Si Si1 0.271284 0.546019 0.604586
Si Si2 0.737988 0.075905 0.613384
Si Si3 0.146056 0.336691 0.447759
Si Si4 0.426639 0.762846 0.798854
Si Si5 0.446930 0.259386 0.296140
O O1 0.386419 0.613582 0.583624
O O2 0.166146 0.634932 0.608148
O O3 0.228400 0.438201 0.573222
O O4 0.306856 0.504390 0.656455
O O5 0.861436 0.138565 0.598656
O O6 0.700557 0.966012 0.582152
O O7 0.745740 0.039781 0.668056
O O8 0.105450 0.375845 0.500000
O O9 0.220712 0.220712 0.450765
O O10 0.339224 0.660777 0.814842
O O11 0.366514 0.888814 0.806431
O O12 0.456759 0.750328 0.744200
O O13 0.348745 0.348745 0.277992
#
# Coordination Sequence:
#
# PCOD8318305 Si02
#       5
#    16  16  16  16  16
#     4  11  24  42  66  96 130 170 216 268 328 392
#     4  11  24  42  66  96 130 170 216 268 328 392
#     4  11  25  45  69  97 129 169 217 271 331 392
#     4  11  23  38  59  90 128 172 219 265 320 387
#     4  11  23  38  59  90 128 172 219 265 320 387
#
# _framework density 21.533266000000001
#
# number of rings (size 3 to 8) (size 9 to 14) (size 15 to 20)
#    0.000    1.000    2.000    4.200    0.000   12.800 
#    0.000    4.000    0.000    0.000    0.000    0.000 
#    0.000    0.000    0.000    0.000    0.000    0.000 
#
# Total GULP energy -991975.957583 kJ/mol
# GULP energy per Si atom -12399.699470 kJ/mol
# Density = 2.148426 g / cm^3
# Si number density = 21.533266 Si / 1000 Ang^3
#
#
#
# Elastic Constant Matrix: (Units=GPa)
#
#
# Indices 1 2 3 4 5 6 
#
# 1 62.9849 69.1783 29.0757 0.0000 0.0000 0.0000
# 2 69.1783 62.9849 29.0757 0.0000 0.0000 0.0000
# 3 29.0757 29.0757 116.3402 0.0000 0.0000 0.0000
# 4 0.0000 0.0000 0.0000 29.5861 0.0000 0.0000
# 5 0.0000 0.0000 0.0000 0.0000 29.5861 0.0000
# 6 0.0000 0.0000 0.0000 0.0000 0.0000 33.0711
#
#
#
# Elastic Compliance Matrix: (Units=1/GPa)
#
#
# Indices 1 2 3 4 5 6 
#
# 1 -0.076480 0.084982 -0.002125 0.000000 0.000000 0.000000
# 2 0.084982 -0.076480 -0.002125 0.000000 0.000000 0.000000
# 3 -0.002125 -0.002125 0.009657 0.000000 0.000000 0.000000
# 4 0.000000 0.000000 0.000000 0.033800 0.000000 0.000000
# 5 0.000000 0.000000 0.000000 0.000000 0.033800 0.000000
# 6 0.000000 0.000000 0.000000 0.000000 0.000000 0.030238
#
#
# Mechanical properties :
#
#
# Convention : Reuss Voigt Hill
#
# Bulk Modulus (GPa) = 55.06175 55.21879 55.14027
# Shear Modulus (GPa) = -24.89088 26.11402 0.61157
#
# Velocity S-wave (km/s) = -3.40358 3.48620 0.53351
# Velocity P-wave (km/s) = 3.19065 6.47333 5.10315
#
# Compressibility (1/GPa) = 0.01816143
#
# Stress axis : x y z
#
# Youngs Moduli (GPa) = -13.07526 -13.07526 103.54702
#
# Poissons Ratio (x) = 1.11116 0.22000
# Poissons Ratio (y) = 1.11116 0.22000
# Poissons Ratio (z) = -0.02778 -0.02778
#
# Static dielectric constant tensor:
#      x y z
#    x 3.995800 0.000000 0.000000 
#    y 0.000000 3.995800 0.000000 
#    z 0.000000 0.000000 3.987930 
# 
# 
# High freq. dielectric constant tensor:
#      x y z
#    x 1.857600 0.000000 0.000000 
#    y 0.000000 1.857600 0.000000 
#    z 0.000000 0.000000 1.837230 
# 
# From -- ./inp_files/9537.got.cif
#   From: 2010.03.12/outbox.cif.g09.slc.cpg/sg136_5_cif.got.tgz:9537.got - 2010.04.06 18:39:43.
