data_PCOD8318938
_publ_section_title
;
Structure prediction by ZEFSAII (Michael W. Deem and Ramdas Pophale) SiO2 
 PCOD8318938
Probable space group: P 42/N C M
;
_chemical_formula_sum "Si O2"
_cell_formula_units_Z 112
_cell_length_a 15.174752
_cell_length_b 15.174752
_cell_length_c 26.770458
_cell_angle_alpha 90.000000
_cell_angle_beta 90.000000
_cell_angle_gamma 90.000000
_cell_volume 6164.516306
_symmetry_space_group_name_H-M "P 42/N C M"
_symmetry_group_IT_number 138
_space_group.IT_coordinate_system_code '2'
_symmetry_cell_setting 'tetragonal'
loop_
_space_group_symop_operation_xyz
x,y,z
1/2-y,x,1/2+z
1/2-x,1/2-y,z
y,1/2-x,1/2+z
1/2+x,-y,1/2-z
-x,1/2+y,1/2-z
1/2+y,1/2+x,-z
-y,-x,-z
-x,-y,-z
1/2+y,-x,1/2-z
1/2+x,1/2+y,-z
-y,1/2+x,1/2-z
1/2-x,y,1/2+z
x,1/2-y,1/2+z
1/2-y,1/2-x,z
y,x,z
loop_
_atom_site_type_symbol
_atom_site_label
_atom_site_fract_x
_atom_site_fract_y
_atom_site_fract_z
Si Si1 0.110323 0.251050 0.120853
Si Si2 0.609132 0.337177 0.865388
Si Si3 0.772445 0.119075 0.730528
Si Si4 0.858280 0.358280 0.000000
Si Si5 0.801628 0.946429 0.485300
Si Si6 0.013909 0.870454 0.034457
Si Si7 0.504378 0.851762 0.304513
Si Si8 0.750000 0.250000 0.422727
O O1 0.176504 0.323497 0.142980
O O2 0.163425 0.163425 0.104134
O O3 0.059318 0.288353 0.073584
O O4 0.041992 0.229537 0.164084
O O5 0.595552 0.257947 0.825566
O O6 0.540770 0.334881 0.911028
O O7 0.600809 0.428989 0.836777
O O8 0.706212 0.325002 0.888483
O O9 0.694146 0.152023 0.767525
O O10 0.812273 0.029806 0.752727
O O11 0.799376 0.326150 0.046371
O O12 0.962094 0.349229 0.004851
O O13 0.862791 0.862791 0.503714
O O14 0.705117 0.952037 0.510555
O O15 0.099904 0.900097 0.000000
O O16 0.957666 0.957666 0.042477
O O17 0.578051 0.921950 0.290500
#
# Coordination Sequence:
#
# PCOD8318938 Si02
#       8
#    16  16  16   8  16  16  16   8
#     4   9  18  33  54  78 104 144 191 228 273 334
#     4  11  20  34  56  84 108 143 186 233 282 340
#     4   9  19  36  57  79 105 141 177 221 281 343
#     4  11  21  34  52  82 114 148 188 230 276 330
#     4  11  22  36  53  78 118 157 191 232 285 345
#     4  11  22  37  57  84 116 150 196 244 280 329
#     4  10  19  34  56  81 110 137 178 241 289 329
#     4  11  20  32  59  82 112 144 185 234 279 334
#
# _framework density 18.168498
#
# number of rings (size 3 to 8) (size 9 to 14) (size 15 to 20)
#    0.000    1.714    1.429    5.357    0.000    3.143 
#    0.000    4.286    0.000    0.000    0.000    0.000 
#    0.000    0.000    0.000    0.000    0.000    0.000 
#
# Total GULP energy -1388265.006501 kJ/mol
# GULP energy per Si atom -12395.223272 kJ/mol
# Density = 1.812715 g / cm^3
# Si number density = 18.168498 Si / 1000 Ang^3
#
#
#
# Elastic Constant Matrix: (Units=GPa)
#
#
# Indices 1 2 3 4 5 6 
#
# 1 86.6281 36.7052 45.1847 0.0000 0.0000 0.0000
# 2 36.7052 86.6282 45.1849 0.0000 0.0000 0.0000
# 3 45.1847 45.1849 105.4037 0.0000 0.0000 0.0000
# 4 0.0000 0.0000 0.0000 27.0159 0.0000 0.0000
# 5 0.0000 0.0000 0.0000 0.0000 27.0159 0.0000
# 6 0.0000 0.0000 0.0000 0.0000 0.0000 31.0471
#
#
#
# Elastic Compliance Matrix: (Units=1/GPa)
#
#
# Indices 1 2 3 4 5 6 
#
# 1 0.015926 -0.004105 -0.005068 0.000000 0.000000 0.000000
# 2 -0.004105 0.015926 -0.005068 0.000000 0.000000 0.000000
# 3 -0.005068 -0.005068 0.013832 0.000000 0.000000 0.000000
# 4 0.000000 0.000000 0.000000 0.037015 0.000000 0.000000
# 5 0.000000 0.000000 0.000000 0.000000 0.037015 0.000000
# 6 0.000000 0.000000 0.000000 0.000000 0.000000 0.032209
#
#
# Mechanical properties :
#
#
# Convention : Reuss Voigt Hill
#
# Bulk Modulus (GPa) = 58.12495 59.20105 58.66300
# Shear Modulus (GPa) = 26.86172 27.12146 26.99159
#
# Velocity S-wave (km/s) = 3.84927 3.86784 3.85856
# Velocity P-wave (km/s) = 7.19843 7.25273 7.22563
#
# Compressibility (1/GPa) = 0.01720432
#
# Stress axis : x y z
#
# Youngs Moduli (GPa) = 62.79023 62.79012 72.29569
#
# Poissons Ratio (x) = 0.25774 0.36636
# Poissons Ratio (y) = 0.25774 0.36636
# Poissons Ratio (z) = 0.31819 0.31819
#
# Static dielectric constant tensor:
#      x y z
#    x 3.399650 0.000000 0.000000 
#    y 0.000000 3.399650 0.000000 
#    z 0.000000 0.000000 3.293700 
# 
# 
# High freq. dielectric constant tensor:
#      x y z
#    x 1.702610 0.000000 0.000000 
#    y 0.000000 1.702610 0.000000 
#    z 0.000000 0.000000 1.694460 
# 
# From -- ./inp_files/7641.got.cif
#   From: 2010.03.12/outbox.cif.g09.slc.cpg/sg138_4_cif.got.tgz:7641.got - 2010.04.08 09:41:05.
