data_PCOD8318020
_publ_section_title
;
Structure prediction by ZEFSAII (Michael W. Deem and Ramdas Pophale) SiO2 
 PCOD8318020
Probable space group: P 42/M N M
;
_chemical_formula_sum "Si O2"
_cell_formula_units_Z 72
_cell_length_a 16.516784
_cell_length_b 16.516784
_cell_length_c 13.291776
_cell_angle_alpha 90.000000
_cell_angle_beta 90.000000
_cell_angle_gamma 90.000000
_cell_volume 3626.051703
_symmetry_space_group_name_H-M "P 42/M N M"
_symmetry_group_IT_number 136
_symmetry_cell_setting 'tetragonal'
loop_
_space_group_symop_operation_xyz
x,y,z
1/2-y,1/2+x,1/2+z
-x,-y,z
1/2+y,1/2-x,1/2+z
1/2+x,1/2-y,1/2-z
1/2-x,1/2+y,1/2-z
y,x,-z
-y,-x,-z
-x,-y,-z
1/2+y,1/2-x,1/2-z
x,y,-z
1/2-y,1/2+x,1/2-z
1/2-x,1/2+y,1/2+z
1/2+x,1/2-y,1/2+z
-y,-x,z
y,x,z
loop_
_atom_site_type_symbol
_atom_site_label
_atom_site_fract_x
_atom_site_fract_y
_atom_site_fract_z
Si Si1 0.505316 0.631202 0.000000
Si Si2 0.752703 0.489026 0.388444
Si Si3 0.682216 0.813379 0.114296
Si Si4 0.503915 0.368332 0.784887
Si Si5 0.054262 0.616816 0.238852
O O1 0.492791 0.679459 0.893773
O O2 0.596565 0.596565 0.000000
O O3 0.442624 0.557377 0.000000
O O4 0.723626 0.513966 0.500000
O O5 0.761860 0.392715 0.380880
O O6 0.689443 0.519296 0.306097
O O7 0.836777 0.535622 0.365390
O O8 0.736464 0.736464 0.149132
O O9 0.605468 0.825158 0.187069
O O10 0.650847 0.800309 0.000000
O O11 0.590502 0.409499 0.762395
O O12 0.436215 0.436215 0.794467
O O13 0.099134 0.533430 0.210061
#
# Coordination Sequence:
#
# PCOD8318020 Si02
#       5
#     8  16  16  16  16
#     4   7  12  26  46  66  94 135 178 222 267 304
#     4  10  20  33  51  76 107 143 176 216 273 331
#     4   9  18  34  56  80 105 134 174 225 275 323
#     4   9  17  30  49  74 106 143 183 225 268 322
#     4   9  19  36  56  78 105 142 187 227 271 323
#
# _framework density 19.856307999999999
#
# number of rings (size 3 to 8) (size 9 to 14) (size 15 to 20)
#    0.000    3.000    0.000    2.000    0.000    3.556 
#    2.000    5.556    2.444    0.000    0.000    0.000 
#    0.000    0.000    0.000    0.000    0.000    0.000 
#
# Total GULP energy -892017.792651 kJ/mol
# GULP energy per Si atom -12389.136009 kJ/mol
# Density = 1.981111 g / cm^3
# Si number density = 19.856308 Si / 1000 Ang^3
#
#
#
# Elastic Constant Matrix: (Units=GPa)
#
#
# Indices 1 2 3 4 5 6 
#
# 1 75.3910 33.9465 54.3763 0.0000 0.0000 0.0000
# 2 33.9465 75.3910 54.3764 0.0000 0.0000 0.0000
# 3 54.3763 54.3764 167.9117 0.0000 0.0000 0.0000
# 4 0.0000 0.0000 0.0000 28.0626 0.0000 0.0000
# 5 0.0000 0.0000 0.0000 0.0000 28.0624 0.0000
# 6 0.0000 0.0000 0.0000 0.0000 0.0000 24.2310
#
#
#
# Elastic Compliance Matrix: (Units=1/GPa)
#
#
# Indices 1 2 3 4 5 6 
#
# 1 0.018810 -0.005318 -0.004369 0.000000 0.000000 0.000000
# 2 -0.005318 0.018810 -0.004369 0.000000 0.000000 0.000000
# 3 -0.004369 -0.004369 0.008785 0.000000 0.000000 0.000000
# 4 0.000000 0.000000 0.000000 0.035635 0.000000 0.000000
# 5 0.000000 0.000000 0.000000 0.000000 0.035635 0.000000
# 6 0.000000 0.000000 0.000000 0.000000 0.000000 0.041269
#
#
# Mechanical properties :
#
#
# Convention : Reuss Voigt Hill
#
# Bulk Modulus (GPa) = 54.66802 67.12134 60.89468
# Shear Modulus (GPa) = 25.88586 27.80417 26.84502
#
# Velocity S-wave (km/s) = 3.61454 3.74608 3.68090
# Velocity P-wave (km/s) = 6.70906 7.25174 6.98567
#
# Compressibility (1/GPa) = 0.01829223
#
# Stress axis : x y z
#
# Youngs Moduli (GPa) = 53.16255 53.16256 113.82621
#
# Poissons Ratio (x) = 0.28274 0.49732
# Poissons Ratio (y) = 0.28274 0.49733
# Poissons Ratio (z) = 0.23228 0.23228
#
# Static dielectric constant tensor:
#      x y z
#    x 3.465870 0.000000 0.000000 
#    y 0.000000 3.465870 0.000000 
#    z 0.000000 0.000000 3.773020 
# 
# 
# High freq. dielectric constant tensor:
#      x y z
#    x 1.759960 0.000000 0.000000 
#    y 0.000000 1.759960 0.000000 
#    z 0.000000 0.000000 1.771250 
# 
# From -- ./inp_files/3431.got.cif
#   From: 2010.03.12/outbox.cif.g09.slc.cpg/sg136_2_cif.got.tgz:3431.got - 2010.04.06 18:39:43.
