data_PCOD8318435
_publ_section_title
;
Structure prediction by ZEFSAII (Michael W. Deem and Ramdas Pophale) SiO2 
 PCOD8318435
Probable space group: P 42/N M C
;
_chemical_formula_sum "Si O2"
_cell_formula_units_Z 96
_cell_length_a 20.605782
_cell_length_b 20.605782
_cell_length_c 13.034670
_cell_angle_alpha 90.000000
_cell_angle_beta 90.000000
_cell_angle_gamma 90.000000
_cell_volume 5534.498095
_symmetry_space_group_name_H-M "P 42/N M C"
_symmetry_group_IT_number 137
_space_group.IT_coordinate_system_code '2'
_symmetry_cell_setting 'tetragonal'
loop_
_space_group_symop_operation_xyz
x,y,z
1/2-y,x,1/2+z
1/2-x,1/2-y,z
y,1/2-x,1/2+z
1/2+x,-y,-z
-x,1/2+y,-z
1/2+y,1/2+x,1/2-z
-y,-x,1/2-z
-x,-y,-z
1/2+y,-x,1/2-z
1/2+x,1/2+y,-z
-y,1/2+x,1/2-z
1/2-x,y,z
x,1/2-y,z
1/2-y,1/2-x,1/2+z
y,x,1/2+z
loop_
_atom_site_type_symbol
_atom_site_label
_atom_site_fract_x
_atom_site_fract_y
_atom_site_fract_z
Si Si1 0.174068 0.250000 0.061973
Si Si2 0.047916 0.015153 0.150009
Si Si3 0.640469 0.873217 0.295401
Si Si4 0.323285 0.607827 0.665001
Si Si5 0.495120 0.321314 0.318561
Si Si6 0.079627 0.942970 0.957954
Si Si7 0.750000 0.826722 0.678572
O O1 0.250000 0.250000 0.091021
O O2 0.140725 0.315462 0.104830
O O3 0.162773 0.250000 0.941897
O O4 0.102736 0.068241 0.176076
O O5 0.992454 0.052511 0.087269
O O6 0.018466 0.981535 0.250000
O O7 0.078606 0.957889 0.079430
O O8 0.678067 0.922900 0.222740
O O9 0.634884 0.809954 0.226130
O O10 0.336280 0.663721 0.750000
O O11 0.250000 0.614314 0.623701
O O12 0.337614 0.540406 0.721780
O O13 0.371896 0.610218 0.567213
O O14 0.511394 0.250000 0.363426
O O15 0.502765 0.374712 0.406469
O O16 0.750000 0.750000 0.707539
#
# Coordination Sequence:
#
# PCOD8318435 Si02
#       7
#     8  16  16  16  16  16   8
#     4  11  24  40  56  80 118 156 194 237 281 339
#     4  11  22  36  58  77 110 150 191 235 285 332
#     4  12  20  38  55  80 109 154 193 240 280 328
#     4   9  17  32  54  82 110 135 170 221 283 344
#     4  10  18  32  55  80 108 141 186 231 280 333
#     4  10  20  36  54  80 110 145 186 232 286 341
#     4  11  24  40  56  80 118 154 196 243 283 331
#
# _framework density 17.345746999999999
#
# number of rings (size 3 to 8) (size 9 to 14) (size 15 to 20)
#    0.000    1.500    5.833    0.500    2.333    0.167 
#    1.500    0.000    0.000    0.000    0.000    0.000 
#    0.000    0.000    0.000    4.667    0.000    0.000 
#
# Total GULP energy -1190183.101326 kJ/mol
# GULP energy per Si atom -12397.740639 kJ/mol
# Density = 1.730627 g / cm^3
# Si number density = 17.345747 Si / 1000 Ang^3
#
#
#
# Elastic Constant Matrix: (Units=GPa)
#
#
# Indices 1 2 3 4 5 6 
#
# 1 105.0952 31.2805 47.1822 0.0000 0.0000 0.0000
# 2 31.2805 105.0927 47.1819 0.0000 0.0000 0.0000
# 3 47.1822 47.1819 103.4160 0.0000 0.0000 0.0000
# 4 0.0000 0.0000 0.0000 18.7704 0.0000 0.0000
# 5 0.0000 0.0000 0.0000 0.0000 18.7711 0.0000
# 6 0.0000 0.0000 0.0000 0.0000 0.0000 25.5721
#
#
#
# Elastic Compliance Matrix: (Units=1/GPa)
#
#
# Indices 1 2 3 4 5 6 
#
# 1 0.012131 -0.001416 -0.004889 0.000000 0.000000 0.000000
# 2 -0.001416 0.012132 -0.004889 0.000000 0.000000 0.000000
# 3 -0.004889 -0.004889 0.014131 0.000000 0.000000 0.000000
# 4 0.000000 0.000000 0.000000 0.053275 0.000000 0.000000
# 5 0.000000 0.000000 0.000000 0.000000 0.053273 0.000000
# 6 0.000000 0.000000 0.000000 0.000000 0.000000 0.039105
#
#
# Mechanical properties :
#
#
# Convention : Reuss Voigt Hill
#
# Bulk Modulus (GPa) = 62.47485 62.76588 62.62037
# Shear Modulus (GPa) = 23.61045 25.15333 24.38189
#
# Velocity S-wave (km/s) = 3.69340 3.81217 3.75326
# Velocity P-wave (km/s) = 7.36776 7.45926 7.41365
#
# Compressibility (1/GPa) = 0.01600644
#
# Stress axis : x y z
#
# Youngs Moduli (GPa) = 82.43034 82.42819 70.76853
#
# Poissons Ratio (x) = 0.11672 0.34597
# Poissons Ratio (y) = 0.11673 0.34598
# Poissons Ratio (z) = 0.40298 0.40298
#
# Static dielectric constant tensor:
#      x y z
#    x 3.276340 0.000000 0.000000 
#    y 0.000000 3.276350 0.000000 
#    z 0.000000 0.000000 3.127770 
# 
# 
# High freq. dielectric constant tensor:
#      x y z
#    x 1.667510 0.000000 0.000000 
#    y 0.000000 1.667510 0.000000 
#    z 0.000000 0.000000 1.650620 
# 
# From -- ./inp_files/3803.got.cif
#   From: 2010.03.12/outbox.cif.g09.slc.cpg/sg137_2_cif.got.tgz:3803.got - 2010.04.08 09:34:49.
