data_PCOD8318549
_publ_section_title
;
Structure prediction by ZEFSAII (Michael W. Deem and Ramdas Pophale) SiO2 
 PCOD8318549
Probable space group: P 42/N M C
;
_chemical_formula_sum "Si O2"
_cell_formula_units_Z 96
_cell_length_a 20.202563
_cell_length_b 20.202563
_cell_length_c 11.954568
_cell_angle_alpha 90.000000
_cell_angle_beta 90.000000
_cell_angle_gamma 90.000000
_cell_volume 4879.179843
_symmetry_space_group_name_H-M "P 42/N M C"
_symmetry_group_IT_number 137
_space_group.IT_coordinate_system_code '2'
_symmetry_cell_setting 'tetragonal'
loop_
_space_group_symop_operation_xyz
x,y,z
1/2-y,x,1/2+z
1/2-x,1/2-y,z
y,1/2-x,1/2+z
1/2+x,-y,-z
-x,1/2+y,-z
1/2+y,1/2+x,1/2-z
-y,-x,1/2-z
-x,-y,-z
1/2+y,-x,1/2-z
1/2+x,1/2+y,-z
-y,1/2+x,1/2-z
1/2-x,y,z
x,1/2-y,z
1/2-y,1/2-x,1/2+z
y,x,1/2+z
loop_
_atom_site_type_symbol
_atom_site_label
_atom_site_fract_x
_atom_site_fract_y
_atom_site_fract_z
Si Si1 0.677062 0.963286 0.722969
Si Si2 0.677101 0.677578 0.677541
Si Si3 0.468342 0.176781 0.392062
Si Si4 0.173123 0.569178 0.701899
Si Si5 0.995690 0.915832 0.413033
Si Si6 0.612330 0.003276 0.502806
O O1 0.750000 0.993456 0.742793
O O2 0.676553 0.885437 0.760582
O O3 0.625351 0.002011 0.799174
O O4 0.660931 0.966985 0.590299
O O5 0.750000 0.675870 0.614564
O O6 0.670753 0.750000 0.738453
O O7 0.611516 0.668618 0.601672
O O8 0.487652 0.250000 0.430137
O O9 0.500929 0.161522 0.271169
O O10 0.503374 0.129256 0.478555
O O11 0.129062 0.629062 0.750000
O O12 0.250000 0.590964 0.705887
O O13 0.153140 0.554715 0.573275
O O14 0.057941 0.964234 0.415448
O O15 0.925635 0.953957 0.418231
#
# Coordination Sequence:
#
# PCOD8318549 Si02
#       6
#    16  16  16  16  16  16
#     4  11  22  38  57  85 120 155 200 241 295 360
#     4   9  18  34  54  77 113 156 197 239 280 338
#     4  10  19  36  59  85 115 153 199 245 297 357
#     4  11  23  41  65  90 121 155 202 263 323 376
#     4  11  22  36  59  85 120 159 196 246 296 357
#     4  11  23  37  61  88 121 154 200 248 305 360
#
# _framework density 19.675436999999999
#
# number of rings (size 3 to 8) (size 9 to 14) (size 15 to 20)
#    0.000    1.500    3.333    2.500    0.000    0.167 
#    0.000    1.667    0.000    4.000    0.000    0.000 
#    0.000    2.667    0.000    0.000    0.000    0.000 
#
# Total GULP energy -1189255.812486 kJ/mol
# GULP energy per Si atom -12388.081380 kJ/mol
# Density = 1.963065 g / cm^3
# Si number density = 19.675437 Si / 1000 Ang^3
#
#
#
# Elastic Constant Matrix: (Units=GPa)
#
#
# Indices 1 2 3 4 5 6 
#
# 1 94.8770 35.8332 32.5332 0.0000 0.0000 0.0000
# 2 35.8332 94.8770 32.5332 0.0000 0.0000 0.0000
# 3 32.5332 32.5332 73.8969 0.0000 0.0000 0.0000
# 4 0.0000 0.0000 0.0000 21.8911 0.0000 0.0000
# 5 0.0000 0.0000 0.0000 0.0000 21.8911 0.0000
# 6 0.0000 0.0000 0.0000 0.0000 0.0000 27.1844
#
#
#
# Elastic Compliance Matrix: (Units=1/GPa)
#
#
# Indices 1 2 3 4 5 6 
#
# 1 0.013367 -0.003569 -0.004313 0.000000 0.000000 0.000000
# 2 -0.003569 0.013367 -0.004313 0.000000 0.000000 0.000000
# 3 -0.004313 -0.004313 0.017330 0.000000 0.000000 0.000000
# 4 0.000000 0.000000 0.000000 0.045681 0.000000 0.000000
# 5 0.000000 0.000000 0.000000 0.000000 0.045681 0.000000
# 6 0.000000 0.000000 0.000000 0.000000 0.000000 0.036786
#
#
# Mechanical properties :
#
#
# Convention : Reuss Voigt Hill
#
# Bulk Modulus (GPa) = 50.83372 51.71668 51.27520
# Shear Modulus (GPa) = 24.61093 25.04342 24.82717
#
# Velocity S-wave (km/s) = 3.54057 3.57154 3.55609
# Velocity P-wave (km/s) = 6.52736 6.58406 6.55577
#
# Compressibility (1/GPa) = 0.01967198
#
# Stress axis : x y z
#
# Youngs Moduli (GPa) = 74.81034 74.81034 57.70222
#
# Poissons Ratio (x) = 0.26703 0.24890
# Poissons Ratio (y) = 0.26703 0.24890
# Poissons Ratio (z) = 0.32269 0.32269
#
# Static dielectric constant tensor:
#      x y z
#    x 3.706070 0.000000 0.000000 
#    y 0.000000 3.706070 0.000000 
#    z 0.000000 0.000000 3.173050 
# 
# 
# High freq. dielectric constant tensor:
#      x y z
#    x 1.772580 0.000000 0.000000 
#    y 0.000000 1.772580 0.000000 
#    z 0.000000 0.000000 1.733600 
# 
# From -- ./inp_files/3775.got.cif
#   From: 2010.03.12/outbox.cif.g09.slc.cpg/sg137_2_cif.got.tgz:3775.got - 2010.04.08 09:34:49.
