data_PCOD8318813
_publ_section_title
;
Structure prediction by ZEFSAII (Michael W. Deem and Ramdas Pophale) SiO2 
 PCOD8318813
Probable space group: P 42/N M C
;
_chemical_formula_sum "Si O2"
_cell_formula_units_Z 40
_cell_length_a 7.752822
_cell_length_b 7.752822
_cell_length_c 33.013204
_cell_angle_alpha 90.000000
_cell_angle_beta 90.000000
_cell_angle_gamma 90.000000
_cell_volume 1984.299859
_symmetry_space_group_name_H-M "P 42/N M C"
_symmetry_group_IT_number 137
_space_group.IT_coordinate_system_code '2'
_symmetry_cell_setting 'tetragonal'
loop_
_space_group_symop_operation_xyz
x,y,z
1/2-y,x,1/2+z
1/2-x,1/2-y,z
y,1/2-x,1/2+z
1/2+x,-y,-z
-x,1/2+y,-z
1/2+y,1/2+x,1/2-z
-y,-x,1/2-z
-x,-y,-z
1/2+y,-x,1/2-z
1/2+x,1/2+y,-z
-y,1/2+x,1/2-z
1/2-x,y,z
x,1/2-y,z
1/2-y,1/2-x,1/2+z
y,x,1/2+z
loop_
_atom_site_type_symbol
_atom_site_label
_atom_site_fract_x
_atom_site_fract_y
_atom_site_fract_z
Si Si1 0.547364 0.750000 0.309845
Si Si2 0.250000 0.052220 0.101443
Si Si3 0.951404 0.559820 0.544458
Si Si4 0.950425 0.049576 0.250000
O O1 0.750000 0.750000 0.313920
O O2 0.458474 0.750000 0.354544
O O3 0.492582 0.574140 0.286932
O O4 0.250000 0.250000 0.111110
O O5 0.422790 0.011808 0.077187
O O6 0.750000 0.574673 0.547409
O O7 0.033121 0.750000 0.552946
O O8 0.000000 0.500000 0.500000
O O9 0.750000 0.019446 0.237477
#
# Coordination Sequence:
#
# PCOD8318813 Si02
#       4
#     8   8  16   8
#     4   9  20  38  60  90 119 155 207 244 303 375
#     4  11  23  39  61  91 125 159 203 261 306 370
#     4  11  23  39  60  85 118 162 206 251 307 365
#     4   9  18  37  62  86 120 161 196 249 310 370
#
# _framework density 20.158244
#
# number of rings (size 3 to 8) (size 9 to 14) (size 15 to 20)
#    0.000    1.800    2.000    1.800    0.000    4.400 
#    7.200    4.000    0.000    0.000    0.000    0.000 
#    0.000    0.000    0.000    0.000    0.000    0.000 
#
# Total GULP energy -495713.558343 kJ/mol
# GULP energy per Si atom -12392.838959 kJ/mol
# Density = 2.011236 g / cm^3
# Si number density = 20.158244 Si / 1000 Ang^3
#
#
#
# Elastic Constant Matrix: (Units=GPa)
#
#
# Indices 1 2 3 4 5 6 
#
# 1 119.8741 33.6736 69.9383 0.0000 0.0000 0.0000
# 2 33.6736 119.8750 69.9379 0.0000 0.0000 0.0000
# 3 69.9383 69.9379 201.8839 0.0000 0.0000 0.0000
# 4 0.0000 0.0000 0.0000 25.8461 0.0000 0.0000
# 5 0.0000 0.0000 0.0000 0.0000 25.8462 0.0000
# 6 0.0000 0.0000 0.0000 0.0000 0.0000 25.3486
#
#
#
# Elastic Compliance Matrix: (Units=1/GPa)
#
#
# Indices 1 2 3 4 5 6 
#
# 1 0.010558 -0.001043 -0.003296 0.000000 0.000000 0.000000
# 2 -0.001043 0.010558 -0.003296 0.000000 0.000000 0.000000
# 3 -0.003296 -0.003296 0.007237 0.000000 0.000000 0.000000
# 4 0.000000 0.000000 0.000000 0.038691 0.000000 0.000000
# 5 0.000000 0.000000 0.000000 0.000000 0.038690 0.000000
# 6 0.000000 0.000000 0.000000 0.000000 0.000000 0.039450
#
#
# Mechanical properties :
#
#
# Convention : Reuss Voigt Hill
#
# Bulk Modulus (GPa) = 76.43737 87.63697 82.03717
# Shear Modulus (GPa) = 30.33678 33.28039 31.80858
#
# Velocity S-wave (km/s) = 3.88355 4.06760 3.97664
# Velocity P-wave (km/s) = 7.62301 8.10120 7.86574
#
# Compressibility (1/GPa) = 0.01308261
#
# Stress axis : x y z
#
# Youngs Moduli (GPa) = 94.71277 94.71396 138.17307
#
# Poissons Ratio (x) = 0.09875 0.45548
# Poissons Ratio (y) = 0.09875 0.45548
# Poissons Ratio (z) = 0.31222 0.31222
#
# Static dielectric constant tensor:
#      x y z
#    x 4.157630 0.000000 0.000000 
#    y 0.000000 4.157620 0.000000 
#    z 0.000000 0.000000 3.890090 
# 
# 
# High freq. dielectric constant tensor:
#      x y z
#    x 1.796060 0.000000 0.000000 
#    y 0.000000 1.796060 0.000000 
#    z 0.000000 0.000000 1.782380 
# 
# From -- ./inp_files/9326.got.cif
#   From: 2010.03.12/outbox.cif.g09.slc.cpg/sg137_5_cif.got.tgz:9326.got - 2010.04.08 09:34:49.
