data_PCOD8318340
_publ_section_title
;
Structure prediction by ZEFSAII (Michael W. Deem and Ramdas Pophale) SiO2 
 PCOD8318340
Probable space group: P 42/M N M
;
_chemical_formula_sum "Si O2"
_cell_formula_units_Z 112
_cell_length_a 25.534135
_cell_length_b 25.534135
_cell_length_c 9.680187
_cell_angle_alpha 90.000000
_cell_angle_beta 90.000000
_cell_angle_gamma 90.000000
_cell_volume 6311.404968
_symmetry_space_group_name_H-M "P 42/M N M"
_symmetry_group_IT_number 136
_symmetry_cell_setting 'tetragonal'
loop_
_space_group_symop_operation_xyz
x,y,z
1/2-y,1/2+x,1/2+z
-x,-y,z
1/2+y,1/2-x,1/2+z
1/2+x,1/2-y,1/2-z
1/2-x,1/2+y,1/2-z
y,x,-z
-y,-x,-z
-x,-y,-z
1/2+y,1/2-x,1/2-z
x,y,-z
1/2-y,1/2+x,1/2-z
1/2-x,1/2+y,1/2+z
1/2+x,1/2-y,1/2+z
-y,-x,z
y,x,z
loop_
_atom_site_type_symbol
_atom_site_label
_atom_site_fract_x
_atom_site_fract_y
_atom_site_fract_z
Si Si1 0.677631 0.178868 0.657007
Si Si2 0.551937 0.364596 0.665480
Si Si3 0.104196 0.579518 0.652920
Si Si4 0.101709 0.736724 0.837430
Si Si5 0.638605 0.032517 0.159014
Si Si6 0.565200 0.648837 0.335861
Si Si7 0.717290 0.369547 0.651799
O O1 0.699219 0.187506 0.500000
O O2 0.628950 0.141031 0.656109
O O3 0.723209 0.154662 0.753018
O O4 0.656654 0.232916 0.728328
O O5 0.553427 0.362319 0.500000
O O6 0.583446 0.416555 0.716241
O O7 0.492559 0.365769 0.721928
O O8 0.579921 0.310902 0.722421
O O9 0.080237 0.571448 0.500000
O O10 0.057225 0.589876 0.758467
O O11 0.138666 0.529009 0.694536
O O12 0.056203 0.695081 0.799736
O O13 0.081848 0.793342 0.786851
O O14 0.115039 0.736542 0.000000
O O15 0.627416 0.044345 0.000000
O O16 0.564153 0.646780 0.500000
O O17 0.606449 0.606449 0.277014
O O18 0.738515 0.386223 0.500000
O O19 0.672833 0.327168 0.635670
#
# Coordination Sequence:
#
# PCOD8318340 Si02
#       7
#    16  16  16  16  16  16  16
#     4   9  17  29  46  66  89 116 150 190 226 261
#     4   8  14  24  39  63  94 122 150 189 233 273
#     4   9  18  30  44  63  84 110 147 185 220 261
#     4   9  18  31  45  63  92 124 153 183 220 269
#     4   9  18  31  45  62  84 114 148 181 222 267
#     4   9  17  27  41  63  90 124 160 187 220 272
#     4   8  14  24  40  64  88 110 142 184 227 264
#
# _framework density 17.745653000000001
#
# number of rings (size 3 to 8) (size 9 to 14) (size 15 to 20)
#    0.000    3.286    0.000    0.857    2.000    1.714 
#    0.000    2.857    0.000    0.000    0.000    0.000 
#    0.000    1.714    0.000    1.286    0.000    1.429 
#
# Total GULP energy -1387692.130129 kJ/mol
# GULP energy per Si atom -12390.108305 kJ/mol
# Density = 1.770526 g / cm^3
# Si number density = 17.745653 Si / 1000 Ang^3
#
#
#
# Elastic Constant Matrix: (Units=GPa)
#
#
# Indices 1 2 3 4 5 6 
#
# 1 124.9239 61.4522 27.2407 0.0000 0.0000 0.0000
# 2 61.4522 124.9239 27.2407 0.0000 0.0000 0.0000
# 3 27.2407 27.2407 26.6807 0.0000 0.0000 0.0000
# 4 0.0000 0.0000 0.0000 14.0661 0.0000 0.0000
# 5 0.0000 0.0000 0.0000 0.0000 14.0661 0.0000
# 6 0.0000 0.0000 0.0000 0.0000 0.0000 16.6520
#
#
#
# Elastic Compliance Matrix: (Units=1/GPa)
#
#
# Indices 1 2 3 4 5 6 
#
# 1 0.011702 -0.004053 -0.007809 0.000000 0.000000 0.000000
# 2 -0.004053 0.011702 -0.007809 0.000000 0.000000 0.000000
# 3 -0.007809 -0.007809 0.053425 0.000000 0.000000 0.000000
# 4 0.000000 0.000000 0.000000 0.071093 0.000000 0.000000
# 5 0.000000 0.000000 0.000000 0.000000 0.071093 0.000000
# 6 0.000000 0.000000 0.000000 0.000000 0.000000 0.060053
#
#
# Mechanical properties :
#
#
# Convention : Reuss Voigt Hill
#
# Bulk Modulus (GPa) = 26.67593 56.48839 41.58216
# Shear Modulus (GPa) = 15.11013 19.66318 17.38666
#
# Velocity S-wave (km/s) = 2.92118 3.33236 3.13352
# Velocity P-wave (km/s) = 5.14225 6.83429 6.04774
#
# Compressibility (1/GPa) = 0.03748698
#
# Stress axis : x y z
#
# Youngs Moduli (GPa) = 85.45857 85.45857 18.71774
#
# Poissons Ratio (x) = 0.34640 0.14616
# Poissons Ratio (y) = 0.34640 0.14616
# Poissons Ratio (z) = 0.66731 0.66731
#
# Static dielectric constant tensor:
#      x y z
#    x 3.503750 0.000000 0.000000 
#    y 0.000000 3.503750 0.000000 
#    z 0.000000 0.000000 3.028340 
# 
# 
# High freq. dielectric constant tensor:
#      x y z
#    x 1.690490 0.000000 0.000000 
#    y 0.000000 1.690490 0.000000 
#    z 0.000000 0.000000 1.624170 
# 
# From -- ./inp_files/3993.got.cif
#   From: 2010.03.12/outbox.cif.g09.slc.cpg/sg136_2_cif.got.tgz:3993.got - 2010.04.06 18:39:43.
