data_PCOD8318573
_publ_section_title
;
Structure prediction by ZEFSAII (Michael W. Deem and Ramdas Pophale) SiO2 
 PCOD8318573
Probable space group: P 42/N M C
;
_chemical_formula_sum "Si O2"
_cell_formula_units_Z 96
_cell_length_a 17.227346
_cell_length_b 17.227346
_cell_length_c 19.039713
_cell_angle_alpha 90.000000
_cell_angle_beta 90.000000
_cell_angle_gamma 90.000000
_cell_volume 5650.633636
_symmetry_space_group_name_H-M "P 42/N M C"
_symmetry_group_IT_number 137
_space_group.IT_coordinate_system_code '2'
_symmetry_cell_setting 'tetragonal'
loop_
_space_group_symop_operation_xyz
x,y,z
1/2-y,x,1/2+z
1/2-x,1/2-y,z
y,1/2-x,1/2+z
1/2+x,-y,-z
-x,1/2+y,-z
1/2+y,1/2+x,1/2-z
-y,-x,1/2-z
-x,-y,-z
1/2+y,-x,1/2-z
1/2+x,1/2+y,-z
-y,1/2+x,1/2-z
1/2-x,y,z
x,1/2-y,z
1/2-y,1/2-x,1/2+z
y,x,1/2+z
loop_
_atom_site_type_symbol
_atom_site_label
_atom_site_fract_x
_atom_site_fract_y
_atom_site_fract_z
Si Si1 0.036697 0.066719 0.600979
Si Si2 0.597468 0.485333 0.038848
Si Si3 0.338504 0.519422 0.677337
Si Si4 0.839854 0.090113 0.820835
Si Si5 0.662130 0.339253 0.532114
Si Si6 0.056334 0.835121 0.669943
O O1 0.042107 0.115918 0.527682
O O2 0.986162 0.110228 0.659616
O O3 0.997653 0.986298 0.574118
O O4 0.119960 0.050130 0.635485
O O5 0.659234 0.499463 0.101561
O O6 0.604997 0.396355 0.010314
O O7 0.250000 0.519621 0.653494
O O8 0.374845 0.603154 0.659595
O O9 0.349952 0.504946 0.760615
O O10 0.872509 0.127492 0.750000
O O11 0.750000 0.066297 0.809779
O O12 0.848359 0.151313 0.884057
O O13 0.750000 0.363806 0.513502
O O14 0.645967 0.250000 0.510130
O O15 0.094750 0.750000 0.674934
#
# Coordination Sequence:
#
# PCOD8318573 Si02
#       6
#    16  16  16  16  16  16
#     4   9  19  32  47  67  96 130 168 207 240 285
#     4   9  17  29  44  67  95 136 170 200 234 279
#     4   9  18  31  48  72 101 134 167 201 242 289
#     4  10  20  32  51  74  97 127 160 201 253 304
#     4   9  17  29  45  70 106 137 160 190 236 298
#     4   9  17  28  46  73 102 132 162 195 239 292
#
# _framework density 16.989245
#
# number of rings (size 3 to 8) (size 9 to 14) (size 15 to 20)
#    0.000    2.833    0.000    1.000    4.667    4.500 
#    0.000    1.667    0.000    0.500    0.000    0.000 
#    0.000    0.000    0.000    0.000    0.000    0.000 
#
# Total GULP energy -1189320.352379 kJ/mol
# GULP energy per Si atom -12388.753671 kJ/mol
# Density = 1.695058 g / cm^3
# Si number density = 16.989245 Si / 1000 Ang^3
#
#
#
# Elastic Constant Matrix: (Units=GPa)
#
#
# Indices 1 2 3 4 5 6 
#
# 1 66.9052 58.3257 43.8738 0.0000 0.0000 0.0000
# 2 58.3257 66.9051 43.8736 0.0000 0.0000 0.0000
# 3 43.8738 43.8736 125.1942 0.0000 0.0000 0.0000
# 4 0.0000 0.0000 0.0000 22.9739 0.0000 0.0000
# 5 0.0000 0.0000 0.0000 0.0000 22.9736 0.0000
# 6 0.0000 0.0000 0.0000 0.0000 0.0000 20.7888
#
#
#
# Elastic Compliance Matrix: (Units=1/GPa)
#
#
# Indices 1 2 3 4 5 6 
#
# 1 0.063571 -0.052987 -0.003709 0.000000 0.000000 0.000000
# 2 -0.052987 0.063571 -0.003709 0.000000 0.000000 0.000000
# 3 -0.003709 -0.003709 0.010587 0.000000 0.000000 0.000000
# 4 0.000000 0.000000 0.000000 0.043528 0.000000 0.000000
# 5 0.000000 0.000000 0.000000 0.000000 0.043528 0.000000
# 6 0.000000 0.000000 0.000000 0.000000 0.000000 0.048103
#
#
# Mechanical properties :
#
#
# Convention : Reuss Voigt Hill
#
# Bulk Modulus (GPa) = 59.10508 61.23897 60.17202
# Shear Modulus (GPa) = 12.52069 20.87601 16.69835
#
# Velocity S-wave (km/s) = 2.71768 3.50920 3.13849
# Velocity P-wave (km/s) = 6.68677 7.24867 6.97338
#
# Compressibility (1/GPa) = 0.01691902
#
# Stress axis : x y z
#
# Youngs Moduli (GPa) = 15.73038 15.73039 94.45251
#
# Poissons Ratio (x) = 0.83351 0.35035
# Poissons Ratio (y) = 0.83351 0.35033
# Poissons Ratio (z) = 0.05835 0.05835
#
# Static dielectric constant tensor:
#      x y z
#    x 3.020570 0.000000 0.000000 
#    y 0.000000 3.020570 0.000000 
#    z 0.000000 0.000000 3.751330 
# 
# 
# High freq. dielectric constant tensor:
#      x y z
#    x 1.621800 0.000000 0.000000 
#    y 0.000000 1.621800 0.000000 
#    z 0.000000 0.000000 1.687740 
# 
# From -- ./inp_files/6525.got.cif
#   From: 2010.03.12/outbox.cif.g09.slc.cpg/sg137_4_cif.got.tgz:6525.got - 2010.04.08 09:34:49.
