data_PCOD8318609
_publ_section_title
;
Structure prediction by ZEFSAII (Michael W. Deem and Ramdas Pophale) SiO2 
 PCOD8318609
Probable space group: P 42/N M C
;
_chemical_formula_sum "Si O2"
_cell_formula_units_Z 112
_cell_length_a 14.863673
_cell_length_b 14.863673
_cell_length_c 29.392473
_cell_angle_alpha 90.000000
_cell_angle_beta 90.000000
_cell_angle_gamma 90.000000
_cell_volume 6493.643056
_symmetry_space_group_name_H-M "P 42/N M C"
_symmetry_group_IT_number 137
_space_group.IT_coordinate_system_code '2'
_symmetry_cell_setting 'tetragonal'
loop_
_space_group_symop_operation_xyz
x,y,z
1/2-y,x,1/2+z
1/2-x,1/2-y,z
y,1/2-x,1/2+z
1/2+x,-y,-z
-x,1/2+y,-z
1/2+y,1/2+x,1/2-z
-y,-x,1/2-z
-x,-y,-z
1/2+y,-x,1/2-z
1/2+x,1/2+y,-z
-y,1/2+x,1/2-z
1/2-x,y,z
x,1/2-y,z
1/2-y,1/2-x,1/2+z
y,x,1/2+z
loop_
_atom_site_type_symbol
_atom_site_label
_atom_site_fract_x
_atom_site_fract_y
_atom_site_fract_z
Si Si1 0.149187 0.649830 0.067248
Si Si2 0.150106 0.147357 0.559823
Si Si3 0.509045 0.854834 0.368452
Si Si4 0.904159 0.977452 0.519537
Si Si5 0.650683 0.856754 0.200715
Si Si6 0.355131 0.146155 0.401970
Si Si7 0.494004 0.857336 0.266913
O O1 0.250000 0.625307 0.048460
O O2 0.148826 0.750000 0.087038
O O3 0.123142 0.587488 0.109778
O O4 0.074628 0.642354 0.027604
O O5 0.250000 0.147911 0.580293
O O6 0.121098 0.250000 0.546399
O O7 0.150316 0.084010 0.515690
O O8 0.085313 0.104816 0.598245
O O9 0.527805 0.750000 0.364596
O O10 0.514156 0.894148 0.317706
O O11 0.911901 0.920744 0.566186
O O12 0.000000 0.000000 0.500000
O O13 0.750000 0.893373 0.214598
O O14 0.653198 0.750000 0.201620
O O15 0.627110 0.887834 0.149501
O O16 0.576384 0.892515 0.235879
O O17 0.250000 0.123247 0.408017
O O18 0.373358 0.250000 0.415063
O O19 0.401362 0.901362 0.250000
O O20 0.481416 0.750000 0.264936
#
# Coordination Sequence:
#
# PCOD8318609 Si02
#       7
#    16  16  16  16  16  16  16
#     4  10  21  36  51  67  96 138 176 207 239 288
#     4  10  20  35  54  75 101 129 163 211 259 302
#     4   9  19  35  49  70  99 130 171 207 240 290
#     4  12  22  31  50  74 101 133 164 209 258 299
#     4   8  16  32  52  73  97 126 162 207 256 299
#     4   9  18  33  53  76  98 122 162 212 257 303
#     4  10  21  33  50  74 104 137 170 207 244 293
#
# _framework density 17.247637999999998
#
# number of rings (size 3 to 8) (size 9 to 14) (size 15 to 20)
#    0.000    2.286    1.429    2.571    2.000    3.000 
#    0.000    4.286    0.000    0.000    0.000    0.000 
#    0.000    0.286    0.000    0.000    0.000    0.000 
#
# Total GULP energy -1388285.182829 kJ/mol
# GULP energy per Si atom -12395.403418 kJ/mol
# Density = 1.720838 g / cm^3
# Si number density = 17.247638 Si / 1000 Ang^3
#
#
#
# Elastic Constant Matrix: (Units=GPa)
#
#
# Indices 1 2 3 4 5 6 
#
# 1 89.6526 36.7474 54.4524 0.0000 0.0000 0.0000
# 2 36.7474 89.6526 54.4524 0.0000 0.0000 0.0000
# 3 54.4524 54.4524 123.9294 0.0000 0.0000 0.0000
# 4 0.0000 0.0000 0.0000 24.5211 0.0000 0.0000
# 5 0.0000 0.0000 0.0000 0.0000 24.5211 0.0000
# 6 0.0000 0.0000 0.0000 0.0000 0.0000 19.6548
#
#
#
# Elastic Compliance Matrix: (Units=1/GPa)
#
#
# Indices 1 2 3 4 5 6 
#
# 1 0.015816 -0.003085 -0.005594 0.000000 0.000000 0.000000
# 2 -0.003085 0.015816 -0.005594 0.000000 0.000000 0.000000
# 3 -0.005594 -0.005594 0.012985 0.000000 0.000000 0.000000
# 4 0.000000 0.000000 0.000000 0.040781 0.000000 0.000000
# 5 0.000000 0.000000 0.000000 0.000000 0.040781 0.000000
# 6 0.000000 0.000000 0.000000 0.000000 0.000000 0.050878
#
#
# Mechanical properties :
#
#
# Convention : Reuss Voigt Hill
#
# Bulk Modulus (GPa) = 62.22177 66.05987 64.14082
# Shear Modulus (GPa) = 23.70107 24.24488 23.97298
#
# Velocity S-wave (km/s) = 3.71099 3.75332 3.73222
# Velocity P-wave (km/s) = 7.38348 7.56090 7.47272
#
# Compressibility (1/GPa) = 0.01607155
#
# Stress axis : x y z
#
# Youngs Moduli (GPa) = 63.22591 63.22591 77.01382
#
# Poissons Ratio (x) = 0.19508 0.43079
# Poissons Ratio (y) = 0.19508 0.43079
# Poissons Ratio (z) = 0.35367 0.35367
#
# Static dielectric constant tensor:
#      x y z
#    x 3.285540 0.000000 0.000000 
#    y 0.000000 3.285540 0.000000 
#    z 0.000000 0.000000 3.429320 
# 
# 
# High freq. dielectric constant tensor:
#      x y z
#    x 1.652200 0.000000 0.000000 
#    y 0.000000 1.652200 0.000000 
#    z 0.000000 0.000000 1.662470 
# 
# From -- ./inp_files/9849.got.cif
#   From: 2010.03.12/outbox.cif.g09.slc.cpg/sg137_5_cif.got.tgz:9849.got - 2010.04.08 09:34:49.
