data_PCOD8318081
_publ_section_title
;
Structure prediction by ZEFSAII (Michael W. Deem and Ramdas Pophale) SiO2 
 PCOD8318081
Probable space group: P 42/M N M
;
_chemical_formula_sum "Si O2"
_cell_formula_units_Z 80
_cell_length_a 13.309696
_cell_length_b 13.309696
_cell_length_c 24.787694
_cell_angle_alpha 90.000000
_cell_angle_beta 90.000000
_cell_angle_gamma 90.000000
_cell_volume 4391.090605
_symmetry_space_group_name_H-M "P 42/M N M"
_symmetry_group_IT_number 136
_symmetry_cell_setting 'tetragonal'
loop_
_space_group_symop_operation_xyz
x,y,z
1/2-y,1/2+x,1/2+z
-x,-y,z
1/2+y,1/2-x,1/2+z
1/2+x,1/2-y,1/2-z
1/2-x,1/2+y,1/2-z
y,x,-z
-y,-x,-z
-x,-y,-z
1/2+y,1/2-x,1/2-z
x,y,-z
1/2-y,1/2+x,1/2-z
1/2-x,1/2+y,1/2+z
1/2+x,1/2-y,1/2+z
-y,-x,z
y,x,z
loop_
_atom_site_type_symbol
_atom_site_label
_atom_site_fract_x
_atom_site_fract_y
_atom_site_fract_z
Si Si1 0.502327 0.664594 0.761562
Si Si2 0.888703 0.521661 0.938645
Si Si3 0.573037 0.734887 0.653124
Si Si4 0.263341 0.100861 0.641996
Si Si5 0.588311 0.248147 0.561561
O O1 0.413957 0.586044 0.753689
O O2 0.608066 0.608066 0.772713
O O3 0.506077 0.730250 0.707035
O O4 0.478202 0.738711 0.810802
O O5 0.801281 0.461019 0.909098
O O6 0.861378 0.638825 0.933920
O O7 0.000000 0.500000 0.914031
O O8 0.887811 0.483275 0.000000
O O9 0.629922 0.629922 0.645373
O O10 0.649461 0.825776 0.662122
O O11 0.507955 0.748794 0.599658
O O12 0.164279 0.164279 0.625463
O O13 0.552667 0.267766 0.500000
O O14 0.669889 0.330112 0.580012
#
# Coordination Sequence:
#
# PCOD8318081 Si02
#       5
#    16  16  16  16  16
#     4   9  19  36  55  76 108 149 187 227 276 325
#     4  10  20  37  57  78 109 147 181 220 273 326
#     4  10  20  35  55  82 115 148 184 227 277 333
#     4  10  21  36  56  83 110 140 185 231 273 328
#     4  10  21  36  56  83 112 146 187 228 274 331
#
# _framework density 18.218707999999999
#
# number of rings (size 3 to 8) (size 9 to 14) (size 15 to 20)
#    0.000    2.200    2.000    0.600    0.000    4.400 
#    0.000    5.000    0.000    0.000    0.000    5.600 
#    0.000    0.000    0.000    0.000    0.000    0.000 
#
# Total GULP energy -992116.016484 kJ/mol
# GULP energy per Si atom -12401.450206 kJ/mol
# Density = 1.817724 g / cm^3
# Si number density = 18.218708 Si / 1000 Ang^3
#
#
#
# Elastic Constant Matrix: (Units=GPa)
#
#
# Indices 1 2 3 4 5 6 
#
# 1 77.8321 28.7724 53.9928 0.0000 0.0000 0.0000
# 2 28.7724 77.8321 53.9928 0.0000 0.0000 0.0000
# 3 53.9928 53.9928 113.9115 0.0000 0.0000 0.0000
# 4 0.0000 0.0000 0.0000 32.3690 0.0000 0.0000
# 5 0.0000 0.0000 0.0000 0.0000 32.3690 0.0000
# 6 0.0000 0.0000 0.0000 0.0000 0.0000 25.5205
#
#
#
# Elastic Compliance Matrix: (Units=1/GPa)
#
#
# Indices 1 2 3 4 5 6 
#
# 1 0.019214 -0.001170 -0.008553 0.000000 0.000000 0.000000
# 2 -0.001170 0.019214 -0.008553 0.000000 0.000000 0.000000
# 3 -0.008553 -0.008553 0.016886 0.000000 0.000000 0.000000
# 4 0.000000 0.000000 0.000000 0.030894 0.000000 0.000000
# 5 0.000000 0.000000 0.000000 0.000000 0.030894 0.000000
# 6 0.000000 0.000000 0.000000 0.000000 0.000000 0.039184
#
#
# Mechanical properties :
#
#
# Convention : Reuss Voigt Hill
#
# Bulk Modulus (GPa) = 53.29420 60.34351 56.81886
# Shear Modulus (GPa) = 25.11433 26.90624 26.01028
#
# Velocity S-wave (km/s) = 3.71683 3.84715 3.78255
# Velocity P-wave (km/s) = 6.90911 7.27514 7.09448
#
# Compressibility (1/GPa) = 0.01876377
#
# Stress axis : x y z
#
# Youngs Moduli (GPa) = 52.04652 52.04652 59.21928
#
# Poissons Ratio (x) = 0.06088 0.50648
# Poissons Ratio (y) = 0.06088 0.50648
# Poissons Ratio (z) = 0.44513 0.44513
#
# Static dielectric constant tensor:
#      x y z
#    x 3.413770 0.000000 0.000000 
#    y 0.000000 3.413770 0.000000 
#    z 0.000000 0.000000 3.352860 
# 
# 
# High freq. dielectric constant tensor:
#      x y z
#    x 1.705260 0.000000 0.000000 
#    y 0.000000 1.705260 0.000000 
#    z 0.000000 0.000000 1.704150 
# 
# From -- ./inp_files/7221.got.cif
#   From: 2010.03.12/outbox.cif.g09.slc.cpg/sg136_4_cif.got.tgz:7221.got - 2010.04.06 18:39:43.
