data_PCOD8318575
_publ_section_title
;
Structure prediction by ZEFSAII (Michael W. Deem and Ramdas Pophale) SiO2 
 PCOD8318575
Probable space group: P 42/N M C
;
_chemical_formula_sum "Si O2"
_cell_formula_units_Z 112
_cell_length_a 14.970736
_cell_length_b 14.970736
_cell_length_c 24.253618
_cell_angle_alpha 90.000000
_cell_angle_beta 90.000000
_cell_angle_gamma 90.000000
_cell_volume 5435.792084
_symmetry_space_group_name_H-M "P 42/N M C"
_symmetry_group_IT_number 137
_space_group.IT_coordinate_system_code '2'
_symmetry_cell_setting 'tetragonal'
loop_
_space_group_symop_operation_xyz
x,y,z
1/2-y,x,1/2+z
1/2-x,1/2-y,z
y,1/2-x,1/2+z
1/2+x,-y,-z
-x,1/2+y,-z
1/2+y,1/2+x,1/2-z
-y,-x,1/2-z
-x,-y,-z
1/2+y,-x,1/2-z
1/2+x,1/2+y,-z
-y,1/2+x,1/2-z
1/2-x,y,z
x,1/2-y,z
1/2-y,1/2-x,1/2+z
y,x,1/2+z
loop_
_atom_site_type_symbol
_atom_site_label
_atom_site_fract_x
_atom_site_fract_y
_atom_site_fract_z
Si Si1 0.493325 0.149259 0.410140
Si Si2 0.525852 0.908723 0.474531
Si Si3 0.147512 0.844299 0.080664
Si Si4 0.505075 0.147059 0.104399
Si Si5 0.918270 0.961058 0.280424
Si Si6 0.849194 0.085407 0.804988
Si Si7 0.354765 0.149320 0.821948
O O1 0.517414 0.250000 0.391508
O O2 0.453592 0.154413 0.472810
O O3 0.416783 0.107677 0.369854
O O4 0.584258 0.091342 0.406236
O O5 0.436162 0.883254 0.444111
O O6 0.609012 0.921106 0.432099
O O7 0.500000 0.000000 0.500000
O O8 0.250000 0.836329 0.065876
O O9 0.102174 0.750000 0.059595
O O10 0.129677 0.847133 0.145797
O O11 0.524624 0.250000 0.087046
O O12 0.480838 0.148708 0.169323
O O13 0.875811 0.890894 0.237991
O O14 0.006906 0.920825 0.307410
O O15 0.946093 0.053908 0.250000
O O16 0.856968 0.143033 0.750000
O O17 0.750000 0.044328 0.810619
O O18 0.250000 0.156596 0.829568
O O19 0.396140 0.250000 0.826906
#
# Coordination Sequence:
#
# PCOD8318575 Si02
#       7
#    16  16  16  16  16  16  16
#     4  10  22  42  66  91 124 162 208 270 323 372
#     4  10  22  39  58  86 119 156 201 253 307 367
#     4  10  20  36  59  85 118 156 193 240 300 369
#     4  11  23  41  63  91 126 168 213 261 323 387
#     4  11  20  37  60  87 125 165 205 257 318 374
#     4  10  20  32  53  84 122 158 194 239 298 371
#     4  10  21  38  62  91 121 159 209 260 319 387
#
# _framework density 20.604174
#
# number of rings (size 3 to 8) (size 9 to 14) (size 15 to 20)
#    0.000    1.714    2.857    1.714    0.000    3.857 
#    0.000    6.429    0.000    3.857    0.000    0.000 
#    0.000    0.000    0.000    0.000    0.000    0.000 
#
# Total GULP energy -1387604.116159 kJ/mol
# GULP energy per Si atom -12389.322466 kJ/mol
# Density = 2.055728 g / cm^3
# Si number density = 20.604174 Si / 1000 Ang^3
#
#
#
# Elastic Constant Matrix: (Units=GPa)
#
#
# Indices 1 2 3 4 5 6 
#
# 1 97.5334 30.3593 47.3828 0.0000 0.0000 0.0000
# 2 30.3593 97.5322 47.3831 0.0000 0.0000 0.0000
# 3 47.3828 47.3831 116.6990 0.0000 0.0000 0.0000
# 4 0.0000 0.0000 0.0000 18.1413 0.0000 0.0000
# 5 0.0000 0.0000 0.0000 0.0000 18.1412 0.0000
# 6 0.0000 0.0000 0.0000 0.0000 0.0000 27.2974
#
#
#
# Elastic Compliance Matrix: (Units=1/GPa)
#
#
# Indices 1 2 3 4 5 6 
#
# 1 0.013035 -0.001851 -0.004541 0.000000 0.000000 0.000000
# 2 -0.001851 0.013035 -0.004541 0.000000 0.000000 0.000000
# 3 -0.004541 -0.004541 0.012257 0.000000 0.000000 0.000000
# 4 0.000000 0.000000 0.000000 0.055123 0.000000 0.000000
# 5 0.000000 0.000000 0.000000 0.000000 0.055123 0.000000
# 6 0.000000 0.000000 0.000000 0.000000 0.000000 0.036634
#
#
# Mechanical properties :
#
#
# Convention : Reuss Voigt Hill
#
# Bulk Modulus (GPa) = 60.75160 62.44611 61.59885
# Shear Modulus (GPa) = 23.52275 25.15861 24.34068
#
# Velocity S-wave (km/s) = 3.38250 3.49814 3.44080
# Velocity P-wave (km/s) = 6.69359 6.83295 6.76363
#
# Compressibility (1/GPa) = 0.01646047
#
# Stress axis : x y z
#
# Youngs Moduli (GPa) = 76.71520 76.71379 81.58899
#
# Poissons Ratio (x) = 0.14203 0.37049
# Poissons Ratio (y) = 0.14204 0.37050
# Poissons Ratio (z) = 0.34835 0.34836
#
# Static dielectric constant tensor:
#      x y z
#    x 3.407920 0.000000 0.000000 
#    y 0.000000 3.407930 0.000000 
#    z 0.000000 0.000000 4.230610 
# 
# 
# High freq. dielectric constant tensor:
#      x y z
#    x 1.795100 0.000000 0.000000 
#    y 0.000000 1.795100 0.000000 
#    z 0.000000 0.000000 1.819750 
# 
# From -- ./inp_files/8992.got.cif
#   From: 2010.03.12/outbox.cif.g09.slc.cpg/sg137_5_cif.got.tgz:8992.got - 2010.04.08 09:34:49.
