data_PCOD8318770
_publ_section_title
;
Structure prediction by ZEFSAII (Michael W. Deem and Ramdas Pophale) SiO2 
 PCOD8318770
Probable space group: P 42/N M C
;
_chemical_formula_sum "Si O2"
_cell_formula_units_Z 72
_cell_length_a 13.650554
_cell_length_b 13.650554
_cell_length_c 19.546499
_cell_angle_alpha 90.000000
_cell_angle_beta 90.000000
_cell_angle_gamma 90.000000
_cell_volume 3642.248191
_symmetry_space_group_name_H-M "P 42/N M C"
_symmetry_group_IT_number 137
_space_group.IT_coordinate_system_code '2'
_symmetry_cell_setting 'tetragonal'
loop_
_space_group_symop_operation_xyz
x,y,z
1/2-y,x,1/2+z
1/2-x,1/2-y,z
y,1/2-x,1/2+z
1/2+x,-y,-z
-x,1/2+y,-z
1/2+y,1/2+x,1/2-z
-y,-x,1/2-z
-x,-y,-z
1/2+y,-x,1/2-z
1/2+x,1/2+y,-z
-y,1/2+x,1/2-z
1/2-x,y,z
x,1/2-y,z
1/2-y,1/2-x,1/2+z
y,x,1/2+z
loop_
_atom_site_type_symbol
_atom_site_label
_atom_site_fract_x
_atom_site_fract_y
_atom_site_fract_z
Si Si1 0.638578 0.987794 0.219650
Si Si2 0.860542 0.139459 0.750000
Si Si3 0.861434 0.948616 0.827412
Si Si4 0.863631 0.509947 0.060740
Si Si5 0.528194 0.866152 0.957011
O O1 0.750000 0.017000 0.232887
O O2 0.611667 0.887679 0.258848
O O3 0.617280 0.970785 0.140283
O O4 0.576025 0.076025 0.250000
O O5 0.750000 0.124592 0.721523
O O6 0.935865 0.119814 0.687649
O O7 0.750000 0.926944 0.847115
O O8 0.928544 0.913711 0.888765
O O9 0.750000 0.493837 0.043737
O O10 0.920032 0.412678 0.034238
O O11 0.903479 0.605479 0.020976
O O12 0.520283 0.750000 0.950369
#
# Coordination Sequence:
#
# PCOD8318770 Si02
#       5
#    16   8  16  16  16
#     4  11  22  39  61  88 122 159 201 250 303 357
#     4   9  18  34  58  86 119 160 204 254 311 366
#     4  11  21  36  60  89 122 159 206 257 306 362
#     4  10  23  41  62  89 124 162 203 253 306 364
#     4  11  23  41  63  88 123 163 205 253 307 364
#
# _framework density 19.76801
#
# number of rings (size 3 to 8) (size 9 to 14) (size 15 to 20)
#    0.000    1.444    3.333    1.333    0.000    4.667 
#    0.000   11.111    0.000    5.333    0.000    0.000 
#    0.000    0.000    0.000    0.000    0.000    0.000 
#
# Total GULP energy -892852.558910 kJ/mol
# GULP energy per Si atom -12400.729985 kJ/mol
# Density = 1.972302 g / cm^3
# Si number density = 19.768010 Si / 1000 Ang^3
#
#
#
# Elastic Constant Matrix: (Units=GPa)
#
#
# Indices 1 2 3 4 5 6 
#
# 1 97.8002 46.3951 46.8558 0.0000 0.0000 0.0000
# 2 46.3951 97.8018 46.8558 0.0000 0.0000 0.0000
# 3 46.8558 46.8558 103.7563 0.0000 0.0000 0.0000
# 4 0.0000 0.0000 0.0000 26.9458 0.0000 0.0000
# 5 0.0000 0.0000 0.0000 0.0000 26.9461 0.0000
# 6 0.0000 0.0000 0.0000 0.0000 0.0000 16.6283
#
#
#
# Elastic Compliance Matrix: (Units=1/GPa)
#
#
# Indices 1 2 3 4 5 6 
#
# 1 0.014635 -0.004819 -0.004433 0.000000 0.000000 0.000000
# 2 -0.004819 0.014634 -0.004433 0.000000 0.000000 0.000000
# 3 -0.004433 -0.004433 0.013642 0.000000 0.000000 0.000000
# 4 0.000000 0.000000 0.000000 0.037112 0.000000 0.000000
# 5 0.000000 0.000000 0.000000 0.000000 0.037111 0.000000
# 6 0.000000 0.000000 0.000000 0.000000 0.000000 0.060138
#
#
# Mechanical properties :
#
#
# Convention : Reuss Voigt Hill
#
# Bulk Modulus (GPa) = 64.34117 64.39685 64.36901
# Shear Modulus (GPa) = 23.82988 24.72081 24.27535
#
# Velocity S-wave (km/s) = 3.47576 3.54014 3.50810
# Velocity P-wave (km/s) = 6.98045 7.02547 7.00299
#
# Compressibility (1/GPa) = 0.01554215
#
# Stress axis : x y z
#
# Youngs Moduli (GPa) = 68.33131 68.33272 73.30523
#
# Poissons Ratio (x) = 0.32927 0.32495
# Poissons Ratio (y) = 0.32926 0.32494
# Poissons Ratio (z) = 0.30290 0.30290
#
# Static dielectric constant tensor:
#      x y z
#    x 3.741690 0.000000 0.000000 
#    y 0.000000 3.741670 0.000000 
#    z 0.000000 0.000000 3.710700 
# 
# 
# High freq. dielectric constant tensor:
#      x y z
#    x 1.775330 0.000000 0.000000 
#    y 0.000000 1.775330 0.000000 
#    z 0.000000 0.000000 1.771980 
# 
# From -- ./inp_files/6192.got.cif
#   From: 2010.03.12/outbox.cif.g09.slc.cpg/sg137_4_cif.got.tgz:6192.got - 2010.04.08 09:34:49.
