data_PCOD8318239
_publ_section_title
;
Structure prediction by ZEFSAII (Michael W. Deem and Ramdas Pophale) SiO2 
 PCOD8318239
Probable space group: P 42/M N M
;
_chemical_formula_sum "Si O2"
_cell_formula_units_Z 72
_cell_length_a 19.224194
_cell_length_b 19.224194
_cell_length_c 9.018231
_cell_angle_alpha 90.000000
_cell_angle_beta 90.000000
_cell_angle_gamma 90.000000
_cell_volume 3332.864339
_symmetry_space_group_name_H-M "P 42/M N M"
_symmetry_group_IT_number 136
_symmetry_cell_setting 'tetragonal'
loop_
_space_group_symop_operation_xyz
x,y,z
1/2-y,1/2+x,1/2+z
-x,-y,z
1/2+y,1/2-x,1/2+z
1/2+x,1/2-y,1/2-z
1/2-x,1/2+y,1/2-z
y,x,-z
-y,-x,-z
-x,-y,-z
1/2+y,1/2-x,1/2-z
x,y,-z
1/2-y,1/2+x,1/2-z
1/2-x,1/2+y,1/2+z
1/2+x,1/2-y,1/2+z
-y,-x,z
y,x,z
loop_
_atom_site_type_symbol
_atom_site_label
_atom_site_fract_x
_atom_site_fract_y
_atom_site_fract_z
Si Si1 0.057848 0.057848 0.334974
Si Si2 0.690856 0.873749 0.832908
Si Si3 0.380357 0.269492 0.171521
Si Si4 0.194932 0.018492 0.170017
Si Si5 0.917076 0.450363 0.829865
O O1 0.080743 0.080743 0.500000
O O2 0.122549 0.024380 0.252061
O O3 0.000000 0.000000 0.343890
O O4 0.676390 0.792514 0.800365
O O5 0.768704 0.904815 0.818491
O O6 0.655687 0.915274 0.699103
O O7 0.663851 0.891465 0.000000
O O8 0.340654 0.340654 0.216064
O O9 0.452469 0.261643 0.262961
O O10 0.401869 0.270664 0.000000
O O11 0.181619 0.999576 0.000000
O O12 0.911567 0.530087 0.780757
O O13 0.940266 0.444178 0.000000
#
# Coordination Sequence:
#
# PCOD8318239 Si02
#       5
#     8  16  16  16  16
#     4  11  25  45  69  95 127 169 221 274 329 392
#     4  10  22  39  61  89 124 163 208 259 318 385
#     4  10  22  41  65  90 125 172 217 262 324 399
#     4  11  24  41  66  98 132 168 214 271 331 389
#     4  11  21  34  54  80 115 157 206 255 308 367
#
# _framework density 21.603038999999999
#
# number of rings (size 3 to 8) (size 9 to 14) (size 15 to 20)
#    0.000    1.444    0.000    5.667    1.556   10.222 
#    0.000    0.000    0.000    0.000    0.000    0.000 
#    0.000    0.000    0.000    0.000    0.000    0.000 
#
# Total GULP energy -892097.903861 kJ/mol
# GULP energy per Si atom -12390.248665 kJ/mol
# Density = 2.155387 g / cm^3
# Si number density = 21.603039 Si / 1000 Ang^3
#
#
#
# Elastic Constant Matrix: (Units=GPa)
#
#
# Indices 1 2 3 4 5 6 
#
# 1 108.3966 22.4577 45.5555 0.0000 0.0000 0.0000
# 2 22.4577 108.3966 45.5555 0.0000 0.0000 0.0000
# 3 45.5555 45.5555 132.1348 0.0000 0.0000 0.0000
# 4 0.0000 0.0000 0.0000 29.7723 0.0000 0.0000
# 5 0.0000 0.0000 0.0000 0.0000 29.7723 0.0000
# 6 0.0000 0.0000 0.0000 0.0000 0.0000 50.5666
#
#
#
# Elastic Compliance Matrix: (Units=1/GPa)
#
#
# Indices 1 2 3 4 5 6 
#
# 1 0.010846 -0.000790 -0.003467 0.000000 0.000000 0.000000
# 2 -0.000790 0.010846 -0.003467 0.000000 0.000000 0.000000
# 3 -0.003467 -0.003467 0.009959 0.000000 0.000000 0.000000
# 4 0.000000 0.000000 0.000000 0.033588 0.000000 0.000000
# 5 0.000000 0.000000 0.000000 0.000000 0.033588 0.000000
# 6 0.000000 0.000000 0.000000 0.000000 0.000000 0.019776
#
#
# Mechanical properties :
#
#
# Convention : Reuss Voigt Hill
#
# Bulk Modulus (GPa) = 61.71762 64.00727 62.86245
# Shear Modulus (GPa) = 35.85455 37.71286 36.78370
#
# Velocity S-wave (km/s) = 4.07836 4.18271 4.13087
# Velocity P-wave (km/s) = 7.12800 7.28148 7.20515
#
# Compressibility (1/GPa) = 0.01620283
#
# Stress axis : x y z
#
# Youngs Moduli (GPa) = 92.19885 92.19885 100.41554
#
# Poissons Ratio (x) = 0.07284 0.34814
# Poissons Ratio (y) = 0.07284 0.34814
# Poissons Ratio (z) = 0.31965 0.31965
#
# Static dielectric constant tensor:
#      x y z
#    x 3.891240 0.000000 0.000000 
#    y 0.000000 3.891240 0.000000 
#    z 0.000000 0.000000 4.188230 
# 
# 
# High freq. dielectric constant tensor:
#      x y z
#    x 1.846160 0.000000 0.000000 
#    y 0.000000 1.846160 0.000000 
#    z 0.000000 0.000000 1.849860 
# 
# From -- ./inp_files/1561.got.cif
#   From: 2010.03.12/outbox.cif.g09.slc.cpg/sg136_1_cif.got.tgz:1561.got - 2010.04.06 18:39:43.
