data_PCOD8318280
_publ_section_title
;
Structure prediction by ZEFSAII (Michael W. Deem and Ramdas Pophale) SiO2 
 PCOD8318280
Probable space group: P 42/M N M
;
_chemical_formula_sum "Si O2"
_cell_formula_units_Z 112
_cell_length_a 13.971355
_cell_length_b 13.971355
_cell_length_c 30.846832
_cell_angle_alpha 90.000000
_cell_angle_beta 90.000000
_cell_angle_gamma 90.000000
_cell_volume 6021.263373
_symmetry_space_group_name_H-M "P 42/M N M"
_symmetry_group_IT_number 136
_symmetry_cell_setting 'tetragonal'
loop_
_space_group_symop_operation_xyz
x,y,z
1/2-y,1/2+x,1/2+z
-x,-y,z
1/2+y,1/2-x,1/2+z
1/2+x,1/2-y,1/2-z
1/2-x,1/2+y,1/2-z
y,x,-z
-y,-x,-z
-x,-y,-z
1/2+y,1/2-x,1/2-z
x,y,-z
1/2-y,1/2+x,1/2-z
1/2-x,1/2+y,1/2+z
1/2+x,1/2-y,1/2+z
-y,-x,z
y,x,z
loop_
_atom_site_type_symbol
_atom_site_label
_atom_site_fract_x
_atom_site_fract_y
_atom_site_fract_z
Si Si1 0.009505 0.264698 0.209226
Si Si2 0.078353 0.921648 0.340507
Si Si3 0.052619 0.350187 0.047376
Si Si4 0.641691 0.940960 0.547633
Si Si5 0.422242 0.422242 0.744983
Si Si6 0.306383 0.145605 0.711124
Si Si7 0.767690 0.493486 0.867592
Si Si8 0.803201 0.354378 0.631877
O O1 0.969677 0.159676 0.216757
O O2 0.919007 0.334916 0.207633
O O3 0.084767 0.292560 0.245813
O O4 0.064493 0.265685 0.163950
O O5 0.114688 0.885313 0.292556
O O6 0.034664 0.838102 0.369251
O O7 0.000000 0.000000 0.332179
O O8 0.096794 0.454836 0.046623
O O9 0.104575 0.285808 0.083531
O O10 0.939572 0.361448 0.057347
O O11 0.067402 0.301872 0.000000
O O12 0.688597 0.920278 0.500000
O O13 0.717194 0.938110 0.586922
O O14 0.500000 0.500000 0.755502
O O15 0.242831 0.242831 0.713346
O O16 0.275388 0.082879 0.670487
O O17 0.838893 0.583383 0.859842
O O18 0.744249 0.255752 0.637789
#
# Coordination Sequence:
#
# PCOD8318280 Si02
#       8
#    16   8  16  16   8  16  16  16
#     4  12  25  39  60  84 116 149 187 244 293 333
#     4  11  22  38  57  80 107 161 208 227 272 348
#     4   8  15  30  52  79 116 153 183 226 290 358
#     4   8  15  30  53  81 111 147 188 233 292 347
#     4  11  22  42  60  79 109 159 203 224 274 345
#     4  12  25  41  59  84 113 150 196 238 284 350
#     4  11  21  36  59  83 116 154 191 241 288 342
#     4  11  22  35  54  88 121 149 191 240 292 343
#
# _framework density 18.600747999999999
#
# number of rings (size 3 to 8) (size 9 to 14) (size 15 to 20)
#    0.000    1.571    2.857    4.286    0.000    3.429 
#    0.000    0.357    0.000    2.143    0.000    0.500 
#    0.000    1.714    0.000    0.000    0.000    0.000 
#
# Total GULP energy -1388411.720467 kJ/mol
# GULP energy per Si atom -12396.533218 kJ/mol
# Density = 1.855841 g / cm^3
# Si number density = 18.600748 Si / 1000 Ang^3
#
#
#
# Elastic Constant Matrix: (Units=GPa)
#
#
# Indices 1 2 3 4 5 6 
#
# 1 66.1403 10.5420 26.5670 0.0000 0.0000 0.0000
# 2 10.5420 66.1403 26.5670 0.0000 0.0000 0.0000
# 3 26.5670 26.5670 110.1495 0.0000 0.0000 0.0000
# 4 0.0000 0.0000 0.0000 11.0145 0.0000 0.0000
# 5 0.0000 0.0000 0.0000 0.0000 11.0145 0.0000
# 6 0.0000 0.0000 0.0000 0.0000 0.0000 10.9640
#
#
#
# Elastic Compliance Matrix: (Units=1/GPa)
#
#
# Indices 1 2 3 4 5 6 
#
# 1 0.016822 -0.001164 -0.003776 0.000000 0.000000 0.000000
# 2 -0.001164 0.016822 -0.003776 0.000000 0.000000 0.000000
# 3 -0.003776 -0.003776 0.010900 0.000000 0.000000 0.000000
# 4 0.000000 0.000000 0.000000 0.090790 0.000000 0.000000
# 5 0.000000 0.000000 0.000000 0.000000 0.090790 0.000000
# 6 0.000000 0.000000 0.000000 0.000000 0.000000 0.091208
#
#
# Mechanical properties :
#
#
# Convention : Reuss Voigt Hill
#
# Bulk Modulus (GPa) = 36.88732 41.08688 38.98710
# Shear Modulus (GPa) = 14.54326 18.51553 16.52940
#
# Velocity S-wave (km/s) = 2.79922 3.15845 2.98424
# Velocity P-wave (km/s) = 5.50651 5.95297 5.73409
#
# Compressibility (1/GPa) = 0.02710959
#
# Stress axis : x y z
#
# Youngs Moduli (GPa) = 59.44647 59.44647 91.74095
#
# Poissons Ratio (x) = 0.06921 0.34646
# Poissons Ratio (y) = 0.06921 0.34646
# Poissons Ratio (z) = 0.22450 0.22450
#
# Static dielectric constant tensor:
#      x y z
#    x 3.382330 0.000000 0.000000 
#    y 0.000000 3.382330 0.000000 
#    z 0.000000 0.000000 3.959070 
# 
# 
# High freq. dielectric constant tensor:
#      x y z
#    x 1.708870 0.000000 0.000000 
#    y 0.000000 1.708870 0.000000 
#    z 0.000000 0.000000 1.732550 
# 
# From -- ./inp_files/9243.got.cif
#   From: 2010.03.12/outbox.cif.g09.slc.cpg/sg136_5_cif.got.tgz:9243.got - 2010.04.06 18:39:43.
