data_PCOD8318884
_publ_section_title
;
Structure prediction by ZEFSAII (Michael W. Deem and Ramdas Pophale) SiO2 
 PCOD8318884
Probable space group: P 42/N C M
;
_chemical_formula_sum "Si O2"
_cell_formula_units_Z 72
_cell_length_a 15.018840
_cell_length_b 15.018840
_cell_length_c 16.834012
_cell_angle_alpha 90.000000
_cell_angle_beta 90.000000
_cell_angle_gamma 90.000000
_cell_volume 3797.173259
_symmetry_space_group_name_H-M "P 42/N C M"
_symmetry_group_IT_number 138
_space_group.IT_coordinate_system_code '2'
_symmetry_cell_setting 'tetragonal'
loop_
_space_group_symop_operation_xyz
x,y,z
1/2-y,x,1/2+z
1/2-x,1/2-y,z
y,1/2-x,1/2+z
1/2+x,-y,1/2-z
-x,1/2+y,1/2-z
1/2+y,1/2+x,-z
-y,-x,-z
-x,-y,-z
1/2+y,-x,1/2-z
1/2+x,1/2+y,-z
-y,1/2+x,1/2-z
1/2-x,y,1/2+z
x,1/2-y,1/2+z
1/2-y,1/2-x,z
y,x,z
loop_
_atom_site_type_symbol
_atom_site_label
_atom_site_fract_x
_atom_site_fract_y
_atom_site_fract_z
Si Si1 0.568375 0.178376 0.554708
Si Si2 0.618414 0.196142 0.732109
Si Si3 0.858121 0.141880 0.500000
Si Si4 0.998691 0.358434 0.869779
Si Si5 0.751343 0.607697 0.008676
O O1 0.591033 0.091033 0.500000
O O2 0.595575 0.158715 0.645089
O O3 0.629817 0.255395 0.519297
O O4 0.464766 0.209781 0.552197
O O5 0.641322 0.300372 0.729460
O O6 0.533045 0.182822 0.787171
O O7 0.888002 0.083221 0.574982
O O8 0.053775 0.446226 0.849898
O O9 0.057740 0.283419 0.912485
O O10 0.835149 0.664852 0.971688
O O11 0.674303 0.674303 0.035354
#
# Coordination Sequence:
#
# PCOD8318884 Si02
#       5
#    16  16   8  16  16
#     4  11  22  35  60  87 116 154 197 242 295 352
#     4  11  22  37  54  85 123 155 191 240 304 354
#     4  10  18  36  56  86 109 147 192 238 287 344
#     4  10  20  36  60  85 111 148 195 241 285 343
#     4   9  20  40  62  83 113 155 201 243 292 354
#
# _framework density 18.961473000000002
#
# number of rings (size 3 to 8) (size 9 to 14) (size 15 to 20)
#    0.000    1.778    2.222    3.333    3.111    2.222 
#    0.000    4.444    0.000    2.667    0.000    0.000 
#    0.000    0.000    0.000    0.000    0.000    0.000 
#
# Total GULP energy -892704.383464 kJ/mol
# GULP energy per Si atom -12398.671993 kJ/mol
# Density = 1.891832 g / cm^3
# Si number density = 18.961473 Si / 1000 Ang^3
#
#
#
# Elastic Constant Matrix: (Units=GPa)
#
#
# Indices 1 2 3 4 5 6 
#
# 1 76.2323 37.6539 30.8614 0.0000 0.0000 0.0000
# 2 37.6539 76.2323 30.8611 0.0000 0.0000 0.0000
# 3 30.8614 30.8611 110.5448 0.0000 0.0000 0.0000
# 4 0.0000 0.0000 0.0000 17.8725 0.0000 0.0000
# 5 0.0000 0.0000 0.0000 0.0000 17.8723 0.0000
# 6 0.0000 0.0000 0.0000 0.0000 0.0000 21.5884
#
#
#
# Elastic Compliance Matrix: (Units=1/GPa)
#
#
# Indices 1 2 3 4 5 6 
#
# 1 0.018134 -0.007788 -0.002888 0.000000 0.000000 0.000000
# 2 -0.007788 0.018134 -0.002888 0.000000 0.000000 0.000000
# 3 -0.002888 -0.002888 0.010659 0.000000 0.000000 0.000000
# 4 0.000000 0.000000 0.000000 0.055952 0.000000 0.000000
# 5 0.000000 0.000000 0.000000 0.000000 0.055953 0.000000
# 6 0.000000 0.000000 0.000000 0.000000 0.000000 0.046321
#
#
# Mechanical properties :
#
#
# Convention : Reuss Voigt Hill
#
# Bulk Modulus (GPa) = 50.51128 51.30690 50.90909
# Shear Modulus (GPa) = 20.93106 22.37551 21.65328
#
# Velocity S-wave (km/s) = 3.32606 3.43891 3.38296
# Velocity P-wave (km/s) = 6.43793 6.54870 6.49355
#
# Compressibility (1/GPa) = 0.01979756
#
# Stress axis : x y z
#
# Youngs Moduli (GPa) = 55.14603 55.14609 93.81901
#
# Poissons Ratio (x) = 0.42945 0.27099
# Poissons Ratio (y) = 0.42945 0.27098
# Poissons Ratio (z) = 0.15928 0.15928
#
# Static dielectric constant tensor:
#      x y z
#    x 3.596560 0.000000 0.000000 
#    y 0.000000 3.596550 0.000000 
#    z 0.000000 0.000000 3.286970 
# 
# 
# High freq. dielectric constant tensor:
#      x y z
#    x 1.738130 0.000000 0.000000 
#    y 0.000000 1.738130 0.000000 
#    z 0.000000 0.000000 1.719780 
# 
# From -- ./inp_files/4986.got.cif
#   From: 2010.03.12/outbox.cif.g09.slc.cpg/sg138_3_cif.got.tgz:4986.got - 2010.04.08 09:41:05.
