data_PCOD8318519
_publ_section_title
;
Structure prediction by ZEFSAII (Michael W. Deem and Ramdas Pophale) SiO2 
 PCOD8318519
Probable space group: P 42/N M C
;
_chemical_formula_sum "Si O2"
_cell_formula_units_Z 64
_cell_length_a 14.064225
_cell_length_b 14.064225
_cell_length_c 15.612538
_cell_angle_alpha 90.000000
_cell_angle_beta 90.000000
_cell_angle_gamma 90.000000
_cell_volume 3088.197874
_symmetry_space_group_name_H-M "P 42/N M C"
_symmetry_group_IT_number 137
_space_group.IT_coordinate_system_code '2'
_symmetry_cell_setting 'tetragonal'
loop_
_space_group_symop_operation_xyz
x,y,z
1/2-y,x,1/2+z
1/2-x,1/2-y,z
y,1/2-x,1/2+z
1/2+x,-y,-z
-x,1/2+y,-z
1/2+y,1/2+x,1/2-z
-y,-x,1/2-z
-x,-y,-z
1/2+y,-x,1/2-z
1/2+x,1/2+y,-z
-y,1/2+x,1/2-z
1/2-x,y,z
x,1/2-y,z
1/2-y,1/2-x,1/2+z
y,x,1/2+z
loop_
_atom_site_type_symbol
_atom_site_label
_atom_site_fract_x
_atom_site_fract_y
_atom_site_fract_z
Si Si1 0.640392 0.458750 0.509609
Si Si2 0.142987 0.143675 0.577910
Si Si3 0.639309 0.043332 0.830790
Si Si4 0.855113 0.363276 0.157831
O O1 0.750000 0.432852 0.523864
O O2 0.622798 0.572385 0.502115
O O3 0.584833 0.408821 0.584823
O O4 0.600577 0.421040 0.418779
O O5 0.250000 0.124230 0.613434
O O6 0.133375 0.250000 0.540037
O O7 0.070903 0.131434 0.658338
O O8 0.580443 0.080443 0.750000
O O9 0.750000 0.074890 0.822865
O O10 0.897272 0.397272 0.250000
O O11 0.750000 0.405084 0.141855
O O12 0.850646 0.250000 0.160499
#
# Coordination Sequence:
#
# PCOD8318519 Si02
#       4
#    16  16  16  16
#     4  10  19  33  56  84 114 149 188 235 291 346
#     4   9  20  40  61  80 108 150 200 250 291 329
#     4  11  23  38  58  87 123 159 193 232 284 351
#     4   8  14  25  43  72 109 143 177 223 281 340
#
# _framework density 20.724060000000001
#
# number of rings (size 3 to 8) (size 9 to 14) (size 15 to 20)
#    0.000    2.500    0.000    3.000    0.000    3.750 
#    0.000    1.250    0.000    7.500    0.000    0.000 
#    0.000    0.000    0.000    0.000    0.000    0.000 
#
# Total GULP energy -793056.600263 kJ/mol
# GULP energy per Si atom -12391.509379 kJ/mol
# Density = 2.067689 g / cm^3
# Si number density = 20.724060 Si / 1000 Ang^3
#
#
#
# Elastic Constant Matrix: (Units=GPa)
#
#
# Indices 1 2 3 4 5 6 
#
# 1 96.7777 51.3895 50.0417 0.0000 0.0000 0.0000
# 2 51.3895 96.7777 50.0417 0.0000 0.0000 0.0000
# 3 50.0417 50.0417 139.9990 0.0000 0.0000 0.0000
# 4 0.0000 0.0000 0.0000 23.9430 0.0000 0.0000
# 5 0.0000 0.0000 0.0000 0.0000 23.9430 0.0000
# 6 0.0000 0.0000 0.0000 0.0000 0.0000 21.0939
#
#
#
# Elastic Compliance Matrix: (Units=1/GPa)
#
#
# Indices 1 2 3 4 5 6 
#
# 1 0.015465 -0.006567 -0.003180 0.000000 0.000000 0.000000
# 2 -0.006567 0.015465 -0.003180 0.000000 0.000000 0.000000
# 3 -0.003180 -0.003180 0.009416 0.000000 0.000000 0.000000
# 4 0.000000 0.000000 0.000000 0.041766 0.000000 0.000000
# 5 0.000000 0.000000 0.000000 0.000000 0.041766 0.000000
# 6 0.000000 0.000000 0.000000 0.000000 0.000000 0.047407
#
#
# Mechanical properties :
#
#
# Convention : Reuss Voigt Hill
#
# Bulk Modulus (GPa) = 69.01329 70.72226 69.86777
# Shear Modulus (GPa) = 24.75606 25.93474 25.34540
#
# Velocity S-wave (km/s) = 3.45999 3.54140 3.50093
# Velocity P-wave (km/s) = 7.02391 7.13595 7.08015
#
# Compressibility (1/GPa) = 0.01448996
#
# Stress axis : x y z
#
# Youngs Moduli (GPa) = 64.66318 64.66318 106.19702
#
# Poissons Ratio (x) = 0.42467 0.33774
# Poissons Ratio (y) = 0.42467 0.33774
# Poissons Ratio (z) = 0.20565 0.20565
#
# Static dielectric constant tensor:
#      x y z
#    x 3.964240 0.000000 0.000000 
#    y 0.000000 3.964240 0.000000 
#    z 0.000000 0.000000 4.068940 
# 
# 
# High freq. dielectric constant tensor:
#      x y z
#    x 1.815090 0.000000 0.000000 
#    y 0.000000 1.815090 0.000000 
#    z 0.000000 0.000000 1.781780 
# 
# From -- ./inp_files/4746.got.cif
#   From: 2010.03.12/outbox.cif.g09.slc.cpg/sg137_3_cif.got.tgz:4746.got - 2010.04.08 09:34:49.
