data_PCOD8318321
_publ_section_title
;
Structure prediction by ZEFSAII (Michael W. Deem and Ramdas Pophale) SiO2 
 PCOD8318321
Probable space group: P 42/M N M
;
_chemical_formula_sum "Si O2"
_cell_formula_units_Z 48
_cell_length_a 12.938546
_cell_length_b 12.938546
_cell_length_c 11.448638
_cell_angle_alpha 90.000000
_cell_angle_beta 90.000000
_cell_angle_gamma 90.000000
_cell_volume 1916.570379
_symmetry_space_group_name_H-M "P 42/M N M"
_symmetry_group_IT_number 136
_symmetry_cell_setting 'tetragonal'
loop_
_space_group_symop_operation_xyz
x,y,z
1/2-y,1/2+x,1/2+z
-x,-y,z
1/2+y,1/2-x,1/2+z
1/2+x,1/2-y,1/2-z
1/2-x,1/2+y,1/2-z
y,x,-z
-y,-x,-z
-x,-y,-z
1/2+y,1/2-x,1/2-z
x,y,-z
1/2-y,1/2+x,1/2-z
1/2-x,1/2+y,1/2+z
1/2+x,1/2-y,1/2+z
-y,-x,z
y,x,z
loop_
_atom_site_type_symbol
_atom_site_label
_atom_site_fract_x
_atom_site_fract_y
_atom_site_fract_z
Si Si1 0.185673 0.353850 0.000000
Si Si2 0.577704 0.577704 0.199147
Si Si3 0.781866 0.218135 0.868623
Si Si4 0.195854 0.038539 0.500000
Si Si5 0.864911 0.399684 0.260136
O O1 0.191527 0.481819 0.000000
O O2 0.124098 0.314867 0.886397
O O3 0.300372 0.300372 0.000000
O O4 0.500000 0.500000 0.270322
O O5 0.648291 0.648291 0.282676
O O6 0.506022 0.648010 0.118510
O O7 0.659964 0.196468 0.842985
O O8 0.811553 0.188448 0.000000
O O9 0.166102 0.166102 0.500000
O O10 0.856751 0.519441 0.237472
#
# Coordination Sequence:
#
# PCOD8318321 Si02
#       5
#     8   8   8   8  16
#     4  12  20  44  75  99 138 187 239 286 347 426
#     4   9  16  33  59  91 132 174 215 268 340 403
#     4  12  25  46  68 105 148 179 234 302 354 416
#     4   9  14  28  59  94 123 163 226 284 319 389
#     4  11  27  48  73 103 140 189 237 287 353 425
#
# _framework density 25.044737999999999
#
# number of rings (size 3 to 8) (size 9 to 14) (size 15 to 20)
#    0.000    1.333    6.667    1.000    4.667    1.667 
#    6.000    0.000    0.000    0.000    0.000    0.000 
#    0.000    0.000    0.000    0.000    0.000    0.000 
#
# Total GULP energy -594705.319236 kJ/mol
# GULP energy per Si atom -12389.694151 kJ/mol
# Density = 2.498773 g / cm^3
# Si number density = 25.044738 Si / 1000 Ang^3
#
#
#
# Elastic Constant Matrix: (Units=GPa)
#
#
# Indices 1 2 3 4 5 6 
#
# 1 32.1366 42.0692 10.1546 0.0000 0.0000 0.0000
# 2 42.0692 32.1365 10.1546 0.0000 0.0000 0.0000
# 3 10.1546 10.1546 147.3282 0.0000 0.0000 0.0000
# 4 0.0000 0.0000 0.0000 2.6370 0.0000 0.0000
# 5 0.0000 0.0000 0.0000 0.0000 2.6369 0.0000
# 6 0.0000 0.0000 0.0000 0.0000 0.0000 21.1051
#
#
#
# Elastic Compliance Matrix: (Units=1/GPa)
#
#
# Indices 1 2 3 4 5 6 
#
# 1 -0.043472 0.057207 -0.000947 0.000000 0.000000 0.000000
# 2 0.057207 -0.043472 -0.000947 0.000000 0.000000 0.000000
# 3 -0.000947 -0.000947 0.006918 0.000000 0.000000 0.000000
# 4 0.000000 0.000000 0.000000 0.379223 0.000000 0.000000
# 5 0.000000 0.000000 0.000000 0.000000 0.379237 0.000000
# 6 0.000000 0.000000 0.000000 0.000000 0.000000 0.047382
#
#
# Mechanical properties :
#
#
# Convention : Reuss Voigt Hill
#
# Bulk Modulus (GPa) = 32.67807 37.37314 35.02560
# Shear Modulus (GPa) = 7.99501 15.22399 11.60950
#
# Velocity S-wave (km/s) = 1.78864 2.46818 2.15536
# Velocity P-wave (km/s) = 4.16435 4.80390 4.49552
#
# Compressibility (1/GPa) = 0.03060157
#
# Stress axis : x y z
#
# Youngs Moduli (GPa) = -23.00354 -23.00344 144.54900
#
# Poissons Ratio (x) = 1.31595 0.13684
# Poissons Ratio (y) = 1.31596 0.13684
# Poissons Ratio (z) = -0.02178 -0.02178
#
# Static dielectric constant tensor:
#      x y z
#    x 4.659570 0.000000 0.000000 
#    y 0.000000 4.659580 0.000000 
#    z 0.000000 0.000000 4.514600 
# 
# 
# High freq. dielectric constant tensor:
#      x y z
#    x 1.997760 0.000000 0.000000 
#    y 0.000000 1.997760 0.000000 
#    z 0.000000 0.000000 2.006440 
# 
# From -- ./inp_files/3054.got.cif
#   From: 2010.03.12/outbox.cif.g09.slc.cpg/sg136_2_cif.got.tgz:3054.got - 2010.04.06 18:39:43.
