data_PCOD8318296
_publ_section_title
;
Structure prediction by ZEFSAII (Michael W. Deem and Ramdas Pophale) SiO2 
 PCOD8318296
Probable space group: P 42/M N M
;
_chemical_formula_sum "Si O2"
_cell_formula_units_Z 56
_cell_length_a 17.112307
_cell_length_b 17.112307
_cell_length_c 8.970558
_cell_angle_alpha 90.000000
_cell_angle_beta 90.000000
_cell_angle_gamma 90.000000
_cell_volume 2626.857926
_symmetry_space_group_name_H-M "P 42/M N M"
_symmetry_group_IT_number 136
_symmetry_cell_setting 'tetragonal'
loop_
_space_group_symop_operation_xyz
x,y,z
1/2-y,1/2+x,1/2+z
-x,-y,z
1/2+y,1/2-x,1/2+z
1/2+x,1/2-y,1/2-z
1/2-x,1/2+y,1/2-z
y,x,-z
-y,-x,-z
-x,-y,-z
1/2+y,1/2-x,1/2-z
x,y,-z
1/2-y,1/2+x,1/2-z
1/2-x,1/2+y,1/2+z
1/2+x,1/2-y,1/2+z
-y,-x,z
y,x,z
loop_
_atom_site_type_symbol
_atom_site_label
_atom_site_fract_x
_atom_site_fract_y
_atom_site_fract_z
Si Si1 0.665490 0.209113 0.823701
Si Si2 0.539883 0.331072 0.837318
Si Si3 0.433862 0.433862 0.335806
Si Si4 0.573035 0.909799 0.178356
O O1 0.746414 0.253587 0.787001
O O2 0.592022 0.261743 0.768305
O O3 0.661481 0.129270 0.728574
O O4 0.659158 0.193111 0.000000
O O5 0.592723 0.407278 0.854980
O O6 0.464943 0.353918 0.738824
O O7 0.508867 0.305486 0.000000
O O8 0.500000 0.500000 0.336947
O O9 0.409098 0.409098 0.500000
O O10 0.488058 0.892592 0.245914
O O11 0.568382 0.917759 0.000000
#
# Coordination Sequence:
#
# PCOD8318296 Si02
#       4
#    16  16   8  16
#     4   9  18  34  57  85 117 151 188 235 292 351
#     4   8  14  25  42  64  93 134 178 216 262 323
#     4   9  15  21  33  57  91 129 173 225 269 311
#     4  11  22  38  62  89 118 152 195 244 294 348
#
# _framework density 21.318245999999998
#
# number of rings (size 3 to 8) (size 9 to 14) (size 15 to 20)
#    0.000    2.714    0.000    5.571    0.000    3.429 
#    0.000    2.857    3.143    0.000    0.000    0.000 
#    0.000    0.000    0.000    0.000    0.000    0.000 
#
# Total GULP energy -694028.230387 kJ/mol
# GULP energy per Si atom -12393.361257 kJ/mol
# Density = 2.126972 g / cm^3
# Si number density = 21.318246 Si / 1000 Ang^3
#
#
#
# Elastic Constant Matrix: (Units=GPa)
#
#
# Indices 1 2 3 4 5 6 
#
# 1 54.9697 25.0141 30.9228 0.0000 0.0000 0.0000
# 2 25.0141 54.9697 30.9228 0.0000 0.0000 0.0000
# 3 30.9228 30.9228 123.7266 0.0000 0.0000 0.0000
# 4 0.0000 0.0000 0.0000 22.9045 0.0000 0.0000
# 5 0.0000 0.0000 0.0000 0.0000 22.9045 0.0000
# 6 0.0000 0.0000 0.0000 0.0000 0.0000 18.2753
#
#
#
# Elastic Compliance Matrix: (Units=1/GPa)
#
#
# Indices 1 2 3 4 5 6 
#
# 1 0.024440 -0.008943 -0.003873 0.000000 0.000000 0.000000
# 2 -0.008943 0.024440 -0.003873 0.000000 0.000000 0.000000
# 3 -0.003873 -0.003873 0.010018 0.000000 0.000000 0.000000
# 4 0.000000 0.000000 0.000000 0.043659 0.000000 0.000000
# 5 0.000000 0.000000 0.000000 0.000000 0.043659 0.000000
# 6 0.000000 0.000000 0.000000 0.000000 0.000000 0.054719
#
#
# Mechanical properties :
#
#
# Convention : Reuss Voigt Hill
#
# Bulk Modulus (GPa) = 39.18451 45.26503 42.22477
# Shear Modulus (GPa) = 20.59129 22.60397 21.59763
#
# Velocity S-wave (km/s) = 3.11126 3.25977 3.18638
# Velocity P-wave (km/s) = 5.59708 5.95376 5.77817
#
# Compressibility (1/GPa) = 0.02552029
#
# Stress axis : x y z
#
# Youngs Moduli (GPa) = 40.91638 40.91638 99.81629
#
# Poissons Ratio (x) = 0.36590 0.38661
# Poissons Ratio (y) = 0.36590 0.38661
# Poissons Ratio (z) = 0.15848 0.15848
#
# Static dielectric constant tensor:
#      x y z
#    x 3.657280 0.000000 0.000000 
#    y 0.000000 3.657280 0.000000 
#    z 0.000000 0.000000 3.867520 
# 
# 
# High freq. dielectric constant tensor:
#      x y z
#    x 1.818030 0.000000 0.000000 
#    y 0.000000 1.818030 0.000000 
#    z 0.000000 0.000000 1.826370 
# 
# From -- ./inp_files/1120.got.cif
#   From: 2010.03.12/outbox.cif.g09.slc.cpg/sg136_1_cif.got.tgz:1120.got - 2010.04.06 18:39:43.
