data_PCOD8318447
_publ_section_title
;
Structure prediction by ZEFSAII (Michael W. Deem and Ramdas Pophale) SiO2 
 PCOD8318447
Probable space group: P 42/N M C
;
_chemical_formula_sum "Si O2"
_cell_formula_units_Z 104
_cell_length_a 18.323822
_cell_length_b 18.323822
_cell_length_c 18.102915
_cell_angle_alpha 90.000000
_cell_angle_beta 90.000000
_cell_angle_gamma 90.000000
_cell_volume 6078.279141
_symmetry_space_group_name_H-M "P 42/N M C"
_symmetry_group_IT_number 137
_space_group.IT_coordinate_system_code '2'
_symmetry_cell_setting 'tetragonal'
loop_
_space_group_symop_operation_xyz
x,y,z
1/2-y,x,1/2+z
1/2-x,1/2-y,z
y,1/2-x,1/2+z
1/2+x,-y,-z
-x,1/2+y,-z
1/2+y,1/2+x,1/2-z
-y,-x,1/2-z
-x,-y,-z
1/2+y,-x,1/2-z
1/2+x,1/2+y,-z
-y,1/2+x,1/2-z
1/2-x,y,z
x,1/2-y,z
1/2-y,1/2-x,1/2+z
y,x,1/2+z
loop_
_atom_site_type_symbol
_atom_site_label
_atom_site_fract_x
_atom_site_fract_y
_atom_site_fract_z
Si Si1 0.591743 0.091743 0.250000
Si Si2 0.944521 0.584957 0.071840
Si Si3 0.667119 0.960207 0.873749
Si Si4 0.168078 0.331312 0.515420
Si Si5 0.939857 0.095982 0.505302
Si Si6 0.435650 0.047058 0.261443
Si Si7 0.335192 0.664789 0.891274
O O1 0.503482 0.104581 0.252769
O O2 0.631905 0.121304 0.322315
O O3 0.949207 0.599133 0.158258
O O4 0.020742 0.597724 0.029960
O O5 0.887945 0.646172 0.047199
O O6 0.917413 0.502773 0.055460
O O7 0.750000 0.981608 0.856311
O O8 0.659622 0.884144 0.915314
O O9 0.626805 0.942034 0.798151
O O10 0.633577 0.026019 0.922053
O O11 0.250000 0.347105 0.542470
O O12 0.160759 0.250000 0.481758
O O13 0.877605 0.144726 0.466871
O O14 0.465280 0.965280 0.250000
O O15 0.250000 0.654292 0.875387
O O16 0.355072 0.750000 0.900774
#
# Coordination Sequence:
#
# PCOD8318447 Si02
#       7
#     8  16  16  16  16  16  16
#     4  10  20  37  54  76 112 156 175 222 272 316
#     4  10  19  33  58  80 107 141 182 230 269 324
#     4  10  20  35  60  81 106 149 186 221 274 332
#     4   9  20  37  54  79 113 145 180 227 277 324
#     4  10  18  36  56  81 105 139 187 226 270 319
#     4  10  19  36  55  81 112 141 182 227 269 315
#     4  11  23  37  54  80 114 147 181 224 275 333
#
# _framework density 17.110106999999999
#
# number of rings (size 3 to 8) (size 9 to 14) (size 15 to 20)
#    0.462    1.538    3.077    0.923    4.308    2.462 
#    0.000    1.538    0.000    1.846    0.000    0.000 
#    0.000    0.000    0.000    0.000    0.000    0.000 
#
# Total GULP energy -1289225.838859 kJ/mol
# GULP energy per Si atom -12396.402297 kJ/mol
# Density = 1.707116 g / cm^3
# Si number density = 17.110107 Si / 1000 Ang^3
#
#
#
# Elastic Constant Matrix: (Units=GPa)
#
#
# Indices 1 2 3 4 5 6 
#
# 1 84.7400 39.6736 39.8901 0.0000 0.0000 0.0000
# 2 39.6736 84.7400 39.8901 0.0000 0.0000 0.0000
# 3 39.8901 39.8901 111.4923 0.0000 0.0000 0.0000
# 4 0.0000 0.0000 0.0000 19.2841 0.0000 0.0000
# 5 0.0000 0.0000 0.0000 0.0000 19.2841 0.0000
# 6 0.0000 0.0000 0.0000 0.0000 0.0000 26.5017
#
#
#
# Elastic Compliance Matrix: (Units=1/GPa)
#
#
# Indices 1 2 3 4 5 6 
#
# 1 0.016310 -0.005879 -0.003732 0.000000 0.000000 0.000000
# 2 -0.005879 0.016310 -0.003732 0.000000 0.000000 0.000000
# 3 -0.003732 -0.003732 0.011640 0.000000 0.000000 0.000000
# 4 0.000000 0.000000 0.000000 0.051856 0.000000 0.000000
# 5 0.000000 0.000000 0.000000 0.000000 0.051856 0.000000
# 6 0.000000 0.000000 0.000000 0.000000 0.000000 0.037733
#
#
# Mechanical properties :
#
#
# Convention : Reuss Voigt Hill
#
# Bulk Modulus (GPa) = 56.90397 57.76444 57.33421
# Shear Modulus (GPa) = 22.90949 23.78188 23.34569
#
# Velocity S-wave (km/s) = 3.66313 3.73222 3.69784
# Velocity P-wave (km/s) = 7.15689 7.23922 7.19817
#
# Compressibility (1/GPa) = 0.01757347
#
# Stress axis : x y z
#
# Youngs Moduli (GPa) = 61.31147 61.31147 85.91277
#
# Poissons Ratio (x) = 0.36047 0.32063
# Poissons Ratio (y) = 0.36047 0.32063
# Poissons Ratio (z) = 0.22881 0.22881
#
# Static dielectric constant tensor:
#      x y z
#    x 3.232180 0.000000 0.000000 
#    y 0.000000 3.232180 0.000000 
#    z 0.000000 0.000000 2.888610 
# 
# 
# High freq. dielectric constant tensor:
#      x y z
#    x 1.655740 0.000000 0.000000 
#    y 0.000000 1.655740 0.000000 
#    z 0.000000 0.000000 1.658530 
# 
# From -- ./inp_files/6633.got.cif
#   From: 2010.03.12/outbox.cif.g09.slc.cpg/sg137_4_cif.got.tgz:6633.got - 2010.04.08 09:34:49.
