data_PCOD8318812
_publ_section_title
;
Structure prediction by ZEFSAII (Michael W. Deem and Ramdas Pophale) SiO2 
 PCOD8318812
Probable space group: P 42/N M C
;
_chemical_formula_sum "Si O2"
_cell_formula_units_Z 32
_cell_length_a 7.478681
_cell_length_b 7.478681
_cell_length_c 26.874668
_cell_angle_alpha 90.000000
_cell_angle_beta 90.000000
_cell_angle_gamma 90.000000
_cell_volume 1503.118174
_symmetry_space_group_name_H-M "P 42/N M C"
_symmetry_group_IT_number 137
_space_group.IT_coordinate_system_code '2'
_symmetry_cell_setting 'tetragonal'
loop_
_space_group_symop_operation_xyz
x,y,z
1/2-y,x,1/2+z
1/2-x,1/2-y,z
y,1/2-x,1/2+z
1/2+x,-y,-z
-x,1/2+y,-z
1/2+y,1/2+x,1/2-z
-y,-x,1/2-z
-x,-y,-z
1/2+y,-x,1/2-z
1/2+x,1/2+y,-z
-y,1/2+x,1/2-z
1/2-x,y,z
x,1/2-y,z
1/2-y,1/2-x,1/2+z
y,x,1/2+z
loop_
_atom_site_type_symbol
_atom_site_label
_atom_site_fract_x
_atom_site_fract_y
_atom_site_fract_z
Si Si1 0.541972 0.051449 0.443975
Si Si2 0.557072 0.250000 0.629729
Si Si3 0.750000 0.957094 0.764402
O O1 0.750000 0.037277 0.434576
O O2 0.469139 0.250000 0.433893
O O3 0.500000 0.000000 0.500000
O O4 0.450201 0.922608 0.404985
O O5 0.750000 0.250000 0.656071
O O6 0.422115 0.250000 0.675859
O O7 0.750000 0.750000 0.742297
O O8 0.568983 0.068983 0.750000
#
# Coordination Sequence:
#
# PCOD8318812 Si02
#       3
#    16   8   8
#     4  11  23  38  60  93 134 180 228 278 338 414
#     4  12  24  43  69  96 135 185 226 287 355 413
#     4  11  25  50  77 107 144 183 243 312 369 434
#
# _framework density 21.289078
#
# number of rings (size 3 to 8) (size 9 to 14) (size 15 to 20)
#    0.000    0.750    5.000    3.750    0.000    5.500 
#    0.000    0.000    0.000    0.000    0.000    0.000 
#    0.000    0.000    0.000    0.000    0.000    0.000 
#
# Total GULP energy -396579.025785 kJ/mol
# GULP energy per Si atom -12393.094556 kJ/mol
# Density = 2.124062 g / cm^3
# Si number density = 21.289078 Si / 1000 Ang^3
#
#
#
# Elastic Constant Matrix: (Units=GPa)
#
#
# Indices 1 2 3 4 5 6 
#
# 1 143.2123 48.6416 25.8194 0.0000 0.0000 0.0000
# 2 48.6416 143.2123 25.8194 0.0000 0.0000 0.0000
# 3 25.8194 25.8194 116.6709 0.0000 0.0000 0.0000
# 4 0.0000 0.0000 0.0000 26.0642 0.0000 0.0000
# 5 0.0000 0.0000 0.0000 0.0000 26.0642 0.0000
# 6 0.0000 0.0000 0.0000 0.0000 0.0000 27.0479
#
#
#
# Elastic Compliance Matrix: (Units=1/GPa)
#
#
# Indices 1 2 3 4 5 6 
#
# 1 0.008058 -0.002516 -0.001227 0.000000 0.000000 0.000000
# 2 -0.002516 0.008058 -0.001227 0.000000 0.000000 0.000000
# 3 -0.001227 -0.001227 0.009114 0.000000 0.000000 0.000000
# 4 0.000000 0.000000 0.000000 0.038367 0.000000 0.000000
# 5 0.000000 0.000000 0.000000 0.000000 0.038367 0.000000
# 6 0.000000 0.000000 0.000000 0.000000 0.000000 0.036971
#
#
# Mechanical properties :
#
#
# Convention : Reuss Voigt Hill
#
# Bulk Modulus (GPa) = 65.39082 67.07293 66.23188
# Shear Modulus (GPa) = 32.47364 36.02293 34.24828
#
# Velocity S-wave (km/s) = 3.90983 4.11796 4.01524
# Velocity P-wave (km/s) = 7.15295 7.36100 7.25772
#
# Compressibility (1/GPa) = 0.01529267
#
# Stress axis : x y z
#
# Youngs Moduli (GPa) = 124.09619 124.09619 109.72143
#
# Poissons Ratio (x) = 0.31221 0.13458
# Poissons Ratio (y) = 0.31221 0.13458
# Poissons Ratio (z) = 0.15221 0.15221
#
# Static dielectric constant tensor:
#      x y z
#    x 4.158940 0.000000 0.000000 
#    y 0.000000 4.158940 0.000000 
#    z 0.000000 0.000000 3.730350 
# 
# 
# High freq. dielectric constant tensor:
#      x y z
#    x 1.846830 0.000000 0.000000 
#    y 0.000000 1.846830 0.000000 
#    z 0.000000 0.000000 1.832830 
# 
# From -- ./inp_files/6967.got.cif
#   From: 2010.03.12/outbox.cif.g09.slc.cpg/sg137_4_cif.got.tgz:6967.got - 2010.04.08 09:34:49.
