data_PCOD8318255
_publ_section_title
;
Structure prediction by ZEFSAII (Michael W. Deem and Ramdas Pophale) SiO2 
 PCOD8318255
Probable space group: P 42/M N M
;
_chemical_formula_sum "Si O2"
_cell_formula_units_Z 80
_cell_length_a 11.457885
_cell_length_b 11.457885
_cell_length_c 28.553295
_cell_angle_alpha 90.000000
_cell_angle_beta 90.000000
_cell_angle_gamma 90.000000
_cell_volume 3748.565902
_symmetry_space_group_name_H-M "P 42/M N M"
_symmetry_group_IT_number 136
_symmetry_cell_setting 'tetragonal'
loop_
_space_group_symop_operation_xyz
x,y,z
1/2-y,1/2+x,1/2+z
-x,-y,z
1/2+y,1/2-x,1/2+z
1/2+x,1/2-y,1/2-z
1/2-x,1/2+y,1/2-z
y,x,-z
-y,-x,-z
-x,-y,-z
1/2+y,1/2-x,1/2-z
x,y,-z
1/2-y,1/2+x,1/2-z
1/2-x,1/2+y,1/2+z
1/2+x,1/2-y,1/2+z
-y,-x,z
y,x,z
loop_
_atom_site_type_symbol
_atom_site_label
_atom_site_fract_x
_atom_site_fract_y
_atom_site_fract_z
Si Si1 0.499066 0.695716 0.636099
Si Si2 0.594712 0.594712 0.217170
Si Si3 0.400848 0.400848 0.883921
Si Si4 0.680801 0.016028 0.767878
Si Si5 0.365745 0.967896 0.053781
Si Si6 0.955872 0.769329 0.550495
O O1 0.387295 0.612706 0.644136
O O2 0.616716 0.616716 0.634661
O O3 0.506222 0.795216 0.676574
O O4 0.478422 0.767905 0.587961
O O5 0.500000 0.500000 0.205443
O O6 0.641065 0.641065 0.167150
O O7 0.532792 0.694136 0.245893
O O8 0.500000 0.500000 0.881435
O O9 0.444952 0.283908 0.910270
O O10 0.599806 0.125930 0.755014
O O11 0.361370 0.828982 0.062995
O O12 0.500000 0.000000 0.065926
O O13 0.334149 0.000974 0.000000
O O14 0.014862 0.738354 0.500000
O O15 0.892181 0.892181 0.545989
#
# Coordination Sequence:
#
# PCOD8318255 Si02
#       6
#    16   8   8  16  16  16
#     4  11  25  45  71 100 134 178 229 285 342 409
#     4  11  24  41  66  96 136 171 223 284 341 411
#     4   9  19  32  55  90 121 158 204 255 317 383
#     4  11  27  46  69  98 132 179 229 282 349 416
#     4  10  23  42  64  95 133 171 219 275 334 401
#     4   9  17  33  57  86 123 164 207 254 312 380
#
# _framework density 21.341493
#
# number of rings (size 3 to 8) (size 9 to 14) (size 15 to 20)
#    0.000    1.800    1.000    1.500    8.400    2.800 
#    1.800    1.000    0.000    0.000    0.000    0.000 
#    0.000    0.000    0.000    0.000    0.000    0.000 
#
# Total GULP energy -991369.569968 kJ/mol
# GULP energy per Si atom -12392.119625 kJ/mol
# Density = 2.129292 g / cm^3
# Si number density = 21.341493 Si / 1000 Ang^3
#
#
#
# Elastic Constant Matrix: (Units=GPa)
#
#
# Indices 1 2 3 4 5 6 
#
# 1 68.0257 40.8697 46.8294 0.0000 0.0000 0.0000
# 2 40.8697 68.0257 46.8294 0.0000 0.0000 0.0000
# 3 46.8294 46.8294 153.8191 0.0000 0.0000 0.0000
# 4 0.0000 0.0000 0.0000 32.2632 0.0000 0.0000
# 5 0.0000 0.0000 0.0000 0.0000 32.2632 0.0000
# 6 0.0000 0.0000 0.0000 0.0000 0.0000 33.5355
#
#
#
# Elastic Compliance Matrix: (Units=1/GPa)
#
#
# Indices 1 2 3 4 5 6 
#
# 1 0.024632 -0.012192 -0.003787 0.000000 0.000000 0.000000
# 2 -0.012192 0.024632 -0.003787 0.000000 0.000000 0.000000
# 3 -0.003787 -0.003787 0.008807 0.000000 0.000000 0.000000
# 4 0.000000 0.000000 0.000000 0.030995 0.000000 0.000000
# 5 0.000000 0.000000 0.000000 0.000000 0.030995 0.000000
# 6 0.000000 0.000000 0.000000 0.000000 0.000000 0.029819
#
#
# Mechanical properties :
#
#
# Convention : Reuss Voigt Hill
#
# Bulk Modulus (GPa) = 53.94130 62.10307 58.02219
# Shear Modulus (GPa) = 25.56308 29.96853 27.76581
#
# Velocity S-wave (km/s) = 3.46470 3.75138 3.61088
# Velocity P-wave (km/s) = 6.42928 6.92291 6.68066
#
# Compressibility (1/GPa) = 0.01853867
#
# Stress axis : x y z
#
# Youngs Moduli (GPa) = 40.59684 40.59684 113.54202
#
# Poissons Ratio (x) = 0.49495 0.43004
# Poissons Ratio (y) = 0.49495 0.43004
# Poissons Ratio (z) = 0.15376 0.15376
#
# Static dielectric constant tensor:
#      x y z
#    x 3.572350 0.000000 0.000000 
#    y 0.000000 3.572350 0.000000 
#    z 0.000000 0.000000 4.180880 
# 
# 
# High freq. dielectric constant tensor:
#      x y z
#    x 1.829820 0.000000 0.000000 
#    y 0.000000 1.829820 0.000000 
#    z 0.000000 0.000000 1.849650 
# 
# From -- ./inp_files/9637.got.cif
#   From: 2010.03.12/outbox.cif.g09.slc.cpg/sg136_5_cif.got.tgz:9637.got - 2010.04.06 18:39:43.
