data_PCOD8318154
_publ_section_title
;
Structure prediction by ZEFSAII (Michael W. Deem and Ramdas Pophale) SiO2 
 PCOD8318154
Probable space group: P 42/M N M
;
_chemical_formula_sum "Si O2"
_cell_formula_units_Z 80
_cell_length_a 12.458406
_cell_length_b 12.458406
_cell_length_c 27.770774
_cell_angle_alpha 90.000000
_cell_angle_beta 90.000000
_cell_angle_gamma 90.000000
_cell_volume 4310.354043
_symmetry_space_group_name_H-M "P 42/M N M"
_symmetry_group_IT_number 136
_symmetry_cell_setting 'tetragonal'
loop_
_space_group_symop_operation_xyz
x,y,z
1/2-y,1/2+x,1/2+z
-x,-y,z
1/2+y,1/2-x,1/2+z
1/2+x,1/2-y,1/2-z
1/2-x,1/2+y,1/2-z
y,x,-z
-y,-x,-z
-x,-y,-z
1/2+y,1/2-x,1/2-z
x,y,-z
1/2-y,1/2+x,1/2-z
1/2-x,1/2+y,1/2+z
1/2+x,1/2-y,1/2+z
-y,-x,z
y,x,z
loop_
_atom_site_type_symbol
_atom_site_label
_atom_site_fract_x
_atom_site_fract_y
_atom_site_fract_z
Si Si1 0.902072 0.731197 0.710009
Si Si2 0.877276 0.485557 0.123015
Si Si3 0.861173 0.686489 0.944511
Si Si4 0.422815 0.246800 0.598851
Si Si5 0.558239 0.729130 0.708471
O O1 0.823164 0.823164 0.689450
O O2 0.990571 0.702023 0.669246
O O3 0.834893 0.624952 0.721587
O O4 0.951761 0.771309 0.759853
O O5 0.845637 0.578580 0.086117
O O6 0.863563 0.368849 0.098001
O O7 0.000000 0.500000 0.140336
O O8 0.768305 0.768305 0.929278
O O9 0.975870 0.744356 0.936686
O O10 0.852262 0.653434 0.000000
O O11 0.338014 0.338014 0.582536
O O12 0.469542 0.271258 0.651976
O O13 0.622810 0.622810 0.722502
#
# Coordination Sequence:
#
# PCOD8318154 Si02
#       5
#    16  16  16  16  16
#     4  10  21  34  52  79 110 143 183 223 263 321
#     4   9  19  35  56  80 105 142 182 230 271 319
#     4  10  22  38  56  82 113 143 180 228 281 334
#     4   9  19  37  57  80 110 143 182 229 277 328
#     4   9  20  34  50  76 110 144 179 221 267 317
#
# _framework density 18.55996
#
# number of rings (size 3 to 8) (size 9 to 14) (size 15 to 20)
#    0.000    2.600    0.000    1.800    8.400    6.400 
#    0.000    3.000    0.000    3.600    0.000    5.600 
#    0.000    0.000    0.000    0.000    0.000    0.000 
#
# Total GULP energy -991898.155255 kJ/mol
# GULP energy per Si atom -12398.726941 kJ/mol
# Density = 1.851772 g / cm^3
# Si number density = 18.559960 Si / 1000 Ang^3
#
#
#
# Elastic Constant Matrix: (Units=GPa)
#
#
# Indices 1 2 3 4 5 6 
#
# 1 79.2077 44.7827 40.5401 0.0000 0.0000 0.0000
# 2 44.7827 79.2077 40.5401 0.0000 0.0000 0.0000
# 3 40.5401 40.5401 61.7899 0.0000 0.0000 0.0000
# 4 0.0000 0.0000 0.0000 25.4688 0.0000 0.0000
# 5 0.0000 0.0000 0.0000 0.0000 25.4688 0.0000
# 6 0.0000 0.0000 0.0000 0.0000 0.0000 23.0406
#
#
#
# Elastic Compliance Matrix: (Units=1/GPa)
#
#
# Indices 1 2 3 4 5 6 
#
# 1 0.021587 -0.007462 -0.009268 0.000000 0.000000 0.000000
# 2 -0.007462 0.021587 -0.009268 0.000000 0.000000 0.000000
# 3 -0.009268 -0.009268 0.028345 0.000000 0.000000 0.000000
# 4 0.000000 0.000000 0.000000 0.039264 0.000000 0.000000
# 5 0.000000 0.000000 0.000000 0.000000 0.039264 0.000000
# 6 0.000000 0.000000 0.000000 0.000000 0.000000 0.043402
#
#
# Mechanical properties :
#
#
# Convention : Reuss Voigt Hill
#
# Bulk Modulus (GPa) = 51.21609 52.43681 51.82645
# Shear Modulus (GPa) = 19.84517 21.08513 20.46515
#
# Velocity S-wave (km/s) = 3.27348 3.37420 3.32422
# Velocity P-wave (km/s) = 6.47630 6.59502 6.53593
#
# Compressibility (1/GPa) = 0.01952511
#
# Stress axis : x y z
#
# Youngs Moduli (GPa) = 46.32400 46.32400 35.27977
#
# Poissons Ratio (x) = 0.34565 0.32696
# Poissons Ratio (y) = 0.34565 0.32696
# Poissons Ratio (z) = 0.42932 0.42932
#
# Static dielectric constant tensor:
#      x y z
#    x 3.406800 0.000000 0.000000 
#    y 0.000000 3.406800 0.000000 
#    z 0.000000 0.000000 3.264950 
# 
# 
# High freq. dielectric constant tensor:
#      x y z
#    x 1.716350 0.000000 0.000000 
#    y 0.000000 1.716350 0.000000 
#    z 0.000000 0.000000 1.707860 
# 
# From -- ./inp_files/9521.got.cif
#   From: 2010.03.12/outbox.cif.g09.slc.cpg/sg136_5_cif.got.tgz:9521.got - 2010.04.06 18:39:43.
