data_PCOD8318874
_publ_section_title
;
Structure prediction by ZEFSAII (Michael W. Deem and Ramdas Pophale) SiO2 
 PCOD8318874
Probable space group: P 42/N C M
;
_chemical_formula_sum "Si O2"
_cell_formula_units_Z 112
_cell_length_a 19.064258
_cell_length_b 19.064258
_cell_length_c 19.023982
_cell_angle_alpha 90.000000
_cell_angle_beta 90.000000
_cell_angle_gamma 90.000000
_cell_volume 6914.188889
_symmetry_space_group_name_H-M "P 42/N C M"
_symmetry_group_IT_number 138
_space_group.IT_coordinate_system_code '2'
_symmetry_cell_setting 'tetragonal'
loop_
_space_group_symop_operation_xyz
x,y,z
1/2-y,x,1/2+z
1/2-x,1/2-y,z
y,1/2-x,1/2+z
1/2+x,-y,1/2-z
-x,1/2+y,1/2-z
1/2+y,1/2+x,-z
-y,-x,-z
-x,-y,-z
1/2+y,-x,1/2-z
1/2+x,1/2+y,-z
-y,1/2+x,1/2-z
1/2-x,y,1/2+z
x,1/2-y,1/2+z
1/2-y,1/2-x,z
y,x,z
loop_
_atom_site_type_symbol
_atom_site_label
_atom_site_fract_x
_atom_site_fract_y
_atom_site_fract_z
Si Si1 0.188414 0.610432 0.302333
Si Si2 0.533151 0.225684 0.043742
Si Si3 0.258988 0.858925 0.153372
Si Si4 0.568408 0.457408 0.114595
Si Si5 0.899295 0.310944 0.897725
Si Si6 0.864968 0.975166 0.980803
Si Si7 0.963796 0.072801 0.578474
O O1 0.201206 0.605615 0.219637
O O2 0.186501 0.692679 0.322925
O O3 0.115645 0.572399 0.321976
O O4 0.253383 0.572447 0.342348
O O5 0.579898 0.266425 0.101305
O O6 0.470426 0.280195 0.026305
O O7 0.505263 0.152296 0.075825
O O8 0.581426 0.211067 0.976208
O O9 0.314940 0.812423 0.110036
O O10 0.522229 0.522229 0.144047
O O11 0.516464 0.398281 0.084796
O O12 0.618426 0.483528 0.052156
O O13 0.929812 0.389043 0.880674
O O14 0.896582 0.896582 0.983595
O O15 0.952442 0.047559 0.500000
O O16 0.020894 0.020894 0.614906
#
# Coordination Sequence:
#
# PCOD8318874 Si02
#       7
#    16  16  16  16  16  16  16
#     4  12  20  32  46  65 104 134 157 197 243 289
#     4  10  18  33  50  71  89 124 169 205 235 292
#     4  11  22  31  44  65  99 136 162 196 238 281
#     4   9  18  31  48  69  96 131 166 198 236 284
#     4  10  20  31  48  68  90 126 170 191 237 291
#     4   9  16  29  48  73  96 122 159 201 247 287
#     4   8  16  31  48  67  92 119 159 207 240 276
#
# _framework density 16.198574000000001
#
# number of rings (size 3 to 8) (size 9 to 14) (size 15 to 20)
#    0.000    2.143    4.286    2.571    0.000    0.571 
#    0.000    7.143    0.000    1.286    0.000    0.000 
#    0.000    0.571    0.000    0.143    0.000    0.000 
#
# Total GULP energy -1387768.168442 kJ/mol
# GULP energy per Si atom -12390.787218 kJ/mol
# Density = 1.616170 g / cm^3
# Si number density = 16.198574 Si / 1000 Ang^3
#
#
#
# Elastic Constant Matrix: (Units=GPa)
#
#
# Indices 1 2 3 4 5 6 
#
# 1 78.2268 48.9655 25.8038 0.0000 0.0000 0.0000
# 2 48.9655 78.2272 25.8035 0.0000 0.0000 0.0000
# 3 25.8038 25.8035 65.2327 0.0000 0.0000 0.0000
# 4 0.0000 0.0000 0.0000 16.1359 0.0000 0.0000
# 5 0.0000 0.0000 0.0000 0.0000 16.1359 0.0000
# 6 0.0000 0.0000 0.0000 0.0000 0.0000 31.6396
#
#
#
# Elastic Compliance Matrix: (Units=1/GPa)
#
#
# Indices 1 2 3 4 5 6 
#
# 1 0.021770 -0.012405 -0.003705 0.000000 0.000000 0.000000
# 2 -0.012405 0.021770 -0.003704 0.000000 0.000000 0.000000
# 3 -0.003705 -0.003704 0.018260 0.000000 0.000000 0.000000
# 4 0.000000 0.000000 0.000000 0.061974 0.000000 0.000000
# 5 0.000000 0.000000 0.000000 0.000000 0.061974 0.000000
# 6 0.000000 0.000000 0.000000 0.000000 0.000000 0.031606
#
#
# Mechanical properties :
#
#
# Convention : Reuss Voigt Hill
#
# Bulk Modulus (GPa) = 45.10041 46.98138 46.04089
# Shear Modulus (GPa) = 18.91277 20.85654 19.88466
#
# Velocity S-wave (km/s) = 3.42066 3.59214 3.50745
# Velocity P-wave (km/s) = 6.59575 6.80228 6.69981
#
# Compressibility (1/GPa) = 0.02217275
#
# Stress axis : x y z
#
# Youngs Moduli (GPa) = 45.93488 45.93526 54.76306
#
# Poissons Ratio (x) = 0.56981 0.20288
# Poissons Ratio (y) = 0.56981 0.20287
# Poissons Ratio (z) = 0.17017 0.17016
#
# Static dielectric constant tensor:
#      x y z
#    x 3.092880 0.000000 0.000000 
#    y 0.000000 3.092890 0.000000 
#    z 0.000000 0.000000 2.964740 
# 
# 
# High freq. dielectric constant tensor:
#      x y z
#    x 1.602620 0.000000 0.000000 
#    y 0.000000 1.602620 0.000000 
#    z 0.000000 0.000000 1.612600 
# 
# From -- ./inp_files/5408.got.cif
#   From: 2010.03.12/outbox.cif.g09.slc.cpg/sg138_3_cif.got.tgz:5408.got - 2010.04.08 09:41:05.
