data_PCOD8318207
_publ_section_title
;
Structure prediction by ZEFSAII (Michael W. Deem and Ramdas Pophale) SiO2 
 PCOD8318207
Probable space group: P 42/M N M
;
_chemical_formula_sum "Si O2"
_cell_formula_units_Z 88
_cell_length_a 13.041770
_cell_length_b 13.041770
_cell_length_c 25.962503
_cell_angle_alpha 90.000000
_cell_angle_beta 90.000000
_cell_angle_gamma 90.000000
_cell_volume 4415.904102
_symmetry_space_group_name_H-M "P 42/M N M"
_symmetry_group_IT_number 136
_symmetry_cell_setting 'tetragonal'
loop_
_space_group_symop_operation_xyz
x,y,z
1/2-y,1/2+x,1/2+z
-x,-y,z
1/2+y,1/2-x,1/2+z
1/2+x,1/2-y,1/2-z
1/2-x,1/2+y,1/2-z
y,x,-z
-y,-x,-z
-x,-y,-z
1/2+y,1/2-x,1/2-z
x,y,-z
1/2-y,1/2+x,1/2-z
1/2-x,1/2+y,1/2+z
1/2+x,1/2-y,1/2+z
-y,-x,z
y,x,z
loop_
_atom_site_type_symbol
_atom_site_label
_atom_site_fract_x
_atom_site_fract_y
_atom_site_fract_z
Si Si1 0.818871 0.495799 0.899330
Si Si2 0.999836 0.826203 0.500000
Si Si3 0.998618 0.154533 0.059538
Si Si4 0.431855 0.735069 0.206196
Si Si5 0.765502 0.598781 0.711438
Si Si6 0.007895 0.351445 0.114060
O O1 0.743497 0.460212 0.853951
O O2 0.879042 0.598838 0.882443
O O3 0.913737 0.419156 0.905896
O O4 0.748840 0.504092 0.950358
O O5 0.098974 0.901027 0.500000
O O6 0.895418 0.895418 0.500000
O O7 0.887395 0.112606 0.079323
O O8 0.017472 0.271809 0.068789
O O9 0.006537 0.135855 0.000000
O O10 0.087157 0.087157 0.087075
O O11 0.370192 0.629809 0.214698
O O12 0.536386 0.731965 0.238298
O O13 0.365104 0.832790 0.224237
O O14 0.672239 0.672239 0.693714
O O15 0.794441 0.517411 0.667435
#
# Coordination Sequence:
#
# PCOD8318207 Si02
#       6
#    16   8  16  16  16  16
#     4  10  23  40  62  88 116 154 199 252 301 347
#     4  11  26  45  62  84 116 155 206 257 296 346
#     4   9  19  34  52  79 116 154 187 225 283 351
#     4  10  21  39  61  86 119 157 198 240 294 355
#     4  10  21  37  60  90 120 154 196 239 292 353
#     4  10  21  37  61  90 120 149 192 246 293 356
#
# _framework density 19.927969999999998
#
# number of rings (size 3 to 8) (size 9 to 14) (size 15 to 20)
#    0.000    2.091    0.000    2.727    2.545    7.273 
#    0.000    0.000    0.000    0.000    0.000    0.000 
#    0.000    0.000    0.000    0.000    0.000    0.000 
#
# Total GULP energy -1090371.411556 kJ/mol
# GULP energy per Si atom -12390.584222 kJ/mol
# Density = 1.988261 g / cm^3
# Si number density = 19.927970 Si / 1000 Ang^3
#
#
#
# Elastic Constant Matrix: (Units=GPa)
#
#
# Indices 1 2 3 4 5 6 
#
# 1 96.3178 42.3477 46.6618 0.0000 0.0000 0.0000
# 2 42.3477 96.3180 46.6616 0.0000 0.0000 0.0000
# 3 46.6618 46.6616 97.7477 0.0000 0.0000 0.0000
# 4 0.0000 0.0000 0.0000 17.7222 0.0000 0.0000
# 5 0.0000 0.0000 0.0000 0.0000 17.7232 0.0000
# 6 0.0000 0.0000 0.0000 0.0000 0.0000 25.8207
#
#
#
# Elastic Compliance Matrix: (Units=1/GPa)
#
#
# Indices 1 2 3 4 5 6 
#
# 1 0.014577 -0.003952 -0.005072 0.000000 0.000000 0.000000
# 2 -0.003952 0.014577 -0.005072 0.000000 0.000000 0.000000
# 3 -0.005072 -0.005072 0.015073 0.000000 0.000000 0.000000
# 4 0.000000 0.000000 0.000000 0.056426 0.000000 0.000000
# 5 0.000000 0.000000 0.000000 0.000000 0.056423 0.000000
# 6 0.000000 0.000000 0.000000 0.000000 0.000000 0.038729
#
#
# Mechanical properties :
#
#
# Convention : Reuss Voigt Hill
#
# Bulk Modulus (GPa) = 62.36425 62.41395 62.38910
# Shear Modulus (GPa) = 21.80151 22.56740 22.18446
#
# Velocity S-wave (km/s) = 3.31118 3.36884 3.34013
# Velocity P-wave (km/s) = 6.78095 6.82055 6.80078
#
# Compressibility (1/GPa) = 0.01603483
#
# Stress axis : x y z
#
# Youngs Moduli (GPa) = 68.60125 68.60149 66.34388
#
# Poissons Ratio (x) = 0.27110 0.33651
# Poissons Ratio (y) = 0.27110 0.33650
# Poissons Ratio (z) = 0.34796 0.34795
#
# Static dielectric constant tensor:
#      x y z
#    x 3.787900 0.000000 0.000000 
#    y 0.000000 3.787900 0.000000 
#    z 0.000000 0.000000 3.408730 
# 
# 
# High freq. dielectric constant tensor:
#      x y z
#    x 1.782930 0.000000 0.000000 
#    y 0.000000 1.782930 0.000000 
#    z 0.000000 0.000000 1.770030 
# 
# From -- ./inp_files/9718.got.cif
#   From: 2010.03.12/outbox.cif.g09.slc.cpg/sg136_5_cif.got.tgz:9718.got - 2010.04.06 18:39:43.
