data_PCOD8318768
_publ_section_title
;
Structure prediction by ZEFSAII (Michael W. Deem and Ramdas Pophale) SiO2 
 PCOD8318768
Probable space group: P 42/N M C
;
_chemical_formula_sum "Si O2"
_cell_formula_units_Z 48
_cell_length_a 10.005279
_cell_length_b 10.005279
_cell_length_c 21.571170
_cell_angle_alpha 90.000000
_cell_angle_beta 90.000000
_cell_angle_gamma 90.000000
_cell_volume 2159.395085
_symmetry_space_group_name_H-M "P 42/N M C"
_symmetry_group_IT_number 137
_space_group.IT_coordinate_system_code '2'
_symmetry_cell_setting 'tetragonal'
loop_
_space_group_symop_operation_xyz
x,y,z
1/2-y,x,1/2+z
1/2-x,1/2-y,z
y,1/2-x,1/2+z
1/2+x,-y,-z
-x,1/2+y,-z
1/2+y,1/2+x,1/2-z
-y,-x,1/2-z
-x,-y,-z
1/2+y,-x,1/2-z
1/2+x,1/2+y,-z
-y,1/2+x,1/2-z
1/2-x,y,z
x,1/2-y,z
1/2-y,1/2-x,1/2+z
y,x,1/2+z
loop_
_atom_site_type_symbol
_atom_site_label
_atom_site_fract_x
_atom_site_fract_y
_atom_site_fract_z
Si Si1 0.750000 0.598198 0.973745
Si Si2 0.404050 0.250000 0.712603
Si Si3 0.022896 0.473321 0.622305
Si Si4 0.250000 0.092452 0.358487
Si Si5 0.750000 0.393603 0.084836
O O1 0.750000 0.750000 0.997149
O O2 0.884165 0.573010 0.934744
O O3 0.750000 0.507493 0.033801
O O4 0.250000 0.250000 0.693417
O O5 0.465993 0.113528 0.684966
O O6 0.429211 0.250000 0.785015
O O7 0.099884 0.615726 0.627344
O O8 0.871265 0.515150 0.610177
O O9 0.250000 0.250000 0.373803
O O10 0.750000 0.250000 0.051309
#
# Coordination Sequence:
#
# PCOD8318768 Si02
#       5
#     8   8  16   8   8
#     4  11  26  44  69  99 135 183 227 282 340 403
#     4  10  22  42  68  95 133 174 222 275 344 405
#     4  11  23  42  66  96 136 174 230 277 335 399
#     4  11  23  41  68  98 133 179 216 277 347 412
#     4  12  25  41  69 100 137 179 230 277 340 401
#
# _framework density 22.228449000000001
#
# number of rings (size 3 to 8) (size 9 to 14) (size 15 to 20)
#    0.000    1.000    1.667    6.000    4.667    2.000 
#    0.000    3.333    0.000    0.000    0.000    0.000 
#    0.000    0.000    0.000    0.000    0.000    0.000 
#
# Total GULP energy -595075.193770 kJ/mol
# GULP energy per Si atom -12397.399870 kJ/mol
# Density = 2.217786 g / cm^3
# Si number density = 22.228449 Si / 1000 Ang^3
#
#
#
# Elastic Constant Matrix: (Units=GPa)
#
#
# Indices 1 2 3 4 5 6 
#
# 1 185.1062 46.4059 23.1518 0.0000 0.0000 0.0000
# 2 46.4059 185.1062 23.1518 0.0000 0.0000 0.0000
# 3 23.1518 23.1518 49.5370 0.0000 0.0000 0.0000
# 4 0.0000 0.0000 0.0000 14.5953 0.0000 0.0000
# 5 0.0000 0.0000 0.0000 0.0000 14.5953 0.0000
# 6 0.0000 0.0000 0.0000 0.0000 0.0000 42.0249
#
#
#
# Elastic Compliance Matrix: (Units=1/GPa)
#
#
# Indices 1 2 3 4 5 6 
#
# 1 0.005987 -0.001222 -0.002227 0.000000 0.000000 0.000000
# 2 -0.001222 0.005987 -0.002227 0.000000 0.000000 0.000000
# 3 -0.002227 -0.002227 0.022268 0.000000 0.000000 0.000000
# 4 0.000000 0.000000 0.000000 0.068515 0.000000 0.000000
# 5 0.000000 0.000000 0.000000 0.000000 0.068515 0.000000
# 6 0.000000 0.000000 0.000000 0.000000 0.000000 0.023795
#
#
# Mechanical properties :
#
#
# Convention : Reuss Voigt Hill
#
# Bulk Modulus (GPa) = 43.68625 67.24094 55.46360
# Shear Modulus (GPa) = 23.35885 36.04576 29.70230
#
# Velocity S-wave (km/s) = 3.24520 4.03128 3.65941
# Velocity P-wave (km/s) = 5.80842 7.20999 6.54682
#
# Compressibility (1/GPa) = 0.02289050
#
# Stress axis : x y z
#
# Youngs Moduli (GPa) = 167.02007 167.02007 44.90653
#
# Poissons Ratio (x) = 0.20418 0.10000
# Poissons Ratio (y) = 0.20418 0.10000
# Poissons Ratio (z) = 0.37194 0.37194
#
# Static dielectric constant tensor:
#      x y z
#    x 4.370830 0.000000 0.000000 
#    y 0.000000 4.370830 0.000000 
#    z 0.000000 0.000000 3.779280 
# 
# 
# High freq. dielectric constant tensor:
#      x y z
#    x 1.894530 0.000000 0.000000 
#    y 0.000000 1.894530 0.000000 
#    z 0.000000 0.000000 1.858650 
# 
# From -- ./inp_files/10073.got.cif
#   From: 2010.03.12/outbox.cif.g09.slc.cpg/sg137_6_cif.got.tgz:10073.got - 2010.04.08 09:34:49.
