data_PCOD8318934
_publ_section_title
;
Structure prediction by ZEFSAII (Michael W. Deem and Ramdas Pophale) SiO2 
 PCOD8318934
Probable space group: P 42/N C M
;
_chemical_formula_sum "Si O2"
_cell_formula_units_Z 112
_cell_length_a 18.699661
_cell_length_b 18.699661
_cell_length_c 20.307913
_cell_angle_alpha 90.000000
_cell_angle_beta 90.000000
_cell_angle_gamma 90.000000
_cell_volume 7101.216623
_symmetry_space_group_name_H-M "P 42/N C M"
_symmetry_group_IT_number 138
_space_group.IT_coordinate_system_code '2'
_symmetry_cell_setting 'tetragonal'
loop_
_space_group_symop_operation_xyz
x,y,z
1/2-y,x,1/2+z
1/2-x,1/2-y,z
y,1/2-x,1/2+z
1/2+x,-y,1/2-z
-x,1/2+y,1/2-z
1/2+y,1/2+x,-z
-y,-x,-z
-x,-y,-z
1/2+y,-x,1/2-z
1/2+x,1/2+y,-z
-y,1/2+x,1/2-z
1/2-x,y,1/2+z
x,1/2-y,1/2+z
1/2-y,1/2-x,z
y,x,z
loop_
_atom_site_type_symbol
_atom_site_label
_atom_site_fract_x
_atom_site_fract_y
_atom_site_fract_z
Si Si1 0.285536 0.922352 0.124321
Si Si2 0.128849 0.860814 0.925097
Si Si3 0.759599 0.462924 0.731498
Si Si4 0.530779 0.411553 0.814832
Si Si5 0.266307 0.828729 0.848862
Si Si6 0.423993 0.962131 0.071811
Si Si7 0.394424 0.991702 0.802342
O O1 0.214694 0.910541 0.082668
O O2 0.263567 0.962760 0.190402
O O3 0.332039 0.849204 0.131438
O O4 0.340258 0.974572 0.086770
O O5 0.090351 0.919705 0.879493
O O6 0.213428 0.850858 0.909122
O O7 0.116488 0.883513 0.000000
O O8 0.831191 0.497507 0.700157
O O9 0.750896 0.380076 0.711775
O O10 0.690260 0.505856 0.705802
O O11 0.463469 0.463469 0.827001
O O12 0.577704 0.435258 0.752059
O O13 0.250000 0.750000 0.822975
O O14 0.462109 0.910675 0.125098
O O15 0.460085 0.039916 0.073593
O O16 0.428180 0.928180 0.000000
O O17 0.432381 0.067620 0.790793
#
# Coordination Sequence:
#
# PCOD8318934 Si02
#       7
#    16  16  16  16  16  16  16
#     4  11  20  29  48  69 101 131 167 206 245 295
#     4  10  22  33  44  69 101 137 170 199 242 295
#     4  11  18  31  50  75  91 132 168 206 248 300
#     4  10  20  34  52  73  99 129 170 210 246 294
#     4   9  20  26  41  67 100 129 161 198 238 286
#     4  10  21  33  48  70  98 132 165 206 256 296
#     4  10  19  34  51  72  99 127 165 209 250 303
#
# _framework density 15.771946
#
# number of rings (size 3 to 8) (size 9 to 14) (size 15 to 20)
#    0.000    1.857    4.286    0.000    6.000    2.286 
#    0.000    0.000    0.000    0.429    0.000    0.000 
#    0.000    0.571    0.000    0.000    0.000    0.000 
#
# Total GULP energy -1388546.867125 kJ/mol
# GULP energy per Si atom -12397.739885 kJ/mol
# Density = 1.573605 g / cm^3
# Si number density = 15.771946 Si / 1000 Ang^3
#
#
#
# Elastic Constant Matrix: (Units=GPa)
#
#
# Indices 1 2 3 4 5 6 
#
# 1 82.1527 41.1423 35.0055 0.0000 0.0000 0.0000
# 2 41.1423 82.1526 35.0054 0.0000 0.0000 0.0000
# 3 35.0055 35.0054 120.7452 0.0000 0.0000 0.0000
# 4 0.0000 0.0000 0.0000 17.2764 0.0000 0.0000
# 5 0.0000 0.0000 0.0000 0.0000 17.2765 0.0000
# 6 0.0000 0.0000 0.0000 0.0000 0.0000 23.4583
#
#
#
# Elastic Compliance Matrix: (Units=1/GPa)
#
#
# Indices 1 2 3 4 5 6 
#
# 1 0.017047 -0.007338 -0.002815 0.000000 0.000000 0.000000
# 2 -0.007338 0.017047 -0.002815 0.000000 0.000000 0.000000
# 3 -0.002815 -0.002815 0.009914 0.000000 0.000000 0.000000
# 4 0.000000 0.000000 0.000000 0.057883 0.000000 0.000000
# 5 0.000000 0.000000 0.000000 0.000000 0.057882 0.000000
# 6 0.000000 0.000000 0.000000 0.000000 0.000000 0.042629
#
#
# Mechanical properties :
#
#
# Convention : Reuss Voigt Hill
#
# Bulk Modulus (GPa) = 55.33150 56.37297 55.85224
# Shear Modulus (GPa) = 21.33479 23.19537 22.26508
#
# Velocity S-wave (km/s) = 3.68190 3.83910 3.76132
# Velocity P-wave (km/s) = 7.29614 7.44793 7.37242
#
# Compressibility (1/GPa) = 0.01807289
#
# Stress axis : x y z
#
# Youngs Moduli (GPa) = 58.66305 58.66300 100.86789
#
# Poissons Ratio (x) = 0.43044 0.28392
# Poissons Ratio (y) = 0.43044 0.28392
# Poissons Ratio (z) = 0.16512 0.16512
#
# Static dielectric constant tensor:
#      x y z
#    x 2.991200 0.000000 0.000000 
#    y 0.000000 2.991200 0.000000 
#    z 0.000000 0.000000 2.959680 
# 
# 
# High freq. dielectric constant tensor:
#      x y z
#    x 1.586820 0.000000 0.000000 
#    y 0.000000 1.586820 0.000000 
#    z 0.000000 0.000000 1.609770 
# 
# From -- ./inp_files/6459.got.cif
#   From: 2010.03.12/outbox.cif.g09.slc.cpg/sg138_4_cif.got.tgz:6459.got - 2010.04.08 09:41:05.
