data_PCOD8318987
_publ_section_title
;
Structure prediction by ZEFSAII (Michael W. Deem and Ramdas Pophale) SiO2 
 PCOD8318987
Probable space group: P 42/N C M
;
_chemical_formula_sum "Si O2"
_cell_formula_units_Z 80
_cell_length_a 12.387188
_cell_length_b 12.387188
_cell_length_c 27.315029
_cell_angle_alpha 90.000000
_cell_angle_beta 90.000000
_cell_angle_gamma 90.000000
_cell_volume 4191.284331
_symmetry_space_group_name_H-M "P 42/N C M"
_symmetry_group_IT_number 138
_space_group.IT_coordinate_system_code '2'
_symmetry_cell_setting 'tetragonal'
loop_
_space_group_symop_operation_xyz
x,y,z
1/2-y,x,1/2+z
1/2-x,1/2-y,z
y,1/2-x,1/2+z
1/2+x,-y,1/2-z
-x,1/2+y,1/2-z
1/2+y,1/2+x,-z
-y,-x,-z
-x,-y,-z
1/2+y,-x,1/2-z
1/2+x,1/2+y,-z
-y,1/2+x,1/2-z
1/2-x,y,1/2+z
x,1/2-y,1/2+z
1/2-y,1/2-x,z
y,x,z
loop_
_atom_site_type_symbol
_atom_site_label
_atom_site_fract_x
_atom_site_fract_y
_atom_site_fract_z
Si Si1 0.938661 0.388744 0.909359
Si Si2 0.382245 0.557692 0.205738
Si Si3 0.361122 0.719559 0.947392
Si Si4 0.645692 0.471698 0.111524
Si Si5 0.364678 0.962693 0.195271
O O1 0.836029 0.421278 0.944959
O O2 0.979832 0.264767 0.912151
O O3 0.910764 0.409258 0.853225
O O4 0.036356 0.463645 0.927415
O O5 0.446180 0.446180 0.204063
O O6 0.437451 0.643709 0.168498
O O7 0.262612 0.525398 0.189841
O O8 0.383538 0.608909 0.259601
O O9 0.250000 0.750000 0.918163
O O10 0.419725 0.623439 0.917833
O O11 0.326723 0.673278 0.000000
O O12 0.585326 0.585326 0.103101
O O13 0.420211 0.079790 0.204192
#
# Coordination Sequence:
#
# PCOD8318987 Si02
#       5
#    16  16  16  16  16
#     4  10  20  35  56  82 112 143 183 234 279 330
#     4  10  20  33  51  78 111 147 187 228 274 327
#     4   9  18  35  57  80 104 140 185 229 276 328
#     4  10  20  34  53  79 111 146 183 225 274 329
#     4  10  20  33  52  79 109 146 188 229 276 327
#
# _framework density 19.087229000000001
#
# number of rings (size 3 to 8) (size 9 to 14) (size 15 to 20)
#    0.000    2.200    2.000    1.200    0.000    3.200 
#    0.000    8.000    0.000    7.800    0.000    0.000 
#    0.000    0.000    0.000    0.000    0.000    0.000 
#
# Total GULP energy -991128.144517 kJ/mol
# GULP energy per Si atom -12389.101806 kJ/mol
# Density = 1.904379 g / cm^3
# Si number density = 19.087229 Si / 1000 Ang^3
#
#
#
# Elastic Constant Matrix: (Units=GPa)
#
#
# Indices 1 2 3 4 5 6 
#
# 1 95.9082 47.5430 25.4407 0.0000 0.0000 0.0000
# 2 47.5430 95.9083 25.4408 0.0000 0.0000 0.0000
# 3 25.4407 25.4408 78.9540 0.0000 0.0000 0.0000
# 4 0.0000 0.0000 0.0000 21.1315 0.0000 0.0000
# 5 0.0000 0.0000 0.0000 0.0000 21.1311 0.0000
# 6 0.0000 0.0000 0.0000 0.0000 0.0000 19.5722
#
#
#
# Elastic Compliance Matrix: (Units=1/GPa)
#
#
# Indices 1 2 3 4 5 6 
#
# 1 0.014273 -0.006403 -0.002536 0.000000 0.000000 0.000000
# 2 -0.006403 0.014273 -0.002536 0.000000 0.000000 0.000000
# 3 -0.002536 -0.002536 0.014300 0.000000 0.000000 0.000000
# 4 0.000000 0.000000 0.000000 0.047323 0.000000 0.000000
# 5 0.000000 0.000000 0.000000 0.000000 0.047324 0.000000
# 6 0.000000 0.000000 0.000000 0.000000 0.000000 0.051093
#
#
# Mechanical properties :
#
#
# Convention : Reuss Voigt Hill
#
# Bulk Modulus (GPa) = 50.25940 51.95772 51.10856
# Shear Modulus (GPa) = 22.91814 23.85669 23.38742
#
# Velocity S-wave (km/s) = 3.46888 3.53920 3.50421
# Velocity P-wave (km/s) = 6.51404 6.63185 6.57321
#
# Compressibility (1/GPa) = 0.01989678
#
# Stress axis : x y z
#
# Youngs Moduli (GPa) = 70.06107 70.06110 69.93031
#
# Poissons Ratio (x) = 0.44858 0.17735
# Poissons Ratio (y) = 0.44858 0.17735
# Poissons Ratio (z) = 0.17768 0.17768
#
# Static dielectric constant tensor:
#      x y z
#    x 3.536940 0.000000 0.000000 
#    y 0.000000 3.536940 0.000000 
#    z 0.000000 0.000000 3.487300 
# 
# 
# High freq. dielectric constant tensor:
#      x y z
#    x 1.728280 0.000000 0.000000 
#    y 0.000000 1.728280 0.000000 
#    z 0.000000 0.000000 1.746960 
# 
# From -- ./inp_files/7840.got.cif
#   From: 2010.03.12/outbox.cif.g09.slc.cpg/sg138_4_cif.got.tgz:7840.got - 2010.04.08 09:41:05.
