data_PCOD8318728
_publ_section_title
;
Structure prediction by ZEFSAII (Michael W. Deem and Ramdas Pophale) SiO2 
 PCOD8318728
Probable space group: P 42/N M C
;
_chemical_formula_sum "Si O2"
_cell_formula_units_Z 96
_cell_length_a 13.879509
_cell_length_b 13.879509
_cell_length_c 26.073766
_cell_angle_alpha 90.000000
_cell_angle_beta 90.000000
_cell_angle_gamma 90.000000
_cell_volume 5022.870361
_symmetry_space_group_name_H-M "P 42/N M C"
_symmetry_group_IT_number 137
_space_group.IT_coordinate_system_code '2'
_symmetry_cell_setting 'tetragonal'
loop_
_space_group_symop_operation_xyz
x,y,z
1/2-y,x,1/2+z
1/2-x,1/2-y,z
y,1/2-x,1/2+z
1/2+x,-y,-z
-x,1/2+y,-z
1/2+y,1/2+x,1/2-z
-y,-x,1/2-z
-x,-y,-z
1/2+y,-x,1/2-z
1/2+x,1/2+y,-z
-y,1/2+x,1/2-z
1/2-x,y,z
x,1/2-y,z
1/2-y,1/2-x,1/2+z
y,x,1/2+z
loop_
_atom_site_type_symbol
_atom_site_label
_atom_site_fract_x
_atom_site_fract_y
_atom_site_fract_z
Si Si1 0.074228 0.636413 0.693440
Si Si2 0.982034 0.012993 0.625508
Si Si3 0.363812 0.643698 0.193878
Si Si4 0.515947 0.602082 0.022881
Si Si5 0.750000 0.133874 0.493160
Si Si6 0.250000 0.638761 0.621784
Si Si7 0.857965 0.638503 0.431063
O O1 0.105295 0.605295 0.750000
O O2 0.046915 0.750000 0.692928
O O3 0.992050 0.567988 0.670247
O O4 0.158346 0.610041 0.654313
O O5 0.077847 0.063027 0.601652
O O6 0.926809 0.101724 0.649969
O O7 0.915018 0.960583 0.582857
O O8 0.395218 0.604783 0.250000
O O9 0.250000 0.648984 0.191647
O O10 0.407593 0.750000 0.184332
O O11 0.500000 0.500000 0.000000
O O12 0.413484 0.657328 0.019695
O O13 0.603741 0.649233 0.990940
O O14 0.750000 0.250000 0.499555
O O15 0.750000 0.092467 0.434660
O O16 0.250000 0.750000 0.609815
O O17 0.750000 0.634419 0.407879
O O18 0.895666 0.750000 0.429242
#
# Coordination Sequence:
#
# PCOD8318728 Si02
#       7
#    16  16  16  16   8   8  16
#     4  11  22  37  60  91 126 162 201 248 310 383
#     4  11  23  36  59  89 118 154 200 260 303 367
#     4   9  19  37  59  82 112 150 196 251 310 360
#     4  10  22  37  56  84 122 157 204 253 309 376
#     4  11  22  38  61  93 129 171 212 270 322 379
#     4   9  18  32  56  83 119 159 195 238 295 359
#     4  10  21  38  59  81 115 158 199 242 298 368
#
# _framework density 19.112577999999999
#
# number of rings (size 3 to 8) (size 9 to 14) (size 15 to 20)
#    0.000    1.833    1.667    3.500    2.333    4.000 
#    0.000    0.000    0.000    0.500    0.000    0.000 
#    0.000    0.000    0.000    0.000    0.000    0.000 
#
# Total GULP energy -1189297.256260 kJ/mol
# GULP energy per Si atom -12388.513086 kJ/mol
# Density = 1.906908 g / cm^3
# Si number density = 19.112578 Si / 1000 Ang^3
#
#
#
# Elastic Constant Matrix: (Units=GPa)
#
#
# Indices 1 2 3 4 5 6 
#
# 1 83.8606 35.6310 37.6822 0.0000 0.0000 0.0000
# 2 35.6310 83.8606 37.6822 0.0000 0.0000 0.0000
# 3 37.6822 37.6822 100.4230 0.0000 0.0000 0.0000
# 4 0.0000 0.0000 0.0000 31.0192 0.0000 0.0000
# 5 0.0000 0.0000 0.0000 0.0000 31.0191 0.0000
# 6 0.0000 0.0000 0.0000 0.0000 0.0000 25.7959
#
#
#
# Elastic Compliance Matrix: (Units=1/GPa)
#
#
# Indices 1 2 3 4 5 6 
#
# 1 0.015849 -0.004885 -0.004114 0.000000 0.000000 0.000000
# 2 -0.004885 0.015849 -0.004114 0.000000 0.000000 0.000000
# 3 -0.004114 -0.004114 0.013045 0.000000 0.000000 0.000000
# 4 0.000000 0.000000 0.000000 0.032238 0.000000 0.000000
# 5 0.000000 0.000000 0.000000 0.000000 0.032238 0.000000
# 6 0.000000 0.000000 0.000000 0.000000 0.000000 0.038766
#
#
# Mechanical properties :
#
#
# Convention : Reuss Voigt Hill
#
# Bulk Modulus (GPa) = 54.00550 54.45944 54.23247
# Shear Modulus (GPa) = 27.71877 28.04345 27.88111
#
# Velocity S-wave (km/s) = 3.81240 3.83466 3.82355
# Velocity P-wave (km/s) = 6.90630 6.93989 6.92312
#
# Compressibility (1/GPa) = 0.01851663
#
# Stress axis : x y z
#
# Youngs Moduli (GPa) = 63.09634 63.09633 76.65654
#
# Poissons Ratio (x) = 0.30825 0.31535
# Poissons Ratio (y) = 0.30825 0.31535
# Poissons Ratio (z) = 0.25957 0.25957
#
# Static dielectric constant tensor:
#      x y z
#    x 3.211100 0.000000 0.000000 
#    y 0.000000 3.211100 0.000000 
#    z 0.000000 0.000000 3.113180 
# 
# 
# High freq. dielectric constant tensor:
#      x y z
#    x 1.736250 0.000000 0.000000 
#    y 0.000000 1.736250 0.000000 
#    z 0.000000 0.000000 1.749730 
# 
# From -- ./inp_files/8867.got.cif
#   From: 2010.03.12/outbox.cif.g09.slc.cpg/sg137_5_cif.got.tgz:8867.got - 2010.04.08 09:34:49.
