data_PCOD8318844
_publ_section_title
;
Structure prediction by ZEFSAII (Michael W. Deem and Ramdas Pophale) SiO2 
 PCOD8318844
Probable space group: P 42/N C M
;
_chemical_formula_sum "Si O2"
_cell_formula_units_Z 96
_cell_length_a 14.929399
_cell_length_b 14.929399
_cell_length_c 22.724067
_cell_angle_alpha 90.000000
_cell_angle_beta 90.000000
_cell_angle_gamma 90.000000
_cell_volume 5064.898088
_symmetry_space_group_name_H-M "P 42/N C M"
_symmetry_group_IT_number 138
_space_group.IT_coordinate_system_code '2'
_symmetry_cell_setting 'tetragonal'
loop_
_space_group_symop_operation_xyz
x,y,z
1/2-y,x,1/2+z
1/2-x,1/2-y,z
y,1/2-x,1/2+z
1/2+x,-y,1/2-z
-x,1/2+y,1/2-z
1/2+y,1/2+x,-z
-y,-x,-z
-x,-y,-z
1/2+y,-x,1/2-z
1/2+x,1/2+y,-z
-y,1/2+x,1/2-z
1/2-x,y,1/2+z
x,1/2-y,1/2+z
1/2-y,1/2-x,z
y,x,z
loop_
_atom_site_type_symbol
_atom_site_label
_atom_site_fract_x
_atom_site_fract_y
_atom_site_fract_z
Si Si1 0.197303 0.446977 0.412884
Si Si2 0.164996 0.693188 0.931647
Si Si3 0.186281 0.616623 0.746134
Si Si4 0.559736 0.424347 0.140804
Si Si5 0.865892 0.487586 0.140406
Si Si6 0.460115 0.669589 0.968819
O O1 0.145450 0.354551 0.400969
O O2 0.152769 0.530171 0.378690
O O3 0.296704 0.439223 0.386340
O O4 0.196329 0.465087 0.483464
O O5 0.250000 0.750000 0.904409
O O6 0.144925 0.600266 0.899610
O O7 0.073263 0.748440 0.928203
O O8 0.178308 0.678308 0.000000
O O9 0.132596 0.707939 0.758888
O O10 0.158629 0.579284 0.682764
O O11 0.159795 0.541307 0.793587
O O12 0.497287 0.497287 0.173720
O O13 0.505012 0.398260 0.081157
O O14 0.964252 0.535749 0.139056
O O15 0.372603 0.627397 0.000000
#
# Coordination Sequence:
#
# PCOD8318844 Si02
#       6
#    16  16  16  16  16  16
#     4  10  20  36  56  80 113 153 196 237 288 357
#     4  11  19  34  59  85 119 156 191 238 293 349
#     4  11  23  38  60  84 112 151 197 247 300 353
#     4  10  19  34  56  83 114 142 187 247 298 343
#     4  12  25  39  57  87 122 158 200 243 299 358
#     4  10  17  31  56  88 113 146 188 236 294 349
#
# _framework density 18.953983000000001
#
# number of rings (size 3 to 8) (size 9 to 14) (size 15 to 20)
#    0.000    1.333    5.000    3.000    2.333    2.667 
#    0.000    0.000    0.000    0.000    0.000    0.000 
#    0.000    8.000    0.000    0.000    0.000    0.000 
#
# Total GULP energy -1189378.743414 kJ/mol
# GULP energy per Si atom -12389.361911 kJ/mol
# Density = 1.891084 g / cm^3
# Si number density = 18.953983 Si / 1000 Ang^3
#
#
#
# Elastic Constant Matrix: (Units=GPa)
#
#
# Indices 1 2 3 4 5 6 
#
# 1 79.5358 46.1232 32.9414 0.0000 0.0000 0.0000
# 2 46.1232 79.5355 32.9411 0.0000 0.0000 0.0000
# 3 32.9414 32.9411 91.6457 0.0000 0.0000 0.0000
# 4 0.0000 0.0000 0.0000 76.0006 0.0000 0.0000
# 5 0.0000 0.0000 0.0000 0.0000 75.9591 0.0000
# 6 0.0000 0.0000 0.0000 0.0000 0.0000 34.4275
#
#
#
# Elastic Compliance Matrix: (Units=1/GPa)
#
#
# Indices 1 2 3 4 5 6 
#
# 1 0.019867 -0.010061 -0.003525 0.000000 0.000000 0.000000
# 2 -0.010061 0.019868 -0.003525 0.000000 0.000000 0.000000
# 3 -0.003525 -0.003525 0.013445 0.000000 0.000000 0.000000
# 4 0.000000 0.000000 0.000000 0.013158 0.000000 0.000000
# 5 0.000000 0.000000 0.000000 0.000000 0.013165 0.000000
# 6 0.000000 0.000000 0.000000 0.000000 0.000000 0.029047
#
#
# Mechanical properties :
#
#
# Convention : Reuss Voigt Hill
#
# Bulk Modulus (GPa) = 52.74616 52.74760 52.74688
# Shear Modulus (GPa) = 33.53656 46.52487 40.03071
#
# Velocity S-wave (km/s) = 4.21095 4.95979 4.60063
# Velocity P-wave (km/s) = 7.17856 7.79032 7.49069
#
# Compressibility (1/GPa) = 0.01895873
#
# Stress axis : x y z
#
# Youngs Moduli (GPa) = 50.33352 50.33341 74.37469
#
# Poissons Ratio (x) = 0.50643 0.26215
# Poissons Ratio (y) = 0.50643 0.26215
# Poissons Ratio (z) = 0.17741 0.17741
#
# Static dielectric constant tensor:
#      x y z
#    x 2.624360 0.000000 0.000000 
#    y 0.000000 2.624450 0.000000 
#    z 0.000000 0.000000 3.773460 
# 
# 
# High freq. dielectric constant tensor:
#      x y z
#    x 1.718180 0.000000 0.000000 
#    y 0.000000 1.718180 0.000000 
#    z 0.000000 0.000000 1.742400 
# 
# From -- ./inp_files/6266.got.cif
#   From: 2010.03.12/outbox.cif.g09.slc.cpg/sg138_4_cif.got.tgz:6266.got - 2010.04.08 09:41:05.
