data_PCOD8318353
_publ_section_title
;
Structure prediction by ZEFSAII (Michael W. Deem and Ramdas Pophale) SiO2 
 PCOD8318353
Probable space group: P 42/M N M
;
_chemical_formula_sum "Si O2"
_cell_formula_units_Z 40
_cell_length_a 9.818650
_cell_length_b 9.818650
_cell_length_c 18.819558
_cell_angle_alpha 90.000000
_cell_angle_beta 90.000000
_cell_angle_gamma 90.000000
_cell_volume 1814.316197
_symmetry_space_group_name_H-M "P 42/M N M"
_symmetry_group_IT_number 136
_symmetry_cell_setting 'tetragonal'
loop_
_space_group_symop_operation_xyz
x,y,z
1/2-y,1/2+x,1/2+z
-x,-y,z
1/2+y,1/2-x,1/2+z
1/2+x,1/2-y,1/2-z
1/2-x,1/2+y,1/2-z
y,x,-z
-y,-x,-z
-x,-y,-z
1/2+y,1/2-x,1/2-z
x,y,-z
1/2-y,1/2+x,1/2-z
1/2-x,1/2+y,1/2+z
1/2+x,1/2-y,1/2+z
-y,-x,z
y,x,z
loop_
_atom_site_type_symbol
_atom_site_label
_atom_site_fract_x
_atom_site_fract_y
_atom_site_fract_z
Si Si1 0.506020 0.724312 0.500000
Si Si2 0.220286 0.007424 0.712056
Si Si3 0.591278 0.180220 0.357960
O O1 0.653397 0.653397 0.500000
O O2 0.389873 0.610128 0.500000
O O3 0.494513 0.820575 0.430607
O O4 0.158136 0.158136 0.696453
O O5 0.282653 0.995714 0.791154
O O6 0.339097 0.968555 0.655498
O O7 0.101383 0.898618 0.706757
O O8 0.707725 0.292276 0.364227
#
# Coordination Sequence:
#
# PCOD8318353 Si02
#       3
#     8  16  16
#     4   9  16  28  49  78 109 139 177 226 272 313
#     4   9  17  30  48  71 100 135 176 219 262 316
#     4   9  17  29  48  74 102 134 174 220 271 320
#
# _framework density 22.046873999999999
#
# number of rings (size 3 to 8) (size 9 to 14) (size 15 to 20)
#    0.000    3.000    0.000    1.200    0.000    5.600 
#    0.000    1.000    0.000   10.800    0.000    8.400 
#    0.000    0.000    0.000    0.000    0.000    3.600 
#
# Total GULP energy -495745.700515 kJ/mol
# GULP energy per Si atom -12393.642513 kJ/mol
# Density = 2.199669 g / cm^3
# Si number density = 22.046874 Si / 1000 Ang^3
#
#
#
# Elastic Constant Matrix: (Units=GPa)
#
#
# Indices 1 2 3 4 5 6 
#
# 1 62.5489 29.9313 64.8648 0.0000 0.0000 0.0000
# 2 29.9313 62.5488 64.8648 0.0000 0.0000 0.0000
# 3 64.8648 64.8648 187.3203 0.0000 0.0000 0.0000
# 4 0.0000 0.0000 0.0000 25.3573 0.0000 0.0000
# 5 0.0000 0.0000 0.0000 0.0000 25.3573 0.0000
# 6 0.0000 0.0000 0.0000 0.0000 0.0000 29.5169
#
#
#
# Elastic Compliance Matrix: (Units=1/GPa)
#
#
# Indices 1 2 3 4 5 6 
#
# 1 0.025843 -0.004816 -0.007281 0.000000 0.000000 0.000000
# 2 -0.004816 0.025843 -0.007281 0.000000 0.000000 0.000000
# 3 -0.007281 -0.007281 0.010381 0.000000 0.000000 0.000000
# 4 0.000000 0.000000 0.000000 0.039436 0.000000 0.000000
# 5 0.000000 0.000000 0.000000 0.000000 0.039436 0.000000
# 6 0.000000 0.000000 0.000000 0.000000 0.000000 0.033879
#
#
# Mechanical properties :
#
#
# Convention : Reuss Voigt Hill
#
# Bulk Modulus (GPa) = 42.89928 70.19333 56.54631
# Shear Modulus (GPa) = 22.58923 26.23011 24.40967
#
# Velocity S-wave (km/s) = 3.20441 3.45301 3.33103
# Velocity P-wave (km/s) = 5.76120 6.91412 6.36382
#
# Compressibility (1/GPa) = 0.02331042
#
# Stress axis : x y z
#
# Youngs Moduli (GPa) = 38.69564 38.69557 96.32906
#
# Poissons Ratio (x) = 0.18634 0.70139
# Poissons Ratio (y) = 0.18634 0.70139
# Poissons Ratio (z) = 0.28175 0.28175
#
# Static dielectric constant tensor:
#      x y z
#    x 4.088160 0.000000 0.000000 
#    y 0.000000 4.088160 0.000000 
#    z 0.000000 0.000000 4.096570 
# 
# 
# High freq. dielectric constant tensor:
#      x y z
#    x 1.862610 0.000000 0.000000 
#    y 0.000000 1.862610 0.000000 
#    z 0.000000 0.000000 1.844330 
# 
# From -- ./inp_files/4367.got.cif
#   From: 2010.03.12/outbox.cif.g09.slc.cpg/sg136_3_cif.got.tgz:4367.got - 2010.04.06 18:39:43.
