data_PCOD8318615
_publ_section_title
;
Structure prediction by ZEFSAII (Michael W. Deem and Ramdas Pophale) SiO2 
 PCOD8318615
Probable space group: P 42/N M C
;
_chemical_formula_sum "Si O2"
_cell_formula_units_Z 112
_cell_length_a 14.530491
_cell_length_b 14.530491
_cell_length_c 27.077706
_cell_angle_alpha 90.000000
_cell_angle_beta 90.000000
_cell_angle_gamma 90.000000
_cell_volume 5717.056024
_symmetry_space_group_name_H-M "P 42/N M C"
_symmetry_group_IT_number 137
_space_group.IT_coordinate_system_code '2'
_symmetry_cell_setting 'tetragonal'
loop_
_space_group_symop_operation_xyz
x,y,z
1/2-y,x,1/2+z
1/2-x,1/2-y,z
y,1/2-x,1/2+z
1/2+x,-y,-z
-x,1/2+y,-z
1/2+y,1/2+x,1/2-z
-y,-x,1/2-z
-x,-y,-z
1/2+y,-x,1/2-z
1/2+x,1/2+y,-z
-y,1/2+x,1/2-z
1/2-x,y,z
x,1/2-y,z
1/2-y,1/2-x,1/2+z
y,x,1/2+z
loop_
_atom_site_type_symbol
_atom_site_label
_atom_site_fract_x
_atom_site_fract_y
_atom_site_fract_z
Si Si1 0.147429 0.892330 0.306381
Si Si2 0.010807 0.142246 0.972296
Si Si3 0.986330 0.149296 0.310067
Si Si4 0.503799 0.860800 0.475182
Si Si5 0.855404 0.988270 0.302690
Si Si6 0.473005 0.350022 0.636268
Si Si7 0.350562 0.073148 0.362350
O O1 0.120482 0.879518 0.250000
O O2 0.250000 0.852863 0.316497
O O3 0.075476 0.841059 0.341427
O O4 0.143616 0.000424 0.317775
O O5 0.006960 0.250000 0.988936
O O6 0.019440 0.134953 0.913354
O O7 0.917185 0.089549 0.990105
O O8 0.101389 0.091752 0.994476
O O9 0.942401 0.250000 0.313678
O O10 0.027360 0.132712 0.255592
O O11 0.067566 0.143977 0.350947
O O12 0.902989 0.081425 0.321527
O O13 0.491099 0.750000 0.483259
O O14 0.522991 0.889121 0.418815
O O15 0.750000 0.991828 0.319306
O O16 0.905855 0.906181 0.329366
O O17 0.428214 0.250000 0.634013
O O18 0.250000 0.122351 0.362224
#
# Coordination Sequence:
#
# PCOD8318615 Si02
#       7
#    16  16  16  16  16  16  16
#     4  11  21  34  54  86 126 161 191 224 270 337
#     4  10  21  40  63  86 116 154 195 243 296 351
#     4  10  20  35  56  80 108 145 191 242 294 347
#     4  10  22  39  61  89 117 150 196 246 294 349
#     4  10  21  37  55  76 108 148 192 242 293 345
#     4  11  22  37  58  84 117 156 192 230 283 347
#     4  10  20  36  59  85 117 156 191 228 283 350
#
# _framework density 19.590502999999998
#
# number of rings (size 3 to 8) (size 9 to 14) (size 15 to 20)
#    0.000    1.714    2.857    1.286    0.000    5.286 
#    0.000    7.143    0.000    0.000    0.000    4.000 
#    0.000    0.000    0.000    0.000    0.000    0.000 
#
# Total GULP energy -1388265.271970 kJ/mol
# GULP energy per Si atom -12395.225643 kJ/mol
# Density = 1.954591 g / cm^3
# Si number density = 19.590503 Si / 1000 Ang^3
#
#
#
# Elastic Constant Matrix: (Units=GPa)
#
#
# Indices 1 2 3 4 5 6 
#
# 1 113.1373 60.5205 34.5633 0.0000 0.0000 0.0000
# 2 60.5205 113.1373 34.5633 0.0000 0.0000 0.0000
# 3 34.5633 34.5633 58.8980 0.0000 0.0000 0.0000
# 4 0.0000 0.0000 0.0000 -41.4252 0.0000 0.0000
# 5 0.0000 0.0000 0.0000 0.0000 -41.4252 0.0000
# 6 0.0000 0.0000 0.0000 0.0000 0.0000 -8.3473
#
#
#
# Elastic Compliance Matrix: (Units=1/GPa)
#
#
# Indices 1 2 3 4 5 6 
#
# 1 0.013259 -0.005746 -0.004409 0.000000 0.000000 0.000000
# 2 -0.005746 0.013259 -0.004409 0.000000 0.000000 0.000000
# 3 -0.004409 -0.004409 0.022153 0.000000 0.000000 0.000000
# 4 0.000000 0.000000 0.000000 -0.024140 0.000000 0.000000
# 5 0.000000 0.000000 0.000000 0.000000 -0.024140 0.000000
# 6 0.000000 0.000000 0.000000 0.000000 0.000000 -0.119799
#
#
# Mechanical properties :
#
#
# Convention : Reuss Voigt Hill
#
# Bulk Modulus (GPa) = 51.16726 60.49632 55.83179
# Shear Modulus (GPa) = -59.69249 -7.87118 -33.78184
#
# Velocity S-wave (km/s) = -5.52596 -2.00663 -4.15709
# Velocity P-wave (km/s) = 3.81312 5.05754 2.34934
#
# Compressibility (1/GPa) = 0.01954375
#
# Stress axis : x y z
#
# Youngs Moduli (GPa) = 75.41770 75.41770 45.13961
#
# Poissons Ratio (x) = 0.43334 0.19903
# Poissons Ratio (y) = 0.43334 0.19903
# Poissons Ratio (z) = 0.33253 0.33253
#
# Static dielectric constant tensor:
#      x y z
#    x 3.679530 0.000000 0.000000 
#    y 0.000000 3.679530 0.000000 
#    z 0.000000 0.000000 3.539380 
# 
# 
# High freq. dielectric constant tensor:
#      x y z
#    x 1.762390 0.000000 0.000000 
#    y 0.000000 1.762390 0.000000 
#    z 0.000000 0.000000 1.756110 
# 
# From -- ./inp_files/10699.got.cif
#   From: 2010.03.12/outbox.cif.g09.slc.cpg/sg137_6_cif.got.tgz:10699.got - 2010.04.08 09:34:49.
