data_PCOD8318846
_publ_section_title
;
Structure prediction by ZEFSAII (Michael W. Deem and Ramdas Pophale) SiO2 
 PCOD8318846
Probable space group: P 42/N C M
;
_chemical_formula_sum "Si O2"
_cell_formula_units_Z 96
_cell_length_a 13.236467
_cell_length_b 13.236467
_cell_length_c 30.360783
_cell_angle_alpha 90.000000
_cell_angle_beta 90.000000
_cell_angle_gamma 90.000000
_cell_volume 5319.332405
_symmetry_space_group_name_H-M "P 42/N C M"
_symmetry_group_IT_number 138
_space_group.IT_coordinate_system_code '2'
_symmetry_cell_setting 'tetragonal'
loop_
_space_group_symop_operation_xyz
x,y,z
1/2-y,x,1/2+z
1/2-x,1/2-y,z
y,1/2-x,1/2+z
1/2+x,-y,1/2-z
-x,1/2+y,1/2-z
1/2+y,1/2+x,-z
-y,-x,-z
-x,-y,-z
1/2+y,-x,1/2-z
1/2+x,1/2+y,-z
-y,1/2+x,1/2-z
1/2-x,y,1/2+z
x,1/2-y,1/2+z
1/2-y,1/2-x,z
y,x,z
loop_
_atom_site_type_symbol
_atom_site_label
_atom_site_fract_x
_atom_site_fract_y
_atom_site_fract_z
Si Si1 0.742663 0.089029 0.735256
Si Si2 0.900451 0.249063 0.366490
Si Si3 0.669632 0.508717 0.958187
Si Si4 0.576277 0.261705 0.622060
Si Si5 0.750753 0.582973 0.801452
Si Si6 0.999954 0.158788 0.944840
O O1 0.647953 0.154435 0.752633
O O2 0.734438 0.065184 0.683549
O O3 0.740374 0.978301 0.756184
O O4 0.868849 0.131643 0.372143
O O5 0.815382 0.331061 0.376585
O O6 0.986268 0.266182 0.403502
O O7 0.619790 0.619790 0.951611
O O8 0.759169 0.486966 0.923555
O O9 0.584232 0.427080 0.947733
O O10 0.715172 0.498491 0.007568
O O11 0.497818 0.238161 0.660165
O O12 0.850538 0.649463 0.808853
O O13 0.651578 0.651578 0.799912
O O14 0.108652 0.108652 0.937694
#
# Coordination Sequence:
#
# PCOD8318846 Si02
#       6
#    16  16  16  16  16  16
#     4  11  19  37  56  76 106 137 174 219 264 317
#     4  10  18  29  51  75 101 136 173 215 265 318
#     4   8  14  25  43  66 102 142 167 204 265 320
#     4  10  17  32  49  73 103 134 172 214 265 314
#     4  11  24  38  52  76 106 136 178 223 259 311
#     4   8  15  26  40  70 106 133 170 213 256 319
#
# _framework density 18.047377999999998
#
# number of rings (size 3 to 8) (size 9 to 14) (size 15 to 20)
#    0.000    2.333    3.333    2.500    0.000    2.667 
#    0.000    3.333    0.000    0.000    0.000    3.500 
#    0.000    5.333    0.000    0.000    0.000    0.000 
#
# Total GULP energy -1189546.459673 kJ/mol
# GULP energy per Si atom -12391.108955 kJ/mol
# Density = 1.800630 g / cm^3
# Si number density = 18.047378 Si / 1000 Ang^3
#
#
#
# Elastic Constant Matrix: (Units=GPa)
#
#
# Indices 1 2 3 4 5 6 
#
# 1 51.6924 16.3772 27.9396 0.0000 0.0000 0.0000
# 2 16.3772 51.6924 27.9396 0.0000 0.0000 0.0000
# 3 27.9396 27.9396 169.4391 0.0000 0.0000 0.0000
# 4 0.0000 0.0000 0.0000 11.6491 0.0000 0.0000
# 5 0.0000 0.0000 0.0000 0.0000 11.6491 0.0000
# 6 0.0000 0.0000 0.0000 0.0000 0.0000 11.9927
#
#
#
# Elastic Compliance Matrix: (Units=1/GPa)
#
#
# Indices 1 2 3 4 5 6 
#
# 1 0.022654 -0.005663 -0.002802 0.000000 0.000000 0.000000
# 2 -0.005663 0.022654 -0.002802 0.000000 0.000000 0.000000
# 3 -0.002802 -0.002802 0.006826 0.000000 0.000000 0.000000
# 4 0.000000 0.000000 0.000000 0.085843 0.000000 0.000000
# 5 0.000000 0.000000 0.000000 0.000000 0.085843 0.000000
# 6 0.000000 0.000000 0.000000 0.000000 0.000000 0.083384
#
#
# Mechanical properties :
#
#
# Convention : Reuss Voigt Hill
#
# Bulk Modulus (GPa) = 33.78309 46.37075 40.07692
# Shear Modulus (GPa) = 14.72308 20.42937 17.57622
#
# Velocity S-wave (km/s) = 2.85932 3.36815 3.12411
# Velocity P-wave (km/s) = 5.44617 6.39340 5.93870
#
# Compressibility (1/GPa) = 0.02960060
#
# Stress axis : x y z
#
# Youngs Moduli (GPa) = 44.14311 44.14311 146.50311
#
# Poissons Ratio (x) = 0.24997 0.41046
# Poissons Ratio (y) = 0.24997 0.41046
# Poissons Ratio (z) = 0.12368 0.12368
#
# Static dielectric constant tensor:
#      x y z
#    x 3.253820 0.000000 0.000000 
#    y 0.000000 3.253820 0.000000 
#    z 0.000000 0.000000 3.683610 
# 
# 
# High freq. dielectric constant tensor:
#      x y z
#    x 1.666080 0.000000 0.000000 
#    y 0.000000 1.666080 0.000000 
#    z 0.000000 0.000000 1.718840 
# 
# From -- ./inp_files/8214.got.cif
#   From: 2010.03.12/outbox.cif.g09.slc.cpg/sg138_5_cif.got.tgz:8214.got - 2010.04.08 09:41:05.
