data_PCOD8318577
_publ_section_title
;
Structure prediction by ZEFSAII (Michael W. Deem and Ramdas Pophale) SiO2 
 PCOD8318577
Probable space group: P 42/N M C
;
_chemical_formula_sum "Si O2"
_cell_formula_units_Z 64
_cell_length_a 19.413672
_cell_length_b 19.413672
_cell_length_c 9.958669
_cell_angle_alpha 90.000000
_cell_angle_beta 90.000000
_cell_angle_gamma 90.000000
_cell_volume 3753.329337
_symmetry_space_group_name_H-M "P 42/N M C"
_symmetry_group_IT_number 137
_space_group.IT_coordinate_system_code '2'
_symmetry_cell_setting 'tetragonal'
loop_
_space_group_symop_operation_xyz
x,y,z
1/2-y,x,1/2+z
1/2-x,1/2-y,z
y,1/2-x,1/2+z
1/2+x,-y,-z
-x,1/2+y,-z
1/2+y,1/2+x,1/2-z
-y,-x,1/2-z
-x,-y,-z
1/2+y,-x,1/2-z
1/2+x,1/2+y,-z
-y,1/2+x,1/2-z
1/2-x,y,z
x,1/2-y,z
1/2-y,1/2-x,1/2+z
y,x,1/2+z
loop_
_atom_site_type_symbol
_atom_site_label
_atom_site_fract_x
_atom_site_fract_y
_atom_site_fract_z
Si Si1 0.172409 0.489580 0.802795
Si Si2 0.025367 0.044715 0.875983
Si Si3 0.466732 0.826136 0.000328
Si Si4 0.175587 0.641219 0.897314
O O1 0.250000 0.457044 0.822704
O O2 0.108646 0.445472 0.862156
O O3 0.157952 0.501890 0.645811
O O4 0.167593 0.559679 0.885053
O O5 0.993980 0.006021 0.750000
O O6 0.996070 0.121674 0.889517
O O7 0.000000 0.000000 0.000000
O O8 0.487684 0.750000 0.048503
O O9 0.383820 0.830050 0.993238
O O10 0.173922 0.673922 0.750000
O O11 0.250000 0.659616 0.961418
#
# Coordination Sequence:
#
# PCOD8318577 Si02
#       4
#    16  16  16  16
#     4   9  17  31  53  80 106 136 182 230 273 318
#     4  12  20  35  58  82 108 143 183 224 271 320
#     4  10  20  33  50  77 111 146 181 223 271 323
#     4   9  15  25  44  73 105 140 181 221 258 308
#
# _framework density 17.051528999999999
#
# number of rings (size 3 to 8) (size 9 to 14) (size 15 to 20)
#    0.000    2.000    5.000    3.000    0.000    1.750 
#    0.000    2.500    0.000    0.750    0.000    3.500 
#    0.000    0.000    0.000    0.000    0.000    0.000 
#
# Total GULP energy -793053.848395 kJ/mol
# GULP energy per Si atom -12391.466381 kJ/mol
# Density = 1.701272 g / cm^3
# Si number density = 17.051529 Si / 1000 Ang^3
#
#
#
# Elastic Constant Matrix: (Units=GPa)
#
#
# Indices 1 2 3 4 5 6 
#
# 1 116.9022 51.3260 30.8827 0.0000 0.0000 0.0000
# 2 51.3260 116.9033 30.8834 0.0000 0.0000 0.0000
# 3 30.8827 30.8834 52.0153 0.0000 0.0000 0.0000
# 4 0.0000 0.0000 0.0000 11.7535 0.0000 0.0000
# 5 0.0000 0.0000 0.0000 0.0000 11.7533 0.0000
# 6 0.0000 0.0000 0.0000 0.0000 0.0000 19.3044
#
#
#
# Elastic Compliance Matrix: (Units=1/GPa)
#
#
# Indices 1 2 3 4 5 6 
#
# 1 0.011425 -0.003824 -0.004513 0.000000 0.000000 0.000000
# 2 -0.003824 0.011425 -0.004513 0.000000 0.000000 0.000000
# 3 -0.004513 -0.004513 0.024584 0.000000 0.000000 0.000000
# 4 0.000000 0.000000 0.000000 0.085081 0.000000 0.000000
# 5 0.000000 0.000000 0.000000 0.000000 0.085082 0.000000
# 6 0.000000 0.000000 0.000000 0.000000 0.000000 0.051802
#
#
# Mechanical properties :
#
#
# Convention : Reuss Voigt Hill
#
# Bulk Modulus (GPa) = 46.01004 56.88944 51.44974
# Shear Modulus (GPa) = 16.53738 20.07749 18.30743
#
# Velocity S-wave (km/s) = 3.11762 3.43514 3.28022
# Velocity P-wave (km/s) = 6.32463 7.01208 6.67720
#
# Compressibility (1/GPa) = 0.02173439
#
# Stress axis : x y z
#
# Youngs Moduli (GPa) = 87.52488 87.52508 40.67641
#
# Poissons Ratio (x) = 0.33470 0.18357
# Poissons Ratio (y) = 0.33470 0.18358
# Poissons Ratio (z) = 0.39500 0.39502
#
# Static dielectric constant tensor:
#      x y z
#    x 3.317610 0.000000 0.000000 
#    y 0.000000 3.317580 0.000000 
#    z 0.000000 0.000000 2.554350 
# 
# 
# High freq. dielectric constant tensor:
#      x y z
#    x 1.651620 0.000000 0.000000 
#    y 0.000000 1.651620 0.000000 
#    z 0.000000 0.000000 1.616670 
# 
# From -- ./inp_files/1805.got.cif
#   From: 2010.03.12/outbox.cif.g09.slc.cpg/sg137_1_cif.got.tgz:1805.got - 2010.04.08 09:34:49.
