data_PCOD8318471
_publ_section_title
;
Structure prediction by ZEFSAII (Michael W. Deem and Ramdas Pophale) SiO2 
 PCOD8318471
Probable space group: P 42/N M C
;
_chemical_formula_sum "Si O2"
_cell_formula_units_Z 84
_cell_length_a 22.209271
_cell_length_b 22.209271
_cell_length_c 10.454926
_cell_angle_alpha 90.000000
_cell_angle_beta 90.000000
_cell_angle_gamma 90.000000
_cell_volume 5156.910215
_symmetry_space_group_name_H-M "P 42/N M C"
_symmetry_group_IT_number 137
_space_group.IT_coordinate_system_code '2'
_symmetry_cell_setting 'tetragonal'
loop_
_space_group_symop_operation_xyz
x,y,z
1/2-y,x,1/2+z
1/2-x,1/2-y,z
y,1/2-x,1/2+z
1/2+x,-y,-z
-x,1/2+y,-z
1/2+y,1/2+x,1/2-z
-y,-x,1/2-z
-x,-y,-z
1/2+y,-x,1/2-z
1/2+x,1/2+y,-z
-y,1/2+x,1/2-z
1/2-x,y,z
x,1/2-y,z
1/2-y,1/2-x,1/2+z
y,x,1/2+z
loop_
_atom_site_type_symbol
_atom_site_label
_atom_site_fract_x
_atom_site_fract_y
_atom_site_fract_z
Si Si1 0.250000 0.380928 0.599354
Si Si2 0.544013 0.641095 0.996325
Si Si3 0.750000 0.880928 0.099353
Si Si4 0.996759 0.400881 0.250001
Si Si5 0.099896 0.501107 0.250001
Si Si6 0.750000 0.750000 1.000000
Si Si7 0.455987 0.141095 0.496326
O O1 0.306323 0.407584 0.522133
O O2 0.250000 0.308748 0.590037
O O3 0.250000 0.398312 0.750000
O O4 0.499248 0.641317 0.875165
O O5 0.577589 0.577589 0.999999
O O6 0.505207 0.644343 0.127140
O O7 0.750000 0.808748 0.090036
O O8 0.693677 0.907584 0.022133
O O9 0.933053 0.433053 0.250000
O O10 0.051912 0.447428 0.250001
O O11 0.999247 0.358683 0.375167
O O12 0.144343 0.494792 0.127142
O O13 0.065402 0.565402 0.250000
#
# Coordination Sequence:
#
# PCOD8318471 Si02
#       7
#     8  16   8  16  16   4  16
#     4  12  23  38  48  68  94 129 187 221 260 282
#     4  10  19  31  49  67  92 123 159 211 250 294
#     4  12  23  38  48  68  94 129 187 221 260 282
#     4   9  16  29  48  68  88 115 149 196 259 309
#     4   9  18  31  48  72  92 111 151 202 257 311
#     4  12  26  36  52  62  88 146 188 240 258 270
#     4  10  19  31  49  67  92 123 159 211 250 294
#
# _framework density 16.288824000000002
#
# number of rings (size 3 to 8) (size 9 to 14) (size 15 to 20)
#    0.000    1.905    3.810    1.429    0.000    5.333 
#    3.429    0.000    0.000    0.000    0.000    0.000 
#    0.000    0.000    0.000    0.000    0.000   66.667 
#
# Total GULP energy -1041028.326814 kJ/mol
# GULP energy per Si atom -12393.194367 kJ/mol
# Density = 1.625175 g / cm^3
# Si number density = 16.288824 Si / 1000 Ang^3
#
#
#
# Elastic Constant Matrix: (Units=GPa)
#
#
# Indices 1 2 3 4 5 6 
#
# 1 49.5564 35.8110 44.0615 0.0000 0.0000 0.0000
# 2 35.8110 49.5564 44.0615 0.0000 0.0000 0.0000
# 3 44.0615 44.0615 166.8333 0.0000 0.0000 0.0000
# 4 0.0000 0.0000 0.0000 20.6675 0.0000 0.0000
# 5 0.0000 0.0000 0.0000 0.0000 20.6675 0.0000
# 6 0.0000 0.0000 0.0000 0.0000 0.0000 32.7726
#
#
#
# Elastic Compliance Matrix: (Units=1/GPa)
#
#
# Indices 1 2 3 4 5 6 
#
# 1 0.044428 -0.028324 -0.004253 0.000000 0.000000 0.000000
# 2 -0.028324 0.044428 -0.004253 0.000000 0.000000 0.000000
# 3 -0.004253 -0.004253 0.008241 0.000000 0.000000 0.000000
# 4 0.000000 0.000000 0.000000 0.048385 0.000000 0.000000
# 5 0.000000 0.000000 0.000000 0.000000 0.048385 0.000000
# 6 0.000000 0.000000 0.000000 0.000000 0.000000 0.030513
#
#
# Mechanical properties :
#
#
# Convention : Reuss Voigt Hill
#
# Bulk Modulus (GPa) = 42.66807 57.09047 49.87927
# Shear Modulus (GPa) = 16.34769 24.28898 20.31834
#
# Velocity S-wave (km/s) = 3.17142 3.86572 3.53566
# Velocity P-wave (km/s) = 6.29779 7.41957 6.88158
#
# Compressibility (1/GPa) = 0.02343673
#
# Stress axis : x y z
#
# Youngs Moduli (GPa) = 22.50819 22.50819 121.34954
#
# Poissons Ratio (x) = 0.63751 0.51614
# Poissons Ratio (y) = 0.63751 0.51614
# Poissons Ratio (z) = 0.09573 0.09573
#
# Static dielectric constant tensor:
#      x y z
#    x 2.750820 0.000000 0.000000 
#    y 0.000000 2.750820 0.000000 
#    z 0.000000 0.000000 3.518930 
# 
# 
# High freq. dielectric constant tensor:
#      x y z
#    x 1.583540 0.000000 0.000000 
#    y 0.000000 1.583540 0.000000 
#    z 0.000000 0.000000 1.653890 
# 
# From -- ./inp_files/2111.got.cif
#   From: 2010.03.12/outbox.cif.g09.slc.cpg/sg137_2_cif.got.tgz:2111.got - 2010.04.08 09:34:49.
