data_PCOD8318616
_publ_section_title
;
Structure prediction by ZEFSAII (Michael W. Deem and Ramdas Pophale) SiO2 
 PCOD8318616
Probable space group: P 42/N M C
;
_chemical_formula_sum "Si O2"
_cell_formula_units_Z 72
_cell_length_a 19.844786
_cell_length_b 19.844786
_cell_length_c 8.899228
_cell_angle_alpha 90.000000
_cell_angle_beta 90.000000
_cell_angle_gamma 90.000000
_cell_volume 3504.654204
_symmetry_space_group_name_H-M "P 42/N M C"
_symmetry_group_IT_number 137
_space_group.IT_coordinate_system_code '2'
_symmetry_cell_setting 'tetragonal'
loop_
_space_group_symop_operation_xyz
x,y,z
1/2-y,x,1/2+z
1/2-x,1/2-y,z
y,1/2-x,1/2+z
1/2+x,-y,-z
-x,1/2+y,-z
1/2+y,1/2+x,1/2-z
-y,-x,1/2-z
-x,-y,-z
1/2+y,-x,1/2-z
1/2+x,1/2+y,-z
-y,1/2+x,1/2-z
1/2-x,y,z
x,1/2-y,z
1/2-y,1/2-x,1/2+z
y,x,1/2+z
loop_
_atom_site_type_symbol
_atom_site_label
_atom_site_fract_x
_atom_site_fract_y
_atom_site_fract_z
Si Si1 0.060732 0.325525 0.071047
Si Si2 0.324582 0.824582 0.750000
Si Si3 0.366879 0.921495 0.488911
Si Si4 0.324710 0.112448 0.247183
Si Si5 0.675706 0.461218 0.833830
O O1 0.031332 0.250000 0.092035
O O2 0.106364 0.330169 0.924644
O O3 0.996347 0.376397 0.061563
O O4 0.112529 0.340699 0.204585
O O5 0.333835 0.750000 0.681403
O O6 0.331044 0.876481 0.613387
O O7 0.436030 0.883744 0.443779
O O8 0.325256 0.929787 0.334352
O O9 0.250000 0.141635 0.205061
O O10 0.334675 0.040676 0.168828
O O11 0.750000 0.443412 0.898885
#
# Coordination Sequence:
#
# PCOD8318616 Si02
#       5
#    16   8  16  16  16
#     4  10  21  38  58  80 110 144 178 222 272 325
#     4  11  22  34  50  78 114 146 182 228 270 315
#     4  10  20  35  56  80 110 145 184 224 272 323
#     4   9  20  37  56  81 109 138 178 225 273 326
#     4   9  18  36  59  79 105 143 185 228 270 318
#
# _framework density 20.544108999999999
#
# number of rings (size 3 to 8) (size 9 to 14) (size 15 to 20)
#    0.000    2.333    0.000    4.000    0.000    4.000 
#    0.000    6.667    0.000    8.000    0.000    0.000 
#    0.000    0.000    0.000    0.000    0.000    0.000 
#
# Total GULP energy -892124.071377 kJ/mol
# GULP energy per Si atom -12390.612102 kJ/mol
# Density = 2.049735 g / cm^3
# Si number density = 20.544109 Si / 1000 Ang^3
#
#
#
# Elastic Constant Matrix: (Units=GPa)
#
#
# Indices 1 2 3 4 5 6 
#
# 1 72.1413 23.3060 30.6718 0.0000 0.0000 0.0000
# 2 23.3060 72.1413 30.6718 0.0000 0.0000 0.0000
# 3 30.6718 30.6718 52.0183 0.0000 0.0000 0.0000
# 4 0.0000 0.0000 0.0000 25.4001 0.0000 0.0000
# 5 0.0000 0.0000 0.0000 0.0000 25.4001 0.0000
# 6 0.0000 0.0000 0.0000 0.0000 0.0000 30.2915
#
#
#
# Elastic Compliance Matrix: (Units=1/GPa)
#
#
# Indices 1 2 3 4 5 6 
#
# 1 0.018673 -0.001803 -0.009947 0.000000 0.000000 0.000000
# 2 -0.001803 0.018673 -0.009947 0.000000 0.000000 0.000000
# 3 -0.009947 -0.009947 0.030954 0.000000 0.000000 0.000000
# 4 0.000000 0.000000 0.000000 0.039370 0.000000 0.000000
# 5 0.000000 0.000000 0.000000 0.000000 0.039370 0.000000
# 6 0.000000 0.000000 0.000000 0.000000 0.000000 0.033013
#
#
# Mechanical properties :
#
#
# Convention : Reuss Voigt Hill
#
# Bulk Modulus (GPa) = 40.15133 40.62226 40.38679
# Shear Modulus (GPa) = 21.57487 23.66178 22.61833
#
# Velocity S-wave (km/s) = 3.24415 3.39743 3.32168
# Velocity P-wave (km/s) = 5.79820 5.93348 5.86623
#
# Compressibility (1/GPa) = 0.02490577
#
# Stress axis : x y z
#
# Youngs Moduli (GPa) = 53.55192 53.55192 32.30563
#
# Poissons Ratio (x) = 0.09658 0.32135
# Poissons Ratio (y) = 0.09658 0.32135
# Poissons Ratio (z) = 0.53269 0.53269
#
# Static dielectric constant tensor:
#      x y z
#    x 3.691710 0.000000 0.000000 
#    y 0.000000 3.691710 0.000000 
#    z 0.000000 0.000000 3.532350 
# 
# 
# High freq. dielectric constant tensor:
#      x y z
#    x 1.798180 0.000000 0.000000 
#    y 0.000000 1.798180 0.000000 
#    z 0.000000 0.000000 1.791540 
# 
# From -- ./inp_files/1946.got.cif
#   From: 2010.03.12/outbox.cif.g09.slc.cpg/sg137_1_cif.got.tgz:1946.got - 2010.04.08 09:34:49.
