data_PCOD8318010
_publ_section_title
;
Structure prediction by ZEFSAII (Michael W. Deem and Ramdas Pophale) SiO2 
 PCOD8318010
Probable space group: P 42/M N M
;
_chemical_formula_sum "Si O2"
_cell_formula_units_Z 72
_cell_length_a 22.693061
_cell_length_b 22.693061
_cell_length_c 9.000890
_cell_angle_alpha 90.000000
_cell_angle_beta 90.000000
_cell_angle_gamma 90.000000
_cell_volume 4635.233486
_symmetry_space_group_name_H-M "P 42/M N M"
_symmetry_group_IT_number 136
_symmetry_cell_setting 'tetragonal'
loop_
_space_group_symop_operation_xyz
x,y,z
1/2-y,1/2+x,1/2+z
-x,-y,z
1/2+y,1/2-x,1/2+z
1/2+x,1/2-y,1/2-z
1/2-x,1/2+y,1/2-z
y,x,-z
-y,-x,-z
-x,-y,-z
1/2+y,1/2-x,1/2-z
x,y,-z
1/2-y,1/2+x,1/2-z
1/2-x,1/2+y,1/2+z
1/2+x,1/2-y,1/2+z
-y,-x,z
y,x,z
loop_
_atom_site_type_symbol
_atom_site_label
_atom_site_fract_x
_atom_site_fract_y
_atom_site_fract_z
Si Si1 0.788675 0.310318 0.167028
Si Si2 0.549295 0.549295 0.331364
Si Si3 0.704907 0.392769 0.326689
Si Si4 0.488767 0.332403 0.174219
Si Si5 0.131542 0.772801 0.328710
O O1 0.741044 0.258956 0.169960
O O2 0.765265 0.364096 0.266663
O O3 0.849118 0.284273 0.234200
O O4 0.800306 0.332779 0.000000
O O5 0.500000 0.500000 0.328186
O O6 0.566025 0.566025 0.500000
O O7 0.523864 0.605808 0.250079
O O8 0.711969 0.405924 0.500000
O O9 0.649595 0.350406 0.295099
O O10 0.695892 0.452765 0.239249
O O11 0.436132 0.286791 0.207156
O O12 0.496142 0.343834 0.000000
O O13 0.141391 0.756799 0.500000
O O14 0.169587 0.830414 0.285630
#
# Coordination Sequence:
#
# PCOD8318010 Si02
#       5
#    16   8  16  16  16
#     4   9  17  29  47  69  88 112 149 190 233 280
#     4  11  23  35  45  61  89 127 167 203 237 274
#     4  10  20  33  47  65  91 124 157 193 237 279
#     4  11  21  33  48  67  91 122 160 199 235 276
#     4   9  17  31  47  65  90 118 149 188 237 281
#
# _framework density 15.533199
#
# number of rings (size 3 to 8) (size 9 to 14) (size 15 to 20)
#    0.000    2.111    1.111    3.000    0.000    9.333 
#    0.000    0.000    0.000    0.000    0.000    0.000 
#    0.000    0.889    0.000    9.333    0.000    4.000 
#
# Total GULP energy -892914.960738 kJ/mol
# GULP energy per Si atom -12401.596677 kJ/mol
# Density = 1.549784 g / cm^3
# Si number density = 15.533199 Si / 1000 Ang^3
#
#
#
# Elastic Constant Matrix: (Units=GPa)
#
#
# Indices 1 2 3 4 5 6 
#
# 1 72.8194 57.2916 56.4916 0.0000 0.0000 0.0000
# 2 57.2916 72.8194 56.4916 0.0000 0.0000 0.0000
# 3 56.4916 56.4916 113.4744 0.0000 0.0000 0.0000
# 4 0.0000 0.0000 0.0000 28.3901 0.0000 0.0000
# 5 0.0000 0.0000 0.0000 0.0000 28.3901 0.0000
# 6 0.0000 0.0000 0.0000 0.0000 0.0000 20.4926
#
#
#
# Elastic Compliance Matrix: (Units=1/GPa)
#
#
# Indices 1 2 3 4 5 6 
#
# 1 0.038969 -0.025431 -0.006740 0.000000 0.000000 0.000000
# 2 -0.025431 0.038969 -0.006740 0.000000 0.000000 0.000000
# 3 -0.006740 -0.006740 0.015523 0.000000 0.000000 0.000000
# 4 0.000000 0.000000 0.000000 0.035224 0.000000 0.000000
# 5 0.000000 0.000000 0.000000 0.000000 0.035224 0.000000
# 6 0.000000 0.000000 0.000000 0.000000 0.000000 0.048798
#
#
# Mechanical properties :
#
#
# Convention : Reuss Voigt Hill
#
# Bulk Modulus (GPa) = 63.93662 66.62923 65.28292
# Shear Modulus (GPa) = 16.90659 21.37713 19.14186
#
# Velocity S-wave (km/s) = 3.30270 3.71377 3.51425
# Velocity P-wave (km/s) = 7.46956 7.83437 7.65414
#
# Compressibility (1/GPa) = 0.01564049
#
# Stress axis : x y z
#
# Youngs Moduli (GPa) = 25.66112 25.66112 64.41936
#
# Poissons Ratio (x) = 0.65259 0.43418
# Poissons Ratio (y) = 0.65259 0.43418
# Poissons Ratio (z) = 0.17295 0.17295
#
# Static dielectric constant tensor:
#      x y z
#    x -14.978130 0.000000 0.000000 
#    y 0.000000 -14.978130 0.000000 
#    z 0.000000 0.000000 3.198760 
# 
# 
# High freq. dielectric constant tensor:
#      x y z
#    x 1.574290 0.000000 0.000000 
#    y 0.000000 1.574290 0.000000 
#    z 0.000000 0.000000 1.615650 
# 
# From -- ./inp_files/1559.got.cif
#   From: 2010.03.12/outbox.cif.g09.slc.cpg/sg136_1_cif.got.tgz:1559.got - 2010.04.06 18:39:43.
