data_PCOD8318930
_publ_section_title
;
Structure prediction by ZEFSAII (Michael W. Deem and Ramdas Pophale) SiO2 
 PCOD8318930
Probable space group: P 42/N C M
;
_chemical_formula_sum "Si O2"
_cell_formula_units_Z 80
_cell_length_a 17.551204
_cell_length_b 17.551204
_cell_length_c 14.729822
_cell_angle_alpha 90.000000
_cell_angle_beta 90.000000
_cell_angle_gamma 90.000000
_cell_volume 4537.444510
_symmetry_space_group_name_H-M "P 42/N C M"
_symmetry_group_IT_number 138
_space_group.IT_coordinate_system_code '2'
_symmetry_cell_setting 'tetragonal'
loop_
_space_group_symop_operation_xyz
x,y,z
1/2-y,x,1/2+z
1/2-x,1/2-y,z
y,1/2-x,1/2+z
1/2+x,-y,1/2-z
-x,1/2+y,1/2-z
1/2+y,1/2+x,-z
-y,-x,-z
-x,-y,-z
1/2+y,-x,1/2-z
1/2+x,1/2+y,-z
-y,1/2+x,1/2-z
1/2-x,y,1/2+z
x,1/2-y,1/2+z
1/2-y,1/2-x,z
y,x,z
loop_
_atom_site_type_symbol
_atom_site_label
_atom_site_fract_x
_atom_site_fract_y
_atom_site_fract_z
Si Si1 0.709685 0.001277 0.358678
Si Si2 0.750747 0.873761 0.217004
Si Si3 0.631577 0.276644 0.752752
Si Si4 0.678416 0.940724 0.546107
Si Si5 0.886515 0.087828 0.097151
O O1 0.767199 0.067890 0.325980
O O2 0.623247 0.037228 0.355709
O O3 0.719397 0.927403 0.296559
O O4 0.726702 0.975211 0.461960
O O5 0.686439 0.813562 0.191935
O O6 0.828959 0.828959 0.245149
O O7 0.763750 0.925006 0.128151
O O8 0.696269 0.333193 0.715331
O O9 0.596665 0.311096 0.843337
O O10 0.637532 0.862469 0.515155
O O11 0.609894 0.997369 0.578326
O O12 0.871266 0.128735 0.000000
#
# Coordination Sequence:
#
# PCOD8318930 Si02
#       5
#    16  16  16  16  16
#     4  10  19  33  56  78 104 139 177 215 269 322
#     4  10  21  36  54  76 105 142 182 226 273 319
#     4   9  17  32  52  77 110 138 172 216 261 318
#     4  10  20  34  51  77 107 135 178 228 271 318
#     4   9  18  32  54  80 106 138 175 219 272 318
#
# _framework density 17.631069
#
# number of rings (size 3 to 8) (size 9 to 14) (size 15 to 20)
#    0.000    2.400    2.000    0.600    0.000    5.200 
#    0.000   19.000    0.000    0.000    0.000    5.600 
#    0.000    0.000    0.000    0.000    0.000    0.000 
#
# Total GULP energy -991085.110605 kJ/mol
# GULP energy per Si atom -12388.563883 kJ/mol
# Density = 1.759094 g / cm^3
# Si number density = 17.631069 Si / 1000 Ang^3
#
#
#
# Elastic Constant Matrix: (Units=GPa)
#
#
# Indices 1 2 3 4 5 6 
#
# 1 83.4245 31.4660 57.5621 0.0000 0.0000 0.0000
# 2 31.4660 83.4242 57.5621 0.0000 0.0000 0.0000
# 3 57.5621 57.5621 118.0145 0.0000 0.0000 0.0000
# 4 0.0000 0.0000 0.0000 29.3242 0.0000 0.0000
# 5 0.0000 0.0000 0.0000 0.0000 29.3242 0.0000
# 6 0.0000 0.0000 0.0000 0.0000 0.0000 21.6454
#
#
#
# Elastic Compliance Matrix: (Units=1/GPa)
#
#
# Indices 1 2 3 4 5 6 
#
# 1 0.018135 -0.001111 -0.008304 0.000000 0.000000 0.000000
# 2 -0.001111 0.018136 -0.008304 0.000000 0.000000 0.000000
# 3 -0.008304 -0.008304 0.016574 0.000000 0.000000 0.000000
# 4 0.000000 0.000000 0.000000 0.034102 0.000000 0.000000
# 5 0.000000 0.000000 0.000000 0.000000 0.034102 0.000000
# 6 0.000000 0.000000 0.000000 0.000000 0.000000 0.046199
#
#
# Mechanical properties :
#
#
# Convention : Reuss Voigt Hill
#
# Bulk Modulus (GPa) = 57.44495 64.22705 60.83600
# Shear Modulus (GPa) = 23.98230 25.27694 24.62962
#
# Velocity S-wave (km/s) = 3.69213 3.79048 3.74163
# Velocity P-wave (km/s) = 7.12939 7.46086 7.29700
#
# Compressibility (1/GPa) = 0.01740797
#
# Stress axis : x y z
#
# Youngs Moduli (GPa) = 55.14072 55.14037 60.33527
#
# Poissons Ratio (x) = 0.06125 0.50102
# Poissons Ratio (y) = 0.06125 0.50102
# Poissons Ratio (z) = 0.45788 0.45788
#
# Static dielectric constant tensor:
#      x y z
#    x 3.316880 0.000000 0.000000 
#    y 0.000000 3.316870 0.000000 
#    z 0.000000 0.000000 3.264610 
# 
# 
# High freq. dielectric constant tensor:
#      x y z
#    x 1.676200 0.000000 0.000000 
#    y 0.000000 1.676200 0.000000 
#    z 0.000000 0.000000 1.676630 
# 
# From -- ./inp_files/4060.got.cif
#   From: 2010.03.12/outbox.cif.g09.slc.cpg/sg138_3_cif.got.tgz:4060.got - 2010.04.08 09:41:05.
