data_PCOD8318604
_publ_section_title
;
Structure prediction by ZEFSAII (Michael W. Deem and Ramdas Pophale) SiO2 
 PCOD8318604
Probable space group: P 42/N M C
;
_chemical_formula_sum "Si O2"
_cell_formula_units_Z 48
_cell_length_a 12.379996
_cell_length_b 12.379996
_cell_length_c 13.954936
_cell_angle_alpha 90.000000
_cell_angle_beta 90.000000
_cell_angle_gamma 90.000000
_cell_volume 2138.793511
_symmetry_space_group_name_H-M "P 42/N M C"
_symmetry_group_IT_number 137
_space_group.IT_coordinate_system_code '2'
_symmetry_cell_setting 'tetragonal'
loop_
_space_group_symop_operation_xyz
x,y,z
1/2-y,x,1/2+z
1/2-x,1/2-y,z
y,1/2-x,1/2+z
1/2+x,-y,-z
-x,1/2+y,-z
1/2+y,1/2+x,1/2-z
-y,-x,1/2-z
-x,-y,-z
1/2+y,-x,1/2-z
1/2+x,1/2+y,-z
-y,1/2+x,1/2-z
1/2-x,y,z
x,1/2-y,z
1/2-y,1/2-x,1/2+z
y,x,1/2+z
loop_
_atom_site_type_symbol
_atom_site_label
_atom_site_fract_x
_atom_site_fract_y
_atom_site_fract_z
Si Si1 0.054356 0.079358 0.395285
Si Si2 0.373056 0.250000 0.034961
Si Si3 0.627589 0.124774 0.963485
Si Si4 0.750000 0.878630 0.253271
O O1 0.141465 0.103850 0.477729
O O2 0.076423 0.142169 0.297843
O O3 0.936962 0.113086 0.435151
O O4 0.067937 0.949124 0.382787
O O5 0.250000 0.250000 0.063541
O O6 0.428579 0.250000 0.140314
O O7 0.750000 0.116804 0.925921
O O8 0.593386 0.250000 0.980777
O O9 0.750000 0.750000 0.242791
#
# Coordination Sequence:
#
# PCOD8318604 Si02
#       4
#    16   8  16   8
#     4  11  19  38  60  83 126 155 198 249 292 347
#     4  11  20  34  61  93 119 152 199 250 301 347
#     4  10  20  34  62  87 117 171 197 230 302 352
#     4  11  20  34  61  93 119 152 199 250 301 347
#
# _framework density 22.442557999999998
#
# number of rings (size 3 to 8) (size 9 to 14) (size 15 to 20)
#    0.000    1.333    6.667    0.000    0.000    0.000 
#    0.000    6.667    0.000    8.000    0.000   14.000 
#    0.000    0.000    0.000    0.000    0.000    0.000 
#
# Total GULP energy -594889.628187 kJ/mol
# GULP energy per Si atom -12393.533921 kJ/mol
# Density = 2.239148 g / cm^3
# Si number density = 22.442558 Si / 1000 Ang^3
#
#
#
# Elastic Constant Matrix: (Units=GPa)
#
#
# Indices 1 2 3 4 5 6 
#
# 1 90.8793 17.9221 8.1724 0.0000 0.0000 0.0000
# 2 17.9221 90.8793 8.1724 0.0000 0.0000 0.0000
# 3 8.1724 8.1724 102.8839 0.0000 0.0000 0.0000
# 4 0.0000 0.0000 0.0000 20.5773 0.0000 0.0000
# 5 0.0000 0.0000 0.0000 0.0000 20.5773 0.0000
# 6 0.0000 0.0000 0.0000 0.0000 0.0000 28.4092
#
#
#
# Elastic Compliance Matrix: (Units=1/GPa)
#
#
# Indices 1 2 3 4 5 6 
#
# 1 0.011504 -0.002202 -0.000739 0.000000 0.000000 0.000000
# 2 -0.002202 0.011504 -0.000739 0.000000 0.000000 0.000000
# 3 -0.000739 -0.000739 0.009837 0.000000 0.000000 0.000000
# 4 0.000000 0.000000 0.000000 0.048597 0.000000 0.000000
# 5 0.000000 0.000000 0.000000 0.000000 0.048597 0.000000
# 6 0.000000 0.000000 0.000000 0.000000 0.000000 0.035200
#
#
# Mechanical properties :
#
#
# Convention : Reuss Voigt Hill
#
# Bulk Modulus (GPa) = 39.23780 39.24181 39.23980
# Shear Modulus (GPa) = 27.60972 30.60447 29.10710
#
# Velocity S-wave (km/s) = 3.51128 3.69681 3.60524
# Velocity P-wave (km/s) = 5.82756 5.97874 5.90363
#
# Compressibility (1/GPa) = 0.02548563
#
# Stress axis : x y z
#
# Youngs Moduli (GPa) = 86.92358 86.92358 101.65619
#
# Poissons Ratio (x) = 0.19143 0.07511
# Poissons Ratio (y) = 0.19143 0.07511
# Poissons Ratio (z) = 0.06423 0.06423
#
# Static dielectric constant tensor:
#      x y z
#    x 4.604780 0.000000 0.000000 
#    y 0.000000 4.604780 0.000000 
#    z 0.000000 0.000000 3.545300 
# 
# 
# High freq. dielectric constant tensor:
#      x y z
#    x 1.904480 0.000000 0.000000 
#    y 0.000000 1.904480 0.000000 
#    z 0.000000 0.000000 1.836050 
# 
# From -- ./inp_files/4450.got.cif
#   From: 2010.03.12/outbox.cif.g09.slc.cpg/sg137_3_cif.got.tgz:4450.got - 2010.04.08 09:34:49.
