data_PCOD8318212
_publ_section_title
;
Structure prediction by ZEFSAII (Michael W. Deem and Ramdas Pophale) SiO2 
 PCOD8318212
Probable space group: P 42/M N M
;
_chemical_formula_sum "Si O2"
_cell_formula_units_Z 96
_cell_length_a 23.550441
_cell_length_b 23.550441
_cell_length_c 8.942749
_cell_angle_alpha 90.000000
_cell_angle_beta 90.000000
_cell_angle_gamma 90.000000
_cell_volume 4959.856705
_symmetry_space_group_name_H-M "P 42/M N M"
_symmetry_group_IT_number 136
_symmetry_cell_setting 'tetragonal'
loop_
_space_group_symop_operation_xyz
x,y,z
1/2-y,1/2+x,1/2+z
-x,-y,z
1/2+y,1/2-x,1/2+z
1/2+x,1/2-y,1/2-z
1/2-x,1/2+y,1/2-z
y,x,-z
-y,-x,-z
-x,-y,-z
1/2+y,1/2-x,1/2-z
x,y,-z
1/2-y,1/2+x,1/2-z
1/2-x,1/2+y,1/2+z
1/2+x,1/2-y,1/2+z
-y,-x,z
y,x,z
loop_
_atom_site_type_symbol
_atom_site_label
_atom_site_fract_x
_atom_site_fract_y
_atom_site_fract_z
Si Si1 0.572624 0.797298 0.671459
Si Si2 0.578446 0.030848 0.821758
Si Si3 0.231950 0.139449 0.326641
Si Si4 0.907423 0.999546 0.327700
Si Si5 0.294077 0.523500 0.671978
Si Si6 0.278495 0.812559 0.323956
O O1 0.592168 0.797188 0.500000
O O2 0.555971 0.860567 0.722585
O O3 0.519576 0.756895 0.698456
O O4 0.623416 0.771948 0.769133
O O5 0.531038 0.072658 0.753664
O O6 0.570890 0.025194 0.000000
O O7 0.247037 0.139105 0.500000
O O8 0.177088 0.177088 0.290103
O O9 0.218573 0.076799 0.274497
O O10 0.286643 0.163544 0.241291
O O11 0.887936 0.998030 0.500000
O O12 0.942653 0.942653 0.289931
O O13 0.853194 0.004602 0.221478
O O14 0.945571 0.054430 0.295993
O O15 0.298382 0.542212 0.500000
O O16 0.283115 0.811699 0.500000
O O17 0.224275 0.775726 0.268787
#
# Coordination Sequence:
#
# PCOD8318212 Si02
#       6
#    16  16  16  16  16  16
#     4  10  24  41  57  84 120 157 193 234 288 347
#     4  10  21  39  61  86 114 148 191 238 291 347
#     4  10  21  38  61  87 116 152 192 236 289 345
#     4   9  19  37  59  82 112 152 196 242 293 350
#     4  11  23  37  55  85 121 153 191 241 289 338
#     4  10  22  40  62  87 114 148 193 241 286 337
#
# _framework density 19.355398999999998
#
# number of rings (size 3 to 8) (size 9 to 14) (size 15 to 20)
#    0.000    2.000    0.000    3.500    2.333    8.000 
#    0.000    4.167    0.000    0.000    0.000    0.000 
#    0.000    0.000    0.000    0.000    0.000    0.000 
#
# Total GULP energy -1190838.473919 kJ/mol
# GULP energy per Si atom -12404.567437 kJ/mol
# Density = 1.931135 g / cm^3
# Si number density = 19.355399 Si / 1000 Ang^3
#
#
#
# Elastic Constant Matrix: (Units=GPa)
#
#
# Indices 1 2 3 4 5 6 
#
# 1 63.5112 67.6265 41.5274 0.0000 0.0000 0.0000
# 2 67.6265 63.5112 41.5274 0.0000 0.0000 0.0000
# 3 41.5274 41.5274 71.8239 0.0000 0.0000 0.0000
# 4 0.0000 0.0000 0.0000 32.6631 0.0000 0.0000
# 5 0.0000 0.0000 0.0000 0.0000 32.6631 0.0000
# 6 0.0000 0.0000 0.0000 0.0000 0.0000 18.7902
#
#
#
# Elastic Compliance Matrix: (Units=1/GPa)
#
#
# Indices 1 2 3 4 5 6 
#
# 1 -0.115482 0.127514 -0.006956 0.000000 0.000000 0.000000
# 2 0.127514 -0.115482 -0.006956 0.000000 0.000000 0.000000
# 3 -0.006956 -0.006956 0.021967 0.000000 0.000000 0.000000
# 4 0.000000 0.000000 0.000000 0.030616 0.000000 0.000000
# 5 0.000000 0.000000 0.000000 0.000000 0.030616 0.000000
# 6 0.000000 0.000000 0.000000 0.000000 0.000000 0.053219
#
#
# Mechanical properties :
#
#
# Convention : Reuss Voigt Hill
#
# Bulk Modulus (GPa) = 54.93190 55.57880 55.25535
# Shear Modulus (GPa) = -15.83875 20.03428 2.09777
#
# Velocity S-wave (km/s) = -2.86372 3.22075 1.04219
# Velocity P-wave (km/s) = 4.18423 6.52749 5.48251
#
# Compressibility (1/GPa) = 0.01820436
#
# Stress axis : x y z
#
# Youngs Moduli (GPa) = -8.65933 -8.65933 45.52292
#
# Poissons Ratio (x) = 1.10418 0.31667
# Poissons Ratio (y) = 1.10418 0.31667
# Poissons Ratio (z) = -0.06024 -0.06024
#
# Static dielectric constant tensor:
#      x y z
#    x 3.597600 0.000000 0.000000 
#    y 0.000000 3.597600 0.000000 
#    z 0.000000 0.000000 3.572650 
# 
# 
# High freq. dielectric constant tensor:
#      x y z
#    x 1.757140 0.000000 0.000000 
#    y 0.000000 1.757140 0.000000 
#    z 0.000000 0.000000 1.760270 
# 
# From -- ./inp_files/1991.got.cif
#   From: 2010.03.12/outbox.cif.g09.slc.cpg/sg136_1_cif.got.tgz:1991.got - 2010.04.06 18:39:43.
