data_PCOD8318328
_publ_section_title
;
Structure prediction by ZEFSAII (Michael W. Deem and Ramdas Pophale) SiO2 
 PCOD8318328
Probable space group: P 42/M N M
;
_chemical_formula_sum "Si O2"
_cell_formula_units_Z 72
_cell_length_a 23.118418
_cell_length_b 23.118418
_cell_length_c 9.695627
_cell_angle_alpha 90.000000
_cell_angle_beta 90.000000
_cell_angle_gamma 90.000000
_cell_volume 5181.936934
_symmetry_space_group_name_H-M "P 42/M N M"
_symmetry_group_IT_number 136
_symmetry_cell_setting 'tetragonal'
loop_
_space_group_symop_operation_xyz
x,y,z
1/2-y,1/2+x,1/2+z
-x,-y,z
1/2+y,1/2-x,1/2+z
1/2+x,1/2-y,1/2-z
1/2-x,1/2+y,1/2-z
y,x,-z
-y,-x,-z
-x,-y,-z
1/2+y,1/2-x,1/2-z
x,y,-z
1/2-y,1/2+x,1/2-z
1/2-x,1/2+y,1/2+z
1/2+x,1/2-y,1/2+z
-y,-x,z
y,x,z
loop_
_atom_site_type_symbol
_atom_site_label
_atom_site_fract_x
_atom_site_fract_y
_atom_site_fract_z
Si Si1 0.888506 0.792903 0.339329
Si Si2 0.868440 0.222802 0.336143
Si Si3 0.046039 0.953962 0.335473
Si Si4 0.172351 0.985783 0.663937
Si Si5 0.684929 0.217693 0.654006
O O1 0.889127 0.776819 0.500000
O O2 0.849026 0.849026 0.311483
O O3 0.865426 0.736800 0.257984
O O4 0.952395 0.806043 0.280444
O O5 0.865852 0.218545 0.500000
O O6 0.829838 0.170163 0.274813
O O7 0.934799 0.215812 0.285557
O O8 0.842034 0.285235 0.291886
O O9 0.047014 0.952987 0.500000
O O10 0.028068 0.891298 0.277471
O O11 0.000000 0.000000 0.279145
O O12 0.169374 0.988814 0.500000
O O13 0.658921 0.209887 0.500000
O O14 0.734792 0.265209 0.650138
#
# Coordination Sequence:
#
# PCOD8318328 Si02
#       5
#    16  16   8  16  16
#     4   9  16  24  34  52  77 100 119 142 178 220
#     4   8  12  20  34  51  68  89 121 157 184 205
#     4   9  14  18  26  44  73 105 127 145 175 210
#     4   9  14  20  31  49  74  99 122 149 179 210
#     4   8  14  24  38  52  66  89 123 155 181 210
#
# _framework density 13.894418999999999
#
# number of rings (size 3 to 8) (size 9 to 14) (size 15 to 20)
#    0.000    3.444    1.111    2.000    0.000    2.667 
#    0.000    0.000    0.000    1.333    0.000    0.778 
#    0.000    5.333    0.000   11.111    0.000    0.000 
#
# Total GULP energy -892119.992262 kJ/mol
# GULP energy per Si atom -12390.555448 kJ/mol
# Density = 1.386279 g / cm^3
# Si number density = 13.894419 Si / 1000 Ang^3
#
#
#
# Elastic Constant Matrix: (Units=GPa)
#
#
# Indices 1 2 3 4 5 6 
#
# 1 92.9519 73.6208 25.7790 0.0000 0.0000 0.0000
# 2 73.6208 92.9518 25.7790 0.0000 0.0000 0.0000
# 3 25.7790 25.7790 23.4162 0.0000 0.0000 0.0000
# 4 0.0000 0.0000 0.0000 12.3736 0.0000 0.0000
# 5 0.0000 0.0000 0.0000 0.0000 12.3736 0.0000
# 6 0.0000 0.0000 0.0000 0.0000 0.0000 27.3756
#
#
#
# Elastic Compliance Matrix: (Units=1/GPa)
#
#
# Indices 1 2 3 4 5 6 
#
# 1 0.030418 -0.021312 -0.010025 0.000000 0.000000 0.000000
# 2 -0.021312 0.030418 -0.010025 0.000000 0.000000 0.000000
# 3 -0.010025 -0.010025 0.064780 0.000000 0.000000 0.000000
# 4 0.000000 0.000000 0.000000 0.080817 0.000000 0.000000
# 5 0.000000 0.000000 0.000000 0.000000 0.080817 0.000000
# 6 0.000000 0.000000 0.000000 0.000000 0.000000 0.036529
#
#
# Mechanical properties :
#
#
# Convention : Reuss Voigt Hill
#
# Bulk Modulus (GPa) = 23.31491 51.07527 37.19509
# Shear Modulus (GPa) = 11.88209 16.03397 13.95803
#
# Velocity S-wave (km/s) = 2.92750 3.40072 3.17295
# Velocity P-wave (km/s) = 5.31446 7.22906 6.34440
#
# Compressibility (1/GPa) = 0.04289101
#
# Stress axis : x y z
#
# Youngs Moduli (GPa) = 32.87499 32.87495 15.43697
#
# Poissons Ratio (x) = 0.70062 0.15476
# Poissons Ratio (y) = 0.70063 0.15476
# Poissons Ratio (z) = 0.32958 0.32958
#
# Static dielectric constant tensor:
#      x y z
#    x 2.884880 0.000000 0.000000 
#    y 0.000000 2.884870 0.000000 
#    z 0.000000 0.000000 2.360240 
# 
# 
# High freq. dielectric constant tensor:
#      x y z
#    x 1.515960 0.000000 0.000000 
#    y 0.000000 1.515960 0.000000 
#    z 0.000000 0.000000 1.478580 
# 
# From -- ./inp_files/1712.got.cif
#   From: 2010.03.12/outbox.cif.g09.slc.cpg/sg136_1_cif.got.tgz:1712.got - 2010.04.06 18:39:43.
