data_PCOD8318170
_publ_section_title
;
Structure prediction by ZEFSAII (Michael W. Deem and Ramdas Pophale) SiO2 
 PCOD8318170
Probable space group: P 42/M N M
;
_chemical_formula_sum "Si O2"
_cell_formula_units_Z 64
_cell_length_a 19.142221
_cell_length_b 19.142221
_cell_length_c 9.304387
_cell_angle_alpha 90.000000
_cell_angle_beta 90.000000
_cell_angle_gamma 90.000000
_cell_volume 3409.356516
_symmetry_space_group_name_H-M "P 42/M N M"
_symmetry_group_IT_number 136
_symmetry_cell_setting 'tetragonal'
loop_
_space_group_symop_operation_xyz
x,y,z
1/2-y,1/2+x,1/2+z
-x,-y,z
1/2+y,1/2-x,1/2+z
1/2+x,1/2-y,1/2-z
1/2-x,1/2+y,1/2-z
y,x,-z
-y,-x,-z
-x,-y,-z
1/2+y,1/2-x,1/2-z
x,y,-z
1/2-y,1/2+x,1/2-z
1/2-x,1/2+y,1/2+z
1/2+x,1/2-y,1/2+z
-y,-x,z
y,x,z
loop_
_atom_site_type_symbol
_atom_site_label
_atom_site_fract_x
_atom_site_fract_y
_atom_site_fract_z
Si Si1 0.689943 0.029076 0.168452
Si Si2 0.045318 0.845591 0.829135
Si Si3 0.370697 0.846599 0.668866
Si Si4 0.101195 0.101195 0.171825
Si Si5 0.212100 0.212100 0.829381
O O1 0.766381 0.051810 0.222684
O O2 0.637092 0.079446 0.251959
O O3 0.679882 0.948115 0.207834
O O4 0.679321 0.041356 0.000000
O O5 0.111502 0.888499 0.768950
O O6 0.974800 0.879658 0.767309
O O7 0.042267 0.848491 0.000000
O O8 0.362986 0.858974 0.500000
O O9 0.312586 0.789479 0.722349
O O10 0.156705 0.156705 0.232791
O O11 0.102301 0.102301 0.000000
O O12 0.209432 0.209432 0.000000
#
# Coordination Sequence:
#
# PCOD8318170 Si02
#       5
#    16  16  16   8   8
#     4  10  21  36  54  78 106 137 174 219 263 303
#     4   9  16  26  44  75 110 136 163 207 261 311
#     4  10  21  37  56  77 105 139 175 214 258 310
#     4   9  13  24  47  73 103 137 168 202 252 314
#     4   9  16  31  53  74 101 137 171 204 250 309
#
# _framework density 18.771871000000001
#
# number of rings (size 3 to 8) (size 9 to 14) (size 15 to 20)
#    0.000    2.500    2.500    0.375    1.750    3.000 
#    0.000    2.500    0.000    0.000    0.000    0.875 
#    0.000    2.000    0.000    0.000    0.000    0.000 
#
# Total GULP energy -793344.089454 kJ/mol
# GULP energy per Si atom -12396.001398 kJ/mol
# Density = 1.872915 g / cm^3
# Si number density = 18.771871 Si / 1000 Ang^3
#
#
#
# Elastic Constant Matrix: (Units=GPa)
#
#
# Indices 1 2 3 4 5 6 
#
# 1 99.0984 62.6479 32.0142 0.0000 0.0000 0.0000
# 2 62.6479 99.0984 32.0142 0.0000 0.0000 0.0000
# 3 32.0142 32.0142 21.4743 0.0000 0.0000 0.0000
# 4 0.0000 0.0000 0.0000 20.8303 0.0000 0.0000
# 5 0.0000 0.0000 0.0000 0.0000 20.8303 0.0000
# 6 0.0000 0.0000 0.0000 0.0000 0.0000 39.7070
#
#
#
# Elastic Compliance Matrix: (Units=1/GPa)
#
#
# Indices 1 2 3 4 5 6 
#
# 1 0.021260 -0.006175 -0.022489 0.000000 0.000000 0.000000
# 2 -0.006175 0.021260 -0.022489 0.000000 0.000000 0.000000
# 3 -0.022489 -0.022489 0.113620 0.000000 0.000000 0.000000
# 4 0.000000 0.000000 0.000000 0.048007 0.000000 0.000000
# 5 0.000000 0.000000 0.000000 0.000000 0.048007 0.000000
# 6 0.000000 0.000000 0.000000 0.000000 0.000000 0.025184
#
#
# Mechanical properties :
#
#
# Convention : Reuss Voigt Hill
#
# Bulk Modulus (GPa) = 18.57519 52.55820 35.56670
# Shear Modulus (GPa) = 12.57585 22.47318 17.52451
#
# Velocity S-wave (km/s) = 2.59111 3.46377 3.05872
# Velocity P-wave (km/s) = 4.34379 6.63748 5.60913
#
# Compressibility (1/GPa) = 0.05383524
#
# Stress axis : x y z
#
# Youngs Moduli (GPa) = 47.03745 47.03745 8.80124
#
# Poissons Ratio (x) = 0.29045 0.19793
# Poissons Ratio (y) = 0.29045 0.19793
# Poissons Ratio (z) = 1.05781 1.05781
#
# Static dielectric constant tensor:
#      x y z
#    x 3.594440 0.000000 0.000000 
#    y 0.000000 3.594440 0.000000 
#    z 0.000000 0.000000 2.782770 
# 
# 
# High freq. dielectric constant tensor:
#      x y z
#    x 1.740650 0.000000 0.000000 
#    y 0.000000 1.740650 0.000000 
#    z 0.000000 0.000000 1.660440 
# 
# From -- ./inp_files/1469.got.cif
#   From: 2010.03.12/outbox.cif.g09.slc.cpg/sg136_1_cif.got.tgz:1469.got - 2010.04.06 18:39:43.
