data_PCOD8318794
_publ_section_title
;
Structure prediction by ZEFSAII (Michael W. Deem and Ramdas Pophale) SiO2 
 PCOD8318794
Probable space group: P 42/N M C
;
_chemical_formula_sum "Si O2"
_cell_formula_units_Z 112
_cell_length_a 15.407534
_cell_length_b 15.407534
_cell_length_c 28.634043
_cell_angle_alpha 90.000000
_cell_angle_beta 90.000000
_cell_angle_gamma 90.000000
_cell_volume 6797.495713
_symmetry_space_group_name_H-M "P 42/N M C"
_symmetry_group_IT_number 137
_space_group.IT_coordinate_system_code '2'
_symmetry_cell_setting 'tetragonal'
loop_
_space_group_symop_operation_xyz
x,y,z
1/2-y,x,1/2+z
1/2-x,1/2-y,z
y,1/2-x,1/2+z
1/2+x,-y,-z
-x,1/2+y,-z
1/2+y,1/2+x,1/2-z
-y,-x,1/2-z
-x,-y,-z
1/2+y,-x,1/2-z
1/2+x,1/2+y,-z
-y,1/2+x,1/2-z
1/2-x,y,z
x,1/2-y,z
1/2-y,1/2-x,1/2+z
y,x,1/2+z
loop_
_atom_site_type_symbol
_atom_site_label
_atom_site_fract_x
_atom_site_fract_y
_atom_site_fract_z
Si Si1 0.655084 0.529037 0.467477
Si Si2 0.492344 0.150779 0.785758
Si Si3 0.646791 0.654052 0.649871
Si Si4 0.081365 0.846317 0.503789
Si Si5 0.849008 0.974572 0.915948
Si Si6 0.453549 0.848880 0.314458
Si Si7 0.105797 0.152256 0.453228
O O1 0.750000 0.531847 0.444816
O O2 0.636836 0.427473 0.478120
O O3 0.592272 0.575898 0.430593
O O4 0.656722 0.583419 0.515326
O O5 0.484918 0.250000 0.798165
O O6 0.411027 0.105407 0.811660
O O7 0.483764 0.134176 0.730198
O O8 0.584103 0.124360 0.808412
O O9 0.750000 0.656393 0.650776
O O10 0.609533 0.750000 0.660416
O O11 0.614803 0.620767 0.599694
O O12 0.125687 0.750000 0.510851
O O13 0.059701 0.858364 0.448622
O O14 0.994057 0.848649 0.533274
O O15 0.750000 0.937277 0.922351
O O16 0.866660 0.995759 0.862125
O O17 0.417434 0.750000 0.313304
O O18 0.144315 0.250000 0.459364
#
# Coordination Sequence:
#
# PCOD8318794 Si02
#       7
#    16  16  16  16  16  16  16
#     4  11  21  30  46  70  94 124 155 191 235 278
#     4   9  18  30  47  70  95 125 159 193 235 281
#     4   9  17  28  44  69  96 119 148 192 240 281
#     4   9  19  33  47  66  90 124 160 190 229 277
#     4   9  18  33  51  67  90 122 159 197 231 274
#     4   9  18  32  48  68  94 127 161 194 231 275
#     4   9  17  30  48  68  90 118 154 193 233 277
#
# _framework density 16.476656999999999
#
# number of rings (size 3 to 8) (size 9 to 14) (size 15 to 20)
#    0.000    2.714    0.000    3.429    4.000    2.286 
#    0.000    2.143    0.000    5.143    0.000    0.000 
#    0.000    0.000    0.000    0.000    0.000    0.000 
#
# Total GULP energy -1387610.124481 kJ/mol
# GULP energy per Si atom -12389.376111 kJ/mol
# Density = 1.643915 g / cm^3
# Si number density = 16.476657 Si / 1000 Ang^3
#
#
#
# Elastic Constant Matrix: (Units=GPa)
#
#
# Indices 1 2 3 4 5 6 
#
# 1 67.8149 22.1515 35.5428 0.0000 0.0000 0.0000
# 2 22.1515 67.8149 35.5428 0.0000 0.0000 0.0000
# 3 35.5428 35.5428 109.8122 0.0000 0.0000 0.0000
# 4 0.0000 0.0000 0.0000 12.7852 0.0000 0.0000
# 5 0.0000 0.0000 0.0000 0.0000 12.7852 0.0000
# 6 0.0000 0.0000 0.0000 0.0000 0.0000 10.5527
#
#
#
# Elastic Compliance Matrix: (Units=1/GPa)
#
#
# Indices 1 2 3 4 5 6 
#
# 1 0.018417 -0.003482 -0.004834 0.000000 0.000000 0.000000
# 2 -0.003482 0.018417 -0.004834 0.000000 0.000000 0.000000
# 3 -0.004834 -0.004834 0.012236 0.000000 0.000000 0.000000
# 4 0.000000 0.000000 0.000000 0.078215 0.000000 0.000000
# 5 0.000000 0.000000 0.000000 0.000000 0.078215 0.000000
# 6 0.000000 0.000000 0.000000 0.000000 0.000000 0.094762
#
#
# Mechanical properties :
#
#
# Convention : Reuss Voigt Hill
#
# Bulk Modulus (GPa) = 43.91856 47.99068 45.95462
# Shear Modulus (GPa) = 14.96322 17.37163 16.16742
#
# Velocity S-wave (km/s) = 3.01682 3.25055 3.13586
# Velocity P-wave (km/s) = 6.23280 6.57859 6.40803
#
# Compressibility (1/GPa) = 0.02276942
#
# Stress axis : x y z
#
# Youngs Moduli (GPa) = 54.29757 54.29757 81.72860
#
# Poissons Ratio (x) = 0.18908 0.39507
# Poissons Ratio (y) = 0.18908 0.39507
# Poissons Ratio (z) = 0.26247 0.26247
#
# Static dielectric constant tensor:
#      x y z
#    x 3.144140 0.000000 0.000000 
#    y 0.000000 3.144140 0.000000 
#    z 0.000000 0.000000 3.174030 
# 
# 
# High freq. dielectric constant tensor:
#      x y z
#    x 1.620590 0.000000 0.000000 
#    y 0.000000 1.620590 0.000000 
#    z 0.000000 0.000000 1.631330 
# 
# From -- ./inp_files/9791.got.cif
#   From: 2010.03.12/outbox.cif.g09.slc.cpg/sg137_5_cif.got.tgz:9791.got - 2010.04.08 09:34:49.
