data_PCOD8318621
_publ_section_title
;
Structure prediction by ZEFSAII (Michael W. Deem and Ramdas Pophale) SiO2 
 PCOD8318621
Probable space group: P 42/N M C
;
_chemical_formula_sum "Si O2"
_cell_formula_units_Z 112
_cell_length_a 14.262794
_cell_length_b 14.262794
_cell_length_c 26.271496
_cell_angle_alpha 90.000000
_cell_angle_beta 90.000000
_cell_angle_gamma 90.000000
_cell_volume 5344.339306
_symmetry_space_group_name_H-M "P 42/N M C"
_symmetry_group_IT_number 137
_space_group.IT_coordinate_system_code '2'
_symmetry_cell_setting 'tetragonal'
loop_
_space_group_symop_operation_xyz
x,y,z
1/2-y,x,1/2+z
1/2-x,1/2-y,z
y,1/2-x,1/2+z
1/2+x,-y,-z
-x,1/2+y,-z
1/2+y,1/2+x,1/2-z
-y,-x,1/2-z
-x,-y,-z
1/2+y,-x,1/2-z
1/2+x,1/2+y,-z
-y,1/2+x,1/2-z
1/2-x,y,z
x,1/2-y,z
1/2-y,1/2-x,1/2+z
y,x,1/2+z
loop_
_atom_site_type_symbol
_atom_site_label
_atom_site_fract_x
_atom_site_fract_y
_atom_site_fract_z
Si Si1 0.544453 0.464872 0.195713
Si Si2 0.958375 0.361591 0.498056
Si Si3 0.852681 0.139645 0.594737
Si Si4 0.359457 0.144060 0.841410
Si Si5 0.138238 0.351378 0.957008
Si Si6 0.360277 0.857545 0.605135
Si Si7 0.141636 0.556160 0.201486
O O1 0.578568 0.421433 0.250000
O O2 0.582085 0.571616 0.192288
O O3 0.578126 0.401148 0.149680
O O4 0.430366 0.468510 0.199737
O O5 0.958961 0.250000 0.501539
O O6 0.916955 0.405577 0.550068
O O7 0.898081 0.392732 0.449143
O O8 0.064757 0.400778 0.492387
O O9 0.750000 0.095079 0.588097
O O10 0.848467 0.250000 0.586035
O O11 0.886897 0.116166 0.650756
O O12 0.250000 0.118907 0.837693
O O13 0.377860 0.250000 0.821713
O O14 0.396176 0.133292 0.899249
O O15 0.250000 0.353276 0.955991
O O16 0.103565 0.250000 0.977860
O O17 0.250000 0.868857 0.604988
O O18 0.390920 0.750000 0.615265
O O19 0.123046 0.623046 0.250000
O O20 0.250000 0.521960 0.201346
#
# Coordination Sequence:
#
# PCOD8318621 Si02
#       7
#    16  16  16  16  16  16  16
#     4  11  23  36  55  81 112 147 192 245 295 353
#     4   9  15  27  51  82 118 153 191 237 288 347
#     4   9  17  30  52  83 114 148 190 235 289 352
#     4   9  17  32  55  81 109 141 182 236 296 352
#     4   8  13  23  45  76 109 146 186 229 280 339
#     4  10  20  35  57  85 119 159 195 231 287 353
#     4  10  22  40  61  83 110 148 194 251 308 352
#
# _framework density 20.956752000000002
#
# number of rings (size 3 to 8) (size 9 to 14) (size 15 to 20)
#    0.000    2.571    1.429    2.143    0.000    6.429 
#    0.000    1.429    0.000    1.286    0.000    2.000 
#    0.000    0.000    0.000    0.000    0.000    0.000 
#
# Total GULP energy -1388243.340354 kJ/mol
# GULP energy per Si atom -12395.029825 kJ/mol
# Density = 2.090905 g / cm^3
# Si number density = 20.956752 Si / 1000 Ang^3
#
#
#
# Elastic Constant Matrix: (Units=GPa)
#
#
# Indices 1 2 3 4 5 6 
#
# 1 71.3888 27.3433 52.7685 0.0000 0.0000 0.0000
# 2 27.3433 71.3890 52.7685 0.0000 0.0000 0.0000
# 3 52.7685 52.7685 175.7900 0.0000 0.0000 0.0000
# 4 0.0000 0.0000 0.0000 19.7273 0.0000 0.0000
# 5 0.0000 0.0000 0.0000 0.0000 19.7272 0.0000
# 6 0.0000 0.0000 0.0000 0.0000 0.0000 16.6698
#
#
#
# Elastic Compliance Matrix: (Units=1/GPa)
#
#
# Indices 1 2 3 4 5 6 
#
# 1 0.018809 -0.003895 -0.004477 0.000000 0.000000 0.000000
# 2 -0.003895 0.018809 -0.004477 0.000000 0.000000 0.000000
# 3 -0.004477 -0.004477 0.008376 0.000000 0.000000 0.000000
# 4 0.000000 0.000000 0.000000 0.050691 0.000000 0.000000
# 5 0.000000 0.000000 0.000000 0.000000 0.050691 0.000000
# 6 0.000000 0.000000 0.000000 0.000000 0.000000 0.059989
#
#
# Mechanical properties :
#
#
# Convention : Reuss Voigt Hill
#
# Bulk Modulus (GPa) = 49.26933 64.92539 57.09736
# Shear Modulus (GPa) = 20.84830 23.60403 22.22616
#
# Velocity S-wave (km/s) = 3.15751 3.35971 3.26018
# Velocity P-wave (km/s) = 6.07076 6.78956 6.44020
#
# Compressibility (1/GPa) = 0.02029660
#
# Stress axis : x y z
#
# Youngs Moduli (GPa) = 53.16672 53.16684 119.38460
#
# Poissons Ratio (x) = 0.20708 0.53446
# Poissons Ratio (y) = 0.20708 0.53446
# Poissons Ratio (z) = 0.23802 0.23802
#
# Static dielectric constant tensor:
#      x y z
#    x 3.765840 0.000000 0.000000 
#    y 0.000000 3.765840 0.000000 
#    z 0.000000 0.000000 3.881160 
# 
# 
# High freq. dielectric constant tensor:
#      x y z
#    x 1.811420 0.000000 0.000000 
#    y 0.000000 1.811420 0.000000 
#    z 0.000000 0.000000 1.818210 
# 
# From -- ./inp_files/8996.got.cif
#   From: 2010.03.12/outbox.cif.g09.slc.cpg/sg137_5_cif.got.tgz:8996.got - 2010.04.08 09:34:49.
