data_PCOD8318304
_publ_section_title
;
Structure prediction by ZEFSAII (Michael W. Deem and Ramdas Pophale) SiO2 
 PCOD8318304
Probable space group: P 42/M N M
;
_chemical_formula_sum "Si O2"
_cell_formula_units_Z 80
_cell_length_a 12.603526
_cell_length_b 12.603526
_cell_length_c 23.880154
_cell_angle_alpha 90.000000
_cell_angle_beta 90.000000
_cell_angle_gamma 90.000000
_cell_volume 3793.335422
_symmetry_space_group_name_H-M "P 42/M N M"
_symmetry_group_IT_number 136
_symmetry_cell_setting 'tetragonal'
loop_
_space_group_symop_operation_xyz
x,y,z
1/2-y,1/2+x,1/2+z
-x,-y,z
1/2+y,1/2-x,1/2+z
1/2+x,1/2-y,1/2-z
1/2-x,1/2+y,1/2-z
y,x,-z
-y,-x,-z
-x,-y,-z
1/2+y,1/2-x,1/2-z
x,y,-z
1/2-y,1/2+x,1/2-z
1/2-x,1/2+y,1/2+z
1/2+x,1/2-y,1/2+z
-y,-x,z
y,x,z
loop_
_atom_site_type_symbol
_atom_site_label
_atom_site_fract_x
_atom_site_fract_y
_atom_site_fract_z
Si Si1 0.329955 0.496751 0.170442
Si Si2 0.377534 0.998427 0.159564
Si Si3 0.691735 0.866690 0.257481
Si Si4 0.585599 0.246013 0.437647
Si Si5 0.068219 0.762129 0.440470
O O1 0.423013 0.576988 0.157343
O O2 0.379140 0.379140 0.181904
O O3 0.264500 0.532819 0.224686
O O4 0.253410 0.502845 0.115319
O O5 0.362104 0.103751 0.198246
O O6 0.293716 0.999558 0.107886
O O7 0.500000 0.000000 0.138830
O O8 0.348029 0.895490 0.195093
O O9 0.760857 0.760857 0.250317
O O10 0.534238 0.256747 0.500000
O O11 0.641634 0.358367 0.420904
O O12 0.673501 0.156540 0.438798
O O13 0.004635 0.751123 0.500000
O O14 0.122102 0.877899 0.438924
#
# Coordination Sequence:
#
# PCOD8318304 Si02
#       5
#    16  16  16  16  16
#     4   9  18  32  50  74 107 148 193 241 290 343
#     4  12  22  39  58  87 120 154 195 244 302 362
#     4  11  23  38  56  83 117 155 198 245 295 359
#     4   9  19  36  60  87 113 149 197 244 292 348
#     4   8  14  25  45  75 105 136 178 225 276 332
#
# _framework density 21.089621000000001
#
# number of rings (size 3 to 8) (size 9 to 14) (size 15 to 20)
#    0.000    2.200    2.000    3.000    0.000    1.600 
#    0.000    3.000    0.000    3.600    0.000    1.400 
#    0.000    0.000    0.000    0.000    0.000    0.000 
#
# Total GULP energy -991307.250918 kJ/mol
# GULP energy per Si atom -12391.340636 kJ/mol
# Density = 2.104162 g / cm^3
# Si number density = 21.089621 Si / 1000 Ang^3
#
#
#
# Elastic Constant Matrix: (Units=GPa)
#
#
# Indices 1 2 3 4 5 6 
#
# 1 62.2602 18.4384 29.3299 0.0000 0.0000 0.0000
# 2 18.4384 62.2602 29.3299 0.0000 0.0000 0.0000
# 3 29.3299 29.3299 111.4673 0.0000 0.0000 0.0000
# 4 0.0000 0.0000 0.0000 24.2003 0.0000 0.0000
# 5 0.0000 0.0000 0.0000 0.0000 24.2003 0.0000
# 6 0.0000 0.0000 0.0000 0.0000 0.0000 27.3579
#
#
#
# Elastic Compliance Matrix: (Units=1/GPa)
#
#
# Indices 1 2 3 4 5 6 
#
# 1 0.019071 -0.003749 -0.004032 0.000000 0.000000 0.000000
# 2 -0.003749 0.019071 -0.004032 0.000000 0.000000 0.000000
# 3 -0.004032 -0.004032 0.011093 0.000000 0.000000 0.000000
# 4 0.000000 0.000000 0.000000 0.041322 0.000000 0.000000
# 5 0.000000 0.000000 0.000000 0.000000 0.041322 0.000000
# 6 0.000000 0.000000 0.000000 0.000000 0.000000 0.036552
#
#
# Mechanical properties :
#
#
# Convention : Reuss Voigt Hill
#
# Bulk Modulus (GPa) = 39.04583 43.35381 41.19982
# Shear Modulus (GPa) = 24.92618 25.74434 25.33526
#
# Velocity S-wave (km/s) = 3.44163 3.49766 3.46976
# Velocity P-wave (km/s) = 5.86068 6.07561 5.96911
#
# Compressibility (1/GPa) = 0.02561093
#
# Stress axis : x y z
#
# Youngs Moduli (GPa) = 52.43541 52.43541 90.14739
#
# Poissons Ratio (x) = 0.19656 0.36345
# Poissons Ratio (y) = 0.19656 0.36345
# Poissons Ratio (z) = 0.21141 0.21141
#
# Static dielectric constant tensor:
#      x y z
#    x 3.717140 0.000000 0.000000 
#    y 0.000000 3.717140 0.000000 
#    z 0.000000 0.000000 4.467240 
# 
# 
# High freq. dielectric constant tensor:
#      x y z
#    x 1.801130 0.000000 0.000000 
#    y 0.000000 1.801130 0.000000 
#    z 0.000000 0.000000 1.835610 
# 
# From -- ./inp_files/7226.got.cif
#   From: 2010.03.12/outbox.cif.g09.slc.cpg/sg136_4_cif.got.tgz:7226.got - 2010.04.06 18:39:43.
