data_PCOD8318957
_publ_section_title
;
Structure prediction by ZEFSAII (Michael W. Deem and Ramdas Pophale) SiO2 
 PCOD8318957
Probable space group: P 42/N C M
;
_chemical_formula_sum "Si O2"
_cell_formula_units_Z 96
_cell_length_a 23.789958
_cell_length_b 23.789958
_cell_length_c 9.679025
_cell_angle_alpha 90.000000
_cell_angle_beta 90.000000
_cell_angle_gamma 90.000000
_cell_volume 5477.961331
_symmetry_space_group_name_H-M "P 42/N C M"
_symmetry_group_IT_number 138
_space_group.IT_coordinate_system_code '2'
_symmetry_cell_setting 'tetragonal'
loop_
_space_group_symop_operation_xyz
x,y,z
1/2-y,x,1/2+z
1/2-x,1/2-y,z
y,1/2-x,1/2+z
1/2+x,-y,1/2-z
-x,1/2+y,1/2-z
1/2+y,1/2+x,-z
-y,-x,-z
-x,-y,-z
1/2+y,-x,1/2-z
1/2+x,1/2+y,-z
-y,1/2+x,1/2-z
1/2-x,y,1/2+z
x,1/2-y,1/2+z
1/2-y,1/2-x,z
y,x,z
loop_
_atom_site_type_symbol
_atom_site_label
_atom_site_fract_x
_atom_site_fract_y
_atom_site_fract_z
Si Si1 0.704012 0.015545 0.525084
Si Si2 0.014855 0.692185 0.208980
Si Si3 0.976902 0.431361 0.860321
Si Si4 0.986069 0.421562 0.381926
Si Si5 0.289697 0.640617 0.896079
Si Si6 0.169390 0.641383 0.853672
O O1 0.757034 0.990202 0.612981
O O2 0.704008 0.994015 0.366183
O O3 0.643887 0.999531 0.593172
O O4 0.714685 0.081520 0.527163
O O5 0.996202 0.631069 0.150815
O O6 0.081826 0.686513 0.210207
O O7 0.928045 0.445270 0.749953
O O8 0.029574 0.470427 0.831959
O O9 0.944744 0.444744 0.000000
O O10 0.948044 0.448044 0.500000
O O11 0.045080 0.454921 0.365277
O O12 0.229651 0.670486 0.875485
O O13 0.322259 0.632280 0.751373
O O14 0.320141 0.679860 0.000000
O O15 0.136313 0.636313 0.000000
#
# Coordination Sequence:
#
# PCOD8318957 Si02
#       6
#    16  16  16  16  16  16
#     4  11  23  35  52  72 101 132 167 206 257 315
#     4  11  23  36  51  73 100 135 166 206 256 316
#     4  10  21  36  57  83 108 137 175 221 269 314
#     4  10  19  35  59  80 101 135 177 220 262 309
#     4  11  21  35  45  60  84 119 161 207 252 294
#     4  11  23  32  47  62  83 119 162 208 255 294
#
# _framework density 17.524768000000002
#
# number of rings (size 3 to 8) (size 9 to 14) (size 15 to 20)
#    0.000    1.333    3.333    3.000    9.333    2.000 
#    0.000    0.000    0.000    0.000    0.000    0.000 
#    0.000    0.667    0.000    3.000    0.000    0.000 
#
# Total GULP energy -1189571.427766 kJ/mol
# GULP energy per Si atom -12391.369039 kJ/mol
# Density = 1.748488 g / cm^3
# Si number density = 17.524768 Si / 1000 Ang^3
#
#
#
# Elastic Constant Matrix: (Units=GPa)
#
#
# Indices 1 2 3 4 5 6 
#
# 1 77.2077 5.1267 10.5831 0.0000 0.0000 0.0000
# 2 5.1267 77.2077 10.5829 0.0000 0.0000 0.0000
# 3 10.5831 10.5829 79.9107 0.0000 0.0000 0.0000
# 4 0.0000 0.0000 0.0000 26.4821 0.0000 0.0000
# 5 0.0000 0.0000 0.0000 0.0000 26.4816 0.0000
# 6 0.0000 0.0000 0.0000 0.0000 0.0000 12.7097
#
#
#
# Elastic Compliance Matrix: (Units=1/GPa)
#
#
# Indices 1 2 3 4 5 6 
#
# 1 0.013223 -0.000650 -0.001665 0.000000 0.000000 0.000000
# 2 -0.000650 0.013223 -0.001665 0.000000 0.000000 0.000000
# 3 -0.001665 -0.001665 0.012955 0.000000 0.000000 0.000000
# 4 0.000000 0.000000 0.000000 0.037761 0.000000 0.000000
# 5 0.000000 0.000000 0.000000 0.000000 0.037762 0.000000
# 6 0.000000 0.000000 0.000000 0.000000 0.000000 0.078680
#
#
# Mechanical properties :
#
#
# Convention : Reuss Voigt Hill
#
# Bulk Modulus (GPa) = 31.80501 31.87904 31.84203
# Shear Modulus (GPa) = 23.57976 27.00359 25.29167
#
# Velocity S-wave (km/s) = 3.67210 3.92966 3.80306
# Velocity P-wave (km/s) = 6.01391 6.23057 6.12320
#
# Compressibility (1/GPa) = 0.03144159
#
# Stress axis : x y z
#
# Youngs Moduli (GPa) = 75.62302 75.62308 77.19012
#
# Poissons Ratio (x) = 0.04914 0.12854
# Poissons Ratio (y) = 0.04914 0.12854
# Poissons Ratio (z) = 0.12593 0.12593
#
# Static dielectric constant tensor:
#      x y z
#    x 2.928230 0.000000 0.000000 
#    y 0.000000 2.928240 0.000000 
#    z 0.000000 0.000000 3.961830 
# 
# 
# High freq. dielectric constant tensor:
#      x y z
#    x 1.647540 0.000000 0.000000 
#    y 0.000000 1.647540 0.000000 
#    z 0.000000 0.000000 1.701120 
# 
# From -- ./inp_files/1725.got.cif
#   From: 2010.03.12/outbox.cif.g09.slc.cpg/sg138_1_cif.got.tgz:1725.got - 2010.04.08 09:41:05.
