data_PCOD8318773
_publ_section_title
;
Structure prediction by ZEFSAII (Michael W. Deem and Ramdas Pophale) SiO2 
 PCOD8318773
Probable space group: P 42/N M C
;
_chemical_formula_sum "Si O2"
_cell_formula_units_Z 48
_cell_length_a 16.080193
_cell_length_b 16.080193
_cell_length_c 8.478920
_cell_angle_alpha 90.000000
_cell_angle_beta 90.000000
_cell_angle_gamma 90.000000
_cell_volume 2192.416448
_symmetry_space_group_name_H-M "P 42/N M C"
_symmetry_group_IT_number 137
_space_group.IT_coordinate_system_code '2'
_symmetry_cell_setting 'tetragonal'
loop_
_space_group_symop_operation_xyz
x,y,z
1/2-y,x,1/2+z
1/2-x,1/2-y,z
y,1/2-x,1/2+z
1/2+x,-y,-z
-x,1/2+y,-z
1/2+y,1/2+x,1/2-z
-y,-x,1/2-z
-x,-y,-z
1/2+y,-x,1/2-z
1/2+x,1/2+y,-z
-y,1/2+x,1/2-z
1/2-x,y,z
x,1/2-y,z
1/2-y,1/2-x,1/2+z
y,x,1/2+z
loop_
_atom_site_type_symbol
_atom_site_label
_atom_site_fract_x
_atom_site_fract_y
_atom_site_fract_z
Si Si1 0.157343 0.011987 0.592454
Si Si2 0.343752 0.447015 0.943590
Si Si3 0.841790 0.119119 0.926962
O O1 0.250000 0.043123 0.577744
O O2 0.130531 0.014330 0.774913
O O3 0.112297 0.080713 0.486782
O O4 0.151714 0.917155 0.533435
O O5 0.250000 0.406022 0.940803
O O6 0.343918 0.519386 0.073493
O O7 0.849736 0.150265 0.750000
O O8 0.750000 0.148385 0.990918
#
# Coordination Sequence:
#
# PCOD8318773 Si02
#       3
#    16  16  16
#     4  11  23  40  64  92 126 166 206 257 316 372
#     4  10  23  42  64  92 125 165 211 257 310 371
#     4  11  23  40  63  90 122 161 208 259 310 371
#
# _framework density 21.893653
#
# number of rings (size 3 to 8) (size 9 to 14) (size 15 to 20)
#    0.000    1.333    0.000    5.000    0.000    7.000 
#    0.000    5.000    0.000   12.000    0.000    0.000 
#    0.000    0.000    0.000    0.000    0.000    0.000 
#
# Total GULP energy -594726.178525 kJ/mol
# GULP energy per Si atom -12390.128719 kJ/mol
# Density = 2.184382 g / cm^3
# Si number density = 21.893653 Si / 1000 Ang^3
#
#
#
# Elastic Constant Matrix: (Units=GPa)
#
#
# Indices 1 2 3 4 5 6 
#
# 1 117.0860 55.3342 57.4880 0.0000 0.0000 0.0000
# 2 55.3342 117.0853 57.4873 0.0000 0.0000 0.0000
# 3 57.4880 57.4873 85.1792 0.0000 0.0000 0.0000
# 4 0.0000 0.0000 0.0000 29.2110 0.0000 0.0000
# 5 0.0000 0.0000 0.0000 0.0000 29.2108 0.0000
# 6 0.0000 0.0000 0.0000 0.0000 0.0000 -765.0385
#
#
#
# Elastic Compliance Matrix: (Units=1/GPa)
#
#
# Indices 1 2 3 4 5 6 
#
# 1 0.013370 -0.002824 -0.007118 0.000000 0.000000 0.000000
# 2 -0.002824 0.013370 -0.007117 0.000000 0.000000 0.000000
# 3 -0.007118 -0.007117 0.021347 0.000000 0.000000 0.000000
# 4 0.000000 0.000000 0.000000 0.034234 0.000000 0.000000
# 5 0.000000 0.000000 0.000000 0.000000 0.034234 0.000000
# 6 0.000000 0.000000 0.000000 0.000000 0.000000 -0.001307
#
#
# Mechanical properties :
#
#
# Convention : Reuss Voigt Hill
#
# Bulk Modulus (GPa) = 71.58642 73.32997 72.45819
# Shear Modulus (GPa) = 32.46285 -131.38730 -49.46222
#
# Velocity S-wave (km/s) = 3.85483 -7.75512 -4.75826
# Velocity P-wave (km/s) = 7.25129 6.82808 1.72605
#
# Compressibility (1/GPa) = 0.01396913
#
# Stress axis : x y z
#
# Youngs Moduli (GPa) = 74.79427 74.79456 46.84447
#
# Poissons Ratio (x) = 0.21122 0.33342
# Poissons Ratio (y) = 0.21122 0.33341
# Poissons Ratio (z) = 0.53236 0.53235
#
# Static dielectric constant tensor:
#      x y z
#    x 4.076810 0.000000 0.000000 
#    y 0.000000 4.076810 0.000000 
#    z 0.000000 0.000000 3.989800 
# 
# 
# High freq. dielectric constant tensor:
#      x y z
#    x 1.867150 0.000000 0.000000 
#    y 0.000000 1.867150 0.000000 
#    z 0.000000 0.000000 1.862020 
# 
# From -- ./inp_files/1261.got.cif
#   From: 2010.03.12/outbox.cif.g09.slc.cpg/sg137_1_cif.got.tgz:1261.got - 2010.04.08 09:34:49.
