data_PCOD8318826
_publ_section_title
;
Structure prediction by ZEFSAII (Michael W. Deem and Ramdas Pophale) SiO2 
 PCOD8318826
Probable space group: P 42/N M C
;
_chemical_formula_sum "Si O2"
_cell_formula_units_Z 58
_cell_length_a 17.267169
_cell_length_b 17.267169
_cell_length_c 8.162822
_cell_angle_alpha 90.000000
_cell_angle_beta 90.000000
_cell_angle_gamma 90.000000
_cell_volume 2433.787216
_symmetry_space_group_name_H-M "P 42/N M C"
_symmetry_group_IT_number 137
_space_group.IT_coordinate_system_code '2'
_symmetry_cell_setting 'tetragonal'
loop_
_space_group_symop_operation_xyz
x,y,z
1/2-y,x,1/2+z
1/2-x,1/2-y,z
y,1/2-x,1/2+z
1/2+x,-y,-z
-x,1/2+y,-z
1/2+y,1/2+x,1/2-z
-y,-x,1/2-z
-x,-y,-z
1/2+y,-x,1/2-z
1/2+x,1/2+y,-z
-y,1/2+x,1/2-z
1/2-x,y,z
x,1/2-y,z
1/2-y,1/2-x,1/2+z
y,x,1/2+z
loop_
_atom_site_type_symbol
_atom_site_label
_atom_site_fract_x
_atom_site_fract_y
_atom_site_fract_z
Si Si1 0.250000 0.336095 0.137305
Si Si2 0.612539 0.488136 0.126902
Si Si3 0.750000 0.090223 0.942090
Si Si4 0.976218 0.750000 0.140362
Si Si5 0.250000 0.750000 0.250000
Si Si6 0.581769 0.624287 0.928139
O O1 0.250000 0.250000 0.206933
O O2 0.250000 0.390281 0.292643
O O3 0.171117 0.352235 0.035402
O O4 0.557281 0.442720 0.250000
O O5 0.642965 0.559832 0.239310
O O6 0.676110 0.429018 0.055167
O O7 0.571868 0.532758 0.974003
O O8 0.750000 0.178041 0.876607
O O9 0.750000 0.039569 0.779550
O O10 0.981947 0.827608 0.032402
#
# Coordination Sequence:
#
# PCOD8318826 Si02
#       6
#     8  16   8   8   2  16
#     4  12  24  38  68 110 168 205 244 263 351 448
#     4  12  26  46  76 108 150 192 254 314 388 452
#     4  12  29  56  78 108 137 195 262 342 400 464
#     4  12  25  42  74 107 164 196 250 295 369 447
#     4  12  36  60  86  96 136 188 278 364 452 428
#     4  12  24  44  70 117 159 208 239 298 358 469
#
# _framework density 23.831171000000001
#
# number of rings (size 3 to 8) (size 9 to 14) (size 15 to 20)
#    0.000    0.000    6.897    1.655    5.793    1.103 
#    2.483    0.000    0.000    0.000    0.000    0.000 
#    0.000    0.000    0.000    0.000    0.000    0.000 
#
# Total GULP energy -718621.186286 kJ/mol
# GULP energy per Si atom -12390.020453 kJ/mol
# Density = 2.377693 g / cm^3
# Si number density = 23.831171 Si / 1000 Ang^3
#
#
#
# Elastic Constant Matrix: (Units=GPa)
#
#
# Indices 1 2 3 4 5 6 
#
# 1 122.8963 55.1358 46.2738 0.0000 0.0000 0.0000
# 2 55.1358 122.8957 46.2725 0.0000 0.0000 0.0000
# 3 46.2738 46.2725 114.2595 0.0000 0.0000 0.0000
# 4 0.0000 0.0000 0.0000 44.5214 0.0000 0.0000
# 5 0.0000 0.0000 0.0000 0.0000 44.5216 0.0000
# 6 0.0000 0.0000 0.0000 0.0000 0.0000 27.4995
#
#
#
# Elastic Compliance Matrix: (Units=1/GPa)
#
#
# Indices 1 2 3 4 5 6 
#
# 1 0.010936 -0.003822 -0.002881 0.000000 0.000000 0.000000
# 2 -0.003822 0.010936 -0.002881 0.000000 0.000000 0.000000
# 3 -0.002881 -0.002881 0.011086 0.000000 0.000000 0.000000
# 4 0.000000 0.000000 0.000000 0.022461 0.000000 0.000000
# 5 0.000000 0.000000 0.000000 0.000000 0.022461 0.000000
# 6 0.000000 0.000000 0.000000 0.000000 0.000000 0.036364
#
#
# Mechanical properties :
#
#
# Convention : Reuss Voigt Hill
#
# Bulk Modulus (GPa) = 72.51669 72.82397 72.67033
# Shear Modulus (GPa) = 36.22919 37.46645 36.84782
#
# Velocity S-wave (km/s) = 3.90326 3.96935 3.93644
# Velocity P-wave (km/s) = 7.12807 7.18556 7.15687
#
# Compressibility (1/GPa) = 0.01378993
#
# Stress axis : x y z
#
# Youngs Moduli (GPa) = 91.43788 91.43827 90.20530
#
# Poissons Ratio (x) = 0.34944 0.25992
# Poissons Ratio (y) = 0.34944 0.25991
# Poissons Ratio (z) = 0.26347 0.26346
#
# Static dielectric constant tensor:
#      x y z
#    x 4.748250 0.000000 0.000000 
#    y 0.000000 4.748270 0.000000 
#    z 0.000000 0.000000 4.509650 
# 
# 
# High freq. dielectric constant tensor:
#      x y z
#    x 1.941210 0.000000 0.000000 
#    y 0.000000 1.941210 0.000000 
#    z 0.000000 0.000000 1.961830 
# 
# From -- ./inp_files/1614.got.cif
#   From: 2010.03.12/outbox.cif.g09.slc.cpg/sg137_1_cif.got.tgz:1614.got - 2010.04.08 09:34:49.
