data_PCOD8318617
_publ_section_title
;
Structure prediction by ZEFSAII (Michael W. Deem and Ramdas Pophale) SiO2 
 PCOD8318617
Probable space group: P 42/N M C
;
_chemical_formula_sum "Si O2"
_cell_formula_units_Z 64
_cell_length_a 17.888966
_cell_length_b 17.888966
_cell_length_c 10.366812
_cell_angle_alpha 90.000000
_cell_angle_beta 90.000000
_cell_angle_gamma 90.000000
_cell_volume 3317.536426
_symmetry_space_group_name_H-M "P 42/N M C"
_symmetry_group_IT_number 137
_space_group.IT_coordinate_system_code '2'
_symmetry_cell_setting 'tetragonal'
loop_
_space_group_symop_operation_xyz
x,y,z
1/2-y,x,1/2+z
1/2-x,1/2-y,z
y,1/2-x,1/2+z
1/2+x,-y,-z
-x,1/2+y,-z
1/2+y,1/2+x,1/2-z
-y,-x,1/2-z
-x,-y,-z
1/2+y,-x,1/2-z
1/2+x,1/2+y,-z
-y,1/2+x,1/2-z
1/2-x,y,z
x,1/2-y,z
1/2-y,1/2-x,1/2+z
y,x,1/2+z
loop_
_atom_site_type_symbol
_atom_site_label
_atom_site_fract_x
_atom_site_fract_y
_atom_site_fract_z
Si Si1 0.567260 0.663897 0.784410
Si Si2 0.663025 0.336976 0.750000
Si Si3 0.337672 0.574847 0.005941
Si Si4 0.585639 0.414362 0.250000
Si Si5 0.664329 0.596624 0.001690
O O1 0.536975 0.750000 0.785593
O O2 0.500820 0.603435 0.780602
O O3 0.616200 0.650982 0.911748
O O4 0.616208 0.652575 0.653424
O O5 0.750000 0.353458 0.729657
O O6 0.629797 0.379820 0.873211
O O7 0.250000 0.583918 0.999040
O O8 0.361531 0.488755 0.020580
O O9 0.369098 0.611588 0.875701
O O10 0.750000 0.607708 0.960908
#
# Coordination Sequence:
#
# PCOD8318617 Si02
#       5
#    16   8  16   8  16
#     4  10  22  38  57  84 113 144 186 229 273 330
#     4   9  18  31  48  75 110 145 186 234 276 322
#     4   9  19  35  53  76 108 144 182 225 275 327
#     4  10  20  35  56  80 112 143 178 226 272 322
#     4   9  20  38  56  78 110 143 178 226 276 324
#
# _framework density 19.291425
#
# number of rings (size 3 to 8) (size 9 to 14) (size 15 to 20)
#    0.000    2.625    0.000    2.250    0.000   10.500 
#    0.000    5.000    0.000    3.375    0.000    0.000 
#    0.000    0.000    0.000    0.000    0.000    0.000 
#
# Total GULP energy -793372.378819 kJ/mol
# GULP energy per Si atom -12396.443419 kJ/mol
# Density = 1.924752 g / cm^3
# Si number density = 19.291425 Si / 1000 Ang^3
#
#
#
# Elastic Constant Matrix: (Units=GPa)
#
#
# Indices 1 2 3 4 5 6 
#
# 1 49.9499 40.1216 43.0352 0.0000 0.0000 0.0000
# 2 40.1216 49.9509 43.0348 0.0000 0.0000 0.0000
# 3 43.0352 43.0348 154.0777 0.0000 0.0000 0.0000
# 4 0.0000 0.0000 0.0000 38.8557 0.0000 0.0000
# 5 0.0000 0.0000 0.0000 0.0000 38.8558 0.0000
# 6 0.0000 0.0000 0.0000 0.0000 0.0000 23.3035
#
#
#
# Elastic Compliance Matrix: (Units=1/GPa)
#
#
# Indices 1 2 3 4 5 6 
#
# 1 0.058444 -0.043299 -0.004230 0.000000 0.000000 0.000000
# 2 -0.043299 0.058442 -0.004229 0.000000 0.000000 0.000000
# 3 -0.004230 -0.004229 0.008853 0.000000 0.000000 0.000000
# 4 0.000000 0.000000 0.000000 0.025736 0.000000 0.000000
# 5 0.000000 0.000000 0.000000 0.000000 0.025736 0.000000
# 6 0.000000 0.000000 0.000000 0.000000 0.000000 0.042912
#
#
# Mechanical properties :
#
#
# Convention : Reuss Voigt Hill
#
# Bulk Modulus (GPa) = 45.00061 56.26242 50.63152
# Shear Modulus (GPa) = 15.10353 28.72212 21.91283
#
# Velocity S-wave (km/s) = 2.80110 3.86275 3.37394
# Velocity P-wave (km/s) = 5.81712 7.00873 6.44054
#
# Compressibility (1/GPa) = 0.02222192
#
# Stress axis : x y z
#
# Youngs Moduli (GPa) = 17.11037 17.11095 112.95482
#
# Poissons Ratio (x) = 0.74089 0.47783
# Poissons Ratio (y) = 0.74086 0.47774
# Poissons Ratio (z) = 0.07238 0.07237
#
# Static dielectric constant tensor:
#      x y z
#    x 3.364680 0.000000 0.000000 
#    y 0.000000 3.364680 0.000000 
#    z 0.000000 0.000000 3.911330 
# 
# 
# High freq. dielectric constant tensor:
#      x y z
#    x 1.733880 0.000000 0.000000 
#    y 0.000000 1.733880 0.000000 
#    z 0.000000 0.000000 1.770380 
# 
# From -- ./inp_files/3370.got.cif
#   From: 2010.03.12/outbox.cif.g09.slc.cpg/sg137_2_cif.got.tgz:3370.got - 2010.04.08 09:34:49.
