data_PCOD8318038
_publ_section_title
;
Structure prediction by ZEFSAII (Michael W. Deem and Ramdas Pophale) SiO2 
 PCOD8318038
Probable space group: P 42/M N M
;
_chemical_formula_sum "Si O2"
_cell_formula_units_Z 128
_cell_length_a 22.348275
_cell_length_b 22.348275
_cell_length_c 14.160901
_cell_angle_alpha 90.000000
_cell_angle_beta 90.000000
_cell_angle_gamma 90.000000
_cell_volume 7072.596800
_symmetry_space_group_name_H-M "P 42/M N M"
_symmetry_group_IT_number 136
_symmetry_cell_setting 'tetragonal'
loop_
_space_group_symop_operation_xyz
x,y,z
1/2-y,1/2+x,1/2+z
-x,-y,z
1/2+y,1/2-x,1/2+z
1/2+x,1/2-y,1/2-z
1/2-x,1/2+y,1/2-z
y,x,-z
-y,-x,-z
-x,-y,-z
1/2+y,1/2-x,1/2-z
x,y,-z
1/2-y,1/2+x,1/2-z
1/2-x,1/2+y,1/2+z
1/2+x,1/2-y,1/2+z
-y,-x,z
y,x,z
loop_
_atom_site_type_symbol
_atom_site_label
_atom_site_fract_x
_atom_site_fract_y
_atom_site_fract_z
Si Si1 0.568987 0.932772 0.252042
Si Si2 0.673513 0.934232 0.108355
Si Si3 0.415773 0.320217 0.104481
Si Si4 0.242663 0.854494 0.240888
Si Si5 0.239002 0.664751 0.290993
Si Si6 0.466422 0.624403 0.110673
Si Si7 0.123543 0.222760 0.397700
Si Si8 0.825321 0.571694 0.609877
O O1 0.501375 0.922678 0.213832
O O2 0.614355 0.917726 0.167538
O O3 0.583031 0.888950 0.339381
O O4 0.728034 0.889728 0.136745
O O5 0.694344 0.002579 0.124740
O O6 0.656914 0.923160 0.000000
O O7 0.352524 0.352524 0.094927
O O8 0.408303 0.270676 0.185264
O O9 0.464801 0.368685 0.140576
O O10 0.433493 0.294075 0.000000
O O11 0.183645 0.816355 0.208212
O O12 0.285658 0.811750 0.301327
O O13 0.273686 0.884895 0.150563
O O14 0.304718 0.695283 0.307641
O O15 0.230478 0.639557 0.183996
O O16 0.432963 0.567038 0.159165
O O17 0.434373 0.686517 0.137962
O O18 0.461158 0.614802 0.000000
O O19 0.112337 0.254647 0.500000
O O20 0.177749 0.177749 0.411399
O O21 0.833324 0.587069 0.500000
#
# Coordination Sequence:
#
# PCOD8318038 Si02
#       8
#    16  16  16  16  16  16  16  16
#     4   9  18  36  60  82 107 137 168 206 255 315
#     4  10  21  36  54  79 110 139 170 217 267 310
#     4   9  18  31  47  71 104 140 173 206 248 303
#     4  10  21  36  52  73 103 142 183 218 258 311
#     4  10  20  34  52  74 100 138 180 216 261 312
#     4   8  14  26  46  73 102 131 162 201 254 309
#     4   8  15  28  46  71 100 126 158 204 256 302
#     4  10  21  37  56  79 107 136 173 223 268 306
#
# _framework density 18.098020000000002
#
# number of rings (size 3 to 8) (size 9 to 14) (size 15 to 20)
#    0.000    2.750    1.250    0.750    1.750    2.250 
#    0.000    6.250    0.000    0.000    0.000    0.000 
#    0.000    0.000    0.000    5.500    0.000    0.250 
#
# Total GULP energy -1585972.895579 kJ/mol
# GULP energy per Si atom -12390.413247 kJ/mol
# Density = 1.805683 g / cm^3
# Si number density = 18.098020 Si / 1000 Ang^3
#
#
#
# Elastic Constant Matrix: (Units=GPa)
#
#
# Indices 1 2 3 4 5 6 
#
# 1 69.8086 38.1239 44.5517 0.0000 0.0000 0.0000
# 2 38.1239 69.8086 44.5517 0.0000 0.0000 0.0000
# 3 44.5517 44.5517 96.6837 0.0000 0.0000 0.0000
# 4 0.0000 0.0000 0.0000 27.2684 0.0000 0.0000
# 5 0.0000 0.0000 0.0000 0.0000 27.2684 0.0000
# 6 0.0000 0.0000 0.0000 0.0000 0.0000 26.9854
#
#
#
# Elastic Compliance Matrix: (Units=1/GPa)
#
#
# Indices 1 2 3 4 5 6 
#
# 1 0.023257 -0.008304 -0.006891 0.000000 0.000000 0.000000
# 2 -0.008304 0.023257 -0.006891 0.000000 0.000000 0.000000
# 3 -0.006891 -0.006891 0.016693 0.000000 0.000000 0.000000
# 4 0.000000 0.000000 0.000000 0.036672 0.000000 0.000000
# 5 0.000000 0.000000 0.000000 0.000000 0.036672 0.000000
# 6 0.000000 0.000000 0.000000 0.000000 0.000000 0.037057
#
#
# Mechanical properties :
#
#
# Convention : Reuss Voigt Hill
#
# Bulk Modulus (GPa) = 52.52614 54.52839 53.52727
# Shear Modulus (GPa) = 22.30891 23.57601 22.94246
#
# Velocity S-wave (km/s) = 3.51475 3.61319 3.56431
# Velocity P-wave (km/s) = 6.74963 6.89940 6.82492
#
# Compressibility (1/GPa) = 0.01903814
#
# Stress axis : x y z
#
# Youngs Moduli (GPa) = 42.99729 42.99729 59.90410
#
# Poissons Ratio (x) = 0.35704 0.41277
# Poissons Ratio (y) = 0.35704 0.41277
# Poissons Ratio (z) = 0.29628 0.29628
#
# Static dielectric constant tensor:
#      x y z
#    x 3.323980 0.000000 0.000000 
#    y 0.000000 3.323980 0.000000 
#    z 0.000000 0.000000 2.912000 
# 
# 
# High freq. dielectric constant tensor:
#      x y z
#    x 1.696400 0.000000 0.000000 
#    y 0.000000 1.696400 0.000000 
#    z 0.000000 0.000000 1.674040 
# 
# From -- ./inp_files/4085.got.cif
#   From: 2010.03.12/outbox.cif.g09.slc.cpg/sg136_3_cif.got.tgz:4085.got - 2010.04.06 18:39:43.
