data_PCOD8318469
_publ_section_title
;
Structure prediction by ZEFSAII (Michael W. Deem and Ramdas Pophale) SiO2 
 PCOD8318469
Probable space group: P 42/N M C
;
_chemical_formula_sum "Si O2"
_cell_formula_units_Z 88
_cell_length_a 18.737880
_cell_length_b 18.737880
_cell_length_c 13.944705
_cell_angle_alpha 90.000000
_cell_angle_beta 90.000000
_cell_angle_gamma 90.000000
_cell_volume 4896.099532
_symmetry_space_group_name_H-M "P 42/N M C"
_symmetry_group_IT_number 137
_space_group.IT_coordinate_system_code '2'
_symmetry_cell_setting 'tetragonal'
loop_
_space_group_symop_operation_xyz
x,y,z
1/2-y,x,1/2+z
1/2-x,1/2-y,z
y,1/2-x,1/2+z
1/2+x,-y,-z
-x,1/2+y,-z
1/2+y,1/2+x,1/2-z
-y,-x,1/2-z
-x,-y,-z
1/2+y,-x,1/2-z
1/2+x,1/2+y,-z
-y,1/2+x,1/2-z
1/2-x,y,z
x,1/2-y,z
1/2-y,1/2-x,1/2+z
y,x,1/2+z
loop_
_atom_site_type_symbol
_atom_site_label
_atom_site_fract_x
_atom_site_fract_y
_atom_site_fract_z
Si Si1 0.830943 0.169058 0.250000
Si Si2 0.535853 0.670350 0.496488
Si Si3 0.431662 0.045526 0.634280
Si Si4 0.874039 0.329436 0.455095
Si Si5 0.445328 0.437731 0.857324
Si Si6 0.478247 0.669287 0.015415
O O1 0.750000 0.156378 0.284493
O O2 0.850129 0.120241 0.158419
O O3 0.569146 0.750000 0.490361
O O4 0.555134 0.625467 0.402574
O O5 0.451492 0.675550 0.501279
O O6 0.566830 0.630153 0.589074
O O7 0.424633 0.056062 0.747083
O O8 0.494946 0.991378 0.607069
O O9 0.362644 0.011989 0.582565
O O10 0.837376 0.250000 0.464544
O O11 0.832227 0.391585 0.511354
O O12 0.493178 0.369712 0.888252
O O13 0.504203 0.750000 0.022875
#
# Coordination Sequence:
#
# PCOD8318469 Si02
#       6
#     8  16  16  16  16  16
#     4   9  18  28  38  62 106 152 178 200 248 307
#     4  10  19  33  55  80 106 140 182 217 268 329
#     4  10  20  37  56  76 109 144 181 230 276 310
#     4  10  19  31  47  75 116 150 177 212 258 318
#     4  10  20  37  56  77 108 143 183 230 273 311
#     4  11  21  34  55  84 110 142 187 225 267 327
#
# _framework density 17.973490000000002
#
# number of rings (size 3 to 8) (size 9 to 14) (size 15 to 20)
#    0.000    1.909    3.636    1.636    2.545    2.545 
#    0.000    0.000    0.000    8.727    0.000   10.182 
#    0.000    0.000    0.000    0.000    0.000    0.000 
#
# Total GULP energy -1090724.641106 kJ/mol
# GULP energy per Si atom -12394.598194 kJ/mol
# Density = 1.793258 g / cm^3
# Si number density = 17.973490 Si / 1000 Ang^3
#
#
#
# Elastic Constant Matrix: (Units=GPa)
#
#
# Indices 1 2 3 4 5 6 
#
# 1 89.0771 12.8153 7.8962 0.0000 0.0000 0.0000
# 2 12.8153 89.0776 7.8961 0.0000 0.0000 0.0000
# 3 7.8962 7.8961 57.0183 0.0000 0.0000 0.0000
# 4 0.0000 0.0000 0.0000 15.6856 0.0000 0.0000
# 5 0.0000 0.0000 0.0000 0.0000 15.6857 0.0000
# 6 0.0000 0.0000 0.0000 0.0000 0.0000 16.4794
#
#
#
# Elastic Compliance Matrix: (Units=1/GPa)
#
#
# Indices 1 2 3 4 5 6 
#
# 1 0.011571 -0.001542 -0.001389 0.000000 0.000000 0.000000
# 2 -0.001542 0.011571 -0.001389 0.000000 0.000000 0.000000
# 3 -0.001389 -0.001389 0.017923 0.000000 0.000000 0.000000
# 4 0.000000 0.000000 0.000000 0.063753 0.000000 0.000000
# 5 0.000000 0.000000 0.000000 0.000000 0.063753 0.000000
# 6 0.000000 0.000000 0.000000 0.000000 0.000000 0.060682
#
#
# Mechanical properties :
#
#
# Convention : Reuss Voigt Hill
#
# Bulk Modulus (GPa) = 30.83923 32.48758 31.66340
# Shear Modulus (GPa) = 20.10457 23.34116 21.72287
#
# Velocity S-wave (km/s) = 3.34813 3.60758 3.48027
# Velocity P-wave (km/s) = 5.66940 5.95545 5.81418
#
# Compressibility (1/GPa) = 0.03242623
#
# Stress axis : x y z
#
# Youngs Moduli (GPa) = 86.42196 86.42242 55.79443
#
# Poissons Ratio (x) = 0.13323 0.07750
# Poissons Ratio (y) = 0.13323 0.07749
# Poissons Ratio (z) = 0.12004 0.12003
#
# Static dielectric constant tensor:
#      x y z
#    x 3.411060 0.000000 0.000000 
#    y 0.000000 3.411050 0.000000 
#    z 0.000000 0.000000 3.186580 
# 
# 
# High freq. dielectric constant tensor:
#      x y z
#    x 1.687020 0.000000 0.000000 
#    y 0.000000 1.687020 0.000000 
#    z 0.000000 0.000000 1.685610 
# 
# From -- ./inp_files/5072.got.cif
#   From: 2010.03.12/outbox.cif.g09.slc.cpg/sg137_3_cif.got.tgz:5072.got - 2010.04.08 09:34:49.
