data_PCOD8318691
_publ_section_title
;
Structure prediction by ZEFSAII (Michael W. Deem and Ramdas Pophale) SiO2 
 PCOD8318691
Probable space group: P 42/N M C
;
_chemical_formula_sum "Si O2"
_cell_formula_units_Z 112
_cell_length_a 15.085729
_cell_length_b 15.085729
_cell_length_c 26.551127
_cell_angle_alpha 90.000000
_cell_angle_beta 90.000000
_cell_angle_gamma 90.000000
_cell_volume 6042.484758
_symmetry_space_group_name_H-M "P 42/N M C"
_symmetry_group_IT_number 137
_space_group.IT_coordinate_system_code '2'
_symmetry_cell_setting 'tetragonal'
loop_
_space_group_symop_operation_xyz
x,y,z
1/2-y,x,1/2+z
1/2-x,1/2-y,z
y,1/2-x,1/2+z
1/2+x,-y,-z
-x,1/2+y,-z
1/2+y,1/2+x,1/2-z
-y,-x,1/2-z
-x,-y,-z
1/2+y,-x,1/2-z
1/2+x,1/2+y,-z
-y,1/2+x,1/2-z
1/2-x,y,z
x,1/2-y,z
1/2-y,1/2-x,1/2+z
y,x,1/2+z
loop_
_atom_site_type_symbol
_atom_site_label
_atom_site_fract_x
_atom_site_fract_y
_atom_site_fract_z
Si Si1 0.152409 0.847384 0.190918
Si Si2 0.553672 0.989674 0.449754
Si Si3 0.923688 0.148523 0.198755
Si Si4 0.022421 0.503701 0.344716
Si Si5 0.353683 0.145843 0.379856
Si Si6 0.353646 0.346315 0.493180
Si Si7 0.649796 0.154550 0.407937
O O1 0.159387 0.840614 0.250000
O O2 0.250000 0.872794 0.169242
O O3 0.124254 0.750000 0.169488
O O4 0.082019 0.921814 0.178486
O O5 0.623579 0.912186 0.461359
O O6 0.500000 0.000000 0.500000
O O7 0.496935 0.963443 0.401285
O O8 0.599643 0.082563 0.439960
O O9 0.870918 0.129083 0.250000
O O10 0.964339 0.250000 0.201279
O O11 0.856929 0.143297 0.152069
O O12 0.994781 0.069453 0.187570
O O13 0.080912 0.412590 0.344451
O O14 0.250000 0.121778 0.370096
O O15 0.369179 0.250000 0.368405
O O16 0.383450 0.122100 0.437157
O O17 0.250000 0.335383 0.490432
O O18 0.396390 0.250000 0.504805
O O19 0.750000 0.151213 0.426289
O O20 0.607319 0.250000 0.420573
#
# Coordination Sequence:
#
# PCOD8318691 Si02
#       7
#    16  16  16  16  16  16  16
#     4   9  19  38  62  85 110 142 182 229 284 343
#     4  11  21  32  47  75 106 139 172 217 268 318
#     4  10  21  36  55  81 112 148 187 226 273 333
#     4  11  21  34  57  82 113 142 185 227 277 325
#     4   9  18  33  53  77 104 136 177 225 272 320
#     4   9  18  34  53  69  93 136 184 222 261 314
#     4   9  19  35  53  72  99 138 179 220 265 317
#
# _framework density 18.535420999999999
#
# number of rings (size 3 to 8) (size 9 to 14) (size 15 to 20)
#    0.000    2.286    1.429    3.000    0.000    5.286 
#    0.000    0.000    0.000    2.143    0.000    0.000 
#    0.000    0.000    0.000    0.000    0.000    0.000 
#
# Total GULP energy -1387681.152812 kJ/mol
# GULP energy per Si atom -12390.010293 kJ/mol
# Density = 1.849323 g / cm^3
# Si number density = 18.535421 Si / 1000 Ang^3
#
#
#
# Elastic Constant Matrix: (Units=GPa)
#
#
# Indices 1 2 3 4 5 6 
#
# 1 115.4713 68.8473 40.2193 0.0000 0.0000 0.0000
# 2 68.8473 115.4712 40.2191 0.0000 0.0000 0.0000
# 3 40.2193 40.2191 69.4180 0.0000 0.0000 0.0000
# 4 0.0000 0.0000 0.0000 17.7837 0.0000 0.0000
# 5 0.0000 0.0000 0.0000 0.0000 17.7832 0.0000
# 6 0.0000 0.0000 0.0000 0.0000 0.0000 3.5969
#
#
#
# Elastic Compliance Matrix: (Units=1/GPa)
#
#
# Indices 1 2 3 4 5 6 
#
# 1 0.014355 -0.007093 -0.004207 0.000000 0.000000 0.000000
# 2 -0.007093 0.014355 -0.004207 0.000000 0.000000 0.000000
# 3 -0.004207 -0.004207 0.019280 0.000000 0.000000 0.000000
# 4 0.000000 0.000000 0.000000 0.056231 0.000000 0.000000
# 5 0.000000 0.000000 0.000000 0.000000 0.056233 0.000000
# 6 0.000000 0.000000 0.000000 0.000000 0.000000 0.278014
#
#
# Mechanical properties :
#
#
# Convention : Reuss Voigt Hill
#
# Bulk Modulus (GPa) = 58.91046 66.54800 62.72923
# Shear Modulus (GPa) = 10.52318 17.90441 14.21380
#
# Velocity S-wave (km/s) = 2.38530 3.11136 2.77220
# Velocity P-wave (km/s) = 6.27996 6.99203 6.64554
#
# Compressibility (1/GPa) = 0.01697491
#
# Stress axis : x y z
#
# Youngs Moduli (GPa) = 69.66304 69.66319 51.86593
#
# Poissons Ratio (x) = 0.49415 0.21821
# Poissons Ratio (y) = 0.49415 0.21820
# Poissons Ratio (z) = 0.29308 0.29308
#
# Static dielectric constant tensor:
#      x y z
#    x 3.454740 0.000000 0.000000 
#    y 0.000000 3.454730 0.000000 
#    z 0.000000 0.000000 3.895320 
# 
# 
# High freq. dielectric constant tensor:
#      x y z
#    x 1.722080 0.000000 0.000000 
#    y 0.000000 1.722080 0.000000 
#    z 0.000000 0.000000 1.700230 
# 
# From -- ./inp_files/9749.got.cif
#   From: 2010.03.12/outbox.cif.g09.slc.cpg/sg137_5_cif.got.tgz:9749.got - 2010.04.08 09:34:49.
