data_PCOD8318107
_publ_section_title
;
Structure prediction by ZEFSAII (Michael W. Deem and Ramdas Pophale) SiO2 
 PCOD8318107
Probable space group: P 42/M N M
;
_chemical_formula_sum "Si O2"
_cell_formula_units_Z 92
_cell_length_a 24.836460
_cell_length_b 24.836460
_cell_length_c 7.745631
_cell_angle_alpha 90.000000
_cell_angle_beta 90.000000
_cell_angle_gamma 90.000000
_cell_volume 4777.890510
_symmetry_space_group_name_H-M "P 42/M N M"
_symmetry_group_IT_number 136
_symmetry_cell_setting 'tetragonal'
loop_
_space_group_symop_operation_xyz
x,y,z
1/2-y,1/2+x,1/2+z
-x,-y,z
1/2+y,1/2-x,1/2+z
1/2+x,1/2-y,1/2-z
1/2-x,1/2+y,1/2-z
y,x,-z
-y,-x,-z
-x,-y,-z
1/2+y,1/2-x,1/2-z
x,y,-z
1/2-y,1/2+x,1/2-z
1/2-x,1/2+y,1/2+z
1/2+x,1/2-y,1/2+z
-y,-x,z
y,x,z
loop_
_atom_site_type_symbol
_atom_site_label
_atom_site_fract_x
_atom_site_fract_y
_atom_site_fract_z
Si Si1 0.351611 0.351611 0.811474
Si Si2 0.513188 0.679039 0.500000
Si Si3 0.907423 0.092578 0.000000
Si Si4 0.154821 0.371449 0.796864
Si Si5 0.252526 0.165932 0.306743
Si Si6 0.889753 0.801272 0.000000
Si Si7 0.926335 0.238728 0.696490
Si Si8 0.552081 0.064893 0.695914
O O1 0.384059 0.384059 0.672990
O O2 0.366430 0.288651 0.790640
O O3 0.371452 0.371452 0.000000
O O4 0.531008 0.614932 0.500000
O O5 0.449918 0.678196 0.500000
O O6 0.533205 0.710434 0.670689
O O7 0.171147 0.316802 0.701084
O O8 0.199215 0.417067 0.753649
O O9 0.097891 0.395179 0.729266
O O10 0.153102 0.360087 0.000000
O O11 0.236640 0.147332 0.500000
O O12 0.223075 0.223075 0.263526
O O13 0.233875 0.120780 0.171140
O O14 0.854077 0.854077 0.000000
O O15 0.949052 0.233367 0.500000
O O16 0.539764 0.080476 0.500000
O O17 0.497096 0.072441 0.801487
#
# Coordination Sequence:
#
# PCOD8318107 Si02
#       8
#     8   8   4  16  16   8  16  16
#     4   8  14  28  48  71 109 155 172 204 274 336
#     4  10  20  36  59  84 113 156 188 236 295 339
#     4   8  16  32  51  80 116 134 184 238 272 336
#     4  10  21  36  55  84 114 144 186 236 285 337
#     4  10  22  39  59  86 117 153 191 233 285 341
#     4  10  22  42  61  82 117 157 200 237 278 339
#     4   9  19  33  50  83 118 145 185 226 281 344
#     4  10  21  38  56  75 102 142 188 235 288 332
#
# _framework density 19.25536
#
# number of rings (size 3 to 8) (size 9 to 14) (size 15 to 20)
#    0.000    2.435    0.870    1.043    2.435    3.478 
#    0.000    1.957    0.000    0.000    0.000    0.000 
#    0.000    9.739    0.000    0.000    0.000    0.000 
#
# Total GULP energy -1139885.755964 kJ/mol
# GULP energy per Si atom -12390.062565 kJ/mol
# Density = 1.921153 g / cm^3
# Si number density = 19.255360 Si / 1000 Ang^3
#
#
#
# Elastic Constant Matrix: (Units=GPa)
#
#
# Indices 1 2 3 4 5 6 
#
# 1 88.4441 26.9299 25.1805 0.0000 0.0000 0.0000
# 2 26.9299 88.4438 25.1805 0.0000 0.0000 0.0000
# 3 25.1805 25.1805 93.8330 0.0000 0.0000 0.0000
# 4 0.0000 0.0000 0.0000 16.1641 0.0000 0.0000
# 5 0.0000 0.0000 0.0000 0.0000 16.1641 0.0000
# 6 0.0000 0.0000 0.0000 0.0000 0.0000 23.8958
#
#
#
# Elastic Compliance Matrix: (Units=1/GPa)
#
#
# Indices 1 2 3 4 5 6 
#
# 1 0.013037 -0.003219 -0.002635 0.000000 0.000000 0.000000
# 2 -0.003219 0.013037 -0.002635 0.000000 0.000000 0.000000
# 3 -0.002635 -0.002635 0.012071 0.000000 0.000000 0.000000
# 4 0.000000 0.000000 0.000000 0.061865 0.000000 0.000000
# 5 0.000000 0.000000 0.000000 0.000000 0.061865 0.000000
# 6 0.000000 0.000000 0.000000 0.000000 0.000000 0.041848
#
#
# Mechanical properties :
#
#
# Convention : Reuss Voigt Hill
#
# Bulk Modulus (GPa) = 47.24131 47.25586 47.24859
# Shear Modulus (GPa) = 21.95316 24.14013 23.04665
#
# Velocity S-wave (km/s) = 3.38021 3.54458 3.46337
# Velocity P-wave (km/s) = 6.31045 6.43016 6.37059
#
# Compressibility (1/GPa) = 0.02116791
#
# Stress axis : x y z
#
# Youngs Moduli (GPa) = 76.70509 76.70491 82.84169
#
# Poissons Ratio (x) = 0.24695 0.21825
# Poissons Ratio (y) = 0.24695 0.21825
# Poissons Ratio (z) = 0.20208 0.20208
#
# Static dielectric constant tensor:
#      x y z
#    x 3.464330 0.000000 0.000000 
#    y 0.000000 3.464330 0.000000 
#    z 0.000000 0.000000 3.663150 
# 
# 
# High freq. dielectric constant tensor:
#      x y z
#    x 1.730100 0.000000 0.000000 
#    y 0.000000 1.730100 0.000000 
#    z 0.000000 0.000000 1.763660 
# 
# From -- ./inp_files/2108.got.cif
#   From: 2010.03.12/outbox.cif.g09.slc.cpg/sg136_2_cif.got.tgz:2108.got - 2010.04.06 18:39:43.
