data_PCOD8318983
_publ_section_title
;
Structure prediction by ZEFSAII (Michael W. Deem and Ramdas Pophale) SiO2 
 PCOD8318983
Probable space group: P 42/N C M
;
_chemical_formula_sum "Si O2"
_cell_formula_units_Z 72
_cell_length_a 15.972922
_cell_length_b 15.972922
_cell_length_c 16.575327
_cell_angle_alpha 90.000000
_cell_angle_beta 90.000000
_cell_angle_gamma 90.000000
_cell_volume 4228.933411
_symmetry_space_group_name_H-M "P 42/N C M"
_symmetry_group_IT_number 138
_space_group.IT_coordinate_system_code '2'
_symmetry_cell_setting 'tetragonal'
loop_
_space_group_symop_operation_xyz
x,y,z
1/2-y,x,1/2+z
1/2-x,1/2-y,z
y,1/2-x,1/2+z
1/2+x,-y,1/2-z
-x,1/2+y,1/2-z
1/2+y,1/2+x,-z
-y,-x,-z
-x,-y,-z
1/2+y,-x,1/2-z
1/2+x,1/2+y,-z
-y,1/2+x,1/2-z
1/2-x,y,1/2+z
x,1/2-y,1/2+z
1/2-y,1/2-x,z
y,x,z
loop_
_atom_site_type_symbol
_atom_site_label
_atom_site_fract_x
_atom_site_fract_y
_atom_site_fract_z
Si Si1 0.827346 0.536675 0.888888
Si Si2 0.074186 0.799889 0.536981
Si Si3 0.615659 0.115659 0.500000
Si Si4 0.004778 0.140087 0.146963
Si Si5 0.409872 0.955165 0.816205
O O1 0.871862 0.628139 0.888055
O O2 0.735126 0.536956 0.851924
O O3 0.879743 0.472799 0.834332
O O4 0.819190 0.505947 0.981028
O O5 0.152903 0.847098 0.500000
O O6 0.103084 0.704323 0.543403
O O7 0.049920 0.829673 0.626010
O O8 0.609322 0.045117 0.431683
O O9 0.946798 0.122768 0.224801
O O10 0.089311 0.089311 0.152313
O O11 0.456911 0.043090 0.831116
#
# Coordination Sequence:
#
# PCOD8318983 Si02
#       5
#    16  16   8  16  16
#     4   9  18  33  53  75  97 130 168 208 253 295
#     4   9  17  31  52  74 103 128 165 206 251 295
#     4  10  20  32  50  72 106 138 166 200 252 304
#     4  10  21  34  50  74 102 136 171 206 250 300
#     4   9  18  32  52  76 100 129 170 210 249 297
#
# _framework density 17.025568
#
# number of rings (size 3 to 8) (size 9 to 14) (size 15 to 20)
#    0.000    2.667    0.000    1.333    3.111    3.111 
#    0.000    0.000    0.000    0.000    0.000    3.111 
#    0.000    0.000    0.000    0.000    0.000    0.000 
#
# Total GULP energy -892534.256918 kJ/mol
# GULP energy per Si atom -12396.309124 kJ/mol
# Density = 1.698682 g / cm^3
# Si number density = 17.025568 Si / 1000 Ang^3
#
#
#
# Elastic Constant Matrix: (Units=GPa)
#
#
# Indices 1 2 3 4 5 6 
#
# 1 96.4801 49.0050 50.8661 0.0000 0.0000 0.0000
# 2 49.0050 96.4797 50.8658 0.0000 0.0000 0.0000
# 3 50.8661 50.8658 113.2276 0.0000 0.0000 0.0000
# 4 0.0000 0.0000 0.0000 24.0364 0.0000 0.0000
# 5 0.0000 0.0000 0.0000 0.0000 24.0359 0.0000
# 6 0.0000 0.0000 0.0000 0.0000 0.0000 19.4730
#
#
#
# Elastic Compliance Matrix: (Units=1/GPa)
#
#
# Indices 1 2 3 4 5 6 
#
# 1 0.015543 -0.005521 -0.004502 0.000000 0.000000 0.000000
# 2 -0.005521 0.015543 -0.004502 0.000000 0.000000 0.000000
# 3 -0.004502 -0.004502 0.012877 0.000000 0.000000 0.000000
# 4 0.000000 0.000000 0.000000 0.041603 0.000000 0.000000
# 5 0.000000 0.000000 0.000000 0.000000 0.041604 0.000000
# 6 0.000000 0.000000 0.000000 0.000000 0.000000 0.051353
#
#
# Mechanical properties :
#
#
# Convention : Reuss Voigt Hill
#
# Bulk Modulus (GPa) = 67.06115 67.51790 67.28952
# Shear Modulus (GPa) = 23.52450 23.87245 23.69848
#
# Velocity S-wave (km/s) = 3.72118 3.74860 3.73491
# Velocity P-wave (km/s) = 7.61163 7.64714 7.62941
#
# Compressibility (1/GPa) = 0.01491176
#
# Stress axis : x y z
#
# Youngs Moduli (GPa) = 64.33878 64.33870 77.65913
#
# Poissons Ratio (x) = 0.35522 0.34963
# Poissons Ratio (y) = 0.35522 0.34963
# Poissons Ratio (z) = 0.28966 0.28966
#
# Static dielectric constant tensor:
#      x y z
#    x 3.128040 0.000000 0.000000 
#    y 0.000000 3.128040 0.000000 
#    z 0.000000 0.000000 3.207590 
# 
# 
# High freq. dielectric constant tensor:
#      x y z
#    x 1.653230 0.000000 0.000000 
#    y 0.000000 1.653230 0.000000 
#    z 0.000000 0.000000 1.659380 
# 
# From -- ./inp_files/5028.got.cif
#   From: 2010.03.12/outbox.cif.g09.slc.cpg/sg138_3_cif.got.tgz:5028.got - 2010.04.08 09:41:05.
