data_PCOD8318593
_publ_section_title
;
Structure prediction by ZEFSAII (Michael W. Deem and Ramdas Pophale) SiO2 
 PCOD8318593
Probable space group: P 42/N M C
;
_chemical_formula_sum "Si O2"
_cell_formula_units_Z 112
_cell_length_a 14.859093
_cell_length_b 14.859093
_cell_length_c 27.710269
_cell_angle_alpha 90.000000
_cell_angle_beta 90.000000
_cell_angle_gamma 90.000000
_cell_volume 6118.223580
_symmetry_space_group_name_H-M "P 42/N M C"
_symmetry_group_IT_number 137
_space_group.IT_coordinate_system_code '2'
_symmetry_cell_setting 'tetragonal'
loop_
_space_group_symop_operation_xyz
x,y,z
1/2-y,x,1/2+z
1/2-x,1/2-y,z
y,1/2-x,1/2+z
1/2+x,-y,-z
-x,1/2+y,-z
1/2+y,1/2+x,1/2-z
-y,-x,1/2-z
-x,-y,-z
1/2+y,-x,1/2-z
1/2+x,1/2+y,-z
-y,1/2+x,1/2-z
1/2-x,y,z
x,1/2-y,z
1/2-y,1/2-x,1/2+z
y,x,1/2+z
loop_
_atom_site_type_symbol
_atom_site_label
_atom_site_fract_x
_atom_site_fract_y
_atom_site_fract_z
Si Si1 0.978757 0.591379 0.596928
Si Si2 0.851565 0.609589 0.950718
Si Si3 0.851506 0.646137 0.682232
Si Si4 0.847162 0.989140 0.528817
Si Si5 0.564528 0.344682 0.493984
Si Si6 0.503592 0.854229 0.757750
Si Si7 0.648195 0.985822 0.368079
O O1 0.906912 0.634850 0.632850
O O2 0.924447 0.511959 0.569397
O O3 0.007701 0.661248 0.555646
O O4 0.070632 0.559034 0.621944
O O5 0.750000 0.646520 0.948695
O O6 0.897022 0.631150 0.899522
O O7 0.902260 0.658514 0.994695
O O8 0.854635 0.503004 0.960757
O O9 0.750000 0.601858 0.680372
O O10 0.836942 0.750000 0.692238
O O11 0.914312 0.606712 0.725056
O O12 0.750000 0.001585 0.553835
O O13 0.866347 0.073050 0.493192
O O14 0.617238 0.250000 0.499023
O O15 0.480150 0.750000 0.744006
O O16 0.539900 0.860410 0.812118
O O17 0.413867 0.913867 0.750000
O O18 0.750000 0.023492 0.378281
#
# Coordination Sequence:
#
# PCOD8318593 Si02
#       7
#    16  16  16  16  16  16  16
#     4  11  19  36  55  79 110 146 185 230 274 329
#     4  10  20  36  55  77 110 144 178 227 280 326
#     4  10  21  37  58  84 113 144 181 229 282 332
#     4  11  21  34  53  80 111 147 188 229 272 328
#     4  10  20  34  53  77 107 149 188 223 270 324
#     4  10  21  37  58  83 112 146 182 224 272 330
#     4  11  21  34  56  82 108 142 183 227 277 328
#
# _framework density 18.305966999999999
#
# number of rings (size 3 to 8) (size 9 to 14) (size 15 to 20)
#    0.000    1.571    4.286    2.143    0.000    2.714 
#    0.000    1.429    0.000    1.286    0.000    0.000 
#    0.000    1.429    0.000    0.000    0.000    0.000 
#
# Total GULP energy -1387640.216743 kJ/mol
# GULP energy per Si atom -12389.644792 kJ/mol
# Density = 1.826430 g / cm^3
# Si number density = 18.305967 Si / 1000 Ang^3
#
#
#
# Elastic Constant Matrix: (Units=GPa)
#
#
# Indices 1 2 3 4 5 6 
#
# 1 89.4013 42.9566 23.3905 0.0000 0.0000 0.0000
# 2 42.9566 89.4013 23.3905 0.0000 0.0000 0.0000
# 3 23.3905 23.3905 90.6201 0.0000 0.0000 0.0000
# 4 0.0000 0.0000 0.0000 21.1768 0.0000 0.0000
# 5 0.0000 0.0000 0.0000 0.0000 21.1768 0.0000
# 6 0.0000 0.0000 0.0000 0.0000 0.0000 11.7336
#
#
#
# Elastic Compliance Matrix: (Units=1/GPa)
#
#
# Indices 1 2 3 4 5 6 
#
# 1 0.014922 -0.006609 -0.002146 0.000000 0.000000 0.000000
# 2 -0.006609 0.014922 -0.002146 0.000000 0.000000 0.000000
# 3 -0.002146 -0.002146 0.012143 0.000000 0.000000 0.000000
# 4 0.000000 0.000000 0.000000 0.047222 0.000000 0.000000
# 5 0.000000 0.000000 0.000000 0.000000 0.047222 0.000000
# 6 0.000000 0.000000 0.000000 0.000000 0.000000 0.085226
#
#
# Mechanical properties :
#
#
# Convention : Reuss Voigt Hill
#
# Bulk Modulus (GPa) = 49.53759 49.87756 49.70757
# Shear Modulus (GPa) = 19.98513 22.79643 21.39078
#
# Velocity S-wave (km/s) = 3.30771 3.53271 3.42206
# Velocity P-wave (km/s) = 6.45814 6.62916 6.54421
#
# Compressibility (1/GPa) = 0.02018669
#
# Stress axis : x y z
#
# Youngs Moduli (GPa) = 67.01357 67.01357 82.35289
#
# Poissons Ratio (x) = 0.44287 0.17672
# Poissons Ratio (y) = 0.44287 0.17672
# Poissons Ratio (z) = 0.14380 0.14380
#
# Static dielectric constant tensor:
#      x y z
#    x 3.414210 0.000000 0.000000 
#    y 0.000000 3.414210 0.000000 
#    z 0.000000 0.000000 3.413490 
# 
# 
# High freq. dielectric constant tensor:
#      x y z
#    x 1.701370 0.000000 0.000000 
#    y 0.000000 1.701370 0.000000 
#    z 0.000000 0.000000 1.705820 
# 
# From -- ./inp_files/9774.got.cif
#   From: 2010.03.12/outbox.cif.g09.slc.cpg/sg137_5_cif.got.tgz:9774.got - 2010.04.08 09:34:49.
