data_PCOD8318723
_publ_section_title
;
Structure prediction by ZEFSAII (Michael W. Deem and Ramdas Pophale) SiO2 
 PCOD8318723
Probable space group: P 42/N M C
;
_chemical_formula_sum "Si O2"
_cell_formula_units_Z 72
_cell_length_a 19.261035
_cell_length_b 19.261035
_cell_length_c 9.773481
_cell_angle_alpha 90.000000
_cell_angle_beta 90.000000
_cell_angle_gamma 90.000000
_cell_volume 3625.838982
_symmetry_space_group_name_H-M "P 42/N M C"
_symmetry_group_IT_number 137
_space_group.IT_coordinate_system_code '2'
_symmetry_cell_setting 'tetragonal'
loop_
_space_group_symop_operation_xyz
x,y,z
1/2-y,x,1/2+z
1/2-x,1/2-y,z
y,1/2-x,1/2+z
1/2+x,-y,-z
-x,1/2+y,-z
1/2+y,1/2+x,1/2-z
-y,-x,1/2-z
-x,-y,-z
1/2+y,-x,1/2-z
1/2+x,1/2+y,-z
-y,1/2+x,1/2-z
1/2-x,y,z
x,1/2-y,z
1/2-y,1/2-x,1/2+z
y,x,1/2+z
loop_
_atom_site_type_symbol
_atom_site_label
_atom_site_fract_x
_atom_site_fract_y
_atom_site_fract_z
Si Si1 0.537659 0.052854 0.902495
Si Si2 0.830260 0.590074 0.222874
Si Si3 0.172638 0.827363 0.750000
Si Si4 0.828286 0.452827 0.055464
Si Si5 0.434738 0.168580 0.963970
O O1 0.525866 0.025866 0.750000
O O2 0.506141 0.129241 0.927492
O O3 0.620176 0.048966 0.927457
O O4 0.500000 0.000000 0.000000
O O5 0.750000 0.610410 0.204615
O O6 0.846297 0.514344 0.160969
O O7 0.851118 0.589875 0.382600
O O8 0.874884 0.647335 0.142865
O O9 0.250000 0.837612 0.689463
O O10 0.119884 0.840760 0.628687
O O11 0.750000 0.460596 0.999428
O O12 0.449892 0.250000 0.951712
#
# Coordination Sequence:
#
# PCOD8318723 Si02
#       5
#    16  16   8  16  16
#     4  12  25  40  62  89 122 162 203 251 309 361
#     4  10  22  40  62  91 123 160 200 246 303 361
#     4   9  18  34  60  92 122 158 200 244 293 348
#     4  10  21  37  61  88 122 159 200 247 298 362
#     4  11  24  41  63  93 123 160 207 253 301 363
#
# _framework density 19.857472000000001
#
# number of rings (size 3 to 8) (size 9 to 14) (size 15 to 20)
#    0.000    1.444    2.222    2.667    1.556    4.889 
#    0.000    2.222    0.000    0.000    0.000    1.556 
#    0.000    0.000    0.000    0.000    0.000    0.000 
#
# Total GULP energy -892953.887344 kJ/mol
# GULP energy per Si atom -12402.137324 kJ/mol
# Density = 1.981228 g / cm^3
# Si number density = 19.857472 Si / 1000 Ang^3
#
#
#
# Elastic Constant Matrix: (Units=GPa)
#
#
# Indices 1 2 3 4 5 6 
#
# 1 103.5402 55.7807 60.2268 0.0000 0.0000 0.0000
# 2 55.7807 103.5390 60.2274 0.0000 0.0000 0.0000
# 3 60.2268 60.2274 144.2397 0.0000 0.0000 0.0000
# 4 0.0000 0.0000 0.0000 29.4658 0.0000 0.0000
# 5 0.0000 0.0000 0.0000 0.0000 29.4658 0.0000
# 6 0.0000 0.0000 0.0000 0.0000 0.0000 34.0332
#
#
#
# Elastic Compliance Matrix: (Units=1/GPa)
#
#
# Indices 1 2 3 4 5 6 
#
# 1 0.015055 -0.005883 -0.003830 0.000000 0.000000 0.000000
# 2 -0.005883 0.015056 -0.003830 0.000000 0.000000 0.000000
# 3 -0.003830 -0.003830 0.010131 0.000000 0.000000 0.000000
# 4 0.000000 0.000000 0.000000 0.033938 0.000000 0.000000
# 5 0.000000 0.000000 0.000000 0.000000 0.033938 0.000000
# 6 0.000000 0.000000 0.000000 0.000000 0.000000 0.029383
#
#
# Mechanical properties :
#
#
# Convention : Reuss Voigt Hill
#
# Bulk Modulus (GPa) = 76.00951 78.19875 77.10413
# Shear Modulus (GPa) = 29.59081 30.26523 29.92802
#
# Velocity S-wave (km/s) = 3.86445 3.90824 3.88640
# Velocity P-wave (km/s) = 7.63365 7.73507 7.68452
#
# Compressibility (1/GPa) = 0.01315625
#
# Stress axis : x y z
#
# Youngs Moduli (GPa) = 66.42220 66.42076 98.70491
#
# Poissons Ratio (x) = 0.39076 0.37801
# Poissons Ratio (y) = 0.39077 0.37804
# Poissons Ratio (z) = 0.25438 0.25439
#
# Static dielectric constant tensor:
#      x y z
#    x 3.816330 0.000000 0.000000 
#    y 0.000000 3.816330 0.000000 
#    z 0.000000 0.000000 3.391770 
# 
# 
# High freq. dielectric constant tensor:
#      x y z
#    x 1.783430 0.000000 0.000000 
#    y 0.000000 1.783430 0.000000 
#    z 0.000000 0.000000 1.765300 
# 
# From -- ./inp_files/1954.got.cif
#   From: 2010.03.12/outbox.cif.g09.slc.cpg/sg137_1_cif.got.tgz:1954.got - 2010.04.08 09:34:49.
