data_PCOD8318784
_publ_section_title
;
Structure prediction by ZEFSAII (Michael W. Deem and Ramdas Pophale) SiO2 
 PCOD8318784
Probable space group: P 42/N M C
;
_chemical_formula_sum "Si O2"
_cell_formula_units_Z 80
_cell_length_a 13.539417
_cell_length_b 13.539417
_cell_length_c 26.172683
_cell_angle_alpha 90.000000
_cell_angle_beta 90.000000
_cell_angle_gamma 90.000000
_cell_volume 4797.866655
_symmetry_space_group_name_H-M "P 42/N M C"
_symmetry_group_IT_number 137
_space_group.IT_coordinate_system_code '2'
_symmetry_cell_setting 'tetragonal'
loop_
_space_group_symop_operation_xyz
x,y,z
1/2-y,x,1/2+z
1/2-x,1/2-y,z
y,1/2-x,1/2+z
1/2+x,-y,-z
-x,1/2+y,-z
1/2+y,1/2+x,1/2-z
-y,-x,1/2-z
-x,-y,-z
1/2+y,-x,1/2-z
1/2+x,1/2+y,-z
-y,1/2+x,1/2-z
1/2-x,y,z
x,1/2-y,z
1/2-y,1/2-x,1/2+z
y,x,1/2+z
loop_
_atom_site_type_symbol
_atom_site_label
_atom_site_fract_x
_atom_site_fract_y
_atom_site_fract_z
Si Si1 0.003975 0.513303 0.876649
Si Si2 0.135400 0.499422 0.780188
Si Si3 0.864479 0.640441 0.310772
Si Si4 0.863126 0.363496 0.048374
Si Si5 0.638651 0.135376 0.929449
O O1 0.079291 0.478868 0.832869
O O2 0.064545 0.564920 0.921452
O O3 0.924243 0.588922 0.855187
O O4 0.945073 0.419333 0.897305
O O5 0.250000 0.517929 0.791814
O O6 0.116398 0.403887 0.745282
O O7 0.095464 0.595464 0.750000
O O8 0.750000 0.643746 0.323401
O O9 0.910713 0.750000 0.311328
O O10 0.750000 0.386273 0.063640
O O11 0.888025 0.250000 0.061766
O O12 0.880041 0.384466 0.988948
O O13 0.750000 0.100037 0.915034
O O14 0.627641 0.250000 0.916558
#
# Coordination Sequence:
#
# PCOD8318784 Si02
#       5
#    16  16  16  16  16
#     4  11  18  29  51  75  92 118 162 203 234 274
#     4   9  19  32  46  68  96 124 155 191 235 286
#     4   9  18  32  47  65  92 122 151 188 236 285
#     4   9  18  32  49  71 100 128 153 189 240 293
#     4   9  19  34  49  68  96 129 162 196 238 285
#
# _framework density 16.674077
#
# number of rings (size 3 to 8) (size 9 to 14) (size 15 to 20)
#    0.000    2.600    0.000    3.600    0.000    1.800 
#    0.000    0.000    0.000    1.800    0.000   21.000 
#    0.000    0.000    0.000    0.000    0.000    0.000 
#
# Total GULP energy -991918.405751 kJ/mol
# GULP energy per Si atom -12398.980072 kJ/mol
# Density = 1.663613 g / cm^3
# Si number density = 16.674077 Si / 1000 Ang^3
#
#
#
# Elastic Constant Matrix: (Units=GPa)
#
#
# Indices 1 2 3 4 5 6 
#
# 1 104.8360 58.1147 58.7382 0.0000 0.0000 0.0000
# 2 58.1147 104.8360 58.7382 0.0000 0.0000 0.0000
# 3 58.7382 58.7382 89.9934 0.0000 0.0000 0.0000
# 4 0.0000 0.0000 0.0000 24.9726 0.0000 0.0000
# 5 0.0000 0.0000 0.0000 0.0000 24.9726 0.0000
# 6 0.0000 0.0000 0.0000 0.0000 0.0000 31.5464
#
#
#
# Elastic Compliance Matrix: (Units=1/GPa)
#
#
# Indices 1 2 3 4 5 6 
#
# 1 0.016497 -0.004906 -0.007565 0.000000 0.000000 0.000000
# 2 -0.004906 0.016497 -0.007565 0.000000 0.000000 0.000000
# 3 -0.007565 -0.007565 0.020988 0.000000 0.000000 0.000000
# 4 0.000000 0.000000 0.000000 0.040044 0.000000 0.000000
# 5 0.000000 0.000000 0.000000 0.000000 0.040044 0.000000
# 6 0.000000 0.000000 0.000000 0.000000 0.000000 0.031699
#
#
# Mechanical properties :
#
#
# Convention : Reuss Voigt Hill
#
# Bulk Modulus (GPa) = 71.90030 72.31638 72.10834
# Shear Modulus (GPa) = 23.75533 24.56994 24.16263
#
# Velocity S-wave (km/s) = 3.77860 3.84284 3.81085
# Velocity P-wave (km/s) = 7.88997 7.94698 7.91853
#
# Compressibility (1/GPa) = 0.01390815
#
# Stress axis : x y z
#
# Youngs Moduli (GPa) = 60.61629 60.61629 47.64715
#
# Poissons Ratio (x) = 0.29740 0.36047
# Poissons Ratio (y) = 0.29740 0.36047
# Poissons Ratio (z) = 0.45858 0.45858
#
# Static dielectric constant tensor:
#      x y z
#    x 3.163440 0.000000 0.000000 
#    y 0.000000 3.163440 0.000000 
#    z 0.000000 0.000000 3.081640 
# 
# 
# High freq. dielectric constant tensor:
#      x y z
#    x 1.642170 0.000000 0.000000 
#    y 0.000000 1.642170 0.000000 
#    z 0.000000 0.000000 1.643620 
# 
# From -- ./inp_files/8694.got.cif
#   From: 2010.03.12/outbox.cif.g09.slc.cpg/sg137_5_cif.got.tgz:8694.got - 2010.04.08 09:34:49.
