data_PCOD8318326
_publ_section_title
;
Structure prediction by ZEFSAII (Michael W. Deem and Ramdas Pophale) SiO2 
 PCOD8318326
Probable space group: P 42/M N M
;
_chemical_formula_sum "Si O2"
_cell_formula_units_Z 72
_cell_length_a 17.233586
_cell_length_b 17.233586
_cell_length_c 18.090436
_cell_angle_alpha 90.000000
_cell_angle_beta 90.000000
_cell_angle_gamma 90.000000
_cell_volume 5372.795930
_symmetry_space_group_name_H-M "P 42/M N M"
_symmetry_group_IT_number 136
_symmetry_cell_setting 'tetragonal'
loop_
_space_group_symop_operation_xyz
x,y,z
1/2-y,1/2+x,1/2+z
-x,-y,z
1/2+y,1/2-x,1/2+z
1/2+x,1/2-y,1/2-z
1/2-x,1/2+y,1/2-z
y,x,-z
-y,-x,-z
-x,-y,-z
1/2+y,1/2-x,1/2-z
x,y,-z
1/2-y,1/2+x,1/2-z
1/2-x,1/2+y,1/2+z
1/2+x,1/2-y,1/2+z
-y,-x,z
y,x,z
loop_
_atom_site_type_symbol
_atom_site_label
_atom_site_fract_x
_atom_site_fract_y
_atom_site_fract_z
Si Si1 0.371957 0.500624 0.789190
Si Si2 0.698357 0.828626 0.917191
Si Si3 0.872754 0.003611 0.000000
Si Si4 0.207585 0.922803 0.417361
Si Si5 0.310041 0.559448 0.643462
O O1 0.423419 0.576582 0.804230
O O2 0.426378 0.426378 0.774660
O O3 0.316186 0.489708 0.859994
O O4 0.315582 0.510349 0.718717
O O5 0.764128 0.764128 0.918566
O O6 0.617531 0.788716 0.891730
O O7 0.726063 0.897750 0.862529
O O8 0.689159 0.862478 0.000000
O O9 0.819898 0.996923 0.926912
O O10 0.912260 0.087741 0.000000
O O11 0.936764 0.936764 0.000000
O O12 0.216675 0.958320 0.500000
O O13 0.141062 0.858939 0.419209
O O14 0.378994 0.621006 0.643166
#
# Coordination Sequence:
#
# PCOD8318326 Si02
#       5
#    16  16   8  16  16
#     4   9  16  23  30  45  72 100 120 138 166 210
#     4   8  12  20  33  47  62  84 117 151 177 199
#     4   9  14  18  26  42  66  96 119 132 159 205
#     4   8  14  23  34  46  63  90 121 151 178 201
#     4   9  14  20  30  45  67  92 116 143 169 200
#
# _framework density 13.400843999999999
#
# number of rings (size 3 to 8) (size 9 to 14) (size 15 to 20)
#    0.000    3.444    1.111    2.000    0.000    3.111 
#    0.000    2.222    0.000    0.000    0.000    0.000 
#    3.333    0.889    6.000    4.889    0.000    2.667 
#
# Total GULP energy -892018.696378 kJ/mol
# GULP energy per Si atom -12389.148561 kJ/mol
# Density = 1.337034 g / cm^3
# Si number density = 13.400844 Si / 1000 Ang^3
#
#
#
# Elastic Constant Matrix: (Units=GPa)
#
#
# Indices 1 2 3 4 5 6 
#
# 1 38.0953 31.4181 45.0609 0.0000 0.0000 0.0000
# 2 31.4181 38.0951 45.0608 0.0000 0.0000 0.0000
# 3 45.0609 45.0608 117.7284 0.0000 0.0000 0.0000
# 4 0.0000 0.0000 0.0000 7.4327 0.0000 0.0000
# 5 0.0000 0.0000 0.0000 0.0000 7.4327 0.0000
# 6 0.0000 0.0000 0.0000 0.0000 0.0000 16.0950
#
#
#
# Elastic Compliance Matrix: (Units=1/GPa)
#
#
# Indices 1 2 3 4 5 6 
#
# 1 0.089160 -0.060604 -0.010930 0.000000 0.000000 0.000000
# 2 -0.060604 0.089161 -0.010930 0.000000 0.000000 0.000000
# 3 -0.010930 -0.010930 0.016861 0.000000 0.000000 0.000000
# 4 0.000000 0.000000 0.000000 0.134541 0.000000 0.000000
# 5 0.000000 0.000000 0.000000 0.000000 0.134541 0.000000
# 6 0.000000 0.000000 0.000000 0.000000 0.000000 0.062131
#
#
# Mechanical properties :
#
#
# Convention : Reuss Voigt Hill
#
# Bulk Modulus (GPa) = 33.05408 48.55536 40.80472
# Shear Modulus (GPa) = 7.12853 11.01735 9.07294
#
# Velocity S-wave (km/s) = 2.30890 2.87041 2.60483
# Velocity P-wave (km/s) = 5.64156 6.87731 6.28986
#
# Compressibility (1/GPa) = 0.03025345
#
# Stress axis : x y z
#
# Youngs Moduli (GPa) = 11.21578 11.21572 59.30851
#
# Poissons Ratio (x) = 0.67972 0.64823
# Poissons Ratio (y) = 0.67973 0.64824
# Poissons Ratio (z) = 0.12259 0.12259
#
# Static dielectric constant tensor:
#      x y z
#    x 2.498060 0.000000 0.000000 
#    y 0.000000 2.498060 0.000000 
#    z 0.000000 0.000000 2.872210 
# 
# 
# High freq. dielectric constant tensor:
#      x y z
#    x 1.468240 0.000000 0.000000 
#    y 0.000000 1.468240 0.000000 
#    z 0.000000 0.000000 1.512670 
# 
# From -- ./inp_files/6177.got.cif
#   From: 2010.03.12/outbox.cif.g09.slc.cpg/sg136_4_cif.got.tgz:6177.got - 2010.04.06 18:39:43.
