data_PCOD8318915
_publ_section_title
;
Structure prediction by ZEFSAII (Michael W. Deem and Ramdas Pophale) SiO2 
 PCOD8318915
Probable space group: P 42/N C M
;
_chemical_formula_sum "Si O2"
_cell_formula_units_Z 64
_cell_length_a 14.150034
_cell_length_b 14.150034
_cell_length_c 15.010928
_cell_angle_alpha 90.000000
_cell_angle_beta 90.000000
_cell_angle_gamma 90.000000
_cell_volume 3005.539975
_symmetry_space_group_name_H-M "P 42/N C M"
_symmetry_group_IT_number 138
_space_group.IT_coordinate_system_code '2'
_symmetry_cell_setting 'tetragonal'
loop_
_space_group_symop_operation_xyz
x,y,z
1/2-y,x,1/2+z
1/2-x,1/2-y,z
y,1/2-x,1/2+z
1/2+x,-y,1/2-z
-x,1/2+y,1/2-z
1/2+y,1/2+x,-z
-y,-x,-z
-x,-y,-z
1/2+y,-x,1/2-z
1/2+x,1/2+y,-z
-y,1/2+x,1/2-z
1/2-x,y,1/2+z
x,1/2-y,1/2+z
1/2-y,1/2-x,z
y,x,z
loop_
_atom_site_type_symbol
_atom_site_label
_atom_site_fract_x
_atom_site_fract_y
_atom_site_fract_z
Si Si1 0.096674 0.245156 0.548563
Si Si2 0.845382 0.995461 0.103654
Si Si3 0.061263 0.285741 0.747185
Si Si4 0.135193 0.667120 0.278624
O O1 0.176854 0.323147 0.538548
O O2 0.142500 0.142500 0.526130
O O3 0.013059 0.273877 0.480147
O O4 0.055823 0.244220 0.647746
O O5 0.948237 0.948237 0.083548
O O6 0.801668 0.937507 0.185954
O O7 0.855458 0.106518 0.129753
O O8 0.155549 0.344452 0.764306
O O9 0.968589 0.352281 0.762817
O O10 0.140106 0.781936 0.292363
#
# Coordination Sequence:
#
# PCOD8318915 Si02
#       4
#    16  16  16  16
#     4   9  18  31  49  81 118 143 171 212 265 337
#     4  10  19  32  54  80 109 143 175 218 273 325
#     4  10  19  32  54  80 109 143 175 218 273 325
#     4   9  19  35  53  73  99 137 185 225 257 299
#
# _framework density 21.29401
#
# number of rings (size 3 to 8) (size 9 to 14) (size 15 to 20)
#    0.000    2.500    0.000    2.250    0.000    3.500 
#    0.000    3.750    0.000   61.500    0.000   57.750 
#    0.000    0.000    0.000    0.000    0.000    0.000 
#
# Total GULP energy -792859.312683 kJ/mol
# GULP energy per Si atom -12388.426761 kJ/mol
# Density = 2.124554 g / cm^3
# Si number density = 21.294010 Si / 1000 Ang^3
#
#
#
# Elastic Constant Matrix: (Units=GPa)
#
#
# Indices 1 2 3 4 5 6 
#
# 1 62.4864 26.5694 13.1758 0.0000 0.0000 0.0000
# 2 26.5694 62.4864 13.1758 0.0000 0.0000 0.0000
# 3 13.1758 13.1758 86.4545 0.0000 0.0000 0.0000
# 4 0.0000 0.0000 0.0000 18.5743 0.0000 0.0000
# 5 0.0000 0.0000 0.0000 0.0000 18.5743 0.0000
# 6 0.0000 0.0000 0.0000 0.0000 0.0000 25.4144
#
#
#
# Elastic Compliance Matrix: (Units=1/GPa)
#
#
# Indices 1 2 3 4 5 6 
#
# 1 0.019801 -0.008041 -0.001792 0.000000 0.000000 0.000000
# 2 -0.008041 0.019801 -0.001792 0.000000 0.000000 0.000000
# 3 -0.001792 -0.001792 0.012113 0.000000 0.000000 0.000000
# 4 0.000000 0.000000 0.000000 0.053838 0.000000 0.000000
# 5 0.000000 0.000000 0.000000 0.000000 0.053838 0.000000
# 6 0.000000 0.000000 0.000000 0.000000 0.000000 0.039348
#
#
# Mechanical properties :
#
#
# Convention : Reuss Voigt Hill
#
# Bulk Modulus (GPa) = 35.13342 35.25216 35.19279
# Shear Modulus (GPa) = 21.60048 23.07970 22.34009
#
# Velocity S-wave (km/s) = 3.18841 3.29577 3.24253
# Velocity P-wave (km/s) = 5.48540 5.57438 5.53007
#
# Compressibility (1/GPa) = 0.02846293
#
# Stress axis : x y z
#
# Youngs Moduli (GPa) = 50.50350 50.50350 82.55574
#
# Poissons Ratio (x) = 0.40612 0.14795
# Poissons Ratio (y) = 0.40612 0.14795
# Poissons Ratio (z) = 0.09051 0.09051
#
# Static dielectric constant tensor:
#      x y z
#    x 3.985220 0.000000 0.000000 
#    y 0.000000 3.985220 0.000000 
#    z 0.000000 0.000000 3.725700 
# 
# 
# High freq. dielectric constant tensor:
#      x y z
#    x 1.830250 0.000000 0.000000 
#    y 0.000000 1.830250 0.000000 
#    z 0.000000 0.000000 1.808210 
# 
# From -- ./inp_files/3879.got.cif
#   From: 2010.03.12/outbox.cif.g09.slc.cpg/sg138_2_cif.got.tgz:3879.got - 2010.04.08 09:41:05.
