data_PCOD8318476
_publ_section_title
;
Structure prediction by ZEFSAII (Michael W. Deem and Ramdas Pophale) SiO2 
 PCOD8318476
Probable space group: P 42/N M C
;
_chemical_formula_sum "Si O2"
_cell_formula_units_Z 112
_cell_length_a 14.694297
_cell_length_b 14.694297
_cell_length_c 26.492927
_cell_angle_alpha 90.000000
_cell_angle_beta 90.000000
_cell_angle_gamma 90.000000
_cell_volume 5720.415436
_symmetry_space_group_name_H-M "P 42/N M C"
_symmetry_group_IT_number 137
_space_group.IT_coordinate_system_code '2'
_symmetry_cell_setting 'tetragonal'
loop_
_space_group_symop_operation_xyz
x,y,z
1/2-y,x,1/2+z
1/2-x,1/2-y,z
y,1/2-x,1/2+z
1/2+x,-y,-z
-x,1/2+y,-z
1/2+y,1/2+x,1/2-z
-y,-x,1/2-z
-x,-y,-z
1/2+y,-x,1/2-z
1/2+x,1/2+y,-z
-y,1/2+x,1/2-z
1/2-x,y,z
x,1/2-y,z
1/2-y,1/2-x,1/2+z
y,x,1/2+z
loop_
_atom_site_type_symbol
_atom_site_label
_atom_site_fract_x
_atom_site_fract_y
_atom_site_fract_z
Si Si1 0.469975 0.644852 0.902262
Si Si2 0.016532 0.356696 0.868319
Si Si3 0.858251 0.150156 0.694883
Si Si4 0.147175 0.150294 0.536194
Si Si5 0.977892 0.144326 0.214648
Si Si6 0.978407 0.573627 0.540984
Si Si7 0.148258 0.355444 0.277371
O O1 0.439601 0.750000 0.910769
O O2 0.572631 0.627559 0.922232
O O3 0.466898 0.617032 0.843675
O O4 0.401068 0.575227 0.931740
O O5 0.016188 0.250000 0.880097
O O6 0.031612 0.409453 0.919283
O O7 0.093146 0.382637 0.827765
O O8 0.919351 0.391450 0.847567
O O9 0.888003 0.111998 0.750000
O O10 0.750000 0.156093 0.696065
O O11 0.899824 0.250000 0.683320
O O12 0.250000 0.136335 0.514971
O O13 0.138797 0.250000 0.562109
O O14 0.075660 0.152175 0.489117
O O15 0.907896 0.092105 0.250000
O O16 0.956628 0.250000 0.222225
O O17 0.081094 0.121179 0.231292
O O18 0.000000 0.500000 0.500000
O O19 0.250000 0.385748 0.260872
O O20 0.144885 0.250000 0.291547
#
# Coordination Sequence:
#
# PCOD8318476 Si02
#       7
#    16  16  16  16  16  16  16
#     4   9  19  35  54  76 103 140 181 218 263 315
#     4  10  19  31  50  75 102 135 172 212 265 322
#     4   8  15  29  48  72 104 138 170 204 244 299
#     4   9  18  34  57  83 107 132 168 218 277 336
#     4  10  20  35  56  80 110 148 186 224 263 308
#     4  10  20  34  51  72  99 132 170 216 261 309
#     4   9  19  34  52  78 108 135 168 213 266 323
#
# _framework density 19.578997999999999
#
# number of rings (size 3 to 8) (size 9 to 14) (size 15 to 20)
#    0.000    2.714    0.000    1.714    0.000    3.571 
#    0.000    7.857    0.000    1.286    0.000    0.000 
#    0.000    0.000    0.000    0.000    0.000    0.000 
#
# Total GULP energy -1387871.773305 kJ/mol
# GULP energy per Si atom -12391.712262 kJ/mol
# Density = 1.953444 g / cm^3
# Si number density = 19.578998 Si / 1000 Ang^3
#
#
#
# Elastic Constant Matrix: (Units=GPa)
#
#
# Indices 1 2 3 4 5 6 
#
# 1 65.8112 28.1804 37.4309 0.0000 0.0000 0.0000
# 2 28.1804 65.8087 37.4311 0.0000 0.0000 0.0000
# 3 37.4309 37.4311 108.3819 0.0000 0.0000 0.0000
# 4 0.0000 0.0000 0.0000 28.3466 0.0000 0.0000
# 5 0.0000 0.0000 0.0000 0.0000 28.3466 0.0000
# 6 0.0000 0.0000 0.0000 0.0000 0.0000 17.9087
#
#
#
# Elastic Compliance Matrix: (Units=1/GPa)
#
#
# Indices 1 2 3 4 5 6 
#
# 1 0.020625 -0.005949 -0.005069 0.000000 0.000000 0.000000
# 2 -0.005949 0.020626 -0.005069 0.000000 0.000000 0.000000
# 3 -0.005069 -0.005069 0.012728 0.000000 0.000000 0.000000
# 4 0.000000 0.000000 0.000000 0.035278 0.000000 0.000000
# 5 0.000000 0.000000 0.000000 0.000000 0.035278 0.000000
# 6 0.000000 0.000000 0.000000 0.000000 0.000000 0.055839
#
#
# Mechanical properties :
#
#
# Convention : Reuss Voigt Hill
#
# Bulk Modulus (GPa) = 45.85907 49.56517 47.71212
# Shear Modulus (GPa) = 22.74640 24.05100 23.39870
#
# Velocity S-wave (km/s) = 3.41218 3.50867 3.46076
# Velocity P-wave (km/s) = 6.24479 6.46411 6.35540
#
# Compressibility (1/GPa) = 0.02180594
#
# Stress axis : x y z
#
# Youngs Moduli (GPa) = 48.48434 48.48196 78.56866
#
# Poissons Ratio (x) = 0.28843 0.39823
# Poissons Ratio (y) = 0.28844 0.39826
# Poissons Ratio (z) = 0.24574 0.24575
#
# Static dielectric constant tensor:
#      x y z
#    x 3.748050 0.000000 0.000000 
#    y 0.000000 3.748040 0.000000 
#    z 0.000000 0.000000 3.498320 
# 
# 
# High freq. dielectric constant tensor:
#      x y z
#    x 1.756900 0.000000 0.000000 
#    y 0.000000 1.756900 0.000000 
#    z 0.000000 0.000000 1.755780 
# 
# From -- ./inp_files/9761.got.cif
#   From: 2010.03.12/outbox.cif.g09.slc.cpg/sg137_5_cif.got.tgz:9761.got - 2010.04.08 09:34:49.
