data_PCOD8318021
_publ_section_title
;
Structure prediction by ZEFSAII (Michael W. Deem and Ramdas Pophale) SiO2 
 PCOD8318021
Probable space group: P 42/M N M
;
_chemical_formula_sum "Si O2"
_cell_formula_units_Z 96
_cell_length_a 24.389574
_cell_length_b 24.389574
_cell_length_c 8.854869
_cell_angle_alpha 90.000000
_cell_angle_beta 90.000000
_cell_angle_gamma 90.000000
_cell_volume 5267.330512
_symmetry_space_group_name_H-M "P 42/M N M"
_symmetry_group_IT_number 136
_symmetry_cell_setting 'tetragonal'
loop_
_space_group_symop_operation_xyz
x,y,z
1/2-y,1/2+x,1/2+z
-x,-y,z
1/2+y,1/2-x,1/2+z
1/2+x,1/2-y,1/2-z
1/2-x,1/2+y,1/2-z
y,x,-z
-y,-x,-z
-x,-y,-z
1/2+y,1/2-x,1/2-z
x,y,-z
1/2-y,1/2+x,1/2-z
1/2-x,1/2+y,1/2+z
1/2+x,1/2-y,1/2+z
-y,-x,z
y,x,z
loop_
_atom_site_type_symbol
_atom_site_label
_atom_site_fract_x
_atom_site_fract_y
_atom_site_fract_z
Si Si1 0.696854 0.919749 0.678046
Si Si2 0.381522 0.381522 0.823072
Si Si3 0.289876 0.968754 0.828056
Si Si4 0.338878 0.485845 0.668871
Si Si5 0.294659 0.294659 0.820721
Si Si6 0.908039 0.821298 0.673226
Si Si7 0.685094 0.145432 0.320941
O O1 0.687852 0.925809 0.500000
O O2 0.758403 0.902149 0.721321
O O3 0.659010 0.871965 0.741910
O O4 0.681165 0.977521 0.756419
O O5 0.368620 0.442720 0.774327
O O6 0.338222 0.338222 0.751446
O O7 0.377324 0.377324 0.000000
O O8 0.225531 0.977241 0.823604
O O9 0.302006 0.916462 0.725511
O O10 0.310793 0.960417 0.000000
O O11 0.361576 0.479453 0.500000
O O12 0.352620 0.546398 0.728665
O O13 0.312895 0.233729 0.765783
O O14 0.296965 0.296965 0.000000
O O15 0.926476 0.825828 0.500000
O O16 0.849619 0.849619 0.703219
O O17 0.678545 0.148847 0.500000
#
# Coordination Sequence:
#
# PCOD8318021 Si02
#       7
#    16   8  16  16   8  16  16
#     4  10  21  36  56  83 112 146 183 223 271 325
#     4  11  19  33  54  76 105 143 181 220 271 331
#     4  10  20  36  56  79 108 145 185 224 269 325
#     4  10  20  33  51  77 105 136 179 228 276 322
#     4   9  20  33  51  80 114 147 179 216 271 324
#     4   9  19  36  55  74 102 142 185 224 268 326
#     4  11  21  36  56  83 116 148 183 227 271 322
#
# _framework density 18.225549000000001
#
# number of rings (size 3 to 8) (size 9 to 14) (size 15 to 20)
#    0.000    2.000    1.667    2.250    1.167    2.333 
#    0.000    1.667    0.000    3.000    0.000    3.500 
#    0.000    0.000    0.000    0.000    0.000    0.000 
#
# Total GULP energy -1190408.160245 kJ/mol
# GULP energy per Si atom -12400.085003 kJ/mol
# Density = 1.818407 g / cm^3
# Si number density = 18.225549 Si / 1000 Ang^3
#
#
#
# Elastic Constant Matrix: (Units=GPa)
#
#
# Indices 1 2 3 4 5 6 
#
# 1 68.0476 24.1910 17.1695 0.0000 0.0000 0.0000
# 2 24.1910 68.0476 17.1695 0.0000 0.0000 0.0000
# 3 17.1695 17.1695 65.3913 0.0000 0.0000 0.0000
# 4 0.0000 0.0000 0.0000 28.4654 0.0000 0.0000
# 5 0.0000 0.0000 0.0000 0.0000 28.4654 0.0000
# 6 0.0000 0.0000 0.0000 0.0000 0.0000 24.6534
#
#
#
# Elastic Compliance Matrix: (Units=1/GPa)
#
#
# Indices 1 2 3 4 5 6 
#
# 1 0.017409 -0.005393 -0.003155 0.000000 0.000000 0.000000
# 2 -0.005393 0.017409 -0.003155 0.000000 0.000000 0.000000
# 3 -0.003155 -0.003155 0.016949 0.000000 0.000000 0.000000
# 4 0.000000 0.000000 0.000000 0.035130 0.000000 0.000000
# 5 0.000000 0.000000 0.000000 0.000000 0.035130 0.000000
# 6 0.000000 0.000000 0.000000 0.000000 0.000000 0.040562
#
#
# Mechanical properties :
#
#
# Convention : Reuss Voigt Hill
#
# Bulk Modulus (GPa) = 35.25919 35.39404 35.32661
# Shear Modulus (GPa) = 25.58208 25.84728 25.71468
#
# Velocity S-wave (km/s) = 3.75058 3.76997 3.76029
# Velocity P-wave (km/s) = 6.17607 6.19777 6.18693
#
# Compressibility (1/GPa) = 0.02836140
#
# Stress axis : x y z
#
# Youngs Moduli (GPa) = 57.44220 57.44220 58.99934
#
# Poissons Ratio (x) = 0.30977 0.18614
# Poissons Ratio (y) = 0.30977 0.18614
# Poissons Ratio (z) = 0.18123 0.18123
#
# Static dielectric constant tensor:
#      x y z
#    x 3.364590 0.000000 0.000000 
#    y 0.000000 3.364590 0.000000 
#    z 0.000000 0.000000 3.451400 
# 
# 
# High freq. dielectric constant tensor:
#      x y z
#    x 1.695780 0.000000 0.000000 
#    y 0.000000 1.695780 0.000000 
#    z 0.000000 0.000000 1.711920 
# 
# From -- ./inp_files/2053.got.cif
#   From: 2010.03.12/outbox.cif.g09.slc.cpg/sg136_2_cif.got.tgz:2053.got - 2010.04.06 18:39:43.
