data_PCOD8318537
_publ_section_title
;
Structure prediction by ZEFSAII (Michael W. Deem and Ramdas Pophale) SiO2 
 PCOD8318537
Probable space group: P 42/N M C
;
_chemical_formula_sum "Si O2"
_cell_formula_units_Z 96
_cell_length_a 14.677172
_cell_length_b 14.677172
_cell_length_c 20.112579
_cell_angle_alpha 90.000000
_cell_angle_beta 90.000000
_cell_angle_gamma 90.000000
_cell_volume 4332.639256
_symmetry_space_group_name_H-M "P 42/N M C"
_symmetry_group_IT_number 137
_space_group.IT_coordinate_system_code '2'
_symmetry_cell_setting 'tetragonal'
loop_
_space_group_symop_operation_xyz
x,y,z
1/2-y,x,1/2+z
1/2-x,1/2-y,z
y,1/2-x,1/2+z
1/2+x,-y,-z
-x,1/2+y,-z
1/2+y,1/2+x,1/2-z
-y,-x,1/2-z
-x,-y,-z
1/2+y,-x,1/2-z
1/2+x,1/2+y,-z
-y,1/2+x,1/2-z
1/2-x,y,z
x,1/2-y,z
1/2-y,1/2-x,1/2+z
y,x,1/2+z
loop_
_atom_site_type_symbol
_atom_site_label
_atom_site_fract_x
_atom_site_fract_y
_atom_site_fract_z
Si Si1 0.351170 0.544467 0.804463
Si Si2 0.350667 0.393717 0.344801
Si Si3 0.851723 0.141929 0.435795
Si Si4 0.357509 0.149464 0.994676
Si Si5 0.855960 0.032872 0.943603
Si Si6 0.349152 0.901660 0.321767
O O1 0.424526 0.575475 0.750000
O O2 0.250000 0.581469 0.786041
O O3 0.341047 0.434764 0.811016
O O4 0.386982 0.587331 0.873121
O O5 0.250000 0.347862 0.332220
O O6 0.367064 0.404872 0.423594
O O7 0.352019 0.491383 0.310805
O O8 0.750000 0.100446 0.429627
O O9 0.845957 0.250000 0.440643
O O10 0.899078 0.099679 0.501803
O O11 0.250000 0.142579 0.981569
O O12 0.382882 0.250000 0.023227
O O13 0.392290 0.071201 0.045919
O O14 0.750000 0.030152 0.958443
O O15 0.872722 0.068260 0.869495
O O16 0.356805 0.856805 0.250000
O O17 0.250000 0.872105 0.351625
#
# Coordination Sequence:
#
# PCOD8318537 Si02
#       6
#    16  16  16  16  16  16
#     4  11  21  35  57  87 125 168 212 262 323 386
#     4  10  21  38  60  85 116 160 213 264 314 379
#     4   9  17  30  49  79 119 160 204 251 307 380
#     4   9  17  33  59  89 118 152 200 255 312 378
#     4  10  19  34  59  88 117 157 202 257 324 388
#     4  11  24  40  59  85 119 160 209 265 324 386
#
# _framework density 22.157395999999999
#
# number of rings (size 3 to 8) (size 9 to 14) (size 15 to 20)
#    0.000    2.000    1.667    2.500    0.000    4.333 
#    0.000    0.000    0.000    5.000    0.000    9.333 
#    0.000    0.000    0.000    0.000    0.000    0.167 
#
# Total GULP energy -1189839.745658 kJ/mol
# GULP energy per Si atom -12394.164017 kJ/mol
# Density = 2.210696 g / cm^3
# Si number density = 22.157396 Si / 1000 Ang^3
#
#
#
# Elastic Constant Matrix: (Units=GPa)
#
#
# Indices 1 2 3 4 5 6 
#
# 1 115.8023 25.2314 45.4942 0.0000 0.0000 0.0000
# 2 25.2314 115.8029 45.4949 0.0000 0.0000 0.0000
# 3 45.4942 45.4949 113.5854 0.0000 0.0000 0.0000
# 4 0.0000 0.0000 0.0000 27.3854 0.0000 0.0000
# 5 0.0000 0.0000 0.0000 0.0000 27.3852 0.0000
# 6 0.0000 0.0000 0.0000 0.0000 0.0000 20.3478
#
#
#
# Elastic Compliance Matrix: (Units=1/GPa)
#
#
# Indices 1 2 3 4 5 6 
#
# 1 0.010301 -0.000740 -0.003830 0.000000 0.000000 0.000000
# 2 -0.000740 0.010301 -0.003830 0.000000 0.000000 0.000000
# 3 -0.003830 -0.003830 0.011872 0.000000 0.000000 0.000000
# 4 0.000000 0.000000 0.000000 0.036516 0.000000 0.000000
# 5 0.000000 0.000000 0.000000 0.000000 0.036516 0.000000
# 6 0.000000 0.000000 0.000000 0.000000 0.000000 0.049145
#
#
# Mechanical properties :
#
#
# Convention : Reuss Voigt Hill
#
# Bulk Modulus (GPa) = 63.79266 64.18126 63.98696
# Shear Modulus (GPa) = 28.30067 30.28837 29.29452
#
# Velocity S-wave (km/s) = 3.57775 3.70126 3.64003
# Velocity P-wave (km/s) = 6.77645 6.87711 6.82697
#
# Compressibility (1/GPa) = 0.01567578
#
# Stress axis : x y z
#
# Youngs Moduli (GPa) = 97.07712 97.07711 84.23433
#
# Poissons Ratio (x) = 0.07183 0.32258
# Poissons Ratio (y) = 0.07183 0.32258
# Poissons Ratio (z) = 0.37176 0.37176
#
# Static dielectric constant tensor:
#      x y z
#    x 4.113830 0.000000 0.000000 
#    y 0.000000 4.113830 0.000000 
#    z 0.000000 0.000000 3.611120 
# 
# 
# High freq. dielectric constant tensor:
#      x y z
#    x 1.873480 0.000000 0.000000 
#    y 0.000000 1.873480 0.000000 
#    z 0.000000 0.000000 1.841080 
# 
# From -- ./inp_files/7831.got.cif
#   From: 2010.03.12/outbox.cif.g09.slc.cpg/sg137_4_cif.got.tgz:7831.got - 2010.04.08 09:34:49.
