data_PCOD8318400
_publ_section_title
;
Structure prediction by ZEFSAII (Michael W. Deem and Ramdas Pophale) SiO2 
 PCOD8318400
Probable space group: P 42/N M C
;
_chemical_formula_sum "Si O2"
_cell_formula_units_Z 84
_cell_length_a 19.301157
_cell_length_b 19.301157
_cell_length_c 12.826796
_cell_angle_alpha 90.000000
_cell_angle_beta 90.000000
_cell_angle_gamma 90.000000
_cell_volume 4778.426106
_symmetry_space_group_name_H-M "P 42/N M C"
_symmetry_group_IT_number 137
_space_group.IT_coordinate_system_code '2'
_symmetry_cell_setting 'tetragonal'
loop_
_space_group_symop_operation_xyz
x,y,z
1/2-y,x,1/2+z
1/2-x,1/2-y,z
y,1/2-x,1/2+z
1/2+x,-y,-z
-x,1/2+y,-z
1/2+y,1/2+x,1/2-z
-y,-x,1/2-z
-x,-y,-z
1/2+y,-x,1/2-z
1/2+x,1/2+y,-z
-y,1/2+x,1/2-z
1/2-x,y,z
x,1/2-y,z
1/2-y,1/2-x,1/2+z
y,x,1/2+z
loop_
_atom_site_type_symbol
_atom_site_label
_atom_site_fract_x
_atom_site_fract_y
_atom_site_fract_z
Si Si1 0.108717 0.750000 0.320704
Si Si2 0.881555 0.872104 0.489309
Si Si3 0.750000 0.400859 0.576125
Si Si4 0.750000 0.250000 0.929402
Si Si5 0.668924 0.750000 0.624260
Si Si6 0.250000 0.168664 0.631267
Si Si7 0.012376 0.628072 0.349838
Si Si8 0.013036 0.882397 0.109932
O O1 0.114504 0.750000 0.197802
O O2 0.185458 0.750000 0.356409
O O3 0.072544 0.683009 0.368632
O O4 0.869711 0.817333 0.580988
O O5 0.816129 0.871203 0.413077
O O6 0.894302 0.946500 0.539190
O O7 0.947602 0.851858 0.420542
O O8 0.750000 0.326292 0.511702
O O9 0.819679 0.444898 0.554113
O O10 0.750000 0.750000 0.592539
O O11 0.659539 0.750000 0.746409
O O12 0.250000 0.250000 0.599635
O O13 0.045406 0.555085 0.384764
O O14 0.989880 0.634111 0.228524
#
# Coordination Sequence:
#
# PCOD8318400 Si02
#       8
#     8  16   8   4   8   8  16  16
#     4  10  18  29  48  75 104 134 168 208 259 314
#     4  12  20  38  54  76 102 148 176 224 262 322
#     4  10  18  29  48  75 104 134 168 208 259 314
#     4  12  17  28  52  72 104 136 165 206 257 312
#     4  11  23  38  55  79 104 134 180 225 270 318
#     4  11  23  38  55  79 104 134 180 225 270 318
#     4  10  21  34  51  78 109 142 178 219 269 321
#     4  10  21  34  51  78 109 142 178 219 269 321
#
# _framework density 17.579011000000001
#
# number of rings (size 3 to 8) (size 9 to 14) (size 15 to 20)
#    0.000    1.333    3.810    3.714    0.000    0.000 
#    0.000    0.000    0.000    0.000    0.000    0.000 
#    0.000    0.000    0.000   13.333    0.000    1.143 
#
# Total GULP energy -1041197.071192 kJ/mol
# GULP energy per Si atom -12395.203228 kJ/mol
# Density = 1.753900 g / cm^3
# Si number density = 17.579011 Si / 1000 Ang^3
#
#
#
# Elastic Constant Matrix: (Units=GPa)
#
#
# Indices 1 2 3 4 5 6 
#
# 1 101.1310 21.9822 34.3300 0.0000 0.0000 0.0000
# 2 21.9822 101.1310 34.3300 0.0000 0.0000 0.0000
# 3 34.3300 34.3300 74.3871 0.0000 0.0000 0.0000
# 4 0.0000 0.0000 0.0000 24.9777 0.0000 0.0000
# 5 0.0000 0.0000 0.0000 0.0000 24.9777 0.0000
# 6 0.0000 0.0000 0.0000 0.0000 0.0000 42.8595
#
#
#
# Elastic Compliance Matrix: (Units=1/GPa)
#
#
# Indices 1 2 3 4 5 6 
#
# 1 0.011786 -0.000848 -0.005048 0.000000 0.000000 0.000000
# 2 -0.000848 0.011786 -0.005048 0.000000 0.000000 0.000000
# 3 -0.005048 -0.005048 0.018102 0.000000 0.000000 0.000000
# 4 0.000000 0.000000 0.000000 0.040036 0.000000 0.000000
# 5 0.000000 0.000000 0.000000 0.000000 0.040036 0.000000
# 6 0.000000 0.000000 0.000000 0.000000 0.000000 0.023332
#
#
# Mechanical properties :
#
#
# Convention : Reuss Voigt Hill
#
# Bulk Modulus (GPa) = 50.53927 50.88151 50.71039
# Shear Modulus (GPa) = 28.80822 30.96344 29.88583
#
# Velocity S-wave (km/s) = 4.05258 4.20144 4.12768
# Velocity P-wave (km/s) = 7.12110 7.24869 7.18518
#
# Compressibility (1/GPa) = 0.01978659
#
# Stress axis : x y z
#
# Youngs Moduli (GPa) = 84.84568 84.84568 55.24131
#
# Poissons Ratio (x) = 0.07198 0.27885
# Poissons Ratio (y) = 0.07198 0.27885
# Poissons Ratio (z) = 0.42829 0.42829
#
# Static dielectric constant tensor:
#      x y z
#    x 3.516770 0.000000 0.000000 
#    y 0.000000 3.516770 0.000000 
#    z 0.000000 0.000000 2.971580 
# 
# 
# High freq. dielectric constant tensor:
#      x y z
#    x 1.691400 0.000000 0.000000 
#    y 0.000000 1.691400 0.000000 
#    z 0.000000 0.000000 1.644980 
# 
# From -- ./inp_files/3716.got.cif
#   From: 2010.03.12/outbox.cif.g09.slc.cpg/sg137_2_cif.got.tgz:3716.got - 2010.04.08 09:34:49.
