data_PCOD8318524
_publ_section_title
;
Structure prediction by ZEFSAII (Michael W. Deem and Ramdas Pophale) SiO2 
 PCOD8318524
Probable space group: P 42/N M C
;
_chemical_formula_sum "Si O2"
_cell_formula_units_Z 80
_cell_length_a 12.832974
_cell_length_b 12.832974
_cell_length_c 27.389396
_cell_angle_alpha 90.000000
_cell_angle_beta 90.000000
_cell_angle_gamma 90.000000
_cell_volume 4510.628752
_symmetry_space_group_name_H-M "P 42/N M C"
_symmetry_group_IT_number 137
_space_group.IT_coordinate_system_code '2'
_symmetry_cell_setting 'tetragonal'
loop_
_space_group_symop_operation_xyz
x,y,z
1/2-y,x,1/2+z
1/2-x,1/2-y,z
y,1/2-x,1/2+z
1/2+x,-y,-z
-x,1/2+y,-z
1/2+y,1/2+x,1/2-z
-y,-x,1/2-z
-x,-y,-z
1/2+y,-x,1/2-z
1/2+x,1/2+y,-z
-y,1/2+x,1/2-z
1/2-x,y,z
x,1/2-y,z
1/2-y,1/2-x,1/2+z
y,x,1/2+z
loop_
_atom_site_type_symbol
_atom_site_label
_atom_site_fract_x
_atom_site_fract_y
_atom_site_fract_z
Si Si1 0.002276 0.492283 0.423910
Si Si2 0.373313 0.133306 0.642595
Si Si3 0.367985 0.129542 0.345435
Si Si4 0.036010 0.129328 0.243266
Si Si5 0.627516 0.372279 0.501869
O O1 0.056376 0.436355 0.378925
O O2 0.089442 0.557477 0.452969
O O3 0.916238 0.570137 0.403172
O O4 0.941909 0.406047 0.455650
O O5 0.250000 0.128739 0.640219
O O6 0.415382 0.250000 0.637459
O O7 0.413580 0.090584 0.694488
O O8 0.250000 0.097910 0.357295
O O9 0.388336 0.250000 0.357023
O O10 0.388361 0.105780 0.288608
O O11 0.009726 0.250000 0.238452
O O12 0.925864 0.074137 0.250000
O O13 0.750000 0.393768 0.492487
O O14 0.608118 0.250000 0.512291
#
# Coordination Sequence:
#
# PCOD8318524 Si02
#       5
#    16  16  16  16  16
#     4  11  20  35  58  78 102 137 176 221 262 306
#     4  10  20  34  54  80 107 138 177 216 257 306
#     4  10  20  34  54  80 107 138 177 216 257 306
#     4  10  19  34  53  78 112 144 171 208 256 308
#     4  10  22  38  54  76 106 138 172 214 270 324
#
# _framework density 17.735887000000002
#
# number of rings (size 3 to 8) (size 9 to 14) (size 15 to 20)
#    0.000    1.800    2.000    3.000    0.000    2.600 
#    0.000    0.000    0.000    9.600    0.000    1.400 
#    0.000    0.000    0.000    0.000    0.000    0.000 
#
# Total GULP energy -992102.062287 kJ/mol
# GULP energy per Si atom -12401.275779 kJ/mol
# Density = 1.769552 g / cm^3
# Si number density = 17.735887 Si / 1000 Ang^3
#
#
#
# Elastic Constant Matrix: (Units=GPa)
#
#
# Indices 1 2 3 4 5 6 
#
# 1 64.8398 37.3110 15.7822 0.0000 0.0000 0.0000
# 2 37.3110 64.8384 15.7842 0.0000 0.0000 0.0000
# 3 15.7822 15.7842 62.4838 0.0000 0.0000 0.0000
# 4 0.0000 0.0000 0.0000 29.6473 0.0000 0.0000
# 5 0.0000 0.0000 0.0000 0.0000 29.6474 0.0000
# 6 0.0000 0.0000 0.0000 0.0000 0.0000 28.8699
#
#
#
# Elastic Compliance Matrix: (Units=1/GPa)
#
#
# Indices 1 2 3 4 5 6 
#
# 1 0.023472 -0.012854 -0.002681 0.000000 0.000000 0.000000
# 2 -0.012854 0.023473 -0.002683 0.000000 0.000000 0.000000
# 3 -0.002681 -0.002683 0.017359 0.000000 0.000000 0.000000
# 4 0.000000 0.000000 0.000000 0.033730 0.000000 0.000000
# 5 0.000000 0.000000 0.000000 0.000000 0.033730 0.000000
# 6 0.000000 0.000000 0.000000 0.000000 0.000000 0.034638
#
#
# Mechanical properties :
#
#
# Convention : Reuss Voigt Hill
#
# Bulk Modulus (GPa) = 35.88446 36.65743 36.27094
# Shear Modulus (GPa) = 23.57070 25.85189 24.71130
#
# Velocity S-wave (km/s) = 3.64948 3.82200 3.73673
# Velocity P-wave (km/s) = 6.16724 6.33958 6.25400
#
# Compressibility (1/GPa) = 0.02786722
#
# Stress axis : x y z
#
# Youngs Moduli (GPa) = 42.60402 42.60229 57.60647
#
# Poissons Ratio (x) = 0.54761 0.15447
# Poissons Ratio (y) = 0.54764 0.15455
# Poissons Ratio (z) = 0.11424 0.11430
#
# Static dielectric constant tensor:
#      x y z
#    x 3.280490 0.000000 0.000000 
#    y 0.000000 3.280500 0.000000 
#    z 0.000000 0.000000 3.367970 
# 
# 
# High freq. dielectric constant tensor:
#      x y z
#    x 1.687750 0.000000 0.000000 
#    y 0.000000 1.687750 0.000000 
#    z 0.000000 0.000000 1.696250 
# 
# From -- ./inp_files/10278.got.cif
#   From: 2010.03.12/outbox.cif.g09.slc.cpg/sg137_6_cif.got.tgz:10278.got - 2010.04.08 09:34:49.
