data_PCOD8318359
_publ_section_title
;
Structure prediction by ZEFSAII (Michael W. Deem and Ramdas Pophale) SiO2 
 PCOD8318359
Probable space group: P 42/N M C
;
_chemical_formula_sum "Si O2"
_cell_formula_units_Z 96
_cell_length_a 22.328323
_cell_length_b 22.328323
_cell_length_c 12.394096
_cell_angle_alpha 90.000000
_cell_angle_beta 90.000000
_cell_angle_gamma 90.000000
_cell_volume 6179.126236
_symmetry_space_group_name_H-M "P 42/N M C"
_symmetry_group_IT_number 137
_space_group.IT_coordinate_system_code '2'
_symmetry_cell_setting 'tetragonal'
loop_
_space_group_symop_operation_xyz
x,y,z
1/2-y,x,1/2+z
1/2-x,1/2-y,z
y,1/2-x,1/2+z
1/2+x,-y,-z
-x,1/2+y,-z
1/2+y,1/2+x,1/2-z
-y,-x,1/2-z
-x,-y,-z
1/2+y,-x,1/2-z
1/2+x,1/2+y,-z
-y,1/2+x,1/2-z
1/2-x,y,z
x,1/2-y,z
1/2-y,1/2-x,1/2+z
y,x,1/2+z
loop_
_atom_site_type_symbol
_atom_site_label
_atom_site_fract_x
_atom_site_fract_y
_atom_site_fract_z
Si Si1 0.110884 0.116968 0.163724
Si Si2 0.069931 0.183353 0.850066
Si Si3 0.066084 0.526229 0.867522
Si Si4 0.817141 0.651618 0.027155
Si Si5 0.535899 0.816904 0.660521
Si Si6 0.979436 0.914798 0.011163
O O1 0.146449 0.070267 0.239004
O O2 0.069977 0.162661 0.231189
O O3 0.159234 0.155576 0.095676
O O4 0.069145 0.078139 0.084477
O O5 0.045140 0.250000 0.830387
O O6 0.137992 0.187758 0.895189
O O7 0.025832 0.150911 0.935813
O O8 0.045048 0.545048 0.750000
O O9 0.138146 0.518872 0.867086
O O10 0.035155 0.462822 0.895885
O O11 0.045041 0.574559 0.958108
O O12 0.750000 0.678668 0.034986
O O13 0.817697 0.581966 0.061184
O O14 0.509987 0.750000 0.678044
#
# Coordination Sequence:
#
# PCOD8318359 Si02
#       6
#    16  16  16  16  16  16
#     4  10  16  31  45  67  86 125 158 192 237 271
#     4  10  19  30  43  65  93 120 157 199 239 275
#     4  11  18  32  49  68  91 119 156 196 241 291
#     4   9  18  31  44  60  87 125 166 197 226 267
#     4  10  19  31  46  66  93 121 156 197 236 281
#     4  10  19  30  49  68  91 119 157 199 236 285
#
# _framework density 15.536175999999999
#
# number of rings (size 3 to 8) (size 9 to 14) (size 15 to 20)
#    0.000    2.000    6.667    0.500    0.000    3.000 
#    0.000    0.000    0.000    7.000    0.000    0.000 
#    0.000    2.333    0.000    0.000    0.000    3.500 
#
# Total GULP energy -1189835.601351 kJ/mol
# GULP energy per Si atom -12394.120847 kJ/mol
# Density = 1.550081 g / cm^3
# Si number density = 15.536176 Si / 1000 Ang^3
#
#
#
# Elastic Constant Matrix: (Units=GPa)
#
#
# Indices 1 2 3 4 5 6 
#
# 1 65.7163 37.1171 22.1621 0.0000 0.0000 0.0000
# 2 37.1171 65.7163 22.1621 0.0000 0.0000 0.0000
# 3 22.1621 22.1621 63.9690 0.0000 0.0000 0.0000
# 4 0.0000 0.0000 0.0000 14.8485 0.0000 0.0000
# 5 0.0000 0.0000 0.0000 0.0000 14.8485 0.0000
# 6 0.0000 0.0000 0.0000 0.0000 0.0000 15.9833
#
#
#
# Elastic Compliance Matrix: (Units=1/GPa)
#
#
# Indices 1 2 3 4 5 6 
#
# 1 0.023199 -0.011767 -0.003960 0.000000 0.000000 0.000000
# 2 -0.011767 0.023199 -0.003960 0.000000 0.000000 0.000000
# 3 -0.003960 -0.003960 0.018377 0.000000 0.000000 0.000000
# 4 0.000000 0.000000 0.000000 0.067347 0.000000 0.000000
# 5 0.000000 0.000000 0.000000 0.000000 0.067347 0.000000
# 6 0.000000 0.000000 0.000000 0.000000 0.000000 0.062565
#
#
# Mechanical properties :
#
#
# Convention : Reuss Voigt Hill
#
# Bulk Modulus (GPa) = 39.37316 39.80936 39.59126
# Shear Modulus (GPa) = 16.13547 16.73339 16.43443
#
# Velocity S-wave (km/s) = 3.22619 3.28542 3.25594
# Velocity P-wave (km/s) = 6.26703 6.33019 6.29869
#
# Compressibility (1/GPa) = 0.02539801
#
# Stress axis : x y z
#
# Youngs Moduli (GPa) = 43.10568 43.10568 54.41647
#
# Poissons Ratio (x) = 0.50724 0.21551
# Poissons Ratio (y) = 0.50724 0.21551
# Poissons Ratio (z) = 0.17072 0.17072
#
# Static dielectric constant tensor:
#      x y z
#    x 2.888600 0.000000 0.000000 
#    y 0.000000 2.888600 0.000000 
#    z 0.000000 0.000000 3.173730 
# 
# 
# High freq. dielectric constant tensor:
#      x y z
#    x 1.562800 0.000000 0.000000 
#    y 0.000000 1.562800 0.000000 
#    z 0.000000 0.000000 1.614140 
# 
# From -- ./inp_files/3855.got.cif
#   From: 2010.03.12/outbox.cif.g09.slc.cpg/sg137_2_cif.got.tgz:3855.got - 2010.04.08 09:34:49.
