data_PCOD8318974
_publ_section_title
;
Structure prediction by ZEFSAII (Michael W. Deem and Ramdas Pophale) SiO2 
 PCOD8318974
Probable space group: P 42/N C M
;
_chemical_formula_sum "Si O2"
_cell_formula_units_Z 96
_cell_length_a 23.372319
_cell_length_b 23.372319
_cell_length_c 12.086288
_cell_angle_alpha 90.000000
_cell_angle_beta 90.000000
_cell_angle_gamma 90.000000
_cell_volume 6602.319685
_symmetry_space_group_name_H-M "P 42/N C M"
_symmetry_group_IT_number 138
_space_group.IT_coordinate_system_code '2'
_symmetry_cell_setting 'tetragonal'
loop_
_space_group_symop_operation_xyz
x,y,z
1/2-y,x,1/2+z
1/2-x,1/2-y,z
y,1/2-x,1/2+z
1/2+x,-y,1/2-z
-x,1/2+y,1/2-z
1/2+y,1/2+x,-z
-y,-x,-z
-x,-y,-z
1/2+y,-x,1/2-z
1/2+x,1/2+y,-z
-y,1/2+x,1/2-z
1/2-x,y,1/2+z
x,1/2-y,1/2+z
1/2-y,1/2-x,z
y,x,z
loop_
_atom_site_type_symbol
_atom_site_label
_atom_site_fract_x
_atom_site_fract_y
_atom_site_fract_z
Si Si1 0.324446 0.420404 0.889551
Si Si2 0.121201 0.027699 0.472496
Si Si3 0.110584 0.485845 0.215785
Si Si4 0.479508 0.923962 0.235919
Si Si5 0.607161 0.699530 0.664190
Si Si6 0.553549 0.648397 0.874647
O O1 0.373258 0.373258 0.891838
O O2 0.338286 0.469302 0.798888
O O3 0.266434 0.387108 0.859948
O O4 0.319406 0.452563 0.008074
O O5 0.063705 0.063705 0.486349
O O6 0.136719 0.002748 0.593468
O O7 0.172580 0.067257 0.430173
O O8 0.108352 0.977551 0.383299
O O9 0.065134 0.434867 0.213426
O O10 0.080253 0.544106 0.258615
O O11 0.492619 0.877501 0.332619
O O12 0.531874 0.968127 0.232083
O O13 0.669709 0.669709 0.661062
O O14 0.578754 0.691856 0.784254
O O15 0.596004 0.596004 0.891097
#
# Coordination Sequence:
#
# PCOD8318974 Si02
#       6
#    16  16  16  16  16  16
#     4  10  20  29  39  57  79 102 137 181 212 245
#     4   8  14  25  41  59  75  96 130 166 199 238
#     4   9  16  24  38  62  82  95 120 165 208 244
#     4   8  13  24  42  59  78 100 119 151 203 256
#     4   9  18  31  44  52  70 107 144 181 213 236
#     4   8  16  30  42  55  74 100 131 162 206 258
#
# _framework density 14.540343
#
# number of rings (size 3 to 8) (size 9 to 14) (size 15 to 20)
#    0.000    3.333    0.000    2.500    2.333    3.000 
#    0.000    3.333    0.000    3.000    0.000    0.000 
#    0.000    0.000    0.000    0.000    0.000   13.333 
#
# Total GULP energy -1189544.417844 kJ/mol
# GULP energy per Si atom -12391.087686 kJ/mol
# Density = 1.450725 g / cm^3
# Si number density = 14.540343 Si / 1000 Ang^3
#
#
#
# Elastic Constant Matrix: (Units=GPa)
#
#
# Indices 1 2 3 4 5 6 
#
# 1 36.8871 33.7843 38.6605 0.0000 0.0000 0.0000
# 2 33.7843 36.8871 38.6605 0.0000 0.0000 0.0000
# 3 38.6605 38.6605 111.3832 0.0000 0.0000 0.0000
# 4 0.0000 0.0000 0.0000 12.9994 0.0000 0.0000
# 5 0.0000 0.0000 0.0000 0.0000 12.9994 0.0000
# 6 0.0000 0.0000 0.0000 0.0000 0.0000 12.3583
#
#
#
# Elastic Compliance Matrix: (Units=1/GPa)
#
#
# Indices 1 2 3 4 5 6 
#
# 1 0.172547 -0.149733 -0.007918 0.000000 0.000000 0.000000
# 2 -0.149733 0.172547 -0.007918 0.000000 0.000000 0.000000
# 3 -0.007918 -0.007918 0.014475 0.000000 0.000000 0.000000
# 4 0.000000 0.000000 0.000000 0.076927 0.000000 0.000000
# 5 0.000000 0.000000 0.000000 0.000000 0.076927 0.000000
# 6 0.000000 0.000000 0.000000 0.000000 0.000000 0.080917
#
#
# Mechanical properties :
#
#
# Convention : Reuss Voigt Hill
#
# Bulk Modulus (GPa) = 35.17641 45.26312 40.21976
# Shear Modulus (GPa) = 5.34785 12.60823 8.97804
#
# Velocity S-wave (km/s) = 1.91988 2.94789 2.48756
# Velocity P-wave (km/s) = 5.39994 6.54092 5.99762
#
# Compressibility (1/GPa) = 0.02842814
#
# Stress axis : x y z
#
# Youngs Moduli (GPa) = 5.79553 5.79553 69.08501
#
# Poissons Ratio (x) = 0.86778 0.54705
# Poissons Ratio (y) = 0.86778 0.54705
# Poissons Ratio (z) = 0.04589 0.04589
#
# Static dielectric constant tensor:
#      x y z
#    x 2.526530 0.000000 0.000000 
#    y 0.000000 2.526530 0.000000 
#    z 0.000000 0.000000 3.267790 
# 
# 
# High freq. dielectric constant tensor:
#      x y z
#    x 1.511570 0.000000 0.000000 
#    y 0.000000 1.511570 0.000000 
#    z 0.000000 0.000000 1.574520 
# 
# From -- ./inp_files/3214.got.cif
#   From: 2010.03.12/outbox.cif.g09.slc.cpg/sg138_2_cif.got.tgz:3214.got - 2010.04.08 09:41:05.
