data_PCOD8318358
_publ_section_title
;
Structure prediction by ZEFSAII (Michael W. Deem and Ramdas Pophale) SiO2 
 PCOD8318358
Probable space group: P 42/N M C
;
_chemical_formula_sum "Si O2"
_cell_formula_units_Z 80
_cell_length_a 26.542777
_cell_length_b 26.542777
_cell_length_c 5.287539
_cell_angle_alpha 90.000000
_cell_angle_beta 90.000000
_cell_angle_gamma 90.000000
_cell_volume 3725.171746
_symmetry_space_group_name_H-M "P 42/N M C"
_symmetry_group_IT_number 137
_space_group.IT_coordinate_system_code '2'
_symmetry_cell_setting 'tetragonal'
loop_
_space_group_symop_operation_xyz
x,y,z
1/2-y,x,1/2+z
1/2-x,1/2-y,z
y,1/2-x,1/2+z
1/2+x,-y,-z
-x,1/2+y,-z
1/2+y,1/2+x,1/2-z
-y,-x,1/2-z
-x,-y,-z
1/2+y,-x,1/2-z
1/2+x,1/2+y,-z
-y,1/2+x,1/2-z
1/2-x,y,z
x,1/2-y,z
1/2-y,1/2-x,1/2+z
y,x,1/2+z
loop_
_atom_site_type_symbol
_atom_site_label
_atom_site_fract_x
_atom_site_fract_y
_atom_site_fract_z
Si Si1 0.191511 0.004820 0.045223
Si Si2 0.349611 0.543389 0.547734
Si Si3 0.979746 0.555406 0.899853
Si Si4 0.150047 0.807722 0.998313
Si Si5 0.371303 0.103695 0.064753
O O1 0.250000 0.014425 0.016159
O O2 0.164361 0.057485 0.006119
O O3 0.180507 0.983281 0.322146
O O4 0.173556 0.967816 0.823036
O O5 0.408097 0.526443 0.535494
O O6 0.345935 0.602988 0.507138
O O7 0.986891 0.529775 0.620554
O O8 0.929105 0.588113 0.871081
O O9 0.182322 0.817679 0.250000
O O10 0.130977 0.750000 0.002145
O O11 0.184013 0.815988 0.750000
O O12 0.356735 0.131065 0.330215
#
# Coordination Sequence:
#
# PCOD8318358 Si02
#       5
#    16  16  16  16  16
#     4  12  21  31  53  90 127 160 203 255 312 359
#     4  12  22  39  63  92 128 159 198 258 316 366
#     4  10  16  31  56  85 116 172 205 233 291 358
#     4  12  28  50  74  99 126 160 205 261 324 384
#     4  10  16  30  48  76 113 168 205 242 292 352
#
# _framework density 21.475519999999999
#
# number of rings (size 3 to 8) (size 9 to 14) (size 15 to 20)
#    0.000    0.800    8.000    3.600    0.000    1.200 
#    0.000    0.000    0.000    3.600    0.000    0.000 
#    0.000    2.400    0.000    0.000    0.000    0.000 
#
# Total GULP energy -992169.331558 kJ/mol
# GULP energy per Si atom -12402.116644 kJ/mol
# Density = 2.142664 g / cm^3
# Si number density = 21.475520 Si / 1000 Ang^3
#
#
#
# Elastic Constant Matrix: (Units=GPa)
#
#
# Indices 1 2 3 4 5 6 
#
# 1 63.5775 61.8840 32.7471 0.0000 0.0000 0.0000
# 2 61.8840 63.5800 32.7478 0.0000 0.0000 0.0000
# 3 32.7471 32.7478 179.7601 0.0000 0.0000 0.0000
# 4 0.0000 0.0000 0.0000 26.1792 0.0000 0.0000
# 5 0.0000 0.0000 0.0000 0.0000 26.1797 0.0000
# 6 0.0000 0.0000 0.0000 0.0000 0.0000 20.4318
#
#
#
# Elastic Compliance Matrix: (Units=1/GPa)
#
#
# Indices 1 2 3 4 5 6 
#
# 1 0.299433 -0.290619 -0.001604 0.000000 0.000000 0.000000
# 2 -0.290619 0.299422 -0.001605 0.000000 0.000000 0.000000
# 3 -0.001604 -0.001605 0.006148 0.000000 0.000000 0.000000
# 4 0.000000 0.000000 0.000000 0.038198 0.000000 0.000000
# 5 0.000000 0.000000 0.000000 0.000000 0.038198 0.000000
# 6 0.000000 0.000000 0.000000 0.000000 0.000000 0.048943
#
#
# Mechanical properties :
#
#
# Convention : Reuss Voigt Hill
#
# Bulk Modulus (GPa) = 57.65198 62.40839 60.03019
# Shear Modulus (GPa) = 3.77706 26.52739 15.15222
#
# Velocity S-wave (km/s) = 1.32763 3.51841 2.65912
# Velocity P-wave (km/s) = 5.40868 6.75492 6.11894
#
# Compressibility (1/GPa) = 0.01734546
#
# Stress axis : x y z
#
# Youngs Moduli (GPa) = 3.33964 3.33977 162.66503
#
# Poissons Ratio (x) = 0.97060 0.26099
# Poissons Ratio (y) = 0.97057 0.26104
# Poissons Ratio (z) = 0.00536 0.00536
#
# Static dielectric constant tensor:
#      x y z
#    x 3.677380 0.000000 0.000000 
#    y 0.000000 3.677380 0.000000 
#    z 0.000000 0.000000 4.895850 
# 
# 
# High freq. dielectric constant tensor:
#      x y z
#    x 1.819910 0.000000 0.000000 
#    y 0.000000 1.819910 0.000000 
#    z 0.000000 0.000000 1.892890 
# 
# From -- ./inp_files/567.got.cif
#   From: 2010.03.12/outbox.cif.g09.slc.cpg/sg137_1_cif.got.tgz:567.got - 2010.04.08 09:34:49.
