data_PCOD8318996
_publ_section_title
;
Structure prediction by ZEFSAII (Michael W. Deem and Ramdas Pophale) SiO2 
 PCOD8318996
Probable space group: P 42/N C M
;
_chemical_formula_sum "Si O2"
_cell_formula_units_Z 36
_cell_length_a 10.132165
_cell_length_b 10.132165
_cell_length_c 16.661126
_cell_angle_alpha 90.000000
_cell_angle_beta 90.000000
_cell_angle_gamma 90.000000
_cell_volume 1710.443984
_symmetry_space_group_name_H-M "P 42/N C M"
_symmetry_group_IT_number 138
_space_group.IT_coordinate_system_code '2'
_symmetry_cell_setting 'tetragonal'
loop_
_space_group_symop_operation_xyz
x,y,z
1/2-y,x,1/2+z
1/2-x,1/2-y,z
y,1/2-x,1/2+z
1/2+x,-y,1/2-z
-x,1/2+y,1/2-z
1/2+y,1/2+x,-z
-y,-x,-z
-x,-y,-z
1/2+y,-x,1/2-z
1/2+x,1/2+y,-z
-y,1/2+x,1/2-z
1/2-x,y,1/2+z
x,1/2-y,1/2+z
1/2-y,1/2-x,z
y,x,z
loop_
_atom_site_type_symbol
_atom_site_label
_atom_site_fract_x
_atom_site_fract_y
_atom_site_fract_z
Si Si1 0.250000 0.750000 0.500000
Si Si2 0.927313 0.142233 0.874700
Si Si3 0.539332 0.753508 0.784479
O O1 0.257384 0.882952 0.445133
O O2 0.952234 0.224843 0.794580
O O3 0.801294 0.047407 0.857914
O O4 0.056185 0.056185 0.899956
O O5 0.610180 0.889820 0.811519
O O6 0.646152 0.646152 0.758396
#
# Coordination Sequence:
#
# PCOD8318996 Si02
#       3
#     4  16  16
#     4  12  22  34  50  74 112 144 162 196 254 312
#     4  10  20  34  52  75 103 134 169 209 252 299
#     4   9  18  35  58  78  96 127 174 219 252 288
#
# _framework density 21.047166000000001
#
# number of rings (size 3 to 8) (size 9 to 14) (size 15 to 20)
#    0.000    2.222    0.000    3.333    0.000    0.000 
#    0.000    4.444    0.000   10.667    0.000    0.000 
#    0.000    0.000    0.000    0.000    0.000    0.000 
#
# Total GULP energy -446199.240151 kJ/mol
# GULP energy per Si atom -12394.423338 kJ/mol
# Density = 2.099926 g / cm^3
# Si number density = 21.047166 Si / 1000 Ang^3
#
#
#
# Elastic Constant Matrix: (Units=GPa)
#
#
# Indices 1 2 3 4 5 6 
#
# 1 63.1292 32.7226 40.1713 0.0000 0.0000 0.0000
# 2 32.7226 63.1292 40.1713 0.0000 0.0000 0.0000
# 3 40.1713 40.1713 78.9638 0.0000 0.0000 0.0000
# 4 0.0000 0.0000 0.0000 12.6075 0.0000 0.0000
# 5 0.0000 0.0000 0.0000 0.0000 12.6075 0.0000
# 6 0.0000 0.0000 0.0000 0.0000 0.0000 31.1988
#
#
#
# Elastic Compliance Matrix: (Units=1/GPa)
#
#
# Indices 1 2 3 4 5 6 
#
# 1 0.025538 -0.007349 -0.009253 0.000000 0.000000 0.000000
# 2 -0.007349 0.025538 -0.009253 0.000000 0.000000 0.000000
# 3 -0.009253 -0.009253 0.022079 0.000000 0.000000 0.000000
# 4 0.000000 0.000000 0.000000 0.079318 0.000000 0.000000
# 5 0.000000 0.000000 0.000000 0.000000 0.079318 0.000000
# 6 0.000000 0.000000 0.000000 0.000000 0.000000 0.032052
#
#
# Mechanical properties :
#
#
# Convention : Reuss Voigt Hill
#
# Bulk Modulus (GPa) = 46.63399 47.92805 47.28102
# Shear Modulus (GPa) = 15.49413 17.42657 16.46035
#
# Velocity S-wave (km/s) = 2.71617 2.88058 2.79958
# Velocity P-wave (km/s) = 5.66055 5.82107 5.74137
#
# Compressibility (1/GPa) = 0.02144358
#
# Stress axis : x y z
#
# Youngs Moduli (GPa) = 39.15714 39.15714 45.29249
#
# Poissons Ratio (x) = 0.28778 0.41910
# Poissons Ratio (y) = 0.28778 0.41910
# Poissons Ratio (z) = 0.36233 0.36233
#
# Static dielectric constant tensor:
#      x y z
#    x 4.004810 0.000000 0.000000 
#    y 0.000000 4.004810 0.000000 
#    z 0.000000 0.000000 3.571440 
# 
# 
# High freq. dielectric constant tensor:
#      x y z
#    x 1.825180 0.000000 0.000000 
#    y 0.000000 1.825180 0.000000 
#    z 0.000000 0.000000 1.797980 
# 
# From -- ./inp_files/2185.got.cif
#   From: 2010.03.12/outbox.cif.g09.slc.cpg/sg138_2_cif.got.tgz:2185.got - 2010.04.08 09:41:05.
