data_PCOD8318841
_publ_section_title
;
Structure prediction by ZEFSAII (Michael W. Deem and Ramdas Pophale) SiO2 
 PCOD8318841
Probable space group: P 42/N C M
;
_chemical_formula_sum "Si O2"
_cell_formula_units_Z 96
_cell_length_a 16.502002
_cell_length_b 16.502002
_cell_length_c 19.458823
_cell_angle_alpha 90.000000
_cell_angle_beta 90.000000
_cell_angle_gamma 90.000000
_cell_volume 5298.950206
_symmetry_space_group_name_H-M "P 42/N C M"
_symmetry_group_IT_number 138
_space_group.IT_coordinate_system_code '2'
_symmetry_cell_setting 'tetragonal'
loop_
_space_group_symop_operation_xyz
x,y,z
1/2-y,x,1/2+z
1/2-x,1/2-y,z
y,1/2-x,1/2+z
1/2+x,-y,1/2-z
-x,1/2+y,1/2-z
1/2+y,1/2+x,-z
-y,-x,-z
-x,-y,-z
1/2+y,-x,1/2-z
1/2+x,1/2+y,-z
-y,1/2+x,1/2-z
1/2-x,y,1/2+z
x,1/2-y,1/2+z
1/2-y,1/2-x,z
y,x,z
loop_
_atom_site_type_symbol
_atom_site_label
_atom_site_fract_x
_atom_site_fract_y
_atom_site_fract_z
Si Si1 0.499915 0.368991 0.989257
Si Si2 0.543690 0.674605 0.861451
Si Si3 0.540586 0.264640 0.864373
Si Si4 0.870098 0.183416 0.176279
Si Si5 0.961107 0.671889 0.772567
Si Si6 0.129565 0.862843 0.322905
O O1 0.439062 0.439062 0.963709
O O2 0.498974 0.297442 0.932969
O O3 0.588447 0.411554 0.000000
O O4 0.465087 0.324080 0.056207
O O5 0.613404 0.613404 0.837370
O O6 0.458416 0.642491 0.832638
O O7 0.564479 0.762902 0.830384
O O8 0.628639 0.305485 0.861297
O O9 0.484814 0.283167 0.798285
O O10 0.564340 0.168071 0.869425
O O11 0.868704 0.273368 0.142410
O O12 0.857114 0.190302 0.257801
O O13 0.886216 0.613785 0.757927
O O14 0.037336 0.618605 0.799828
#
# Coordination Sequence:
#
# PCOD8318841 Si02
#       6
#    16  16  16  16  16  16
#     4  10  20  33  53  82 114 143 177 225 278 334
#     4  10  20  36  56  79 107 142 185 230 281 331
#     4  11  19  31  53  82 116 148 177 220 276 328
#     4  10  17  28  49  78 112 147 181 212 263 325
#     4  10  22  37  56  83 109 142 192 237 274 326
#     4  10  18  30  49  77 112 146 178 219 269 327
#
# _framework density 18.116796000000001
#
# number of rings (size 3 to 8) (size 9 to 14) (size 15 to 20)
#    0.000    1.833    6.667    1.000    0.000    3.000 
#    0.000    3.333    0.000    3.000    0.000    2.333 
#    0.000    0.000    0.000    0.000    0.000    0.000 
#
# Total GULP energy -1189532.908658 kJ/mol
# GULP energy per Si atom -12390.967799 kJ/mol
# Density = 1.807556 g / cm^3
# Si number density = 18.116796 Si / 1000 Ang^3
#
#
#
# Elastic Constant Matrix: (Units=GPa)
#
#
# Indices 1 2 3 4 5 6 
#
# 1 80.6761 41.6731 35.8865 0.0000 0.0000 0.0000
# 2 41.6731 80.6764 35.8865 0.0000 0.0000 0.0000
# 3 35.8865 35.8865 73.6665 0.0000 0.0000 0.0000
# 4 0.0000 0.0000 0.0000 21.7469 0.0000 0.0000
# 5 0.0000 0.0000 0.0000 0.0000 21.7469 0.0000
# 6 0.0000 0.0000 0.0000 0.0000 0.0000 31.6874
#
#
#
# Elastic Compliance Matrix: (Units=1/GPa)
#
#
# Indices 1 2 3 4 5 6 
#
# 1 0.018541 -0.007098 -0.005575 0.000000 0.000000 0.000000
# 2 -0.007098 0.018541 -0.005575 0.000000 0.000000 0.000000
# 3 -0.005575 -0.005575 0.019006 0.000000 0.000000 0.000000
# 4 0.000000 0.000000 0.000000 0.045984 0.000000 0.000000
# 5 0.000000 0.000000 0.000000 0.000000 0.045984 0.000000
# 6 0.000000 0.000000 0.000000 0.000000 0.000000 0.031558
#
#
# Mechanical properties :
#
#
# Convention : Reuss Voigt Hill
#
# Bulk Modulus (GPa) = 51.03498 51.32346 51.17922
# Shear Modulus (GPa) = 22.45779 23.14109 22.79944
#
# Velocity S-wave (km/s) = 3.52463 3.57785 3.55134
# Velocity P-wave (km/s) = 6.69292 6.74231 6.71766
#
# Compressibility (1/GPa) = 0.01959440
#
# Stress axis : x y z
#
# Youngs Moduli (GPa) = 53.93360 53.93386 52.61463
#
# Poissons Ratio (x) = 0.38281 0.29331
# Poissons Ratio (y) = 0.38280 0.29331
# Poissons Ratio (z) = 0.30067 0.30067
#
# Static dielectric constant tensor:
#      x y z
#    x 3.286350 0.000000 0.000000 
#    y 0.000000 3.286350 0.000000 
#    z 0.000000 0.000000 3.201260 
# 
# 
# High freq. dielectric constant tensor:
#      x y z
#    x 1.688410 0.000000 0.000000 
#    y 0.000000 1.688410 0.000000 
#    z 0.000000 0.000000 1.676730 
# 
# From -- ./inp_files/6394.got.cif
#   From: 2010.03.12/outbox.cif.g09.slc.cpg/sg138_4_cif.got.tgz:6394.got - 2010.04.08 09:41:05.
