data_PCOD8318160
_publ_section_title
;
Structure prediction by ZEFSAII (Michael W. Deem and Ramdas Pophale) SiO2 
 PCOD8318160
Probable space group: P 42/M N M
;
_chemical_formula_sum "Si O2"
_cell_formula_units_Z 96
_cell_length_a 24.209835
_cell_length_b 24.209835
_cell_length_c 8.721685
_cell_angle_alpha 90.000000
_cell_angle_beta 90.000000
_cell_angle_gamma 90.000000
_cell_volume 5111.920091
_symmetry_space_group_name_H-M "P 42/M N M"
_symmetry_group_IT_number 136
_symmetry_cell_setting 'tetragonal'
loop_
_space_group_symop_operation_xyz
x,y,z
1/2-y,1/2+x,1/2+z
-x,-y,z
1/2+y,1/2-x,1/2+z
1/2+x,1/2-y,1/2-z
1/2-x,1/2+y,1/2-z
y,x,-z
-y,-x,-z
-x,-y,-z
1/2+y,1/2-x,1/2-z
x,y,-z
1/2-y,1/2+x,1/2-z
1/2-x,1/2+y,1/2+z
1/2+x,1/2-y,1/2+z
-y,-x,z
y,x,z
loop_
_atom_site_type_symbol
_atom_site_label
_atom_site_fract_x
_atom_site_fract_y
_atom_site_fract_z
Si Si1 0.561290 0.648917 0.325626
Si Si2 0.436654 0.651452 0.678741
Si Si3 0.061346 0.442276 0.316446
Si Si4 0.854731 0.346924 0.181011
Si Si5 0.769791 0.142174 0.678305
Si Si6 0.768310 0.856104 0.681156
O O1 0.564955 0.671719 0.500000
O O2 0.588739 0.588739 0.315255
O O3 0.499009 0.642054 0.269214
O O4 0.590790 0.690661 0.210712
O O5 0.431378 0.664358 0.500000
O O6 0.403483 0.596518 0.724590
O O7 0.413165 0.703812 0.769488
O O8 0.058378 0.445942 0.500000
O O9 0.077242 0.502149 0.248607
O O10 0.107551 0.398483 0.258423
O O11 0.870996 0.285497 0.229407
O O12 0.793498 0.357129 0.249896
O O13 0.853789 0.350574 0.000000
O O14 0.755901 0.145172 0.500000
O O15 0.801067 0.198934 0.731608
O O16 0.766099 0.852203 0.500000
O O17 0.803823 0.803823 0.746316
#
# Coordination Sequence:
#
# PCOD8318160 Si02
#       6
#    16  16  16  16  16  16
#     4   9  18  33  52  73 101 139 177 212 254 303
#     4   9  18  32  50  74 103 134 172 218 260 296
#     4  10  21  38  58  79 105 136 170 210 258 307
#     4  10  21  36  56  80 103 133 172 208 248 306
#     4  10  21  35  52  77 107 136 168 211 259 302
#     4   9  18  33  52  74 103 138 171 205 250 303
#
# _framework density 18.779637999999998
#
# number of rings (size 3 to 8) (size 9 to 14) (size 15 to 20)
#    0.000    2.500    0.000    2.000    0.000    6.000 
#    0.000    6.667    0.000    0.000    0.000    4.667 
#    0.000    0.000    0.000    0.000    0.000    0.000 
#
# Total GULP energy -1190247.318846 kJ/mol
# GULP energy per Si atom -12398.409571 kJ/mol
# Density = 1.873689 g / cm^3
# Si number density = 18.779638 Si / 1000 Ang^3
#
#
#
# Elastic Constant Matrix: (Units=GPa)
#
#
# Indices 1 2 3 4 5 6 
#
# 1 126.3357 82.2360 17.2648 0.0000 0.0000 0.0000
# 2 82.2360 126.3357 17.2648 0.0000 0.0000 0.0000
# 3 17.2648 17.2648 17.4683 0.0000 0.0000 0.0000
# 4 0.0000 0.0000 0.0000 26.3328 0.0000 0.0000
# 5 0.0000 0.0000 0.0000 0.0000 26.3328 0.0000
# 6 0.0000 0.0000 0.0000 0.0000 0.0000 25.9428
#
#
#
# Elastic Compliance Matrix: (Units=1/GPa)
#
#
# Indices 1 2 3 4 5 6 
#
# 1 0.014204 -0.008472 -0.005666 0.000000 0.000000 0.000000
# 2 -0.008472 0.014204 -0.005666 0.000000 0.000000 0.000000
# 3 -0.005666 -0.005666 0.068446 0.000000 0.000000 0.000000
# 4 0.000000 0.000000 0.000000 0.037975 0.000000 0.000000
# 5 0.000000 0.000000 0.000000 0.000000 0.037975 0.000000
# 6 0.000000 0.000000 0.000000 0.000000 0.000000 0.038546
#
#
# Mechanical properties :
#
#
# Convention : Reuss Voigt Hill
#
# Bulk Modulus (GPa) = 17.46787 55.96343 36.71565
# Shear Modulus (GPa) = 18.51578 25.94664 22.23121
#
# Velocity S-wave (km/s) = 3.14339 3.72107 3.44436
# Velocity P-wave (km/s) = 4.74302 6.95173 5.95075
#
# Compressibility (1/GPa) = 0.05724795
#
# Stress axis : x y z
#
# Youngs Moduli (GPa) = 70.40184 70.40184 14.61013
#
# Poissons Ratio (x) = 0.59642 0.08278
# Poissons Ratio (y) = 0.59642 0.08278
# Poissons Ratio (z) = 0.39887 0.39887
#
# Static dielectric constant tensor:
#      x y z
#    x 3.577980 0.000000 0.000000 
#    y 0.000000 3.577980 0.000000 
#    z 0.000000 0.000000 3.297980 
# 
# 
# High freq. dielectric constant tensor:
#      x y z
#    x 1.731040 0.000000 0.000000 
#    y 0.000000 1.731040 0.000000 
#    z 0.000000 0.000000 1.718650 
# 
# From -- ./inp_files/1916.got.cif
#   From: 2010.03.12/outbox.cif.g09.slc.cpg/sg136_1_cif.got.tgz:1916.got - 2010.04.06 18:39:43.
