data_PCOD8318127
_publ_section_title
;
Structure prediction by ZEFSAII (Michael W. Deem and Ramdas Pophale) SiO2 
 PCOD8318127
Probable space group: P 42/M N M
;
_chemical_formula_sum "Si O2"
_cell_formula_units_Z 96
_cell_length_a 24.152068
_cell_length_b 24.152068
_cell_length_c 8.158986
_cell_angle_alpha 90.000000
_cell_angle_beta 90.000000
_cell_angle_gamma 90.000000
_cell_volume 4759.319203
_symmetry_space_group_name_H-M "P 42/M N M"
_symmetry_group_IT_number 136
_symmetry_cell_setting 'tetragonal'
loop_
_space_group_symop_operation_xyz
x,y,z
1/2-y,1/2+x,1/2+z
-x,-y,z
1/2+y,1/2-x,1/2+z
1/2+x,1/2-y,1/2-z
1/2-x,1/2+y,1/2-z
y,x,-z
-y,-x,-z
-x,-y,-z
1/2+y,1/2-x,1/2-z
x,y,-z
1/2-y,1/2+x,1/2-z
1/2-x,1/2+y,1/2+z
1/2+x,1/2-y,1/2+z
-y,-x,z
y,x,z
loop_
_atom_site_type_symbol
_atom_site_label
_atom_site_fract_x
_atom_site_fract_y
_atom_site_fract_z
Si Si1 0.206372 0.379090 0.303870
Si Si2 0.625095 0.207122 0.305614
Si Si3 0.193197 0.806804 0.177448
Si Si4 0.816268 0.816268 0.310441
Si Si5 0.498941 0.339523 0.816680
Si Si6 0.602794 0.602794 0.679661
Si Si7 0.274990 0.002072 0.183468
Si Si8 0.100138 0.100138 0.187057
O O1 0.212450 0.381801 0.500000
O O2 0.148673 0.352911 0.244424
O O3 0.255524 0.338587 0.231314
O O4 0.207252 0.442881 0.233246
O O5 0.624017 0.216359 0.500000
O O6 0.666757 0.252620 0.226027
O O7 0.561362 0.207320 0.234937
O O8 0.147954 0.852047 0.143140
O O9 0.215341 0.784660 0.000000
O O10 0.828907 0.828907 0.500000
O O11 0.853081 0.853081 0.190681
O O12 0.443553 0.372707 0.794153
O O13 0.502817 0.291282 0.682863
O O14 0.547539 0.381784 0.787673
O O15 0.501998 0.314520 0.000000
O O16 0.581533 0.581533 0.500000
O O17 0.298322 0.001930 0.000000
O O18 0.085768 0.085768 0.000000
#
# Coordination Sequence:
#
# PCOD8318127 Si02
#       8
#    16  16   8   8  16   8  16   8
#     4  10  20  37  60  88 118 155 197 241 291 351
#     4  11  23  38  59  90 123 156 194 242 295 356
#     4   9  17  32  58  85 110 149 196 235 283 351
#     4  12  23  37  59  90 122 156 195 243 292 347
#     4  12  24  38  58  87 117 150 199 254 296 342
#     4  11  21  39  61  81 113 158 200 240 294 354
#     4  10  21  39  62  84 116 160 197 234 296 366
#     4  12  24  40  60  82 113 159 205 244 292 350
#
# _framework density 20.170950999999999
#
# number of rings (size 3 to 8) (size 9 to 14) (size 15 to 20)
#    0.000    1.167    3.333    4.250    0.000    2.333 
#    0.000    1.667    0.000    0.500    0.000    3.500 
#    0.000    0.000    0.000    0.000    0.000    0.000 
#
# Total GULP energy -1189400.623106 kJ/mol
# GULP energy per Si atom -12389.589824 kJ/mol
# Density = 2.012504 g / cm^3
# Si number density = 20.170951 Si / 1000 Ang^3
#
#
#
# Elastic Constant Matrix: (Units=GPa)
#
#
# Indices 1 2 3 4 5 6 
#
# 1 139.5122 61.6151 10.9668 0.0000 0.0000 0.0000
# 2 61.6151 139.5123 10.9669 0.0000 0.0000 0.0000
# 3 10.9668 10.9669 55.4976 0.0000 0.0000 0.0000
# 4 0.0000 0.0000 0.0000 22.2497 0.0000 0.0000
# 5 0.0000 0.0000 0.0000 0.0000 22.2498 0.0000
# 6 0.0000 0.0000 0.0000 0.0000 0.0000 37.3426
#
#
#
# Elastic Compliance Matrix: (Units=1/GPa)
#
#
# Indices 1 2 3 4 5 6 
#
# 1 0.008959 -0.003878 -0.001004 0.000000 0.000000 0.000000
# 2 -0.003878 0.008959 -0.001004 0.000000 0.000000 0.000000
# 3 -0.001004 -0.001004 0.018416 0.000000 0.000000 0.000000
# 4 0.000000 0.000000 0.000000 0.044944 0.000000 0.000000
# 5 0.000000 0.000000 0.000000 0.000000 0.044944 0.000000
# 6 0.000000 0.000000 0.000000 0.000000 0.000000 0.026779
#
#
# Mechanical properties :
#
#
# Convention : Reuss Voigt Hill
#
# Bulk Modulus (GPa) = 40.71328 55.73553 48.22441
# Shear Modulus (GPa) = 28.90808 33.09999 31.00404
#
# Velocity S-wave (km/s) = 3.78981 4.05529 3.92479
# Velocity P-wave (km/s) = 6.27520 7.04405 6.67071
#
# Compressibility (1/GPa) = 0.02456201
#
# Stress axis : x y z
#
# Youngs Moduli (GPa) = 111.61387 111.61389 54.30165
#
# Poissons Ratio (x) = 0.43284 0.05453
# Poissons Ratio (y) = 0.43284 0.05453
# Poissons Ratio (z) = 0.11208 0.11208
#
# Static dielectric constant tensor:
#      x y z
#    x 3.708160 0.000000 0.000000 
#    y 0.000000 3.708160 0.000000 
#    z 0.000000 0.000000 2.805270 
# 
# 
# High freq. dielectric constant tensor:
#      x y z
#    x 1.781480 0.000000 0.000000 
#    y 0.000000 1.781480 0.000000 
#    z 0.000000 0.000000 1.770930 
# 
# From -- ./inp_files/2110.got.cif
#   From: 2010.03.12/outbox.cif.g09.slc.cpg/sg136_2_cif.got.tgz:2110.got - 2010.04.06 18:39:43.
