data_PCOD8318332
_publ_section_title
;
Structure prediction by ZEFSAII (Michael W. Deem and Ramdas Pophale) SiO2 
 PCOD8318332
Probable space group: P 42/M N M
;
_chemical_formula_sum "Si O2"
_cell_formula_units_Z 72
_cell_length_a 12.081515
_cell_length_b 12.081515
_cell_length_c 25.233376
_cell_angle_alpha 90.000000
_cell_angle_beta 90.000000
_cell_angle_gamma 90.000000
_cell_volume 3683.139380
_symmetry_space_group_name_H-M "P 42/M N M"
_symmetry_group_IT_number 136
_symmetry_cell_setting 'tetragonal'
loop_
_space_group_symop_operation_xyz
x,y,z
1/2-y,1/2+x,1/2+z
-x,-y,z
1/2+y,1/2-x,1/2+z
1/2+x,1/2-y,1/2-z
1/2-x,1/2+y,1/2-z
y,x,-z
-y,-x,-z
-x,-y,-z
1/2+y,1/2-x,1/2-z
x,y,-z
1/2-y,1/2+x,1/2-z
1/2-x,1/2+y,1/2+z
1/2+x,1/2-y,1/2+z
-y,-x,z
y,x,z
loop_
_atom_site_type_symbol
_atom_site_label
_atom_site_fract_x
_atom_site_fract_y
_atom_site_fract_z
Si Si1 0.722149 0.463080 0.358157
Si Si2 0.710558 0.102215 0.350144
Si Si3 0.906502 0.093499 0.939177
Si Si4 0.679923 0.493768 0.058359
Si Si5 0.997619 0.824167 0.741539
O O1 0.632031 0.367969 0.363769
O O2 0.845268 0.411033 0.357712
O O3 0.701558 0.547926 0.407113
O O4 0.708794 0.524181 0.301873
O O5 0.800072 0.199928 0.348877
O O6 0.725375 0.019957 0.399567
O O7 0.720902 0.025944 0.297169
O O8 0.874473 0.125528 0.000000
O O9 0.000000 0.000000 0.939970
O O10 0.623828 0.376173 0.072307
O O11 0.587166 0.587166 0.060267
O O12 0.734008 0.489638 0.000000
O O13 0.870309 0.870309 0.735607
O O14 0.076758 0.923243 0.723864
#
# Coordination Sequence:
#
# PCOD8318332 Si02
#       5
#    16  16   8  16  16
#     4   9  16  26  38  57  85 116 155 198 235 281
#     4   9  16  23  36  58  80 110 156 197 236 282
#     4   9  16  26  40  58  86 128 165 194 237 286
#     4   8  13  21  32  49  79 115 148 188 238 287
#     4   9  15  25  41  57  80 116 154 192 238 287
#
# _framework density 19.548539000000002
#
# number of rings (size 3 to 8) (size 9 to 14) (size 15 to 20)
#    0.000    3.222    1.111    1.333    0.000    3.556 
#    0.000    4.444    0.000    0.667    0.000    0.000 
#    0.000    1.778    1.333    4.000    2.222    4.444 
#
# Total GULP energy -891947.514854 kJ/mol
# GULP energy per Si atom -12388.159929 kJ/mol
# Density = 1.950405 g / cm^3
# Si number density = 19.548539 Si / 1000 Ang^3
#
#
#
# Elastic Constant Matrix: (Units=GPa)
#
#
# Indices 1 2 3 4 5 6 
#
# 1 44.7130 38.0625 53.6706 0.0000 0.0000 0.0000
# 2 38.0625 44.7130 53.6706 0.0000 0.0000 0.0000
# 3 53.6706 53.6706 170.7698 0.0000 0.0000 0.0000
# 4 0.0000 0.0000 0.0000 4.3099 0.0000 0.0000
# 5 0.0000 0.0000 0.0000 0.0000 4.3099 0.0000
# 6 0.0000 0.0000 0.0000 0.0000 0.0000 27.9420
#
#
#
# Elastic Compliance Matrix: (Units=1/GPa)
#
#
# Indices 1 2 3 4 5 6 
#
# 1 0.085379 -0.064987 -0.006409 0.000000 0.000000 0.000000
# 2 -0.064987 0.085379 -0.006409 0.000000 0.000000 0.000000
# 3 -0.006409 -0.006409 0.009884 0.000000 0.000000 0.000000
# 4 0.000000 0.000000 0.000000 0.232022 0.000000 0.000000
# 5 0.000000 0.000000 0.000000 0.000000 0.232022 0.000000
# 6 0.000000 0.000000 0.000000 0.000000 0.000000 0.035788
#
#
# Mechanical properties :
#
#
# Convention : Reuss Voigt Hill
#
# Bulk Modulus (GPa) = 39.94842 61.22259 50.58551
# Shear Modulus (GPa) = 5.92117 14.96519 10.44318
#
# Velocity S-wave (km/s) = 1.74228 2.76984 2.31382
# Velocity P-wave (km/s) = 4.95250 6.45101 5.75078
#
# Compressibility (1/GPa) = 0.02503228
#
# Stress axis : x y z
#
# Youngs Moduli (GPa) = 11.71253 11.71251 101.17121
#
# Poissons Ratio (x) = 0.76116 0.64838
# Poissons Ratio (y) = 0.76116 0.64839
# Poissons Ratio (z) = 0.07506 0.07506
#
# Static dielectric constant tensor:
#      x y z
#    x 3.270980 0.000000 0.000000 
#    y 0.000000 3.270980 0.000000 
#    z 0.000000 0.000000 3.847730 
# 
# 
# High freq. dielectric constant tensor:
#      x y z
#    x 1.712230 0.000000 0.000000 
#    y 0.000000 1.712230 0.000000 
#    z 0.000000 0.000000 1.773580 
# 
# From -- ./inp_files/8984.got.cif
#   From: 2010.03.12/outbox.cif.g09.slc.cpg/sg136_5_cif.got.tgz:8984.got - 2010.04.06 18:39:43.
