data_PCOD8318727
_publ_section_title
;
Structure prediction by ZEFSAII (Michael W. Deem and Ramdas Pophale) SiO2 
 PCOD8318727
Probable space group: P 42/N M C
;
_chemical_formula_sum "Si O2"
_cell_formula_units_Z 88
_cell_length_a 14.743244
_cell_length_b 14.743244
_cell_length_c 19.896654
_cell_angle_alpha 90.000000
_cell_angle_beta 90.000000
_cell_angle_gamma 90.000000
_cell_volume 4324.801251
_symmetry_space_group_name_H-M "P 42/N M C"
_symmetry_group_IT_number 137
_space_group.IT_coordinate_system_code '2'
_symmetry_cell_setting 'tetragonal'
loop_
_space_group_symop_operation_xyz
x,y,z
1/2-y,x,1/2+z
1/2-x,1/2-y,z
y,1/2-x,1/2+z
1/2+x,-y,-z
-x,1/2+y,-z
1/2+y,1/2+x,1/2-z
-y,-x,1/2-z
-x,-y,-z
1/2+y,-x,1/2-z
1/2+x,1/2+y,-z
-y,1/2+x,1/2-z
1/2-x,y,z
x,1/2-y,z
1/2-y,1/2-x,1/2+z
y,x,1/2+z
loop_
_atom_site_type_symbol
_atom_site_label
_atom_site_fract_x
_atom_site_fract_y
_atom_site_fract_z
Si Si1 0.354774 0.353285 0.159710
Si Si2 0.956569 0.350695 0.384311
Si Si3 0.003273 0.850720 0.236136
Si Si4 0.996262 0.646350 0.953358
Si Si5 0.649122 0.585849 0.597726
Si Si6 0.145098 0.854903 0.750000
O O1 0.250000 0.366462 0.139511
O O2 0.374102 0.250000 0.181892
O O3 0.384121 0.414529 0.223006
O O4 0.412870 0.381106 0.094748
O O5 0.919006 0.250000 0.398543
O O6 0.918156 0.418090 0.440442
O O7 0.919704 0.383677 0.311677
O O8 0.066339 0.345554 0.388019
O O9 0.088681 0.911320 0.250000
O O10 0.028020 0.750000 0.260616
O O11 0.987087 0.852348 0.156888
O O12 0.025365 0.750000 0.940614
O O13 0.967151 0.630312 0.029391
O O14 0.750000 0.633607 0.595620
O O15 0.250000 0.871097 0.729365
#
# Coordination Sequence:
#
# PCOD8318727 Si02
#       6
#    16  16  16  16  16   8
#     4   9  19  36  60  87 112 147 194 239 289 351
#     4  11  23  37  60  90 121 161 201 241 297 363
#     4  10  21  38  59  81 110 147 191 243 292 342
#     4  10  21  39  62  87 121 157 195 246 300 358
#     4  10  23  40  57  84 120 159 199 245 301 354
#     4   9  20  38  58  88 124 152 191 246 304 364
#
# _framework density 20.347756
#
# number of rings (size 3 to 8) (size 9 to 14) (size 15 to 20)
#    0.000    2.091    0.000    2.182    3.818    3.091 
#    0.000    6.364    0.000    3.273    0.000    0.000 
#    0.000    0.000    0.000    0.000    0.000    0.000 
#
# Total GULP energy -1091160.280259 kJ/mol
# GULP energy per Si atom -12399.548639 kJ/mol
# Density = 2.030144 g / cm^3
# Si number density = 20.347756 Si / 1000 Ang^3
#
#
#
# Elastic Constant Matrix: (Units=GPa)
#
#
# Indices 1 2 3 4 5 6 
#
# 1 97.8511 52.0596 55.4270 0.0000 0.0000 0.0000
# 2 52.0596 97.8549 55.4278 0.0000 0.0000 0.0000
# 3 55.4270 55.4278 145.6695 0.0000 0.0000 0.0000
# 4 0.0000 0.0000 0.0000 20.4213 0.0000 0.0000
# 5 0.0000 0.0000 0.0000 0.0000 20.4206 0.0000
# 6 0.0000 0.0000 0.0000 0.0000 0.0000 26.9940
#
#
#
# Elastic Compliance Matrix: (Units=1/GPa)
#
#
# Indices 1 2 3 4 5 6 
#
# 1 0.015560 -0.006277 -0.003532 0.000000 0.000000 0.000000
# 2 -0.006277 0.015559 -0.003532 0.000000 0.000000 0.000000
# 3 -0.003532 -0.003532 0.009553 0.000000 0.000000 0.000000
# 4 0.000000 0.000000 0.000000 0.048968 0.000000 0.000000
# 5 0.000000 0.000000 0.000000 0.000000 0.048970 0.000000
# 6 0.000000 0.000000 0.000000 0.000000 0.000000 0.037045
#
#
# Mechanical properties :
#
#
# Convention : Reuss Voigt Hill
#
# Bulk Modulus (GPa) = 71.48198 74.13380 72.80789
# Shear Modulus (GPa) = 24.15438 25.46458 24.80948
#
# Velocity S-wave (km/s) = 3.44914 3.54145 3.49560
# Velocity P-wave (km/s) = 7.14622 7.29623 7.22162
#
# Compressibility (1/GPa) = 0.01398954
#
# Stress axis : x y z
#
# Youngs Moduli (GPa) = 64.26708 64.26979 104.68293
#
# Poissons Ratio (x) = 0.40345 0.36974
# Poissons Ratio (y) = 0.40343 0.36972
# Poissons Ratio (z) = 0.22699 0.22699
#
# Static dielectric constant tensor:
#      x y z
#    x 3.723640 0.000000 0.000000 
#    y 0.000000 3.723660 0.000000 
#    z 0.000000 0.000000 3.684110 
# 
# 
# High freq. dielectric constant tensor:
#      x y z
#    x 1.793030 0.000000 0.000000 
#    y 0.000000 1.793030 0.000000 
#    z 0.000000 0.000000 1.795940 
# 
# From -- ./inp_files/7727.got.cif
#   From: 2010.03.12/outbox.cif.g09.slc.cpg/sg137_4_cif.got.tgz:7727.got - 2010.04.08 09:34:49.
