data_PCOD8318027
_publ_section_title
;
Structure prediction by ZEFSAII (Michael W. Deem and Ramdas Pophale) SiO2 
 PCOD8318027
Probable space group: P 42/M N M
;
_chemical_formula_sum "Si O2"
_cell_formula_units_Z 88
_cell_length_a 11.973274
_cell_length_b 11.973274
_cell_length_c 29.877612
_cell_angle_alpha 90.000000
_cell_angle_beta 90.000000
_cell_angle_gamma 90.000000
_cell_volume 4283.233252
_symmetry_space_group_name_H-M "P 42/M N M"
_symmetry_group_IT_number 136
_symmetry_cell_setting 'tetragonal'
loop_
_space_group_symop_operation_xyz
x,y,z
1/2-y,1/2+x,1/2+z
-x,-y,z
1/2+y,1/2-x,1/2+z
1/2+x,1/2-y,1/2-z
1/2-x,1/2+y,1/2-z
y,x,-z
-y,-x,-z
-x,-y,-z
1/2+y,1/2-x,1/2-z
x,y,-z
1/2-y,1/2+x,1/2-z
1/2-x,1/2+y,1/2+z
1/2+x,1/2-y,1/2+z
-y,-x,z
y,x,z
loop_
_atom_site_type_symbol
_atom_site_label
_atom_site_fract_x
_atom_site_fract_y
_atom_site_fract_z
Si Si1 0.722375 0.541007 0.882538
Si Si2 0.181753 0.994105 0.049185
Si Si3 0.905370 0.905370 0.448822
Si Si4 0.598597 0.212653 0.370765
Si Si5 0.417354 0.235251 0.295462
Si Si6 0.557906 0.266300 0.789144
O O1 0.644159 0.644159 0.894387
O O2 0.705489 0.450950 0.922802
O O3 0.847962 0.589490 0.877233
O O4 0.686179 0.486596 0.835897
O O5 0.086556 0.086556 0.051810
O O6 0.273549 0.017150 0.086755
O O7 0.238329 0.996905 0.000000
O O8 0.126911 0.873090 0.057940
O O9 0.874122 0.874122 0.500000
O O10 0.000000 0.000000 0.447352
O O11 0.692782 0.307219 0.367778
O O12 0.525984 0.222199 0.326082
O O13 0.340427 0.340427 0.310430
O O14 0.350232 0.120088 0.297994
O O15 0.455103 0.252105 0.244388
O O16 0.644292 0.355709 0.768436
#
# Coordination Sequence:
#
# PCOD8318027 Si02
#       6
#    16  16   8  16  16  16
#     4  10  20  35  57  83 111 148 187 231 293 350
#     4   8  14  26  46  72 104 143 181 221 277 341
#     4   9  18  34  58  88 116 146 193 247 296 350
#     4  10  20  33  52  82 116 146 186 236 287 343
#     4  11  24  38  56  83 112 148 192 239 289 347
#     4  11  23  39  57  79 111 148 192 233 285 348
#
# _framework density 20.545228000000002
#
# number of rings (size 3 to 8) (size 9 to 14) (size 15 to 20)
#    0.000    2.091    0.909    3.273    0.000    9.091 
#    0.000    3.636    0.000    1.091    0.000    2.545 
#    0.000    0.000    0.000    0.000    0.000    0.000 
#
# Total GULP energy -1091007.076214 kJ/mol
# GULP energy per Si atom -12397.807684 kJ/mol
# Density = 2.049847 g / cm^3
# Si number density = 20.545228 Si / 1000 Ang^3
#
#
#
# Elastic Constant Matrix: (Units=GPa)
#
#
# Indices 1 2 3 4 5 6 
#
# 1 62.7081 38.4610 31.6741 0.0000 0.0000 0.0000
# 2 38.4610 62.7081 31.6741 0.0000 0.0000 0.0000
# 3 31.6741 31.6741 134.6789 0.0000 0.0000 0.0000
# 4 0.0000 0.0000 0.0000 9.9819 0.0000 0.0000
# 5 0.0000 0.0000 0.0000 0.0000 9.9819 0.0000
# 6 0.0000 0.0000 0.0000 0.0000 0.0000 21.0897
#
#
#
# Elastic Compliance Matrix: (Units=1/GPa)
#
#
# Indices 1 2 3 4 5 6 
#
# 1 0.026417 -0.014825 -0.002726 0.000000 0.000000 0.000000
# 2 -0.014825 0.026417 -0.002726 0.000000 0.000000 0.000000
# 3 -0.002726 -0.002726 0.008707 0.000000 0.000000 0.000000
# 4 0.000000 0.000000 0.000000 0.100181 0.000000 0.000000
# 5 0.000000 0.000000 0.000000 0.000000 0.100181 0.000000
# 6 0.000000 0.000000 0.000000 0.000000 0.000000 0.047417
#
#
# Mechanical properties :
#
#
# Convention : Reuss Voigt Hill
#
# Bulk Modulus (GPa) = 47.65131 51.52370 49.58751
# Shear Modulus (GPa) = 14.01069 18.76310 16.38689
#
# Velocity S-wave (km/s) = 2.61424 3.02529 2.82725
# Velocity P-wave (km/s) = 5.68824 6.11031 5.90305
#
# Compressibility (1/GPa) = 0.02098578
#
# Stress axis : x y z
#
# Youngs Moduli (GPa) = 37.85480 37.85480 114.84586
#
# Poissons Ratio (x) = 0.56121 0.31308
# Poissons Ratio (y) = 0.56121 0.31308
# Poissons Ratio (z) = 0.10320 0.10320
#
# Static dielectric constant tensor:
#      x y z
#    x 3.632050 0.000000 0.000000 
#    y 0.000000 3.632050 0.000000 
#    z 0.000000 0.000000 3.824280 
# 
# 
# High freq. dielectric constant tensor:
#      x y z
#    x 1.788100 0.000000 0.000000 
#    y 0.000000 1.788100 0.000000 
#    z 0.000000 0.000000 1.807830 
# 
# From -- ./inp_files/9709.got.cif
#   From: 2010.03.12/outbox.cif.g09.slc.cpg/sg136_5_cif.got.tgz:9709.got - 2010.04.06 18:39:43.
