data_PCOD8318394
_publ_section_title
;
Structure prediction by ZEFSAII (Michael W. Deem and Ramdas Pophale) SiO2 
 PCOD8318394
Probable space group: P 42/N M C
;
_chemical_formula_sum "Si O2"
_cell_formula_units_Z 96
_cell_length_a 14.502044
_cell_length_b 14.502044
_cell_length_c 29.914155
_cell_angle_alpha 90.000000
_cell_angle_beta 90.000000
_cell_angle_gamma 90.000000
_cell_volume 6291.224405
_symmetry_space_group_name_H-M "P 42/N M C"
_symmetry_group_IT_number 137
_space_group.IT_coordinate_system_code '2'
_symmetry_cell_setting 'tetragonal'
loop_
_space_group_symop_operation_xyz
x,y,z
1/2-y,x,1/2+z
1/2-x,1/2-y,z
y,1/2-x,1/2+z
1/2+x,-y,-z
-x,1/2+y,-z
1/2+y,1/2+x,1/2-z
-y,-x,1/2-z
-x,-y,-z
1/2+y,-x,1/2-z
1/2+x,1/2+y,-z
-y,1/2+x,1/2-z
1/2-x,y,z
x,1/2-y,z
1/2-y,1/2-x,1/2+z
y,x,1/2+z
loop_
_atom_site_type_symbol
_atom_site_label
_atom_site_fract_x
_atom_site_fract_y
_atom_site_fract_z
Si Si1 0.144819 0.354970 0.479176
Si Si2 0.860232 0.852431 0.356420
Si Si3 0.144771 0.984320 0.913058
Si Si4 0.020668 0.358475 0.062857
Si Si5 0.524060 0.855428 0.780383
Si Si6 0.643630 0.455352 0.188179
O O1 0.250000 0.371714 0.464421
O O2 0.132177 0.250000 0.497094
O O3 0.115444 0.426636 0.517391
O O4 0.082671 0.373411 0.435823
O O5 0.750000 0.848742 0.356976
O O6 0.901430 0.750000 0.361437
O O7 0.894983 0.915062 0.397218
O O8 0.902494 0.896257 0.310560
O O9 0.250000 0.950668 0.921017
O O10 0.078098 0.908310 0.934750
O O11 0.126648 0.999464 0.860249
O O12 0.001971 0.250000 0.066286
O O13 0.547550 0.750000 0.783511
O O14 0.527145 0.885233 0.728040
O O15 0.423885 0.869082 0.803829
O O16 0.750000 0.423498 0.194255
#
# Coordination Sequence:
#
# PCOD8318394 Si02
#       6
#    16  16  16  16  16  16
#     4   9  18  32  48  64  84 113 150 186 219 258
#     4   9  16  26  41  61  84 110 143 181 218 254
#     4  10  19  30  44  65  90 117 148 180 214 258
#     4  10  18  29  45  65  88 116 144 177 222 263
#     4   9  16  27  40  57  83 116 147 174 207 246
#     4   9  17  27  40  58  84 116 145 171 205 251
#
# _framework density 15.259351000000001
#
# number of rings (size 3 to 8) (size 9 to 14) (size 15 to 20)
#    0.000    2.667    1.667    1.000    0.000    2.667 
#    0.000    4.167    0.000    5.000    0.000    0.000 
#    0.000    0.000    0.000    0.333    0.000    0.000 
#
# Total GULP energy -1189477.263974 kJ/mol
# GULP energy per Si atom -12390.388166 kJ/mol
# Density = 1.522462 g / cm^3
# Si number density = 15.259351 Si / 1000 Ang^3
#
#
#
# Elastic Constant Matrix: (Units=GPa)
#
#
# Indices 1 2 3 4 5 6 
#
# 1 64.1532 28.7041 42.4075 0.0000 0.0000 0.0000
# 2 28.7041 64.1532 42.4075 0.0000 0.0000 0.0000
# 3 42.4075 42.4075 114.2517 0.0000 0.0000 0.0000
# 4 0.0000 0.0000 0.0000 19.8208 0.0000 0.0000
# 5 0.0000 0.0000 0.0000 0.0000 19.8208 0.0000
# 6 0.0000 0.0000 0.0000 0.0000 0.0000 16.5171
#
#
#
# Elastic Compliance Matrix: (Units=1/GPa)
#
#
# Indices 1 2 3 4 5 6 
#
# 1 0.022251 -0.005958 -0.006048 0.000000 0.000000 0.000000
# 2 -0.005958 0.022251 -0.006048 0.000000 0.000000 0.000000
# 3 -0.006048 -0.006048 0.013242 0.000000 0.000000 0.000000
# 4 0.000000 0.000000 0.000000 0.050452 0.000000 0.000000
# 5 0.000000 0.000000 0.000000 0.000000 0.050452 0.000000
# 6 0.000000 0.000000 0.000000 0.000000 0.000000 0.060543
#
#
# Mechanical properties :
#
#
# Convention : Reuss Voigt Hill
#
# Bulk Modulus (GPa) = 46.21549 52.17736 49.19642
# Shear Modulus (GPa) = 19.04681 19.83434 19.44057
#
# Velocity S-wave (km/s) = 3.53683 3.60921 3.57320
# Velocity P-wave (km/s) = 6.85794 7.18585 7.02381
#
# Compressibility (1/GPa) = 0.02163777
#
# Stress axis : x y z
#
# Youngs Moduli (GPa) = 44.94130 44.94130 75.51704
#
# Poissons Ratio (x) = 0.26777 0.45670
# Poissons Ratio (y) = 0.26777 0.45670
# Poissons Ratio (z) = 0.27179 0.27179
#
# Static dielectric constant tensor:
#      x y z
#    x 2.859650 0.000000 0.000000 
#    y 0.000000 2.859650 0.000000 
#    z 0.000000 0.000000 3.180120 
# 
# 
# High freq. dielectric constant tensor:
#      x y z
#    x 1.560290 0.000000 0.000000 
#    y 0.000000 1.560290 0.000000 
#    z 0.000000 0.000000 1.598720 
# 
# From -- ./inp_files/10569.got.cif
#   From: 2010.03.12/outbox.cif.g09.slc.cpg/sg137_6_cif.got.tgz:10569.got - 2010.04.08 09:34:49.
