data_PCOD8318453
_publ_section_title
;
Structure prediction by ZEFSAII (Michael W. Deem and Ramdas Pophale) SiO2 
 PCOD8318453
Probable space group: P 42/N M C
;
_chemical_formula_sum "Si O2"
_cell_formula_units_Z 96
_cell_length_a 13.981748
_cell_length_b 13.981748
_cell_length_c 27.248431
_cell_angle_alpha 90.000000
_cell_angle_beta 90.000000
_cell_angle_gamma 90.000000
_cell_volume 5326.776079
_symmetry_space_group_name_H-M "P 42/N M C"
_symmetry_group_IT_number 137
_space_group.IT_coordinate_system_code '2'
_symmetry_cell_setting 'tetragonal'
loop_
_space_group_symop_operation_xyz
x,y,z
1/2-y,x,1/2+z
1/2-x,1/2-y,z
y,1/2-x,1/2+z
1/2+x,-y,-z
-x,1/2+y,-z
1/2+y,1/2+x,1/2-z
-y,-x,1/2-z
-x,-y,-z
1/2+y,-x,1/2-z
1/2+x,1/2+y,-z
-y,1/2+x,1/2-z
1/2-x,y,z
x,1/2-y,z
1/2-y,1/2-x,1/2+z
y,x,1/2+z
loop_
_atom_site_type_symbol
_atom_site_label
_atom_site_fract_x
_atom_site_fract_y
_atom_site_fract_z
Si Si1 0.250000 0.639984 0.548401
Si Si2 0.059100 0.642312 0.597679
Si Si3 0.145453 0.895064 0.697466
Si Si4 0.250000 0.864840 0.432899
Si Si5 0.141068 0.250000 0.840194
Si Si6 0.430574 0.480269 0.205177
Si Si7 0.001325 0.096951 0.883700
Si Si8 0.250000 0.359247 0.224340
O O1 0.250000 0.750000 0.563318
O O2 0.153013 0.597354 0.571609
O O3 0.250000 0.623477 0.490692
O O4 0.033905 0.750000 0.578524
O O5 0.074692 0.651066 0.656885
O O6 0.976329 0.565562 0.583806
O O7 0.157266 0.842735 0.750000
O O8 0.250000 0.898091 0.672742
O O9 0.108204 0.998745 0.710744
O O10 0.250000 0.750000 0.418288
O O11 0.343191 0.922042 0.413634
O O12 0.250000 0.250000 0.861659
O O13 0.082976 0.158248 0.857407
O O14 0.146804 0.250000 0.782329
O O15 0.444944 0.555057 0.250000
O O16 0.439417 0.538733 0.155235
O O17 0.333230 0.424597 0.204341
O O18 0.250000 0.250000 0.203156
#
# Coordination Sequence:
#
# PCOD8318453 Si02
#       8
#     8  16  16   8   8  16  16   8
#     4   9  19  37  59  84 111 141 180 215 269 343
#     4  10  19  33  55  82 114 146 173 215 268 329
#     4  10  19  29  45  75 114 148 178 205 247 315
#     4  10  23  41  60  79 101 136 185 243 286 325
#     4  10  19  33  54  79 111 144 183 219 266 327
#     4  10  20  34  49  72 105 140 184 228 267 319
#     4  10  21  36  55  81 108 138 181 232 280 319
#     4  11  21  33  51  71 102 154 191 219 263 322
#
# _framework density 18.022158999999998
#
# number of rings (size 3 to 8) (size 9 to 14) (size 15 to 20)
#    0.000    2.000    2.500    1.500    1.167    1.500 
#    0.000    0.000    0.000    0.000    0.000    1.167 
#    0.000    0.000    0.000    0.000    0.000    0.000 
#
# Total GULP energy -1189283.632982 kJ/mol
# GULP energy per Si atom -12388.371177 kJ/mol
# Density = 1.798114 g / cm^3
# Si number density = 18.022159 Si / 1000 Ang^3
#
#
#
# Elastic Constant Matrix: (Units=GPa)
#
#
# Indices 1 2 3 4 5 6 
#
# 1 133.6358 68.0485 33.0620 0.0000 0.0000 0.0000
# 2 68.0485 133.6354 33.0622 0.0000 0.0000 0.0000
# 3 33.0620 33.0622 57.8030 0.0000 0.0000 0.0000
# 4 0.0000 0.0000 0.0000 18.0254 0.0000 0.0000
# 5 0.0000 0.0000 0.0000 0.0000 18.0252 0.0000
# 6 0.0000 0.0000 0.0000 0.0000 0.0000 29.5210
#
#
#
# Elastic Compliance Matrix: (Units=1/GPa)
#
#
# Indices 1 2 3 4 5 6 
#
# 1 0.010675 -0.004572 -0.003491 0.000000 0.000000 0.000000
# 2 -0.004572 0.010675 -0.003491 0.000000 0.000000 0.000000
# 3 -0.003491 -0.003491 0.021293 0.000000 0.000000 0.000000
# 4 0.000000 0.000000 0.000000 0.055477 0.000000 0.000000
# 5 0.000000 0.000000 0.000000 0.000000 0.055478 0.000000
# 6 0.000000 0.000000 0.000000 0.000000 0.000000 0.033874
#
#
# Mechanical properties :
#
#
# Convention : Reuss Voigt Hill
#
# Bulk Modulus (GPa) = 51.18706 65.93549 58.56127
# Shear Modulus (GPa) = 23.03181 25.84108 24.43645
#
# Velocity S-wave (km/s) = 3.57875 3.79073 3.68626
# Velocity P-wave (km/s) = 6.74838 7.47159 7.11917
#
# Compressibility (1/GPa) = 0.01953619
#
# Stress axis : x y z
#
# Youngs Moduli (GPa) = 93.67889 93.67846 46.96328
#
# Poissons Ratio (x) = 0.42831 0.16393
# Poissons Ratio (y) = 0.42831 0.16393
# Poissons Ratio (z) = 0.32699 0.32700
#
# Static dielectric constant tensor:
#      x y z
#    x 6.590670 0.000000 0.000000 
#    y 0.000000 6.589350 0.000000 
#    z 0.000000 0.000000 3.084960 
# 
# 
# High freq. dielectric constant tensor:
#      x y z
#    x 1.702640 0.000000 0.000000 
#    y 0.000000 1.702640 0.000000 
#    z 0.000000 0.000000 1.671170 
# 
# From -- ./inp_files/8914.got.cif
#   From: 2010.03.12/outbox.cif.g09.slc.cpg/sg137_5_cif.got.tgz:8914.got - 2010.04.08 09:34:49.
