data_PCOD8318136
_publ_section_title
;
Structure prediction by ZEFSAII (Michael W. Deem and Ramdas Pophale) SiO2 
 PCOD8318136
Probable space group: P 42/M N M
;
_chemical_formula_sum "Si O2"
_cell_formula_units_Z 80
_cell_length_a 12.151123
_cell_length_b 12.151123
_cell_length_c 27.154803
_cell_angle_alpha 90.000000
_cell_angle_beta 90.000000
_cell_angle_gamma 90.000000
_cell_volume 4009.400965
_symmetry_space_group_name_H-M "P 42/M N M"
_symmetry_group_IT_number 136
_symmetry_cell_setting 'tetragonal'
loop_
_space_group_symop_operation_xyz
x,y,z
1/2-y,1/2+x,1/2+z
-x,-y,z
1/2+y,1/2-x,1/2+z
1/2+x,1/2-y,1/2-z
1/2-x,1/2+y,1/2-z
y,x,-z
-y,-x,-z
-x,-y,-z
1/2+y,1/2-x,1/2-z
x,y,-z
1/2-y,1/2+x,1/2-z
1/2-x,1/2+y,1/2+z
1/2+x,1/2-y,1/2+z
-y,-x,z
y,x,z
loop_
_atom_site_type_symbol
_atom_site_label
_atom_site_fract_x
_atom_site_fract_y
_atom_site_fract_z
Si Si1 0.796048 0.619822 0.055828
Si Si2 0.623134 0.010902 0.886917
Si Si3 0.519540 0.172054 0.233347
Si Si4 0.498572 0.323956 0.316405
Si Si5 0.258863 0.075869 0.622624
O O1 0.737396 0.737396 0.062133
O O2 0.925262 0.634722 0.068273
O O3 0.733667 0.534275 0.091800
O O4 0.786578 0.576751 0.000000
O O5 0.500000 0.000000 0.863307
O O6 0.712451 0.984359 0.846152
O O7 0.637295 0.137956 0.904573
O O8 0.401550 0.114743 0.241671
O O9 0.515391 0.291291 0.259540
O O10 0.545495 0.198084 0.176854
O O11 0.589863 0.410138 0.333544
O O12 0.377967 0.377967 0.324334
O O13 0.151507 0.151507 0.623573
#
# Coordination Sequence:
#
# PCOD8318136 Si02
#       5
#    16  16  16  16  16
#     4  10  23  43  66  90 117 156 205 257 311 366
#     4  10  20  38  62  88 116 155 202 247 297 358
#     4  11  22  37  61  89 122 166 210 246 294 351
#     4  11  23  37  57  88 124 162 201 248 305 358
#     4  11  23  38  62  93 126 161 201 251 306 364
#
# _framework density 19.953106999999999
#
# number of rings (size 3 to 8) (size 9 to 14) (size 15 to 20)
#    0.000    1.400    2.000    4.200    2.800    6.000 
#    0.000    1.000    0.000    1.800    0.000    7.000 
#    0.000    0.000    0.000    0.000    0.000    0.000 
#
# Total GULP energy -991613.216058 kJ/mol
# GULP energy per Si atom -12395.165201 kJ/mol
# Density = 1.990769 g / cm^3
# Si number density = 19.953107 Si / 1000 Ang^3
#
#
#
# Elastic Constant Matrix: (Units=GPa)
#
#
# Indices 1 2 3 4 5 6 
#
# 1 100.5514 44.4665 52.3300 0.0000 0.0000 0.0000
# 2 44.4665 100.5514 52.3300 0.0000 0.0000 0.0000
# 3 52.3300 52.3300 96.7713 0.0000 0.0000 0.0000
# 4 0.0000 0.0000 0.0000 23.6310 0.0000 0.0000
# 5 0.0000 0.0000 0.0000 0.0000 23.6310 0.0000
# 6 0.0000 0.0000 0.0000 0.0000 0.0000 25.7498
#
#
#
# Elastic Compliance Matrix: (Units=1/GPa)
#
#
# Indices 1 2 3 4 5 6 
#
# 1 0.014570 -0.003260 -0.006116 0.000000 0.000000 0.000000
# 2 -0.003260 0.014570 -0.006116 0.000000 0.000000 0.000000
# 3 -0.006116 -0.006116 0.016948 0.000000 0.000000 0.000000
# 4 0.000000 0.000000 0.000000 0.042317 0.000000 0.000000
# 5 0.000000 0.000000 0.000000 0.000000 0.042317 0.000000
# 6 0.000000 0.000000 0.000000 0.000000 0.000000 0.038835
#
#
# Mechanical properties :
#
#
# Convention : Reuss Voigt Hill
#
# Bulk Modulus (GPa) = 66.20768 66.23635 66.22201
# Shear Modulus (GPa) = 24.32200 24.51888 24.42044
#
# Velocity S-wave (km/s) = 3.49515 3.50926 3.50221
# Velocity P-wave (km/s) = 7.03859 7.04897 7.04378
#
# Compressibility (1/GPa) = 0.01510399
#
# Stress axis : x y z
#
# Youngs Moduli (GPa) = 68.63539 68.63539 59.00455
#
# Poissons Ratio (x) = 0.22377 0.36085
# Poissons Ratio (y) = 0.22377 0.36085
# Poissons Ratio (z) = 0.41975 0.41975
#
# Static dielectric constant tensor:
#      x y z
#    x 3.799350 0.000000 0.000000 
#    y 0.000000 3.799350 0.000000 
#    z 0.000000 0.000000 3.486110 
# 
# 
# High freq. dielectric constant tensor:
#      x y z
#    x 1.782080 0.000000 0.000000 
#    y 0.000000 1.782080 0.000000 
#    z 0.000000 0.000000 1.760210 
# 
# From -- ./inp_files/9571.got.cif
#   From: 2010.03.12/outbox.cif.g09.slc.cpg/sg136_5_cif.got.tgz:9571.got - 2010.04.06 18:39:43.
