data_PCOD8318917
_publ_section_title
;
Structure prediction by ZEFSAII (Michael W. Deem and Ramdas Pophale) SiO2 
 PCOD8318917
Probable space group: P 42/N C M
;
_chemical_formula_sum "Si O2"
_cell_formula_units_Z 96
_cell_length_a 19.157658
_cell_length_b 19.157658
_cell_length_c 15.012797
_cell_angle_alpha 90.000000
_cell_angle_beta 90.000000
_cell_angle_gamma 90.000000
_cell_volume 5509.934603
_symmetry_space_group_name_H-M "P 42/N C M"
_symmetry_group_IT_number 138
_space_group.IT_coordinate_system_code '2'
_symmetry_cell_setting 'tetragonal'
loop_
_space_group_symop_operation_xyz
x,y,z
1/2-y,x,1/2+z
1/2-x,1/2-y,z
y,1/2-x,1/2+z
1/2+x,-y,1/2-z
-x,1/2+y,1/2-z
1/2+y,1/2+x,-z
-y,-x,-z
-x,-y,-z
1/2+y,-x,1/2-z
1/2+x,1/2+y,-z
-y,1/2+x,1/2-z
1/2-x,y,1/2+z
x,1/2-y,1/2+z
1/2-y,1/2-x,z
y,x,z
loop_
_atom_site_type_symbol
_atom_site_label
_atom_site_fract_x
_atom_site_fract_y
_atom_site_fract_z
Si Si1 0.414604 0.969793 0.730937
Si Si2 0.016449 0.598565 0.574711
Si Si3 0.311378 0.070909 0.655641
Si Si4 0.013817 0.601321 0.069344
Si Si5 0.747860 0.536764 0.028835
Si Si6 0.254172 0.138557 0.315742
O O1 0.465312 0.034689 0.734350
O O2 0.346885 0.996713 0.677470
O O3 0.398382 0.948864 0.833150
O O4 0.449351 0.907959 0.673231
O O5 0.067437 0.567437 0.500000
O O6 0.942149 0.557852 0.569562
O O7 0.007686 0.680609 0.559007
O O8 0.367747 0.132253 0.639736
O O9 0.261961 0.063471 0.570949
O O10 0.259564 0.084220 0.737426
O O11 0.938838 0.561163 0.072785
O O12 0.006882 0.680942 0.037076
O O13 0.064260 0.564260 0.000000
O O14 0.756096 0.604569 0.088917
O O15 0.332924 0.167077 0.306384
O O16 0.200896 0.200896 0.306498
#
# Coordination Sequence:
#
# PCOD8318917 Si02
#       6
#    16  16  16  16  16  16
#     4   9  17  35  56  74 108 150 185 225 279 337
#     4  10  19  32  54  85 113 142 184 233 287 344
#     4  10  19  33  53  78 114 155 185 223 282 340
#     4  10  22  40  59  80 112 156 196 234 288 348
#     4  12  21  33  58  86 111 143 191 249 287 338
#     4  10  21  34  48  74 116 160 193 223 273 345
#
# _framework density 17.423075000000001
#
# number of rings (size 3 to 8) (size 9 to 14) (size 15 to 20)
#    0.000    1.833    3.333    2.000    0.000    2.667 
#    0.000    3.333    0.000    0.500    0.000    0.000 
#    0.000    0.000    0.000    0.000    0.000    0.000 
#
# Total GULP energy -1190048.059291 kJ/mol
# GULP energy per Si atom -12396.333951 kJ/mol
# Density = 1.738342 g / cm^3
# Si number density = 17.423075 Si / 1000 Ang^3
#
#
#
# Elastic Constant Matrix: (Units=GPa)
#
#
# Indices 1 2 3 4 5 6 
#
# 1 75.2697 30.4162 30.2526 0.0000 0.0000 0.0000
# 2 30.4162 75.2697 30.2526 0.0000 0.0000 0.0000
# 3 30.2526 30.2526 129.7536 0.0000 0.0000 0.0000
# 4 0.0000 0.0000 0.0000 24.9904 0.0000 0.0000
# 5 0.0000 0.0000 0.0000 0.0000 24.9904 0.0000
# 6 0.0000 0.0000 0.0000 0.0000 0.0000 14.9599
#
#
#
# Elastic Compliance Matrix: (Units=1/GPa)
#
#
# Indices 1 2 3 4 5 6 
#
# 1 0.016607 -0.005688 -0.002546 0.000000 0.000000 0.000000
# 2 -0.005688 0.016607 -0.002546 0.000000 0.000000 0.000000
# 3 -0.002546 -0.002546 0.008894 0.000000 0.000000 0.000000
# 4 0.000000 0.000000 0.000000 0.040015 0.000000 0.000000
# 5 0.000000 0.000000 0.000000 0.000000 0.040015 0.000000
# 6 0.000000 0.000000 0.000000 0.000000 0.000000 0.066845
#
#
# Mechanical properties :
#
#
# Convention : Reuss Voigt Hill
#
# Bulk Modulus (GPa) = 48.66309 51.34842 50.00576
# Shear Modulus (GPa) = 22.99979 25.61292 24.30636
#
# Velocity S-wave (km/s) = 3.63723 3.83829 3.73911
# Velocity P-wave (km/s) = 6.75501 7.01276 6.88509
#
# Compressibility (1/GPa) = 0.02054945
#
# Stress axis : x y z
#
# Youngs Moduli (GPa) = 60.21494 60.21494 112.43401
#
# Poissons Ratio (x) = 0.34248 0.28625
# Poissons Ratio (y) = 0.34248 0.28625
# Poissons Ratio (z) = 0.15330 0.15330
#
# Static dielectric constant tensor:
#      x y z
#    x 3.175910 0.000000 0.000000 
#    y 0.000000 3.175910 0.000000 
#    z 0.000000 0.000000 3.734640 
# 
# 
# High freq. dielectric constant tensor:
#      x y z
#    x 1.648300 0.000000 0.000000 
#    y 0.000000 1.648300 0.000000 
#    z 0.000000 0.000000 1.696430 
# 
# From -- ./inp_files/4340.got.cif
#   From: 2010.03.12/outbox.cif.g09.slc.cpg/sg138_3_cif.got.tgz:4340.got - 2010.04.08 09:41:05.
