data_PCOD8318542
_publ_section_title
;
Structure prediction by ZEFSAII (Michael W. Deem and Ramdas Pophale) SiO2 
 PCOD8318542
Probable space group: P 42/N M C
;
_chemical_formula_sum "Si O2"
_cell_formula_units_Z 80
_cell_length_a 17.392951
_cell_length_b 17.392951
_cell_length_c 14.750110
_cell_angle_alpha 90.000000
_cell_angle_beta 90.000000
_cell_angle_gamma 90.000000
_cell_volume 4462.125758
_symmetry_space_group_name_H-M "P 42/N M C"
_symmetry_group_IT_number 137
_space_group.IT_coordinate_system_code '2'
_symmetry_cell_setting 'tetragonal'
loop_
_space_group_symop_operation_xyz
x,y,z
1/2-y,x,1/2+z
1/2-x,1/2-y,z
y,1/2-x,1/2+z
1/2+x,-y,-z
-x,1/2+y,-z
1/2+y,1/2+x,1/2-z
-y,-x,1/2-z
-x,-y,-z
1/2+y,-x,1/2-z
1/2+x,1/2+y,-z
-y,1/2+x,1/2-z
1/2-x,y,z
x,1/2-y,z
1/2-y,1/2-x,1/2+z
y,x,1/2+z
loop_
_atom_site_type_symbol
_atom_site_label
_atom_site_fract_x
_atom_site_fract_y
_atom_site_fract_z
Si Si1 0.024037 0.524037 0.750000
Si Si2 0.435937 0.940085 0.396141
Si Si3 0.094844 0.424430 0.515266
Si Si4 0.342296 0.657705 0.250000
Si Si5 0.159992 0.334233 0.855389
Si Si6 0.058924 0.164310 0.196893
O O1 0.110525 0.514926 0.714276
O O2 0.962974 0.507595 0.670999
O O3 0.511818 0.902024 0.441021
O O4 0.381334 0.879237 0.341556
O O5 0.394916 0.987926 0.476840
O O6 0.111049 0.363470 0.437526
O O7 0.158606 0.414391 0.593138
O O8 0.250000 0.641934 0.251276
O O9 0.250000 0.324300 0.859717
O O10 0.120220 0.250000 0.862005
O O11 0.135652 0.370981 0.759609
O O12 0.033465 0.250000 0.221673
#
# Coordination Sequence:
#
# PCOD8318542 Si02
#       6
#     8  16  16   8  16  16
#     4   9  16  35  54  74 104 135 178 221 258 322
#     4   9  19  35  56  81 106 140 183 231 269 328
#     4  10  19  35  56  81 107 141 185 227 270 328
#     4  10  22  39  58  84 118 153 190 238 294 342
#     4  10  21  35  51  78 114 146 177 219 274 335
#     4  10  20  33  53  78 106 142 180 225 275 321
#
# _framework density 17.928674999999998
#
# number of rings (size 3 to 8) (size 9 to 14) (size 15 to 20)
#    0.000    2.300    2.000    0.600    0.000    3.200 
#    0.000    2.000    0.000    0.300    0.000    0.000 
#    0.000    0.000    0.000    0.000    0.000    0.000 
#
# Total GULP energy -991197.672612 kJ/mol
# GULP energy per Si atom -12389.970908 kJ/mol
# Density = 1.788787 g / cm^3
# Si number density = 17.928675 Si / 1000 Ang^3
#
#
#
# Elastic Constant Matrix: (Units=GPa)
#
#
# Indices 1 2 3 4 5 6 
#
# 1 72.6938 45.7843 44.1267 0.0000 0.0000 0.0000
# 2 45.7843 72.6948 44.1269 0.0000 0.0000 0.0000
# 3 44.1267 44.1269 130.7685 0.0000 0.0000 0.0000
# 4 0.0000 0.0000 0.0000 27.8922 0.0000 0.0000
# 5 0.0000 0.0000 0.0000 0.0000 27.8927 0.0000
# 6 0.0000 0.0000 0.0000 0.0000 0.0000 16.5097
#
#
#
# Elastic Compliance Matrix: (Units=1/GPa)
#
#
# Indices 1 2 3 4 5 6 
#
# 1 0.024218 -0.012943 -0.003804 0.000000 0.000000 0.000000
# 2 -0.012943 0.024217 -0.003804 0.000000 0.000000 0.000000
# 3 -0.003804 -0.003804 0.010215 0.000000 0.000000 0.000000
# 4 0.000000 0.000000 0.000000 0.035852 0.000000 0.000000
# 5 0.000000 0.000000 0.000000 0.000000 0.035852 0.000000
# 6 0.000000 0.000000 0.000000 0.000000 0.000000 0.060570
#
#
# Mechanical properties :
#
#
# Convention : Reuss Voigt Hill
#
# Bulk Modulus (GPa) = 56.99482 60.47035 58.73259
# Shear Modulus (GPa) = 21.01928 23.93354 22.47641
#
# Velocity S-wave (km/s) = 3.42772 3.65763 3.54454
# Velocity P-wave (km/s) = 6.89380 7.18604 7.04144
#
# Compressibility (1/GPa) = 0.01754545
#
# Stress axis : x y z
#
# Youngs Moduli (GPa) = 41.29201 41.29268 97.89883
#
# Poissons Ratio (x) = 0.53447 0.37245
# Poissons Ratio (y) = 0.53446 0.37244
# Poissons Ratio (z) = 0.15709 0.15709
#
# Static dielectric constant tensor:
#      x y z
#    x 3.270360 0.000000 0.000000 
#    y 0.000000 3.270330 0.000000 
#    z 0.000000 0.000000 3.687110 
# 
# 
# High freq. dielectric constant tensor:
#      x y z
#    x 1.676440 0.000000 0.000000 
#    y 0.000000 1.676440 0.000000 
#    z 0.000000 0.000000 1.713840 
# 
# From -- ./inp_files/4986.got.cif
#   From: 2010.03.12/outbox.cif.g09.slc.cpg/sg137_3_cif.got.tgz:4986.got - 2010.04.08 09:34:49.
