data_PCOD8318216
_publ_section_title
;
Structure prediction by ZEFSAII (Michael W. Deem and Ramdas Pophale) SiO2 
 PCOD8318216
Probable space group: P 42/M N M
;
_chemical_formula_sum "Si O2"
_cell_formula_units_Z 88
_cell_length_a 13.903394
_cell_length_b 13.903394
_cell_length_c 22.430596
_cell_angle_alpha 90.000000
_cell_angle_beta 90.000000
_cell_angle_gamma 90.000000
_cell_volume 4335.932110
_symmetry_space_group_name_H-M "P 42/M N M"
_symmetry_group_IT_number 136
_symmetry_cell_setting 'tetragonal'
loop_
_space_group_symop_operation_xyz
x,y,z
1/2-y,1/2+x,1/2+z
-x,-y,z
1/2+y,1/2-x,1/2+z
1/2+x,1/2-y,1/2-z
1/2-x,1/2+y,1/2-z
y,x,-z
-y,-x,-z
-x,-y,-z
1/2+y,1/2-x,1/2-z
x,y,-z
1/2-y,1/2+x,1/2-z
1/2-x,1/2+y,1/2+z
1/2+x,1/2-y,1/2+z
-y,-x,z
y,x,z
loop_
_atom_site_type_symbol
_atom_site_label
_atom_site_fract_x
_atom_site_fract_y
_atom_site_fract_z
Si Si1 0.712139 0.950594 0.620770
Si Si2 0.700610 0.148155 0.568354
Si Si3 0.883557 0.271197 0.067671
Si Si4 0.578048 0.421953 0.929355
Si Si5 0.065006 0.218288 0.865336
Si Si6 0.951512 0.652533 0.749976
O O1 0.636181 0.879512 0.589249
O O2 0.817910 0.948579 0.594252
O O3 0.714220 0.929588 0.690917
O O4 0.675098 0.058278 0.609890
O O5 0.692590 0.116119 0.500000
O O6 0.806741 0.193260 0.580964
O O7 0.621569 0.227939 0.582323
O O8 0.781531 0.218470 0.071323
O O9 0.956016 0.213256 0.111008
O O10 0.923047 0.272484 0.000000
O O11 0.500000 0.500000 0.906743
O O12 0.580744 0.419257 0.000000
O O13 0.112094 0.112094 0.855850
O O14 0.071885 0.277400 0.804280
O O15 0.880726 0.561750 0.749911
#
# Coordination Sequence:
#
# PCOD8318216 Si02
#       6
#    16  16  16   8  16  16
#     4  12  22  39  66  94 131 173 217 266 325 395
#     4  10  21  38  62  95 130 161 202 261 331 397
#     4  11  24  42  65  94 128 170 222 273 327 392
#     4  11  24  42  66 100 139 175 214 270 340 411
#     4  11  24  43  65  92 125 166 215 269 327 383
#     4  11  23  43  65  91 127 169 214 267 325 393
#
# _framework density 20.295521999999998
#
# number of rings (size 3 to 8) (size 9 to 14) (size 15 to 20)
#    0.000    1.000    4.545    2.727    1.273    3.636 
#    0.000    4.545    0.000    0.000    0.000    0.000 
#    0.000    0.000    0.000    0.000    0.000    0.000 
#
# Total GULP energy -1091302.811616 kJ/mol
# GULP energy per Si atom -12401.168314 kJ/mol
# Density = 2.024933 g / cm^3
# Si number density = 20.295522 Si / 1000 Ang^3
#
#
#
# Elastic Constant Matrix: (Units=GPa)
#
#
# Indices 1 2 3 4 5 6 
#
# 1 112.0751 0.4926 36.9825 0.0000 0.0000 0.0000
# 2 0.4926 112.0766 36.9831 0.0000 0.0000 0.0000
# 3 36.9825 36.9831 109.5370 0.0000 0.0000 0.0000
# 4 0.0000 0.0000 0.0000 31.9222 0.0000 0.0000
# 5 0.0000 0.0000 0.0000 0.0000 31.9222 0.0000
# 6 0.0000 0.0000 0.0000 0.0000 0.0000 29.9182
#
#
#
# Elastic Compliance Matrix: (Units=1/GPa)
#
#
# Indices 1 2 3 4 5 6 
#
# 1 0.010189 0.001227 -0.003854 0.000000 0.000000 0.000000
# 2 0.001227 0.010189 -0.003854 0.000000 0.000000 0.000000
# 3 -0.003854 -0.003854 0.011732 0.000000 0.000000 0.000000
# 4 0.000000 0.000000 0.000000 0.031326 0.000000 0.000000
# 5 0.000000 0.000000 0.000000 0.000000 0.031326 0.000000
# 6 0.000000 0.000000 0.000000 0.000000 0.000000 0.033424
#
#
# Mechanical properties :
#
#
# Convention : Reuss Voigt Hill
#
# Bulk Modulus (GPa) = 52.22846 53.62278 52.92562
# Shear Modulus (GPa) = 33.89086 36.03457 34.96271
#
# Velocity S-wave (km/s) = 4.09084 4.21823 4.15502
# Velocity P-wave (km/s) = 6.93564 7.08541 7.01092
#
# Compressibility (1/GPa) = 0.01914665
#
# Stress axis : x y z
#
# Youngs Moduli (GPa) = 98.14447 98.14551 85.23664
#
# Poissons Ratio (x) = -0.12043 0.32854
# Poissons Ratio (y) = -0.12043 0.32854
# Poissons Ratio (z) = 0.37829 0.37829
#
# Static dielectric constant tensor:
#      x y z
#    x 3.649330 0.000000 0.000000 
#    y 0.000000 3.649330 0.000000 
#    z 0.000000 0.000000 3.691220 
# 
# 
# High freq. dielectric constant tensor:
#      x y z
#    x 1.791440 0.000000 0.000000 
#    y 0.000000 1.791440 0.000000 
#    z 0.000000 0.000000 1.801970 
# 
# From -- ./inp_files/7375.got.cif
#   From: 2010.03.12/outbox.cif.g09.slc.cpg/sg136_4_cif.got.tgz:7375.got - 2010.04.06 18:39:43.
