data_PCOD8318732
_publ_section_title
;
Structure prediction by ZEFSAII (Michael W. Deem and Ramdas Pophale) SiO2 
 PCOD8318732
Probable space group: P 42/N M C
;
_chemical_formula_sum "Si O2"
_cell_formula_units_Z 64
_cell_length_a 18.011479
_cell_length_b 18.011479
_cell_length_c 10.070962
_cell_angle_alpha 90.000000
_cell_angle_beta 90.000000
_cell_angle_gamma 90.000000
_cell_volume 3267.154780
_symmetry_space_group_name_H-M "P 42/N M C"
_symmetry_group_IT_number 137
_space_group.IT_coordinate_system_code '2'
_symmetry_cell_setting 'tetragonal'
loop_
_space_group_symop_operation_xyz
x,y,z
1/2-y,x,1/2+z
1/2-x,1/2-y,z
y,1/2-x,1/2+z
1/2+x,-y,-z
-x,1/2+y,-z
1/2+y,1/2+x,1/2-z
-y,-x,1/2-z
-x,-y,-z
1/2+y,-x,1/2-z
1/2+x,1/2+y,-z
-y,1/2+x,1/2-z
1/2-x,y,z
x,1/2-y,z
1/2-y,1/2-x,1/2+z
y,x,1/2+z
loop_
_atom_site_type_symbol
_atom_site_label
_atom_site_fract_x
_atom_site_fract_y
_atom_site_fract_z
Si Si1 0.167306 0.164073 0.736197
Si Si2 0.049170 0.834739 0.592928
Si Si3 0.598358 0.902112 0.013964
Si Si4 0.953998 0.165217 0.098375
O O1 0.250000 0.130070 0.753365
O O2 0.168384 0.250000 0.768770
O O3 0.141752 0.152065 0.585542
O O4 0.111436 0.124835 0.836519
O O5 0.054709 0.750000 0.541844
O O6 0.025084 0.836627 0.746776
O O7 0.129437 0.873096 0.573239
O O8 0.989233 0.881130 0.507306
O O9 0.513197 0.885873 0.978343
O O10 0.953577 0.250000 0.045309
#
# Coordination Sequence:
#
# PCOD8318732 Si02
#       4
#    16  16  16  16
#     4  11  22  34  53  82 118 160 199 235 286 350
#     4  10  21  38  60  87 119 155 197 244 293 348
#     4  12  21  37  58  84 118 153 192 246 295 344
#     4  10  21  38  60  87 119 155 197 244 293 348
#
# _framework density 19.588909999999998
#
# number of rings (size 3 to 8) (size 9 to 14) (size 15 to 20)
#    0.000    1.250    2.500    5.250    0.000    2.500 
#    0.000    2.500    0.000    0.000    0.000    0.000 
#    0.000    6.000    0.000    0.000    0.000    0.000 
#
# Total GULP energy -793750.368573 kJ/mol
# GULP energy per Si atom -12402.349509 kJ/mol
# Density = 1.954432 g / cm^3
# Si number density = 19.588910 Si / 1000 Ang^3
#
#
#
# Elastic Constant Matrix: (Units=GPa)
#
#
# Indices 1 2 3 4 5 6 
#
# 1 121.1494 74.0533 23.2431 0.0000 0.0000 0.0000
# 2 74.0533 121.1494 23.2431 0.0000 0.0000 0.0000
# 3 23.2431 23.2431 44.6188 0.0000 0.0000 0.0000
# 4 0.0000 0.0000 0.0000 27.6978 0.0000 0.0000
# 5 0.0000 0.0000 0.0000 0.0000 27.6978 0.0000
# 6 0.0000 0.0000 0.0000 0.0000 0.0000 33.0835
#
#
#
# Elastic Compliance Matrix: (Units=1/GPa)
#
#
# Indices 1 2 3 4 5 6 
#
# 1 0.013541 -0.007692 -0.003047 0.000000 0.000000 0.000000
# 2 -0.007692 0.013541 -0.003047 0.000000 0.000000 0.000000
# 3 -0.003047 -0.003047 0.025586 0.000000 0.000000 0.000000
# 4 0.000000 0.000000 0.000000 0.036104 0.000000 0.000000
# 5 0.000000 0.000000 0.000000 0.000000 0.036104 0.000000
# 6 0.000000 0.000000 0.000000 0.000000 0.000000 0.030227
#
#
# Mechanical properties :
#
#
# Convention : Reuss Voigt Hill
#
# Bulk Modulus (GPa) = 39.84596 58.66629 49.25612
# Shear Modulus (GPa) = 26.17269 28.78771 27.48020
#
# Velocity S-wave (km/s) = 3.65923 3.83768 3.74952
# Velocity P-wave (km/s) = 6.18373 7.04634 6.62908
#
# Compressibility (1/GPa) = 0.02509665
#
# Stress axis : x y z
#
# Youngs Moduli (GPa) = 73.85101 73.85101 39.08357
#
# Poissons Ratio (x) = 0.56809 0.11907
# Poissons Ratio (y) = 0.56809 0.11907
# Poissons Ratio (z) = 0.22499 0.22499
#
# Static dielectric constant tensor:
#      x y z
#    x 3.583180 0.000000 0.000000 
#    y 0.000000 3.583180 0.000000 
#    z 0.000000 0.000000 3.323790 
# 
# 
# High freq. dielectric constant tensor:
#      x y z
#    x 1.767080 0.000000 0.000000 
#    y 0.000000 1.767080 0.000000 
#    z 0.000000 0.000000 1.738860 
# 
# From -- ./inp_files/3338.got.cif
#   From: 2010.03.12/outbox.cif.g09.slc.cpg/sg137_2_cif.got.tgz:3338.got - 2010.04.08 09:34:49.
