data_PCOD8318177
_publ_section_title
;
Structure prediction by ZEFSAII (Michael W. Deem and Ramdas Pophale) SiO2 
 PCOD8318177
Probable space group: P 42/M N M
;
_chemical_formula_sum "Si O2"
_cell_formula_units_Z 80
_cell_length_a 11.733717
_cell_length_b 11.733717
_cell_length_c 28.266530
_cell_angle_alpha 90.000000
_cell_angle_beta 90.000000
_cell_angle_gamma 90.000000
_cell_volume 3891.739091
_symmetry_space_group_name_H-M "P 42/M N M"
_symmetry_group_IT_number 136
_symmetry_cell_setting 'tetragonal'
loop_
_space_group_symop_operation_xyz
x,y,z
1/2-y,1/2+x,1/2+z
-x,-y,z
1/2+y,1/2-x,1/2+z
1/2+x,1/2-y,1/2-z
1/2-x,1/2+y,1/2-z
y,x,-z
-y,-x,-z
-x,-y,-z
1/2+y,1/2-x,1/2-z
x,y,-z
1/2-y,1/2+x,1/2-z
1/2-x,1/2+y,1/2+z
1/2+x,1/2-y,1/2+z
-y,-x,z
y,x,z
loop_
_atom_site_type_symbol
_atom_site_label
_atom_site_fract_x
_atom_site_fract_y
_atom_site_fract_z
Si Si1 0.190992 0.620853 0.446739
Si Si2 0.585847 0.772336 0.385862
Si Si3 0.976120 0.338512 0.635775
Si Si4 0.268091 0.077751 0.192967
Si Si5 0.506010 0.680316 0.214923
O O1 0.142394 0.617835 0.500000
O O2 0.301147 0.698854 0.442766
O O3 0.231198 0.493915 0.432235
O O4 0.093015 0.673352 0.413073
O O5 0.704136 0.704136 0.394792
O O6 0.518795 0.715601 0.341898
O O7 0.597485 0.906798 0.374946
O O8 0.896600 0.396377 0.676026
O O9 0.010403 0.219826 0.660588
O O10 0.191013 0.191013 0.189462
O O11 0.275421 0.025713 0.245831
O O12 0.423264 0.576737 0.224544
O O13 0.635756 0.635756 0.222477
#
# Coordination Sequence:
#
# PCOD8318177 Si02
#       5
#    16  16  16  16  16
#     4  10  22  42  67  91 116 153 202 255 311 366
#     4  11  23  38  58  89 126 158 195 246 303 369
#     4  11  22  38  59  87 123 160 199 247 302 363
#     4  10  21  37  59  85 117 161 205 252 302 350
#     4  10  21  36  56  84 121 165 208 251 300 359
#
# _framework density 20.556360999999999
#
# number of rings (size 3 to 8) (size 9 to 14) (size 15 to 20)
#    0.000    1.600    0.000    7.200    2.800    4.400 
#    0.000    1.000    0.000    1.800    0.000    7.000 
#    0.000    0.000    0.000    0.000    0.000    0.000 
#
# Total GULP energy -991297.943377 kJ/mol
# GULP energy per Si atom -12391.224292 kJ/mol
# Density = 2.050957 g / cm^3
# Si number density = 20.556361 Si / 1000 Ang^3
#
#
#
# Elastic Constant Matrix: (Units=GPa)
#
#
# Indices 1 2 3 4 5 6 
#
# 1 99.4816 42.8361 54.3148 0.0000 0.0000 0.0000
# 2 42.8361 99.4816 54.3148 0.0000 0.0000 0.0000
# 3 54.3148 54.3148 161.6058 0.0000 0.0000 0.0000
# 4 0.0000 0.0000 0.0000 28.0336 0.0000 0.0000
# 5 0.0000 0.0000 0.0000 0.0000 28.0336 0.0000
# 6 0.0000 0.0000 0.0000 0.0000 0.0000 24.9669
#
#
#
# Elastic Compliance Matrix: (Units=1/GPa)
#
#
# Indices 1 2 3 4 5 6 
#
# 1 0.013552 -0.004101 -0.003176 0.000000 0.000000 0.000000
# 2 -0.004101 0.013552 -0.003176 0.000000 0.000000 0.000000
# 3 -0.003176 -0.003176 0.008323 0.000000 0.000000 0.000000
# 4 0.000000 0.000000 0.000000 0.035671 0.000000 0.000000
# 5 0.000000 0.000000 0.000000 0.000000 0.035671 0.000000
# 6 0.000000 0.000000 0.000000 0.000000 0.000000 0.040053
#
#
# Mechanical properties :
#
#
# Convention : Reuss Voigt Hill
#
# Bulk Modulus (GPa) = 68.87327 73.72229 71.29778
# Shear Modulus (GPa) = 28.97342 30.14704 29.56023
#
# Velocity S-wave (km/s) = 3.75835 3.83372 3.79622
# Velocity P-wave (km/s) = 7.23954 7.45237 7.34673
#
# Compressibility (1/GPa) = 0.01451942
#
# Stress axis : x y z
#
# Youngs Moduli (GPa) = 73.78777 73.78777 120.14788
#
# Poissons Ratio (x) = 0.30263 0.38164
# Poissons Ratio (y) = 0.30263 0.38164
# Poissons Ratio (z) = 0.23438 0.23438
#
# Static dielectric constant tensor:
#      x y z
#    x 3.849560 0.000000 0.000000 
#    y 0.000000 3.849560 0.000000 
#    z 0.000000 0.000000 3.975300 
# 
# 
# High freq. dielectric constant tensor:
#      x y z
#    x 1.804340 0.000000 0.000000 
#    y 0.000000 1.804340 0.000000 
#    z 0.000000 0.000000 1.797180 
# 
# From -- ./inp_files/9539.got.cif
#   From: 2010.03.12/outbox.cif.g09.slc.cpg/sg136_5_cif.got.tgz:9539.got - 2010.04.06 18:39:43.
