data_PCOD8318343
_publ_section_title
;
Structure prediction by ZEFSAII (Michael W. Deem and Ramdas Pophale) SiO2 
 PCOD8318343
Probable space group: P 42/M N M
;
_chemical_formula_sum "Si O2"
_cell_formula_units_Z 72
_cell_length_a 12.540613
_cell_length_b 12.540613
_cell_length_c 24.739888
_cell_angle_alpha 90.000000
_cell_angle_beta 90.000000
_cell_angle_gamma 90.000000
_cell_volume 3890.767333
_symmetry_space_group_name_H-M "P 42/M N M"
_symmetry_group_IT_number 136
_symmetry_cell_setting 'tetragonal'
loop_
_space_group_symop_operation_xyz
x,y,z
1/2-y,1/2+x,1/2+z
-x,-y,z
1/2+y,1/2-x,1/2+z
1/2+x,1/2-y,1/2-z
1/2-x,1/2+y,1/2-z
y,x,-z
-y,-x,-z
-x,-y,-z
1/2+y,1/2-x,1/2-z
x,y,-z
1/2-y,1/2+x,1/2-z
1/2-x,1/2+y,1/2+z
1/2+x,1/2-y,1/2+z
-y,-x,z
y,x,z
loop_
_atom_site_type_symbol
_atom_site_label
_atom_site_fract_x
_atom_site_fract_y
_atom_site_fract_z
Si Si1 0.537953 0.281892 0.354835
Si Si2 0.709961 0.117600 0.360669
Si Si3 0.911008 0.088993 0.938374
Si Si4 0.672641 0.492919 0.060299
Si Si5 0.170420 0.464757 0.748358
O O1 0.623447 0.376554 0.343766
O O2 0.593225 0.168821 0.369291
O O3 0.459178 0.312017 0.404147
O O4 0.472925 0.257516 0.299726
O O5 0.792313 0.207688 0.377265
O O6 0.727518 0.017810 0.400732
O O7 0.732750 0.079428 0.300077
O O8 0.876811 0.123190 0.000000
O O9 0.000000 0.000000 0.943840
O O10 0.620571 0.379430 0.076615
O O11 0.582137 0.582137 0.064701
O O12 0.718716 0.487431 0.000000
O O13 0.119429 0.577689 0.765951
#
# Coordination Sequence:
#
# PCOD8318343 Si02
#       5
#    16  16   8  16  16
#     4   9  18  31  47  70  95 121 158 202 241 284
#     4   9  17  28  45  70  95 121 161 197 233 286
#     4   9  18  32  50  72  98 128 162 204 251 288
#     4   8  14  25  41  63  92 123 153 190 234 277
#     4   9  18  32  48  67  94 126 155 188 239 293
#
# _framework density 18.505345999999999
#
# number of rings (size 3 to 8) (size 9 to 14) (size 15 to 20)
#    0.000    3.222    0.000    0.667    1.556    1.778 
#    0.000    4.444    0.000    1.333    0.000    6.222 
#    0.000    0.000    0.000    0.000    0.000    0.000 
#
# Total GULP energy -892125.234801 kJ/mol
# GULP energy per Si atom -12390.628261 kJ/mol
# Density = 1.846323 g / cm^3
# Si number density = 18.505346 Si / 1000 Ang^3
#
#
#
# Elastic Constant Matrix: (Units=GPa)
#
#
# Indices 1 2 3 4 5 6 
#
# 1 52.5886 25.0595 57.7648 0.0000 0.0000 0.0000
# 2 25.0595 52.5885 57.7648 0.0000 0.0000 0.0000
# 3 57.7648 57.7648 147.2855 0.0000 0.0000 0.0000
# 4 0.0000 0.0000 0.0000 15.1873 0.0000 0.0000
# 5 0.0000 0.0000 0.0000 0.0000 15.1873 0.0000
# 6 0.0000 0.0000 0.0000 0.0000 0.0000 17.6812
#
#
#
# Elastic Compliance Matrix: (Units=1/GPa)
#
#
# Indices 1 2 3 4 5 6 
#
# 1 0.033624 -0.002701 -0.012128 0.000000 0.000000 0.000000
# 2 -0.002701 0.033624 -0.012128 0.000000 0.000000 0.000000
# 3 -0.012128 -0.012128 0.016303 0.000000 0.000000 0.000000
# 4 0.000000 0.000000 0.000000 0.065844 0.000000 0.000000
# 5 0.000000 0.000000 0.000000 0.000000 0.065845 0.000000
# 6 0.000000 0.000000 0.000000 0.000000 0.000000 0.056557
#
#
# Mechanical properties :
#
#
# Convention : Reuss Voigt Hill
#
# Bulk Modulus (GPa) = 33.74112 59.29340 46.51726
# Shear Modulus (GPa) = 14.89910 17.06941 15.98426
#
# Velocity S-wave (km/s) = 2.84055 3.04041 2.94218
# Velocity P-wave (km/s) = 5.38805 6.66605 6.06083
#
# Compressibility (1/GPa) = 0.02963743
#
# Stress axis : x y z
#
# Youngs Moduli (GPa) = 29.74033 29.74030 61.33954
#
# Poissons Ratio (x) = 0.08032 0.74393
# Poissons Ratio (y) = 0.08032 0.74393
# Poissons Ratio (z) = 0.36069 0.36069
#
# Static dielectric constant tensor:
#      x y z
#    x 3.369580 0.000000 0.000000 
#    y 0.000000 3.369580 0.000000 
#    z 0.000000 0.000000 3.582940 
# 
# 
# High freq. dielectric constant tensor:
#      x y z
#    x 1.697040 0.000000 0.000000 
#    y 0.000000 1.697040 0.000000 
#    z 0.000000 0.000000 1.716630 
# 
# From -- ./inp_files/8985.got.cif
#   From: 2010.03.12/outbox.cif.g09.slc.cpg/sg136_5_cif.got.tgz:8985.got - 2010.04.06 18:39:43.
