data_PCOD8318759
_publ_section_title
;
Structure prediction by ZEFSAII (Michael W. Deem and Ramdas Pophale) SiO2 
 PCOD8318759
Probable space group: P 42/N M C
;
_chemical_formula_sum "Si O2"
_cell_formula_units_Z 84
_cell_length_a 21.274010
_cell_length_b 21.274010
_cell_length_c 9.399722
_cell_angle_alpha 90.000000
_cell_angle_beta 90.000000
_cell_angle_gamma 90.000000
_cell_volume 4254.159096
_symmetry_space_group_name_H-M "P 42/N M C"
_symmetry_group_IT_number 137
_space_group.IT_coordinate_system_code '2'
_symmetry_cell_setting 'tetragonal'
loop_
_space_group_symop_operation_xyz
x,y,z
1/2-y,x,1/2+z
1/2-x,1/2-y,z
y,1/2-x,1/2+z
1/2+x,-y,-z
-x,1/2+y,-z
1/2+y,1/2+x,1/2-z
-y,-x,1/2-z
-x,-y,-z
1/2+y,-x,1/2-z
1/2+x,1/2+y,-z
-y,1/2+x,1/2-z
1/2-x,y,z
x,1/2-y,z
1/2-y,1/2-x,1/2+z
y,x,1/2+z
loop_
_atom_site_type_symbol
_atom_site_label
_atom_site_fract_x
_atom_site_fract_y
_atom_site_fract_z
Si Si1 0.750000 0.648790 0.538129
Si Si2 0.414523 0.484825 0.774496
Si Si3 0.678067 0.321934 0.750000
Si Si4 0.936951 0.318084 0.927502
Si Si5 0.085170 0.681847 0.746163
Si Si6 0.561345 0.626942 0.028274
Si Si7 0.750000 0.750000 0.288082
O O1 0.812478 0.606195 0.538625
O O2 0.750000 0.689605 0.392670
O O3 0.750000 0.689548 0.683613
O O4 0.483260 0.516741 0.750000
O O5 0.367594 0.539505 0.831893
O O6 0.389730 0.450270 0.634957
O O7 0.410083 0.434215 0.899042
O O8 0.750000 0.331765 0.800494
O O9 0.657660 0.368362 0.621821
O O10 0.948145 0.250000 0.856560
O O11 0.995736 0.361740 0.885902
O O12 0.939528 0.311332 0.095213
O O13 0.156466 0.656466 0.750000
O O14 0.083857 0.750000 0.670116
#
# Coordination Sequence:
#
# PCOD8318759 Si02
#       7
#     8  16   8  16  16  16   4
#     4  11  22  42  64  94 119 164 200 256 307 374
#     4  10  22  38  59  87 119 156 199 245 295 355
#     4   9  18  32  52  80 110 144 188 238 295 336
#     4   9  18  34  54  77 107 148 185 230 279 350
#     4   9  19  36  56  80 113 149 192 233 289 347
#     4  11  21  38  62  85 117 157 201 237 303 357
#     4  10  24  42  64  90 128 150 204 258 312 362
#
# _framework density 19.745384000000001
#
# number of rings (size 3 to 8) (size 9 to 14) (size 15 to 20)
#    0.000    2.190    0.952    1.714    2.667    0.952 
#    3.429    1.905    0.000    0.000    0.000    0.000 
#    0.000    0.000    0.000    0.000    0.000    0.000 
#
# Total GULP energy -1040793.652892 kJ/mol
# GULP energy per Si atom -12390.400630 kJ/mol
# Density = 1.970044 g / cm^3
# Si number density = 19.745384 Si / 1000 Ang^3
#
#
#
# Elastic Constant Matrix: (Units=GPa)
#
#
# Indices 1 2 3 4 5 6 
#
# 1 122.4776 57.8015 26.8382 0.0000 0.0000 0.0000
# 2 57.8015 122.4779 26.8388 0.0000 0.0000 0.0000
# 3 26.8382 26.8388 43.0518 0.0000 0.0000 0.0000
# 4 0.0000 0.0000 0.0000 26.1719 0.0000 0.0000
# 5 0.0000 0.0000 0.0000 0.0000 26.1712 0.0000
# 6 0.0000 0.0000 0.0000 0.0000 0.0000 27.4709
#
#
#
# Elastic Compliance Matrix: (Units=1/GPa)
#
#
# Indices 1 2 3 4 5 6 
#
# 1 0.011136 -0.004325 -0.004246 0.000000 0.000000 0.000000
# 2 -0.004325 0.011136 -0.004246 0.000000 0.000000 0.000000
# 3 -0.004246 -0.004246 0.028522 0.000000 0.000000 0.000000
# 4 0.000000 0.000000 0.000000 0.038209 0.000000 0.000000
# 5 0.000000 0.000000 0.000000 0.000000 0.038210 0.000000
# 6 0.000000 0.000000 0.000000 0.000000 0.000000 0.036402
#
#
# Mechanical properties :
#
#
# Convention : Reuss Voigt Hill
#
# Bulk Modulus (GPa) = 39.74587 56.77384 48.25986
# Shear Modulus (GPa) = 25.29889 27.73139 26.51514
#
# Velocity S-wave (km/s) = 3.58335 3.75166 3.66847
# Velocity P-wave (km/s) = 6.10683 6.89797 6.51442
#
# Compressibility (1/GPa) = 0.02515985
#
# Stress axis : x y z
#
# Youngs Moduli (GPa) = 89.79569 89.79533 35.06080
#
# Poissons Ratio (x) = 0.38838 0.14887
# Poissons Ratio (y) = 0.38839 0.14888
# Poissons Ratio (z) = 0.38127 0.38129
#
# Static dielectric constant tensor:
#      x y z
#    x 3.913150 0.000000 0.000000 
#    y 0.000000 3.913170 0.000000 
#    z 0.000000 0.000000 3.295100 
# 
# 
# High freq. dielectric constant tensor:
#      x y z
#    x 1.780420 0.000000 0.000000 
#    y 0.000000 1.780420 0.000000 
#    z 0.000000 0.000000 1.741030 
# 
# From -- ./inp_files/3702.got.cif
#   From: 2010.03.12/outbox.cif.g09.slc.cpg/sg137_2_cif.got.tgz:3702.got - 2010.04.08 09:34:49.
