data_PCOD8318862
_publ_section_title
;
Structure prediction by ZEFSAII (Michael W. Deem and Ramdas Pophale) SiO2 
 PCOD8318862
Probable space group: P 42/N C M
;
_chemical_formula_sum "Si O2"
_cell_formula_units_Z 96
_cell_length_a 13.658249
_cell_length_b 13.658249
_cell_length_c 30.691218
_cell_angle_alpha 90.000000
_cell_angle_beta 90.000000
_cell_angle_gamma 90.000000
_cell_volume 5725.378146
_symmetry_space_group_name_H-M "P 42/N C M"
_symmetry_group_IT_number 138
_space_group.IT_coordinate_system_code '2'
_symmetry_cell_setting 'tetragonal'
loop_
_space_group_symop_operation_xyz
x,y,z
1/2-y,x,1/2+z
1/2-x,1/2-y,z
y,1/2-x,1/2+z
1/2+x,-y,1/2-z
-x,1/2+y,1/2-z
1/2+y,1/2+x,-z
-y,-x,-z
-x,-y,-z
1/2+y,-x,1/2-z
1/2+x,1/2+y,-z
-y,1/2+x,1/2-z
1/2-x,y,1/2+z
x,1/2-y,1/2+z
1/2-y,1/2-x,z
y,x,z
loop_
_atom_site_type_symbol
_atom_site_label
_atom_site_fract_x
_atom_site_fract_y
_atom_site_fract_z
Si Si1 0.801132 0.352755 0.048032
Si Si2 0.374604 0.848912 0.202033
Si Si3 0.000490 0.345239 0.623868
Si Si4 0.534762 0.122821 0.119315
Si Si5 0.867746 0.357547 0.702387
Si Si6 0.105454 0.548113 0.451772
O O1 0.750000 0.250000 0.060238
O O2 0.885442 0.375705 0.081734
O O3 0.722948 0.442307 0.052121
O O4 0.847321 0.347321 0.000000
O O5 0.417387 0.917244 0.164028
O O6 0.257941 0.851663 0.200737
O O7 0.409697 0.737047 0.193918
O O8 0.409815 0.886341 0.249729
O O9 0.012160 0.229160 0.626818
O O10 0.942237 0.390611 0.665012
O O11 0.943451 0.373111 0.580113
O O12 0.108738 0.391263 0.623730
O O13 0.449103 0.050898 0.104595
O O14 0.078285 0.578285 0.500000
O O15 0.061505 0.438496 0.441983
#
# Coordination Sequence:
#
# PCOD8318862 Si02
#       6
#    16  16  16  16  16  16
#     4  11  19  34  55  76  98 130 167 207 247 293
#     4   8  15  27  46  69  97 120 158 205 257 292
#     4  10  19  30  46  68  96 131 166 202 248 298
#     4  11  22  32  47  71 101 135 166 203 249 296
#     4   8  14  27  47  71  91 123 159 209 251 293
#     4  10  18  30  51  79 102 121 156 206 254 292
#
# _framework density 16.767451000000001
#
# number of rings (size 3 to 8) (size 9 to 14) (size 15 to 20)
#    0.000    2.333    3.333    2.000    2.333    1.333 
#    0.000    0.000    0.000    0.500    0.000    0.000 
#    0.000    0.000    0.000    0.000    0.000    0.000 
#
# Total GULP energy -1189875.573971 kJ/mol
# GULP energy per Si atom -12394.537229 kJ/mol
# Density = 1.672929 g / cm^3
# Si number density = 16.767451 Si / 1000 Ang^3
#
#
#
# Elastic Constant Matrix: (Units=GPa)
#
#
# Indices 1 2 3 4 5 6 
#
# 1 68.3918 52.9613 47.2870 0.0000 0.0000 0.0000
# 2 52.9613 68.3918 47.2870 0.0000 0.0000 0.0000
# 3 47.2870 47.2870 124.4796 0.0000 0.0000 0.0000
# 4 0.0000 0.0000 0.0000 -17.9618 0.0000 0.0000
# 5 0.0000 0.0000 0.0000 0.0000 -17.9618 0.0000
# 6 0.0000 0.0000 0.0000 0.0000 0.0000 24.3830
#
#
#
# Elastic Compliance Matrix: (Units=1/GPa)
#
#
# Indices 1 2 3 4 5 6 
#
# 1 0.038256 -0.026550 -0.004447 0.000000 0.000000 0.000000
# 2 -0.026550 0.038256 -0.004447 0.000000 0.000000 0.000000
# 3 -0.004447 -0.004447 0.011412 0.000000 0.000000 0.000000
# 4 0.000000 0.000000 0.000000 -0.055674 0.000000 0.000000
# 5 0.000000 0.000000 0.000000 0.000000 -0.055674 0.000000
# 6 0.000000 0.000000 0.000000 0.000000 0.000000 0.041012
#
#
# Mechanical properties :
#
#
# Convention : Reuss Voigt Hill
#
# Bulk Modulus (GPa) = 58.69733 61.81486 60.25609
# Shear Modulus (GPa) = 53.10331 5.27375 29.18853
#
# Velocity S-wave (km/s) = 5.63376 1.77540 4.17680
# Velocity P-wave (km/s) = 8.79782 6.41473 7.69904
#
# Compressibility (1/GPa) = 0.01703655
#
# Stress axis : x y z
#
# Youngs Moduli (GPa) = 26.13947 26.13947 87.62744
#
# Poissons Ratio (x) = 0.69401 0.38966
# Poissons Ratio (y) = 0.69401 0.38966
# Poissons Ratio (z) = 0.11624 0.11624
#
# Static dielectric constant tensor:
#      x y z
#    x 3.052050 0.000000 0.000000 
#    y 0.000000 3.052050 0.000000 
#    z 0.000000 0.000000 3.566500 
# 
# 
# High freq. dielectric constant tensor:
#      x y z
#    x 1.615430 0.000000 0.000000 
#    y 0.000000 1.615430 0.000000 
#    z 0.000000 0.000000 1.669780 
# 
# From -- ./inp_files/8198.got.cif
#   From: 2010.03.12/outbox.cif.g09.slc.cpg/sg138_5_cif.got.tgz:8198.got - 2010.04.08 09:41:05.
