data_PCOD8318772
_publ_section_title
;
Structure prediction by ZEFSAII (Michael W. Deem and Ramdas Pophale) SiO2 
 PCOD8318772
Probable space group: P 42/N M C
;
_chemical_formula_sum "Si O2"
_cell_formula_units_Z 112
_cell_length_a 14.315401
_cell_length_b 14.315401
_cell_length_c 25.216630
_cell_angle_alpha 90.000000
_cell_angle_beta 90.000000
_cell_angle_gamma 90.000000
_cell_volume 5167.661784
_symmetry_space_group_name_H-M "P 42/N M C"
_symmetry_group_IT_number 137
_space_group.IT_coordinate_system_code '2'
_symmetry_cell_setting 'tetragonal'
loop_
_space_group_symop_operation_xyz
x,y,z
1/2-y,x,1/2+z
1/2-x,1/2-y,z
y,1/2-x,1/2+z
1/2+x,-y,-z
-x,1/2+y,-z
1/2+y,1/2+x,1/2-z
-y,-x,1/2-z
-x,-y,-z
1/2+y,-x,1/2-z
1/2+x,1/2+y,-z
-y,1/2+x,1/2-z
1/2-x,y,z
x,1/2-y,z
1/2-y,1/2-x,1/2+z
y,x,1/2+z
loop_
_atom_site_type_symbol
_atom_site_label
_atom_site_fract_x
_atom_site_fract_y
_atom_site_fract_z
Si Si1 0.350981 0.552092 0.151732
Si Si2 0.905391 0.645310 0.866751
Si Si3 0.645704 0.996529 0.259818
Si Si4 0.860931 0.645765 0.581267
Si Si5 0.861644 0.964435 0.686572
Si Si6 0.031482 0.359997 0.017858
Si Si7 0.141443 0.646494 0.460472
O O1 0.250000 0.591033 0.171169
O O2 0.339195 0.439025 0.152058
O O3 0.432502 0.591634 0.189545
O O4 0.372708 0.586024 0.092849
O O5 0.857831 0.750000 0.871189
O O6 0.987103 0.651136 0.823407
O O7 0.944946 0.609362 0.922892
O O8 0.750000 0.003649 0.235947
O O9 0.595350 0.906163 0.234129
O O10 0.592570 0.092570 0.250000
O O11 0.750000 0.649976 0.579353
O O12 0.902251 0.750000 0.587823
O O13 0.891256 0.582519 0.631028
O O14 0.900921 0.602888 0.526250
O O15 0.750000 0.969868 0.694667
O O16 0.035665 0.250000 0.014210
O O17 0.926901 0.395098 0.004174
O O18 0.250000 0.630016 0.446848
O O19 0.123500 0.750000 0.483173
#
# Coordination Sequence:
#
# PCOD8318772 Si02
#       7
#    16  16  16  16  16  16  16
#     4  11  22  37  62  96 131 167 206 255 320 395
#     4  10  23  42  63  86 121 167 217 267 322 384
#     4  11  24  46  71  97 127 167 219 273 326 377
#     4   9  17  31  55  89 125 163 208 255 306 364
#     4  11  22  41  68  98 131 167 211 266 323 384
#     4   9  17  33  58  86 121 166 209 258 312 374
#     4   9  17  32  56  89 130 172 207 244 306 388
#
# _framework density 21.673244
#
# number of rings (size 3 to 8) (size 9 to 14) (size 15 to 20)
#    0.000    2.000    2.857    0.857    0.000    3.857 
#    0.000    3.571    0.000    2.571    0.000    0.000 
#    0.000    0.000    0.000    0.000    0.000    0.143 
#
# Total GULP energy -1387953.702305 kJ/mol
# GULP energy per Si atom -12392.443771 kJ/mol
# Density = 2.162391 g / cm^3
# Si number density = 21.673244 Si / 1000 Ang^3
#
#
#
# Elastic Constant Matrix: (Units=GPa)
#
#
# Indices 1 2 3 4 5 6 
#
# 1 120.3608 40.9418 29.5914 0.0000 0.0000 0.0000
# 2 40.9418 120.3608 29.5914 0.0000 0.0000 0.0000
# 3 29.5914 29.5914 110.3525 0.0000 0.0000 0.0000
# 4 0.0000 0.0000 0.0000 17.1066 0.0000 0.0000
# 5 0.0000 0.0000 0.0000 0.0000 17.1066 0.0000
# 6 0.0000 0.0000 0.0000 0.0000 0.0000 18.7497
#
#
#
# Elastic Compliance Matrix: (Units=1/GPa)
#
#
# Indices 1 2 3 4 5 6 
#
# 1 0.009734 -0.002858 -0.001844 0.000000 0.000000 0.000000
# 2 -0.002858 0.009734 -0.001844 0.000000 0.000000 0.000000
# 3 -0.001844 -0.001844 0.010051 0.000000 0.000000 0.000000
# 4 0.000000 0.000000 0.000000 0.058457 0.000000 0.000000
# 5 0.000000 0.000000 0.000000 0.000000 0.058457 0.000000
# 6 0.000000 0.000000 0.000000 0.000000 0.000000 0.053334
#
#
# Mechanical properties :
#
#
# Convention : Reuss Voigt Hill
#
# Bulk Modulus (GPa) = 60.87361 61.25813 61.06587
# Shear Modulus (GPa) = 22.90080 27.32255 25.11168
#
# Velocity S-wave (km/s) = 3.25413 3.55443 3.40759
# Velocity P-wave (km/s) = 6.50131 6.72094 6.61204
#
# Compressibility (1/GPa) = 0.01642748
#
# Stress axis : x y z
#
# Youngs Moduli (GPa) = 102.73540 102.73540 99.49534
#
# Poissons Ratio (x) = 0.29359 0.18345
# Poissons Ratio (y) = 0.29359 0.18345
# Poissons Ratio (z) = 0.18943 0.18943
#
# Static dielectric constant tensor:
#      x y z
#    x 3.969960 0.000000 0.000000 
#    y 0.000000 3.969960 0.000000 
#    z 0.000000 0.000000 4.034780 
# 
# 
# High freq. dielectric constant tensor:
#      x y z
#    x 1.845780 0.000000 0.000000 
#    y 0.000000 1.845780 0.000000 
#    z 0.000000 0.000000 1.846540 
# 
# From -- ./inp_files/8930.got.cif
#   From: 2010.03.12/outbox.cif.g09.slc.cpg/sg137_5_cif.got.tgz:8930.got - 2010.04.08 09:34:49.
