data_PCOD8318060
_publ_section_title
;
Structure prediction by ZEFSAII (Michael W. Deem and Ramdas Pophale) SiO2 
 PCOD8318060
Probable space group: P 42/M N M
;
_chemical_formula_sum "Si O2"
_cell_formula_units_Z 72
_cell_length_a 21.026749
_cell_length_b 21.026749
_cell_length_c 9.104484
_cell_angle_alpha 90.000000
_cell_angle_beta 90.000000
_cell_angle_gamma 90.000000
_cell_volume 4025.312464
_symmetry_space_group_name_H-M "P 42/M N M"
_symmetry_group_IT_number 136
_symmetry_cell_setting 'tetragonal'
loop_
_space_group_symop_operation_xyz
x,y,z
1/2-y,1/2+x,1/2+z
-x,-y,z
1/2+y,1/2-x,1/2+z
1/2+x,1/2-y,1/2-z
1/2-x,1/2+y,1/2-z
y,x,-z
-y,-x,-z
-x,-y,-z
1/2+y,1/2-x,1/2-z
x,y,-z
1/2-y,1/2+x,1/2-z
1/2-x,1/2+y,1/2+z
1/2+x,1/2-y,1/2+z
-y,-x,z
y,x,z
loop_
_atom_site_type_symbol
_atom_site_label
_atom_site_fract_x
_atom_site_fract_y
_atom_site_fract_z
Si Si1 0.447989 0.552012 0.825756
Si Si2 0.272031 0.374287 0.665308
Si Si3 0.509626 0.321734 0.668444
Si Si4 0.150732 0.405940 0.172387
Si Si5 0.467070 0.821113 0.672693
O O1 0.500000 0.500000 0.769806
O O2 0.464472 0.622290 0.769775
O O3 0.446671 0.553330 0.000000
O O4 0.243903 0.378772 0.500000
O O5 0.310168 0.310168 0.689702
O O6 0.318596 0.433861 0.690943
O O7 0.215921 0.372089 0.782404
O O8 0.527671 0.336974 0.500000
O O9 0.539000 0.253346 0.717640
O O10 0.144364 0.473712 0.250529
O O11 0.094940 0.358924 0.223997
O O12 0.149305 0.417242 0.000000
O O13 0.478866 0.825618 0.500000
#
# Coordination Sequence:
#
# PCOD8318060 Si02
#       5
#     8  16  16  16  16
#     4  11  23  35  49  77 111 137 169 219 269 308
#     4   9  18  34  55  78 105 137 174 215 260 312
#     4   9  18  35  56  73  98 139 177 210 250 308
#     4  10  20  34  55  80 105 137 175 218 264 311
#     4   9  20  38  55  76 107 139 174 216 264 315
#
# _framework density 17.886811000000002
#
# number of rings (size 3 to 8) (size 9 to 14) (size 15 to 20)
#    0.000    2.556    0.000    3.000    0.000    8.000 
#    2.000    2.222    0.000    0.000    0.000    0.000 
#    0.000    0.000    0.000    0.000    0.000    0.000 
#
# Total GULP energy -892734.061942 kJ/mol
# GULP energy per Si atom -12399.084194 kJ/mol
# Density = 1.784610 g / cm^3
# Si number density = 17.886811 Si / 1000 Ang^3
#
#
#
# Elastic Constant Matrix: (Units=GPa)
#
#
# Indices 1 2 3 4 5 6 
#
# 1 102.0080 76.7404 43.1714 0.0000 0.0000 0.0000
# 2 76.7404 102.0082 43.1715 0.0000 0.0000 0.0000
# 3 43.1714 43.1715 53.1744 0.0000 0.0000 0.0000
# 4 0.0000 0.0000 0.0000 27.7703 0.0000 0.0000
# 5 0.0000 0.0000 0.0000 0.0000 27.7703 0.0000
# 6 0.0000 0.0000 0.0000 0.0000 0.0000 30.8363
#
#
#
# Elastic Compliance Matrix: (Units=1/GPa)
#
#
# Indices 1 2 3 4 5 6 
#
# 1 0.024390 -0.015186 -0.007473 0.000000 0.000000 0.000000
# 2 -0.015186 0.024390 -0.007473 0.000000 0.000000 0.000000
# 3 -0.007473 -0.007473 0.030940 0.000000 0.000000 0.000000
# 4 0.000000 0.000000 0.000000 0.036010 0.000000 0.000000
# 5 0.000000 0.000000 0.000000 0.000000 0.036010 0.000000
# 6 0.000000 0.000000 0.000000 0.000000 0.000000 0.032429
#
#
# Mechanical properties :
#
#
# Convention : Reuss Voigt Hill
#
# Bulk Modulus (GPa) = 51.39413 64.81746 58.10580
# Shear Modulus (GPa) = 19.92689 23.54922 21.73805
#
# Velocity S-wave (km/s) = 3.34137 3.63239 3.48991
# Velocity P-wave (km/s) = 6.60921 7.34225 6.98535
#
# Compressibility (1/GPa) = 0.01945747
#
# Stress axis : x y z
#
# Youngs Moduli (GPa) = 41.00017 41.00016 32.32080
#
# Poissons Ratio (x) = 0.62263 0.24152
# Poissons Ratio (y) = 0.62263 0.24152
# Poissons Ratio (z) = 0.30638 0.30638
#
# Static dielectric constant tensor:
#      x y z
#    x 3.348910 0.000000 0.000000 
#    y 0.000000 3.348910 0.000000 
#    z 0.000000 0.000000 3.245960 
# 
# 
# High freq. dielectric constant tensor:
#      x y z
#    x 1.692300 0.000000 0.000000 
#    y 0.000000 1.692300 0.000000 
#    z 0.000000 0.000000 1.689580 
# 
# From -- ./inp_files/1548.got.cif
#   From: 2010.03.12/outbox.cif.g09.slc.cpg/sg136_1_cif.got.tgz:1548.got - 2010.04.06 18:39:43.
