data_PCOD8318327
_publ_section_title
;
Structure prediction by ZEFSAII (Michael W. Deem and Ramdas Pophale) SiO2 
 PCOD8318327
Probable space group: P 42/M N M
;
_chemical_formula_sum "Si O2"
_cell_formula_units_Z 72
_cell_length_a 12.803348
_cell_length_b 12.803348
_cell_length_c 24.059688
_cell_angle_alpha 90.000000
_cell_angle_beta 90.000000
_cell_angle_gamma 90.000000
_cell_volume 3944.001679
_symmetry_space_group_name_H-M "P 42/M N M"
_symmetry_group_IT_number 136
_symmetry_cell_setting 'tetragonal'
loop_
_space_group_symop_operation_xyz
x,y,z
1/2-y,1/2+x,1/2+z
-x,-y,z
1/2+y,1/2-x,1/2+z
1/2+x,1/2-y,1/2-z
1/2-x,1/2+y,1/2-z
y,x,-z
-y,-x,-z
-x,-y,-z
1/2+y,1/2-x,1/2-z
x,y,-z
1/2-y,1/2+x,1/2-z
1/2-x,1/2+y,1/2+z
1/2+x,1/2-y,1/2+z
-y,-x,z
y,x,z
loop_
_atom_site_type_symbol
_atom_site_label
_atom_site_fract_x
_atom_site_fract_y
_atom_site_fract_z
Si Si1 0.444563 0.268735 0.873842
Si Si2 0.329667 0.494077 0.361608
Si Si3 0.911975 0.911975 0.437615
Si Si4 0.830213 0.994627 0.260305
Si Si5 0.801651 0.374703 0.562907
O O1 0.354614 0.354614 0.876723
O O2 0.545762 0.308802 0.907137
O O3 0.478740 0.248386 0.809671
O O4 0.402734 0.162910 0.902302
O O5 0.419708 0.580293 0.360681
O O6 0.381448 0.381448 0.375352
O O7 0.275813 0.495075 0.300278
O O8 0.243481 0.520955 0.408003
O O9 0.881225 0.881225 0.500000
O O10 0.000000 0.000000 0.436878
O O11 0.925042 0.074959 0.262890
O O12 0.878569 0.878569 0.269345
O O13 0.835101 0.402114 0.500000
O O14 0.714694 0.285307 0.562656
#
# Coordination Sequence:
#
# PCOD8318327 Si02
#       5
#    16  16   8  16  16
#     4   9  14  20  30  45  67  96 130 168 208 252
#     4   8  14  23  34  46  63  95 140 179 206 245
#     4   9  14  18  26  42  66  98 131 159 193 250
#     4   8  12  20  33  47  62  87 130 173 206 249
#     4   9  16  23  30  45  72 104 135 167 210 256
#
# _framework density 18.255569000000001
#
# number of rings (size 3 to 8) (size 9 to 14) (size 15 to 20)
#    0.000    3.444    1.111    2.000    0.000    3.111 
#    0.000    2.222    0.000    0.000    0.000    0.000 
#    0.000    0.889    0.000    6.000    4.889    8.889 
#
# Total GULP energy -892096.403149 kJ/mol
# GULP energy per Si atom -12390.227822 kJ/mol
# Density = 1.821402 g / cm^3
# Si number density = 18.255569 Si / 1000 Ang^3
#
#
#
# Elastic Constant Matrix: (Units=GPa)
#
#
# Indices 1 2 3 4 5 6 
#
# 1 39.4879 34.3582 48.3960 0.0000 0.0000 0.0000
# 2 34.3582 39.4879 48.3960 0.0000 0.0000 0.0000
# 3 48.3960 48.3960 165.1438 0.0000 0.0000 0.0000
# 4 0.0000 0.0000 0.0000 14.4317 0.0000 0.0000
# 5 0.0000 0.0000 0.0000 0.0000 14.4317 0.0000
# 6 0.0000 0.0000 0.0000 0.0000 0.0000 23.0397
#
#
#
# Elastic Compliance Matrix: (Units=1/GPa)
#
#
# Indices 1 2 3 4 5 6 
#
# 1 0.108466 -0.086479 -0.006443 0.000000 0.000000 0.000000
# 2 -0.086479 0.108466 -0.006443 0.000000 0.000000 0.000000
# 3 -0.006443 -0.006443 0.009832 0.000000 0.000000 0.000000
# 4 0.000000 0.000000 0.000000 0.069292 0.000000 0.000000
# 5 0.000000 0.000000 0.000000 0.000000 0.069292 0.000000
# 6 0.000000 0.000000 0.000000 0.000000 0.000000 0.043403
#
#
# Mechanical properties :
#
#
# Convention : Reuss Voigt Hill
#
# Bulk Modulus (GPa) = 35.67273 56.26888 45.97080
# Shear Modulus (GPa) = 8.10599 17.91192 13.00895
#
# Velocity S-wave (km/s) = 2.10948 3.13577 2.67236
# Velocity P-wave (km/s) = 5.05137 6.63329 5.89563
#
# Compressibility (1/GPa) = 0.02803262
#
# Stress axis : x y z
#
# Youngs Moduli (GPa) = 9.21944 9.21944 101.71002
#
# Poissons Ratio (x) = 0.79729 0.65536
# Poissons Ratio (y) = 0.79729 0.65536
# Poissons Ratio (z) = 0.05940 0.05940
#
# Static dielectric constant tensor:
#      x y z
#    x 2.942640 0.000000 0.000000 
#    y 0.000000 2.942640 0.000000 
#    z 0.000000 0.000000 3.848080 
# 
# 
# High freq. dielectric constant tensor:
#      x y z
#    x 1.645590 0.000000 0.000000 
#    y 0.000000 1.645590 0.000000 
#    z 0.000000 0.000000 1.728680 
# 
# From -- ./inp_files/8926.got.cif
#   From: 2010.03.12/outbox.cif.g09.slc.cpg/sg136_5_cif.got.tgz:8926.got - 2010.04.06 18:39:43.
