data_PCOD8318461
_publ_section_title
;
Structure prediction by ZEFSAII (Michael W. Deem and Ramdas Pophale) SiO2 
 PCOD8318461
Probable space group: P 42/N M C
;
_chemical_formula_sum "Si O2"
_cell_formula_units_Z 112
_cell_length_a 14.612584
_cell_length_b 14.612584
_cell_length_c 24.315175
_cell_angle_alpha 90.000000
_cell_angle_beta 90.000000
_cell_angle_gamma 90.000000
_cell_volume 5191.961233
_symmetry_space_group_name_H-M "P 42/N M C"
_symmetry_group_IT_number 137
_space_group.IT_coordinate_system_code '2'
_symmetry_cell_setting 'tetragonal'
loop_
_space_group_symop_operation_xyz
x,y,z
1/2-y,x,1/2+z
1/2-x,1/2-y,z
y,1/2-x,1/2+z
1/2+x,-y,-z
-x,1/2+y,-z
1/2+y,1/2+x,1/2-z
-y,-x,1/2-z
-x,-y,-z
1/2+y,-x,1/2-z
1/2+x,1/2+y,-z
-y,1/2+x,1/2-z
1/2-x,y,z
x,1/2-y,z
1/2-y,1/2-x,1/2+z
y,x,1/2+z
loop_
_atom_site_type_symbol
_atom_site_label
_atom_site_fract_x
_atom_site_fract_y
_atom_site_fract_z
Si Si1 0.356464 0.847800 0.922519
Si Si2 0.413157 0.034325 0.281323
Si Si3 0.502980 0.352712 0.897621
Si Si4 0.856290 0.539398 0.035966
Si Si5 0.351646 0.355922 0.679380
Si Si6 0.851221 0.084599 0.194333
Si Si7 0.856126 0.988909 0.912278
O O1 0.250000 0.847379 0.937079
O O2 0.399076 0.750000 0.943003
O O3 0.372751 0.850715 0.857079
O O4 0.398296 0.937542 0.952072
O O5 0.368732 0.106703 0.239780
O O6 0.505553 0.074236 0.307178
O O7 0.439579 0.939579 0.250000
O O8 0.346531 0.014537 0.331998
O O9 0.524924 0.250000 0.917743
O O10 0.412543 0.387113 0.929214
O O11 0.589856 0.415933 0.910460
O O12 0.750000 0.546086 0.054427
O O13 0.867354 0.559182 0.971415
O O14 0.250000 0.401501 0.676885
O O15 0.341570 0.250000 0.666276
O O16 0.418466 0.398132 0.632741
O O17 0.856953 0.143048 0.250000
O O18 0.750000 0.041779 0.188834
O O19 0.750000 0.011947 0.900120
#
# Coordination Sequence:
#
# PCOD8318461 Si02
#       7
#    16  16  16  16  16  16  16
#     4   9  17  31  53  81 119 166 208 248 304 378
#     4  11  21  38  59  86 127 166 206 262 327 384
#     4  12  25  42  66  97 130 172 222 270 329 395
#     4  10  22  42  65  94 134 171 212 267 327 388
#     4  10  21  39  66  96 123 160 213 266 327 399
#     4  10  19  30  48  78 120 163 203 245 301 375
#     4  10  23  45  69  93 130 172 217 277 329 377
#
# _framework density 21.571811
#
# number of rings (size 3 to 8) (size 9 to 14) (size 15 to 20)
#    0.000    1.714    2.857    1.714    0.000    3.000 
#    0.000    5.000    0.000    0.000    0.000    0.000 
#    0.000    0.000    0.000    0.000    0.000    0.000 
#
# Total GULP energy -1388544.382494 kJ/mol
# GULP energy per Si atom -12397.717701 kJ/mol
# Density = 2.152271 g / cm^3
# Si number density = 21.571811 Si / 1000 Ang^3
#
#
#
# Elastic Constant Matrix: (Units=GPa)
#
#
# Indices 1 2 3 4 5 6 
#
# 1 100.8354 27.0882 29.2146 0.0000 0.0000 0.0000
# 2 27.0882 100.8353 29.2147 0.0000 0.0000 0.0000
# 3 29.2146 29.2147 104.5634 0.0000 0.0000 0.0000
# 4 0.0000 0.0000 0.0000 23.2522 0.0000 0.0000
# 5 0.0000 0.0000 0.0000 0.0000 23.2521 0.0000
# 6 0.0000 0.0000 0.0000 0.0000 0.0000 28.4947
#
#
#
# Elastic Compliance Matrix: (Units=1/GPa)
#
#
# Indices 1 2 3 4 5 6 
#
# 1 0.011260 -0.002300 -0.002504 0.000000 0.000000 0.000000
# 2 -0.002300 0.011260 -0.002504 0.000000 0.000000 0.000000
# 3 -0.002504 -0.002504 0.010963 0.000000 0.000000 0.000000
# 4 0.000000 0.000000 0.000000 0.043007 0.000000 0.000000
# 5 0.000000 0.000000 0.000000 0.000000 0.043007 0.000000
# 6 0.000000 0.000000 0.000000 0.000000 0.000000 0.035094
#
#
# Mechanical properties :
#
#
# Convention : Reuss Voigt Hill
#
# Bulk Modulus (GPa) = 52.99531 53.02990 53.01260
# Shear Modulus (GPa) = 28.49098 29.71426 29.10262
#
# Velocity S-wave (km/s) = 3.63816 3.71544 3.67700
# Velocity P-wave (km/s) = 6.50142 6.56066 6.53111
#
# Compressibility (1/GPa) = 0.01886960
#
# Stress axis : x y z
#
# Youngs Moduli (GPa) = 88.80797 88.80781 91.21959
#
# Poissons Ratio (x) = 0.20422 0.22837
# Poissons Ratio (y) = 0.20422 0.22838
# Poissons Ratio (z) = 0.22234 0.22234
#
# Static dielectric constant tensor:
#      x y z
#    x 3.843380 0.000000 0.000000 
#    y 0.000000 3.843380 0.000000 
#    z 0.000000 0.000000 4.049420 
# 
# 
# High freq. dielectric constant tensor:
#      x y z
#    x 1.834370 0.000000 0.000000 
#    y 0.000000 1.834370 0.000000 
#    z 0.000000 0.000000 1.856240 
# 
# From -- ./inp_files/8926.got.cif
#   From: 2010.03.12/outbox.cif.g09.slc.cpg/sg137_5_cif.got.tgz:8926.got - 2010.04.08 09:34:49.
