data_PCOD8318009
_publ_section_title
;
Structure prediction by ZEFSAII (Michael W. Deem and Ramdas Pophale) SiO2 
 PCOD8318009
Probable space group: P 42/M N M
;
_chemical_formula_sum "Si O2"
_cell_formula_units_Z 72
_cell_length_a 25.208949
_cell_length_b 25.208949
_cell_length_c 7.657642
_cell_angle_alpha 90.000000
_cell_angle_beta 90.000000
_cell_angle_gamma 90.000000
_cell_volume 4866.363412
_symmetry_space_group_name_H-M "P 42/M N M"
_symmetry_group_IT_number 136
_symmetry_cell_setting 'tetragonal'
loop_
_space_group_symop_operation_xyz
x,y,z
1/2-y,1/2+x,1/2+z
-x,-y,z
1/2+y,1/2-x,1/2+z
1/2+x,1/2-y,1/2-z
1/2-x,1/2+y,1/2-z
y,x,-z
-y,-x,-z
-x,-y,-z
1/2+y,1/2-x,1/2-z
x,y,-z
1/2-y,1/2+x,1/2-z
1/2-x,1/2+y,1/2+z
1/2+x,1/2-y,1/2+z
-y,-x,z
y,x,z
loop_
_atom_site_type_symbol
_atom_site_label
_atom_site_fract_x
_atom_site_fract_y
_atom_site_fract_z
Si Si1 0.254850 0.165691 0.500000
Si Si2 0.920515 0.830627 0.500000
Si Si3 0.458657 0.458657 0.706568
Si Si4 0.200731 0.883492 0.795211
Si Si5 0.494559 0.343595 0.706173
Si Si6 0.694649 0.783357 0.191958
O O1 0.211938 0.211938 0.500000
O O2 0.225260 0.109850 0.500000
O O3 0.292862 0.170349 0.330419
O O4 0.880836 0.880836 0.500000
O O5 0.954695 0.829582 0.677389
O O6 0.500000 0.500000 0.789179
O O7 0.460129 0.460129 0.500000
O O8 0.474621 0.400751 0.770106
O O9 0.150277 0.849724 0.721525
O O10 0.195812 0.945830 0.750885
O O11 0.256421 0.863058 0.716397
O O12 0.202611 0.874846 0.000000
O O13 0.509992 0.342321 0.500000
O O14 0.736660 0.736660 0.218181
O O15 0.698224 0.809092 0.000000
#
# Coordination Sequence:
#
# PCOD8318009 Si02
#       6
#     8   8   8  16  16  16
#     4   9  18  34  45  60  85 112 149 192 225 269
#     4  11  24  35  46  61  86 126 171 200 221 261
#     4   9  16  29  45  57  80 117 161 200 233 263
#     4   9  15  27  46  67  92 112 136 185 245 285
#     4  10  20  33  46  64  87 120 156 198 240 272
#     4   9  16  26  45  68  85 105 133 180 238 284
#
# _framework density 14.795441
#
# number of rings (size 3 to 8) (size 9 to 14) (size 15 to 20)
#    0.000    2.556    2.222    0.667    1.556    2.667 
#    0.000    3.333    0.000    0.000    0.000    0.000 
#    0.000    0.000    0.000    0.000    0.000    3.333 
#
# Total GULP energy -892372.995052 kJ/mol
# GULP energy per Si atom -12394.069376 kJ/mol
# Density = 1.476177 g / cm^3
# Si number density = 14.795441 Si / 1000 Ang^3
#
#
#
# Elastic Constant Matrix: (Units=GPa)
#
#
# Indices 1 2 3 4 5 6 
#
# 1 60.5673 55.4964 47.5680 0.0000 0.0000 0.0000
# 2 55.4964 60.5673 47.5680 0.0000 0.0000 0.0000
# 3 47.5680 47.5680 92.0178 0.0000 0.0000 0.0000
# 4 0.0000 0.0000 0.0000 13.9510 0.0000 0.0000
# 5 0.0000 0.0000 0.0000 0.0000 13.9510 0.0000
# 6 0.0000 0.0000 0.0000 0.0000 0.0000 28.7565
#
#
#
# Elastic Compliance Matrix: (Units=1/GPa)
#
#
# Indices 1 2 3 4 5 6 
#
# 1 0.106078 -0.091127 -0.007729 0.000000 0.000000 0.000000
# 2 -0.091127 0.106078 -0.007729 0.000000 0.000000 0.000000
# 3 -0.007729 -0.007729 0.018858 0.000000 0.000000 0.000000
# 4 0.000000 0.000000 0.000000 0.071680 0.000000 0.000000
# 5 0.000000 0.000000 0.000000 0.000000 0.071680 0.000000
# 6 0.000000 0.000000 0.000000 0.000000 0.000000 0.034775
#
#
# Mechanical properties :
#
#
# Convention : Reuss Voigt Hill
#
# Bulk Modulus (GPa) = 56.03794 57.15745 56.59769
# Shear Modulus (GPa) = 7.95841 15.49968 11.72904
#
# Velocity S-wave (km/s) = 2.32177 3.24017 2.81863
# Velocity P-wave (km/s) = 6.71899 7.26044 6.99496
#
# Compressibility (1/GPa) = 0.01784505
#
# Stress axis : x y z
#
# Youngs Moduli (GPa) = 9.42701 9.42701 53.02692
#
# Poissons Ratio (x) = 0.85905 0.40984
# Poissons Ratio (y) = 0.85905 0.40984
# Poissons Ratio (z) = 0.07286 0.07286
#
# Static dielectric constant tensor:
#      x y z
#    x 2.752030 0.000000 0.000000 
#    y 0.000000 2.752030 0.000000 
#    z 0.000000 0.000000 2.918270 
# 
# 
# High freq. dielectric constant tensor:
#      x y z
#    x 1.529970 0.000000 0.000000 
#    y 0.000000 1.529970 0.000000 
#    z 0.000000 0.000000 1.578990 
# 
# From -- ./inp_files/1767.got.cif
#   From: 2010.03.12/outbox.cif.g09.slc.cpg/sg136_1_cif.got.tgz:1767.got - 2010.04.06 18:39:43.
