data_PCOD8318697
_publ_section_title
;
Structure prediction by ZEFSAII (Michael W. Deem and Ramdas Pophale) SiO2 
 PCOD8318697
Probable space group: P 42/N M C
;
_chemical_formula_sum "Si O2"
_cell_formula_units_Z 128
_cell_length_a 23.492859
_cell_length_b 23.492859
_cell_length_c 12.455910
_cell_angle_alpha 90.000000
_cell_angle_beta 90.000000
_cell_angle_gamma 90.000000
_cell_volume 6874.596393
_symmetry_space_group_name_H-M "P 42/N M C"
_symmetry_group_IT_number 137
_space_group.IT_coordinate_system_code '2'
_symmetry_cell_setting 'tetragonal'
loop_
_space_group_symop_operation_xyz
x,y,z
1/2-y,x,1/2+z
1/2-x,1/2-y,z
y,1/2-x,1/2+z
1/2+x,-y,-z
-x,1/2+y,-z
1/2+y,1/2+x,1/2-z
-y,-x,1/2-z
-x,-y,-z
1/2+y,-x,1/2-z
1/2+x,1/2+y,-z
-y,1/2+x,1/2-z
1/2-x,y,z
x,1/2-y,z
1/2-y,1/2-x,1/2+z
y,x,1/2+z
loop_
_atom_site_type_symbol
_atom_site_label
_atom_site_fract_x
_atom_site_fract_y
_atom_site_fract_z
Si Si1 0.185617 0.990361 0.225083
Si Si2 0.397524 0.682473 0.687640
Si Si3 0.612713 0.685340 0.371613
Si Si4 0.606317 0.686191 0.753931
Si Si5 0.072672 0.111350 0.440326
Si Si6 0.686450 0.011235 0.361127
Si Si7 0.016862 0.888836 0.066375
Si Si8 0.870677 0.051493 0.983746
O O1 0.250000 0.974976 0.256436
O O2 0.146146 0.974517 0.324809
O O3 0.169817 0.953685 0.119972
O O4 0.179518 0.057366 0.202843
O O5 0.342997 0.657004 0.750000
O O6 0.389551 0.750000 0.675133
O O7 0.453851 0.666214 0.756096
O O8 0.402981 0.655121 0.568299
O O9 0.619941 0.750000 0.413097
O O10 0.669122 0.666606 0.306899
O O11 0.609698 0.640841 0.468010
O O12 0.610959 0.750000 0.705160
O O13 0.594003 0.637940 0.668776
O O14 0.555989 0.683525 0.840703
O O15 0.007391 0.126993 0.453540
O O16 0.080152 0.043666 0.437885
O O17 0.750000 0.030536 0.389471
O O18 0.649760 0.026569 0.463334
O O19 0.066553 0.935255 0.060503
#
# Coordination Sequence:
#
# PCOD8318697 Si02
#       8
#    16  16  16  16  16  16  16  16
#     4  10  22  39  59  81 118 163 201 242 289 352
#     4  11  22  40  64  90 121 154 194 240 293 360
#     4  10  21  38  57  80 113 157 205 248 294 348
#     4  11  21  37  59  83 115 155 201 250 298 353
#     4  11  22  37  56  86 119 155 194 246 310 362
#     4  10  21  36  59  85 111 152 195 240 297 356
#     4  12  21  37  60  87 121 151 194 251 304 356
#     4  11  23  38  59  91 121 157 196 244 296 367
#
# _framework density 18.619274999999998
#
# number of rings (size 3 to 8) (size 9 to 14) (size 15 to 20)
#    0.000    1.250    5.000    1.875    0.000    1.375 
#    0.000    0.625    0.000    1.500    0.000    0.000 
#    0.000    2.000    0.000    0.000    0.000    0.000 
#
# Total GULP energy -1587134.293812 kJ/mol
# GULP energy per Si atom -12399.486670 kJ/mol
# Density = 1.857690 g / cm^3
# Si number density = 18.619275 Si / 1000 Ang^3
#
#
#
# Elastic Constant Matrix: (Units=GPa)
#
#
# Indices 1 2 3 4 5 6 
#
# 1 68.2220 36.5101 31.4001 0.0000 0.0000 0.0000
# 2 36.5101 68.2229 31.4018 0.0000 0.0000 0.0000
# 3 31.4001 31.4018 84.7676 0.0000 0.0000 0.0000
# 4 0.0000 0.0000 0.0000 21.2863 0.0000 0.0000
# 5 0.0000 0.0000 0.0000 0.0000 21.2862 0.0000
# 6 0.0000 0.0000 0.0000 0.0000 0.0000 27.2924
#
#
#
# Elastic Compliance Matrix: (Units=1/GPa)
#
#
# Indices 1 2 3 4 5 6 
#
# 1 0.021904 -0.009629 -0.004547 0.000000 0.000000 0.000000
# 2 -0.009629 0.021904 -0.004547 0.000000 0.000000 0.000000
# 3 -0.004547 -0.004547 0.015166 0.000000 0.000000 0.000000
# 4 0.000000 0.000000 0.000000 0.046979 0.000000 0.000000
# 5 0.000000 0.000000 0.000000 0.000000 0.046979 0.000000
# 6 0.000000 0.000000 0.000000 0.000000 0.000000 0.036640
#
#
# Mechanical properties :
#
#
# Convention : Reuss Voigt Hill
#
# Bulk Modulus (GPa) = 46.45300 46.64849 46.55074
# Shear Modulus (GPa) = 21.34984 22.09970 21.72477
#
# Velocity S-wave (km/s) = 3.38990 3.44892 3.41954
# Velocity P-wave (km/s) = 6.35019 6.40065 6.37547
#
# Compressibility (1/GPa) = 0.02152714
#
# Stress axis : x y z
#
# Youngs Moduli (GPa) = 45.65372 45.65348 65.93837
#
# Poissons Ratio (x) = 0.43962 0.29980
# Poissons Ratio (y) = 0.43962 0.29984
# Poissons Ratio (z) = 0.20757 0.20760
#
# Static dielectric constant tensor:
#      x y z
#    x 2.625350 0.000000 0.000000 
#    y 0.000000 2.625330 0.000000 
#    z 0.000000 0.000000 3.403090 
# 
# 
# High freq. dielectric constant tensor:
#      x y z
#    x 1.718330 0.000000 0.000000 
#    y 0.000000 1.718330 0.000000 
#    z 0.000000 0.000000 1.728620 
# 
# From -- ./inp_files/4032.got.cif
#   From: 2010.03.12/outbox.cif.g09.slc.cpg/sg137_3_cif.got.tgz:4032.got - 2010.04.08 09:34:49.
