data_PCOD8318601
_publ_section_title
;
Structure prediction by ZEFSAII (Michael W. Deem and Ramdas Pophale) SiO2 
 PCOD8318601
Probable space group: P 42/N M C
;
_chemical_formula_sum "Si O2"
_cell_formula_units_Z 42
_cell_length_a 7.930698
_cell_length_b 7.930698
_cell_length_c 31.635649
_cell_angle_alpha 90.000000
_cell_angle_beta 90.000000
_cell_angle_gamma 90.000000
_cell_volume 1989.754855
_symmetry_space_group_name_H-M "P 42/N M C"
_symmetry_group_IT_number 137
_space_group.IT_coordinate_system_code '2'
_symmetry_cell_setting 'tetragonal'
loop_
_space_group_symop_operation_xyz
x,y,z
1/2-y,x,1/2+z
1/2-x,1/2-y,z
y,1/2-x,1/2+z
1/2+x,-y,-z
-x,1/2+y,-z
1/2+y,1/2+x,1/2-z
-y,-x,1/2-z
-x,-y,-z
1/2+y,-x,1/2-z
1/2+x,1/2+y,-z
-y,1/2+x,1/2-z
1/2-x,y,z
x,1/2-y,z
1/2-y,1/2-x,1/2+z
y,x,1/2+z
loop_
_atom_site_type_symbol
_atom_site_label
_atom_site_fract_x
_atom_site_fract_y
_atom_site_fract_z
Si Si1 0.750000 0.250000 0.750000
Si Si2 0.061325 0.448543 0.866725
Si Si3 0.560807 0.750000 0.312778
Si Si4 0.052066 0.565853 0.454843
O O1 0.750000 0.421365 0.776521
O O2 0.250000 0.494051 0.850519
O O3 0.026141 0.250000 0.862176
O O4 0.919616 0.544305 0.840251
O O5 0.050994 0.507007 0.915858
O O6 0.750000 0.750000 0.293198
O O7 0.250000 0.578861 0.453892
O O8 0.970970 0.750000 0.448090
O O9 0.000000 0.500000 0.500000
#
# Coordination Sequence:
#
# PCOD8318601 Si02
#       4
#     2  16   8  16
#     4  12  28  52  76 104 148 172 228 292 352 420
#     4  10  20  40  69  96 133 183 228 278 343 408
#     4  12  26  46  76 106 134 180 224 278 352 420
#     4  10  20  34  55  85 128 177 227 277 329 391
#
# _framework density 21.108128000000001
#
# number of rings (size 3 to 8) (size 9 to 14) (size 15 to 20)
#    0.000    1.524    3.810    1.143    0.000    6.095 
#    0.000    0.000    0.000    0.000    0.000    0.000 
#    0.000    0.000    0.000    0.000    0.000    0.000 
#
# Total GULP energy -520568.906800 kJ/mol
# GULP energy per Si atom -12394.497781 kJ/mol
# Density = 2.106009 g / cm^3
# Si number density = 21.108128 Si / 1000 Ang^3
#
#
#
# Elastic Constant Matrix: (Units=GPa)
#
#
# Indices 1 2 3 4 5 6 
#
# 1 125.4583 46.2315 50.7034 0.0000 0.0000 0.0000
# 2 46.2315 125.4583 50.7034 0.0000 0.0000 0.0000
# 3 50.7034 50.7034 115.4903 0.0000 0.0000 0.0000
# 4 0.0000 0.0000 0.0000 29.0744 0.0000 0.0000
# 5 0.0000 0.0000 0.0000 0.0000 29.0744 0.0000
# 6 0.0000 0.0000 0.0000 0.0000 0.0000 18.6592
#
#
#
# Elastic Compliance Matrix: (Units=1/GPa)
#
#
# Indices 1 2 3 4 5 6 
#
# 1 0.010243 -0.002379 -0.003452 0.000000 0.000000 0.000000
# 2 -0.002379 0.010243 -0.003452 0.000000 0.000000 0.000000
# 3 -0.003452 -0.003452 0.011690 0.000000 0.000000 0.000000
# 4 0.000000 0.000000 0.000000 0.034394 0.000000 0.000000
# 5 0.000000 0.000000 0.000000 0.000000 0.034394 0.000000
# 6 0.000000 0.000000 0.000000 0.000000 0.000000 0.053593
#
#
# Mechanical properties :
#
#
# Convention : Reuss Voigt Hill
#
# Bulk Modulus (GPa) = 73.48678 73.52037 73.50358
# Shear Modulus (GPa) = 28.14349 29.94620 29.04484
#
# Velocity S-wave (km/s) = 3.65540 3.77066 3.71348
# Velocity P-wave (km/s) = 7.25989 7.33915 7.29963
#
# Compressibility (1/GPa) = 0.01360789
#
# Stress axis : x y z
#
# Youngs Moduli (GPa) = 97.62998 97.62998 85.54289
#
# Poissons Ratio (x) = 0.23228 0.29532
# Poissons Ratio (y) = 0.23228 0.29532
# Poissons Ratio (z) = 0.33705 0.33705
#
# Static dielectric constant tensor:
#      x y z
#    x 3.931150 0.000000 0.000000 
#    y 0.000000 3.931150 0.000000 
#    z 0.000000 0.000000 3.725480 
# 
# 
# High freq. dielectric constant tensor:
#      x y z
#    x 1.827380 0.000000 0.000000 
#    y 0.000000 1.827380 0.000000 
#    z 0.000000 0.000000 1.814420 
# 
# From -- ./inp_files/9323.got.cif
#   From: 2010.03.12/outbox.cif.g09.slc.cpg/sg137_5_cif.got.tgz:9323.got - 2010.04.08 09:34:49.
