data_PCOD8318561
_publ_section_title
;
Structure prediction by ZEFSAII (Michael W. Deem and Ramdas Pophale) SiO2 
 PCOD8318561
Probable space group: P 42/N M C
;
_chemical_formula_sum "Si O2"
_cell_formula_units_Z 96
_cell_length_a 15.458204
_cell_length_b 15.458204
_cell_length_c 23.383443
_cell_angle_alpha 90.000000
_cell_angle_beta 90.000000
_cell_angle_gamma 90.000000
_cell_volume 5587.615664
_symmetry_space_group_name_H-M "P 42/N M C"
_symmetry_group_IT_number 137
_space_group.IT_coordinate_system_code '2'
_symmetry_cell_setting 'tetragonal'
loop_
_space_group_symop_operation_xyz
x,y,z
1/2-y,x,1/2+z
1/2-x,1/2-y,z
y,1/2-x,1/2+z
1/2+x,-y,-z
-x,1/2+y,-z
1/2+y,1/2+x,1/2-z
-y,-x,1/2-z
-x,-y,-z
1/2+y,-x,1/2-z
1/2+x,1/2+y,-z
-y,1/2+x,1/2-z
1/2-x,y,z
x,1/2-y,z
1/2-y,1/2-x,1/2+z
y,x,1/2+z
loop_
_atom_site_type_symbol
_atom_site_label
_atom_site_fract_x
_atom_site_fract_y
_atom_site_fract_z
Si Si1 0.154423 0.588359 0.923926
Si Si2 0.980755 0.593666 0.976232
Si Si3 0.384088 0.150561 0.431295
Si Si4 0.750000 0.850683 0.662833
Si Si5 0.250000 0.353265 0.209900
Si Si6 0.846476 0.408466 0.307483
Si Si7 0.590069 0.651833 0.862789
O O1 0.250000 0.613421 0.948318
O O2 0.142385 0.485735 0.923105
O O3 0.150034 0.616867 0.858435
O O4 0.076900 0.633667 0.961428
O O5 0.925700 0.590555 0.917604
O O6 0.920659 0.646097 0.021238
O O7 0.000000 0.500000 0.000000
O O8 0.358858 0.250000 0.449005
O O9 0.335717 0.123752 0.372890
O O10 0.750000 0.750000 0.674509
O O11 0.750000 0.894521 0.725911
O O12 0.250000 0.250000 0.213068
O O13 0.167713 0.387114 0.174561
O O14 0.900935 0.400935 0.250000
O O15 0.750000 0.376177 0.295102
O O16 0.849296 0.508586 0.321867
O O17 0.608870 0.750000 0.884031
#
# Coordination Sequence:
#
# PCOD8318561 Si02
#       7
#    16  16  16   8   8  16  16
#     4   9  18  32  47  64  92 128 159 197 248 290
#     4   9  18  32  47  68  99 125 160 199 241 292
#     4   9  18  30  48  71  93 128 158 197 243 291
#     4   9  18  30  46  72  99 129 163 195 237 290
#     4   9  18  32  48  72 104 131 163 195 238 304
#     4  10  20  31  46  67  92 124 164 201 236 281
#     4   9  19  32  48  72  97 131 157 198 245 289
#
# _framework density 17.180852000000002
#
# number of rings (size 3 to 8) (size 9 to 14) (size 15 to 20)
#    0.000    2.833    0.000    0.500    4.667    1.167 
#    0.000    0.000    0.000    0.000    0.000    0.000 
#    0.000    0.000    0.000    1.500    0.000    0.000 
#
# Total GULP energy -1189357.295254 kJ/mol
# GULP energy per Si atom -12389.138492 kJ/mol
# Density = 1.714175 g / cm^3
# Si number density = 17.180852 Si / 1000 Ang^3
#
#
#
# Elastic Constant Matrix: (Units=GPa)
#
#
# Indices 1 2 3 4 5 6 
#
# 1 70.7876 30.2331 50.1152 0.0000 0.0000 0.0000
# 2 30.2331 70.7876 50.1152 0.0000 0.0000 0.0000
# 3 50.1152 50.1152 135.3965 0.0000 0.0000 0.0000
# 4 0.0000 0.0000 0.0000 24.4678 0.0000 0.0000
# 5 0.0000 0.0000 0.0000 0.0000 24.4678 0.0000
# 6 0.0000 0.0000 0.0000 0.0000 0.0000 13.0928
#
#
#
# Elastic Compliance Matrix: (Units=1/GPa)
#
#
# Indices 1 2 3 4 5 6 
#
# 1 0.020151 -0.004507 -0.005790 0.000000 0.000000 0.000000
# 2 -0.004507 0.020151 -0.005790 0.000000 0.000000 0.000000
# 3 -0.005790 -0.005790 0.011672 0.000000 0.000000 0.000000
# 4 0.000000 0.000000 0.000000 0.040870 0.000000 0.000000
# 5 0.000000 0.000000 0.000000 0.000000 0.040870 0.000000
# 6 0.000000 0.000000 0.000000 0.000000 0.000000 0.076378
#
#
# Mechanical properties :
#
#
# Convention : Reuss Voigt Hill
#
# Bulk Modulus (GPa) = 50.50850 59.76649 55.13749
# Shear Modulus (GPa) = 20.09098 22.17290 21.13194
#
# Velocity S-wave (km/s) = 3.42333 3.59633 3.51090
# Velocity P-wave (km/s) = 6.71473 7.21852 6.97118
#
# Compressibility (1/GPa) = 0.01979865
#
# Stress axis : x y z
#
# Youngs Moduli (GPa) = 49.62496 49.62496 85.67341
#
# Poissons Ratio (x) = 0.22366 0.49609
# Poissons Ratio (y) = 0.22366 0.49609
# Poissons Ratio (z) = 0.28735 0.28735
#
# Static dielectric constant tensor:
#      x y z
#    x 3.312130 0.000000 0.000000 
#    y 0.000000 3.312130 0.000000 
#    z 0.000000 0.000000 3.366380 
# 
# 
# High freq. dielectric constant tensor:
#      x y z
#    x 1.649200 0.000000 0.000000 
#    y 0.000000 1.649200 0.000000 
#    z 0.000000 0.000000 1.663070 
# 
# From -- ./inp_files/8858.got.cif
#   From: 2010.03.12/outbox.cif.g09.slc.cpg/sg137_5_cif.got.tgz:8858.got - 2010.04.08 09:34:49.
