data_PCOD8318395
_publ_section_title
;
Structure prediction by ZEFSAII (Michael W. Deem and Ramdas Pophale) SiO2 
 PCOD8318395
Probable space group: P 42/N M C
;
_chemical_formula_sum "Si O2"
_cell_formula_units_Z 112
_cell_length_a 14.097824
_cell_length_b 14.097824
_cell_length_c 30.588031
_cell_angle_alpha 90.000000
_cell_angle_beta 90.000000
_cell_angle_gamma 90.000000
_cell_volume 6079.329608
_symmetry_space_group_name_H-M "P 42/N M C"
_symmetry_group_IT_number 137
_space_group.IT_coordinate_system_code '2'
_symmetry_cell_setting 'tetragonal'
loop_
_space_group_symop_operation_xyz
x,y,z
1/2-y,x,1/2+z
1/2-x,1/2-y,z
y,1/2-x,1/2+z
1/2+x,-y,-z
-x,1/2+y,-z
1/2+y,1/2+x,1/2-z
-y,-x,1/2-z
-x,-y,-z
1/2+y,-x,1/2-z
1/2+x,1/2+y,-z
-y,1/2+x,1/2-z
1/2-x,y,z
x,1/2-y,z
1/2-y,1/2-x,1/2+z
y,x,1/2+z
loop_
_atom_site_type_symbol
_atom_site_label
_atom_site_fract_x
_atom_site_fract_y
_atom_site_fract_z
Si Si1 0.022633 0.361912 0.336633
Si Si2 0.640659 0.855284 0.082871
Si Si3 0.638433 0.644002 0.246935
Si Si4 0.648968 0.145573 0.040923
Si Si5 0.050125 0.357458 0.080583
Si Si6 0.530729 0.894049 0.496639
Si Si7 0.360958 0.008932 0.676019
O O1 0.000433 0.250000 0.337919
O O2 0.069810 0.401079 0.381839
O O3 0.098533 0.388008 0.299366
O O4 0.923665 0.413936 0.326157
O O5 0.750000 0.844438 0.094858
O O6 0.593245 0.750000 0.086291
O O7 0.629933 0.893020 0.033776
O O8 0.750000 0.652317 0.252660
O O9 0.593584 0.750000 0.249929
O O10 0.600080 0.576289 0.285570
O O11 0.750000 0.144410 0.067251
O O12 0.633036 0.250000 0.019844
O O13 0.562282 0.119538 0.072791
O O14 0.663090 0.067230 0.002585
O O15 0.071789 0.250000 0.066870
O O16 0.069700 0.374304 0.131494
O O17 0.120286 0.422269 0.051163
O O18 0.500000 0.000000 0.500000
O O19 0.250000 0.979696 0.682045
#
# Coordination Sequence:
#
# PCOD8318395 Si02
#       7
#    16  16  16  16  16  16  16
#     4  10  19  32  52  78 106 133 162 201 251 305
#     4  10  20  33  50  73  99 127 164 211 257 299
#     4   9  18  34  53  70  94 131 170 207 244 281
#     4   9  17  29  45  65  90 123 162 199 240 295
#     4   9  18  31  46  65  93 129 164 198 238 287
#     4  10  18  29  45  65  92 126 162 201 244 288
#     4  10  20  33  50  75 105 136 169 201 239 297
#
# _framework density 18.423085
#
# number of rings (size 3 to 8) (size 9 to 14) (size 15 to 20)
#    0.000    2.429    0.000    3.429    0.000    4.286 
#    0.000    2.857    0.000    6.000    0.000    0.000 
#    0.000    9.714    0.000    0.000    0.000    0.000 
#
# Total GULP energy -1387506.097592 kJ/mol
# GULP energy per Si atom -12388.447300 kJ/mol
# Density = 1.838115 g / cm^3
# Si number density = 18.423085 Si / 1000 Ang^3
#
#
#
# Elastic Constant Matrix: (Units=GPa)
#
#
# Indices 1 2 3 4 5 6 
#
# 1 75.2521 26.5369 27.2988 0.0000 0.0000 0.0000
# 2 26.5369 75.2521 27.2988 0.0000 0.0000 0.0000
# 3 27.2988 27.2988 99.1934 0.0000 0.0000 0.0000
# 4 0.0000 0.0000 0.0000 21.2512 0.0000 0.0000
# 5 0.0000 0.0000 0.0000 0.0000 21.2512 0.0000
# 6 0.0000 0.0000 0.0000 0.0000 0.0000 16.2939
#
#
#
# Elastic Compliance Matrix: (Units=1/GPa)
#
#
# Indices 1 2 3 4 5 6 
#
# 1 0.016027 -0.004501 -0.003172 0.000000 0.000000 0.000000
# 2 -0.004501 0.016027 -0.003172 0.000000 0.000000 0.000000
# 3 -0.003172 -0.003172 0.011827 0.000000 0.000000 0.000000
# 4 0.000000 0.000000 0.000000 0.047056 0.000000 0.000000
# 5 0.000000 0.000000 0.000000 0.000000 0.047056 0.000000
# 6 0.000000 0.000000 0.000000 0.000000 0.000000 0.061373
#
#
# Mechanical properties :
#
#
# Convention : Reuss Voigt Hill
#
# Bulk Modulus (GPa) = 45.06399 45.77407 45.41903
# Shear Modulus (GPa) = 21.88645 22.99679 22.44162
#
# Velocity S-wave (km/s) = 3.45046 3.53690 3.49395
# Velocity P-wave (km/s) = 6.35515 6.44822 6.40186
#
# Compressibility (1/GPa) = 0.02219067
#
# Stress axis : x y z
#
# Youngs Moduli (GPa) = 62.39649 62.39649 84.55084
#
# Poissons Ratio (x) = 0.28084 0.26819
# Poissons Ratio (y) = 0.28084 0.26819
# Poissons Ratio (z) = 0.19792 0.19792
#
# Static dielectric constant tensor:
#      x y z
#    x 3.841370 0.000000 0.000000 
#    y 0.000000 3.841370 0.000000 
#    z 0.000000 0.000000 3.624570 
# 
# 
# High freq. dielectric constant tensor:
#      x y z
#    x 1.700840 0.000000 0.000000 
#    y 0.000000 1.700840 0.000000 
#    z 0.000000 0.000000 1.707030 
# 
# From -- ./inp_files/10661.got.cif
#   From: 2010.03.12/outbox.cif.g09.slc.cpg/sg137_6_cif.got.tgz:10661.got - 2010.04.08 09:34:49.
