data_PCOD8318763
_publ_section_title
;
Structure prediction by ZEFSAII (Michael W. Deem and Ramdas Pophale) SiO2 
 PCOD8318763
Probable space group: P 42/N M C
;
_chemical_formula_sum "Si O2"
_cell_formula_units_Z 64
_cell_length_a 11.821598
_cell_length_b 11.821598
_cell_length_c 24.086282
_cell_angle_alpha 90.000000
_cell_angle_beta 90.000000
_cell_angle_gamma 90.000000
_cell_volume 3366.062228
_symmetry_space_group_name_H-M "P 42/N M C"
_symmetry_group_IT_number 137
_space_group.IT_coordinate_system_code '2'
_symmetry_cell_setting 'tetragonal'
loop_
_space_group_symop_operation_xyz
x,y,z
1/2-y,x,1/2+z
1/2-x,1/2-y,z
y,1/2-x,1/2+z
1/2+x,-y,-z
-x,1/2+y,-z
1/2+y,1/2+x,1/2-z
-y,-x,1/2-z
-x,-y,-z
1/2+y,-x,1/2-z
1/2+x,1/2+y,-z
-y,1/2+x,1/2-z
1/2-x,y,z
x,1/2-y,z
1/2-y,1/2-x,1/2+z
y,x,1/2+z
loop_
_atom_site_type_symbol
_atom_site_label
_atom_site_fract_x
_atom_site_fract_y
_atom_site_fract_z
Si Si1 0.250000 0.379147 0.631256
Si Si2 0.459222 0.014320 0.088961
Si Si3 0.990306 0.615069 0.201801
Si Si4 0.622618 0.375914 0.008973
Si Si5 0.750000 0.616132 0.247265
O O1 0.250000 0.250000 0.646465
O O2 0.363073 0.404293 0.597295
O O3 0.250000 0.441426 0.691356
O O4 0.478467 0.949019 0.145801
O O5 0.381637 0.932902 0.051715
O O6 0.572994 0.038583 0.054740
O O7 0.001664 0.750000 0.194309
O O8 0.862618 0.576439 0.215600
O O9 0.076007 0.576007 0.250000
O O10 0.750000 0.359904 0.027109
O O11 0.565053 0.250000 0.008073
O O12 0.750000 0.750000 0.251144
#
# Coordination Sequence:
#
# PCOD8318763 Si02
#       5
#     8  16  16  16   8
#     4  11  20  36  61  87 117 159 196 233 288 353
#     4  11  22  38  61  87 118 154 198 243 291 357
#     4  11  23  39  61  89 121 154 196 242 296 355
#     4  10  22  40  60  84 117 155 196 248 300 343
#     4   9  20  38  58  84 118 156 188 233 292 353
#
# _framework density 19.013314999999999
#
# number of rings (size 3 to 8) (size 9 to 14) (size 15 to 20)
#    0.000    1.500    3.750    1.500    1.750    1.250 
#    0.000    0.000    0.000    1.875    0.000    0.000 
#    0.000    0.000    0.000    0.000    0.000    0.000 
#
# Total GULP energy -793292.537469 kJ/mol
# GULP energy per Si atom -12395.195898 kJ/mol
# Density = 1.897004 g / cm^3
# Si number density = 19.013315 Si / 1000 Ang^3
#
#
#
# Elastic Constant Matrix: (Units=GPa)
#
#
# Indices 1 2 3 4 5 6 
#
# 1 97.0130 24.8608 38.0425 0.0000 0.0000 0.0000
# 2 24.8608 97.0130 38.0425 0.0000 0.0000 0.0000
# 3 38.0425 38.0425 131.2619 0.0000 0.0000 0.0000
# 4 0.0000 0.0000 0.0000 24.1207 0.0000 0.0000
# 5 0.0000 0.0000 0.0000 0.0000 24.1207 0.0000
# 6 0.0000 0.0000 0.0000 0.0000 0.0000 23.2278
#
#
#
# Elastic Compliance Matrix: (Units=1/GPa)
#
#
# Indices 1 2 3 4 5 6 
#
# 1 0.011939 -0.001921 -0.002903 0.000000 0.000000 0.000000
# 2 -0.001921 0.011939 -0.002903 0.000000 0.000000 0.000000
# 3 -0.002903 -0.002903 0.009301 0.000000 0.000000 0.000000
# 4 0.000000 0.000000 0.000000 0.041458 0.000000 0.000000
# 5 0.000000 0.000000 0.000000 0.000000 0.041458 0.000000
# 6 0.000000 0.000000 0.000000 0.000000 0.000000 0.043052
#
#
# Mechanical properties :
#
#
# Convention : Reuss Voigt Hill
#
# Bulk Modulus (GPa) = 56.42276 58.57551 57.49914
# Shear Modulus (GPa) = 27.69933 29.24999 28.47466
#
# Velocity S-wave (km/s) = 3.82100 3.92649 3.87410
# Velocity P-wave (km/s) = 7.01473 7.17154 7.09357
#
# Compressibility (1/GPa) = 0.01772334
#
# Stress axis : x y z
#
# Youngs Moduli (GPa) = 83.76139 83.76139 107.51223
#
# Poissons Ratio (x) = 0.16090 0.31215
# Poissons Ratio (y) = 0.16090 0.31215
# Poissons Ratio (z) = 0.24319 0.24319
#
# Static dielectric constant tensor:
#      x y z
#    x 3.477720 0.000000 0.000000 
#    y 0.000000 3.477720 0.000000 
#    z 0.000000 0.000000 3.660080 
# 
# 
# High freq. dielectric constant tensor:
#      x y z
#    x 1.738620 0.000000 0.000000 
#    y 0.000000 1.738620 0.000000 
#    z 0.000000 0.000000 1.749120 
# 
# From -- ./inp_files/8573.got.cif
#   From: 2010.03.12/outbox.cif.g09.slc.cpg/sg137_5_cif.got.tgz:8573.got - 2010.04.08 09:34:49.
