data_PCOD8318624
_publ_section_title
;
Structure prediction by ZEFSAII (Michael W. Deem and Ramdas Pophale) SiO2 
 PCOD8318624
Probable space group: P 42/N M C
;
_chemical_formula_sum "Si O2"
_cell_formula_units_Z 48
_cell_length_a 7.872789
_cell_length_b 7.872789
_cell_length_c 37.182148
_cell_angle_alpha 90.000000
_cell_angle_beta 90.000000
_cell_angle_gamma 90.000000
_cell_volume 2304.579526
_symmetry_space_group_name_H-M "P 42/N M C"
_symmetry_group_IT_number 137
_space_group.IT_coordinate_system_code '2'
_symmetry_cell_setting 'tetragonal'
loop_
_space_group_symop_operation_xyz
x,y,z
1/2-y,x,1/2+z
1/2-x,1/2-y,z
y,1/2-x,1/2+z
1/2+x,-y,-z
-x,1/2+y,-z
1/2+y,1/2+x,1/2-z
-y,-x,1/2-z
-x,-y,-z
1/2+y,-x,1/2-z
1/2+x,1/2+y,-z
-y,1/2+x,1/2-z
1/2-x,y,z
x,1/2-y,z
1/2-y,1/2-x,1/2+z
y,x,1/2+z
loop_
_atom_site_type_symbol
_atom_site_label
_atom_site_fract_x
_atom_site_fract_y
_atom_site_fract_z
Si Si1 0.942410 0.936528 0.286301
Si Si2 0.952613 0.250000 0.412247
Si Si3 0.056827 0.250000 0.331213
Si Si4 0.549925 0.559953 0.460708
O O1 0.750000 0.954012 0.273179
O O2 0.977703 0.750000 0.303538
O O3 0.050942 0.949059 0.250000
O O4 0.974774 0.078690 0.316048
O O5 0.750000 0.250000 0.408851
O O6 0.019030 0.419759 0.432583
O O7 0.038195 0.250000 0.373688
O O8 0.250000 0.250000 0.319166
O O9 0.500000 0.500000 0.500000
O O10 0.750000 0.567472 0.457720
O O11 0.475040 0.750000 0.452913
#
# Coordination Sequence:
#
# PCOD8318624 Si02
#       4
#    16   8   8  16
#     4  11  23  41  67  96 126 166 215 264 317 389
#     4  10  22  40  58  84 124 166 208 260 316 379
#     4  12  26  42  62  94 132 170 212 267 333 386
#     4  10  20  35  59  88 117 154 205 257 309 375
#
# _framework density 20.828095999999999
#
# number of rings (size 3 to 8) (size 9 to 14) (size 15 to 20)
#    0.000    1.333    3.333    2.500    0.000    5.000 
#    0.000    3.333    0.000    0.000    0.000    0.000 
#    0.000    0.000    0.000    0.000    0.000    0.000 
#
# Total GULP energy -595118.536965 kJ/mol
# GULP energy per Si atom -12398.302853 kJ/mol
# Density = 2.078069 g / cm^3
# Si number density = 20.828096 Si / 1000 Ang^3
#
#
#
# Elastic Constant Matrix: (Units=GPa)
#
#
# Indices 1 2 3 4 5 6 
#
# 1 135.8258 44.7080 46.0701 0.0000 0.0000 0.0000
# 2 44.7080 135.8268 46.0706 0.0000 0.0000 0.0000
# 3 46.0701 46.0706 127.0719 0.0000 0.0000 0.0000
# 4 0.0000 0.0000 0.0000 41.2615 0.0000 0.0000
# 5 0.0000 0.0000 0.0000 0.0000 41.2595 0.0000
# 6 0.0000 0.0000 0.0000 0.0000 0.0000 6.4518
#
#
#
# Elastic Compliance Matrix: (Units=1/GPa)
#
#
# Indices 1 2 3 4 5 6 
#
# 1 0.008886 -0.002089 -0.002464 0.000000 0.000000 0.000000
# 2 -0.002089 0.008886 -0.002464 0.000000 0.000000 0.000000
# 3 -0.002464 -0.002464 0.009656 0.000000 0.000000 0.000000
# 4 0.000000 0.000000 0.000000 0.024236 0.000000 0.000000
# 5 0.000000 0.000000 0.000000 0.000000 0.024237 0.000000
# 6 0.000000 0.000000 0.000000 0.000000 0.000000 0.154995
#
#
# Mechanical properties :
#
#
# Convention : Reuss Voigt Hill
#
# Bulk Modulus (GPa) = 74.66503 74.71352 74.68927
# Shear Modulus (GPa) = 20.04854 35.25296 27.65075
#
# Velocity S-wave (km/s) = 3.10590 4.11855 3.64754
# Velocity P-wave (km/s) = 6.98485 7.65284 7.32646
#
# Compressibility (1/GPa) = 0.01339315
#
# Stress axis : x y z
#
# Youngs Moduli (GPa) = 112.53929 112.53987 103.55863
#
# Poissons Ratio (x) = 0.23509 0.25519
# Poissons Ratio (y) = 0.23509 0.25519
# Poissons Ratio (z) = 0.27732 0.27732
#
# Static dielectric constant tensor:
#      x y z
#    x 4.147590 0.000000 0.000000 
#    y 0.000000 4.147590 0.000000 
#    z 0.000000 0.000000 3.532090 
# 
# 
# High freq. dielectric constant tensor:
#      x y z
#    x 1.825400 0.000000 0.000000 
#    y 0.000000 1.825400 0.000000 
#    z 0.000000 0.000000 1.799760 
# 
# From -- ./inp_files/10055.got.cif
#   From: 2010.03.12/outbox.cif.g09.slc.cpg/sg137_6_cif.got.tgz:10055.got - 2010.04.08 09:34:49.
