data_PCOD8318824
_publ_section_title
;
Structure prediction by ZEFSAII (Michael W. Deem and Ramdas Pophale) SiO2 
 PCOD8318824
Probable space group: P 42/N M C
;
_chemical_formula_sum "Si O2"
_cell_formula_units_Z 96
_cell_length_a 15.766666
_cell_length_b 15.766666
_cell_length_c 21.059167
_cell_angle_alpha 90.000000
_cell_angle_beta 90.000000
_cell_angle_gamma 90.000000
_cell_volume 5235.051084
_symmetry_space_group_name_H-M "P 42/N M C"
_symmetry_group_IT_number 137
_space_group.IT_coordinate_system_code '2'
_symmetry_cell_setting 'tetragonal'
loop_
_space_group_symop_operation_xyz
x,y,z
1/2-y,x,1/2+z
1/2-x,1/2-y,z
y,1/2-x,1/2+z
1/2+x,-y,-z
-x,1/2+y,-z
1/2+y,1/2+x,1/2-z
-y,-x,1/2-z
-x,-y,-z
1/2+y,-x,1/2-z
1/2+x,1/2+y,-z
-y,1/2+x,1/2-z
1/2-x,y,z
x,1/2-y,z
1/2-y,1/2-x,1/2+z
y,x,1/2+z
loop_
_atom_site_type_symbol
_atom_site_label
_atom_site_fract_x
_atom_site_fract_y
_atom_site_fract_z
Si Si1 0.345907 0.849908 0.633998
Si Si2 0.500310 0.939603 0.440086
Si Si3 0.653725 0.849864 0.636022
Si Si4 0.156078 0.149849 0.508294
Si Si5 0.843756 0.149836 0.510056
Si Si6 0.949719 0.499580 0.183292
O O1 0.250000 0.874984 0.654888
O O2 0.358130 0.750000 0.639183
O O3 0.362879 0.880836 0.561840
O O4 0.414823 0.892939 0.679153
O O5 0.585876 0.884097 0.443410
O O6 0.414886 0.883873 0.442394
O O7 0.500000 0.000000 0.500000
O O8 0.500220 0.982801 0.372505
O O9 0.750000 0.874932 0.655605
O O10 0.640982 0.750000 0.642403
O O11 0.635431 0.879528 0.563705
O O12 0.585511 0.894443 0.681370
O O13 0.250000 0.116326 0.527816
O O14 0.155342 0.250000 0.510873
O O15 0.750000 0.117046 0.530762
O O16 0.845175 0.250000 0.511654
O O17 0.998701 0.498701 0.250000
#
# Coordination Sequence:
#
# PCOD8318824 Si02
#       6
#    16  16  16  16  16  16
#     4   9  18  34  56  82 114 150 181 211 260 333
#     4  12  21  33  55  82 108 143 178 222 277 326
#     4   9  18  36  61  82 103 142 193 236 275 327
#     4   9  18  34  58  85 109 137 182 235 279 326
#     4   9  18  34  58  85 108 135 179 231 277 326
#     4  12  25  37  50  80 119 149 184 228 275 326
#
# _framework density 18.33793
#
# number of rings (size 3 to 8) (size 9 to 14) (size 15 to 20)
#    0.000    2.000    3.333    3.000    0.000    6.000 
#    0.000    2.500    0.000    2.000    0.000    1.167 
#    0.000    0.000    0.000    0.000    0.000    0.000 
#
# Total GULP energy -1190217.554919 kJ/mol
# GULP energy per Si atom -12398.099530 kJ/mol
# Density = 1.829619 g / cm^3
# Si number density = 18.337930 Si / 1000 Ang^3
#
#
#
# Elastic Constant Matrix: (Units=GPa)
#
#
# Indices 1 2 3 4 5 6 
#
# 1 101.3608 48.1826 46.2783 0.0000 0.0000 0.0000
# 2 48.1826 101.3608 46.2783 0.0000 0.0000 0.0000
# 3 46.2783 46.2783 97.2972 0.0000 0.0000 0.0000
# 4 0.0000 0.0000 0.0000 -0.1328 0.0000 0.0000
# 5 0.0000 0.0000 0.0000 0.0000 -0.1328 0.0000
# 6 0.0000 0.0000 0.0000 0.0000 0.0000 -1.7543
#
#
#
# Elastic Compliance Matrix: (Units=1/GPa)
#
#
# Indices 1 2 3 4 5 6 
#
# 1 0.014141 -0.004664 -0.004508 0.000000 0.000000 0.000000
# 2 -0.004664 0.014141 -0.004508 0.000000 0.000000 0.000000
# 3 -0.004508 -0.004508 0.014566 0.000000 0.000000 0.000000
# 4 0.000000 0.000000 0.000000 -7.532427 0.000000 0.000000
# 5 0.000000 0.000000 0.000000 0.000000 -7.532427 0.000000
# 6 0.000000 0.000000 0.000000 0.000000 0.000000 -0.570031
#
#
# Mechanical properties :
#
#
# Convention : Reuss Voigt Hill
#
# Bulk Modulus (GPa) = 64.56102 64.61079 64.58590
# Shear Modulus (GPa) = -0.32135 10.21468 4.94667
#
# Velocity S-wave (km/s) = -0.41907 2.36270 1.64419
# Velocity P-wave (km/s) = 5.92018 6.53858 6.23705
#
# Compressibility (1/GPa) = 0.01548922
#
# Stress axis : x y z
#
# Youngs Moduli (GPa) = 70.71743 70.71743 68.65429
#
# Poissons Ratio (x) = 0.32982 0.30946
# Poissons Ratio (y) = 0.32982 0.30946
# Poissons Ratio (z) = 0.31876 0.31876
#
# Static dielectric constant tensor:
#      x y z
#    x -2.845140 0.000000 0.000000 
#    y 0.000000 -2.845140 0.000000 
#    z 0.000000 0.000000 3.077130 
# 
# 
# High freq. dielectric constant tensor:
#      x y z
#    x 1.719920 0.000000 0.000000 
#    y 0.000000 1.719920 0.000000 
#    z 0.000000 0.000000 1.663840 
# 
# From -- ./inp_files/7861.got.cif
#   From: 2010.03.12/outbox.cif.g09.slc.cpg/sg137_4_cif.got.tgz:7861.got - 2010.04.08 09:34:49.
