data_PCOD8318221
_publ_section_title
;
Structure prediction by ZEFSAII (Michael W. Deem and Ramdas Pophale) SiO2 
 PCOD8318221
Probable space group: P 42/M N M
;
_chemical_formula_sum "Si O2"
_cell_formula_units_Z 72
_cell_length_a 20.021208
_cell_length_b 20.021208
_cell_length_c 8.922490
_cell_angle_alpha 90.000000
_cell_angle_beta 90.000000
_cell_angle_gamma 90.000000
_cell_volume 3576.569140
_symmetry_space_group_name_H-M "P 42/M N M"
_symmetry_group_IT_number 136
_symmetry_cell_setting 'tetragonal'
loop_
_space_group_symop_operation_xyz
x,y,z
1/2-y,1/2+x,1/2+z
-x,-y,z
1/2+y,1/2-x,1/2+z
1/2+x,1/2-y,1/2-z
1/2-x,1/2+y,1/2-z
y,x,-z
-y,-x,-z
-x,-y,-z
1/2+y,1/2-x,1/2-z
x,y,-z
1/2-y,1/2+x,1/2-z
1/2-x,1/2+y,1/2+z
1/2+x,1/2-y,1/2+z
-y,-x,z
y,x,z
loop_
_atom_site_type_symbol
_atom_site_label
_atom_site_fract_x
_atom_site_fract_y
_atom_site_fract_z
Si Si1 0.906523 0.710125 0.171868
Si Si2 0.083419 0.550677 0.823325
Si Si3 0.236383 0.236383 0.172907
Si Si4 0.553171 0.446830 0.176816
Si Si5 0.838008 0.161993 0.823262
Si Si6 0.677485 0.510335 0.673189
O O1 0.905810 0.647866 0.284323
O O2 0.840814 0.751930 0.214458
O O3 0.974305 0.751794 0.198053
O O4 0.903132 0.685471 0.000000
O O5 0.090277 0.480745 0.736479
O O6 0.076913 0.539010 0.000000
O O7 0.285613 0.285613 0.259439
O O8 0.250287 0.250287 0.000000
O O9 0.500000 0.500000 0.238876
O O10 0.532798 0.374691 0.234401
O O11 0.554747 0.445254 0.000000
O O12 0.913129 0.180507 0.768681
O O13 0.833104 0.166897 0.000000
O O14 0.655800 0.508749 0.500000
#
# Coordination Sequence:
#
# PCOD8318221 Si02
#       6
#    16  16   8   8   8  16
#     4  10  22  41  64  92 124 163 206 251 308 369
#     4  11  23  41  65  93 123 158 203 257 310 367
#     4  10  23  41  60  85 127 168 200 250 312 375
#     4  11  22  35  55  86 123 156 197 252 303 354
#     4  10  22  38  60  92 121 157 209 258 303 363
#     4  10  21  39  63  88 118 158 206 252 300 365
#
# _framework density 20.131025999999999
#
# number of rings (size 3 to 8) (size 9 to 14) (size 15 to 20)
#    0.000    1.667    1.111    3.667    3.111    4.889 
#    0.000    1.111    0.000    0.000    0.000    0.000 
#    0.000    0.000    0.000    0.000    0.000    0.000 
#
# Total GULP energy -893015.337375 kJ/mol
# GULP energy per Si atom -12402.990797 kJ/mol
# Density = 2.008521 g / cm^3
# Si number density = 20.131026 Si / 1000 Ang^3
#
#
#
# Elastic Constant Matrix: (Units=GPa)
#
#
# Indices 1 2 3 4 5 6 
#
# 1 99.3275 54.2261 33.5786 0.0000 0.0000 0.0000
# 2 54.2261 99.3275 33.5783 0.0000 0.0000 0.0000
# 3 33.5786 33.5783 72.2386 0.0000 0.0000 0.0000
# 4 0.0000 0.0000 0.0000 32.8312 0.0000 0.0000
# 5 0.0000 0.0000 0.0000 0.0000 32.8312 0.0000
# 6 0.0000 0.0000 0.0000 0.0000 0.0000 37.7149
#
#
#
# Elastic Compliance Matrix: (Units=1/GPa)
#
#
# Indices 1 2 3 4 5 6 
#
# 1 0.015173 -0.006999 -0.003800 0.000000 0.000000 0.000000
# 2 -0.006999 0.015173 -0.003800 0.000000 0.000000 0.000000
# 3 -0.003800 -0.003800 0.017375 0.000000 0.000000 0.000000
# 4 0.000000 0.000000 0.000000 0.030459 0.000000 0.000000
# 5 0.000000 0.000000 0.000000 0.000000 0.030459 0.000000
# 6 0.000000 0.000000 0.000000 0.000000 0.000000 0.026515
#
#
# Mechanical properties :
#
#
# Convention : Reuss Voigt Hill
#
# Bulk Modulus (GPa) = 53.98018 57.07329 55.52673
# Shear Modulus (GPa) = 29.32114 30.64285 29.98199
#
# Velocity S-wave (km/s) = 3.82057 3.90573 3.86339
# Velocity P-wave (km/s) = 6.80698 6.98227 6.89518
#
# Compressibility (1/GPa) = 0.01852532
#
# Stress axis : x y z
#
# Youngs Moduli (GPa) = 65.90560 65.90582 57.55306
#
# Poissons Ratio (x) = 0.46128 0.21868
# Poissons Ratio (y) = 0.46128 0.21867
# Poissons Ratio (z) = 0.25041 0.25041
#
# Static dielectric constant tensor:
#      x y z
#    x 3.691840 0.000000 0.000000 
#    y 0.000000 3.691840 0.000000 
#    z 0.000000 0.000000 3.527350 
# 
# 
# High freq. dielectric constant tensor:
#      x y z
#    x 1.792600 0.000000 0.000000 
#    y 0.000000 1.792600 0.000000 
#    z 0.000000 0.000000 1.777690 
# 
# From -- ./inp_files/1624.got.cif
#   From: 2010.03.12/outbox.cif.g09.slc.cpg/sg136_1_cif.got.tgz:1624.got - 2010.04.06 18:39:43.
