data_PCOD8318855
_publ_section_title
;
Structure prediction by ZEFSAII (Michael W. Deem and Ramdas Pophale) SiO2 
 PCOD8318855
Probable space group: P 42/N C M
;
_chemical_formula_sum "Si O2"
_cell_formula_units_Z 96
_cell_length_a 16.009686
_cell_length_b 16.009686
_cell_length_c 20.588016
_cell_angle_alpha 90.000000
_cell_angle_beta 90.000000
_cell_angle_gamma 90.000000
_cell_volume 5276.915324
_symmetry_space_group_name_H-M "P 42/N C M"
_symmetry_group_IT_number 138
_space_group.IT_coordinate_system_code '2'
_symmetry_cell_setting 'tetragonal'
loop_
_space_group_symop_operation_xyz
x,y,z
1/2-y,x,1/2+z
1/2-x,1/2-y,z
y,1/2-x,1/2+z
1/2+x,-y,1/2-z
-x,1/2+y,1/2-z
1/2+y,1/2+x,-z
-y,-x,-z
-x,-y,-z
1/2+y,-x,1/2-z
1/2+x,1/2+y,-z
-y,1/2+x,1/2-z
1/2-x,y,1/2+z
x,1/2-y,1/2+z
1/2-y,1/2-x,z
y,x,z
loop_
_atom_site_type_symbol
_atom_site_label
_atom_site_fract_x
_atom_site_fract_y
_atom_site_fract_z
Si Si1 0.811177 0.947237 0.590342
Si Si2 0.751898 0.613238 0.219598
Si Si3 0.386926 0.249894 0.037585
Si Si4 0.936172 0.428275 0.845354
Si Si5 0.310298 0.632298 0.238866
Si Si6 0.761224 0.500825 0.844220
O O1 0.860158 0.860158 0.588136
O O2 0.753452 0.943252 0.654561
O O3 0.759531 0.950383 0.523313
O O4 0.873297 0.026576 0.595267
O O5 0.840909 0.659091 0.232179
O O6 0.680252 0.680252 0.210730
O O7 0.729015 0.553738 0.278905
O O8 0.335091 0.164910 0.053364
O O9 0.324132 0.324132 0.020950
O O10 0.442388 0.277336 0.099289
O O11 0.923524 0.369450 0.783377
O O12 0.851443 0.470695 0.869621
O O13 0.002011 0.497990 0.823358
O O14 0.221483 0.646913 0.275757
O O15 0.295070 0.581182 0.171692
#
# Coordination Sequence:
#
# PCOD8318855 Si02
#       6
#    16  16  16  16  16  16
#     4   9  18  32  48  69 101 141 177 207 250 317
#     4  10  18  29  47  72 102 137 175 213 261 321
#     4  10  20  33  49  74 109 144 175 211 263 321
#     4  10  19  32  52  79 105 130 171 220 269 312
#     4   9  19  35  54  76 104 140 178 214 256 313
#     4  11  20  31  50  78 106 132 171 227 273 303
#
# _framework density 18.192447999999999
#
# number of rings (size 3 to 8) (size 9 to 14) (size 15 to 20)
#    0.000    2.167    1.667    2.500    0.000    4.667 
#    0.000    2.500    0.000    1.000    0.000    5.833 
#    0.000    0.000    0.000    0.000    0.000    0.000 
#
# Total GULP energy -1190187.742436 kJ/mol
# GULP energy per Si atom -12397.788984 kJ/mol
# Density = 1.815104 g / cm^3
# Si number density = 18.192448 Si / 1000 Ang^3
#
#
#
# Elastic Constant Matrix: (Units=GPa)
#
#
# Indices 1 2 3 4 5 6 
#
# 1 63.8793 18.6448 20.6297 0.0000 0.0000 0.0000
# 2 18.6448 63.8793 20.6297 0.0000 0.0000 0.0000
# 3 20.6297 20.6297 92.7683 0.0000 0.0000 0.0000
# 4 0.0000 0.0000 0.0000 19.5008 0.0000 0.0000
# 5 0.0000 0.0000 0.0000 0.0000 19.5008 0.0000
# 6 0.0000 0.0000 0.0000 0.0000 0.0000 27.3687
#
#
#
# Elastic Compliance Matrix: (Units=1/GPa)
#
#
# Indices 1 2 3 4 5 6 
#
# 1 0.017870 -0.004237 -0.003032 0.000000 0.000000 0.000000
# 2 -0.004237 0.017870 -0.003032 0.000000 0.000000 0.000000
# 3 -0.003032 -0.003032 0.012128 0.000000 0.000000 0.000000
# 4 0.000000 0.000000 0.000000 0.051280 0.000000 0.000000
# 5 0.000000 0.000000 0.000000 0.000000 0.051280 0.000000
# 6 0.000000 0.000000 0.000000 0.000000 0.000000 0.036538
#
#
# Mechanical properties :
#
#
# Convention : Reuss Voigt Hill
#
# Bulk Modulus (GPa) = 36.67340 37.81504 37.24422
# Shear Modulus (GPa) = 23.07803 23.98225 23.53014
#
# Velocity S-wave (km/s) = 3.56554 3.63471 3.60029
# Velocity P-wave (km/s) = 6.09533 6.20049 6.14814
#
# Compressibility (1/GPa) = 0.02726772
#
# Stress axis : x y z
#
# Youngs Moduli (GPa) = 55.95895 55.95895 82.45412
#
# Poissons Ratio (x) = 0.23708 0.24998
# Poissons Ratio (y) = 0.23708 0.24998
# Poissons Ratio (z) = 0.16966 0.16966
#
# Static dielectric constant tensor:
#      x y z
#    x 3.438160 0.000000 0.000000 
#    y 0.000000 3.438160 0.000000 
#    z 0.000000 0.000000 3.242320 
# 
# 
# High freq. dielectric constant tensor:
#      x y z
#    x 1.700560 0.000000 0.000000 
#    y 0.000000 1.700560 0.000000 
#    z 0.000000 0.000000 1.683230 
# 
# From -- ./inp_files/5231.got.cif
#   From: 2010.03.12/outbox.cif.g09.slc.cpg/sg138_3_cif.got.tgz:5231.got - 2010.04.08 09:41:05.
