data_PCOD8318079
_publ_section_title
;
Structure prediction by ZEFSAII (Michael W. Deem and Ramdas Pophale) SiO2 
 PCOD8318079
Probable space group: P 42/M N M
;
_chemical_formula_sum "Si O2"
_cell_formula_units_Z 96
_cell_length_a 24.781138
_cell_length_b 24.781138
_cell_length_c 7.709732
_cell_angle_alpha 90.000000
_cell_angle_beta 90.000000
_cell_angle_gamma 90.000000
_cell_volume 4734.583432
_symmetry_space_group_name_H-M "P 42/M N M"
_symmetry_group_IT_number 136
_symmetry_cell_setting 'tetragonal'
loop_
_space_group_symop_operation_xyz
x,y,z
1/2-y,1/2+x,1/2+z
-x,-y,z
1/2+y,1/2-x,1/2+z
1/2+x,1/2-y,1/2-z
1/2-x,1/2+y,1/2-z
y,x,-z
-y,-x,-z
-x,-y,-z
1/2+y,1/2-x,1/2-z
x,y,-z
1/2-y,1/2+x,1/2-z
1/2-x,1/2+y,1/2+z
1/2+x,1/2-y,1/2+z
-y,-x,z
y,x,z
loop_
_atom_site_type_symbol
_atom_site_label
_atom_site_fract_x
_atom_site_fract_y
_atom_site_fract_z
Si Si1 0.826638 0.739637 0.704941
Si Si2 0.074074 0.838179 0.500000
Si Si3 0.758987 0.049388 0.200418
Si Si4 0.042436 0.125745 0.500000
Si Si5 0.936080 0.446558 0.803232
Si Si6 0.659252 0.118882 0.794986
Si Si7 0.933809 0.797012 0.193388
O O1 0.834745 0.742449 0.500000
O O2 0.773258 0.773258 0.761044
O O3 0.821743 0.677870 0.771067
O O4 0.879072 0.763747 0.795069
O O5 0.127632 0.872369 0.500000
O O6 0.074856 0.804163 0.676500
O O7 0.021878 0.876920 0.500000
O O8 0.702438 0.074113 0.263484
O O9 0.757155 0.984696 0.227676
O O10 0.771776 0.064817 0.000000
O O11 0.064879 0.064879 0.500000
O O12 0.065955 0.154999 0.330410
O O13 0.927780 0.501225 0.695757
O O14 0.898772 0.399238 0.720308
O O15 0.919016 0.458190 0.000000
O O16 0.654614 0.119077 0.000000
O O17 0.938243 0.821880 0.000000
#
# Coordination Sequence:
#
# PCOD8318079 Si02
#       7
#    16   8  16   8  16  16  16
#     4  10  20  35  55  81 113 149 187 231 289 344
#     4  10  22  39  60  90 116 146 194 235 281 348
#     4   9  20  40  60  83 113 150 195 238 284 337
#     4  10  20  37  60  86 118 153 185 232 292 341
#     4  10  20  36  54  79 111 147 193 238 289 343
#     4   9  20  37  57  82 110 149 194 237 290 344
#     4  10  20  35  59  85 112 150 195 237 280 342
#
# _framework density 20.276335
#
# number of rings (size 3 to 8) (size 9 to 14) (size 15 to 20)
#    0.000    2.333    0.833    1.500    2.333    2.500 
#    4.500    1.667    0.000    0.000    0.000    4.667 
#    0.000    0.000    0.000    0.000    0.000    0.000 
#
# Total GULP energy -1190165.347395 kJ/mol
# GULP energy per Si atom -12397.555702 kJ/mol
# Density = 2.023019 g / cm^3
# Si number density = 20.276335 Si / 1000 Ang^3
#
#
#
# Elastic Constant Matrix: (Units=GPa)
#
#
# Indices 1 2 3 4 5 6 
#
# 1 92.4338 59.6931 13.4555 0.0000 0.0000 0.0000
# 2 59.6931 92.4397 13.4567 0.0000 0.0000 0.0000
# 3 13.4555 13.4567 72.5887 0.0000 0.0000 0.0000
# 4 0.0000 0.0000 0.0000 15.9160 0.0000 0.0000
# 5 0.0000 0.0000 0.0000 0.0000 15.9174 0.0000
# 6 0.0000 0.0000 0.0000 0.0000 0.0000 34.5681
#
#
#
# Elastic Compliance Matrix: (Units=1/GPa)
#
#
# Indices 1 2 3 4 5 6 
#
# 1 0.018669 -0.011872 -0.001260 0.000000 0.000000 0.000000
# 2 -0.011872 0.018668 -0.001260 0.000000 0.000000 0.000000
# 3 -0.001260 -0.001260 0.014243 0.000000 0.000000 0.000000
# 4 0.000000 0.000000 0.000000 0.062830 0.000000 0.000000
# 5 0.000000 0.000000 0.000000 0.000000 0.062824 0.000000
# 6 0.000000 0.000000 0.000000 0.000000 0.000000 0.028928
#
#
# Mechanical properties :
#
#
# Convention : Reuss Voigt Hill
#
# Bulk Modulus (GPa) = 43.86664 47.85253 45.85959
# Shear Modulus (GPa) = 20.61477 24.67078 22.64277
#
# Velocity S-wave (km/s) = 3.19202 3.49195 3.34535
# Velocity P-wave (km/s) = 5.93858 6.31741 6.13092
#
# Compressibility (1/GPa) = 0.02279637
#
# Stress axis : x y z
#
# Youngs Moduli (GPa) = 53.56528 53.56849 70.20832
#
# Poissons Ratio (x) = 0.63597 0.08844
# Poissons Ratio (y) = 0.63593 0.08846
# Poissons Ratio (z) = 0.06748 0.06750
#
# Static dielectric constant tensor:
#      x y z
#    x 3.705640 0.000000 0.000000 
#    y 0.000000 3.705640 0.000000 
#    z 0.000000 0.000000 3.641760 
# 
# 
# High freq. dielectric constant tensor:
#      x y z
#    x 1.783760 0.000000 0.000000 
#    y 0.000000 1.783760 0.000000 
#    z 0.000000 0.000000 1.790210 
# 
# From -- ./inp_files/2093.got.cif
#   From: 2010.03.12/outbox.cif.g09.slc.cpg/sg136_2_cif.got.tgz:2093.got - 2010.04.06 18:39:43.
