data_PCOD8318699
_publ_section_title
;
Structure prediction by ZEFSAII (Michael W. Deem and Ramdas Pophale) SiO2 
 PCOD8318699
Probable space group: P 42/N M C
;
_chemical_formula_sum "Si O2"
_cell_formula_units_Z 96
_cell_length_a 14.461199
_cell_length_b 14.461199
_cell_length_c 21.820187
_cell_angle_alpha 90.000000
_cell_angle_beta 90.000000
_cell_angle_gamma 90.000000
_cell_volume 4563.174460
_symmetry_space_group_name_H-M "P 42/N M C"
_symmetry_group_IT_number 137
_space_group.IT_coordinate_system_code '2'
_symmetry_cell_setting 'tetragonal'
loop_
_space_group_symop_operation_xyz
x,y,z
1/2-y,x,1/2+z
1/2-x,1/2-y,z
y,1/2-x,1/2+z
1/2+x,-y,-z
-x,1/2+y,-z
1/2+y,1/2+x,1/2-z
-y,-x,1/2-z
-x,-y,-z
1/2+y,-x,1/2-z
1/2+x,1/2+y,-z
-y,1/2+x,1/2-z
1/2-x,y,z
x,1/2-y,z
1/2-y,1/2-x,1/2+z
y,x,1/2+z
loop_
_atom_site_type_symbol
_atom_site_label
_atom_site_fract_x
_atom_site_fract_y
_atom_site_fract_z
Si Si1 0.146171 0.145344 0.502184
Si Si2 0.007787 0.382221 0.395487
Si Si3 0.354733 0.853930 0.991692
Si Si4 0.495894 0.645406 0.278486
Si Si5 0.913531 0.007735 0.908668
Si Si6 0.147862 0.496817 0.760543
O O1 0.250000 0.103685 0.497123
O O2 0.150529 0.250000 0.525326
O O3 0.095896 0.142946 0.436810
O O4 0.087174 0.090670 0.552665
O O5 0.911467 0.359117 0.429040
O O6 0.014727 0.328429 0.332296
O O7 0.009738 0.488435 0.375675
O O8 0.250000 0.850104 0.014704
O O9 0.393918 0.750000 0.981802
O O10 0.410565 0.905429 0.045232
O O11 0.407729 0.592272 0.250000
O O12 0.499569 0.750000 0.251623
O O13 0.485665 0.657304 0.352384
O O14 0.591188 0.591738 0.264048
O O15 0.092061 0.592061 0.750000
O O16 0.250000 0.501035 0.728487
#
# Coordination Sequence:
#
# PCOD8318699 Si02
#       6
#    16  16  16  16  16  16
#     4  10  21  36  59  93 126 160 203 251 310 378
#     4  11  21  39  62  86 125 166 204 258 314 372
#     4  10  21  36  59  93 126 160 203 251 310 378
#     4  11  24  45  67  93 127 169 220 271 324 380
#     4  11  21  39  62  86 125 166 204 258 314 372
#     4  11  24  45  67  93 127 169 220 271 324 380
#
# _framework density 21.037987000000001
#
# number of rings (size 3 to 8) (size 9 to 14) (size 15 to 20)
#    0.000    1.333    3.333    6.000    0.000    6.000 
#    0.000    0.000    0.000    0.000    0.000    0.000 
#    0.000    0.000    0.000    0.000    0.000    0.000 
#
# Total GULP energy -1190092.629344 kJ/mol
# GULP energy per Si atom -12396.798222 kJ/mol
# Density = 2.099010 g / cm^3
# Si number density = 21.037987 Si / 1000 Ang^3
#
#
#
# Elastic Constant Matrix: (Units=GPa)
#
#
# Indices 1 2 3 4 5 6 
#
# 1 148.3875 33.5293 14.1652 0.0000 0.0000 0.0000
# 2 33.5293 148.3889 14.1654 0.0000 0.0000 0.0000
# 3 14.1652 14.1654 101.2954 0.0000 0.0000 0.0000
# 4 0.0000 0.0000 0.0000 13.7451 0.0000 0.0000
# 5 0.0000 0.0000 0.0000 0.0000 13.7450 0.0000
# 6 0.0000 0.0000 0.0000 0.0000 0.0000 23.5694
#
#
#
# Elastic Compliance Matrix: (Units=1/GPa)
#
#
# Indices 1 2 3 4 5 6 
#
# 1 0.007163 -0.001543 -0.000786 0.000000 0.000000 0.000000
# 2 -0.001543 0.007163 -0.000786 0.000000 0.000000 0.000000
# 3 -0.000786 -0.000786 0.010092 0.000000 0.000000 0.000000
# 4 0.000000 0.000000 0.000000 0.072753 0.000000 0.000000
# 5 0.000000 0.000000 0.000000 0.000000 0.072754 0.000000
# 6 0.000000 0.000000 0.000000 0.000000 0.000000 0.042428
#
#
# Mechanical properties :
#
#
# Convention : Reuss Voigt Hill
#
# Bulk Modulus (GPa) = 54.98324 57.97684 56.48004
# Shear Modulus (GPa) = 22.25732 32.62602 27.44167
#
# Velocity S-wave (km/s) = 3.25616 3.94231 3.61555
# Velocity P-wave (km/s) = 6.35049 6.95273 6.65842
#
# Compressibility (1/GPa) = 0.01818736
#
# Stress axis : x y z
#
# Youngs Moduli (GPa) = 139.60849 139.60974 99.08939
#
# Poissons Ratio (x) = 0.21548 0.07787
# Poissons Ratio (y) = 0.21548 0.07787
# Poissons Ratio (z) = 0.10971 0.10971
#
# Static dielectric constant tensor:
#      x y z
#    x 3.902180 0.000000 0.000000 
#    y 0.000000 3.902180 0.000000 
#    z 0.000000 0.000000 3.616070 
# 
# 
# High freq. dielectric constant tensor:
#      x y z
#    x 1.829450 0.000000 0.000000 
#    y 0.000000 1.829450 0.000000 
#    z 0.000000 0.000000 1.817100 
# 
# From -- ./inp_files/7808.got.cif
#   From: 2010.03.12/outbox.cif.g09.slc.cpg/sg137_4_cif.got.tgz:7808.got - 2010.04.08 09:34:49.
