data_PCOD8318267
_publ_section_title
;
Structure prediction by ZEFSAII (Michael W. Deem and Ramdas Pophale) SiO2 
 PCOD8318267
Probable space group: P 42/M N M
;
_chemical_formula_sum "Si O2"
_cell_formula_units_Z 56
_cell_length_a 19.263486
_cell_length_b 19.263486
_cell_length_c 8.894608
_cell_angle_alpha 90.000000
_cell_angle_beta 90.000000
_cell_angle_gamma 90.000000
_cell_volume 3300.627973
_symmetry_space_group_name_H-M "P 42/M N M"
_symmetry_group_IT_number 136
_symmetry_cell_setting 'tetragonal'
loop_
_space_group_symop_operation_xyz
x,y,z
1/2-y,1/2+x,1/2+z
-x,-y,z
1/2+y,1/2-x,1/2+z
1/2+x,1/2-y,1/2-z
1/2-x,1/2+y,1/2-z
y,x,-z
-y,-x,-z
-x,-y,-z
1/2+y,1/2-x,1/2-z
x,y,-z
1/2-y,1/2+x,1/2-z
1/2-x,1/2+y,1/2+z
1/2+x,1/2-y,1/2+z
-y,-x,z
y,x,z
loop_
_atom_site_type_symbol
_atom_site_label
_atom_site_fract_x
_atom_site_fract_y
_atom_site_fract_z
Si Si1 0.523156 0.702866 0.177571
Si Si2 0.262363 0.628990 0.821595
Si Si3 0.650087 0.765548 0.672531
Si Si4 0.942783 0.057218 0.176337
O O1 0.450092 0.734774 0.234103
O O2 0.582321 0.757015 0.225209
O O3 0.533066 0.629245 0.254687
O O4 0.524347 0.691930 0.000000
O O5 0.328827 0.671174 0.757064
O O6 0.191335 0.666470 0.768032
O O7 0.264408 0.633436 0.000000
O O8 0.626944 0.774473 0.500000
O O9 0.697850 0.697850 0.690068
O O10 0.932468 0.067533 0.000000
O O11 0.000000 0.000000 0.215723
#
# Coordination Sequence:
#
# PCOD8318267 Si02
#       4
#    16  16  16   8
#     4  11  20  31  51  77 102 127 166 213 254 292
#     4   8  16  31  50  71  96 131 169 203 243 295
#     4   9  17  32  52  70  95 132 170 201 245 305
#     4  11  23  35  47  69 105 143 171 194 243 312
#
# _framework density 16.966469
#
# number of rings (size 3 to 8) (size 9 to 14) (size 15 to 20)
#    0.000    2.429    1.429    3.857    0.000    2.286 
#    0.000    2.857    0.000    4.286    0.000    6.000 
#    0.000    0.000    0.000    0.000    0.000    0.000 
#
# Total GULP energy -694289.630362 kJ/mol
# GULP energy per Si atom -12398.029114 kJ/mol
# Density = 1.692785 g / cm^3
# Si number density = 16.966469 Si / 1000 Ang^3
#
#
#
# Elastic Constant Matrix: (Units=GPa)
#
#
# Indices 1 2 3 4 5 6 
#
# 1 131.1807 87.4186 39.2659 0.0000 0.0000 0.0000
# 2 87.4186 131.1801 39.2658 0.0000 0.0000 0.0000
# 3 39.2659 39.2658 48.7372 0.0000 0.0000 0.0000
# 4 0.0000 0.0000 0.0000 15.1976 0.0000 0.0000
# 5 0.0000 0.0000 0.0000 0.0000 15.1976 0.0000
# 6 0.0000 0.0000 0.0000 0.0000 0.0000 25.6714
#
#
#
# Elastic Compliance Matrix: (Units=1/GPa)
#
#
# Indices 1 2 3 4 5 6 
#
# 1 0.014644 -0.008206 -0.005187 0.000000 0.000000 0.000000
# 2 -0.008206 0.014644 -0.005187 0.000000 0.000000 0.000000
# 3 -0.005187 -0.005187 0.028876 0.000000 0.000000 0.000000
# 4 0.000000 0.000000 0.000000 0.065800 0.000000 0.000000
# 5 0.000000 0.000000 0.000000 0.000000 0.065800 0.000000
# 6 0.000000 0.000000 0.000000 0.000000 0.000000 0.038954
#
#
# Mechanical properties :
#
#
# Convention : Reuss Voigt Hill
#
# Bulk Modulus (GPa) = 47.60891 71.44430 59.52661
# Shear Modulus (GPa) = 18.32306 20.88983 19.60644
#
# Velocity S-wave (km/s) = 3.28983 3.51271 3.40310
# Velocity P-wave (km/s) = 6.52320 7.65851 7.11354
#
# Compressibility (1/GPa) = 0.02100447
#
# Stress axis : x y z
#
# Youngs Moduli (GPa) = 68.28535 68.28504 34.63092
#
# Poissons Ratio (x) = 0.56038 0.17963
# Poissons Ratio (y) = 0.56038 0.17963
# Poissons Ratio (z) = 0.35419 0.35418
#
# Static dielectric constant tensor:
#      x y z
#    x 3.368100 0.000000 0.000000 
#    y 0.000000 3.368110 0.000000 
#    z 0.000000 0.000000 2.976230 
# 
# 
# High freq. dielectric constant tensor:
#      x y z
#    x 1.650540 0.000000 0.000000 
#    y 0.000000 1.650540 0.000000 
#    z 0.000000 0.000000 1.635800 
# 
# From -- ./inp_files/1102.got.cif
#   From: 2010.03.12/outbox.cif.g09.slc.cpg/sg136_1_cif.got.tgz:1102.got - 2010.04.06 18:39:43.
