data_PCOD8318300
_publ_section_title
;
Structure prediction by ZEFSAII (Michael W. Deem and Ramdas Pophale) SiO2 
 PCOD8318300
Probable space group: P 42/M N M
;
_chemical_formula_sum "Si O2"
_cell_formula_units_Z 56
_cell_length_a 14.780130
_cell_length_b 14.780130
_cell_length_c 12.780958
_cell_angle_alpha 90.000000
_cell_angle_beta 90.000000
_cell_angle_gamma 90.000000
_cell_volume 2792.028940
_symmetry_space_group_name_H-M "P 42/M N M"
_symmetry_group_IT_number 136
_symmetry_cell_setting 'tetragonal'
loop_
_space_group_symop_operation_xyz
x,y,z
1/2-y,1/2+x,1/2+z
-x,-y,z
1/2+y,1/2-x,1/2+z
1/2+x,1/2-y,1/2-z
1/2-x,1/2+y,1/2-z
y,x,-z
-y,-x,-z
-x,-y,-z
1/2+y,1/2-x,1/2-z
x,y,-z
1/2-y,1/2+x,1/2-z
1/2-x,1/2+y,1/2+z
1/2+x,1/2-y,1/2+z
-y,-x,z
y,x,z
loop_
_atom_site_type_symbol
_atom_site_label
_atom_site_fract_x
_atom_site_fract_y
_atom_site_fract_z
Si Si1 0.411320 0.935329 0.000000
Si Si2 0.958428 0.362545 0.220352
Si Si3 0.424489 0.575512 0.380617
Si Si4 0.024395 0.825060 0.293487
Si Si5 0.220528 0.079909 0.500000
O O1 0.348085 0.960482 0.096622
O O2 0.500000 0.000000 0.000000
O O3 0.433742 0.828441 0.000000
O O4 0.887020 0.441442 0.241636
O O5 0.926340 0.271508 0.277246
O O6 0.500000 0.500000 0.392273
O O7 0.394933 0.605068 0.500000
O O8 0.464485 0.658030 0.311200
O O9 0.098529 0.901472 0.309465
O O10 0.965090 0.822665 0.397485
O O11 0.185109 0.185109 0.500000
#
# Coordination Sequence:
#
# PCOD8318300 Si02
#       5
#     8  16   8  16   8
#     4  12  22  41  69  93 125 173 221 274 338 398
#     4  11  22  41  64  90 122 165 212 264 320 388
#     4   9  20  39  59  85 123 168 209 248 311 388
#     4  11  23  40  64  92 130 171 212 266 329 395
#     4  12  23  40  68 101 132 168 221 276 331 394
#
# _framework density 20.057099999999998
#
# number of rings (size 3 to 8) (size 9 to 14) (size 15 to 20)
#    0.000    1.000    7.143    0.429    2.000    1.714 
#    2.571    0.000    0.000    0.000    0.000    0.000 
#    0.000    0.000    0.000    0.000    0.000    0.000 
#
# Total GULP energy -694038.383442 kJ/mol
# GULP energy per Si atom -12393.542561 kJ/mol
# Density = 2.001145 g / cm^3
# Si number density = 20.057100 Si / 1000 Ang^3
#
#
#
# Elastic Constant Matrix: (Units=GPa)
#
#
# Indices 1 2 3 4 5 6 
#
# 1 89.7746 36.7193 24.1305 0.0000 0.0000 0.0000
# 2 36.7193 89.7745 24.1305 0.0000 0.0000 0.0000
# 3 24.1305 24.1305 158.6818 0.0000 0.0000 0.0000
# 4 0.0000 0.0000 0.0000 21.5498 0.0000 0.0000
# 5 0.0000 0.0000 0.0000 0.0000 21.5496 0.0000
# 6 0.0000 0.0000 0.0000 0.0000 0.0000 12.4211
#
#
#
# Elastic Compliance Matrix: (Units=1/GPa)
#
#
# Indices 1 2 3 4 5 6 
#
# 1 0.013620 -0.005228 -0.001276 0.000000 0.000000 0.000000
# 2 -0.005228 0.013620 -0.001276 0.000000 0.000000 0.000000
# 3 -0.001276 -0.001276 0.006690 0.000000 0.000000 0.000000
# 4 0.000000 0.000000 0.000000 0.046404 0.000000 0.000000
# 5 0.000000 0.000000 0.000000 0.000000 0.046404 0.000000
# 6 0.000000 0.000000 0.000000 0.000000 0.000000 0.080508
#
#
# Mechanical properties :
#
#
# Convention : Reuss Voigt Hill
#
# Bulk Modulus (GPa) = 54.43645 56.46573 55.45109
# Shear Modulus (GPa) = 21.84058 27.98748 24.91403
#
# Velocity S-wave (km/s) = 3.30346 3.73954 3.52825
# Velocity P-wave (km/s) = 6.46143 6.84538 6.65617
#
# Compressibility (1/GPa) = 0.01837004
#
# Stress axis : x y z
#
# Youngs Moduli (GPa) = 73.41951 73.41949 149.47535
#
# Poissons Ratio (x) = 0.38383 0.19076
# Poissons Ratio (y) = 0.38383 0.19076
# Poissons Ratio (z) = 0.09370 0.09370
#
# Static dielectric constant tensor:
#      x y z
#    x 3.523610 0.000000 0.000000 
#    y 0.000000 3.523610 0.000000 
#    z 0.000000 0.000000 4.206260 
# 
# 
# High freq. dielectric constant tensor:
#      x y z
#    x 1.768060 0.000000 0.000000 
#    y 0.000000 1.768060 0.000000 
#    z 0.000000 0.000000 1.812620 
# 
# From -- ./inp_files/3117.got.cif
#   From: 2010.03.12/outbox.cif.g09.slc.cpg/sg136_2_cif.got.tgz:3117.got - 2010.04.06 18:39:43.
