data_PCOD8318145
_publ_section_title
;
Structure prediction by ZEFSAII (Michael W. Deem and Ramdas Pophale) SiO2 
 PCOD8318145
Probable space group: P 42/M N M
;
_chemical_formula_sum "Si O2"
_cell_formula_units_Z 60
_cell_length_a 12.206508
_cell_length_b 12.206508
_cell_length_c 18.699200
_cell_angle_alpha 90.000000
_cell_angle_beta 90.000000
_cell_angle_gamma 90.000000
_cell_volume 2786.159063
_symmetry_space_group_name_H-M "P 42/M N M"
_symmetry_group_IT_number 136
_symmetry_cell_setting 'tetragonal'
loop_
_space_group_symop_operation_xyz
x,y,z
1/2-y,1/2+x,1/2+z
-x,-y,z
1/2+y,1/2-x,1/2+z
1/2+x,1/2-y,1/2-z
1/2-x,1/2+y,1/2-z
y,x,-z
-y,-x,-z
-x,-y,-z
1/2+y,1/2-x,1/2-z
x,y,-z
1/2-y,1/2+x,1/2-z
1/2-x,1/2+y,1/2+z
1/2+x,1/2-y,1/2+z
-y,-x,z
y,x,z
loop_
_atom_site_type_symbol
_atom_site_label
_atom_site_fract_x
_atom_site_fract_y
_atom_site_fract_z
Si Si1 0.334008 0.009397 0.000000
Si Si2 0.232788 0.767213 0.151316
Si Si3 0.426371 0.247072 0.000000
Si Si4 0.480335 0.774957 0.153261
Si Si5 0.829604 0.170397 0.000000
Si Si6 0.909718 0.090283 0.252103
Si Si7 0.000000 0.500000 0.380207
O O1 0.344034 0.141563 0.000000
O O2 0.397093 0.963327 0.069973
O O3 0.208031 0.960127 0.000000
O O4 0.355476 0.790068 0.176815
O O5 0.145805 0.854196 0.183412
O O6 0.226765 0.773236 0.066733
O O7 0.503468 0.252422 0.069473
O O8 0.353920 0.353920 0.000000
O O9 0.535303 0.683746 0.201105
O O10 0.534008 0.895114 0.167584
O O11 0.000000 0.000000 0.228097
#
# Coordination Sequence:
#
# PCOD8318145 Si02
#       7
#     8   8   8  16   4   8   8
#     4   9  18  32  60  98 135 166 224 291 330 407
#     4  12  26  43  71 100 134 195 234 289 355 426
#     4  10  20  39  71 111 140 171 226 307 361 404
#     4  11  22  44  71 104 143 184 234 288 362 427
#     4  12  20  44  71  95 128 186 248 288 338 401
#     4  12  28  49  66 104 153 181 235 306 358 444
#     4   9  18  36  65  98 132 172 230 280 340 413
#
# _framework density 21.535025000000001
#
# number of rings (size 3 to 8) (size 9 to 14) (size 15 to 20)
#    0.000    1.333    5.333    1.600    0.000    2.133 
#    0.000    3.333    0.000    0.000    0.000    0.000 
#    0.000    0.000    0.000    0.000    0.000    0.000 
#
# Total GULP energy -743350.454314 kJ/mol
# GULP energy per Si atom -12389.174239 kJ/mol
# Density = 2.148601 g / cm^3
# Si number density = 21.535025 Si / 1000 Ang^3
#
#
#
# Elastic Constant Matrix: (Units=GPa)
#
#
# Indices 1 2 3 4 5 6 
#
# 1 134.8500 63.2100 43.3136 0.0000 0.0000 0.0000
# 2 63.2100 134.8497 43.3135 0.0000 0.0000 0.0000
# 3 43.3136 43.3135 72.5912 0.0000 0.0000 0.0000
# 4 0.0000 0.0000 0.0000 14.6016 0.0000 0.0000
# 5 0.0000 0.0000 0.0000 0.0000 14.6018 0.0000
# 6 0.0000 0.0000 0.0000 0.0000 0.0000 49.5738
#
#
#
# Elastic Compliance Matrix: (Units=1/GPa)
#
#
# Indices 1 2 3 4 5 6 
#
# 1 0.010395 -0.003563 -0.004076 0.000000 0.000000 0.000000
# 2 -0.003563 0.010395 -0.004076 0.000000 0.000000 0.000000
# 3 -0.004076 -0.004076 0.018640 0.000000 0.000000 0.000000
# 4 0.000000 0.000000 0.000000 0.068486 0.000000 0.000000
# 5 0.000000 0.000000 0.000000 0.000000 0.068485 0.000000
# 6 0.000000 0.000000 0.000000 0.000000 0.000000 0.020172
#
#
# Mechanical properties :
#
#
# Convention : Reuss Voigt Hill
#
# Bulk Modulus (GPa) = 62.50601 71.32947 66.91774
# Shear Modulus (GPa) = 22.18882 28.58569 25.38726
#
# Velocity S-wave (km/s) = 3.21340 3.64731 3.43721
# Velocity P-wave (km/s) = 6.54647 7.13664 6.84791
#
# Compressibility (1/GPa) = 0.01599846
#
# Stress axis : x y z
#
# Youngs Moduli (GPa) = 96.19709 96.19695 53.64672
#
# Poissons Ratio (x) = 0.34279 0.21869
# Poissons Ratio (y) = 0.34279 0.21869
# Poissons Ratio (z) = 0.39215 0.39214
#
# Static dielectric constant tensor:
#      x y z
#    x 4.029380 0.000000 0.000000 
#    y 0.000000 4.029390 0.000000 
#    z 0.000000 0.000000 3.664710 
# 
# 
# High freq. dielectric constant tensor:
#      x y z
#    x 1.845900 0.000000 0.000000 
#    y 0.000000 1.845900 0.000000 
#    z 0.000000 0.000000 1.825480 
# 
# From -- ./inp_files/7124.got.cif
#   From: 2010.03.12/outbox.cif.g09.slc.cpg/sg136_4_cif.got.tgz:7124.got - 2010.04.06 18:39:43.
