data_PCOD8318366
_publ_section_title
;
Structure prediction by ZEFSAII (Michael W. Deem and Ramdas Pophale) SiO2 
 PCOD8318366
Probable space group: P 42/N M C
;
_chemical_formula_sum "Si O2"
_cell_formula_units_Z 128
_cell_length_a 18.424635
_cell_length_b 18.424635
_cell_length_c 22.865713
_cell_angle_alpha 90.000000
_cell_angle_beta 90.000000
_cell_angle_gamma 90.000000
_cell_volume 7762.158994
_symmetry_space_group_name_H-M "P 42/N M C"
_symmetry_group_IT_number 137
_space_group.IT_coordinate_system_code '2'
_symmetry_cell_setting 'tetragonal'
loop_
_space_group_symop_operation_xyz
x,y,z
1/2-y,x,1/2+z
1/2-x,1/2-y,z
y,1/2-x,1/2+z
1/2+x,-y,-z
-x,1/2+y,-z
1/2+y,1/2+x,1/2-z
-y,-x,1/2-z
-x,-y,-z
1/2+y,-x,1/2-z
1/2+x,1/2+y,-z
-y,1/2+x,1/2-z
1/2-x,y,z
x,1/2-y,z
1/2-y,1/2-x,1/2+z
y,x,1/2+z
loop_
_atom_site_type_symbol
_atom_site_label
_atom_site_fract_x
_atom_site_fract_y
_atom_site_fract_z
Si Si1 0.927934 0.970280 0.580978
Si Si2 0.568191 0.571283 0.407937
Si Si3 0.332412 0.464819 0.985478
Si Si4 0.669524 0.019855 0.473857
Si Si5 0.329391 0.634776 0.003641
Si Si6 0.018651 0.831597 0.184475
Si Si7 0.168899 0.477795 0.185726
Si Si8 0.329933 0.633992 0.138517
O O1 0.946034 0.885593 0.569174
O O2 0.884656 0.975932 0.641439
O O3 0.880470 0.002561 0.528972
O O4 0.998575 0.019999 0.584701
O O5 0.571232 0.635006 0.456213
O O6 0.637918 0.519315 0.416205
O O7 0.575056 0.609475 0.344167
O O8 0.250000 0.435619 0.974195
O O9 0.330819 0.549835 0.993919
O O10 0.750000 0.990118 0.484892
O O11 0.671571 0.107285 0.465269
O O12 0.250000 0.665190 0.984972
O O13 0.343757 0.654488 0.071377
O O14 0.990833 0.750000 0.173858
O O15 0.999796 0.857413 0.249835
O O16 0.106058 0.831919 0.177273
O O17 0.250000 0.443484 0.187204
O O18 0.168739 0.547351 0.143492
O O19 0.250000 0.662465 0.159072
#
# Coordination Sequence:
#
# PCOD8318366 Si02
#       8
#    16  16  16  16  16  16  16  16
#     4  11  19  31  49  72  98 130 162 199 244 284
#     4  11  18  32  52  71  94 131 168 205 245 280
#     4  10  17  29  50  72  93 122 161 202 242 290
#     4  11  20  31  47  72 102 130 160 206 249 292
#     4  10  17  28  46  71 103 139 165 189 234 292
#     4  11  21  31  46  70 101 134 167 205 241 283
#     4  10  19  31  49  70  94 129 171 207 242 283
#     4  10  18  28  44  67 101 140 173 198 227 279
#
# _framework density 16.490257
#
# number of rings (size 3 to 8) (size 9 to 14) (size 15 to 20)
#    0.000    1.500    6.250    1.875    0.000    0.500 
#    0.000    1.250    0.000   15.750    0.000    1.750 
#    0.000    0.000    0.000    0.000    0.250    0.000 
#
# Total GULP energy -1586508.277595 kJ/mol
# GULP energy per Si atom -12394.595919 kJ/mol
# Density = 1.645272 g / cm^3
# Si number density = 16.490257 Si / 1000 Ang^3
#
#
#
# Elastic Constant Matrix: (Units=GPa)
#
#
# Indices 1 2 3 4 5 6 
#
# 1 81.9580 32.3611 40.7359 0.0000 0.0000 0.0000
# 2 32.3611 81.9580 40.7359 0.0000 0.0000 0.0000
# 3 40.7359 40.7359 76.6046 0.0000 0.0000 0.0000
# 4 0.0000 0.0000 0.0000 13.7511 0.0000 0.0000
# 5 0.0000 0.0000 0.0000 0.0000 13.7511 0.0000
# 6 0.0000 0.0000 0.0000 0.0000 0.0000 12.3313
#
#
#
# Elastic Compliance Matrix: (Units=1/GPa)
#
#
# Indices 1 2 3 4 5 6 
#
# 1 0.017124 -0.003039 -0.007490 0.000000 0.000000 0.000000
# 2 -0.003039 0.017124 -0.007490 0.000000 0.000000 0.000000
# 3 -0.007490 -0.007490 0.021020 0.000000 0.000000 0.000000
# 4 0.000000 0.000000 0.000000 0.072722 0.000000 0.000000
# 5 0.000000 0.000000 0.000000 0.000000 0.072722 0.000000
# 6 0.000000 0.000000 0.000000 0.000000 0.000000 0.081094
#
#
# Mechanical properties :
#
#
# Convention : Reuss Voigt Hill
#
# Bulk Modulus (GPa) = 52.00128 52.02067 52.01097
# Shear Modulus (GPa) = 15.42001 16.41253 15.91627
#
# Velocity S-wave (km/s) = 3.06125 3.15824 3.11012
# Velocity P-wave (km/s) = 6.64064 6.70180 6.67129
#
# Compressibility (1/GPa) = 0.01923030
#
# Stress axis : x y z
#
# Youngs Moduli (GPa) = 58.39746 58.39746 47.57338
#
# Poissons Ratio (x) = 0.17744 0.35633
# Poissons Ratio (y) = 0.17744 0.35633
# Poissons Ratio (z) = 0.43741 0.43741
#
# Static dielectric constant tensor:
#      x y z
#    x 3.285950 0.000000 0.000000 
#    y 0.000000 3.285950 0.000000 
#    z 0.000000 0.000000 2.983810 
# 
# 
# High freq. dielectric constant tensor:
#      x y z
#    x 1.624780 0.000000 0.000000 
#    y 0.000000 1.624780 0.000000 
#    z 0.000000 0.000000 1.602880 
# 
# From -- ./inp_files/9161.got.cif
#   From: 2010.03.12/outbox.cif.g09.slc.cpg/sg137_5_cif.got.tgz:9161.got - 2010.04.08 09:34:49.
