data_PCOD8318066
_publ_section_title
;
Structure prediction by ZEFSAII (Michael W. Deem and Ramdas Pophale) SiO2 
 PCOD8318066
Probable space group: P 42/M N M
;
_chemical_formula_sum "Si O2"
_cell_formula_units_Z 112
_cell_length_a 13.669084
_cell_length_b 13.669084
_cell_length_c 32.840018
_cell_angle_alpha 90.000000
_cell_angle_beta 90.000000
_cell_angle_gamma 90.000000
_cell_volume 6135.955640
_symmetry_space_group_name_H-M "P 42/M N M"
_symmetry_group_IT_number 136
_symmetry_cell_setting 'tetragonal'
loop_
_space_group_symop_operation_xyz
x,y,z
1/2-y,1/2+x,1/2+z
-x,-y,z
1/2+y,1/2-x,1/2+z
1/2+x,1/2-y,1/2-z
1/2-x,1/2+y,1/2-z
y,x,-z
-y,-x,-z
-x,-y,-z
1/2+y,1/2-x,1/2-z
x,y,-z
1/2-y,1/2+x,1/2-z
1/2-x,1/2+y,1/2+z
1/2+x,1/2-y,1/2+z
-y,-x,z
y,x,z
loop_
_atom_site_type_symbol
_atom_site_label
_atom_site_fract_x
_atom_site_fract_y
_atom_site_fract_z
Si Si1 0.752099 0.589910 0.161518
Si Si2 0.353281 0.802611 0.544429
Si Si3 0.266761 0.104795 0.615849
Si Si4 0.850171 0.554774 0.246116
Si Si5 0.263308 0.893363 0.828709
Si Si6 0.598259 0.244015 0.628853
Si Si7 0.889073 0.480360 0.954091
O O1 0.655430 0.655430 0.166030
O O2 0.726580 0.498105 0.132732
O O3 0.786150 0.552003 0.205484
O O4 0.840581 0.648384 0.140931
O O5 0.399365 0.775928 0.500000
O O6 0.247880 0.752121 0.550532
O O7 0.424899 0.764803 0.580328
O O8 0.331731 0.917360 0.546845
O O9 0.175621 0.175621 0.606422
O O10 0.338120 0.147199 0.650169
O O11 0.331299 0.094056 0.574909
O O12 0.879389 0.446227 0.260460
O O13 0.783958 0.602533 0.280890
O O14 0.162538 0.837463 0.836478
O O15 0.249894 0.000012 0.846527
O O16 0.658542 0.341459 0.639245
O O17 0.000000 0.500000 0.938599
O O18 0.891702 0.436496 0.000000
#
# Coordination Sequence:
#
# PCOD8318066 Si02
#       7
#    16  16  16  16  16  16  16
#     4  11  22  38  59  83 114 150 191 240 289 346
#     4   9  17  31  54  84 112 139 181 237 285 327
#     4  11  24  38  57  84 117 157 197 235 286 349
#     4  11  21  36  61  87 111 144 188 242 293 341
#     4  11  23  39  57  82 117 151 185 236 291 343
#     4  10  20  35  59  86 110 145 190 234 286 347
#     4  10  20  34  57  86 115 152 196 241 289 341
#
# _framework density 18.253066
#
# number of rings (size 3 to 8) (size 9 to 14) (size 15 to 20)
#    0.000    1.571    4.286    1.286    0.000    0.857 
#    0.000    0.714    0.000    3.000    0.000    5.000 
#    0.000    0.000    0.000    0.000    0.000    0.000 
#
# Total GULP energy -1388813.537171 kJ/mol
# GULP energy per Si atom -12400.120868 kJ/mol
# Density = 1.821152 g / cm^3
# Si number density = 18.253066 Si / 1000 Ang^3
#
#
#
# Elastic Constant Matrix: (Units=GPa)
#
#
# Indices 1 2 3 4 5 6 
#
# 1 93.2433 47.1476 38.8235 0.0000 0.0000 0.0000
# 2 47.1476 93.2433 38.8235 0.0000 0.0000 0.0000
# 3 38.8235 38.8235 110.5549 0.0000 0.0000 0.0000
# 4 0.0000 0.0000 0.0000 25.7826 0.0000 0.0000
# 5 0.0000 0.0000 0.0000 0.0000 25.7826 0.0000
# 6 0.0000 0.0000 0.0000 0.0000 0.0000 20.1163
#
#
#
# Elastic Compliance Matrix: (Units=1/GPa)
#
#
# Indices 1 2 3 4 5 6 
#
# 1 0.015267 -0.006427 -0.003104 0.000000 0.000000 0.000000
# 2 -0.006427 0.015267 -0.003104 0.000000 0.000000 0.000000
# 3 -0.003104 -0.003104 0.011226 0.000000 0.000000 0.000000
# 4 0.000000 0.000000 0.000000 0.038786 0.000000 0.000000
# 5 0.000000 0.000000 0.000000 0.000000 0.038786 0.000000
# 6 0.000000 0.000000 0.000000 0.000000 0.000000 0.049711
#
#
# Mechanical properties :
#
#
# Convention : Reuss Voigt Hill
#
# Bulk Modulus (GPa) = 60.64969 60.73674 60.69322
# Shear Modulus (GPa) = 25.02388 25.81945 25.42167
#
# Velocity S-wave (km/s) = 3.70664 3.76510 3.73598
# Velocity P-wave (km/s) = 7.18458 7.22830 7.20647
#
# Compressibility (1/GPa) = 0.01648813
#
# Stress axis : x y z
#
# Youngs Moduli (GPa) = 65.50109 65.50109 89.08253
#
# Poissons Ratio (x) = 0.42098 0.27654
# Poissons Ratio (y) = 0.42098 0.27654
# Poissons Ratio (z) = 0.20333 0.20333
#
# Static dielectric constant tensor:
#      x y z
#    x 3.279060 0.000000 0.000000 
#    y 0.000000 3.279060 0.000000 
#    z 0.000000 0.000000 3.620090 
# 
# 
# High freq. dielectric constant tensor:
#      x y z
#    x 1.695170 0.000000 0.000000 
#    y 0.000000 1.695170 0.000000 
#    z 0.000000 0.000000 1.727130 
# 
# From -- ./inp_files/9978.got.cif
#   From: 2010.03.12/outbox.cif.g09.slc.cpg/sg136_5_cif.got.tgz:9978.got - 2010.04.06 18:39:43.
