data_PCOD8318555
_publ_section_title
;
Structure prediction by ZEFSAII (Michael W. Deem and Ramdas Pophale) SiO2 
 PCOD8318555
Probable space group: P 42/N M C
;
_chemical_formula_sum "Si O2"
_cell_formula_units_Z 92
_cell_length_a 25.007398
_cell_length_b 25.007398
_cell_length_c 7.555159
_cell_angle_alpha 90.000000
_cell_angle_beta 90.000000
_cell_angle_gamma 90.000000
_cell_volume 4724.769442
_symmetry_space_group_name_H-M "P 42/N M C"
_symmetry_group_IT_number 137
_space_group.IT_coordinate_system_code '2'
_symmetry_cell_setting 'tetragonal'
loop_
_space_group_symop_operation_xyz
x,y,z
1/2-y,x,1/2+z
1/2-x,1/2-y,z
y,1/2-x,1/2+z
1/2+x,-y,-z
-x,1/2+y,-z
1/2+y,1/2+x,1/2-z
-y,-x,1/2-z
-x,-y,-z
1/2+y,-x,1/2-z
1/2+x,1/2+y,-z
-y,1/2+x,1/2-z
1/2-x,y,z
x,1/2-y,z
1/2-y,1/2-x,1/2+z
y,x,1/2+z
loop_
_atom_site_type_symbol
_atom_site_label
_atom_site_fract_x
_atom_site_fract_y
_atom_site_fract_z
Si Si1 0.898159 0.312814 0.782613
Si Si2 0.313558 0.986234 0.989947
Si Si3 0.690166 0.912894 0.517176
Si Si4 0.688834 0.468583 0.402405
Si Si5 0.662054 0.599801 0.910981
Si Si6 0.750000 0.846146 0.099539
Si Si7 0.250000 0.250000 0.152432
O O1 0.842535 0.342535 0.750000
O O2 0.885972 0.250000 0.793273
O O3 0.937915 0.325398 0.621392
O O4 0.923578 0.335327 0.966625
O O5 0.250000 0.001241 0.989670
O O6 0.335748 0.969753 0.795064
O O7 0.349296 0.037188 0.052464
O O8 0.750000 0.897089 0.438530
O O9 0.639961 0.888449 0.410230
O O10 0.690604 0.894690 0.721194
O O11 0.682231 0.975903 0.505764
O O12 0.750000 0.453750 0.376088
O O13 0.698150 0.617000 0.078950
O O14 0.750000 0.805670 0.939245
O O15 0.750000 0.808540 0.265916
#
# Coordination Sequence:
#
# PCOD8318555 Si02
#       7
#    16  16  16  16  16   8   4
#     4  10  21  39  66  96 129 157 186 229 280 349
#     4  10  19  37  59  84 114 156 202 244 286 342
#     4  11  22  36  50  78 111 151 204 263 308 357
#     4   9  19  36  59  85 116 152 200 240 282 341
#     4  12  21  34  52  74 108 152 203 259 306 351
#     4  11  22  34  44  64 104 152 197 248 312 364
#     4  10  24  34  40  62 108 154 196 246 320 390
#
# _framework density 19.471848999999999
#
# number of rings (size 3 to 8) (size 9 to 14) (size 15 to 20)
#    0.000    1.565    3.478    2.087    2.435    0.870 
#    1.565    0.000    0.000    1.043    0.000    4.870 
#    0.000    0.000    0.000    0.000    0.000    0.000 
#
# Total GULP energy -1139900.003271 kJ/mol
# GULP energy per Si atom -12390.217427 kJ/mol
# Density = 1.942753 g / cm^3
# Si number density = 19.471849 Si / 1000 Ang^3
#
#
#
# Elastic Constant Matrix: (Units=GPa)
#
#
# Indices 1 2 3 4 5 6 
#
# 1 79.3809 47.8177 29.3767 0.0000 0.0000 0.0000
# 2 47.8177 79.3809 29.3767 0.0000 0.0000 0.0000
# 3 29.3767 29.3767 85.4630 0.0000 0.0000 0.0000
# 4 0.0000 0.0000 0.0000 18.4177 0.0000 0.0000
# 5 0.0000 0.0000 0.0000 0.0000 18.4177 0.0000
# 6 0.0000 0.0000 0.0000 0.0000 0.0000 17.8124
#
#
#
# Elastic Compliance Matrix: (Units=1/GPa)
#
#
# Indices 1 2 3 4 5 6 
#
# 1 0.020514 -0.011168 -0.003212 0.000000 0.000000 0.000000
# 2 -0.011168 0.020514 -0.003212 0.000000 0.000000 0.000000
# 3 -0.003212 -0.003212 0.013909 0.000000 0.000000 0.000000
# 4 0.000000 0.000000 0.000000 0.054295 0.000000 0.000000
# 5 0.000000 0.000000 0.000000 0.000000 0.054295 0.000000
# 6 0.000000 0.000000 0.000000 0.000000 0.000000 0.056141
#
#
# Mechanical properties :
#
#
# Convention : Reuss Voigt Hill
#
# Bulk Modulus (GPa) = 50.63060 50.81853 50.72456
# Shear Modulus (GPa) = 19.12492 20.10650 19.61571
#
# Velocity S-wave (km/s) = 3.13738 3.21688 3.17738
# Velocity P-wave (km/s) = 6.25960 6.32083 6.29029
#
# Compressibility (1/GPa) = 0.01975090
#
# Stress axis : x y z
#
# Youngs Moduli (GPa) = 48.74719 48.74719 71.89380
#
# Poissons Ratio (x) = 0.54443 0.23095
# Poissons Ratio (y) = 0.54443 0.23095
# Poissons Ratio (z) = 0.15660 0.15660
#
# Static dielectric constant tensor:
#      x y z
#    x 3.268300 0.000000 0.000000 
#    y 0.000000 3.268300 0.000000 
#    z 0.000000 0.000000 3.916520 
# 
# 
# High freq. dielectric constant tensor:
#      x y z
#    x 1.724560 0.000000 0.000000 
#    y 0.000000 1.724560 0.000000 
#    z 0.000000 0.000000 1.783970 
# 
# From -- ./inp_files/2204.got.cif
#   From: 2010.03.12/outbox.cif.g09.slc.cpg/sg137_2_cif.got.tgz:2204.got - 2010.04.08 09:34:49.
