data_PCOD8318040
_publ_section_title
;
Structure prediction by ZEFSAII (Michael W. Deem and Ramdas Pophale) SiO2 
 PCOD8318040
Probable space group: P 42/M N M
;
_chemical_formula_sum "Si O2"
_cell_formula_units_Z 72
_cell_length_a 21.193817
_cell_length_b 21.193817
_cell_length_c 8.923518
_cell_angle_alpha 90.000000
_cell_angle_beta 90.000000
_cell_angle_gamma 90.000000
_cell_volume 4008.246889
_symmetry_space_group_name_H-M "P 42/M N M"
_symmetry_group_IT_number 136
_symmetry_cell_setting 'tetragonal'
loop_
_space_group_symop_operation_xyz
x,y,z
1/2-y,1/2+x,1/2+z
-x,-y,z
1/2+y,1/2-x,1/2+z
1/2+x,1/2-y,1/2-z
1/2-x,1/2+y,1/2-z
y,x,-z
-y,-x,-z
-x,-y,-z
1/2+y,1/2-x,1/2-z
x,y,-z
1/2-y,1/2+x,1/2-z
1/2-x,1/2+y,1/2+z
1/2+x,1/2-y,1/2+z
-y,-x,z
y,x,z
loop_
_atom_site_type_symbol
_atom_site_label
_atom_site_fract_x
_atom_site_fract_y
_atom_site_fract_z
Si Si1 0.448100 0.551901 0.822069
Si Si2 0.284960 0.384078 0.830612
Si Si3 0.505376 0.320796 0.675871
Si Si4 0.144847 0.405869 0.174000
Si Si5 0.468303 0.820115 0.677076
O O1 0.500000 0.500000 0.766508
O O2 0.463439 0.621501 0.762976
O O3 0.446904 0.553096 0.000000
O O4 0.315969 0.315969 0.810897
O O5 0.318525 0.431610 0.716104
O O6 0.211925 0.373590 0.793849
O O7 0.294029 0.410335 0.000000
O O8 0.514460 0.332073 0.500000
O O9 0.534901 0.253327 0.729033
O O10 0.141913 0.472370 0.257863
O O11 0.093226 0.356827 0.236400
O O12 0.133197 0.419357 0.000000
O O13 0.474042 0.821808 0.500000
#
# Coordination Sequence:
#
# PCOD8318040 Si02
#       5
#     8  16  16  16  16
#     4  11  23  37  53  75 103 137 175 211 249 304
#     4   9  17  31  51  74  97 128 169 208 247 296
#     4  10  20  34  52  75 103 134 165 209 258 300
#     4   9  18  33  52  74 100 133 169 207 252 303
#     4   9  19  35  52  75 104 133 169 210 256 303
#
# _framework density 17.962966000000002
#
# number of rings (size 3 to 8) (size 9 to 14) (size 15 to 20)
#    0.000    2.556    0.000    1.667    0.000    6.222 
#    2.000    2.222    0.000    0.000    0.000    0.000 
#    0.000    0.000    0.000    0.000    0.000    0.000 
#
# Total GULP energy -892640.801131 kJ/mol
# GULP energy per Si atom -12397.788905 kJ/mol
# Density = 1.792208 g / cm^3
# Si number density = 17.962966 Si / 1000 Ang^3
#
#
#
# Elastic Constant Matrix: (Units=GPa)
#
#
# Indices 1 2 3 4 5 6 
#
# 1 127.2671 98.2926 36.7788 0.0000 0.0000 0.0000
# 2 98.2926 127.2669 36.7787 0.0000 0.0000 0.0000
# 3 36.7788 36.7787 41.3584 0.0000 0.0000 0.0000
# 4 0.0000 0.0000 0.0000 27.3501 0.0000 0.0000
# 5 0.0000 0.0000 0.0000 0.0000 27.3500 0.0000
# 6 0.0000 0.0000 0.0000 0.0000 0.0000 34.3801
#
#
#
# Elastic Compliance Matrix: (Units=1/GPa)
#
#
# Indices 1 2 3 4 5 6 
#
# 1 0.020379 -0.014135 -0.005553 0.000000 0.000000 0.000000
# 2 -0.014135 0.020379 -0.005553 0.000000 0.000000 0.000000
# 3 -0.005553 -0.005553 0.034055 0.000000 0.000000 0.000000
# 4 0.000000 0.000000 0.000000 0.036563 0.000000 0.000000
# 5 0.000000 0.000000 0.000000 0.000000 0.036563 0.000000
# 6 0.000000 0.000000 0.000000 0.000000 0.000000 0.029087
#
#
# Mechanical properties :
#
#
# Convention : Reuss Voigt Hill
#
# Bulk Modulus (GPa) = 41.09814 71.06587 56.08200
# Shear Modulus (GPa) = 21.22098 26.08552 23.65325
#
# Velocity S-wave (km/s) = 3.44084 3.81489 3.63268
# Velocity P-wave (km/s) = 6.22213 7.68458 6.99170
#
# Compressibility (1/GPa) = 0.02433200
#
# Stress axis : x y z
#
# Youngs Moduli (GPa) = 49.07068 49.07070 29.36444
#
# Poissons Ratio (x) = 0.69359 0.16306
# Poissons Ratio (y) = 0.69359 0.16305
# Poissons Ratio (z) = 0.27248 0.27248
#
# Static dielectric constant tensor:
#      x y z
#    x 3.452730 0.000000 0.000000 
#    y 0.000000 3.452730 0.000000 
#    z 0.000000 0.000000 3.307700 
# 
# 
# High freq. dielectric constant tensor:
#      x y z
#    x 1.695110 0.000000 0.000000 
#    y 0.000000 1.695110 0.000000 
#    z 0.000000 0.000000 1.691830 
# 
# From -- ./inp_files/1549.got.cif
#   From: 2010.03.12/outbox.cif.g09.slc.cpg/sg136_1_cif.got.tgz:1549.got - 2010.04.06 18:39:43.
