data_PCOD8318929
_publ_section_title
;
Structure prediction by ZEFSAII (Michael W. Deem and Ramdas Pophale) SiO2 
 PCOD8318929
Probable space group: P 42/N C M
;
_chemical_formula_sum "Si O2"
_cell_formula_units_Z 64
_cell_length_a 13.731189
_cell_length_b 13.731189
_cell_length_c 19.632784
_cell_angle_alpha 90.000000
_cell_angle_beta 90.000000
_cell_angle_gamma 90.000000
_cell_volume 3701.674084
_symmetry_space_group_name_H-M "P 42/N C M"
_symmetry_group_IT_number 138
_space_group.IT_coordinate_system_code '2'
_symmetry_cell_setting 'tetragonal'
loop_
_space_group_symop_operation_xyz
x,y,z
1/2-y,x,1/2+z
1/2-x,1/2-y,z
y,1/2-x,1/2+z
1/2+x,-y,1/2-z
-x,1/2+y,1/2-z
1/2+y,1/2+x,-z
-y,-x,-z
-x,-y,-z
1/2+y,-x,1/2-z
1/2+x,1/2+y,-z
-y,1/2+x,1/2-z
1/2-x,y,1/2+z
x,1/2-y,1/2+z
1/2-y,1/2-x,z
y,x,z
loop_
_atom_site_type_symbol
_atom_site_label
_atom_site_fract_x
_atom_site_fract_y
_atom_site_fract_z
Si Si1 0.768346 0.099560 0.667944
Si Si2 0.248058 0.092365 0.582804
Si Si3 0.912909 0.278108 0.679601
Si Si4 0.852874 0.010824 0.537274
O O1 0.844275 0.187241 0.664615
O O2 0.654962 0.129943 0.660113
O O3 0.781546 0.050937 0.742108
O O4 0.794403 0.027738 0.606822
O O5 0.341614 0.158387 0.570237
O O6 0.156577 0.156577 0.609775
O O7 0.275215 0.010414 0.636568
O O8 0.221982 0.044516 0.511065
O O9 0.890017 0.109984 0.500000
O O10 0.946821 0.946821 0.555996
#
# Coordination Sequence:
#
# PCOD8318929 Si02
#       4
#    16  16  16  16
#     4   9  18  33  54  80 109 137 178 228 265 309
#     4  10  21  37  54  76 110 145 179 222 271 324
#     4   9  18  34  53  78 109 141 177 220 270 319
#     4  10  19  33  55  79 102 140 188 222 259 318
#
# _framework density 17.289473000000001
#
# number of rings (size 3 to 8) (size 9 to 14) (size 15 to 20)
#    0.000    2.500    2.500    1.500    0.000    2.000 
#    0.000    7.500    0.000    3.000    0.000    0.000 
#    0.000    0.000    0.000    0.000    0.000    0.000 
#
# Total GULP energy -793327.829443 kJ/mol
# GULP energy per Si atom -12395.747335 kJ/mol
# Density = 1.725012 g / cm^3
# Si number density = 17.289473 Si / 1000 Ang^3
#
#
#
# Elastic Constant Matrix: (Units=GPa)
#
#
# Indices 1 2 3 4 5 6 
#
# 1 95.6704 46.6424 69.2075 0.0000 0.0000 0.0000
# 2 46.6424 95.6694 69.2071 0.0000 0.0000 0.0000
# 3 69.2075 69.2071 139.7260 0.0000 0.0000 0.0000
# 4 0.0000 0.0000 0.0000 21.9535 0.0000 0.0000
# 5 0.0000 0.0000 0.0000 0.0000 21.9537 0.0000
# 6 0.0000 0.0000 0.0000 0.0000 0.0000 17.1717
#
#
#
# Elastic Compliance Matrix: (Units=1/GPa)
#
#
# Indices 1 2 3 4 5 6 
#
# 1 0.016978 -0.003419 -0.006716 0.000000 0.000000 0.000000
# 2 -0.003419 0.016978 -0.006716 0.000000 0.000000 0.000000
# 3 -0.006716 -0.006716 0.013809 0.000000 0.000000 0.000000
# 4 0.000000 0.000000 0.000000 0.045551 0.000000 0.000000
# 5 0.000000 0.000000 0.000000 0.000000 0.045550 0.000000
# 6 0.000000 0.000000 0.000000 0.000000 0.000000 0.058235
#
#
# Mechanical properties :
#
#
# Convention : Reuss Voigt Hill
#
# Bulk Modulus (GPa) = 71.10373 77.90886 74.50629
# Shear Modulus (GPa) = 21.23234 21.94971 21.59102
#
# Velocity S-wave (km/s) = 3.50816 3.56693 3.53766
# Velocity P-wave (km/s) = 7.59107 7.88183 7.73781
#
# Compressibility (1/GPa) = 0.01406396
#
# Stress axis : x y z
#
# Youngs Moduli (GPa) = 58.90143 58.90077 72.41419
#
# Poissons Ratio (x) = 0.20139 0.48630
# Poissons Ratio (y) = 0.20139 0.48631
# Poissons Ratio (z) = 0.39556 0.39556
#
# Static dielectric constant tensor:
#      x y z
#    x 3.190780 0.000000 0.000000 
#    y 0.000000 3.190780 0.000000 
#    z 0.000000 0.000000 3.395890 
# 
# 
# High freq. dielectric constant tensor:
#      x y z
#    x 1.656310 0.000000 0.000000 
#    y 0.000000 1.656310 0.000000 
#    z 0.000000 0.000000 1.672810 
# 
# From -- ./inp_files/3894.got.cif
#   From: 2010.03.12/outbox.cif.g09.slc.cpg/sg138_2_cif.got.tgz:3894.got - 2010.04.08 09:41:05.
