data_PCOD8318578
_publ_section_title
;
Structure prediction by ZEFSAII (Michael W. Deem and Ramdas Pophale) SiO2 
 PCOD8318578
Probable space group: P 42/N M C
;
_chemical_formula_sum "Si O2"
_cell_formula_units_Z 112
_cell_length_a 14.291895
_cell_length_b 14.291895
_cell_length_c 30.449466
_cell_angle_alpha 90.000000
_cell_angle_beta 90.000000
_cell_angle_gamma 90.000000
_cell_volume 6219.555025
_symmetry_space_group_name_H-M "P 42/N M C"
_symmetry_group_IT_number 137
_space_group.IT_coordinate_system_code '2'
_symmetry_cell_setting 'tetragonal'
loop_
_space_group_symop_operation_xyz
x,y,z
1/2-y,x,1/2+z
1/2-x,1/2-y,z
y,1/2-x,1/2+z
1/2+x,-y,-z
-x,1/2+y,-z
1/2+y,1/2+x,1/2-z
-y,-x,1/2-z
-x,-y,-z
1/2+y,-x,1/2-z
1/2+x,1/2+y,-z
-y,1/2+x,1/2-z
1/2-x,y,z
x,1/2-y,z
1/2-y,1/2-x,1/2+z
y,x,1/2+z
loop_
_atom_site_type_symbol
_atom_site_label
_atom_site_fract_x
_atom_site_fract_y
_atom_site_fract_z
Si Si1 0.644438 0.355129 0.087096
Si Si2 0.959355 0.642527 0.867916
Si Si3 0.961736 0.858281 0.541153
Si Si4 0.143921 0.999758 0.300054
Si Si5 0.359222 0.358474 0.043466
Si Si6 0.143334 0.359797 0.873302
Si Si7 0.986602 0.641999 0.300208
O O1 0.750000 0.368940 0.105744
O O2 0.629957 0.250000 0.068375
O O3 0.571511 0.373187 0.126938
O O4 0.626717 0.426475 0.046579
O O5 0.934276 0.750000 0.859545
O O6 0.912107 0.607887 0.913010
O O7 0.918125 0.588445 0.826725
O O8 0.933555 0.750000 0.539170
O O9 0.922075 0.902033 0.496014
O O10 0.910717 0.900300 0.584078
O O11 0.250000 0.972187 0.310523
O O12 0.087707 0.904009 0.308013
O O13 0.108157 0.081859 0.331865
O O14 0.133728 0.040044 0.250921
O O15 0.250000 0.376725 0.051209
O O16 0.379398 0.250000 0.032594
O O17 0.250000 0.391854 0.864267
O O18 0.137828 0.250000 0.881628
O O19 0.988589 0.750000 0.315810
#
# Coordination Sequence:
#
# PCOD8318578 Si02
#       7
#    16  16  16  16  16  16  16
#     4   9  18  32  48  67  93 127 168 208 243 289
#     4  10  20  33  51  75 101 131 166 204 250 299
#     4   9  16  27  46  69  94 128 164 199 243 289
#     4   9  19  34  51  73  99 127 161 200 242 291
#     4   9  17  29  45  69 100 128 158 200 249 301
#     4   9  16  27  46  73 101 125 153 195 245 292
#     4  10  20  34  52  72  96 127 163 202 243 292
#
# _framework density 18.007719000000002
#
# number of rings (size 3 to 8) (size 9 to 14) (size 15 to 20)
#    0.000    2.714    0.000    1.714    0.000    4.000 
#    0.000    2.857    0.000    1.714    0.000    2.000 
#    0.000    4.571    0.000    0.000    0.000    0.000 
#
# Total GULP energy -1388425.962334 kJ/mol
# GULP energy per Si atom -12396.660378 kJ/mol
# Density = 1.796673 g / cm^3
# Si number density = 18.007719 Si / 1000 Ang^3
#
#
#
# Elastic Constant Matrix: (Units=GPa)
#
#
# Indices 1 2 3 4 5 6 
#
# 1 80.4444 34.6640 43.6862 0.0000 0.0000 0.0000
# 2 34.6640 80.4444 43.6862 0.0000 0.0000 0.0000
# 3 43.6862 43.6862 92.4391 0.0000 0.0000 0.0000
# 4 0.0000 0.0000 0.0000 22.9113 0.0000 0.0000
# 5 0.0000 0.0000 0.0000 0.0000 22.9113 0.0000
# 6 0.0000 0.0000 0.0000 0.0000 0.0000 22.6765
#
#
#
# Elastic Compliance Matrix: (Units=1/GPa)
#
#
# Indices 1 2 3 4 5 6 
#
# 1 0.017695 -0.004148 -0.006402 0.000000 0.000000 0.000000
# 2 -0.004148 0.017695 -0.006402 0.000000 0.000000 0.000000
# 3 -0.006402 -0.006402 0.016869 0.000000 0.000000 0.000000
# 4 0.000000 0.000000 0.000000 0.043647 0.000000 0.000000
# 5 0.000000 0.000000 0.000000 0.000000 0.043647 0.000000
# 6 0.000000 0.000000 0.000000 0.000000 0.000000 0.044099
#
#
# Mechanical properties :
#
#
# Convention : Reuss Voigt Hill
#
# Bulk Modulus (GPa) = 54.48301 55.26674 54.87488
# Shear Modulus (GPa) = 22.35385 22.45257 22.40321
#
# Velocity S-wave (km/s) = 3.52710 3.53488 3.53099
# Velocity P-wave (km/s) = 6.84896 6.88605 6.86753
#
# Compressibility (1/GPa) = 0.01835435
#
# Stress axis : x y z
#
# Youngs Moduli (GPa) = 56.51241 56.51241 59.27936
#
# Poissons Ratio (x) = 0.23442 0.37952
# Poissons Ratio (y) = 0.23442 0.37952
# Poissons Ratio (z) = 0.36181 0.36181
#
# Static dielectric constant tensor:
#      x y z
#    x 3.385270 0.000000 0.000000 
#    y 0.000000 3.385270 0.000000 
#    z 0.000000 0.000000 3.284740 
# 
# 
# High freq. dielectric constant tensor:
#      x y z
#    x 1.696800 0.000000 0.000000 
#    y 0.000000 1.696800 0.000000 
#    z 0.000000 0.000000 1.680360 
# 
# From -- ./inp_files/9828.got.cif
#   From: 2010.03.12/outbox.cif.g09.slc.cpg/sg137_5_cif.got.tgz:9828.got - 2010.04.08 09:34:49.
