data_PCOD8318895
_publ_section_title
;
Structure prediction by ZEFSAII (Michael W. Deem and Ramdas Pophale) SiO2 
 PCOD8318895
Probable space group: P 42/N C M
;
_chemical_formula_sum "Si O2"
_cell_formula_units_Z 100
_cell_length_a 30.073684
_cell_length_b 30.073684
_cell_length_c 7.882899
_cell_angle_alpha 90.000000
_cell_angle_beta 90.000000
_cell_angle_gamma 90.000000
_cell_volume 7129.502511
_symmetry_space_group_name_H-M "P 42/N C M"
_symmetry_group_IT_number 138
_space_group.IT_coordinate_system_code '2'
_symmetry_cell_setting 'tetragonal'
loop_
_space_group_symop_operation_xyz
x,y,z
1/2-y,x,1/2+z
1/2-x,1/2-y,z
y,1/2-x,1/2+z
1/2+x,-y,1/2-z
-x,1/2+y,1/2-z
1/2+y,1/2+x,-z
-y,-x,-z
-x,-y,-z
1/2+y,-x,1/2-z
1/2+x,1/2+y,-z
-y,1/2+x,1/2-z
1/2-x,y,1/2+z
x,1/2-y,1/2+z
1/2-y,1/2-x,z
y,x,z
loop_
_atom_site_type_symbol
_atom_site_label
_atom_site_fract_x
_atom_site_fract_y
_atom_site_fract_z
Si Si1 0.679580 0.820421 0.183769
Si Si2 0.320424 0.179577 0.183957
Si Si3 0.250000 0.250000 0.750101
Si Si4 0.798123 0.915787 0.699904
Si Si5 0.458731 0.385788 0.809015
Si Si6 0.915791 0.798127 0.299971
Si Si7 0.614218 0.958726 0.308908
Si Si8 0.927640 0.002226 0.499960
O O1 0.717140 0.782861 0.150506
O O2 0.635028 0.801892 0.274059
O O3 0.663568 0.836433 0.999911
O O4 0.282863 0.217138 0.150720
O O5 0.364980 0.198101 0.274223
O O6 0.749999 0.934554 0.749937
O O7 0.805273 0.918465 0.499939
O O8 0.834234 0.946469 0.791103
O O9 0.414354 0.414354 0.773592
O O10 0.446480 0.334238 0.791192
O O11 0.496279 0.398503 0.671065
O O12 0.476872 0.394524 0.000058
O O13 0.585649 0.914352 0.273484
O O14 0.601511 0.996273 0.170943
O O15 0.948184 0.051817 0.500000
O O16 0.966945 0.966945 0.499973
#
# Coordination Sequence:
#
# PCOD8318895 Si02
#       8
#     8   8   4  16  16  16  16  16
#     4  10  21  29  41  52  71 103 136 184 238 271
#     4  10  21  29  41  52  71 103 136 184 238 271
#     4  12  18  36  36  50  76  92 146 204 234 274
#     4  11  20  32  44  60  80 107 145 182 222 271
#     4  10  19  31  48  66  86 111 138 171 216 269
#     4  11  20  32  44  60  80 107 145 182 222 271
#     4  10  19  31  48  66  86 111 138 171 216 269
#     4   9  18  32  50  70  90 108 130 166 215 272
#
# _framework density 14.026225
#
# number of rings (size 3 to 8) (size 9 to 14) (size 15 to 20)
#    0.000    1.760    4.800    1.200    0.000    0.640 
#    0.000    3.200    0.000    0.000    0.000    0.000 
#    0.000    0.000    0.000    0.000    0.000    0.000 
#
# Total GULP energy -1239260.092388 kJ/mol
# GULP energy per Si atom -12392.600924 kJ/mol
# Density = 1.399430 g / cm^3
# Si number density = 14.026225 Si / 1000 Ang^3
#
#
#
# Elastic Constant Matrix: (Units=GPa)
#
#
# Indices 1 2 3 4 5 6 
#
# 1 57.0849 42.7156 29.0394 0.0000 0.0000 0.0000
# 2 42.7156 57.0837 29.0390 0.0000 0.0000 0.0000
# 3 29.0394 29.0390 92.8608 0.0000 0.0000 0.0000
# 4 0.0000 0.0000 0.0000 13.0914 0.0000 0.0000
# 5 0.0000 0.0000 0.0000 0.0000 13.0907 0.0000
# 6 0.0000 0.0000 0.0000 0.0000 0.0000 27.3677
#
#
#
# Elastic Compliance Matrix: (Units=1/GPa)
#
#
# Indices 1 2 3 4 5 6 
#
# 1 0.040922 -0.028673 -0.003831 0.000000 0.000000 0.000000
# 2 -0.028673 0.040923 -0.003831 0.000000 0.000000 0.000000
# 3 -0.003831 -0.003831 0.013165 0.000000 0.000000 0.000000
# 4 0.000000 0.000000 0.000000 0.076386 0.000000 0.000000
# 5 0.000000 0.000000 0.000000 0.000000 0.076390 0.000000
# 6 0.000000 0.000000 0.000000 0.000000 0.000000 0.036539
#
#
# Mechanical properties :
#
#
# Convention : Reuss Voigt Hill
#
# Bulk Modulus (GPa) = 44.76108 45.40192 45.08150
# Shear Modulus (GPa) = 13.71962 17.79231 15.75596
#
# Velocity S-wave (km/s) = 3.13092 3.56547 3.35524
# Velocity P-wave (km/s) = 6.71207 7.02778 6.87174
#
# Compressibility (1/GPa) = 0.02234084
#
# Stress axis : x y z
#
# Youngs Moduli (GPa) = 24.43660 24.43611 75.96145
#
# Poissons Ratio (x) = 0.70067 0.29097
# Poissons Ratio (y) = 0.70068 0.29097
# Poissons Ratio (z) = 0.09361 0.09360
#
# Static dielectric constant tensor:
#      x y z
#    x 2.546020 0.000000 0.000000 
#    y 0.000000 2.546020 0.000000 
#    z 0.000000 0.000000 2.817080 
# 
# 
# High freq. dielectric constant tensor:
#      x y z
#    x 1.493670 0.000000 0.000000 
#    y 0.000000 1.493670 0.000000 
#    z 0.000000 0.000000 1.549200 
# 
# From -- ./inp_files/1957.got.cif
#   From: 2010.03.12/outbox.cif.g09.slc.cpg/sg138_1_cif.got.tgz:1957.got - 2010.04.08 09:41:05.
