data_PCOD8318046
_publ_section_title
;
Structure prediction by ZEFSAII (Michael W. Deem and Ramdas Pophale) SiO2 
 PCOD8318046
Probable space group: P 42/M N M
;
_chemical_formula_sum "Si O2"
_cell_formula_units_Z 120
_cell_length_a 14.222438
_cell_length_b 14.222438
_cell_length_c 30.575145
_cell_angle_alpha 90.000000
_cell_angle_beta 90.000000
_cell_angle_gamma 90.000000
_cell_volume 6184.671312
_symmetry_space_group_name_H-M "P 42/M N M"
_symmetry_group_IT_number 136
_symmetry_cell_setting 'tetragonal'
loop_
_space_group_symop_operation_xyz
x,y,z
1/2-y,1/2+x,1/2+z
-x,-y,z
1/2+y,1/2-x,1/2+z
1/2+x,1/2-y,1/2-z
1/2-x,1/2+y,1/2-z
y,x,-z
-y,-x,-z
-x,-y,-z
1/2+y,1/2-x,1/2-z
x,y,-z
1/2-y,1/2+x,1/2-z
1/2-x,1/2+y,1/2+z
1/2+x,1/2-y,1/2+z
-y,-x,z
y,x,z
loop_
_atom_site_type_symbol
_atom_site_label
_atom_site_fract_x
_atom_site_fract_y
_atom_site_fract_z
Si Si1 0.292915 0.860264 0.617387
Si Si2 0.746627 0.893179 0.184302
Si Si3 0.812867 0.335715 0.155021
Si Si4 0.955009 0.803743 0.405981
Si Si5 0.257720 0.099663 0.950726
Si Si6 0.860811 0.453623 0.238721
Si Si7 0.538682 0.695504 0.619363
Si Si8 0.150749 0.996641 0.500000
O O1 0.233300 0.766701 0.620025
O O2 0.364650 0.850684 0.658558
O O3 0.355312 0.850206 0.573011
O O4 0.221349 0.948874 0.619879
O O5 0.799934 0.799934 0.199405
O O6 0.727665 0.949861 0.228861
O O7 0.816819 0.953074 0.153228
O O8 0.736295 0.263706 0.175318
O O9 0.772534 0.380808 0.110406
O O10 0.837416 0.414978 0.190580
O O11 0.904741 0.282540 0.139646
O O12 0.909587 0.909587 0.397865
O O13 0.979926 0.788451 0.457005
O O14 0.171039 0.171039 0.950192
O O15 0.223584 0.002828 0.927847
O O16 0.288364 0.075169 0.000000
O O17 0.891863 0.561010 0.236137
O O18 0.601410 0.601410 0.615335
O O19 0.059710 0.059710 0.500000
O O20 0.112309 0.887692 0.500000
#
# Coordination Sequence:
#
# PCOD8318046 Si02
#       8
#    16  16  16  16  16  16  16   8
#     4   9  18  32  53  79 110 145 179 225 281 333
#     4  10  20  36  56  82 112 142 182 230 282 339
#     4  10  21  38  56  78 112 148 182 230 287 339
#     4  10  20  34  53  79 112 148 188 234 281 330
#     4   9  19  35  55  82 113 145 186 235 287 338
#     4  11  21  35  58  83 107 141 188 231 273 334
#     4  10  20  37  58  81 110 147 187 229 281 340
#     4   9  18  32  52  78 105 140 190 236 271 324
#
# _framework density 19.402809000000001
#
# number of rings (size 3 to 8) (size 9 to 14) (size 15 to 20)
#    0.000    2.200    1.333    2.800    0.933    2.133 
#    1.200    0.667    0.000    1.600    0.000    3.733 
#    0.000    0.000    0.000    0.000    0.000    0.000 
#
# Total GULP energy -1486605.105869 kJ/mol
# GULP energy per Si atom -12388.375882 kJ/mol
# Density = 1.935865 g / cm^3
# Si number density = 19.402809 Si / 1000 Ang^3
#
#
#
# Elastic Constant Matrix: (Units=GPa)
#
#
# Indices 1 2 3 4 5 6 
#
# 1 65.2891 18.6546 25.9521 0.0000 0.0000 0.0000
# 2 18.6546 65.2892 25.9521 0.0000 0.0000 0.0000
# 3 25.9521 25.9521 91.3129 0.0000 0.0000 0.0000
# 4 0.0000 0.0000 0.0000 26.0741 0.0000 0.0000
# 5 0.0000 0.0000 0.0000 0.0000 26.0739 0.0000
# 6 0.0000 0.0000 0.0000 0.0000 0.0000 34.5015
#
#
#
# Elastic Compliance Matrix: (Units=1/GPa)
#
#
# Indices 1 2 3 4 5 6 
#
# 1 0.017948 -0.003495 -0.004108 0.000000 0.000000 0.000000
# 2 -0.003495 0.017948 -0.004108 0.000000 0.000000 0.000000
# 3 -0.004108 -0.004108 0.013286 0.000000 0.000000 0.000000
# 4 0.000000 0.000000 0.000000 0.038352 0.000000 0.000000
# 5 0.000000 0.000000 0.000000 0.000000 0.038352 0.000000
# 6 0.000000 0.000000 0.000000 0.000000 0.000000 0.028984
#
#
# Mechanical properties :
#
#
# Convention : Reuss Voigt Hill
#
# Bulk Modulus (GPa) = 38.81840 40.33433 39.57637
# Shear Modulus (GPa) = 26.75526 27.41872 27.08699
#
# Velocity S-wave (km/s) = 3.71743 3.76324 3.74041
# Velocity P-wave (km/s) = 6.20288 6.30204 6.25266
#
# Compressibility (1/GPa) = 0.02576098
#
# Stress axis : x y z
#
# Youngs Moduli (GPa) = 55.71664 55.71674 75.26614
#
# Poissons Ratio (x) = 0.19475 0.30916
# Poissons Ratio (y) = 0.19475 0.30916
# Poissons Ratio (z) = 0.22886 0.22886
#
# Static dielectric constant tensor:
#      x y z
#    x 3.466730 0.000000 0.000000 
#    y 0.000000 3.466730 0.000000 
#    z 0.000000 0.000000 3.591940 
# 
# 
# High freq. dielectric constant tensor:
#      x y z
#    x 1.744910 0.000000 0.000000 
#    y 0.000000 1.744910 0.000000 
#    z 0.000000 0.000000 1.754060 
# 
# From -- ./inp_files/10026.got.cif
#   From: 2010.03.12/outbox.cif.g09.slc.cpg/sg136_6_cif.got.tgz:10026.got - 2010.04.06 18:39:43.
