data_PCOD8318535
_publ_section_title
;
Structure prediction by ZEFSAII (Michael W. Deem and Ramdas Pophale) SiO2 
 PCOD8318535
Probable space group: P 42/N M C
;
_chemical_formula_sum "Si O2"
_cell_formula_units_Z 80
_cell_length_a 14.141169
_cell_length_b 14.141169
_cell_length_c 18.852452
_cell_angle_alpha 90.000000
_cell_angle_beta 90.000000
_cell_angle_gamma 90.000000
_cell_volume 3769.974987
_symmetry_space_group_name_H-M "P 42/N M C"
_symmetry_group_IT_number 137
_space_group.IT_coordinate_system_code '2'
_symmetry_cell_setting 'tetragonal'
loop_
_space_group_symop_operation_xyz
x,y,z
1/2-y,x,1/2+z
1/2-x,1/2-y,z
y,1/2-x,1/2+z
1/2+x,-y,-z
-x,1/2+y,-z
1/2+y,1/2+x,1/2-z
-y,-x,1/2-z
-x,-y,-z
1/2+y,-x,1/2-z
1/2+x,1/2+y,-z
-y,1/2+x,1/2-z
1/2-x,y,z
x,1/2-y,z
1/2-y,1/2-x,1/2+z
y,x,1/2+z
loop_
_atom_site_type_symbol
_atom_site_label
_atom_site_fract_x
_atom_site_fract_y
_atom_site_fract_z
Si Si1 0.536509 0.860221 0.370706
Si Si2 0.616020 0.144693 0.432411
Si Si3 0.019067 0.645009 0.801182
Si Si4 0.850734 0.052468 0.581733
Si Si5 0.594404 0.645950 0.532002
O O1 0.527382 0.750000 0.349629
O O2 0.434652 0.912413 0.367413
O O3 0.579774 0.872824 0.448659
O O4 0.603487 0.913944 0.314682
O O5 0.656698 0.250000 0.420036
O O6 0.657352 0.074070 0.374757
O O7 0.646387 0.110336 0.509295
O O8 0.503707 0.145852 0.426478
O O9 0.077136 0.577136 0.750000
O O10 0.008453 0.750000 0.767336
O O11 0.750000 0.074228 0.619208
O O12 0.848245 0.939921 0.565770
O O13 0.643060 0.750000 0.542140
#
# Coordination Sequence:
#
# PCOD8318535 Si02
#       5
#    16  16  16  16  16
#     4  10  21  40  62  86 118 155 201 248 295 356
#     4  10  19  34  56  83 121 159 193 240 299 357
#     4  12  25  41  61  86 117 155 202 252 299 350
#     4  11  19  32  58  93 128 158 193 240 299 362
#     4   9  17  32  57  87 122 162 197 237 294 356
#
# _framework density 21.220300000000002
#
# number of rings (size 3 to 8) (size 9 to 14) (size 15 to 20)
#    0.000    1.600    4.000    4.200    0.000    4.600 
#    0.000    3.000    0.000    0.000    0.000    0.000 
#    0.000    0.000    0.000    0.000    0.000    0.000 
#
# Total GULP energy -991550.503406 kJ/mol
# GULP energy per Si atom -12394.381293 kJ/mol
# Density = 2.117200 g / cm^3
# Si number density = 21.220300 Si / 1000 Ang^3
#
#
#
# Elastic Constant Matrix: (Units=GPa)
#
#
# Indices 1 2 3 4 5 6 
#
# 1 153.6128 51.9311 21.3513 0.0000 0.0000 0.0000
# 2 51.9311 153.6128 21.3513 0.0000 0.0000 0.0000
# 3 21.3513 21.3513 30.1726 0.0000 0.0000 0.0000
# 4 0.0000 0.0000 0.0000 11.6218 0.0000 0.0000
# 5 0.0000 0.0000 0.0000 0.0000 11.6218 0.0000
# 6 0.0000 0.0000 0.0000 0.0000 0.0000 -7.7695
#
#
#
# Elastic Compliance Matrix: (Units=1/GPa)
#
#
# Indices 1 2 3 4 5 6 
#
# 1 0.007769 -0.002065 -0.004036 0.000000 0.000000 0.000000
# 2 -0.002065 0.007769 -0.004036 0.000000 0.000000 0.000000
# 3 -0.004036 -0.004036 0.038855 0.000000 0.000000 0.000000
# 4 0.000000 0.000000 0.000000 0.086045 0.000000 0.000000
# 5 0.000000 0.000000 0.000000 0.000000 0.086045 0.000000
# 6 0.000000 0.000000 0.000000 0.000000 0.000000 -0.128709
#
#
# Mechanical properties :
#
#
# Convention : Reuss Voigt Hill
#
# Bulk Modulus (GPa) = 29.31033 58.51840 43.91436
# Shear Modulus (GPa) = 38.63316 19.27913 28.95615
#
# Velocity S-wave (km/s) = 4.27145 3.01744 3.69799
# Velocity P-wave (km/s) = 6.17814 6.30685 6.24283
#
# Compressibility (1/GPa) = 0.03411767
#
# Stress axis : x y z
#
# Youngs Moduli (GPa) = 128.71445 128.71445 25.73682
#
# Poissons Ratio (x) = 0.26586 0.10388
# Poissons Ratio (y) = 0.26586 0.10388
# Poissons Ratio (z) = 0.51951 0.51951
#
# Static dielectric constant tensor:
#      x y z
#    x 4.229130 0.000000 0.000000 
#    y 0.000000 4.229130 0.000000 
#    z 0.000000 0.000000 3.324110 
# 
# 
# High freq. dielectric constant tensor:
#      x y z
#    x 1.843200 0.000000 0.000000 
#    y 0.000000 1.843200 0.000000 
#    z 0.000000 0.000000 1.774390 
# 
# From -- ./inp_files/7612.got.cif
#   From: 2010.03.12/outbox.cif.g09.slc.cpg/sg137_4_cif.got.tgz:7612.got - 2010.04.08 09:34:49.
