data_PCOD8318016
_publ_section_title
;
Structure prediction by ZEFSAII (Michael W. Deem and Ramdas Pophale) SiO2 
 PCOD8318016
Probable space group: P 42/M N M
;
_chemical_formula_sum "Si O2"
_cell_formula_units_Z 112
_cell_length_a 17.180759
_cell_length_b 17.180759
_cell_length_c 22.037657
_cell_angle_alpha 90.000000
_cell_angle_beta 90.000000
_cell_angle_gamma 90.000000
_cell_volume 6505.042092
_symmetry_space_group_name_H-M "P 42/M N M"
_symmetry_group_IT_number 136
_symmetry_cell_setting 'tetragonal'
loop_
_space_group_symop_operation_xyz
x,y,z
1/2-y,1/2+x,1/2+z
-x,-y,z
1/2+y,1/2-x,1/2+z
1/2+x,1/2-y,1/2-z
1/2-x,1/2+y,1/2-z
y,x,-z
-y,-x,-z
-x,-y,-z
1/2+y,1/2-x,1/2-z
x,y,-z
1/2-y,1/2+x,1/2-z
1/2-x,1/2+y,1/2+z
1/2+x,1/2-y,1/2+z
-y,-x,z
y,x,z
loop_
_atom_site_type_symbol
_atom_site_label
_atom_site_fract_x
_atom_site_fract_y
_atom_site_fract_z
Si Si1 0.592463 0.087445 0.071337
Si Si2 0.277522 0.597271 0.256251
Si Si3 0.563098 0.687260 0.688334
Si Si4 0.814023 0.312704 0.160006
Si Si5 0.772989 0.346892 0.385053
Si Si6 0.658001 0.468072 0.568602
Si Si7 0.580859 0.913516 0.071365
O O1 0.650140 0.149584 0.100145
O O2 0.505362 0.101516 0.096581
O O3 0.614351 0.998761 0.089735
O O4 0.598068 0.099426 0.000000
O O5 0.359071 0.640930 0.245358
O O6 0.297198 0.506058 0.263643
O O7 0.217029 0.617190 0.202605
O O8 0.236691 0.627906 0.316278
O O9 0.610942 0.610942 0.709159
O O10 0.619010 0.762223 0.692520
O O11 0.534169 0.672063 0.619057
O O12 0.742941 0.257060 0.140614
O O13 0.740209 0.259792 0.394655
O O14 0.727771 0.406041 0.429195
O O15 0.863779 0.347105 0.401397
O O16 0.656522 0.503726 0.500000
O O17 0.576643 0.423358 0.582608
O O18 0.576541 0.907543 0.000000
#
# Coordination Sequence:
#
# PCOD8318016 Si02
#       7
#    16  16  16  16  16  16  16
#     4   9  18  32  49  68  92 124 157 192 236 280
#     4   9  19  34  48  66  96 128 156 194 239 277
#     4  10  20  33  51  73  95 125 164 200 236 283
#     4  10  21  35  50  70  95 122 157 200 241 285
#     4   9  16  27  45  67  94 129 160 187 229 279
#     4   9  17  28  44  71 107 141 167 192 228 278
#     4   9  17  29  46  70  98 124 155 194 230 273
#
# _framework density 17.217414000000002
#
# number of rings (size 3 to 8) (size 9 to 14) (size 15 to 20)
#    0.000    2.714    0.000    4.286    0.000    5.429 
#    0.000    2.143    0.000    1.714    0.000    0.000 
#    0.000    0.000    0.000    6.286    0.000    0.143 
#
# Total GULP energy -1388175.598566 kJ/mol
# GULP energy per Si atom -12394.424987 kJ/mol
# Density = 1.717823 g / cm^3
# Si number density = 17.217414 Si / 1000 Ang^3
#
#
#
# Elastic Constant Matrix: (Units=GPa)
#
#
# Indices 1 2 3 4 5 6 
#
# 1 94.9157 47.6619 35.3785 0.0000 0.0000 0.0000
# 2 47.6619 94.9157 35.3785 0.0000 0.0000 0.0000
# 3 35.3785 35.3785 47.2919 0.0000 0.0000 0.0000
# 4 0.0000 0.0000 0.0000 25.2112 0.0000 0.0000
# 5 0.0000 0.0000 0.0000 0.0000 25.2112 0.0000
# 6 0.0000 0.0000 0.0000 0.0000 0.0000 25.7445
#
#
#
# Elastic Compliance Matrix: (Units=1/GPa)
#
#
# Indices 1 2 3 4 5 6 
#
# 1 0.016159 -0.005004 -0.008345 0.000000 0.000000 0.000000
# 2 -0.005004 0.016159 -0.008345 0.000000 0.000000 0.000000
# 3 -0.008345 -0.008345 0.033631 0.000000 0.000000 0.000000
# 4 0.000000 0.000000 0.000000 0.039665 0.000000 0.000000
# 5 0.000000 0.000000 0.000000 0.000000 0.039665 0.000000
# 6 0.000000 0.000000 0.000000 0.000000 0.000000 0.038843
#
#
# Mechanical properties :
#
#
# Convention : Reuss Voigt Hill
#
# Bulk Modulus (GPa) = 44.32412 52.66234 48.49323
# Shear Modulus (GPa) = 21.27396 23.14698 22.21047
#
# Velocity S-wave (km/s) = 3.51893 3.67058 3.59555
# Velocity P-wave (km/s) = 6.50463 6.97261 6.74268
#
# Compressibility (1/GPa) = 0.02256108
#
# Stress axis : x y z
#
# Youngs Moduli (GPa) = 61.88613 61.88613 29.73459
#
# Poissons Ratio (x) = 0.30965 0.24813
# Poissons Ratio (y) = 0.30965 0.24813
# Poissons Ratio (z) = 0.51644 0.51644
#
# Static dielectric constant tensor:
#      x y z
#    x 3.316200 0.000000 0.000000 
#    y 0.000000 3.316200 0.000000 
#    z 0.000000 0.000000 2.978820 
# 
# 
# High freq. dielectric constant tensor:
#      x y z
#    x 1.658790 0.000000 0.000000 
#    y 0.000000 1.658790 0.000000 
#    z 0.000000 0.000000 1.640430 
# 
# From -- ./inp_files/7746.got.cif
#   From: 2010.03.12/outbox.cif.g09.slc.cpg/sg136_4_cif.got.tgz:7746.got - 2010.04.06 18:39:43.
