data_PCOD8318904
_publ_section_title
;
Structure prediction by ZEFSAII (Michael W. Deem and Ramdas Pophale) SiO2 
 PCOD8318904
Probable space group: P 42/N C M
;
_chemical_formula_sum "Si O2"
_cell_formula_units_Z 72
_cell_length_a 21.126375
_cell_length_b 21.126375
_cell_length_c 9.836945
_cell_angle_alpha 90.000000
_cell_angle_beta 90.000000
_cell_angle_gamma 90.000000
_cell_volume 4390.461892
_symmetry_space_group_name_H-M "P 42/N C M"
_symmetry_group_IT_number 138
_space_group.IT_coordinate_system_code '2'
_symmetry_cell_setting 'tetragonal'
loop_
_space_group_symop_operation_xyz
x,y,z
1/2-y,x,1/2+z
1/2-x,1/2-y,z
y,1/2-x,1/2+z
1/2+x,-y,1/2-z
-x,1/2+y,1/2-z
1/2+y,1/2+x,-z
-y,-x,-z
-x,-y,-z
1/2+y,-x,1/2-z
1/2+x,1/2+y,-z
-y,1/2+x,1/2-z
1/2-x,y,1/2+z
x,1/2-y,1/2+z
1/2-y,1/2-x,z
y,x,z
loop_
_atom_site_type_symbol
_atom_site_label
_atom_site_fract_x
_atom_site_fract_y
_atom_site_fract_z
Si Si1 0.200968 0.942645 0.677769
Si Si2 0.209046 0.892383 0.970652
Si Si3 0.749739 0.852012 0.613379
Si Si4 0.687836 0.584850 0.363701
Si Si5 0.835447 0.335447 0.000000
O O1 0.270025 0.933171 0.604195
O O2 0.154263 0.888317 0.617755
O O3 0.172877 0.010643 0.638669
O O4 0.203218 0.937890 0.840484
O O5 0.265108 0.842033 0.935892
O O6 0.143402 0.856599 0.000000
O O7 0.690819 0.809182 0.563515
O O8 0.806774 0.806774 0.661506
O O9 0.771248 0.898100 0.494607
O O10 0.730621 0.896616 0.736468
O O11 0.621163 0.621163 0.362902
#
# Coordination Sequence:
#
# PCOD8318904 Si02
#       5
#    16  16  16  16   8
#     4  10  20  33  48  75 101 132 167 203 252 305
#     4  10  19  33  53  75 102 127 162 215 264 311
#     4   9  17  30  50  76 102 128 163 208 256 300
#     4  10  19  32  51  74 104 137 168 204 250 302
#     4   8  21  30  51  72  98 126 161 202 259 308
#
# _framework density 16.399187000000001
#
# number of rings (size 3 to 8) (size 9 to 14) (size 15 to 20)
#    1.333    1.111    0.000    3.667    0.000    2.667 
#    4.000    0.556    0.000    0.667    0.000    0.000 
#    0.000    0.000    0.000    0.000    0.000    0.000 
#
# Total GULP energy -892240.166652 kJ/mol
# GULP energy per Si atom -12392.224537 kJ/mol
# Density = 1.636186 g / cm^3
# Si number density = 16.399187 Si / 1000 Ang^3
#
#
#
# Elastic Constant Matrix: (Units=GPa)
#
#
# Indices 1 2 3 4 5 6 
#
# 1 70.3237 4.4961 23.2310 0.0000 0.0000 0.0000
# 2 4.4961 70.3207 23.2305 0.0000 0.0000 0.0000
# 3 23.2310 23.2305 88.5527 0.0000 0.0000 0.0000
# 4 0.0000 0.0000 0.0000 20.0022 0.0000 0.0000
# 5 0.0000 0.0000 0.0000 0.0000 20.0023 0.0000
# 6 0.0000 0.0000 0.0000 0.0000 0.0000 13.1439
#
#
#
# Elastic Compliance Matrix: (Units=1/GPa)
#
#
# Indices 1 2 3 4 5 6 
#
# 1 0.015579 0.000388 -0.004189 0.000000 0.000000 0.000000
# 2 0.000388 0.015580 -0.004189 0.000000 0.000000 0.000000
# 3 -0.004189 -0.004189 0.013490 0.000000 0.000000 0.000000
# 4 0.000000 0.000000 0.000000 0.049995 0.000000 0.000000
# 5 0.000000 0.000000 0.000000 0.000000 0.049994 0.000000
# 6 0.000000 0.000000 0.000000 0.000000 0.000000 0.076081
#
#
# Mechanical properties :
#
#
# Convention : Reuss Voigt Hill
#
# Bulk Modulus (GPa) = 34.88052 36.79025 35.83539
# Shear Modulus (GPa) = 20.30419 22.51231 21.40825
#
# Velocity S-wave (km/s) = 3.52251 3.70911 3.61702
# Velocity P-wave (km/s) = 6.15305 6.38954 6.27241
#
# Compressibility (1/GPa) = 0.02866929
#
# Stress axis : x y z
#
# Youngs Moduli (GPa) = 64.18946 64.18681 74.12659
#
# Poissons Ratio (x) = -0.02488 0.31049
# Poissons Ratio (y) = -0.02488 0.31050
# Poissons Ratio (z) = 0.26887 0.26886
#
# Static dielectric constant tensor:
#      x y z
#    x 2.853340 0.000000 0.000000 
#    y 0.000000 2.853340 0.000000 
#    z 0.000000 0.000000 3.089120 
# 
# 
# High freq. dielectric constant tensor:
#      x y z
#    x 1.610610 0.000000 0.000000 
#    y 0.000000 1.610610 0.000000 
#    z 0.000000 0.000000 1.638900 
# 
# From -- ./inp_files/1527.got.cif
#   From: 2010.03.12/outbox.cif.g09.slc.cpg/sg138_1_cif.got.tgz:1527.got - 2010.04.08 09:41:05.
