data_PCOD8318942
_publ_section_title
;
Structure prediction by ZEFSAII (Michael W. Deem and Ramdas Pophale) SiO2 
 PCOD8318942
Probable space group: P 42/N C M
;
_chemical_formula_sum "Si O2"
_cell_formula_units_Z 80
_cell_length_a 16.468493
_cell_length_b 16.468493
_cell_length_c 15.417576
_cell_angle_alpha 90.000000
_cell_angle_beta 90.000000
_cell_angle_gamma 90.000000
_cell_volume 4181.420239
_symmetry_space_group_name_H-M "P 42/N C M"
_symmetry_group_IT_number 138
_space_group.IT_coordinate_system_code '2'
_symmetry_cell_setting 'tetragonal'
loop_
_space_group_symop_operation_xyz
x,y,z
1/2-y,x,1/2+z
1/2-x,1/2-y,z
y,1/2-x,1/2+z
1/2+x,-y,1/2-z
-x,1/2+y,1/2-z
1/2+y,1/2+x,-z
-y,-x,-z
-x,-y,-z
1/2+y,-x,1/2-z
1/2+x,1/2+y,-z
-y,1/2+x,1/2-z
1/2-x,y,1/2+z
x,1/2-y,1/2+z
1/2-y,1/2-x,z
y,x,z
loop_
_atom_site_type_symbol
_atom_site_label
_atom_site_fract_x
_atom_site_fract_y
_atom_site_fract_z
Si Si1 0.383584 0.250271 0.271340
Si Si2 0.446964 0.575822 0.151587
Si Si3 0.941942 0.689175 0.552400
Si Si4 0.489640 0.774826 0.379433
Si Si5 0.362338 0.696825 0.273587
O O1 0.329611 0.170390 0.257033
O O2 0.331561 0.331561 0.264344
O O3 0.425046 0.247484 0.365828
O O4 0.451925 0.250957 0.198776
O O5 0.513663 0.513663 0.189241
O O6 0.485251 0.626971 0.073023
O O7 0.370861 0.525552 0.117019
O O8 0.424340 0.635524 0.229361
O O9 0.860084 0.639917 0.527502
O O10 0.969179 0.746420 0.471760
O O11 0.403939 0.727450 0.363555
O O12 0.275677 0.652834 0.289258
#
# Coordination Sequence:
#
# PCOD8318942 Si02
#       5
#    16  16  16  16  16
#     4  10  21  36  53  78 114 149 181 225 279 330
#     4  10  19  34  57  82 108 138 182 234 276 322
#     4  10  20  34  52  80 109 137 180 231 274 319
#     4  11  20  34  58  82 105 144 189 226 273 330
#     4   9  19  35  55  80 112 147 181 223 278 331
#
# _framework density 19.132256000000002
#
# number of rings (size 3 to 8) (size 9 to 14) (size 15 to 20)
#    0.000    2.000    2.000    2.400    0.000    2.400 
#    0.000    3.000    0.000    4.800    0.000    4.200 
#    0.000    0.000    0.000    0.000    0.000    0.000 
#
# Total GULP energy -991790.674980 kJ/mol
# GULP energy per Si atom -12397.383437 kJ/mol
# Density = 1.908871 g / cm^3
# Si number density = 19.132256 Si / 1000 Ang^3
#
#
#
# Elastic Constant Matrix: (Units=GPa)
#
#
# Indices 1 2 3 4 5 6 
#
# 1 65.1647 19.2274 21.6625 0.0000 0.0000 0.0000
# 2 19.2274 65.1647 21.6625 0.0000 0.0000 0.0000
# 3 21.6625 21.6625 76.7537 0.0000 0.0000 0.0000
# 4 0.0000 0.0000 0.0000 25.9571 0.0000 0.0000
# 5 0.0000 0.0000 0.0000 0.0000 25.9571 0.0000
# 6 0.0000 0.0000 0.0000 0.0000 0.0000 28.3492
#
#
#
# Elastic Compliance Matrix: (Units=1/GPa)
#
#
# Indices 1 2 3 4 5 6 
#
# 1 0.017813 -0.003956 -0.003911 0.000000 0.000000 0.000000
# 2 -0.003956 0.017813 -0.003911 0.000000 0.000000 0.000000
# 3 -0.003911 -0.003911 0.015236 0.000000 0.000000 0.000000
# 4 0.000000 0.000000 0.000000 0.038525 0.000000 0.000000
# 5 0.000000 0.000000 0.000000 0.000000 0.038525 0.000000
# 6 0.000000 0.000000 0.000000 0.000000 0.000000 0.035274
#
#
# Mechanical properties :
#
#
# Convention : Reuss Voigt Hill
#
# Bulk Modulus (GPa) = 36.62080 36.90976 36.76528
# Shear Modulus (GPa) = 25.53046 25.68809 25.60928
#
# Velocity S-wave (km/s) = 3.65693 3.66821 3.66257
# Velocity P-wave (km/s) = 6.08386 6.10531 6.09459
#
# Compressibility (1/GPa) = 0.02730689
#
# Stress axis : x y z
#
# Youngs Moduli (GPa) = 56.13872 56.13872 65.63267
#
# Poissons Ratio (x) = 0.22207 0.25669
# Poissons Ratio (y) = 0.22207 0.25669
# Poissons Ratio (z) = 0.21956 0.21956
#
# Static dielectric constant tensor:
#      x y z
#    x 3.616140 0.000000 0.000000 
#    y 0.000000 3.616140 0.000000 
#    z 0.000000 0.000000 3.259920 
# 
# 
# High freq. dielectric constant tensor:
#      x y z
#    x 1.747760 0.000000 0.000000 
#    y 0.000000 1.747760 0.000000 
#    z 0.000000 0.000000 1.716910 
# 
# From -- ./inp_files/4059.got.cif
#   From: 2010.03.12/outbox.cif.g09.slc.cpg/sg138_3_cif.got.tgz:4059.got - 2010.04.08 09:41:05.
