data_PCOD8318102
_publ_section_title
;
Structure prediction by ZEFSAII (Michael W. Deem and Ramdas Pophale) SiO2 
 PCOD8318102
Probable space group: P 42/M N M
;
_chemical_formula_sum "Si O2"
_cell_formula_units_Z 56
_cell_length_a 19.074734
_cell_length_b 19.074734
_cell_length_c 8.708743
_cell_angle_alpha 90.000000
_cell_angle_beta 90.000000
_cell_angle_gamma 90.000000
_cell_volume 3168.636752
_symmetry_space_group_name_H-M "P 42/M N M"
_symmetry_group_IT_number 136
_symmetry_cell_setting 'tetragonal'
loop_
_space_group_symop_operation_xyz
x,y,z
1/2-y,1/2+x,1/2+z
-x,-y,z
1/2+y,1/2-x,1/2+z
1/2+x,1/2-y,1/2-z
1/2-x,1/2+y,1/2-z
y,x,-z
-y,-x,-z
-x,-y,-z
1/2+y,1/2-x,1/2-z
x,y,-z
1/2-y,1/2+x,1/2-z
1/2-x,1/2+y,1/2+z
1/2+x,1/2-y,1/2+z
-y,-x,z
y,x,z
loop_
_atom_site_type_symbol
_atom_site_label
_atom_site_fract_x
_atom_site_fract_y
_atom_site_fract_z
Si Si1 0.982543 0.204609 0.681289
Si Si2 0.129382 0.243627 0.180368
Si Si3 0.348733 0.233157 0.321435
Si Si4 0.058702 0.941299 0.824826
O O1 0.987152 0.201476 0.500000
O O2 0.920986 0.256665 0.731927
O O3 0.970371 0.127059 0.743318
O O4 0.053623 0.235247 0.748020
O O5 0.174853 0.174853 0.219513
O O6 0.164322 0.311788 0.255306
O O7 0.123312 0.255492 0.000000
O O8 0.363970 0.222044 0.500000
O O9 0.301330 0.301330 0.291348
O O10 0.077884 0.922117 0.000000
O O11 0.000000 0.000000 0.816632
#
# Coordination Sequence:
#
# PCOD8318102 Si02
#       4
#    16  16  16   8
#     4  12  23  35  55  82 113 148 188 230 280 336
#     4  10  21  37  57  81 112 147 187 233 281 332
#     4  10  20  36  58  81 109 145 188 233 280 332
#     4  11  23  37  53  77 113 153 189 228 281 338
#
# _framework density 17.673214999999999
#
# number of rings (size 3 to 8) (size 9 to 14) (size 15 to 20)
#    0.000    1.286    1.429    5.571    0.000    7.429 
#    0.000    0.000    0.000    0.857    0.000    6.000 
#    0.000    0.000    0.000    0.000    0.000    0.000 
#
# Total GULP energy -694745.782804 kJ/mol
# GULP energy per Si atom -12406.174693 kJ/mol
# Density = 1.763299 g / cm^3
# Si number density = 17.673215 Si / 1000 Ang^3
#
#
#
# Elastic Constant Matrix: (Units=GPa)
#
#
# Indices 1 2 3 4 5 6 
#
# 1 116.9676 115.7413 105.0505 0.0000 0.0000 0.0000
# 2 115.7413 116.9706 105.0508 0.0000 0.0000 0.0000
# 3 105.0505 105.0508 207.8533 0.0000 0.0000 0.0000
# 4 0.0000 0.0000 0.0000 35.6357 0.0000 0.0000
# 5 0.0000 0.0000 0.0000 0.0000 35.6353 0.0000
# 6 0.0000 0.0000 0.0000 0.0000 0.0000 22.3295
#
#
#
# Elastic Compliance Matrix: (Units=1/GPa)
#
#
# Indices 1 2 3 4 5 6 
#
# 1 0.411187 -0.403275 -0.003998 0.000000 0.000000 0.000000
# 2 -0.403275 0.411170 -0.003991 0.000000 0.000000 0.000000
# 3 -0.003998 -0.003991 0.008849 0.000000 0.000000 0.000000
# 4 0.000000 0.000000 0.000000 0.028062 0.000000 0.000000
# 5 0.000000 0.000000 0.000000 0.000000 0.028062 0.000000
# 6 0.000000 0.000000 0.000000 0.000000 0.000000 0.044784
#
#
# Mechanical properties :
#
#
# Convention : Reuss Voigt Hill
#
# Bulk Modulus (GPa) = 115.23524 121.49740 118.36632
# Shear Modulus (GPa) = 2.84490 26.45004 14.64747
#
# Velocity S-wave (km/s) = 1.27012 3.87281 2.88200
# Velocity P-wave (km/s) = 8.21558 9.42837 8.84279
#
# Compressibility (1/GPa) = 0.00867790
#
# Stress axis : x y z
#
# Youngs Moduli (GPa) = 2.43198 2.43209 113.00894
#
# Poissons Ratio (x) = 0.98080 0.45186
# Poissons Ratio (y) = 0.98076 0.45099
# Poissons Ratio (z) = 0.00972 0.00971
#
# Static dielectric constant tensor:
#      x y z
#    x 3.310560 0.000000 0.000000 
#    y 0.000000 3.310560 0.000000 
#    z 0.000000 0.000000 3.507680 
# 
# 
# High freq. dielectric constant tensor:
#      x y z
#    x 1.679620 0.000000 0.000000 
#    y 0.000000 1.679620 0.000000 
#    z 0.000000 0.000000 1.706810 
# 
# From -- ./inp_files/1098.got.cif
#   From: 2010.03.12/outbox.cif.g09.slc.cpg/sg136_1_cif.got.tgz:1098.got - 2010.04.06 18:39:43.
