data_PCOD8318963
_publ_section_title
;
Structure prediction by ZEFSAII (Michael W. Deem and Ramdas Pophale) SiO2 
 PCOD8318963
Probable space group: P 42/N C M
;
_chemical_formula_sum "Si O2"
_cell_formula_units_Z 48
_cell_length_a 12.110731
_cell_length_b 12.110731
_cell_length_c 18.199400
_cell_angle_alpha 90.000000
_cell_angle_beta 90.000000
_cell_angle_gamma 90.000000
_cell_volume 2669.302456
_symmetry_space_group_name_H-M "P 42/N C M"
_symmetry_group_IT_number 138
_space_group.IT_coordinate_system_code '2'
_symmetry_cell_setting 'tetragonal'
loop_
_space_group_symop_operation_xyz
x,y,z
1/2-y,x,1/2+z
1/2-x,1/2-y,z
y,1/2-x,1/2+z
1/2+x,-y,1/2-z
-x,1/2+y,1/2-z
1/2+y,1/2+x,-z
-y,-x,-z
-x,-y,-z
1/2+y,-x,1/2-z
1/2+x,1/2+y,-z
-y,1/2+x,1/2-z
1/2-x,y,1/2+z
x,1/2-y,1/2+z
1/2-y,1/2-x,z
y,x,z
loop_
_atom_site_type_symbol
_atom_site_label
_atom_site_fract_x
_atom_site_fract_y
_atom_site_fract_z
Si Si1 0.585354 0.284736 0.224564
Si Si2 0.571885 0.747842 0.653955
Si Si3 0.357210 0.673916 0.080257
O O1 0.662318 0.362140 0.276129
O O2 0.465343 0.280154 0.262295
O O3 0.579336 0.334743 0.141987
O O4 0.636812 0.863189 0.654399
O O5 0.649649 0.649649 0.624512
O O6 0.465807 0.756585 0.601283
O O7 0.250000 0.750000 0.078165
O O8 0.378707 0.621294 0.000000
#
# Coordination Sequence:
#
# PCOD8318963 Si02
#       3
#    16  16  16
#     4   9  15  32  54  79 102 138 181 218 264 310
#     4  10  21  36  55  81 112 144 180 228 279 321
#     4  10  19  36  58  81 111 145 185 224 269 327
#
# _framework density 17.982226000000001
#
# number of rings (size 3 to 8) (size 9 to 14) (size 15 to 20)
#    0.000    2.333    6.667    0.000    0.000    6.000 
#    0.000    5.000    0.000    4.000    0.000    0.000 
#    0.000    0.000    0.000    0.000    0.000    0.000 
#
# Total GULP energy -594787.323601 kJ/mol
# GULP energy per Si atom -12391.402575 kJ/mol
# Density = 1.794130 g / cm^3
# Si number density = 17.982226 Si / 1000 Ang^3
#
#
#
# Elastic Constant Matrix: (Units=GPa)
#
#
# Indices 1 2 3 4 5 6 
#
# 1 96.9621 39.9025 38.8855 0.0000 0.0000 0.0000
# 2 39.9025 96.9624 38.8856 0.0000 0.0000 0.0000
# 3 38.8855 38.8856 161.5731 0.0000 0.0000 0.0000
# 4 0.0000 0.0000 0.0000 11.6571 0.0000 0.0000
# 5 0.0000 0.0000 0.0000 0.0000 11.6570 0.0000
# 6 0.0000 0.0000 0.0000 0.0000 0.0000 13.3440
#
#
#
# Elastic Compliance Matrix: (Units=1/GPa)
#
#
# Indices 1 2 3 4 5 6 
#
# 1 0.012995 -0.004531 -0.002037 0.000000 0.000000 0.000000
# 2 -0.004531 0.012995 -0.002037 0.000000 0.000000 0.000000
# 3 -0.002037 -0.002037 0.007170 0.000000 0.000000 0.000000
# 4 0.000000 0.000000 0.000000 0.085785 0.000000 0.000000
# 5 0.000000 0.000000 0.000000 0.000000 0.085785 0.000000
# 6 0.000000 0.000000 0.000000 0.000000 0.000000 0.074940
#
#
# Mechanical properties :
#
#
# Convention : Reuss Voigt Hill
#
# Bulk Modulus (GPa) = 62.69770 65.64943 64.17356
# Shear Modulus (GPa) = 16.54561 23.18656 19.86609
#
# Velocity S-wave (km/s) = 3.03662 3.59474 3.32740
# Velocity P-wave (km/s) = 6.87291 7.33599 7.10822
#
# Compressibility (1/GPa) = 0.01594955
#
# Stress axis : x y z
#
# Youngs Moduli (GPa) = 76.95415 76.95432 139.47709
#
# Poissons Ratio (x) = 0.34866 0.28412
# Poissons Ratio (y) = 0.34866 0.28412
# Poissons Ratio (z) = 0.15676 0.15676
#
# Static dielectric constant tensor:
#      x y z
#    x 3.184340 0.000000 0.000000 
#    y 0.000000 3.184340 0.000000 
#    z 0.000000 0.000000 3.850920 
# 
# 
# High freq. dielectric constant tensor:
#      x y z
#    x 1.680670 0.000000 0.000000 
#    y 0.000000 1.680670 0.000000 
#    z 0.000000 0.000000 1.687230 
# 
# From -- ./inp_files/4719.got.cif
#   From: 2010.03.12/outbox.cif.g09.slc.cpg/sg138_3_cif.got.tgz:4719.got - 2010.04.08 09:41:05.
