data_PCOD8318527
_publ_section_title
;
Structure prediction by ZEFSAII (Michael W. Deem and Ramdas Pophale) SiO2 
 PCOD8318527
Probable space group: P 42/N M C
;
_chemical_formula_sum "Si O2"
_cell_formula_units_Z 84
_cell_length_a 22.021254
_cell_length_b 22.021254
_cell_length_c 9.749581
_cell_angle_alpha 90.000000
_cell_angle_beta 90.000000
_cell_angle_gamma 90.000000
_cell_volume 4727.919182
_symmetry_space_group_name_H-M "P 42/N M C"
_symmetry_group_IT_number 137
_space_group.IT_coordinate_system_code '2'
_symmetry_cell_setting 'tetragonal'
loop_
_space_group_symop_operation_xyz
x,y,z
1/2-y,x,1/2+z
1/2-x,1/2-y,z
y,1/2-x,1/2+z
1/2+x,-y,-z
-x,1/2+y,-z
1/2+y,1/2+x,1/2-z
-y,-x,1/2-z
-x,-y,-z
1/2+y,-x,1/2-z
1/2+x,1/2+y,-z
-y,1/2+x,1/2-z
1/2-x,y,z
x,1/2-y,z
1/2-y,1/2-x,1/2+z
y,x,1/2+z
loop_
_atom_site_type_symbol
_atom_site_label
_atom_site_fract_x
_atom_site_fract_y
_atom_site_fract_z
Si Si1 0.060917 0.817904 0.585363
Si Si2 0.750000 0.655740 0.170018
Si Si3 0.750000 0.750000 0.420201
Si Si4 0.181982 0.681982 0.750000
Si Si5 0.937717 0.856026 0.705527
Si Si6 0.546632 0.922349 0.971524
Si Si7 0.053827 0.571418 0.399218
O O1 0.052193 0.750000 0.530493
O O2 0.128695 0.827023 0.641330
O O3 0.054090 0.861594 0.458080
O O4 0.006966 0.832153 0.692977
O O5 0.750000 0.693273 0.313677
O O6 0.808094 0.612958 0.165075
O O7 0.750000 0.693268 0.026386
O O8 0.175731 0.750000 0.816145
O O9 0.925979 0.913340 0.607978
O O10 0.928742 0.872349 0.865405
O O11 0.477170 0.906523 0.013890
O O12 0.545795 0.985637 0.889615
O O13 0.080749 0.580749 0.250000
#
# Coordination Sequence:
#
# PCOD8318527 Si02
#       7
#    16   8   4   8  16  16  16
#     4  10  20  34  54  80 113 146 179 227 282 326
#     4  11  22  40  60  82 111 158 188 240 273 328
#     4  10  24  42  60  78 112 154 208 218 272 342
#     4   9  18  34  56  80 104 142 190 224 260 326
#     4  11  20  35  56  84 115 142 185 234 287 321
#     4  10  20  32  56  83 109 143 185 229 276 341
#     4  10  19  34  54  79 111 146 180 225 281 332
#
# _framework density 17.766801000000001
#
# number of rings (size 3 to 8) (size 9 to 14) (size 15 to 20)
#    0.000    1.810    2.857    2.286    0.000    0.000 
#    0.000    0.952    2.095    0.000    0.000    0.000 
#    0.000    0.000    0.000    0.000    0.000    0.000 
#
# Total GULP energy -1041046.289148 kJ/mol
# GULP energy per Si atom -12393.408204 kJ/mol
# Density = 1.772636 g / cm^3
# Si number density = 17.766801 Si / 1000 Ang^3
#
#
#
# Elastic Constant Matrix: (Units=GPa)
#
#
# Indices 1 2 3 4 5 6 
#
# 1 97.3580 35.8590 40.8969 0.0000 0.0000 0.0000
# 2 35.8590 97.3580 40.8969 0.0000 0.0000 0.0000
# 3 40.8969 40.8969 104.3192 0.0000 0.0000 0.0000
# 4 0.0000 0.0000 0.0000 20.2069 0.0000 0.0000
# 5 0.0000 0.0000 0.0000 0.0000 20.2069 0.0000
# 6 0.0000 0.0000 0.0000 0.0000 0.0000 23.1985
#
#
#
# Elastic Compliance Matrix: (Units=1/GPa)
#
#
# Indices 1 2 3 4 5 6 
#
# 1 0.013073 -0.003187 -0.003876 0.000000 0.000000 0.000000
# 2 -0.003187 0.013073 -0.003876 0.000000 0.000000 0.000000
# 3 -0.003876 -0.003876 0.012625 0.000000 0.000000 0.000000
# 4 0.000000 0.000000 0.000000 0.049488 0.000000 0.000000
# 5 0.000000 0.000000 0.000000 0.000000 0.049488 0.000000
# 6 0.000000 0.000000 0.000000 0.000000 0.000000 0.043106
#
#
# Mechanical properties :
#
#
# Convention : Reuss Voigt Hill
#
# Bulk Modulus (GPa) = 59.19171 59.37119 59.28145
# Shear Modulus (GPa) = 23.99663 24.81461 24.40562
#
# Velocity S-wave (km/s) = 3.67910 3.74128 3.71032
# Velocity P-wave (km/s) = 7.17188 7.22166 7.19681
#
# Compressibility (1/GPa) = 0.01689426
#
# Stress axis : x y z
#
# Youngs Moduli (GPa) = 76.49163 76.49163 79.20896
#
# Poissons Ratio (x) = 0.24379 0.30699
# Poissons Ratio (y) = 0.24379 0.30699
# Poissons Ratio (z) = 0.29646 0.29646
#
# Static dielectric constant tensor:
#      x y z
#    x 3.401170 0.000000 0.000000 
#    y 0.000000 3.401170 0.000000 
#    z 0.000000 0.000000 3.108380 
# 
# 
# High freq. dielectric constant tensor:
#      x y z
#    x 1.691610 0.000000 0.000000 
#    y 0.000000 1.691610 0.000000 
#    z 0.000000 0.000000 1.674750 
# 
# From -- ./inp_files/2101.got.cif
#   From: 2010.03.12/outbox.cif.g09.slc.cpg/sg137_2_cif.got.tgz:2101.got - 2010.04.08 09:34:49.
