data_PCOD8318757
_publ_section_title
;
Structure prediction by ZEFSAII (Michael W. Deem and Ramdas Pophale) SiO2 
 PCOD8318757
Probable space group: P 42/N M C
;
_chemical_formula_sum "Si O2"
_cell_formula_units_Z 64
_cell_length_a 14.877369
_cell_length_b 14.877369
_cell_length_c 14.133511
_cell_angle_alpha 90.000000
_cell_angle_beta 90.000000
_cell_angle_gamma 90.000000
_cell_volume 3128.256322
_symmetry_space_group_name_H-M "P 42/N M C"
_symmetry_group_IT_number 137
_space_group.IT_coordinate_system_code '2'
_symmetry_cell_setting 'tetragonal'
loop_
_space_group_symop_operation_xyz
x,y,z
1/2-y,x,1/2+z
1/2-x,1/2-y,z
y,1/2-x,1/2+z
1/2+x,-y,-z
-x,1/2+y,-z
1/2+y,1/2+x,1/2-z
-y,-x,1/2-z
-x,-y,-z
1/2+y,-x,1/2-z
1/2+x,1/2+y,-z
-y,1/2+x,1/2-z
1/2-x,y,z
x,1/2-y,z
1/2-y,1/2-x,1/2+z
y,x,1/2+z
loop_
_atom_site_type_symbol
_atom_site_label
_atom_site_fract_x
_atom_site_fract_y
_atom_site_fract_z
Si Si1 0.353240 0.147506 0.344289
Si Si2 0.000937 0.355922 0.491323
Si Si3 0.490214 0.855924 0.296361
Si Si4 0.349518 0.642740 0.645602
O O1 0.250000 0.138785 0.373601
O O2 0.377484 0.250000 0.314182
O O3 0.408287 0.117177 0.436778
O O4 0.377334 0.083421 0.256667
O O5 0.991249 0.250000 0.497117
O O6 0.002266 0.394399 0.597369
O O7 0.916264 0.396646 0.433731
O O8 0.406055 0.906055 0.250000
O O9 0.468401 0.750000 0.294105
O O10 0.385388 0.614613 0.750000
O O11 0.250000 0.603686 0.625571
O O12 0.346522 0.750000 0.642974
#
# Coordination Sequence:
#
# PCOD8318757 Si02
#       4
#    16  16  16  16
#     4   9  19  37  59  81 106 139 184 237 284 322
#     4   9  18  33  54  79 106 140 180 220 268 323
#     4  10  22  38  56  82 115 149 185 224 270 331
#     4   8  14  26  46  74 107 139 172 212 257 310
#
# _framework density 20.458680999999999
#
# number of rings (size 3 to 8) (size 9 to 14) (size 15 to 20)
#    0.000    3.000    0.000    0.750    0.000    4.250 
#    0.000    7.500    0.000    6.000    0.000    0.000 
#    0.000    0.000    0.000    0.000    0.000    0.000 
#
# Total GULP energy -793415.802746 kJ/mol
# GULP energy per Si atom -12397.121918 kJ/mol
# Density = 2.041212 g / cm^3
# Si number density = 20.458681 Si / 1000 Ang^3
#
#
#
# Elastic Constant Matrix: (Units=GPa)
#
#
# Indices 1 2 3 4 5 6 
#
# 1 83.8171 42.0868 71.0006 0.0000 0.0000 0.0000
# 2 42.0868 83.8172 71.0006 0.0000 0.0000 0.0000
# 3 71.0006 71.0006 208.6459 0.0000 0.0000 0.0000
# 4 0.0000 0.0000 0.0000 22.8945 0.0000 0.0000
# 5 0.0000 0.0000 0.0000 0.0000 22.8941 0.0000
# 6 0.0000 0.0000 0.0000 0.0000 0.0000 19.0141
#
#
#
# Elastic Compliance Matrix: (Units=1/GPa)
#
#
# Indices 1 2 3 4 5 6 
#
# 1 0.018426 -0.005537 -0.004386 0.000000 0.000000 0.000000
# 2 -0.005537 0.018426 -0.004386 0.000000 0.000000 0.000000
# 3 -0.004386 -0.004386 0.007778 0.000000 0.000000 0.000000
# 4 0.000000 0.000000 0.000000 0.043679 0.000000 0.000000
# 5 0.000000 0.000000 0.000000 0.000000 0.043679 0.000000
# 6 0.000000 0.000000 0.000000 0.000000 0.000000 0.052593
#
#
# Mechanical properties :
#
#
# Convention : Reuss Voigt Hill
#
# Bulk Modulus (GPa) = 62.45207 82.71734 72.58471
# Shear Modulus (GPa) = 22.87937 25.77336 24.32636
#
# Velocity S-wave (km/s) = 3.34776 3.55318 3.45200
# Velocity P-wave (km/s) = 6.74800 7.57315 7.17245
#
# Compressibility (1/GPa) = 0.01601228
#
# Stress axis : x y z
#
# Youngs Moduli (GPa) = 54.26967 54.26976 128.56753
#
# Poissons Ratio (x) = 0.30049 0.56393
# Poissons Ratio (y) = 0.30048 0.56393
# Poissons Ratio (z) = 0.23804 0.23804
#
# Static dielectric constant tensor:
#      x y z
#    x 3.628030 0.000000 0.000000 
#    y 0.000000 3.628030 0.000000 
#    z 0.000000 0.000000 3.966910 
# 
# 
# High freq. dielectric constant tensor:
#      x y z
#    x 1.789350 0.000000 0.000000 
#    y 0.000000 1.789350 0.000000 
#    z 0.000000 0.000000 1.799540 
# 
# From -- ./inp_files/3325.got.cif
#   From: 2010.03.12/outbox.cif.g09.slc.cpg/sg137_2_cif.got.tgz:3325.got - 2010.04.08 09:34:49.
