data_PCOD8318441
_publ_section_title
;
Structure prediction by ZEFSAII (Michael W. Deem and Ramdas Pophale) SiO2 
 PCOD8318441
Probable space group: P 42/N M C
;
_chemical_formula_sum "Si O2"
_cell_formula_units_Z 92
_cell_length_a 15.473801
_cell_length_b 15.473801
_cell_length_c 19.929237
_cell_angle_alpha 90.000000
_cell_angle_beta 90.000000
_cell_angle_gamma 90.000000
_cell_volume 4771.826960
_symmetry_space_group_name_H-M "P 42/N M C"
_symmetry_group_IT_number 137
_space_group.IT_coordinate_system_code '2'
_symmetry_cell_setting 'tetragonal'
loop_
_space_group_symop_operation_xyz
x,y,z
1/2-y,x,1/2+z
1/2-x,1/2-y,z
y,1/2-x,1/2+z
1/2+x,-y,-z
-x,1/2+y,-z
1/2+y,1/2+x,1/2-z
-y,-x,1/2-z
-x,-y,-z
1/2+y,-x,1/2-z
1/2+x,1/2+y,-z
-y,1/2+x,1/2-z
1/2-x,y,z
x,1/2-y,z
1/2-y,1/2-x,1/2+z
y,x,1/2+z
loop_
_atom_site_type_symbol
_atom_site_label
_atom_site_fract_x
_atom_site_fract_y
_atom_site_fract_z
Si Si1 0.652569 0.487318 0.252053
Si Si2 0.928603 0.250000 0.960831
Si Si3 0.040597 0.080726 0.640241
Si Si4 0.750000 0.250000 0.902730
Si Si5 0.250000 0.003913 0.315014
Si Si6 0.434194 0.750000 0.326973
Si Si7 0.039996 0.093978 0.001942
Si Si8 0.580810 0.916367 0.139600
O O1 0.604784 0.395217 0.250000
O O2 0.750000 0.472159 0.276734
O O3 0.604141 0.556596 0.298917
O O4 0.653347 0.526229 0.176297
O O5 0.825688 0.250000 0.958228
O O6 0.950168 0.250000 0.882601
O O7 0.964603 0.165704 0.998789
O O8 0.100146 0.089107 0.573160
O O9 0.989065 0.168516 0.649283
O O10 0.967565 0.008671 0.634726
O O11 0.750000 0.336613 0.856044
O O12 0.332779 0.066401 0.313792
O O13 0.250000 0.934300 0.254361
O O14 0.105222 0.107192 0.937951
O O15 0.000000 0.000000 0.000000
#
# Coordination Sequence:
#
# PCOD8318441 Si02
#       8
#    16   8  16   4   8   8  16  16
#     4  10  21  38  62  85 111 147 196 250 301 355
#     4  10  22  35  58  83 119 158 196 234 296 364
#     4  10  21  36  59  81 114 157 196 241 297 354
#     4  12  24  33  52  96 130 152 193 246 290 348
#     4  10  18  33  56  84 120 160 192 226 286 362
#     4  12  22  35  56  92 129 155 193 246 293 370
#     4   9  18  36  58  76 108 156 197 234 289 356
#     4   9  18  36  56  80 111 157 196 235 289 358
#
# _framework density 19.279827999999998
#
# number of rings (size 3 to 8) (size 9 to 14) (size 15 to 20)
#    0.000    2.087    1.739    3.130    1.217    2.609 
#    1.565    1.739   15.304    0.000    0.000    0.000 
#    0.000    0.000    0.000    0.000    0.000    0.000 
#
# Total GULP energy -1139958.908961 kJ/mol
# GULP energy per Si atom -12390.857706 kJ/mol
# Density = 1.923595 g / cm^3
# Si number density = 19.279828 Si / 1000 Ang^3
#
#
#
# Elastic Constant Matrix: (Units=GPa)
#
#
# Indices 1 2 3 4 5 6 
#
# 1 111.8878 49.5528 40.3379 0.0000 0.0000 0.0000
# 2 49.5528 111.8884 40.3381 0.0000 0.0000 0.0000
# 3 40.3379 40.3381 111.0542 0.0000 0.0000 0.0000
# 4 0.0000 0.0000 0.0000 18.6561 0.0000 0.0000
# 5 0.0000 0.0000 0.0000 0.0000 18.6558 0.0000
# 6 0.0000 0.0000 0.0000 0.0000 0.0000 18.9548
#
#
#
# Elastic Compliance Matrix: (Units=1/GPa)
#
#
# Indices 1 2 3 4 5 6 
#
# 1 0.011805 -0.004237 -0.002749 0.000000 0.000000 0.000000
# 2 -0.004237 0.011805 -0.002749 0.000000 0.000000 0.000000
# 3 -0.002749 -0.002749 0.011002 0.000000 0.000000 0.000000
# 4 0.000000 0.000000 0.000000 0.053602 0.000000 0.000000
# 5 0.000000 0.000000 0.000000 0.000000 0.053603 0.000000
# 6 0.000000 0.000000 0.000000 0.000000 0.000000 0.052757
#
#
# Mechanical properties :
#
#
# Convention : Reuss Voigt Hill
#
# Bulk Modulus (GPa) = 66.04214 66.14312 66.09263
# Shear Modulus (GPa) = 22.82161 24.89344 23.85753
#
# Velocity S-wave (km/s) = 3.44423 3.59718 3.52154
# Velocity P-wave (km/s) = 7.08138 7.18570 7.13373
#
# Compressibility (1/GPa) = 0.01514185
#
# Stress axis : x y z
#
# Youngs Moduli (GPa) = 84.70903 84.70948 90.89634
#
# Poissons Ratio (x) = 0.35893 0.24986
# Poissons Ratio (y) = 0.35893 0.24986
# Poissons Ratio (z) = 0.23285 0.23286
#
# Static dielectric constant tensor:
#      x y z
#    x 3.420880 0.000000 0.000000 
#    y 0.000000 3.420880 0.000000 
#    z 0.000000 0.000000 4.284770 
# 
# 
# High freq. dielectric constant tensor:
#      x y z
#    x 1.731340 0.000000 0.000000 
#    y 0.000000 1.731340 0.000000 
#    z 0.000000 0.000000 1.763870 
# 
# From -- ./inp_files/7933.got.cif
#   From: 2010.03.12/outbox.cif.g09.slc.cpg/sg137_4_cif.got.tgz:7933.got - 2010.04.08 09:34:49.
