data_PCOD8318208
_publ_section_title
;
Structure prediction by ZEFSAII (Michael W. Deem and Ramdas Pophale) SiO2 
 PCOD8318208
Probable space group: P 42/M N M
;
_chemical_formula_sum "Si O2"
_cell_formula_units_Z 64
_cell_length_a 14.996138
_cell_length_b 14.996138
_cell_length_c 13.998941
_cell_angle_alpha 90.000000
_cell_angle_beta 90.000000
_cell_angle_gamma 90.000000
_cell_volume 3148.140016
_symmetry_space_group_name_H-M "P 42/M N M"
_symmetry_group_IT_number 136
_symmetry_cell_setting 'tetragonal'
loop_
_space_group_symop_operation_xyz
x,y,z
1/2-y,1/2+x,1/2+z
-x,-y,z
1/2+y,1/2-x,1/2+z
1/2+x,1/2-y,1/2-z
1/2-x,1/2+y,1/2-z
y,x,-z
-y,-x,-z
-x,-y,-z
1/2+y,1/2-x,1/2-z
x,y,-z
1/2-y,1/2+x,1/2-z
1/2-x,1/2+y,1/2+z
1/2+x,1/2-y,1/2+z
-y,-x,z
y,x,z
loop_
_atom_site_type_symbol
_atom_site_label
_atom_site_fract_x
_atom_site_fract_y
_atom_site_fract_z
Si Si1 0.424024 0.073253 0.607052
Si Si2 0.557228 0.811343 0.215216
Si Si3 0.500169 0.639833 0.291908
Si Si4 0.771728 0.372796 0.395288
O O1 0.405185 0.109365 0.500000
O O2 0.455814 0.153773 0.675366
O O3 0.500000 0.000000 0.607615
O O4 0.336425 0.026476 0.649136
O O5 0.552305 0.703356 0.216214
O O6 0.648423 0.854185 0.177706
O O7 0.423670 0.576331 0.243924
O O8 0.575116 0.575116 0.339854
O O9 0.452570 0.705183 0.366885
O O10 0.811937 0.396853 0.500000
O O11 0.718673 0.281328 0.401846
#
# Coordination Sequence:
#
# PCOD8318208 Si02
#       4
#    16  16  16  16
#     4  11  21  34  56  90 125 158 198 247 304 360
#     4  12  19  38  59  89 124 162 201 254 302 361
#     4  10  22  39  61  88 122 162 201 249 309 366
#     4  10  21  37  61  91 121 159 208 255 302 363
#
# _framework density 20.329464999999999
#
# number of rings (size 3 to 8) (size 9 to 14) (size 15 to 20)
#    0.000    1.250    5.000    1.500    0.000    3.500 
#    0.000    2.500    0.000    8.250    0.000    8.750 
#    0.000    0.000    0.000    0.000    0.000    0.000 
#
# Total GULP energy -792899.212355 kJ/mol
# GULP energy per Si atom -12389.050193 kJ/mol
# Density = 2.028319 g / cm^3
# Si number density = 20.329465 Si / 1000 Ang^3
#
#
#
# Elastic Constant Matrix: (Units=GPa)
#
#
# Indices 1 2 3 4 5 6 
#
# 1 113.2558 50.8616 48.3346 0.0000 0.0000 0.0000
# 2 50.8616 113.2558 48.3346 0.0000 0.0000 0.0000
# 3 48.3346 48.3346 124.4285 0.0000 0.0000 0.0000
# 4 0.0000 0.0000 0.0000 16.5383 0.0000 0.0000
# 5 0.0000 0.0000 0.0000 0.0000 16.5383 0.0000
# 6 0.0000 0.0000 0.0000 0.0000 0.0000 40.3323
#
#
#
# Elastic Compliance Matrix: (Units=1/GPa)
#
#
# Indices 1 2 3 4 5 6 
#
# 1 0.011964 -0.004063 -0.003069 0.000000 0.000000 0.000000
# 2 -0.004063 0.011964 -0.003069 0.000000 0.000000 0.000000
# 3 -0.003069 -0.003069 0.010421 0.000000 0.000000 0.000000
# 4 0.000000 0.000000 0.000000 0.060466 0.000000 0.000000
# 5 0.000000 0.000000 0.000000 0.000000 0.060466 0.000000
# 6 0.000000 0.000000 0.000000 0.000000 0.000000 0.024794
#
#
# Mechanical properties :
#
#
# Convention : Reuss Voigt Hill
#
# Bulk Modulus (GPa) = 71.70234 71.77797 71.74016
# Shear Modulus (GPa) = 24.37523 28.24241 26.30882
#
# Velocity S-wave (km/s) = 3.46643 3.73129 3.60129
# Velocity P-wave (km/s) = 7.16716 7.34489 7.25657
#
# Compressibility (1/GPa) = 0.01394655
#
# Stress axis : x y z
#
# Youngs Moduli (GPa) = 83.58359 83.58359 95.95824
#
# Poissons Ratio (x) = 0.33961 0.29451
# Poissons Ratio (y) = 0.33961 0.29451
# Poissons Ratio (z) = 0.25653 0.25653
#
# Static dielectric constant tensor:
#      x y z
#    x 3.953870 0.000000 0.000000 
#    y 0.000000 3.953870 0.000000 
#    z 0.000000 0.000000 3.850850 
# 
# 
# High freq. dielectric constant tensor:
#      x y z
#    x 1.803940 0.000000 0.000000 
#    y 0.000000 1.803940 0.000000 
#    z 0.000000 0.000000 1.764070 
# 
# From -- ./inp_files/4689.got.cif
#   From: 2010.03.12/outbox.cif.g09.slc.cpg/sg136_3_cif.got.tgz:4689.got - 2010.04.06 18:39:43.
