data_PCOD8318085
_publ_section_title
;
Structure prediction by ZEFSAII (Michael W. Deem and Ramdas Pophale) SiO2 
 PCOD8318085
Probable space group: P 42/M N M
;
_chemical_formula_sum "Si O2"
_cell_formula_units_Z 72
_cell_length_a 20.850865
_cell_length_b 20.850865
_cell_length_c 8.963885
_cell_angle_alpha 90.000000
_cell_angle_beta 90.000000
_cell_angle_gamma 90.000000
_cell_volume 3897.125835
_symmetry_space_group_name_H-M "P 42/M N M"
_symmetry_group_IT_number 136
_symmetry_cell_setting 'tetragonal'
loop_
_space_group_symop_operation_xyz
x,y,z
1/2-y,1/2+x,1/2+z
-x,-y,z
1/2+y,1/2-x,1/2+z
1/2+x,1/2-y,1/2-z
1/2-x,1/2+y,1/2-z
y,x,-z
-y,-x,-z
-x,-y,-z
1/2+y,1/2-x,1/2-z
x,y,-z
1/2-y,1/2+x,1/2-z
1/2-x,1/2+y,1/2+z
1/2+x,1/2-y,1/2+z
-y,-x,z
y,x,z
loop_
_atom_site_type_symbol
_atom_site_label
_atom_site_fract_x
_atom_site_fract_y
_atom_site_fract_z
Si Si1 0.322780 0.037859 0.169653
Si Si2 0.552590 0.447411 0.822856
Si Si3 0.997852 0.820319 0.825810
Si Si4 0.775841 0.120711 0.667670
Si Si5 0.850310 0.607915 0.328659
O O1 0.246715 0.038747 0.204785
O O2 0.359649 0.083493 0.282667
O O3 0.352958 0.968122 0.197224
O O4 0.334768 0.060074 0.000000
O O5 0.500000 0.500000 0.769458
O O6 0.535827 0.377335 0.762495
O O7 0.554999 0.445002 0.000000
O O8 0.070534 0.813378 0.770807
O O9 0.998553 0.837131 0.000000
O O10 0.770897 0.092665 0.500000
O O11 0.812766 0.187235 0.668806
O O12 0.705936 0.137706 0.729412
O O13 0.835683 0.623640 0.500000
#
# Coordination Sequence:
#
# PCOD8318085 Si02
#       5
#    16   8  16  16  16
#     4   9  20  38  56  79 111 143 179 225 277 327
#     4  11  23  37  55  83 115 149 191 233 279 336
#     4  10  21  37  57  81 111 147 184 229 278 327
#     4  10  20  35  56  81 109 144 182 224 275 326
#     4  10  21  36  57  83 109 143 184 226 273 328
#
# _framework density 18.475154
#
# number of rings (size 3 to 8) (size 9 to 14) (size 15 to 20)
#    0.000    2.111    0.000    4.333    0.000   11.111 
#    2.000    2.222    0.000    0.000    0.000    0.000 
#    0.000    0.000    0.000    0.000    0.000    0.000 
#
# Total GULP energy -892976.042743 kJ/mol
# GULP energy per Si atom -12402.445038 kJ/mol
# Density = 1.843310 g / cm^3
# Si number density = 18.475154 Si / 1000 Ang^3
#
#
#
# Elastic Constant Matrix: (Units=GPa)
#
#
# Indices 1 2 3 4 5 6 
#
# 1 90.3379 63.5577 51.7757 0.0000 0.0000 0.0000
# 2 63.5577 90.3378 51.7757 0.0000 0.0000 0.0000
# 3 51.7757 51.7757 97.8395 0.0000 0.0000 0.0000
# 4 0.0000 0.0000 0.0000 34.1816 0.0000 0.0000
# 5 0.0000 0.0000 0.0000 0.0000 34.1817 0.0000
# 6 0.0000 0.0000 0.0000 0.0000 0.0000 29.2846
#
#
#
# Elastic Compliance Matrix: (Units=1/GPa)
#
#
# Indices 1 2 3 4 5 6 
#
# 1 0.023716 -0.013625 -0.005340 0.000000 0.000000 0.000000
# 2 -0.013625 0.023716 -0.005340 0.000000 0.000000 0.000000
# 3 -0.005340 -0.005340 0.015873 0.000000 0.000000 0.000000
# 4 0.000000 0.000000 0.000000 0.029255 0.000000 0.000000
# 5 0.000000 0.000000 0.000000 0.000000 0.029255 0.000000
# 6 0.000000 0.000000 0.000000 0.000000 0.000000 0.034148
#
#
# Mechanical properties :
#
#
# Convention : Reuss Voigt Hill
#
# Bulk Modulus (GPa) = 68.05292 68.08150 68.06721
# Shear Modulus (GPa) = 23.86953 26.95665 25.41309
#
# Velocity S-wave (km/s) = 3.59831 3.82393 3.71283
# Velocity P-wave (km/s) = 7.36061 7.51178 7.43658
#
# Compressibility (1/GPa) = 0.01469445
#
# Stress axis : x y z
#
# Youngs Moduli (GPa) = 42.16546 42.16541 63.00127
#
# Poissons Ratio (x) = 0.57450 0.33643
# Poissons Ratio (y) = 0.57450 0.33644
# Poissons Ratio (z) = 0.22517 0.22517
#
# Static dielectric constant tensor:
#      x y z
#    x 3.338630 0.000000 0.000000 
#    y 0.000000 3.338630 0.000000 
#    z 0.000000 0.000000 3.567040 
# 
# 
# High freq. dielectric constant tensor:
#      x y z
#    x 1.712980 0.000000 0.000000 
#    y 0.000000 1.712980 0.000000 
#    z 0.000000 0.000000 1.733520 
# 
# From -- ./inp_files/1599.got.cif
#   From: 2010.03.12/outbox.cif.g09.slc.cpg/sg136_1_cif.got.tgz:1599.got - 2010.04.06 18:39:43.
