data_PCOD8318417
_publ_section_title
;
Structure prediction by ZEFSAII (Michael W. Deem and Ramdas Pophale) SiO2 
 PCOD8318417
Probable space group: P 42/N M C
;
_chemical_formula_sum "Si O2"
_cell_formula_units_Z 96
_cell_length_a 15.923021
_cell_length_b 15.923021
_cell_length_c 22.575599
_cell_angle_alpha 90.000000
_cell_angle_beta 90.000000
_cell_angle_gamma 90.000000
_cell_volume 5723.876017
_symmetry_space_group_name_H-M "P 42/N M C"
_symmetry_group_IT_number 137
_space_group.IT_coordinate_system_code '2'
_symmetry_cell_setting 'tetragonal'
loop_
_space_group_symop_operation_xyz
x,y,z
1/2-y,x,1/2+z
1/2-x,1/2-y,z
y,1/2-x,1/2+z
1/2+x,-y,-z
-x,1/2+y,-z
1/2+y,1/2+x,1/2-z
-y,-x,1/2-z
-x,-y,-z
1/2+y,-x,1/2-z
1/2+x,1/2+y,-z
-y,1/2+x,1/2-z
1/2-x,y,z
x,1/2-y,z
1/2-y,1/2-x,1/2+z
y,x,1/2+z
loop_
_atom_site_type_symbol
_atom_site_label
_atom_site_fract_x
_atom_site_fract_y
_atom_site_fract_z
Si Si1 0.848418 0.750000 0.618978
Si Si2 0.890241 0.845080 0.027754
Si Si3 0.553692 0.154202 0.787744
Si Si4 0.427139 0.654127 0.079962
Si Si5 0.250000 0.350023 0.748112
Si Si6 0.481915 0.348765 0.568352
Si Si7 0.422475 0.149814 0.695814
O O1 0.750000 0.750000 0.628327
O O2 0.875821 0.667482 0.582426
O O3 0.888777 0.750000 0.684979
O O4 0.862920 0.750000 0.007147
O O5 0.985154 0.841638 0.047862
O O6 0.885952 0.913521 0.976388
O O7 0.639259 0.139259 0.750000
O O8 0.531942 0.250000 0.795218
O O9 0.561191 0.118899 0.853557
O O10 0.480461 0.111522 0.748261
O O11 0.386778 0.750000 0.077767
O O12 0.372022 0.578910 0.050931
O O13 0.250000 0.250000 0.752389
O O14 0.170752 0.382314 0.710449
O O15 0.474447 0.250000 0.565833
O O16 0.454315 0.384080 0.632601
O O17 0.428130 0.250000 0.696012
#
# Coordination Sequence:
#
# PCOD8318417 Si02
#       7
#     8  16  16  16   8  16  16
#     4   9  16  30  50  72  93 125 165 205 243 292
#     4  10  20  34  52  74  96 129 167 208 251 299
#     4  10  18  31  47  67  95 126 163 197 233 277
#     4  10  21  35  52  70  95 132 170 208 245 289
#     4   9  16  28  46  68  96 123 159 197 238 292
#     4  11  21  33  49  71 103 131 166 203 247 301
#     4   9  18  29  44  69  94 125 154 196 243 288
#
# _framework density 16.771851999999999
#
# number of rings (size 3 to 8) (size 9 to 14) (size 15 to 20)
#    0.000    2.167    2.500    1.500    1.167    4.500 
#    0.000    1.667    0.000    0.000    0.000    0.000 
#    0.000    0.000    0.000    0.000    0.000    0.667 
#
# Total GULP energy -1189271.752671 kJ/mol
# GULP energy per Si atom -12388.247424 kJ/mol
# Density = 1.673368 g / cm^3
# Si number density = 16.771852 Si / 1000 Ang^3
#
#
#
# Elastic Constant Matrix: (Units=GPa)
#
#
# Indices 1 2 3 4 5 6 
#
# 1 36.1478 28.8185 31.9131 0.0000 0.0000 0.0000
# 2 28.8185 36.1478 31.9131 0.0000 0.0000 0.0000
# 3 31.9131 31.9131 72.8351 0.0000 0.0000 0.0000
# 4 0.0000 0.0000 0.0000 18.9967 0.0000 0.0000
# 5 0.0000 0.0000 0.0000 0.0000 18.9967 0.0000
# 6 0.0000 0.0000 0.0000 0.0000 0.0000 16.8169
#
#
#
# Elastic Compliance Matrix: (Units=1/GPa)
#
#
# Indices 1 2 3 4 5 6 
#
# 1 0.081733 -0.054706 -0.011842 0.000000 0.000000 0.000000
# 2 -0.054706 0.081733 -0.011842 0.000000 0.000000 0.000000
# 3 -0.011842 -0.011842 0.024107 0.000000 0.000000 0.000000
# 4 0.000000 0.000000 0.000000 0.052641 0.000000 0.000000
# 5 0.000000 0.000000 0.000000 0.000000 0.052641 0.000000
# 6 0.000000 0.000000 0.000000 0.000000 0.000000 0.059464
#
#
# Mechanical properties :
#
#
# Convention : Reuss Voigt Hill
#
# Bulk Modulus (GPa) = 32.47533 36.71334 34.59433
# Shear Modulus (GPa) = 9.62721 14.46116 12.04419
#
# Velocity S-wave (km/s) = 2.39845 2.93956 2.68268
# Velocity P-wave (km/s) = 5.20338 5.78435 5.50154
#
# Compressibility (1/GPa) = 0.03079261
#
# Stress axis : x y z
#
# Youngs Moduli (GPa) = 12.23500 12.23500 41.48215
#
# Poissons Ratio (x) = 0.66933 0.49122
# Poissons Ratio (y) = 0.66933 0.49122
# Poissons Ratio (z) = 0.14488 0.14488
#
# Static dielectric constant tensor:
#      x y z
#    x 3.198980 0.000000 0.000000 
#    y 0.000000 3.198980 0.000000 
#    z 0.000000 0.000000 3.386020 
# 
# 
# High freq. dielectric constant tensor:
#      x y z
#    x 1.626660 0.000000 0.000000 
#    y 0.000000 1.626660 0.000000 
#    z 0.000000 0.000000 1.648620 
# 
# From -- ./inp_files/8044.got.cif
#   From: 2010.03.12/outbox.cif.g09.slc.cpg/sg137_5_cif.got.tgz:8044.got - 2010.04.08 09:34:49.
