data_PCOD8318410
_publ_section_title
;
Structure prediction by ZEFSAII (Michael W. Deem and Ramdas Pophale) SiO2 
 PCOD8318410
Probable space group: P 42/N M C
;
_chemical_formula_sum "Si O2"
_cell_formula_units_Z 80
_cell_length_a 15.036506
_cell_length_b 15.036506
_cell_length_c 19.675350
_cell_angle_alpha 90.000000
_cell_angle_beta 90.000000
_cell_angle_gamma 90.000000
_cell_volume 4448.528021
_symmetry_space_group_name_H-M "P 42/N M C"
_symmetry_group_IT_number 137
_space_group.IT_coordinate_system_code '2'
_symmetry_cell_setting 'tetragonal'
loop_
_space_group_symop_operation_xyz
x,y,z
1/2-y,x,1/2+z
1/2-x,1/2-y,z
y,1/2-x,1/2+z
1/2+x,-y,-z
-x,1/2+y,-z
1/2+y,1/2+x,1/2-z
-y,-x,1/2-z
-x,-y,-z
1/2+y,-x,1/2-z
1/2+x,1/2+y,-z
-y,1/2+x,1/2-z
1/2-x,y,z
x,1/2-y,z
1/2-y,1/2-x,1/2+z
y,x,1/2+z
loop_
_atom_site_type_symbol
_atom_site_label
_atom_site_fract_x
_atom_site_fract_y
_atom_site_fract_z
Si Si1 0.151201 0.973947 0.930262
Si Si2 0.852650 0.993586 0.434513
Si Si3 0.149144 0.606528 0.326585
Si Si4 0.986190 0.654224 0.414669
Si Si5 0.347547 0.436096 0.411855
O O1 0.250000 0.946074 0.907851
O O2 0.084810 0.896039 0.906537
O O3 0.131896 0.071919 0.899141
O O4 0.138882 0.979506 0.010130
O O5 0.750000 0.988393 0.411094
O O6 0.910213 0.917264 0.396690
O O7 0.860876 0.986674 0.516211
O O8 0.117208 0.617208 0.250000
O O9 0.250000 0.645408 0.336334
O O10 0.149226 0.504179 0.349377
O O11 0.074947 0.656650 0.369793
O O12 0.939134 0.750000 0.407438
O O13 0.250000 0.388340 0.412522
#
# Coordination Sequence:
#
# PCOD8318410 Si02
#       5
#    16  16  16  16  16
#     4  10  18  30  51  77 102 131 168 210 263 312
#     4  10  18  32  51  73 103 134 168 212 262 307
#     4  11  21  33  50  74 107 143 173 200 239 297
#     4  10  19  32  50  73 104 137 170 209 253 303
#     4   9  17  32  51  71 103 139 168 207 255 304
#
# _framework density 17.983476
#
# number of rings (size 3 to 8) (size 9 to 14) (size 15 to 20)
#    0.000    2.000    4.000    1.800    0.000    2.600 
#    0.000    6.000    0.000    1.200    0.000    2.800 
#    0.000    1.600    0.000    0.000    0.000    0.000 
#
# Total GULP energy -991147.310897 kJ/mol
# GULP energy per Si atom -12389.341386 kJ/mol
# Density = 1.794254 g / cm^3
# Si number density = 17.983476 Si / 1000 Ang^3
#
#
#
# Elastic Constant Matrix: (Units=GPa)
#
#
# Indices 1 2 3 4 5 6 
#
# 1 99.0992 107.4565 25.5360 0.0000 0.0000 0.0000
# 2 107.4565 99.0992 25.5360 0.0000 0.0000 0.0000
# 3 25.5360 25.5360 47.3932 0.0000 0.0000 0.0000
# 4 0.0000 0.0000 0.0000 7.2554 0.0000 0.0000
# 5 0.0000 0.0000 0.0000 0.0000 7.2554 0.0000
# 6 0.0000 0.0000 0.0000 0.0000 0.0000 11.0423
#
#
#
# Elastic Compliance Matrix: (Units=1/GPa)
#
#
# Indices 1 2 3 4 5 6 
#
# 1 -0.057036 0.062621 -0.003009 0.000000 0.000000 0.000000
# 2 0.062621 -0.057036 -0.003009 0.000000 0.000000 0.000000
# 3 -0.003009 -0.003009 0.024343 0.000000 0.000000 0.000000
# 4 0.000000 0.000000 0.000000 0.137828 0.000000 0.000000
# 5 0.000000 0.000000 0.000000 0.000000 0.137828 0.000000
# 6 0.000000 0.000000 0.000000 0.000000 0.000000 0.090561
#
#
# Mechanical properties :
#
#
# Convention : Reuss Voigt Hill
#
# Bulk Modulus (GPa) = 42.59661 62.51650 52.55656
# Shear Modulus (GPa) = 29.22114 10.91486 20.06800
#
# Velocity S-wave (km/s) = 4.03536 2.46628 3.34415
# Velocity P-wave (km/s) = 6.74167 6.55354 6.64827
#
# Compressibility (1/GPa) = 0.02347605
#
# Stress axis : x y z
#
# Youngs Moduli (GPa) = -17.53287 -17.53287 41.07934
#
# Poissons Ratio (x) = 1.09793 0.12363
# Poissons Ratio (y) = 1.09793 0.12363
# Poissons Ratio (z) = -0.05276 -0.05276
#
# Static dielectric constant tensor:
#      x y z
#    x 3.489010 0.000000 0.000000 
#    y 0.000000 3.489010 0.000000 
#    z 0.000000 0.000000 2.956610 
# 
# 
# High freq. dielectric constant tensor:
#      x y z
#    x 1.701220 0.000000 0.000000 
#    y 0.000000 1.701220 0.000000 
#    z 0.000000 0.000000 1.639200 
# 
# From -- ./inp_files/7574.got.cif
#   From: 2010.03.12/outbox.cif.g09.slc.cpg/sg137_4_cif.got.tgz:7574.got - 2010.04.08 09:34:49.
