data_PCOD8318419
_publ_section_title
;
Structure prediction by ZEFSAII (Michael W. Deem and Ramdas Pophale) SiO2 
 PCOD8318419
Probable space group: P 42/N M C
;
_chemical_formula_sum "Si O2"
_cell_formula_units_Z 96
_cell_length_a 18.152750
_cell_length_b 18.152750
_cell_length_c 16.635802
_cell_angle_alpha 90.000000
_cell_angle_beta 90.000000
_cell_angle_gamma 90.000000
_cell_volume 5481.868279
_symmetry_space_group_name_H-M "P 42/N M C"
_symmetry_group_IT_number 137
_space_group.IT_coordinate_system_code '2'
_symmetry_cell_setting 'tetragonal'
loop_
_space_group_symop_operation_xyz
x,y,z
1/2-y,x,1/2+z
1/2-x,1/2-y,z
y,1/2-x,1/2+z
1/2+x,-y,-z
-x,1/2+y,-z
1/2+y,1/2+x,1/2-z
-y,-x,1/2-z
-x,-y,-z
1/2+y,-x,1/2-z
1/2+x,1/2+y,-z
-y,1/2+x,1/2-z
1/2-x,y,z
x,1/2-y,z
1/2-y,1/2-x,1/2+z
y,x,1/2+z
loop_
_atom_site_type_symbol
_atom_site_label
_atom_site_fract_x
_atom_site_fract_y
_atom_site_fract_z
Si Si1 0.049906 0.465296 0.315888
Si Si2 0.837850 0.534376 0.554888
Si Si3 0.407169 0.954017 0.584421
Si Si4 0.335805 0.668055 0.839675
Si Si5 0.436234 0.335402 0.197238
Si Si6 0.168223 0.163338 0.056937
O O1 0.131064 0.475713 0.354631
O O2 0.054511 0.384784 0.276179
O O3 0.028021 0.528021 0.250000
O O4 0.990882 0.469781 0.388823
O O5 0.750000 0.518551 0.553275
O O6 0.887031 0.475789 0.505781
O O7 0.856991 0.615298 0.518308
O O8 0.390037 0.867903 0.596306
O O9 0.346898 0.992523 0.642273
O O10 0.357877 0.642124 0.750000
O O11 0.250000 0.666490 0.850417
O O12 0.365676 0.750000 0.856394
O O13 0.429080 0.250000 0.222991
O O14 0.366727 0.362247 0.142244
O O15 0.250000 0.127820 0.045805
O O16 0.175680 0.250000 0.060258
#
# Coordination Sequence:
#
# PCOD8318419 Si02
#       6
#    16  16  16  16  16  16
#     4  10  21  33  48  71  98 126 158 203 247 290
#     4  10  20  34  52  70  90 124 166 203 246 297
#     4  10  18  31  49  67  93 126 158 193 237 290
#     4   9  16  25  41  68  98 124 150 185 232 285
#     4   9  17  29  47  71  98 131 162 184 224 286
#     4   8  15  29  48  70  97 128 161 195 229 270
#
# _framework density 17.512278999999999
#
# number of rings (size 3 to 8) (size 9 to 14) (size 15 to 20)
#    0.000    2.667    0.000    5.000    0.000    3.333 
#    0.000    0.000    0.000    1.000    0.000    0.000 
#    0.000    0.000    0.000    0.000    0.000    0.000 
#
# Total GULP energy -1189329.113006 kJ/mol
# GULP energy per Si atom -12388.844927 kJ/mol
# Density = 1.747242 g / cm^3
# Si number density = 17.512279 Si / 1000 Ang^3
#
#
#
# Elastic Constant Matrix: (Units=GPa)
#
#
# Indices 1 2 3 4 5 6 
#
# 1 55.7921 28.5110 34.7423 0.0000 0.0000 0.0000
# 2 28.5110 55.7917 34.7424 0.0000 0.0000 0.0000
# 3 34.7423 34.7424 77.8352 0.0000 0.0000 0.0000
# 4 0.0000 0.0000 0.0000 20.6891 0.0000 0.0000
# 5 0.0000 0.0000 0.0000 0.0000 20.6891 0.0000
# 6 0.0000 0.0000 0.0000 0.0000 0.0000 17.8071
#
#
#
# Elastic Compliance Matrix: (Units=1/GPa)
#
#
# Indices 1 2 3 4 5 6 
#
# 1 0.027711 -0.008945 -0.008376 0.000000 0.000000 0.000000
# 2 -0.008945 0.027711 -0.008377 0.000000 0.000000 0.000000
# 3 -0.008376 -0.008377 0.020325 0.000000 0.000000 0.000000
# 4 0.000000 0.000000 0.000000 0.048335 0.000000 0.000000
# 5 0.000000 0.000000 0.000000 0.000000 0.048335 0.000000
# 6 0.000000 0.000000 0.000000 0.000000 0.000000 0.056158
#
#
# Mechanical properties :
#
#
# Convention : Reuss Voigt Hill
#
# Bulk Modulus (GPa) = 41.06445 42.82337 41.94391
# Shear Modulus (GPa) = 17.35591 17.93193 17.64392
#
# Velocity S-wave (km/s) = 3.15154 3.20341 3.17758
# Velocity P-wave (km/s) = 6.06159 6.17972 6.12094
#
# Compressibility (1/GPa) = 0.02435196
#
# Stress axis : x y z
#
# Youngs Moduli (GPa) = 36.08721 36.08669 49.19953
#
# Poissons Ratio (x) = 0.32279 0.41211
# Poissons Ratio (y) = 0.32279 0.41212
# Poissons Ratio (z) = 0.30228 0.30228
#
# Static dielectric constant tensor:
#      x y z
#    x 3.348100 0.000000 0.000000 
#    y 0.000000 3.348100 0.000000 
#    z 0.000000 0.000000 3.135250 
# 
# 
# High freq. dielectric constant tensor:
#      x y z
#    x 1.665870 0.000000 0.000000 
#    y 0.000000 1.665870 0.000000 
#    z 0.000000 0.000000 1.653860 
# 
# From -- ./inp_files/6484.got.cif
#   From: 2010.03.12/outbox.cif.g09.slc.cpg/sg137_4_cif.got.tgz:6484.got - 2010.04.08 09:34:49.
