data_PCOD8318197
_publ_section_title
;
Structure prediction by ZEFSAII (Michael W. Deem and Ramdas Pophale) SiO2 
 PCOD8318197
Probable space group: P 42/M N M
;
_chemical_formula_sum "Si O2"
_cell_formula_units_Z 88
_cell_length_a 12.496418
_cell_length_b 12.496418
_cell_length_c 28.167868
_cell_angle_alpha 90.000000
_cell_angle_beta 90.000000
_cell_angle_gamma 90.000000
_cell_volume 4398.707304
_symmetry_space_group_name_H-M "P 42/M N M"
_symmetry_group_IT_number 136
_symmetry_cell_setting 'tetragonal'
loop_
_space_group_symop_operation_xyz
x,y,z
1/2-y,1/2+x,1/2+z
-x,-y,z
1/2+y,1/2-x,1/2+z
1/2+x,1/2-y,1/2-z
1/2-x,1/2+y,1/2-z
y,x,-z
-y,-x,-z
-x,-y,-z
1/2+y,1/2-x,1/2-z
x,y,-z
1/2-y,1/2+x,1/2-z
1/2-x,1/2+y,1/2+z
1/2+x,1/2-y,1/2+z
-y,-x,z
y,x,z
loop_
_atom_site_type_symbol
_atom_site_label
_atom_site_fract_x
_atom_site_fract_y
_atom_site_fract_z
Si Si1 0.584302 0.584302 0.556501
Si Si2 0.606104 0.217898 0.103083
Si Si3 0.684467 0.017773 0.944626
Si Si4 0.801065 0.628269 0.699191
Si Si5 0.803524 0.632108 0.109504
Si Si6 0.711559 0.882853 0.206233
O O1 0.500000 0.500000 0.576205
O O2 0.588235 0.588235 0.500000
O O3 0.698887 0.548267 0.576497
O O4 0.681511 0.318490 0.089545
O O5 0.613900 0.123117 0.064316
O O6 0.633878 0.171371 0.154436
O O7 0.482436 0.253723 0.102088
O O8 0.638045 0.915148 0.918287
O O9 0.688194 0.990714 0.000000
O O10 0.689651 0.689651 0.705791
O O11 0.874841 0.644497 0.745308
O O12 0.771585 0.505190 0.691865
O O13 0.723772 0.723772 0.090123
O O14 0.823739 0.644832 0.165362
O O15 0.827814 0.827814 0.212355
#
# Coordination Sequence:
#
# PCOD8318197 Si02
#       6
#     8  16  16  16  16  16
#     4   9  18  34  58  88 123 159 193 241 308 366
#     4  11  23  40  62  89 120 158 207 253 301 363
#     4  11  22  39  62  90 122 157 201 251 302 362
#     4  10  21  37  58  86 118 156 200 247 301 358
#     4  11  24  40  60  89 122 159 205 252 303 363
#     4  10  21  37  58  86 119 156 198 247 302 359
#
# _framework density 20.005877000000002
#
# number of rings (size 3 to 8) (size 9 to 14) (size 15 to 20)
#    0.000    1.545    2.727    2.182    0.000    5.091 
#    0.000    0.000    0.000    6.545    0.000    2.545 
#    0.000    0.000    0.000    0.000    0.000    0.000 
#
# Total GULP energy -1091462.154977 kJ/mol
# GULP energy per Si atom -12402.979034 kJ/mol
# Density = 1.996034 g / cm^3
# Si number density = 20.005877 Si / 1000 Ang^3
#
#
#
# Elastic Constant Matrix: (Units=GPa)
#
#
# Indices 1 2 3 4 5 6 
#
# 1 111.9612 46.5689 10.3917 0.0000 0.0000 0.0000
# 2 46.5689 111.9612 10.3917 0.0000 0.0000 0.0000
# 3 10.3917 10.3917 58.7433 0.0000 0.0000 0.0000
# 4 0.0000 0.0000 0.0000 24.9437 0.0000 0.0000
# 5 0.0000 0.0000 0.0000 0.0000 24.9437 0.0000
# 6 0.0000 0.0000 0.0000 0.0000 0.0000 20.3445
#
#
#
# Elastic Compliance Matrix: (Units=1/GPa)
#
#
# Indices 1 2 3 4 5 6 
#
# 1 0.010875 -0.004417 -0.001142 0.000000 0.000000 0.000000
# 2 -0.004417 0.010875 -0.001142 0.000000 0.000000 0.000000
# 3 -0.001142 -0.001142 0.017427 0.000000 0.000000 0.000000
# 4 0.000000 0.000000 0.000000 0.040090 0.000000 0.000000
# 5 0.000000 0.000000 0.000000 0.000000 0.040090 0.000000
# 6 0.000000 0.000000 0.000000 0.000000 0.000000 0.049153
#
#
# Mechanical properties :
#
#
# Convention : Reuss Voigt Hill
#
# Bulk Modulus (GPa) = 38.79978 46.37446 42.58712
# Shear Modulus (GPa) = 26.24583 28.40061 27.32322
#
# Velocity S-wave (km/s) = 3.62595 3.77186 3.69963
# Velocity P-wave (km/s) = 6.08000 6.49615 6.29152
#
# Compressibility (1/GPa) = 0.02577334
#
# Stress axis : x y z
#
# Youngs Moduli (GPa) = 91.95385 91.95385 57.38095
#
# Poissons Ratio (x) = 0.40619 0.06555
# Poissons Ratio (y) = 0.40619 0.06555
# Poissons Ratio (z) = 0.10505 0.10505
#
# Static dielectric constant tensor:
#      x y z
#    x 3.619740 0.000000 0.000000 
#    y 0.000000 3.619740 0.000000 
#    z 0.000000 0.000000 3.611840 
# 
# 
# High freq. dielectric constant tensor:
#      x y z
#    x 1.777950 0.000000 0.000000 
#    y 0.000000 1.777950 0.000000 
#    z 0.000000 0.000000 1.781120 
# 
# From -- ./inp_files/9690.got.cif
#   From: 2010.03.12/outbox.cif.g09.slc.cpg/sg136_5_cif.got.tgz:9690.got - 2010.04.06 18:39:43.
