data_PCOD8318429
_publ_section_title
;
Structure prediction by ZEFSAII (Michael W. Deem and Ramdas Pophale) SiO2 
 PCOD8318429
Probable space group: P 42/N M C
;
_chemical_formula_sum "Si O2"
_cell_formula_units_Z 64
_cell_length_a 10.033356
_cell_length_b 10.033356
_cell_length_c 38.228820
_cell_angle_alpha 90.000000
_cell_angle_beta 90.000000
_cell_angle_gamma 90.000000
_cell_volume 3848.427745
_symmetry_space_group_name_H-M "P 42/N M C"
_symmetry_group_IT_number 137
_space_group.IT_coordinate_system_code '2'
_symmetry_cell_setting 'tetragonal'
loop_
_space_group_symop_operation_xyz
x,y,z
1/2-y,x,1/2+z
1/2-x,1/2-y,z
y,1/2-x,1/2+z
1/2+x,-y,-z
-x,1/2+y,-z
1/2+y,1/2+x,1/2-z
-y,-x,1/2-z
-x,-y,-z
1/2+y,-x,1/2-z
1/2+x,1/2+y,-z
-y,1/2+x,1/2-z
1/2-x,y,z
x,1/2-y,z
1/2-y,1/2-x,1/2+z
y,x,1/2+z
loop_
_atom_site_type_symbol
_atom_site_label
_atom_site_fract_x
_atom_site_fract_y
_atom_site_fract_z
Si Si1 0.591699 0.101340 0.711089
Si Si2 0.250000 0.090614 0.473448
Si Si3 0.408331 0.099140 0.347140
Si Si4 0.595746 0.250000 0.040215
Si Si5 0.904443 0.978520 0.077433
O O1 0.551958 0.051958 0.750000
O O2 0.750000 0.107443 0.708423
O O3 0.534001 0.250000 0.703620
O O4 0.532940 0.995891 0.683249
O O5 0.250000 0.250000 0.481404
O O6 0.122274 0.040254 0.451726
O O7 0.250000 0.008265 0.508970
O O8 0.250000 0.100520 0.346430
O O9 0.463123 0.250000 0.341615
O O10 0.456057 0.034660 0.384016
O O11 0.750000 0.250000 0.026859
O O12 0.565203 0.373895 0.064928
O O13 0.750000 0.945194 0.081417
#
# Coordination Sequence:
#
# PCOD8318429 Si02
#       5
#    16   8  16   8  16
#     4   8  14  25  42  65  91 115 139 174 223 266
#     4  10  18  32  50  66  88 118 150 190 226 262
#     4   9  15  26  46  67  84 111 152 187 209 251
#     4  10  20  32  46  66  92 118 150 184 228 272
#     4   9  17  30  48  67  88 116 153 186 220 264
#
# _framework density 16.630167
#
# number of rings (size 3 to 8) (size 9 to 14) (size 15 to 20)
#    0.000    3.000    1.250    1.500    0.000    0.000 
#    0.000    2.500    2.750    0.000    0.000    0.000 
#    0.000    0.000    0.000    0.000    0.000    0.000 
#
# Total GULP energy -793211.102188 kJ/mol
# GULP energy per Si atom -12393.923472 kJ/mol
# Density = 1.659232 g / cm^3
# Si number density = 16.630167 Si / 1000 Ang^3
#
#
#
# Elastic Constant Matrix: (Units=GPa)
#
#
# Indices 1 2 3 4 5 6 
#
# 1 62.8067 20.3778 44.8582 0.0000 0.0000 0.0000
# 2 20.3778 62.8067 44.8582 0.0000 0.0000 0.0000
# 3 44.8582 44.8582 141.4691 0.0000 0.0000 0.0000
# 4 0.0000 0.0000 0.0000 22.2902 0.0000 0.0000
# 5 0.0000 0.0000 0.0000 0.0000 22.2902 0.0000
# 6 0.0000 0.0000 0.0000 0.0000 0.0000 3.0461
#
#
#
# Elastic Compliance Matrix: (Units=1/GPa)
#
#
# Indices 1 2 3 4 5 6 
#
# 1 0.020919 -0.002650 -0.005793 0.000000 0.000000 0.000000
# 2 -0.002650 0.020919 -0.005793 0.000000 0.000000 0.000000
# 3 -0.005793 -0.005793 0.010742 0.000000 0.000000 0.000000
# 4 0.000000 0.000000 0.000000 0.044863 0.000000 0.000000
# 5 0.000000 0.000000 0.000000 0.000000 0.044863 0.000000
# 6 0.000000 0.000000 0.000000 0.000000 0.000000 0.328284
#
#
# Mechanical properties :
#
#
# Convention : Reuss Voigt Hill
#
# Bulk Modulus (GPa) = 41.47797 54.14121 47.80959
# Shear Modulus (GPa) = 9.86003 19.99120 14.92561
#
# Velocity S-wave (km/s) = 2.43760 3.47090 2.99908
# Velocity P-wave (km/s) = 5.73742 6.97779 6.38779
#
# Compressibility (1/GPa) = 0.02410919
#
# Stress axis : x y z
#
# Youngs Moduli (GPa) = 47.80321 47.80321 93.08844
#
# Poissons Ratio (x) = 0.12667 0.53926
# Poissons Ratio (y) = 0.12667 0.53926
# Poissons Ratio (z) = 0.27692 0.27692
#
# Static dielectric constant tensor:
#      x y z
#    x 2.138350 0.000000 0.000000 
#    y 0.000000 2.138350 0.000000 
#    z 0.000000 0.000000 3.375490 
# 
# 
# High freq. dielectric constant tensor:
#      x y z
#    x 1.611150 0.000000 0.000000 
#    y 0.000000 1.611150 0.000000 
#    z 0.000000 0.000000 1.652910 
# 
# From -- ./inp_files/9443.got.cif
#   From: 2010.03.12/outbox.cif.g09.slc.cpg/sg137_5_cif.got.tgz:9443.got - 2010.04.08 09:34:49.
