data_PCOD8318587
_publ_section_title
;
Structure prediction by ZEFSAII (Michael W. Deem and Ramdas Pophale) SiO2 
 PCOD8318587
Probable space group: P 42/N M C
;
_chemical_formula_sum "Si O2"
_cell_formula_units_Z 88
_cell_length_a 17.111924
_cell_length_b 17.111924
_cell_length_c 14.461141
_cell_angle_alpha 90.000000
_cell_angle_beta 90.000000
_cell_angle_gamma 90.000000
_cell_volume 4234.481561
_symmetry_space_group_name_H-M "P 42/N M C"
_symmetry_group_IT_number 137
_space_group.IT_coordinate_system_code '2'
_symmetry_cell_setting 'tetragonal'
loop_
_space_group_symop_operation_xyz
x,y,z
1/2-y,x,1/2+z
1/2-x,1/2-y,z
y,1/2-x,1/2+z
1/2+x,-y,-z
-x,1/2+y,-z
1/2+y,1/2+x,1/2-z
-y,-x,1/2-z
-x,-y,-z
1/2+y,-x,1/2-z
1/2+x,1/2+y,-z
-y,1/2+x,1/2-z
1/2-x,y,z
x,1/2-y,z
1/2-y,1/2-x,1/2+z
y,x,1/2+z
loop_
_atom_site_type_symbol
_atom_site_label
_atom_site_fract_x
_atom_site_fract_y
_atom_site_fract_z
Si Si1 0.750000 0.657697 0.118200
Si Si2 0.840609 0.750000 0.415632
Si Si3 0.604494 0.927501 0.864999
Si Si4 0.920431 0.657629 0.174054
Si Si5 0.337284 0.837284 0.250000
Si Si6 0.658303 0.013051 0.486479
Si Si7 0.159125 0.918106 0.060413
O O1 0.750000 0.750000 0.109116
O O2 0.829620 0.631597 0.168120
O O3 0.750000 0.619421 0.016520
O O4 0.750000 0.750000 0.428385
O O5 0.862913 0.827345 0.360292
O O6 0.604351 0.956560 0.757457
O O7 0.524254 0.888390 0.899867
O O8 0.630127 0.992893 0.939255
O O9 0.931299 0.750000 0.194185
O O10 0.966325 0.636038 0.080022
O O11 0.349877 0.750000 0.211745
O O12 0.392832 0.854892 0.334591
O O13 0.750000 0.007827 0.465911
O O14 0.632740 0.103895 0.493212
O O15 0.250000 0.909000 0.030142
#
# Coordination Sequence:
#
# PCOD8318587 Si02
#       7
#     8   8  16  16   8  16  16
#     4   9  18  32  50  77 111 154 197 229 277 343
#     4  11  20  34  54  79 116 158 197 233 284 351
#     4  12  22  36  56  85 118 151 191 241 298 351
#     4  10  20  33  54  83 116 155 193 236 288 347
#     4   9  18  34  60  88 116 152 196 239 282 344
#     4  11  24  40  58  84 120 156 196 244 290 346
#     4  11  22  38  58  83 115 154 194 237 294 351
#
# _framework density 20.781765
#
# number of rings (size 3 to 8) (size 9 to 14) (size 15 to 20)
#    0.000    1.364    3.636    2.727    2.545    4.000 
#    0.000    0.000    0.000    0.000    0.000    0.000 
#    0.000    1.455    0.000   10.000    0.000    1.455 
#
# Total GULP energy -1090816.746676 kJ/mol
# GULP energy per Si atom -12395.644849 kJ/mol
# Density = 2.073446 g / cm^3
# Si number density = 20.781765 Si / 1000 Ang^3
#
#
#
# Elastic Constant Matrix: (Units=GPa)
#
#
# Indices 1 2 3 4 5 6 
#
# 1 75.1485 17.2031 2.9272 0.0000 0.0000 0.0000
# 2 17.2031 75.1485 2.9272 0.0000 0.0000 0.0000
# 3 2.9272 2.9272 50.8668 0.0000 0.0000 0.0000
# 4 0.0000 0.0000 0.0000 25.6588 0.0000 0.0000
# 5 0.0000 0.0000 0.0000 0.0000 25.6588 0.0000
# 6 0.0000 0.0000 0.0000 0.0000 0.0000 28.1552
#
#
#
# Elastic Compliance Matrix: (Units=1/GPa)
#
#
# Indices 1 2 3 4 5 6 
#
# 1 0.014063 -0.003195 -0.000625 0.000000 0.000000 0.000000
# 2 -0.003195 0.014063 -0.000625 0.000000 0.000000 0.000000
# 3 -0.000625 -0.000625 0.019731 0.000000 0.000000 0.000000
# 4 0.000000 0.000000 0.000000 0.038973 0.000000 0.000000
# 5 0.000000 0.000000 0.000000 0.000000 0.038973 0.000000
# 6 0.000000 0.000000 0.000000 0.000000 0.000000 0.035517
#
#
# Mechanical properties :
#
#
# Convention : Reuss Voigt Hill
#
# Bulk Modulus (GPa) = 25.66395 27.47545 26.56970
# Shear Modulus (GPa) = 27.29260 27.76831 27.53045
#
# Velocity S-wave (km/s) = 3.62787 3.65935 3.64365
# Velocity P-wave (km/s) = 5.47035 5.57711 5.52399
#
# Compressibility (1/GPa) = 0.03896517
#
# Stress axis : x y z
#
# Youngs Moduli (GPa) = 71.11001 71.11001 50.68123
#
# Poissons Ratio (x) = 0.22719 0.03170
# Poissons Ratio (y) = 0.22719 0.03170
# Poissons Ratio (z) = 0.04447 0.04447
#
# Static dielectric constant tensor:
#      x y z
#    x 3.754980 0.000000 0.000000 
#    y 0.000000 3.754980 0.000000 
#    z 0.000000 0.000000 4.266810 
# 
# 
# High freq. dielectric constant tensor:
#      x y z
#    x 1.806450 0.000000 0.000000 
#    y 0.000000 1.806450 0.000000 
#    z 0.000000 0.000000 1.789910 
# 
# From -- ./inp_files/5151.got.cif
#   From: 2010.03.12/outbox.cif.g09.slc.cpg/sg137_3_cif.got.tgz:5151.got - 2010.04.08 09:34:49.
