data_PCOD8318580
_publ_section_title
;
Structure prediction by ZEFSAII (Michael W. Deem and Ramdas Pophale) SiO2 
 PCOD8318580
Probable space group: P 42/N M C
;
_chemical_formula_sum "Si O2"
_cell_formula_units_Z 112
_cell_length_a 14.670232
_cell_length_b 14.670232
_cell_length_c 30.306041
_cell_angle_alpha 90.000000
_cell_angle_beta 90.000000
_cell_angle_gamma 90.000000
_cell_volume 6522.336038
_symmetry_space_group_name_H-M "P 42/N M C"
_symmetry_group_IT_number 137
_space_group.IT_coordinate_system_code '2'
_symmetry_cell_setting 'tetragonal'
loop_
_space_group_symop_operation_xyz
x,y,z
1/2-y,x,1/2+z
1/2-x,1/2-y,z
y,1/2-x,1/2+z
1/2+x,-y,-z
-x,1/2+y,-z
1/2+y,1/2+x,1/2-z
-y,-x,1/2-z
-x,-y,-z
1/2+y,-x,1/2-z
1/2+x,1/2+y,-z
-y,1/2+x,1/2-z
1/2-x,y,z
x,1/2-y,z
1/2-y,1/2-x,1/2+z
y,x,1/2+z
loop_
_atom_site_type_symbol
_atom_site_label
_atom_site_fract_x
_atom_site_fract_y
_atom_site_fract_z
Si Si1 0.355868 0.250000 0.966855
Si Si2 0.967745 0.580362 0.156174
Si Si3 0.144098 0.851775 0.301124
Si Si4 0.940443 0.640049 0.491804
Si Si5 0.353703 0.930459 0.795162
Si Si6 0.648553 0.347765 0.385731
Si Si7 0.140469 0.250000 0.867195
Si Si8 0.976216 0.478324 0.067931
O O1 0.250000 0.250000 0.958267
O O2 0.397637 0.250000 0.917658
O O3 0.384272 0.162829 0.995351
O O4 0.921218 0.509359 0.188889
O O5 0.901386 0.666090 0.159418
O O6 0.973302 0.556296 0.104547
O O7 0.072002 0.593302 0.170714
O O8 0.127416 0.872585 0.250000
O O9 0.250000 0.855957 0.312723
O O10 0.106783 0.750000 0.312799
O O11 0.956497 0.750000 0.485164
O O12 0.963597 0.580833 0.448043
O O13 0.003148 0.598036 0.529855
O O14 0.388398 0.888398 0.750000
O O15 0.250000 0.966718 0.789160
O O16 0.358496 0.853452 0.832827
O O17 0.750000 0.340193 0.402534
O O18 0.598781 0.250000 0.397834
O O19 0.611360 0.437635 0.409034
O O20 0.250000 0.250000 0.864118
#
# Coordination Sequence:
#
# PCOD8318580 Si02
#       8
#     8  16  16  16  16  16   8  16
#     4   9  18  32  54  73  95 135 173 210 254 311
#     4  11  20  34  52  80 109 135 175 219 271 314
#     4   9  18  33  53  76 103 138 177 214 257 316
#     4  10  20  35  51  74 101 131 170 210 254 305
#     4  10  20  33  52  77 107 140 176 215 258 310
#     4   9  18  32  50  72  99 132 168 206 250 300
#     4  11  20  32  53  79 107 137 172 220 271 317
#     4  10  21  32  51  76 101 133 164 214 259 307
#
# _framework density 17.171762000000001
#
# number of rings (size 3 to 8) (size 9 to 14) (size 15 to 20)
#    0.000    2.143    2.143    2.143    1.000    2.429 
#    0.000    0.000    0.000    0.000    0.000    0.000 
#    0.000    0.000    0.000    0.000    0.000    0.000 
#
# Total GULP energy -1387611.147526 kJ/mol
# GULP energy per Si atom -12389.385246 kJ/mol
# Density = 1.713268 g / cm^3
# Si number density = 17.171762 Si / 1000 Ang^3
#
#
#
# Elastic Constant Matrix: (Units=GPa)
#
#
# Indices 1 2 3 4 5 6 
#
# 1 99.9987 40.3715 39.1285 0.0000 0.0000 0.0000
# 2 40.3715 99.9986 39.1286 0.0000 0.0000 0.0000
# 3 39.1285 39.1286 78.4282 0.0000 0.0000 0.0000
# 4 0.0000 0.0000 0.0000 -6.4920 0.0000 0.0000
# 5 0.0000 0.0000 0.0000 0.0000 -6.4922 0.0000
# 6 0.0000 0.0000 0.0000 0.0000 0.0000 24.1510
#
#
#
# Elastic Compliance Matrix: (Units=1/GPa)
#
#
# Indices 1 2 3 4 5 6 
#
# 1 0.013320 -0.003451 -0.004924 0.000000 0.000000 0.000000
# 2 -0.003451 0.013320 -0.004924 0.000000 0.000000 0.000000
# 3 -0.004924 -0.004924 0.017664 0.000000 0.000000 0.000000
# 4 0.000000 0.000000 0.000000 -0.154035 0.000000 0.000000
# 5 0.000000 0.000000 0.000000 0.000000 -0.154032 0.000000
# 6 0.000000 0.000000 0.000000 0.000000 0.000000 0.041406
#
#
# Mechanical properties :
#
#
# Convention : Reuss Voigt Hill
#
# Bulk Modulus (GPa) = 56.47613 57.29806 56.88709
# Shear Modulus (GPa) = -26.33545 12.88649 -6.72448
#
# Velocity S-wave (km/s) = -3.92043 2.74240 -1.98104
# Velocity P-wave (km/s) = 3.53091 6.59301 5.28843
#
# Compressibility (1/GPa) = 0.01770660
#
# Stress axis : x y z
#
# Youngs Moduli (GPa) = 75.07532 75.07523 56.61377
#
# Poissons Ratio (x) = 0.25908 0.27875
# Poissons Ratio (y) = 0.25908 0.27875
# Poissons Ratio (z) = 0.36965 0.36965
#
# Static dielectric constant tensor:
#      x y z
#    x 3.106110 0.000000 0.000000 
#    y 0.000000 3.106120 0.000000 
#    z 0.000000 0.000000 3.118630 
# 
# 
# High freq. dielectric constant tensor:
#      x y z
#    x 1.661640 0.000000 0.000000 
#    y 0.000000 1.661640 0.000000 
#    z 0.000000 0.000000 1.655190 
# 
# From -- ./inp_files/9865.got.cif
#   From: 2010.03.12/outbox.cif.g09.slc.cpg/sg137_5_cif.got.tgz:9865.got - 2010.04.08 09:34:49.
