data_PCOD8318566
_publ_section_title
;
Structure prediction by ZEFSAII (Michael W. Deem and Ramdas Pophale) SiO2 
 PCOD8318566
Probable space group: P 42/N M C
;
_chemical_formula_sum "Si O2"
_cell_formula_units_Z 72
_cell_length_a 30.090159
_cell_length_b 30.090159
_cell_length_c 5.249929
_cell_angle_alpha 90.000000
_cell_angle_beta 90.000000
_cell_angle_gamma 90.000000
_cell_volume 4753.378476
_symmetry_space_group_name_H-M "P 42/N M C"
_symmetry_group_IT_number 137
_space_group.IT_coordinate_system_code '2'
_symmetry_cell_setting 'tetragonal'
loop_
_space_group_symop_operation_xyz
x,y,z
1/2-y,x,1/2+z
1/2-x,1/2-y,z
y,1/2-x,1/2+z
1/2+x,-y,-z
-x,1/2+y,-z
1/2+y,1/2+x,1/2-z
-y,-x,1/2-z
-x,-y,-z
1/2+y,-x,1/2-z
1/2+x,1/2+y,-z
-y,1/2+x,1/2-z
1/2-x,y,z
x,1/2-y,z
1/2-y,1/2-x,1/2+z
y,x,1/2+z
loop_
_atom_site_type_symbol
_atom_site_label
_atom_site_fract_x
_atom_site_fract_y
_atom_site_fract_z
Si Si1 0.200377 0.637009 0.376358
Si Si2 0.027864 0.852997 0.701535
Si Si3 0.016942 0.056054 0.247309
Si Si4 0.040118 0.699844 0.226415
Si Si5 0.622350 0.122350 0.250000
O O1 0.181979 0.681979 0.250000
O O2 0.250000 0.647308 0.480267
O O3 0.201138 0.593031 0.198596
O O4 0.167018 0.623088 0.592561
O O5 0.014087 0.820751 0.468299
O O6 0.074668 0.875485 0.611270
O O7 0.991723 0.891571 0.729894
O O8 0.030469 0.827418 0.969574
O O9 0.047918 0.041799 0.481534
O O10 0.970679 0.029322 0.250000
O O11 0.022974 0.750000 0.182995
#
# Coordination Sequence:
#
# PCOD8318566 Si02
#       5
#    16  16  16  16   8
#     4  10  20  33  45  59  79 102 135 187 234 292
#     4  11  19  33  53  67  91 120 145 181 238 276
#     4  10  20  32  46  71  98 118 147 183 224 287
#     4  10  21  33  50  70  88 112 154 195 227 273
#     4  10  20  32  46  65  76 108 148 170 226 306
#
# _framework density 15.147119999999999
#
# number of rings (size 3 to 8) (size 9 to 14) (size 15 to 20)
#    0.000    1.778    3.333    2.000    0.000    2.000 
#    0.000    0.000    0.000    0.000    0.000    0.000 
#    0.000    0.000    0.000    0.000    0.000    0.000 
#
# Total GULP energy -892058.255906 kJ/mol
# GULP energy per Si atom -12389.697999 kJ/mol
# Density = 1.511264 g / cm^3
# Si number density = 15.147120 Si / 1000 Ang^3
#
#
#
# Elastic Constant Matrix: (Units=GPa)
#
#
# Indices 1 2 3 4 5 6 
#
# 1 60.8549 47.5659 27.4967 0.0000 0.0000 0.0000
# 2 47.5659 60.8559 27.4979 0.0000 0.0000 0.0000
# 3 27.4967 27.4979 88.0466 0.0000 0.0000 0.0000
# 4 0.0000 0.0000 0.0000 6.1450 0.0000 0.0000
# 5 0.0000 0.0000 0.0000 0.0000 6.1422 0.0000
# 6 0.0000 0.0000 0.0000 0.0000 0.0000 21.6859
#
#
#
# Elastic Compliance Matrix: (Units=1/GPa)
#
#
# Indices 1 2 3 4 5 6 
#
# 1 0.043103 -0.032144 -0.003422 0.000000 0.000000 0.000000
# 2 -0.032144 0.043103 -0.003423 0.000000 0.000000 0.000000
# 3 -0.003422 -0.003423 0.013495 0.000000 0.000000 0.000000
# 4 0.000000 0.000000 0.000000 0.162734 0.000000 0.000000
# 5 0.000000 0.000000 0.000000 0.000000 0.162807 0.000000
# 6 0.000000 0.000000 0.000000 0.000000 0.000000 0.046113
#
#
# Mechanical properties :
#
#
# Convention : Reuss Voigt Hill
#
# Bulk Modulus (GPa) = 46.03301 46.09760 46.06530
# Shear Modulus (GPa) = 8.98349 13.94108 11.46229
#
# Velocity S-wave (km/s) = 2.43797 3.03706 2.75386
# Velocity P-wave (km/s) = 6.19528 6.54199 6.37100
#
# Compressibility (1/GPa) = 0.02172354
#
# Stress axis : x y z
#
# Youngs Moduli (GPa) = 23.19999 23.20009 74.09908
#
# Poissons Ratio (x) = 0.74574 0.25358
# Poissons Ratio (y) = 0.74574 0.25365
# Poissons Ratio (z) = 0.07939 0.07942
#
# Static dielectric constant tensor:
#      x y z
#    x 2.963590 0.000000 0.000000 
#    y 0.000000 2.963590 0.000000 
#    z 0.000000 0.000000 3.058780 
# 
# 
# High freq. dielectric constant tensor:
#      x y z
#    x 1.552780 0.000000 0.000000 
#    y 0.000000 1.552780 0.000000 
#    z 0.000000 0.000000 1.585260 
# 
# From -- ./inp_files/525.got.cif
#   From: 2010.03.12/outbox.cif.g09.slc.cpg/sg137_1_cif.got.tgz:525.got - 2010.04.08 09:34:49.
