data_PCOD8318464
_publ_section_title
;
Structure prediction by ZEFSAII (Michael W. Deem and Ramdas Pophale) SiO2 
 PCOD8318464
Probable space group: P 42/N M C
;
_chemical_formula_sum "Si O2"
_cell_formula_units_Z 112
_cell_length_a 19.724263
_cell_length_b 19.724263
_cell_length_c 17.980494
_cell_angle_alpha 90.000000
_cell_angle_beta 90.000000
_cell_angle_gamma 90.000000
_cell_volume 6995.249174
_symmetry_space_group_name_H-M "P 42/N M C"
_symmetry_group_IT_number 137
_space_group.IT_coordinate_system_code '2'
_symmetry_cell_setting 'tetragonal'
loop_
_space_group_symop_operation_xyz
x,y,z
1/2-y,x,1/2+z
1/2-x,1/2-y,z
y,1/2-x,1/2+z
1/2+x,-y,-z
-x,1/2+y,-z
1/2+y,1/2+x,1/2-z
-y,-x,1/2-z
-x,-y,-z
1/2+y,-x,1/2-z
1/2+x,1/2+y,-z
-y,1/2+x,1/2-z
1/2-x,y,z
x,1/2-y,z
1/2-y,1/2-x,1/2+z
y,x,1/2+z
loop_
_atom_site_type_symbol
_atom_site_label
_atom_site_fract_x
_atom_site_fract_y
_atom_site_fract_z
Si Si1 0.483487 0.673310 0.271547
Si Si2 0.123905 0.127772 0.193937
Si Si3 0.250000 0.326304 0.781427
Si Si4 0.329119 0.382724 0.531899
Si Si5 0.440815 0.984528 0.675784
Si Si6 0.250000 0.174072 0.955671
Si Si7 0.013888 0.921678 0.985647
Si Si8 0.557922 0.080654 0.856965
O O1 0.458107 0.750000 0.272411
O O2 0.562650 0.670878 0.292160
O O3 0.438673 0.633782 0.332680
O O4 0.470960 0.643766 0.189243
O O5 0.135220 0.182316 0.257823
O O6 0.141512 0.163214 0.116372
O O7 0.045745 0.108176 0.195445
O O8 0.250000 0.250000 0.749272
O O9 0.250000 0.326971 0.868623
O O10 0.250000 0.400111 0.514292
O O11 0.359171 0.319934 0.484144
O O12 0.377051 0.445931 0.512774
O O13 0.437005 0.937005 0.750000
O O14 0.414854 0.951254 0.597061
O O15 0.517651 0.009042 0.662517
O O16 0.250000 0.250000 0.988489
O O17 0.060106 0.898562 0.055512
O O18 0.000000 0.000000 0.000000
#
# Coordination Sequence:
#
# PCOD8318464 Si02
#       8
#    16  16   8  16  16   8  16  16
#     4  10  19  30  51  71  94 127 161 203 247 296
#     4  10  19  31  47  66  93 126 165 199 235 287
#     4  11  22  30  40  64  90 128 168 196 231 278
#     4  10  20  34  48  65  97 136 166 202 247 292
#     4   9  15  31  50  68  86 118 159 207 249 287
#     4   9  22  34  42  62  98 132 171 207 236 283
#     4   9  19  30  50  70  90 123 165 213 250 292
#     4   9  17  33  46  70  97 115 162 209 249 293
#
# _framework density 16.010867000000001
#
# number of rings (size 3 to 8) (size 9 to 14) (size 15 to 20)
#    0.000    2.429    3.571    1.286    4.000    0.571 
#    0.000    0.000    0.000    3.429    0.000    0.000 
#    0.000    0.000    0.000    0.000    0.571    0.929 
#
# Total GULP energy -1387765.613834 kJ/mol
# GULP energy per Si atom -12390.764409 kJ/mol
# Density = 1.597443 g / cm^3
# Si number density = 16.010867 Si / 1000 Ang^3
#
#
#
# Elastic Constant Matrix: (Units=GPa)
#
#
# Indices 1 2 3 4 5 6 
#
# 1 68.6396 31.6925 38.9231 0.0000 0.0000 0.0000
# 2 31.6925 68.6396 38.9231 0.0000 0.0000 0.0000
# 3 38.9231 38.9231 141.0099 0.0000 0.0000 0.0000
# 4 0.0000 0.0000 0.0000 19.8450 0.0000 0.0000
# 5 0.0000 0.0000 0.0000 0.0000 19.8450 0.0000
# 6 0.0000 0.0000 0.0000 0.0000 0.0000 15.8963
#
#
#
# Elastic Compliance Matrix: (Units=1/GPa)
#
#
# Indices 1 2 3 4 5 6 
#
# 1 0.019874 -0.007191 -0.003501 0.000000 0.000000 0.000000
# 2 -0.007191 0.019874 -0.003501 0.000000 0.000000 0.000000
# 3 -0.003501 -0.003501 0.009024 0.000000 0.000000 0.000000
# 4 0.000000 0.000000 0.000000 0.050391 0.000000 0.000000
# 5 0.000000 0.000000 0.000000 0.000000 0.050391 0.000000
# 6 0.000000 0.000000 0.000000 0.000000 0.000000 0.062908
#
#
# Mechanical properties :
#
#
# Convention : Reuss Voigt Hill
#
# Bulk Modulus (GPa) = 49.05067 55.26294 52.15680
# Shear Modulus (GPa) = 20.19026 22.36730 21.27878
#
# Velocity S-wave (km/s) = 3.55496 3.74171 3.64953
# Velocity P-wave (km/s) = 6.89584 7.29781 7.09967
#
# Compressibility (1/GPa) = 0.02038708
#
# Stress axis : x y z
#
# Youngs Moduli (GPa) = 50.31576 50.31576 110.81005
#
# Poissons Ratio (x) = 0.36183 0.38794
# Poissons Ratio (y) = 0.36183 0.38794
# Poissons Ratio (z) = 0.17615 0.17615
#
# Static dielectric constant tensor:
#      x y z
#    x 2.849540 0.000000 0.000000 
#    y 0.000000 2.849540 0.000000 
#    z 0.000000 0.000000 3.535510 
# 
# 
# High freq. dielectric constant tensor:
#      x y z
#    x 1.586900 0.000000 0.000000 
#    y 0.000000 1.586900 0.000000 
#    z 0.000000 0.000000 1.636360 
# 
# From -- ./inp_files/6825.got.cif
#   From: 2010.03.12/outbox.cif.g09.slc.cpg/sg137_4_cif.got.tgz:6825.got - 2010.04.08 09:34:49.
