data_PCOD8318510
_publ_section_title
;
Structure prediction by ZEFSAII (Michael W. Deem and Ramdas Pophale) SiO2 
 PCOD8318510
Probable space group: P 42/N M C
;
_chemical_formula_sum "Si O2"
_cell_formula_units_Z 128
_cell_length_a 17.790452
_cell_length_b 17.790452
_cell_length_c 22.090927
_cell_angle_alpha 90.000000
_cell_angle_beta 90.000000
_cell_angle_gamma 90.000000
_cell_volume 6991.782424
_symmetry_space_group_name_H-M "P 42/N M C"
_symmetry_group_IT_number 137
_space_group.IT_coordinate_system_code '2'
_symmetry_cell_setting 'tetragonal'
loop_
_space_group_symop_operation_xyz
x,y,z
1/2-y,x,1/2+z
1/2-x,1/2-y,z
y,1/2-x,1/2+z
1/2+x,-y,-z
-x,1/2+y,-z
1/2+y,1/2+x,1/2-z
-y,-x,1/2-z
-x,-y,-z
1/2+y,-x,1/2-z
1/2+x,1/2+y,-z
-y,1/2+x,1/2-z
1/2-x,y,z
x,1/2-y,z
1/2-y,1/2-x,1/2+z
y,x,1/2+z
loop_
_atom_site_type_symbol
_atom_site_label
_atom_site_fract_x
_atom_site_fract_y
_atom_site_fract_z
Si Si1 0.402776 0.663074 0.346704
Si Si2 0.162901 0.164561 0.527680
Si Si3 0.911271 0.970696 0.774954
Si Si4 0.165713 0.512167 0.338538
Si Si5 0.058848 0.077256 0.947474
Si Si6 0.053611 0.910869 0.943191
Si Si7 0.941580 0.838025 0.860038
Si Si8 0.333723 0.834605 0.473588
O O1 0.387686 0.750000 0.325130
O O2 0.485054 0.633425 0.328246
O O3 0.345187 0.600669 0.319070
O O4 0.393111 0.657669 0.419014
O O5 0.250000 0.156351 0.512170
O O6 0.137802 0.250000 0.537820
O O7 0.120363 0.134216 0.467766
O O8 0.144586 0.122220 0.590281
O O9 0.855161 0.960533 0.718596
O O10 0.928997 0.887786 0.799839
O O11 0.985304 0.014697 0.750000
O O12 0.250000 0.496171 0.357378
O O13 0.116057 0.489950 0.395679
O O14 0.080690 0.994129 0.923607
O O15 0.009551 0.076777 0.007196
O O16 0.021648 0.864207 0.886640
O O17 0.121290 0.861871 0.968388
O O18 0.943387 0.750000 0.842148
O O19 0.250000 0.862852 0.453224
O O20 0.328224 0.750000 0.495750
#
# Coordination Sequence:
#
# PCOD8318510 Si02
#       8
#    16  16  16  16  16  16  16  16
#     4  10  20  33  51  77 111 149 184 221 264 320
#     4   9  19  34  53  80 113 147 184 230 279 331
#     4  10  22  38  55  79 109 142 188 234 273 327
#     4  11  21  35  55  77 108 150 188 231 275 323
#     4  10  20  32  52  79 110 143 185 223 274 327
#     4  10  19  33  54  81 107 139 179 224 269 328
#     4  10  21  38  61  82 104 140 183 234 286 331
#     4  10  20  32  50  80 115 146 175 214 268 329
#
# _framework density 18.307206000000001
#
# number of rings (size 3 to 8) (size 9 to 14) (size 15 to 20)
#    0.000    2.000    1.250    3.000    3.500    3.250 
#    0.000    1.250    0.000    6.750    0.000    0.000 
#    0.000    0.000    0.000    0.000    0.000    0.000 
#
# Total GULP energy -1586448.040454 kJ/mol
# GULP energy per Si atom -12394.125316 kJ/mol
# Density = 1.826554 g / cm^3
# Si number density = 18.307206 Si / 1000 Ang^3
#
#
#
# Elastic Constant Matrix: (Units=GPa)
#
#
# Indices 1 2 3 4 5 6 
#
# 1 96.2403 42.8472 37.9655 0.0000 0.0000 0.0000
# 2 42.8472 96.2417 37.9660 0.0000 0.0000 0.0000
# 3 37.9655 37.9660 56.6868 0.0000 0.0000 0.0000
# 4 0.0000 0.0000 0.0000 26.6972 0.0000 0.0000
# 5 0.0000 0.0000 0.0000 0.0000 26.6975 0.0000
# 6 0.0000 0.0000 0.0000 0.0000 0.0000 21.5137
#
#
#
# Elastic Compliance Matrix: (Units=1/GPa)
#
#
# Indices 1 2 3 4 5 6 
#
# 1 0.015031 -0.003698 -0.007591 0.000000 0.000000 0.000000
# 2 -0.003698 0.015031 -0.007591 0.000000 0.000000 0.000000
# 3 -0.007591 -0.007591 0.027808 0.000000 0.000000 0.000000
# 4 0.000000 0.000000 0.000000 0.037457 0.000000 0.000000
# 5 0.000000 0.000000 0.000000 0.000000 0.037457 0.000000
# 6 0.000000 0.000000 0.000000 0.000000 0.000000 0.046482
#
#
# Mechanical properties :
#
#
# Convention : Reuss Voigt Hill
#
# Bulk Modulus (GPa) = 49.71897 54.08070 51.89983
# Shear Modulus (GPa) = 22.34851 23.67435 23.01143
#
# Velocity S-wave (km/s) = 3.49771 3.59997 3.54921
# Velocity P-wave (km/s) = 6.59766 6.84723 6.72360
#
# Compressibility (1/GPa) = 0.02011305
#
# Stress axis : x y z
#
# Youngs Moduli (GPa) = 66.52806 66.52869 35.96039
#
# Poissons Ratio (x) = 0.24600 0.27296
# Poissons Ratio (y) = 0.24599 0.27296
# Poissons Ratio (z) = 0.50499 0.50500
#
# Static dielectric constant tensor:
#      x y z
#    x 3.442550 0.000000 0.000000 
#    y 0.000000 3.442550 0.000000 
#    z 0.000000 0.000000 3.167300 
# 
# 
# High freq. dielectric constant tensor:
#      x y z
#    x 1.704250 0.000000 0.000000 
#    y 0.000000 1.704250 0.000000 
#    z 0.000000 0.000000 1.685660 
# 
# From -- ./inp_files/9201.got.cif
#   From: 2010.03.12/outbox.cif.g09.slc.cpg/sg137_5_cif.got.tgz:9201.got - 2010.04.08 09:34:49.
