data_PCOD8318250
_publ_section_title
;
Structure prediction by ZEFSAII (Michael W. Deem and Ramdas Pophale) SiO2 
 PCOD8318250
Probable space group: P 42/M N M
;
_chemical_formula_sum "Si O2"
_cell_formula_units_Z 52
_cell_length_a 14.297404
_cell_length_b 14.297404
_cell_length_c 11.726185
_cell_angle_alpha 90.000000
_cell_angle_beta 90.000000
_cell_angle_gamma 90.000000
_cell_volume 2397.017032
_symmetry_space_group_name_H-M "P 42/M N M"
_symmetry_group_IT_number 136
_symmetry_cell_setting 'tetragonal'
loop_
_space_group_symop_operation_xyz
x,y,z
1/2-y,1/2+x,1/2+z
-x,-y,z
1/2+y,1/2-x,1/2+z
1/2+x,1/2-y,1/2-z
1/2-x,1/2+y,1/2-z
y,x,-z
-y,-x,-z
-x,-y,-z
1/2+y,1/2-x,1/2-z
x,y,-z
1/2-y,1/2+x,1/2-z
1/2-x,1/2+y,1/2+z
1/2+x,1/2-y,1/2+z
-y,-x,z
y,x,z
loop_
_atom_site_type_symbol
_atom_site_label
_atom_site_fract_x
_atom_site_fract_y
_atom_site_fract_z
Si Si1 0.074854 0.074854 0.217184
Si Si2 0.000293 0.739004 0.711246
Si Si3 0.223976 0.369841 0.000000
Si Si4 0.342418 0.188008 0.633841
Si Si5 0.669096 0.330905 0.500000
O O1 0.151283 0.024013 0.296415
O O2 0.124041 0.124041 0.110915
O O3 0.000000 0.000000 0.171819
O O4 0.905218 0.680458 0.704173
O O5 0.068325 0.707249 0.610770
O O6 0.053587 0.720032 0.830627
O O7 0.329994 0.329994 0.000000
O O8 0.151578 0.281768 0.000000
O O9 0.339556 0.167566 0.500000
O O10 0.268283 0.268283 0.668053
#
# Coordination Sequence:
#
# PCOD8318250 Si02
#       5
#     8  16   8  16   4
#     4  12  25  41  74 111 144 182 247 311 357 426
#     4  12  24  46  71 107 140 189 242 297 367 427
#     4  10  22  42  71 101 138 188 237 283 357 431
#     4  11  25  48  72 102 147 193 237 297 367 437
#     4  10  25  46  66  99 152 202 224 290 378 431
#
# _framework density 21.693629000000001
#
# number of rings (size 3 to 8) (size 9 to 14) (size 15 to 20)
#    0.462    0.308    3.077    4.846    2.154    1.231 
#    2.769    3.077    0.000    0.000    0.000    0.000 
#    0.000    0.000    0.000    0.000    0.000    0.000 
#
# Total GULP energy -644947.718222 kJ/mol
# GULP energy per Si atom -12402.840735 kJ/mol
# Density = 2.164425 g / cm^3
# Si number density = 21.693629 Si / 1000 Ang^3
#
#
#
# Elastic Constant Matrix: (Units=GPa)
#
#
# Indices 1 2 3 4 5 6 
#
# 1 138.1528 64.3959 39.0117 0.0000 0.0000 0.0000
# 2 64.3959 138.1523 39.0116 0.0000 0.0000 0.0000
# 3 39.0117 39.0116 75.1380 0.0000 0.0000 0.0000
# 4 0.0000 0.0000 0.0000 39.1523 0.0000 0.0000
# 5 0.0000 0.0000 0.0000 0.0000 39.1522 0.0000
# 6 0.0000 0.0000 0.0000 0.0000 0.0000 52.1399
#
#
#
# Elastic Compliance Matrix: (Units=1/GPa)
#
#
# Indices 1 2 3 4 5 6 
#
# 1 0.009865 -0.003693 -0.003204 0.000000 0.000000 0.000000
# 2 -0.003693 0.009865 -0.003204 0.000000 0.000000 0.000000
# 3 -0.003204 -0.003204 0.016636 0.000000 0.000000 0.000000
# 4 0.000000 0.000000 0.000000 0.025541 0.000000 0.000000
# 5 0.000000 0.000000 0.000000 0.000000 0.025541 0.000000
# 6 0.000000 0.000000 0.000000 0.000000 0.000000 0.019179
#
#
# Mechanical properties :
#
#
# Convention : Reuss Voigt Hill
#
# Bulk Modulus (GPa) = 61.87318 70.69795 66.28557
# Shear Modulus (GPa) = 37.81631 40.02382 38.92007
#
# Velocity S-wave (km/s) = 4.17969 4.29996 4.24025
# Velocity P-wave (km/s) = 7.20253 7.57053 7.38882
#
# Compressibility (1/GPa) = 0.01616209
#
# Stress axis : x y z
#
# Youngs Moduli (GPa) = 101.37146 101.37102 60.11037
#
# Poissons Ratio (x) = 0.37440 0.19260
# Poissons Ratio (y) = 0.37440 0.19260
# Poissons Ratio (z) = 0.32481 0.32481
#
# Static dielectric constant tensor:
#      x y z
#    x 3.955240 0.000000 0.000000 
#    y 0.000000 3.955250 0.000000 
#    z 0.000000 0.000000 3.777100 
# 
# 
# High freq. dielectric constant tensor:
#      x y z
#    x 1.856740 0.000000 0.000000 
#    y 0.000000 1.856740 0.000000 
#    z 0.000000 0.000000 1.852290 
# 
# From -- ./inp_files/3124.got.cif
#   From: 2010.03.12/outbox.cif.g09.slc.cpg/sg136_2_cif.got.tgz:3124.got - 2010.04.06 18:39:43.
