data_PCOD8318018
_publ_section_title
;
Structure prediction by ZEFSAII (Michael W. Deem and Ramdas Pophale) SiO2 
 PCOD8318018
Probable space group: P 42/M N M
;
_chemical_formula_sum "Si O2"
_cell_formula_units_Z 72
_cell_length_a 21.283101
_cell_length_b 21.283101
_cell_length_c 9.003895
_cell_angle_alpha 90.000000
_cell_angle_beta 90.000000
_cell_angle_gamma 90.000000
_cell_volume 4078.497813
_symmetry_space_group_name_H-M "P 42/M N M"
_symmetry_group_IT_number 136
_symmetry_cell_setting 'tetragonal'
loop_
_space_group_symop_operation_xyz
x,y,z
1/2-y,1/2+x,1/2+z
-x,-y,z
1/2+y,1/2-x,1/2+z
1/2+x,1/2-y,1/2-z
1/2-x,1/2+y,1/2-z
y,x,-z
-y,-x,-z
-x,-y,-z
1/2+y,1/2-x,1/2-z
x,y,-z
1/2-y,1/2+x,1/2-z
1/2-x,1/2+y,1/2+z
1/2+x,1/2-y,1/2+z
-y,-x,z
y,x,z
loop_
_atom_site_type_symbol
_atom_site_label
_atom_site_fract_x
_atom_site_fract_y
_atom_site_fract_z
Si Si1 0.948990 0.051011 0.321888
Si Si2 0.628414 0.270523 0.830202
Si Si3 0.351396 0.095273 0.825424
Si Si4 0.321849 0.968551 0.323849
Si Si5 0.815887 0.006131 0.672036
O O1 0.949471 0.050530 0.500000
O O2 0.965977 0.120289 0.256112
O O3 0.000000 0.000000 0.264469
O O4 0.690757 0.309244 0.798383
O O5 0.630721 0.212056 0.719892
O O6 0.568449 0.314632 0.798310
O O7 0.625262 0.246311 0.000000
O O8 0.407841 0.139981 0.772451
O O9 0.356968 0.028504 0.744944
O O10 0.352966 0.084049 0.000000
O O11 0.321562 0.977495 0.500000
O O12 0.249424 0.964088 0.264700
O O13 0.819402 0.022251 0.500000
#
# Coordination Sequence:
#
# PCOD8318018 Si02
#       5
#     8  16  16  16  16
#     4   9  14  20  38  70  97 119 155 195 233 278
#     4   9  17  31  50  70  97 134 169 201 244 294
#     4  10  20  33  51  74  97 126 164 208 253 297
#     4   9  19  35  50  69  98 129 161 199 253 307
#     4   8  14  26  43  65  95 126 155 194 240 285
#
# _framework density 17.653559000000001
#
# number of rings (size 3 to 8) (size 9 to 14) (size 15 to 20)
#    0.000    3.000    0.000    2.667    0.000    5.333 
#    2.000    2.222    0.000    0.000    0.000    7.000 
#    0.000   21.333    0.000    0.000    0.000    0.000 
#
# Total GULP energy -892415.337406 kJ/mol
# GULP energy per Si atom -12394.657464 kJ/mol
# Density = 1.761338 g / cm^3
# Si number density = 17.653559 Si / 1000 Ang^3
#
#
#
# Elastic Constant Matrix: (Units=GPa)
#
#
# Indices 1 2 3 4 5 6 
#
# 1 115.3358 86.3018 22.2956 0.0000 0.0000 0.0000
# 2 86.3018 115.3355 22.2956 0.0000 0.0000 0.0000
# 3 22.2956 22.2956 20.2313 0.0000 0.0000 0.0000
# 4 0.0000 0.0000 0.0000 21.5932 0.0000 0.0000
# 5 0.0000 0.0000 0.0000 0.0000 21.5932 0.0000
# 6 0.0000 0.0000 0.0000 0.0000 0.0000 35.1864
#
#
#
# Elastic Compliance Matrix: (Units=1/GPa)
#
#
# Indices 1 2 3 4 5 6 
#
# 1 0.020500 -0.013942 -0.007227 0.000000 0.000000 0.000000
# 2 -0.013942 0.020500 -0.007227 0.000000 0.000000 0.000000
# 3 -0.007227 -0.007227 0.065356 0.000000 0.000000 0.000000
# 4 0.000000 0.000000 0.000000 0.046311 0.000000 0.000000
# 5 0.000000 0.000000 0.000000 0.000000 0.046311 0.000000
# 6 0.000000 0.000000 0.000000 0.000000 0.000000 0.028420
#
#
# Mechanical properties :
#
#
# Convention : Reuss Voigt Hill
#
# Bulk Modulus (GPa) = 20.17559 56.96542 38.57050
# Shear Modulus (GPa) = 16.62725 23.67521 20.15123
#
# Velocity S-wave (km/s) = 3.07231 3.66608 3.38225
# Velocity P-wave (km/s) = 4.90295 7.08934 6.09498
#
# Compressibility (1/GPa) = 0.04956486
#
# Stress axis : x y z
#
# Youngs Moduli (GPa) = 48.78051 48.78037 15.30075
#
# Poissons Ratio (x) = 0.68012 0.11057
# Poissons Ratio (y) = 0.68012 0.11057
# Poissons Ratio (z) = 0.35252 0.35252
#
# Static dielectric constant tensor:
#      x y z
#    x 3.440830 0.000000 0.000000 
#    y 0.000000 3.440840 0.000000 
#    z 0.000000 0.000000 2.899240 
# 
# 
# High freq. dielectric constant tensor:
#      x y z
#    x 1.685960 0.000000 0.000000 
#    y 0.000000 1.685960 0.000000 
#    z 0.000000 0.000000 1.642080 
# 
# From -- ./inp_files/1547.got.cif
#   From: 2010.03.12/outbox.cif.g09.slc.cpg/sg136_1_cif.got.tgz:1547.got - 2010.04.06 18:39:43.
