data_PCOD8318939
_publ_section_title
;
Structure prediction by ZEFSAII (Michael W. Deem and Ramdas Pophale) SiO2 
 PCOD8318939
Probable space group: P 42/N C M
;
_chemical_formula_sum "Si O2"
_cell_formula_units_Z 76
_cell_length_a 20.518233
_cell_length_b 20.518233
_cell_length_c 9.842259
_cell_angle_alpha 90.000000
_cell_angle_beta 90.000000
_cell_angle_gamma 90.000000
_cell_volume 4143.570227
_symmetry_space_group_name_H-M "P 42/N C M"
_symmetry_group_IT_number 138
_space_group.IT_coordinate_system_code '2'
_symmetry_cell_setting 'tetragonal'
loop_
_space_group_symop_operation_xyz
x,y,z
1/2-y,x,1/2+z
1/2-x,1/2-y,z
y,1/2-x,1/2+z
1/2+x,-y,1/2-z
-x,1/2+y,1/2-z
1/2+y,1/2+x,-z
-y,-x,-z
-x,-y,-z
1/2+y,-x,1/2-z
1/2+x,1/2+y,-z
-y,1/2+x,1/2-z
1/2-x,y,1/2+z
x,1/2-y,1/2+z
1/2-y,1/2-x,z
y,x,z
loop_
_atom_site_type_symbol
_atom_site_label
_atom_site_fract_x
_atom_site_fract_y
_atom_site_fract_z
Si Si1 0.152681 0.347320 0.522695
Si Si2 0.847237 0.652764 0.781213
Si Si3 0.744773 0.950094 0.355817
Si Si4 0.349704 0.774567 0.764220
Si Si5 0.250000 0.250000 0.118949
Si Si6 0.965509 0.219530 0.397700
Si Si7 0.629807 0.129807 0.000000
O O1 0.132501 0.367500 0.370590
O O2 0.091074 0.318098 0.600529
O O3 0.207747 0.292254 0.515409
O O4 0.910044 0.686107 0.854331
O O5 0.792197 0.707804 0.776865
O O6 0.753734 0.009964 0.457875
O O7 0.723242 0.974885 0.207351
O O8 0.320071 0.704610 0.805996
O O9 0.408400 0.766569 0.657418
O O10 0.372171 0.807050 0.903923
O O11 0.937343 0.143905 0.415642
#
# Coordination Sequence:
#
# PCOD8318939 Si02
#       7
#     8   8  16  16   4  16   8
#     4  10  19  34  56  82 117 148 191 241 292 357
#     4  10  19  34  56  86 117 156 187 246 296 352
#     4  11  22  37  60  85 120 152 200 239 299 346
#     4   9  19  33  54  85 115 146 184 237 300 355
#     4   8  18  28  52  86 116 142 178 240 312 356
#     4  11  21  37  55  89 116 155 189 240 289 358
#     4  10  20  37  56  85 122 154 190 245 304 359
#
# _framework density 18.341671000000002
#
# number of rings (size 3 to 8) (size 9 to 14) (size 15 to 20)
#    0.000    1.895    4.211    0.316    0.000    7.579 
#    0.000    0.000    0.000    2.526    0.000    7.368 
#    0.000    0.000    0.000    0.000    0.000    0.000 
#
# Total GULP energy -941510.624676 kJ/mol
# GULP energy per Si atom -12388.297693 kJ/mol
# Density = 1.829992 g / cm^3
# Si number density = 18.341671 Si / 1000 Ang^3
#
#
#
# Elastic Constant Matrix: (Units=GPa)
#
#
# Indices 1 2 3 4 5 6 
#
# 1 85.6282 37.7730 24.7830 0.0000 0.0000 0.0000
# 2 37.7730 85.6282 24.7830 0.0000 0.0000 0.0000
# 3 24.7830 24.7830 79.8043 0.0000 0.0000 0.0000
# 4 0.0000 0.0000 0.0000 29.6712 0.0000 0.0000
# 5 0.0000 0.0000 0.0000 0.0000 29.6712 0.0000
# 6 0.0000 0.0000 0.0000 0.0000 0.0000 27.9888
#
#
#
# Elastic Compliance Matrix: (Units=1/GPa)
#
#
# Indices 1 2 3 4 5 6 
#
# 1 0.015077 -0.005819 -0.002875 0.000000 0.000000 0.000000
# 2 -0.005819 0.015077 -0.002875 0.000000 0.000000 0.000000
# 3 -0.002875 -0.002875 0.014316 0.000000 0.000000 0.000000
# 4 0.000000 0.000000 0.000000 0.033703 0.000000 0.000000
# 5 0.000000 0.000000 0.000000 0.000000 0.033703 0.000000
# 6 0.000000 0.000000 0.000000 0.000000 0.000000 0.035729
#
#
# Mechanical properties :
#
#
# Convention : Reuss Voigt Hill
#
# Bulk Modulus (GPa) = 46.87651 47.30429 47.09040
# Shear Modulus (GPa) = 28.11282 28.38103 28.24692
#
# Velocity S-wave (km/s) = 3.91926 3.93791 3.92859
# Velocity P-wave (km/s) = 6.78923 6.82076 6.80501
#
# Compressibility (1/GPa) = 0.02133264
#
# Stress axis : x y z
#
# Youngs Moduli (GPa) = 66.32427 66.32427 69.84979
#
# Poissons Ratio (x) = 0.38594 0.20083
# Poissons Ratio (y) = 0.38594 0.20083
# Poissons Ratio (z) = 0.19070 0.19070
#
# Static dielectric constant tensor:
#      x y z
#    x 3.373540 0.000000 0.000000 
#    y 0.000000 3.373540 0.000000 
#    z 0.000000 0.000000 3.374810 
# 
# 
# High freq. dielectric constant tensor:
#      x y z
#    x 1.694820 0.000000 0.000000 
#    y 0.000000 1.694820 0.000000 
#    z 0.000000 0.000000 1.721140 
# 
# From -- ./inp_files/3020.got.cif
#   From: 2010.03.12/outbox.cif.g09.slc.cpg/sg138_2_cif.got.tgz:3020.got - 2010.04.08 09:41:05.
