data_PCOD8318228
_publ_section_title
;
Structure prediction by ZEFSAII (Michael W. Deem and Ramdas Pophale) SiO2 
 PCOD8318228
Probable space group: P 42/M N M
;
_chemical_formula_sum "Si O2"
_cell_formula_units_Z 64
_cell_length_a 11.721647
_cell_length_b 11.721647
_cell_length_c 23.096610
_cell_angle_alpha 90.000000
_cell_angle_beta 90.000000
_cell_angle_gamma 90.000000
_cell_volume 3173.405118
_symmetry_space_group_name_H-M "P 42/M N M"
_symmetry_group_IT_number 136
_symmetry_cell_setting 'tetragonal'
loop_
_space_group_symop_operation_xyz
x,y,z
1/2-y,1/2+x,1/2+z
-x,-y,z
1/2+y,1/2-x,1/2+z
1/2+x,1/2-y,1/2-z
1/2-x,1/2+y,1/2-z
y,x,-z
-y,-x,-z
-x,-y,-z
1/2+y,1/2-x,1/2-z
x,y,-z
1/2-y,1/2+x,1/2-z
1/2-x,1/2+y,1/2+z
1/2+x,1/2-y,1/2+z
-y,-x,z
y,x,z
loop_
_atom_site_type_symbol
_atom_site_label
_atom_site_fract_x
_atom_site_fract_y
_atom_site_fract_z
Si Si1 0.003499 0.181706 0.567386
Si Si2 0.668867 0.331134 0.437132
Si Si3 0.405938 0.594063 0.687335
Si Si4 0.592150 0.082451 0.405034
Si Si5 0.968637 0.658803 0.219252
O O1 0.990697 0.213435 0.500000
O O2 0.906269 0.093732 0.586423
O O3 0.993938 0.295199 0.605808
O O4 0.126940 0.126940 0.579503
O O5 0.623432 0.376569 0.500000
O O6 0.610048 0.389953 0.381904
O O7 0.638742 0.195853 0.437466
O O8 0.500000 0.500000 0.697767
O O9 0.292778 0.554084 0.720339
O O10 0.530466 0.116036 0.346221
O O11 0.500000 0.000000 0.438636
O O12 0.869326 0.592545 0.254269
#
# Coordination Sequence:
#
# PCOD8318228 Si02
#       5
#    16   8   8  16  16
#     4   9  18  34  56  84 122 159 196 255 313 360
#     4  10  22  39  61  92 132 168 206 259 305 373
#     4  10  24  41  68 100 122 164 215 255 314 389
#     4  11  20  36  62  90 118 163 218 250 310 384
#     4  10  21  43  64  87 124 164 203 265 321 361
#
# _framework density 20.167611999999998
#
# number of rings (size 3 to 8) (size 9 to 14) (size 15 to 20)
#    0.000    2.000    3.750    1.500    1.750    2.250 
#    2.250    5.000    0.000    0.000    0.000    0.000 
#    0.000    0.000    0.000    0.000    0.000    0.000 
#
# Total GULP energy -792928.577563 kJ/mol
# GULP energy per Si atom -12389.509024 kJ/mol
# Density = 2.012171 g / cm^3
# Si number density = 20.167612 Si / 1000 Ang^3
#
#
#
# Elastic Constant Matrix: (Units=GPa)
#
#
# Indices 1 2 3 4 5 6 
#
# 1 151.8338 73.2486 29.3266 0.0000 0.0000 0.0000
# 2 73.2486 151.8337 29.3266 0.0000 0.0000 0.0000
# 3 29.3266 29.3266 68.3012 0.0000 0.0000 0.0000
# 4 0.0000 0.0000 0.0000 -70.9021 0.0000 0.0000
# 5 0.0000 0.0000 0.0000 0.0000 -70.9045 0.0000
# 6 0.0000 0.0000 0.0000 0.0000 0.0000 34.5599
#
#
#
# Elastic Compliance Matrix: (Units=1/GPa)
#
#
# Indices 1 2 3 4 5 6 
#
# 1 0.008864 -0.003861 -0.002148 0.000000 0.000000 0.000000
# 2 -0.003861 0.008864 -0.002148 0.000000 0.000000 0.000000
# 3 -0.002148 -0.002148 0.016486 0.000000 0.000000 0.000000
# 4 0.000000 0.000000 0.000000 -0.014104 0.000000 0.000000
# 5 0.000000 0.000000 0.000000 0.000000 -0.014103 0.000000
# 6 0.000000 0.000000 0.000000 0.000000 0.000000 0.028935
#
#
# Mechanical properties :
#
#
# Convention : Reuss Voigt Hill
#
# Bulk Modulus (GPa) = 55.86950 70.64136 63.25543
# Shear Modulus (GPa) = 87.37966 -5.44487 40.96739
#
# Velocity S-wave (km/s) = 6.58944 -1.64489 4.51193
# Velocity P-wave (km/s) = 9.25511 5.61210 7.65352
#
# Compressibility (1/GPa) = 0.01789886
#
# Stress axis : x y z
#
# Youngs Moduli (GPa) = 112.81857 112.81852 60.65912
#
# Poissons Ratio (x) = 0.43562 0.13029
# Poissons Ratio (y) = 0.43562 0.13029
# Poissons Ratio (z) = 0.24233 0.24233
#
# Static dielectric constant tensor:
#      x y z
#    x 3.773890 0.000000 0.000000 
#    y 0.000000 3.773890 0.000000 
#    z 0.000000 0.000000 3.519250 
# 
# 
# High freq. dielectric constant tensor:
#      x y z
#    x 1.784880 0.000000 0.000000 
#    y 0.000000 1.784880 0.000000 
#    z 0.000000 0.000000 1.773260 
# 
# From -- ./inp_files/8186.got.cif
#   From: 2010.03.12/outbox.cif.g09.slc.cpg/sg136_5_cif.got.tgz:8186.got - 2010.04.06 18:39:43.
