data_PCOD8318505
_publ_section_title
;
Structure prediction by ZEFSAII (Michael W. Deem and Ramdas Pophale) SiO2 
 PCOD8318505
Probable space group: P 42/N M C
;
_chemical_formula_sum "Si O2"
_cell_formula_units_Z 112
_cell_length_a 18.059069
_cell_length_b 18.059069
_cell_length_c 19.900983
_cell_angle_alpha 90.000000
_cell_angle_beta 90.000000
_cell_angle_gamma 90.000000
_cell_volume 6490.307051
_symmetry_space_group_name_H-M "P 42/N M C"
_symmetry_group_IT_number 137
_space_group.IT_coordinate_system_code '2'
_symmetry_cell_setting 'tetragonal'
loop_
_space_group_symop_operation_xyz
x,y,z
1/2-y,x,1/2+z
1/2-x,1/2-y,z
y,1/2-x,1/2+z
1/2+x,-y,-z
-x,1/2+y,-z
1/2+y,1/2+x,1/2-z
-y,-x,1/2-z
-x,-y,-z
1/2+y,-x,1/2-z
1/2+x,1/2+y,-z
-y,1/2+x,1/2-z
1/2-x,y,z
x,1/2-y,z
1/2-y,1/2-x,1/2+z
y,x,1/2+z
loop_
_atom_site_type_symbol
_atom_site_label
_atom_site_fract_x
_atom_site_fract_y
_atom_site_fract_z
Si Si1 0.976184 0.522226 0.426841
Si Si2 0.165349 0.333244 0.956720
Si Si3 0.835394 0.399163 0.183287
Si Si4 0.166747 0.090984 0.096645
Si Si5 0.964147 0.169346 0.120022
Si Si6 0.603398 0.947329 0.147900
Si Si7 0.592271 0.833703 0.780957
O O1 0.979292 0.610531 0.412200
O O2 0.889323 0.502147 0.428530
O O3 0.000000 0.500000 0.500000
O O4 0.020134 0.478689 0.367825
O O5 0.250000 0.336085 0.933221
O O6 0.133732 0.250000 0.945343
O O7 0.121994 0.394202 0.913852
O O8 0.157977 0.352633 0.034919
O O9 0.882167 0.382167 0.250000
O O10 0.750000 0.375599 0.190863
O O11 0.876932 0.348289 0.128224
O O12 0.840082 0.483985 0.157707
O O13 0.250000 0.058835 0.100476
O O14 0.149464 0.136967 0.163712
O O15 0.972290 0.250000 0.086677
O O16 0.007759 0.166819 0.191644
O O17 0.609904 0.901828 0.217516
O O18 0.615087 0.750000 0.759799
#
# Coordination Sequence:
#
# PCOD8318505 Si02
#       7
#    16  16  16  16  16  16  16
#     4  10  20  37  55  79 104 141 189 227 273 330
#     4  10  20  34  52  77 109 144 182 225 273 327
#     4  11  20  30  47  73 106 143 181 218 265 322
#     4  10  21  36  55  77 108 147 189 229 271 330
#     4   9  19  32  48  70 101 138 178 221 269 325
#     4  11  21  35  55  76 108 143 184 226 272 325
#     4  10  19  33  53  77 105 140 179 220 271 327
#
# _framework density 17.256504
#
# number of rings (size 3 to 8) (size 9 to 14) (size 15 to 20)
#    0.000    1.857    2.857    2.143    0.000    3.000 
#    0.000    0.000    0.000    0.000    0.000    0.000 
#    0.000    0.571    0.000    0.571    0.000    0.000 
#
# Total GULP energy -1387936.091412 kJ/mol
# GULP energy per Si atom -12392.286530 kJ/mol
# Density = 1.721723 g / cm^3
# Si number density = 17.256504 Si / 1000 Ang^3
#
#
#
# Elastic Constant Matrix: (Units=GPa)
#
#
# Indices 1 2 3 4 5 6 
#
# 1 109.7793 35.8616 42.1118 0.0000 0.0000 0.0000
# 2 35.8616 109.7793 42.1118 0.0000 0.0000 0.0000
# 3 42.1118 42.1118 92.7299 0.0000 0.0000 0.0000
# 4 0.0000 0.0000 0.0000 23.5702 0.0000 0.0000
# 5 0.0000 0.0000 0.0000 0.0000 23.5702 0.0000
# 6 0.0000 0.0000 0.0000 0.0000 0.0000 14.6693
#
#
#
# Elastic Compliance Matrix: (Units=1/GPa)
#
#
# Indices 1 2 3 4 5 6 
#
# 1 0.011420 -0.002108 -0.004229 0.000000 0.000000 0.000000
# 2 -0.002108 0.011420 -0.004229 0.000000 0.000000 0.000000
# 3 -0.004229 -0.004229 0.014625 0.000000 0.000000 0.000000
# 4 0.000000 0.000000 0.000000 0.042426 0.000000 0.000000
# 5 0.000000 0.000000 0.000000 0.000000 0.042426 0.000000
# 6 0.000000 0.000000 0.000000 0.000000 0.000000 0.068170
#
#
# Mechanical properties :
#
#
# Convention : Reuss Voigt Hill
#
# Bulk Modulus (GPa) = 61.22499 61.38432 61.30465
# Shear Modulus (GPa) = 23.03469 25.17549 24.10509
#
# Velocity S-wave (km/s) = 3.65751 3.82370 3.74153
# Velocity P-wave (km/s) = 7.30705 7.42584 7.36668
#
# Compressibility (1/GPa) = 0.01633320
#
# Stress axis : x y z
#
# Youngs Moduli (GPa) = 87.56478 87.56478 68.37684
#
# Poissons Ratio (x) = 0.18463 0.28915
# Poissons Ratio (y) = 0.18463 0.28915
# Poissons Ratio (z) = 0.37029 0.37029
#
# Static dielectric constant tensor:
#      x y z
#    x 3.397290 0.000000 0.000000 
#    y 0.000000 3.397290 0.000000 
#    z 0.000000 0.000000 3.124760 
# 
# 
# High freq. dielectric constant tensor:
#      x y z
#    x 1.654990 0.000000 0.000000 
#    y 0.000000 1.654990 0.000000 
#    z 0.000000 0.000000 1.655840 
# 
# From -- ./inp_files/8064.got.cif
#   From: 2010.03.12/outbox.cif.g09.slc.cpg/sg137_5_cif.got.tgz:8064.got - 2010.04.08 09:34:49.
