data_PCOD8318515
_publ_section_title
;
Structure prediction by ZEFSAII (Michael W. Deem and Ramdas Pophale) SiO2 
 PCOD8318515
Probable space group: P 42/N M C
;
_chemical_formula_sum "Si O2"
_cell_formula_units_Z 112
_cell_length_a 15.144710
_cell_length_b 15.144710
_cell_length_c 24.313338
_cell_angle_alpha 90.000000
_cell_angle_beta 90.000000
_cell_angle_gamma 90.000000
_cell_volume 5576.561689
_symmetry_space_group_name_H-M "P 42/N M C"
_symmetry_group_IT_number 137
_space_group.IT_coordinate_system_code '2'
_symmetry_cell_setting 'tetragonal'
loop_
_space_group_symop_operation_xyz
x,y,z
1/2-y,x,1/2+z
1/2-x,1/2-y,z
y,1/2-x,1/2+z
1/2+x,-y,-z
-x,1/2+y,-z
1/2+y,1/2+x,1/2-z
-y,-x,1/2-z
-x,-y,-z
1/2+y,-x,1/2-z
1/2+x,1/2+y,-z
-y,1/2+x,1/2-z
1/2-x,y,z
x,1/2-y,z
1/2-y,1/2-x,1/2+z
y,x,1/2+z
loop_
_atom_site_type_symbol
_atom_site_label
_atom_site_fract_x
_atom_site_fract_y
_atom_site_fract_z
Si Si1 0.609542 0.517656 0.694442
Si Si2 0.150193 0.505798 0.525885
Si Si3 0.648219 0.453323 0.206320
Si Si4 0.408609 0.346252 0.917730
Si Si5 0.347105 0.539973 0.918329
Si Si6 0.350112 0.349917 0.606792
Si Si7 0.495829 0.845416 0.312788
O O1 0.535458 0.584769 0.716362
O O2 0.664488 0.553256 0.643427
O O3 0.670159 0.506071 0.747498
O O4 0.570967 0.423876 0.674120
O O5 0.250000 0.535660 0.540768
O O6 0.140462 0.487977 0.461063
O O7 0.081312 0.582201 0.540563
O O8 0.124701 0.415520 0.557291
O O9 0.623305 0.376696 0.250000
O O10 0.750000 0.480456 0.215536
O O11 0.633873 0.422724 0.142976
O O12 0.361690 0.250000 0.930389
O O13 0.347001 0.432562 0.919377
O O14 0.250000 0.569699 0.937688
O O15 0.250000 0.365488 0.626619
O O16 0.363100 0.250000 0.584527
O O17 0.410747 0.369660 0.659357
O O18 0.461900 0.750000 0.335795
#
# Coordination Sequence:
#
# PCOD8318515 Si02
#       7
#    16  16  16  16  16  16  16
#     4  10  20  37  54  81 111 144 185 235 286 339
#     4  10  21  37  59  85 114 153 193 236 287 340
#     4  10  20  35  54  80 114 152 189 229 278 341
#     4  10  21  38  60  83 112 152 196 240 291 348
#     4  10  22  38  57  85 119 154 195 240 286 343
#     4   9  18  32  52  82 113 140 182 235 282 332
#     4  10  19  33  56  80 105 143 183 225 288 342
#
# _framework density 20.084060999999998
#
# number of rings (size 3 to 8) (size 9 to 14) (size 15 to 20)
#    0.000    2.143    1.429    2.571    0.000    2.429 
#    0.000    5.000    0.000   10.714    0.000    0.000 
#    0.000    0.000    0.000    0.000    0.000    0.000 
#
# Total GULP energy -1387986.698873 kJ/mol
# GULP energy per Si atom -12392.738383 kJ/mol
# Density = 2.003835 g / cm^3
# Si number density = 20.084061 Si / 1000 Ang^3
#
#
#
# Elastic Constant Matrix: (Units=GPa)
#
#
# Indices 1 2 3 4 5 6 
#
# 1 82.9557 32.7010 20.8800 0.0000 0.0000 0.0000
# 2 32.7010 82.9564 20.8805 0.0000 0.0000 0.0000
# 3 20.8800 20.8805 73.4865 0.0000 0.0000 0.0000
# 4 0.0000 0.0000 0.0000 18.0899 0.0000 0.0000
# 5 0.0000 0.0000 0.0000 0.0000 18.0897 0.0000
# 6 0.0000 0.0000 0.0000 0.0000 0.0000 3.3915
#
#
#
# Elastic Compliance Matrix: (Units=1/GPa)
#
#
# Indices 1 2 3 4 5 6 
#
# 1 0.014767 -0.005132 -0.002738 0.000000 0.000000 0.000000
# 2 -0.005132 0.014767 -0.002738 0.000000 0.000000 0.000000
# 3 -0.002738 -0.002738 0.015164 0.000000 0.000000 0.000000
# 4 0.000000 0.000000 0.000000 0.055279 0.000000 0.000000
# 5 0.000000 0.000000 0.000000 0.000000 0.055280 0.000000
# 6 0.000000 0.000000 0.000000 0.000000 0.000000 0.294857
#
#
# Mechanical properties :
#
#
# Convention : Reuss Voigt Hill
#
# Bulk Modulus (GPa) = 42.58443 43.14682 42.86563
# Shear Modulus (GPa) = 10.43504 18.91002 14.67253
#
# Velocity S-wave (km/s) = 2.28188 3.07179 2.70581
# Velocity P-wave (km/s) = 5.30959 5.84046 5.58134
#
# Compressibility (1/GPa) = 0.02348276
#
# Stress axis : x y z
#
# Youngs Moduli (GPa) = 67.72021 67.72053 65.94720
#
# Poissons Ratio (x) = 0.34753 0.18053
# Poissons Ratio (y) = 0.34753 0.18054
# Poissons Ratio (z) = 0.18539 0.18540
#
# Static dielectric constant tensor:
#      x y z
#    x 3.525940 0.000000 0.000000 
#    y 0.000000 3.525930 0.000000 
#    z 0.000000 0.000000 3.668400 
# 
# 
# High freq. dielectric constant tensor:
#      x y z
#    x 1.774500 0.000000 0.000000 
#    y 0.000000 1.774500 0.000000 
#    z 0.000000 0.000000 1.786610 
# 
# From -- ./inp_files/9787.got.cif
#   From: 2010.03.12/outbox.cif.g09.slc.cpg/sg137_5_cif.got.tgz:9787.got - 2010.04.08 09:34:49.
