data_PCOD8318237
_publ_section_title
;
Structure prediction by ZEFSAII (Michael W. Deem and Ramdas Pophale) SiO2 
 PCOD8318237
Probable space group: P 42/M N M
;
_chemical_formula_sum "Si O2"
_cell_formula_units_Z 48
_cell_length_a 12.276042
_cell_length_b 12.276042
_cell_length_c 15.008519
_cell_angle_alpha 90.000000
_cell_angle_beta 90.000000
_cell_angle_gamma 90.000000
_cell_volume 2261.801931
_symmetry_space_group_name_H-M "P 42/M N M"
_symmetry_group_IT_number 136
_symmetry_cell_setting 'tetragonal'
loop_
_space_group_symop_operation_xyz
x,y,z
1/2-y,1/2+x,1/2+z
-x,-y,z
1/2+y,1/2-x,1/2+z
1/2+x,1/2-y,1/2-z
1/2-x,1/2+y,1/2-z
y,x,-z
-y,-x,-z
-x,-y,-z
1/2+y,1/2-x,1/2-z
x,y,-z
1/2-y,1/2+x,1/2-z
1/2-x,1/2+y,1/2+z
1/2+x,1/2-y,1/2+z
-y,-x,z
y,x,z
loop_
_atom_site_type_symbol
_atom_site_label
_atom_site_fract_x
_atom_site_fract_y
_atom_site_fract_z
Si Si1 0.882100 0.460827 0.101437
Si Si2 0.547391 0.726176 0.404041
Si Si3 0.676736 0.496585 0.216376
O O1 0.875807 0.330846 0.110324
O O2 0.784724 0.512948 0.158258
O O3 0.000000 0.500000 0.137713
O O4 0.866574 0.500633 0.000000
O O5 0.483839 0.738577 0.500000
O O6 0.621088 0.621088 0.411256
O O7 0.469051 0.711110 0.318848
O O8 0.603217 0.396784 0.180534
O O9 0.609354 0.609354 0.211925
#
# Coordination Sequence:
#
# PCOD8318237 Si02
#       3
#    16  16  16
#     4  10  22  39  59  85 119 159 202 248 300 358
#     4   9  19  36  57  83 118 160 201 242 295 359
#     4  10  22  38  60  92 123 157 201 249 305 361
#
# _framework density 21.222017000000001
#
# number of rings (size 3 to 8) (size 9 to 14) (size 15 to 20)
#    0.000    2.333    0.000    1.000    4.667    3.333 
#    0.000    5.000    0.000    6.000    0.000    0.000 
#    0.000    0.000    0.000    0.000    0.000    0.000 
#
# Total GULP energy -594847.838306 kJ/mol
# GULP energy per Si atom -12392.663298 kJ/mol
# Density = 2.117371 g / cm^3
# Si number density = 21.222017 Si / 1000 Ang^3
#
#
#
# Elastic Constant Matrix: (Units=GPa)
#
#
# Indices 1 2 3 4 5 6 
#
# 1 96.5457 27.2476 60.5469 0.0000 0.0000 0.0000
# 2 27.2476 96.5457 60.5469 0.0000 0.0000 0.0000
# 3 60.5469 60.5469 128.6993 0.0000 0.0000 0.0000
# 4 0.0000 0.0000 0.0000 -19.9144 0.0000 0.0000
# 5 0.0000 0.0000 0.0000 0.0000 -19.9144 0.0000
# 6 0.0000 0.0000 0.0000 0.0000 0.0000 17.8623
#
#
#
# Elastic Compliance Matrix: (Units=1/GPa)
#
#
# Indices 1 2 3 4 5 6 
#
# 1 0.014698 0.000267 -0.007040 0.000000 0.000000 0.000000
# 2 0.000267 0.014698 -0.007040 0.000000 0.000000 0.000000
# 3 -0.007040 -0.007040 0.014394 0.000000 0.000000 0.000000
# 4 0.000000 0.000000 0.000000 -0.050215 0.000000 0.000000
# 5 0.000000 0.000000 0.000000 0.000000 -0.050215 0.000000
# 6 0.000000 0.000000 0.000000 0.000000 0.000000 0.055984
#
#
# Mechanical properties :
#
#
# Convention : Reuss Voigt Hill
#
# Bulk Modulus (GPa) = 61.87043 68.71927 65.29485
# Shear Modulus (GPa) = 154.52561 7.16998 80.84780
#
# Velocity S-wave (km/s) = 8.54236 1.84008 6.17891
# Velocity P-wave (km/s) = 11.24780 6.07996 9.04099
#
# Compressibility (1/GPa) = 0.01616281
#
# Stress axis : x y z
#
# Youngs Moduli (GPa) = 68.03877 68.03877 69.47273
#
# Poissons Ratio (x) = -0.01817 0.48910
# Poissons Ratio (y) = -0.01817 0.48910
# Poissons Ratio (z) = 0.47900 0.47900
#
# Static dielectric constant tensor:
#      x y z
#    x 3.648590 0.000000 0.000000 
#    y 0.000000 3.648590 0.000000 
#    z 0.000000 0.000000 4.343390 
# 
# 
# High freq. dielectric constant tensor:
#      x y z
#    x 1.814370 0.000000 0.000000 
#    y 0.000000 1.814370 0.000000 
#    z 0.000000 0.000000 1.844930 
# 
# From -- ./inp_files/5704.got.cif
#   From: 2010.03.12/outbox.cif.g09.slc.cpg/sg136_3_cif.got.tgz:5704.got - 2010.04.06 18:39:43.
