data_PCOD8318902
_publ_section_title
;
Structure prediction by ZEFSAII (Michael W. Deem and Ramdas Pophale) SiO2 
 PCOD8318902
Probable space group: P 42/N C M
;
_chemical_formula_sum "Si O2"
_cell_formula_units_Z 80
_cell_length_a 13.336593
_cell_length_b 13.336593
_cell_length_c 25.001855
_cell_angle_alpha 90.000000
_cell_angle_beta 90.000000
_cell_angle_gamma 90.000000
_cell_volume 4446.947760
_symmetry_space_group_name_H-M "P 42/N C M"
_symmetry_group_IT_number 138
_space_group.IT_coordinate_system_code '2'
_symmetry_cell_setting 'tetragonal'
loop_
_space_group_symop_operation_xyz
x,y,z
1/2-y,x,1/2+z
1/2-x,1/2-y,z
y,1/2-x,1/2+z
1/2+x,-y,1/2-z
-x,1/2+y,1/2-z
1/2+y,1/2+x,-z
-y,-x,-z
-x,-y,-z
1/2+y,-x,1/2-z
1/2+x,1/2+y,-z
-y,1/2+x,1/2-z
1/2-x,y,1/2+z
x,1/2-y,1/2+z
1/2-y,1/2-x,z
y,x,z
loop_
_atom_site_type_symbol
_atom_site_label
_atom_site_fract_x
_atom_site_fract_y
_atom_site_fract_z
Si Si1 0.337544 0.001037 0.175077
Si Si2 0.995051 0.831191 0.202811
Si Si3 0.152403 0.511587 0.877240
Si Si4 0.536154 0.373798 0.134961
Si Si5 0.209360 0.648950 0.440336
O O1 0.302952 0.983456 0.236030
O O2 0.408164 0.913388 0.154210
O O3 0.392380 0.107621 0.168978
O O4 0.238834 0.002405 0.139546
O O5 0.977632 0.734609 0.165907
O O6 0.090475 0.898224 0.185550
O O7 0.893736 0.893736 0.196747
O O8 0.083842 0.416159 0.895224
O O9 0.206123 0.561761 0.929905
O O10 0.438499 0.438499 0.125701
O O11 0.605205 0.387950 0.083379
O O12 0.250000 0.750000 0.410907
O O13 0.181911 0.681911 0.500000
#
# Coordination Sequence:
#
# PCOD8318902 Si02
#       5
#    16  16  16  16  16
#     4  10  19  32  50  78 111 146 183 218 260 317
#     4   9  19  32  51  78 110 146 183 219 262 320
#     4  10  20  35  55  81 112 143 180 226 275 321
#     4  10  20  35  53  77 107 141 177 219 269 322
#     4  10  20  38  60  80 103 134 182 230 273 324
#
# _framework density 17.989868000000001
#
# number of rings (size 3 to 8) (size 9 to 14) (size 15 to 20)
#    0.000    2.200    2.000    1.200    0.000    3.600 
#    0.000    7.000    0.000    0.000    0.000    0.000 
#    0.000    0.000    0.000    0.000    0.000    0.000 
#
# Total GULP energy -991432.975524 kJ/mol
# GULP energy per Si atom -12392.912194 kJ/mol
# Density = 1.794892 g / cm^3
# Si number density = 17.989868 Si / 1000 Ang^3
#
#
#
# Elastic Constant Matrix: (Units=GPa)
#
#
# Indices 1 2 3 4 5 6 
#
# 1 103.8306 61.4945 38.6725 0.0000 0.0000 0.0000
# 2 61.4945 103.8306 38.6725 0.0000 0.0000 0.0000
# 3 38.6725 38.6725 72.6620 0.0000 0.0000 0.0000
# 4 0.0000 0.0000 0.0000 22.2862 0.0000 0.0000
# 5 0.0000 0.0000 0.0000 0.0000 22.2862 0.0000
# 6 0.0000 0.0000 0.0000 0.0000 0.0000 27.1863
#
#
#
# Elastic Compliance Matrix: (Units=1/GPa)
#
#
# Indices 1 2 3 4 5 6 
#
# 1 0.015837 -0.007783 -0.004287 0.000000 0.000000 0.000000
# 2 -0.007783 0.015837 -0.004287 0.000000 0.000000 0.000000
# 3 -0.004287 -0.004287 0.018325 0.000000 0.000000 0.000000
# 4 0.000000 0.000000 0.000000 0.044871 0.000000 0.000000
# 5 0.000000 0.000000 0.000000 0.000000 0.044871 0.000000
# 6 0.000000 0.000000 0.000000 0.000000 0.000000 0.036783
#
#
# Mechanical properties :
#
#
# Convention : Reuss Voigt Hill
#
# Bulk Modulus (GPa) = 57.84674 62.00022 59.92348
# Shear Modulus (GPa) = 23.25583 23.78399 23.51991
#
# Velocity S-wave (km/s) = 3.59934 3.63998 3.61972
# Velocity P-wave (km/s) = 7.03553 7.22529 7.13104
#
# Compressibility (1/GPa) = 0.01728706
#
# Stress axis : x y z
#
# Youngs Moduli (GPa) = 63.14214 63.14214 54.56969
#
# Poissons Ratio (x) = 0.49145 0.23392
# Poissons Ratio (y) = 0.49145 0.23392
# Poissons Ratio (z) = 0.27066 0.27066
#
# Static dielectric constant tensor:
#      x y z
#    x 3.534500 0.000000 0.000000 
#    y 0.000000 3.534500 0.000000 
#    z 0.000000 0.000000 3.183290 
# 
# 
# High freq. dielectric constant tensor:
#      x y z
#    x 1.702590 0.000000 0.000000 
#    y 0.000000 1.702590 0.000000 
#    z 0.000000 0.000000 1.675090 
# 
# From -- ./inp_files/7879.got.cif
#   From: 2010.03.12/outbox.cif.g09.slc.cpg/sg138_4_cif.got.tgz:7879.got - 2010.04.08 09:41:05.
