data_PCOD8318398
_publ_section_title
;
Structure prediction by ZEFSAII (Michael W. Deem and Ramdas Pophale) SiO2 
 PCOD8318398
Probable space group: P 42/N M C
;
_chemical_formula_sum "Si O2"
_cell_formula_units_Z 96
_cell_length_a 20.510802
_cell_length_b 20.510802
_cell_length_c 13.078945
_cell_angle_alpha 90.000000
_cell_angle_beta 90.000000
_cell_angle_gamma 90.000000
_cell_volume 5502.220592
_symmetry_space_group_name_H-M "P 42/N M C"
_symmetry_group_IT_number 137
_space_group.IT_coordinate_system_code '2'
_symmetry_cell_setting 'tetragonal'
loop_
_space_group_symop_operation_xyz
x,y,z
1/2-y,x,1/2+z
1/2-x,1/2-y,z
y,1/2-x,1/2+z
1/2+x,-y,-z
-x,1/2+y,-z
1/2+y,1/2+x,1/2-z
-y,-x,1/2-z
-x,-y,-z
1/2+y,-x,1/2-z
1/2+x,1/2+y,-z
-y,1/2+x,1/2-z
1/2-x,y,z
x,1/2-y,z
1/2-y,1/2-x,1/2+z
y,x,1/2+z
loop_
_atom_site_type_symbol
_atom_site_label
_atom_site_fract_x
_atom_site_fract_y
_atom_site_fract_z
Si Si1 0.462875 0.174329 0.676600
Si Si2 0.674203 0.552144 0.050886
Si Si3 0.520862 0.054955 0.363897
Si Si4 0.826162 0.892043 0.620465
Si Si5 0.087223 0.674672 0.199563
Si Si6 0.898330 0.013068 0.547668
O O1 0.466782 0.250000 0.655985
O O2 0.449522 0.143831 0.564852
O O3 0.406679 0.159245 0.759565
O O4 0.531460 0.150405 0.721786
O O5 0.750000 0.531262 0.059103
O O6 0.629812 0.502016 0.116064
O O7 0.667884 0.626932 0.090070
O O8 0.546927 0.046927 0.250000
O O9 0.581377 0.032817 0.433909
O O10 0.460521 0.007156 0.384331
O O11 0.750000 0.874720 0.602412
O O12 0.845310 0.954431 0.550627
O O13 0.156517 0.656517 0.250000
O O14 0.083620 0.750000 0.174780
O O15 0.077192 0.635600 0.094542
#
# Coordination Sequence:
#
# PCOD8318398 Si02
#       6
#    16  16  16  16  16  16
#     4   8  16  32  49  65  89 125 161 191 231 282
#     4  10  20  33  50  71  99 135 169 197 235 295
#     4  10  20  33  50  72  98 126 164 211 247 281
#     4   9  18  32  51  75 102 128 160 204 249 293
#     4  10  18  29  48  71  96 122 151 191 242 298
#     4   9  18  32  51  71  94 126 162 201 250 294
#
# _framework density 17.447500999999999
#
# number of rings (size 3 to 8) (size 9 to 14) (size 15 to 20)
#    0.000    2.667    0.000    3.000    0.000   11.167 
#    0.000    4.167    0.000    3.000    0.000    0.000 
#    0.000    3.000    0.000    0.000    0.000    0.000 
#
# Total GULP energy -1189698.148571 kJ/mol
# GULP energy per Si atom -12392.689048 kJ/mol
# Density = 1.740779 g / cm^3
# Si number density = 17.447501 Si / 1000 Ang^3
#
#
#
# Elastic Constant Matrix: (Units=GPa)
#
#
# Indices 1 2 3 4 5 6 
#
# 1 64.5896 30.5209 46.0175 0.0000 0.0000 0.0000
# 2 30.5209 64.5896 46.0175 0.0000 0.0000 0.0000
# 3 46.0175 46.0175 128.5305 0.0000 0.0000 0.0000
# 4 0.0000 0.0000 0.0000 21.8436 0.0000 0.0000
# 5 0.0000 0.0000 0.0000 0.0000 21.8436 0.0000
# 6 0.0000 0.0000 0.0000 0.0000 0.0000 24.5778
#
#
#
# Elastic Compliance Matrix: (Units=1/GPa)
#
#
# Indices 1 2 3 4 5 6 
#
# 1 0.022720 -0.006632 -0.005760 0.000000 0.000000 0.000000
# 2 -0.006632 0.022720 -0.005760 0.000000 0.000000 0.000000
# 3 -0.005760 -0.005760 0.011905 0.000000 0.000000 0.000000
# 4 0.000000 0.000000 0.000000 0.045780 0.000000 0.000000
# 5 0.000000 0.000000 0.000000 0.000000 0.045780 0.000000
# 6 0.000000 0.000000 0.000000 0.000000 0.000000 0.040687
#
#
# Mechanical properties :
#
#
# Convention : Reuss Voigt Hill
#
# Bulk Modulus (GPa) = 47.52707 55.86903 51.69805
# Shear Modulus (GPa) = 21.46756 22.66325 22.06540
#
# Velocity S-wave (km/s) = 3.51152 3.60799 3.56008
# Velocity P-wave (km/s) = 6.61364 7.03189 6.82597
#
# Compressibility (1/GPa) = 0.02104064
#
# Stress axis : x y z
#
# Youngs Moduli (GPa) = 44.01395 44.01395 84.00098
#
# Poissons Ratio (x) = 0.29192 0.48383
# Poissons Ratio (y) = 0.29192 0.48383
# Poissons Ratio (z) = 0.25351 0.25351
#
# Static dielectric constant tensor:
#      x y z
#    x 3.152030 0.000000 0.000000 
#    y 0.000000 3.152030 0.000000 
#    z 0.000000 0.000000 3.449440 
# 
# 
# High freq. dielectric constant tensor:
#      x y z
#    x 1.660770 0.000000 0.000000 
#    y 0.000000 1.660770 0.000000 
#    z 0.000000 0.000000 1.667770 
# 
# From -- ./inp_files/3765.got.cif
#   From: 2010.03.12/outbox.cif.g09.slc.cpg/sg137_2_cif.got.tgz:3765.got - 2010.04.08 09:34:49.
