data_PCOD8318789
_publ_section_title
;
Structure prediction by ZEFSAII (Michael W. Deem and Ramdas Pophale) SiO2 
 PCOD8318789
Probable space group: P 42/N M C
;
_chemical_formula_sum "Si O2"
_cell_formula_units_Z 96
_cell_length_a 13.797732
_cell_length_b 13.797732
_cell_length_c 32.135549
_cell_angle_alpha 90.000000
_cell_angle_beta 90.000000
_cell_angle_gamma 90.000000
_cell_volume 6117.882534
_symmetry_space_group_name_H-M "P 42/N M C"
_symmetry_group_IT_number 137
_space_group.IT_coordinate_system_code '2'
_symmetry_cell_setting 'tetragonal'
loop_
_space_group_symop_operation_xyz
x,y,z
1/2-y,x,1/2+z
1/2-x,1/2-y,z
y,1/2-x,1/2+z
1/2+x,-y,-z
-x,1/2+y,-z
1/2+y,1/2+x,1/2-z
-y,-x,1/2-z
-x,-y,-z
1/2+y,-x,1/2-z
1/2+x,1/2+y,-z
-y,1/2+x,1/2-z
1/2-x,y,z
x,1/2-y,z
1/2-y,1/2-x,1/2+z
y,x,1/2+z
loop_
_atom_site_type_symbol
_atom_site_label
_atom_site_fract_x
_atom_site_fract_y
_atom_site_fract_z
Si Si1 0.134576 0.951539 0.044576
Si Si2 0.637775 0.952500 0.083096
Si Si3 0.864439 0.356919 0.039336
Si Si4 0.857036 0.864814 0.496826
Si Si5 0.531253 0.134552 0.876048
Si Si6 0.865227 0.142341 0.704656
O O1 0.250000 0.945111 0.045721
O O2 0.095056 0.911275 0.087459
O O3 0.092676 0.888530 0.005695
O O4 0.100417 0.063823 0.037408
O O5 0.750000 0.939570 0.094001
O O6 0.604831 0.891516 0.042757
O O7 0.577157 0.908740 0.121435
O O8 0.609552 0.065061 0.075074
O O9 0.750000 0.356361 0.034004
O O10 0.903466 0.250000 0.051645
O O11 0.750000 0.908929 0.487186
O O12 0.852155 0.750000 0.495838
O O13 0.532180 0.250000 0.879673
O O14 0.572622 0.097986 0.831958
O O15 0.898460 0.101541 0.750000
O O16 0.750000 0.148320 0.704743
O O17 0.907889 0.250000 0.696763
#
# Coordination Sequence:
#
# PCOD8318789 Si02
#       6
#    16  16  16  16  16  16
#     4   9  17  27  39  59  84 107 137 177 212 240
#     4   9  18  30  41  57  82 109 141 178 207 233
#     4   8  14  26  42  57  79 112 142 171 210 246
#     4   8  14  26  41  54  77 116 150 173 202 239
#     4  11  20  27  41  64  84 106 137 168 202 242
#     4   8  15  29  47  66  88 109 126 151 196 253
#
# _framework density 15.691703
#
# number of rings (size 3 to 8) (size 9 to 14) (size 15 to 20)
#    0.000    3.167    0.000    4.000    0.000    5.333 
#    0.000    2.500    0.000    0.000    0.000    2.333 
#    0.000    5.333    0.000    0.000    0.000    0.000 
#
# Total GULP energy -1189603.890897 kJ/mol
# GULP energy per Si atom -12391.707197 kJ/mol
# Density = 1.565599 g / cm^3
# Si number density = 15.691703 Si / 1000 Ang^3
#
#
#
# Elastic Constant Matrix: (Units=GPa)
#
#
# Indices 1 2 3 4 5 6 
#
# 1 86.4302 23.4179 45.4048 0.0000 0.0000 0.0000
# 2 23.4179 86.4303 45.4049 0.0000 0.0000 0.0000
# 3 45.4048 45.4049 107.5614 0.0000 0.0000 0.0000
# 4 0.0000 0.0000 0.0000 18.6186 0.0000 0.0000
# 5 0.0000 0.0000 0.0000 0.0000 18.6185 0.0000
# 6 0.0000 0.0000 0.0000 0.0000 0.0000 13.9492
#
#
#
# Elastic Compliance Matrix: (Units=1/GPa)
#
#
# Indices 1 2 3 4 5 6 
#
# 1 0.014927 -0.000943 -0.005903 0.000000 0.000000 0.000000
# 2 -0.000943 0.014927 -0.005903 0.000000 0.000000 0.000000
# 3 -0.005903 -0.005903 0.014280 0.000000 0.000000 0.000000
# 4 0.000000 0.000000 0.000000 0.053710 0.000000 0.000000
# 5 0.000000 0.000000 0.000000 0.000000 0.053710 0.000000
# 6 0.000000 0.000000 0.000000 0.000000 0.000000 0.071689
#
#
# Mechanical properties :
#
#
# Convention : Reuss Voigt Hill
#
# Bulk Modulus (GPa) = 53.65984 56.54191 55.10088
# Shear Modulus (GPa) = 19.61159 21.31689 20.46424
#
# Velocity S-wave (km/s) = 3.53910 3.68976 3.61521
# Velocity P-wave (km/s) = 7.13938 7.36639 7.25377
#
# Compressibility (1/GPa) = 0.01863591
#
# Stress axis : x y z
#
# Youngs Moduli (GPa) = 66.99474 66.99486 70.02597
#
# Poissons Ratio (x) = 0.06320 0.41334
# Poissons Ratio (y) = 0.06320 0.41334
# Poissons Ratio (z) = 0.39545 0.39545
#
# Static dielectric constant tensor:
#      x y z
#    x 3.269600 0.000000 0.000000 
#    y 0.000000 3.269600 0.000000 
#    z 0.000000 0.000000 2.850310 
# 
# 
# High freq. dielectric constant tensor:
#      x y z
#    x 1.603030 0.000000 0.000000 
#    y 0.000000 1.603030 0.000000 
#    z 0.000000 0.000000 1.551580 
# 
# From -- ./inp_files/10591.got.cif
#   From: 2010.03.12/outbox.cif.g09.slc.cpg/sg137_6_cif.got.tgz:10591.got - 2010.04.08 09:34:49.
