data_PCOD8318637
_publ_section_title
;
Structure prediction by ZEFSAII (Michael W. Deem and Ramdas Pophale) SiO2 
 PCOD8318637
Probable space group: P 42/N M C
;
_chemical_formula_sum "Si O2"
_cell_formula_units_Z 88
_cell_length_a 14.845394
_cell_length_b 14.845394
_cell_length_c 19.574998
_cell_angle_alpha 90.000000
_cell_angle_beta 90.000000
_cell_angle_gamma 90.000000
_cell_volume 4314.050087
_symmetry_space_group_name_H-M "P 42/N M C"
_symmetry_group_IT_number 137
_space_group.IT_coordinate_system_code '2'
_symmetry_cell_setting 'tetragonal'
loop_
_space_group_symop_operation_xyz
x,y,z
1/2-y,x,1/2+z
1/2-x,1/2-y,z
y,1/2-x,1/2+z
1/2+x,-y,-z
-x,1/2+y,-z
1/2+y,1/2+x,1/2-z
-y,-x,1/2-z
-x,-y,-z
1/2+y,-x,1/2-z
1/2+x,1/2+y,-z
-y,1/2+x,1/2-z
1/2-x,y,z
x,1/2-y,z
1/2-y,1/2-x,1/2+z
y,x,1/2+z
loop_
_atom_site_type_symbol
_atom_site_label
_atom_site_fract_x
_atom_site_fract_y
_atom_site_fract_z
Si Si1 0.351237 0.851237 0.750000
Si Si2 0.846757 0.005355 0.440512
Si Si3 0.923057 0.005780 0.148367
Si Si4 0.052516 0.853113 0.189762
Si Si5 0.926258 0.652048 0.514338
Si Si6 0.851262 0.385978 0.952055
O O1 0.361088 0.750000 0.781496
O O2 0.430323 0.861154 0.694623
O O3 0.750000 0.995020 0.403072
O O4 0.855487 0.924446 0.494984
O O5 0.928190 0.002554 0.386306
O O6 0.844070 0.097413 0.483403
O O7 0.860791 0.961988 0.090906
O O8 0.970156 0.925137 0.190824
O O9 0.121590 0.878411 0.250000
O O10 0.017962 0.750000 0.201331
O O11 0.102631 0.857466 0.117929
O O12 0.879625 0.750000 0.510484
O O13 0.006513 0.646795 0.459358
O O14 0.750000 0.348085 0.953012
#
# Coordination Sequence:
#
# PCOD8318637 Si02
#       6
#     8  16  16  16  16  16
#     4  11  24  42  68  96 121 156 200 248 307 366
#     4  11  21  36  60  90 123 157 197 242 299 359
#     4  11  21  41  61  90 124 160 195 249 305 357
#     4  12  24  39  61  87 118 159 207 251 303 360
#     4  10  20  36  60  87 118 158 200 239 289 353
#     4  10  20  37  59  85 121 155 191 248 305 349
#
# _framework density 20.398464000000001
#
# number of rings (size 3 to 8) (size 9 to 14) (size 15 to 20)
#    0.000    1.182    4.545    3.273    0.000    3.455 
#    0.000    0.000    0.000    1.636    0.000    0.000 
#    0.000    0.000    0.000    0.000    0.000    0.000 
#
# Total GULP energy -1090777.967127 kJ/mol
# GULP energy per Si atom -12395.204172 kJ/mol
# Density = 2.035204 g / cm^3
# Si number density = 20.398464 Si / 1000 Ang^3
#
#
#
# Elastic Constant Matrix: (Units=GPa)
#
#
# Indices 1 2 3 4 5 6 
#
# 1 107.7124 52.7846 14.4914 0.0000 0.0000 0.0000
# 2 52.7846 107.7125 14.4913 0.0000 0.0000 0.0000
# 3 14.4914 14.4913 59.4038 0.0000 0.0000 0.0000
# 4 0.0000 0.0000 0.0000 14.2150 0.0000 0.0000
# 5 0.0000 0.0000 0.0000 0.0000 14.2155 0.0000
# 6 0.0000 0.0000 0.0000 0.0000 0.0000 12.9793
#
#
#
# Elastic Compliance Matrix: (Units=1/GPa)
#
#
# Indices 1 2 3 4 5 6 
#
# 1 0.012362 -0.005844 -0.001590 0.000000 0.000000 0.000000
# 2 -0.005844 0.012362 -0.001590 0.000000 0.000000 0.000000
# 3 -0.001590 -0.001590 0.017610 0.000000 0.000000 0.000000
# 4 0.000000 0.000000 0.000000 0.070348 0.000000 0.000000
# 5 0.000000 0.000000 0.000000 0.000000 0.070346 0.000000
# 6 0.000000 0.000000 0.000000 0.000000 0.000000 0.077045
#
#
# Mechanical properties :
#
#
# Convention : Reuss Voigt Hill
#
# Bulk Modulus (GPa) = 41.17722 48.70702 44.94212
# Shear Modulus (GPa) = 17.46935 21.15273 19.31104
#
# Velocity S-wave (km/s) = 2.92962 3.22371 3.08017
# Velocity P-wave (km/s) = 5.62795 6.14703 5.89321
#
# Compressibility (1/GPa) = 0.02428527
#
# Stress axis : x y z
#
# Youngs Moduli (GPa) = 80.89472 80.89482 56.78698
#
# Poissons Ratio (x) = 0.47275 0.09029
# Poissons Ratio (y) = 0.47275 0.09029
# Poissons Ratio (z) = 0.12862 0.12862
#
# Static dielectric constant tensor:
#      x y z
#    x 3.786570 0.000000 0.000000 
#    y 0.000000 3.786570 0.000000 
#    z 0.000000 0.000000 3.593190 
# 
# 
# High freq. dielectric constant tensor:
#      x y z
#    x 1.794760 0.000000 0.000000 
#    y 0.000000 1.794760 0.000000 
#    z 0.000000 0.000000 1.784260 
# 
# From -- ./inp_files/7706.got.cif
#   From: 2010.03.12/outbox.cif.g09.slc.cpg/sg137_4_cif.got.tgz:7706.got - 2010.04.08 09:34:49.
