data_PCOD8318120
_publ_section_title
;
Structure prediction by ZEFSAII (Michael W. Deem and Ramdas Pophale) SiO2 
 PCOD8318120
Probable space group: P 42/M N M
;
_chemical_formula_sum "Si O2"
_cell_formula_units_Z 72
_cell_length_a 20.610003
_cell_length_b 20.610003
_cell_length_c 7.927576
_cell_angle_alpha 90.000000
_cell_angle_beta 90.000000
_cell_angle_gamma 90.000000
_cell_volume 3367.414086
_symmetry_space_group_name_H-M "P 42/M N M"
_symmetry_group_IT_number 136
_symmetry_cell_setting 'tetragonal'
loop_
_space_group_symop_operation_xyz
x,y,z
1/2-y,1/2+x,1/2+z
-x,-y,z
1/2+y,1/2-x,1/2+z
1/2+x,1/2-y,1/2-z
1/2-x,1/2+y,1/2-z
y,x,-z
-y,-x,-z
-x,-y,-z
1/2+y,1/2-x,1/2-z
x,y,-z
1/2-y,1/2+x,1/2-z
1/2-x,1/2+y,1/2+z
1/2+x,1/2-y,1/2+z
-y,-x,z
y,x,z
loop_
_atom_site_type_symbol
_atom_site_label
_atom_site_fract_x
_atom_site_fract_y
_atom_site_fract_z
Si Si1 0.416303 0.775972 0.694510
Si Si2 0.710754 0.289247 0.306334
Si Si3 0.313103 0.313103 0.305804
Si Si4 0.003589 0.101751 0.500000
Si Si5 0.409926 0.041278 0.193106
Si Si6 0.188510 0.963060 0.194076
O O1 0.397430 0.779516 0.500000
O O2 0.357243 0.734994 0.780973
O O3 0.418332 0.849153 0.768576
O O4 0.489144 0.749201 0.720097
O O5 0.695684 0.304317 0.500000
O O6 0.766046 0.233955 0.297475
O O7 0.299330 0.299330 0.500000
O O8 0.295872 0.388087 0.260933
O O9 0.960660 0.039341 0.500000
O O10 0.989695 0.137269 0.674495
O O11 0.078851 0.078851 0.500000
O O12 0.474607 0.083823 0.203919
O O13 0.396370 0.022324 0.000000
O O14 0.162533 0.967188 0.000000
#
# Coordination Sequence:
#
# PCOD8318120 Si02
#       6
#    16   8   8   8  16  16
#     4   9  21  40  61  88 121 163 208 251 315 381
#     4  10  22  40  64  89 122 163 204 260 320 377
#     4  10  22  40  64  93 121 164 211 257 319 378
#     4  11  24  40  62  98 128 157 212 262 310 376
#     4  10  20  37  58  84 116 153 202 254 306 369
#     4  10  22  43  66  89 127 170 211 260 315 375
#
# _framework density 21.381392000000002
#
# number of rings (size 3 to 8) (size 9 to 14) (size 15 to 20)
#    0.000    2.111    1.111    1.333    6.222    0.444 
#    6.000    1.111    0.000    0.000    0.000    0.000 
#    0.000    0.000    0.000    0.000    0.000    0.000 
#
# Total GULP energy -892105.236815 kJ/mol
# GULP energy per Si atom -12390.350511 kJ/mol
# Density = 2.133273 g / cm^3
# Si number density = 21.381392 Si / 1000 Ang^3
#
#
#
# Elastic Constant Matrix: (Units=GPa)
#
#
# Indices 1 2 3 4 5 6 
#
# 1 111.2375 101.9981 7.5768 0.0000 0.0000 0.0000
# 2 101.9981 111.2360 7.5755 0.0000 0.0000 0.0000
# 3 7.5768 7.5755 53.8669 0.0000 0.0000 0.0000
# 4 0.0000 0.0000 0.0000 18.4809 0.0000 0.0000
# 5 0.0000 0.0000 0.0000 0.0000 18.4823 0.0000
# 6 0.0000 0.0000 0.0000 0.0000 0.0000 36.5407
#
#
#
# Elastic Compliance Matrix: (Units=1/GPa)
#
#
# Indices 1 2 3 4 5 6 
#
# 1 0.056488 -0.051752 -0.000668 0.000000 0.000000 0.000000
# 2 -0.051752 0.056489 -0.000665 0.000000 0.000000 0.000000
# 3 -0.000668 -0.000665 0.018752 0.000000 0.000000 0.000000
# 4 0.000000 0.000000 0.000000 0.054110 0.000000 0.000000
# 5 0.000000 0.000000 0.000000 0.000000 0.054106 0.000000
# 6 0.000000 0.000000 0.000000 0.000000 0.000000 0.027367
#
#
# Mechanical properties :
#
#
# Convention : Reuss Voigt Hill
#
# Bulk Modulus (GPa) = 39.12252 56.73791 47.93022
# Shear Modulus (GPa) = 13.08898 25.31344 19.20121
#
# Velocity S-wave (km/s) = 2.47689 3.44452 2.99997
# Velocity P-wave (km/s) = 5.14948 6.51255 5.87071
#
# Compressibility (1/GPa) = 0.02556073
#
# Stress axis : x y z
#
# Youngs Moduli (GPa) = 17.70272 17.70255 53.32858
#
# Poissons Ratio (x) = 0.91614 0.03560
# Poissons Ratio (y) = 0.91615 0.03546
# Poissons Ratio (z) = 0.01182 0.01177
#
# Static dielectric constant tensor:
#      x y z
#    x 4.318230 0.000000 0.000000 
#    y 0.000000 4.318260 0.000000 
#    z 0.000000 0.000000 3.540500 
# 
# 
# High freq. dielectric constant tensor:
#      x y z
#    x 1.842400 0.000000 0.000000 
#    y 0.000000 1.842400 0.000000 
#    z 0.000000 0.000000 1.819610 
# 
# From -- ./inp_files/1618.got.cif
#   From: 2010.03.12/outbox.cif.g09.slc.cpg/sg136_1_cif.got.tgz:1618.got - 2010.04.06 18:39:43.
