data_PCOD8318103
_publ_section_title
;
Structure prediction by ZEFSAII (Michael W. Deem and Ramdas Pophale) SiO2 
 PCOD8318103
Probable space group: P 42/M N M
;
_chemical_formula_sum "Si O2"
_cell_formula_units_Z 120
_cell_length_a 26.084570
_cell_length_b 26.084570
_cell_length_c 8.914831
_cell_angle_alpha 90.000000
_cell_angle_beta 90.000000
_cell_angle_gamma 90.000000
_cell_volume 6065.693733
_symmetry_space_group_name_H-M "P 42/M N M"
_symmetry_group_IT_number 136
_symmetry_cell_setting 'tetragonal'
loop_
_space_group_symop_operation_xyz
x,y,z
1/2-y,1/2+x,1/2+z
-x,-y,z
1/2+y,1/2-x,1/2+z
1/2+x,1/2-y,1/2-z
1/2-x,1/2+y,1/2-z
y,x,-z
-y,-x,-z
-x,-y,-z
1/2+y,1/2-x,1/2-z
x,y,-z
1/2-y,1/2+x,1/2-z
1/2-x,1/2+y,1/2+z
1/2+x,1/2-y,1/2+z
-y,-x,z
y,x,z
loop_
_atom_site_type_symbol
_atom_site_label
_atom_site_fract_x
_atom_site_fract_y
_atom_site_fract_z
Si Si1 0.041026 0.041026 0.677812
Si Si2 0.701229 0.843897 0.327152
Si Si3 0.898804 0.595008 0.328015
Si Si4 0.008614 0.153793 0.677766
Si Si5 0.819447 0.094536 0.831816
Si Si6 0.665798 0.748857 0.834745
Si Si7 0.353461 0.010605 0.176933
Si Si8 0.562789 0.250410 0.321851
O O1 0.038570 0.038570 0.500000
O O2 0.027404 0.098094 0.733718
O O3 0.000000 0.000000 0.744455
O O4 0.717841 0.840368 0.500000
O O5 0.643305 0.862403 0.306450
O O6 0.702487 0.788436 0.251538
O O7 0.741012 0.880390 0.241663
O O8 0.914126 0.586486 0.500000
O O9 0.867798 0.546022 0.264709
O O10 0.951061 0.603205 0.237667
O O11 0.013096 0.159563 0.500000
O O12 0.043278 0.196516 0.755552
O O13 0.950130 0.159844 0.726506
O O14 0.861810 0.138191 0.839685
O O15 0.765956 0.115700 0.763155
O O16 0.807421 0.074018 0.000000
O O17 0.697136 0.697136 0.857095
O O18 0.649658 0.769900 0.000000
O O19 0.296418 0.026130 0.233373
O O20 0.354502 0.013826 0.000000
O O21 0.565125 0.254044 0.500000
#
# Coordination Sequence:
#
# PCOD8318103 Si02
#       8
#     8  16  16  16  16  16  16  16
#     4   9  20  40  65  91 123 159 193 235 293 359
#     4  10  20  36  58  81 110 149 192 240 292 347
#     4   9  19  34  52  76 106 142 185 231 281 336
#     4  11  22  38  62  91 118 153 198 243 293 352
#     4  10  21  37  58  87 122 155 189 232 287 349
#     4  10  21  37  57  85 117 148 186 231 283 344
#     4   9  19  35  53  76 107 146 186 233 287 339
#     4  10  21  38  58  81 115 153 195 244 294 349
#
# _framework density 19.783391999999999
#
# number of rings (size 3 to 8) (size 9 to 14) (size 15 to 20)
#    0.000    2.200    0.000    2.400    1.867    4.000 
#    1.200    2.667    0.000    2.400    0.000    0.000 
#    0.000    0.000    0.000    0.000    0.000    0.000 
#
# Total GULP energy -1488091.610741 kJ/mol
# GULP energy per Si atom -12400.763423 kJ/mol
# Density = 1.973836 g / cm^3
# Si number density = 19.783392 Si / 1000 Ang^3
#
#
#
# Elastic Constant Matrix: (Units=GPa)
#
#
# Indices 1 2 3 4 5 6 
#
# 1 108.5648 47.7661 39.1976 0.0000 0.0000 0.0000
# 2 47.7661 108.5648 39.1976 0.0000 0.0000 0.0000
# 3 39.1976 39.1976 89.2489 0.0000 0.0000 0.0000
# 4 0.0000 0.0000 0.0000 30.9326 0.0000 0.0000
# 5 0.0000 0.0000 0.0000 0.0000 30.9326 0.0000
# 6 0.0000 0.0000 0.0000 0.0000 0.0000 23.3590
#
#
#
# Elastic Compliance Matrix: (Units=1/GPa)
#
#
# Indices 1 2 3 4 5 6 
#
# 1 0.012326 -0.004122 -0.003603 0.000000 0.000000 0.000000
# 2 -0.004122 0.012326 -0.003603 0.000000 0.000000 0.000000
# 3 -0.003603 -0.003603 0.014369 0.000000 0.000000 0.000000
# 4 0.000000 0.000000 0.000000 0.032328 0.000000 0.000000
# 5 0.000000 0.000000 0.000000 0.000000 0.032328 0.000000
# 6 0.000000 0.000000 0.000000 0.000000 0.000000 0.042810
#
#
# Mechanical properties :
#
#
# Convention : Reuss Voigt Hill
#
# Bulk Modulus (GPa) = 61.10739 62.07789 61.59264
# Shear Modulus (GPa) = 28.63720 29.05932 28.84826
#
# Velocity S-wave (km/s) = 3.80878 3.83675 3.82279
# Velocity P-wave (km/s) = 7.09209 7.14664 7.11941
#
# Compressibility (1/GPa) = 0.01636463
#
# Stress axis : x y z
#
# Youngs Moduli (GPa) = 81.13206 81.13206 69.59256
#
# Poissons Ratio (x) = 0.33444 0.25073
# Poissons Ratio (y) = 0.33444 0.25073
# Poissons Ratio (z) = 0.29231 0.29231
#
# Static dielectric constant tensor:
#      x y z
#    x 3.617190 0.000000 0.000000 
#    y 0.000000 3.617190 0.000000 
#    z 0.000000 0.000000 3.724380 
# 
# 
# High freq. dielectric constant tensor:
#      x y z
#    x 1.768260 0.000000 0.000000 
#    y 0.000000 1.768260 0.000000 
#    z 0.000000 0.000000 1.773150 
# 
# From -- ./inp_files/2348.got.cif
#   From: 2010.03.12/outbox.cif.g09.slc.cpg/sg136_2_cif.got.tgz:2348.got - 2010.04.06 18:39:43.
