data_PCOD8318586
_publ_section_title
;
Structure prediction by ZEFSAII (Michael W. Deem and Ramdas Pophale) SiO2 
 PCOD8318586
Probable space group: P 42/N M C
;
_chemical_formula_sum "Si O2"
_cell_formula_units_Z 112
_cell_length_a 15.416150
_cell_length_b 15.416150
_cell_length_c 26.391403
_cell_angle_alpha 90.000000
_cell_angle_beta 90.000000
_cell_angle_gamma 90.000000
_cell_volume 6272.119631
_symmetry_space_group_name_H-M "P 42/N M C"
_symmetry_group_IT_number 137
_space_group.IT_coordinate_system_code '2'
_symmetry_cell_setting 'tetragonal'
loop_
_space_group_symop_operation_xyz
x,y,z
1/2-y,x,1/2+z
1/2-x,1/2-y,z
y,1/2-x,1/2+z
1/2+x,-y,-z
-x,1/2+y,-z
1/2+y,1/2+x,1/2-z
-y,-x,1/2-z
-x,-y,-z
1/2+y,-x,1/2-z
1/2+x,1/2+y,-z
-y,1/2+x,1/2-z
1/2-x,y,z
x,1/2-y,z
1/2-y,1/2-x,1/2+z
y,x,1/2+z
loop_
_atom_site_type_symbol
_atom_site_label
_atom_site_fract_x
_atom_site_fract_y
_atom_site_fract_z
Si Si1 0.153314 0.847223 0.190287
Si Si2 0.547799 0.999740 0.446992
Si Si3 0.850764 0.071540 0.200476
Si Si4 0.057312 0.482590 0.345947
Si Si5 0.350187 0.156123 0.402906
Si Si6 0.351818 0.347937 0.515100
Si Si7 0.649912 0.153871 0.407528
O O1 0.155849 0.844152 0.250000
O O2 0.250000 0.878953 0.171326
O O3 0.136147 0.750000 0.168894
O O4 0.074212 0.910059 0.175416
O O5 0.607799 0.914431 0.444904
O O6 0.500000 0.000000 0.500000
O O7 0.490133 0.992723 0.397404
O O8 0.602006 0.088042 0.444515
O O9 0.872203 0.127797 0.250000
O O10 0.750000 0.037587 0.204358
O O11 0.862214 0.132182 0.151691
O O12 0.925003 0.997103 0.194515
O O13 0.134634 0.417697 0.361452
O O14 0.250000 0.169532 0.410927
O O15 0.390134 0.250000 0.385541
O O16 0.388988 0.131819 0.458270
O O17 0.250000 0.361886 0.516630
O O18 0.376663 0.250000 0.530908
O O19 0.750000 0.141266 0.417694
O O20 0.618634 0.250000 0.422916
#
# Coordination Sequence:
#
# PCOD8318586 Si02
#       7
#    16  16  16  16  16  16  16
#     4   9  19  37  58  77 101 136 176 219 272 332
#     4  11  21  32  47  73 103 135 164 208 260 304
#     4  10  20  33  53  80 108 139 174 215 265 322
#     4  11  20  32  52  78 109 133 174 218 268 315
#     4   9  17  30  49  71  97 132 172 214 257 304
#     4   9  18  33  51  67  89 130 177 211 247 301
#     4   9  19  35  53  72  98 135 174 211 252 304
#
# _framework density 17.856804
#
# number of rings (size 3 to 8) (size 9 to 14) (size 15 to 20)
#    0.000    2.286    1.429    3.429    0.000    2.429 
#    0.000    0.000    0.000    1.714    0.000    0.000 
#    0.000    4.571    0.000    0.000    0.000    0.000 
#
# Total GULP energy -1387526.450602 kJ/mol
# GULP energy per Si atom -12388.629023 kJ/mol
# Density = 1.781616 g / cm^3
# Si number density = 17.856804 Si / 1000 Ang^3
#
#
#
# Elastic Constant Matrix: (Units=GPa)
#
#
# Indices 1 2 3 4 5 6 
#
# 1 108.6660 61.3247 39.6583 0.0000 0.0000 0.0000
# 2 61.3247 108.6661 39.6583 0.0000 0.0000 0.0000
# 3 39.6583 39.6583 64.4219 0.0000 0.0000 0.0000
# 4 0.0000 0.0000 0.0000 23.7284 0.0000 0.0000
# 5 0.0000 0.0000 0.0000 0.0000 23.7284 0.0000
# 6 0.0000 0.0000 0.0000 0.0000 0.0000 30.4252
#
#
#
# Elastic Compliance Matrix: (Units=1/GPa)
#
#
# Indices 1 2 3 4 5 6 
#
# 1 0.014688 -0.006435 -0.005081 0.000000 0.000000 0.000000
# 2 -0.006435 0.014688 -0.005081 0.000000 0.000000 0.000000
# 3 -0.005081 -0.005081 0.021778 0.000000 0.000000 0.000000
# 4 0.000000 0.000000 0.000000 0.042144 0.000000 0.000000
# 5 0.000000 0.000000 0.000000 0.000000 0.042144 0.000000
# 6 0.000000 0.000000 0.000000 0.000000 0.000000 0.032868
#
#
# Mechanical properties :
#
#
# Convention : Reuss Voigt Hill
#
# Bulk Modulus (GPa) = 55.67398 62.55963 59.11681
# Shear Modulus (GPa) = 24.09760 24.98391 24.54076
#
# Velocity S-wave (km/s) = 3.67753 3.74455 3.71119
# Velocity P-wave (km/s) = 7.01983 7.33523 7.17926
#
# Compressibility (1/GPa) = 0.01796171
#
# Stress axis : x y z
#
# Youngs Moduli (GPa) = 68.08161 68.08165 45.91756
#
# Poissons Ratio (x) = 0.43810 0.23330
# Poissons Ratio (y) = 0.43810 0.23330
# Poissons Ratio (z) = 0.34591 0.34591
#
# Static dielectric constant tensor:
#      x y z
#    x 3.447360 0.000000 0.000000 
#    y 0.000000 3.447360 0.000000 
#    z 0.000000 0.000000 3.149170 
# 
# 
# High freq. dielectric constant tensor:
#      x y z
#    x 1.698220 0.000000 0.000000 
#    y 0.000000 1.698220 0.000000 
#    z 0.000000 0.000000 1.668030 
# 
# From -- ./inp_files/8946.got.cif
#   From: 2010.03.12/outbox.cif.g09.slc.cpg/sg137_5_cif.got.tgz:8946.got - 2010.04.08 09:34:49.
