data_PCOD8318778
_publ_section_title
;
Structure prediction by ZEFSAII (Michael W. Deem and Ramdas Pophale) SiO2 
 PCOD8318778
Probable space group: P 42/N M C
;
_chemical_formula_sum "Si O2"
_cell_formula_units_Z 58
_cell_length_a 13.032466
_cell_length_b 13.032466
_cell_length_c 18.736945
_cell_angle_alpha 90.000000
_cell_angle_beta 90.000000
_cell_angle_gamma 90.000000
_cell_volume 3182.379610
_symmetry_space_group_name_H-M "P 42/N M C"
_symmetry_group_IT_number 137
_space_group.IT_coordinate_system_code '2'
_symmetry_cell_setting 'tetragonal'
loop_
_space_group_symop_operation_xyz
x,y,z
1/2-y,x,1/2+z
1/2-x,1/2-y,z
y,1/2-x,1/2+z
1/2+x,-y,-z
-x,1/2+y,-z
1/2+y,1/2+x,1/2-z
-y,-x,1/2-z
-x,-y,-z
1/2+y,-x,1/2-z
1/2+x,1/2+y,-z
-y,1/2+x,1/2-z
1/2-x,y,z
x,1/2-y,z
1/2-y,1/2-x,1/2+z
y,x,1/2+z
loop_
_atom_site_type_symbol
_atom_site_label
_atom_site_fract_x
_atom_site_fract_y
_atom_site_fract_z
Si Si1 0.369065 0.134698 0.174276
Si Si2 0.750000 0.136877 0.390505
Si Si3 0.863166 0.871242 0.665300
Si Si4 0.250000 0.750000 0.750000
Si Si5 0.974716 0.460698 0.077980
O O1 0.250000 0.138278 0.156242
O O2 0.415840 0.250000 0.163852
O O3 0.389245 0.094464 0.254167
O O4 0.419768 0.053823 0.120819
O O5 0.750000 0.250000 0.424933
O O6 0.750000 0.149283 0.302585
O O7 0.647698 0.083370 0.419825
O O8 0.750000 0.914049 0.643240
O O9 0.859257 0.750000 0.662770
O O10 0.950107 0.908308 0.612639
O O11 0.000000 0.500000 0.000000
#
# Coordination Sequence:
#
# PCOD8318778 Si02
#       5
#    16   8  16   2  16
#     4   9  19  37  60  85 112 148 200 251 295 354
#     4  10  24  40  61  99 120 155 205 262 337 365
#     4   9  20  37  61  87 112 150 200 252 300 353
#     4   8  24  40  72  92 128 148 202 288 328 376
#     4  12  24  35  59  85 128 163 197 245 309 384
#
# _framework density 18.225356000000001
#
# number of rings (size 3 to 8) (size 9 to 14) (size 15 to 20)
#    0.414    1.655    1.379    3.310    5.793    2.207 
#    0.000    2.759    0.000    0.000    0.000    3.862 
#    0.000    0.000    0.000    0.000    0.000    0.000 
#
# Total GULP energy -718885.455023 kJ/mol
# GULP energy per Si atom -12394.576811 kJ/mol
# Density = 1.818387 g / cm^3
# Si number density = 18.225356 Si / 1000 Ang^3
#
#
#
# Elastic Constant Matrix: (Units=GPa)
#
#
# Indices 1 2 3 4 5 6 
#
# 1 94.5199 44.7672 64.0571 0.0000 0.0000 0.0000
# 2 44.7672 94.5199 64.0571 0.0000 0.0000 0.0000
# 3 64.0571 64.0571 127.8118 0.0000 0.0000 0.0000
# 4 0.0000 0.0000 0.0000 23.0064 0.0000 0.0000
# 5 0.0000 0.0000 0.0000 0.0000 23.0064 0.0000
# 6 0.0000 0.0000 0.0000 0.0000 0.0000 30.3335
#
#
#
# Elastic Compliance Matrix: (Units=1/GPa)
#
#
# Indices 1 2 3 4 5 6 
#
# 1 0.016709 -0.003390 -0.006675 0.000000 0.000000 0.000000
# 2 -0.003390 0.016709 -0.006675 0.000000 0.000000 0.000000
# 3 -0.006675 -0.006675 0.014515 0.000000 0.000000 0.000000
# 4 0.000000 0.000000 0.000000 0.043466 0.000000 0.000000
# 5 0.000000 0.000000 0.000000 0.000000 0.043466 0.000000
# 6 0.000000 0.000000 0.000000 0.000000 0.000000 0.032967
#
#
# Mechanical properties :
#
#
# Convention : Reuss Voigt Hill
#
# Bulk Modulus (GPa) = 69.19347 73.62380 71.40864
# Shear Modulus (GPa) = 24.25624 24.86727 24.56176
#
# Velocity S-wave (km/s) = 3.65212 3.69783 3.67504
# Velocity P-wave (km/s) = 7.47207 7.66264 7.56795
#
# Compressibility (1/GPa) = 0.01445223
#
# Stress axis : x y z
#
# Youngs Moduli (GPa) = 59.84662 59.84662 68.89307
#
# Poissons Ratio (x) = 0.20288 0.45989
# Poissons Ratio (y) = 0.20288 0.45989
# Poissons Ratio (z) = 0.39950 0.39950
#
# Static dielectric constant tensor:
#      x y z
#    x 3.198100 0.000000 0.000000 
#    y 0.000000 3.198100 0.000000 
#    z 0.000000 0.000000 3.453910 
# 
# 
# High freq. dielectric constant tensor:
#      x y z
#    x 1.707210 0.000000 0.000000 
#    y 0.000000 1.707210 0.000000 
#    z 0.000000 0.000000 1.694910 
# 
# From -- ./inp_files/7368.got.cif
#   From: 2010.03.12/outbox.cif.g09.slc.cpg/sg137_4_cif.got.tgz:7368.got - 2010.04.08 09:34:49.
