data_PCOD8318396
_publ_section_title
;
Structure prediction by ZEFSAII (Michael W. Deem and Ramdas Pophale) SiO2 
 PCOD8318396
Probable space group: P 42/N M C
;
_chemical_formula_sum "Si O2"
_cell_formula_units_Z 80
_cell_length_a 29.528393
_cell_length_b 29.528393
_cell_length_c 5.276038
_cell_angle_alpha 90.000000
_cell_angle_beta 90.000000
_cell_angle_gamma 90.000000
_cell_volume 4600.314673
_symmetry_space_group_name_H-M "P 42/N M C"
_symmetry_group_IT_number 137
_space_group.IT_coordinate_system_code '2'
_symmetry_cell_setting 'tetragonal'
loop_
_space_group_symop_operation_xyz
x,y,z
1/2-y,x,1/2+z
1/2-x,1/2-y,z
y,1/2-x,1/2+z
1/2+x,-y,-z
-x,1/2+y,-z
1/2+y,1/2+x,1/2-z
-y,-x,1/2-z
-x,-y,-z
1/2+y,-x,1/2-z
1/2+x,1/2+y,-z
-y,1/2+x,1/2-z
1/2-x,y,z
x,1/2-y,z
1/2-y,1/2-x,1/2+z
y,x,1/2+z
loop_
_atom_site_type_symbol
_atom_site_label
_atom_site_fract_x
_atom_site_fract_y
_atom_site_fract_z
Si Si1 0.024673 0.051995 0.095214
Si Si2 0.199791 0.969259 0.471165
Si Si3 0.026737 0.300172 0.471251
Si Si4 0.394481 0.564194 0.502880
Si Si5 0.122519 0.402990 0.084276
O O1 0.013815 0.028990 0.371318
O O2 0.074087 0.073615 0.144645
O O3 0.988150 0.090111 0.025015
O O4 0.250000 0.946971 0.497150
O O5 0.160045 0.932247 0.491620
O O6 0.192669 0.005245 0.695323
O O7 0.194466 0.990499 0.193868
O O8 0.048773 0.250000 0.486265
O O9 0.063362 0.338443 0.505346
O O10 0.414976 0.585025 0.250000
O O11 0.408778 0.591223 0.750000
O O12 0.134040 0.380208 0.356477
#
# Coordination Sequence:
#
# PCOD8318396 Si02
#       5
#    16  16  16  16  16
#     4  10  19  31  45  62  94 135 170 196 229 275
#     4  10  20  36  55  72  95 131 171 213 260 297
#     4  10  19  33  54  75  96 128 175 224 260 294
#     4  12  24  35  49  72 103 133 169 206 237 290
#     4  10  18  29  47  68  96 129 162 204 253 296
#
# _framework density 17.390115000000002
#
# number of rings (size 3 to 8) (size 9 to 14) (size 15 to 20)
#    0.000    1.600    0.000    8.400    0.000    2.400 
#    0.000    0.000    0.000    0.000    0.000    0.000 
#    0.000    4.800    0.000    0.000    0.000    0.000 
#
# Total GULP energy -991562.599963 kJ/mol
# GULP energy per Si atom -12394.532500 kJ/mol
# Density = 1.735053 g / cm^3
# Si number density = 17.390115 Si / 1000 Ang^3
#
#
#
# Elastic Constant Matrix: (Units=GPa)
#
#
# Indices 1 2 3 4 5 6 
#
# 1 86.8983 32.1124 20.0425 0.0000 0.0000 0.0000
# 2 32.1124 86.9008 20.0435 0.0000 0.0000 0.0000
# 3 20.0425 20.0435 115.7452 0.0000 0.0000 0.0000
# 4 0.0000 0.0000 0.0000 18.8749 0.0000 0.0000
# 5 0.0000 0.0000 0.0000 0.0000 18.8752 0.0000
# 6 0.0000 0.0000 0.0000 0.0000 0.0000 10.6149
#
#
#
# Elastic Compliance Matrix: (Units=1/GPa)
#
#
# Indices 1 2 3 4 5 6 
#
# 1 0.013588 -0.004665 -0.001545 0.000000 0.000000 0.000000
# 2 -0.004665 0.013588 -0.001545 0.000000 0.000000 0.000000
# 3 -0.001545 -0.001545 0.009175 0.000000 0.000000 0.000000
# 4 0.000000 0.000000 0.000000 0.052980 0.000000 0.000000
# 5 0.000000 0.000000 0.000000 0.000000 0.052980 0.000000
# 6 0.000000 0.000000 0.000000 0.000000 0.000000 0.094207
#
#
# Mechanical properties :
#
#
# Convention : Reuss Voigt Hill
#
# Bulk Modulus (GPa) = 47.98432 48.21568 48.10000
# Shear Modulus (GPa) = 19.30699 24.16275 21.73487
#
# Velocity S-wave (km/s) = 3.33562 3.73158 3.53914
# Velocity P-wave (km/s) = 6.51828 6.80826 6.66484
#
# Compressibility (1/GPa) = 0.02084014
#
# Stress axis : x y z
#
# Youngs Moduli (GPa) = 73.59497 73.59686 108.99425
#
# Poissons Ratio (x) = 0.34331 0.16841
# Poissons Ratio (y) = 0.34330 0.16842
# Poissons Ratio (z) = 0.11371 0.11372
#
# Static dielectric constant tensor:
#      x y z
#    x 3.237790 0.000000 0.000000 
#    y 0.000000 3.237800 0.000000 
#    z 0.000000 0.000000 4.141940 
# 
# 
# High freq. dielectric constant tensor:
#      x y z
#    x 1.636910 0.000000 0.000000 
#    y 0.000000 1.636910 0.000000 
#    z 0.000000 0.000000 1.724240 
# 
# From -- ./inp_files/556.got.cif
#   From: 2010.03.12/outbox.cif.g09.slc.cpg/sg137_1_cif.got.tgz:556.got - 2010.04.08 09:34:49.
