data_PCOD8318179
_publ_section_title
;
Structure prediction by ZEFSAII (Michael W. Deem and Ramdas Pophale) SiO2 
 PCOD8318179
Probable space group: P 42/M N M
;
_chemical_formula_sum "Si O2"
_cell_formula_units_Z 64
_cell_length_a 19.291655
_cell_length_b 19.291655
_cell_length_c 8.815184
_cell_angle_alpha 90.000000
_cell_angle_beta 90.000000
_cell_angle_gamma 90.000000
_cell_volume 3280.728981
_symmetry_space_group_name_H-M "P 42/M N M"
_symmetry_group_IT_number 136
_symmetry_cell_setting 'tetragonal'
loop_
_space_group_symop_operation_xyz
x,y,z
1/2-y,1/2+x,1/2+z
-x,-y,z
1/2+y,1/2-x,1/2+z
1/2+x,1/2-y,1/2-z
1/2-x,1/2+y,1/2-z
y,x,-z
-y,-x,-z
-x,-y,-z
1/2+y,1/2-x,1/2-z
x,y,-z
1/2-y,1/2+x,1/2-z
1/2-x,1/2+y,1/2+z
1/2+x,1/2-y,1/2+z
-y,-x,z
y,x,z
loop_
_atom_site_type_symbol
_atom_site_label
_atom_site_fract_x
_atom_site_fract_y
_atom_site_fract_z
Si Si1 0.617286 0.769050 0.823314
Si Si2 0.124064 0.124064 0.318782
Si Si3 0.860349 0.030676 0.679173
Si Si4 0.465588 0.094202 0.824322
Si Si5 0.236007 0.236007 0.320487
O O1 0.579164 0.701158 0.756198
O O2 0.565264 0.831190 0.792249
O O3 0.688157 0.784684 0.736553
O O4 0.635349 0.759932 0.000000
O O5 0.122612 0.122612 0.500000
O O6 0.179924 0.179924 0.258654
O O7 0.047390 0.143263 0.255025
O O8 0.850945 0.026714 0.500000
O O9 0.933862 0.066138 0.722114
O O10 0.536390 0.088887 0.730011
O O11 0.482424 0.082571 0.000000
O O12 0.235362 0.235362 0.500000
#
# Coordination Sequence:
#
# PCOD8318179 Si02
#       5
#    16   8  16  16   8
#     4  10  21  37  57  79 111 152 188 223 275 340
#     4   9  19  31  52  87 112 134 175 229 284 319
#     4   9  16  31  55  80 107 140 178 223 271 328
#     4  10  21  36  57  82 112 148 189 238 283 338
#     4  11  23  36  55  83 117 146 181 236 277 328
#
# _framework density 19.507859
#
# number of rings (size 3 to 8) (size 9 to 14) (size 15 to 20)
#    0.000    2.250    1.250    2.250    3.500    3.500 
#    0.000    0.000    0.000    0.000    0.000    0.875 
#    0.000    0.000    0.000    0.000    0.000    0.000 
#
# Total GULP energy -793513.626403 kJ/mol
# GULP energy per Si atom -12398.650413 kJ/mol
# Density = 1.946346 g / cm^3
# Si number density = 19.507859 Si / 1000 Ang^3
#
#
#
# Elastic Constant Matrix: (Units=GPa)
#
#
# Indices 1 2 3 4 5 6 
#
# 1 124.1637 80.0435 19.5700 0.0000 0.0000 0.0000
# 2 80.0435 124.1637 19.5700 0.0000 0.0000 0.0000
# 3 19.5700 19.5700 22.3560 0.0000 0.0000 0.0000
# 4 0.0000 0.0000 0.0000 22.2377 0.0000 0.0000
# 5 0.0000 0.0000 0.0000 0.0000 22.2377 0.0000
# 6 0.0000 0.0000 0.0000 0.0000 0.0000 31.3433
#
#
#
# Elastic Compliance Matrix: (Units=1/GPa)
#
#
# Indices 1 2 3 4 5 6 
#
# 1 0.014275 -0.008391 -0.005151 0.000000 0.000000 0.000000
# 2 -0.008391 0.014275 -0.005151 0.000000 0.000000 0.000000
# 3 -0.005151 -0.005151 0.053749 0.000000 0.000000 0.000000
# 4 0.000000 0.000000 0.000000 0.044969 0.000000 0.000000
# 5 0.000000 0.000000 0.000000 0.000000 0.044969 0.000000
# 6 0.000000 0.000000 0.000000 0.000000 0.000000 0.031905
#
#
# Mechanical properties :
#
#
# Convention : Reuss Voigt Hill
#
# Bulk Modulus (GPa) = 22.26506 56.56115 39.41311
# Shear Modulus (GPa) = 19.49346 25.26375 22.37860
#
# Velocity S-wave (km/s) = 3.16454 3.60259 3.39065
# Velocity P-wave (km/s) = 4.97901 6.80895 5.96458
#
# Compressibility (1/GPa) = 0.04491341
#
# Stress axis : x y z
#
# Youngs Moduli (GPa) = 70.05343 70.05343 18.60510
#
# Poissons Ratio (x) = 0.58779 0.09583
# Poissons Ratio (y) = 0.58779 0.09583
# Poissons Ratio (z) = 0.36084 0.36084
#
# Static dielectric constant tensor:
#      x y z
#    x 3.719190 0.000000 0.000000 
#    y 0.000000 3.719190 0.000000 
#    z 0.000000 0.000000 3.186390 
# 
# 
# High freq. dielectric constant tensor:
#      x y z
#    x 1.772680 0.000000 0.000000 
#    y 0.000000 1.772680 0.000000 
#    z 0.000000 0.000000 1.714650 
# 
# From -- ./inp_files/1466.got.cif
#   From: 2010.03.12/outbox.cif.g09.slc.cpg/sg136_1_cif.got.tgz:1466.got - 2010.04.06 18:39:43.
