data_PCOD8318746
_publ_section_title
;
Structure prediction by ZEFSAII (Michael W. Deem and Ramdas Pophale) SiO2 
 PCOD8318746
Probable space group: P 42/N M C
;
_chemical_formula_sum "Si O2"
_cell_formula_units_Z 96
_cell_length_a 21.959131
_cell_length_b 21.959131
_cell_length_c 9.927509
_cell_angle_alpha 90.000000
_cell_angle_beta 90.000000
_cell_angle_gamma 90.000000
_cell_volume 4787.078934
_symmetry_space_group_name_H-M "P 42/N M C"
_symmetry_group_IT_number 137
_space_group.IT_coordinate_system_code '2'
_symmetry_cell_setting 'tetragonal'
loop_
_space_group_symop_operation_xyz
x,y,z
1/2-y,x,1/2+z
1/2-x,1/2-y,z
y,1/2-x,1/2+z
1/2+x,-y,-z
-x,1/2+y,-z
1/2+y,1/2+x,1/2-z
-y,-x,1/2-z
-x,-y,-z
1/2+y,-x,1/2-z
1/2+x,1/2+y,-z
-y,1/2+x,1/2-z
1/2-x,y,z
x,1/2-y,z
1/2-y,1/2-x,1/2+z
y,x,1/2+z
loop_
_atom_site_type_symbol
_atom_site_label
_atom_site_fract_x
_atom_site_fract_y
_atom_site_fract_z
Si Si1 0.178690 0.921333 0.744251
Si Si2 0.488659 0.815462 0.477221
Si Si3 0.681776 0.875835 0.926063
Si Si4 0.993198 0.063503 0.624847
Si Si5 0.590134 0.820347 0.125874
Si Si6 0.502113 0.895711 0.962554
O O1 0.143030 0.856971 0.750000
O O2 0.250000 0.909135 0.711172
O O3 0.170420 0.953411 0.886729
O O4 0.150722 0.967114 0.634216
O O5 0.468981 0.750000 0.417757
O O6 0.560591 0.817182 0.508126
O O7 0.475439 0.865289 0.361311
O O8 0.750000 0.848134 0.923447
O O9 0.658994 0.884475 0.771212
O O10 0.639103 0.829052 0.006373
O O11 0.976637 0.023364 0.750000
O O12 0.066656 0.058358 0.605072
O O13 0.951717 0.042081 0.499619
O O14 0.570797 0.750000 0.131698
O O15 0.529299 0.859266 0.090233
#
# Coordination Sequence:
#
# PCOD8318746 Si02
#       6
#    16  16  16  16  16  16
#     4  11  23  41  64  92 123 160 208 257 313 375
#     4  10  21  39  62  86 119 158 199 250 307 368
#     4  10  23  41  61  87 120 161 210 258 304 363
#     4  11  22  35  61  89 122 159 195 249 306 373
#     4  11  24  40  60  87 122 163 208 256 306 360
#     4  11  23  36  58  93 128 154 198 247 314 370
#
# _framework density 20.053982999999999
#
# number of rings (size 3 to 8) (size 9 to 14) (size 15 to 20)
#    0.000    1.333    3.333    2.000    4.667    1.167 
#    0.000    2.500    0.000    0.000    0.000    0.000 
#    0.000    0.000    0.000    0.000    0.000    0.000 
#
# Total GULP energy -1189673.920914 kJ/mol
# GULP energy per Si atom -12392.436676 kJ/mol
# Density = 2.000834 g / cm^3
# Si number density = 20.053983 Si / 1000 Ang^3
#
#
#
# Elastic Constant Matrix: (Units=GPa)
#
#
# Indices 1 2 3 4 5 6 
#
# 1 115.7100 27.7205 43.9292 0.0000 0.0000 0.0000
# 2 27.7205 115.7114 43.9294 0.0000 0.0000 0.0000
# 3 43.9292 43.9294 86.0248 0.0000 0.0000 0.0000
# 4 0.0000 0.0000 0.0000 29.5135 0.0000 0.0000
# 5 0.0000 0.0000 0.0000 0.0000 29.5127 0.0000
# 6 0.0000 0.0000 0.0000 0.0000 0.0000 28.4316
#
#
#
# Elastic Compliance Matrix: (Units=1/GPa)
#
#
# Indices 1 2 3 4 5 6 
#
# 1 0.010755 -0.000610 -0.005181 0.000000 0.000000 0.000000
# 2 -0.000610 0.010755 -0.005181 0.000000 0.000000 0.000000
# 3 -0.005181 -0.005181 0.016916 0.000000 0.000000 0.000000
# 4 0.000000 0.000000 0.000000 0.033883 0.000000 0.000000
# 5 0.000000 0.000000 0.000000 0.000000 0.033884 0.000000
# 6 0.000000 0.000000 0.000000 0.000000 0.000000 0.035172
#
#
# Mechanical properties :
#
#
# Convention : Reuss Voigt Hill
#
# Bulk Modulus (GPa) = 60.66727 60.95606 60.81166
# Shear Modulus (GPa) = 29.62043 30.94937 30.28490
#
# Velocity S-wave (km/s) = 3.84739 3.93275 3.89031
# Velocity P-wave (km/s) = 7.07490 7.14731 7.11120
#
# Compressibility (1/GPa) = 0.01648335
#
# Stress axis : x y z
#
# Youngs Moduli (GPa) = 92.97753 92.97873 59.11603
#
# Poissons Ratio (x) = 0.05669 0.30628
# Poissons Ratio (y) = 0.05669 0.30627
# Poissons Ratio (z) = 0.48171 0.48171
#
# Static dielectric constant tensor:
#      x y z
#    x 3.851090 0.000000 0.000000 
#    y 0.000000 3.851090 0.000000 
#    z 0.000000 0.000000 3.572400 
# 
# 
# High freq. dielectric constant tensor:
#      x y z
#    x 1.783140 0.000000 0.000000 
#    y 0.000000 1.783140 0.000000 
#    z 0.000000 0.000000 1.777160 
# 
# From -- ./inp_files/2154.got.cif
#   From: 2010.03.12/outbox.cif.g09.slc.cpg/sg137_2_cif.got.tgz:2154.got - 2010.04.08 09:34:49.
