data_PCOD8318227
_publ_section_title
;
Structure prediction by ZEFSAII (Michael W. Deem and Ramdas Pophale) SiO2 
 PCOD8318227
Probable space group: P 42/M N M
;
_chemical_formula_sum "Si O2"
_cell_formula_units_Z 64
_cell_length_a 11.529052
_cell_length_b 11.529052
_cell_length_c 24.208870
_cell_angle_alpha 90.000000
_cell_angle_beta 90.000000
_cell_angle_gamma 90.000000
_cell_volume 3217.819760
_symmetry_space_group_name_H-M "P 42/M N M"
_symmetry_group_IT_number 136
_symmetry_cell_setting 'tetragonal'
loop_
_space_group_symop_operation_xyz
x,y,z
1/2-y,1/2+x,1/2+z
-x,-y,z
1/2+y,1/2-x,1/2+z
1/2+x,1/2-y,1/2-z
1/2-x,1/2+y,1/2-z
y,x,-z
-y,-x,-z
-x,-y,-z
1/2+y,1/2-x,1/2-z
x,y,-z
1/2-y,1/2+x,1/2-z
1/2-x,1/2+y,1/2+z
1/2+x,1/2-y,1/2+z
-y,-x,z
y,x,z
loop_
_atom_site_type_symbol
_atom_site_label
_atom_site_fract_x
_atom_site_fract_y
_atom_site_fract_z
Si Si1 0.543659 0.269941 0.000000
Si Si2 0.596862 0.596862 0.686005
Si Si3 0.403631 0.403631 0.189558
Si Si4 0.977976 0.316402 0.882797
Si Si5 0.475136 0.192832 0.884113
Si Si6 0.578573 0.759711 0.500000
O O1 0.464598 0.248431 0.945620
O O2 0.600234 0.399767 0.000000
O O3 0.645766 0.178531 0.000000
O O4 0.500000 0.500000 0.684674
O O5 0.631423 0.631423 0.748263
O O6 0.544876 0.709501 0.656860
O O7 0.500000 0.500000 0.190647
O O8 0.292871 0.458298 0.160030
O O9 0.866239 0.399407 0.877342
O O10 0.997891 0.274446 0.945550
O O11 0.098142 0.378359 0.868863
O O12 0.631470 0.631470 0.500000
#
# Coordination Sequence:
#
# PCOD8318227 Si02
#       6
#     8   8   8  16  16   8
#     4   9  17  32  62  95 128 162 197 244 312 373
#     4  11  26  43  63  86 120 165 210 263 308 359
#     4  11  26  43  61  88 121 162 212 259 311 360
#     4  10  21  40  65  92 124 161 205 251 314 369
#     4  10  22  39  64  95 124 159 204 257 304 376
#     4   9  15  31  61  93 122 162 199 236 300 384
#
# _framework density 19.889244999999999
#
# number of rings (size 3 to 8) (size 9 to 14) (size 15 to 20)
#    0.000    2.000    1.250    1.500    5.250    5.500 
#    0.000    5.000    0.000    0.000    0.000    0.000 
#    0.000    0.000    0.000    0.000    0.000    0.000 
#
# Total GULP energy -793476.271833 kJ/mol
# GULP energy per Si atom -12398.066747 kJ/mol
# Density = 1.984398 g / cm^3
# Si number density = 19.889245 Si / 1000 Ang^3
#
#
#
# Elastic Constant Matrix: (Units=GPa)
#
#
# Indices 1 2 3 4 5 6 
#
# 1 83.4185 34.0653 59.1277 0.0000 0.0000 0.0000
# 2 34.0653 83.4184 59.1276 0.0000 0.0000 0.0000
# 3 59.1277 59.1276 177.7408 0.0000 0.0000 0.0000
# 4 0.0000 0.0000 0.0000-1677.5251 0.0000 0.0000
# 5 0.0000 0.0000 0.0000 0.0000-1676.4960 0.0000
# 6 0.0000 0.0000 0.0000 0.0000 0.0000 24.5024
#
#
#
# Elastic Compliance Matrix: (Units=1/GPa)
#
#
# Indices 1 2 3 4 5 6 
#
# 1 0.016529 -0.003733 -0.004257 0.000000 0.000000 0.000000
# 2 -0.003733 0.016529 -0.004257 0.000000 0.000000 0.000000
# 3 -0.004257 -0.004257 0.008458 0.000000 0.000000 0.000000
# 4 0.000000 0.000000 0.000000 -0.000596 0.000000 0.000000
# 5 0.000000 0.000000 0.000000 0.000000 -0.000596 0.000000
# 6 0.000000 0.000000 0.000000 0.000000 0.000000 0.040812
#
#
# Mechanical properties :
#
#
# Convention : Reuss Voigt Hill
#
# Bulk Modulus (GPa) = 58.74063 72.13544 65.43804
# Shear Modulus (GPa) = 44.92158 -653.08659 -304.08251
#
# Velocity S-wave (km/s) = 4.75761 -18.14041 -12.37820
# Velocity P-wave (km/s) = 7.73161 20.06038 13.08894
#
# Compressibility (1/GPa) = 0.01702399
#
# Stress axis : x y z
#
# Youngs Moduli (GPa) = 60.49807 60.49808 118.22484
#
# Poissons Ratio (x) = 0.22582 0.50328
# Poissons Ratio (y) = 0.22582 0.50328
# Poissons Ratio (z) = 0.25754 0.25754
#
# Static dielectric constant tensor:
#      x y z
#    x 3.560660 0.000000 0.000000 
#    y 0.000000 3.560660 0.000000 
#    z 0.000000 0.000000 3.866710 
# 
# 
# High freq. dielectric constant tensor:
#      x y z
#    x 1.773700 0.000000 0.000000 
#    y 0.000000 1.773700 0.000000 
#    z 0.000000 0.000000 1.779570 
# 
# From -- ./inp_files/8204.got.cif
#   From: 2010.03.12/outbox.cif.g09.slc.cpg/sg136_5_cif.got.tgz:8204.got - 2010.04.06 18:39:43.
