data_PCOD8318708
_publ_section_title
;
Structure prediction by ZEFSAII (Michael W. Deem and Ramdas Pophale) SiO2 
 PCOD8318708
Probable space group: P 42/N M C
;
_chemical_formula_sum "Si O2"
_cell_formula_units_Z 56
_cell_length_a 23.467078
_cell_length_b 23.467078
_cell_length_c 5.205596
_cell_angle_alpha 90.000000
_cell_angle_beta 90.000000
_cell_angle_gamma 90.000000
_cell_volume 2866.741237
_symmetry_space_group_name_H-M "P 42/N M C"
_symmetry_group_IT_number 137
_space_group.IT_coordinate_system_code '2'
_symmetry_cell_setting 'tetragonal'
loop_
_space_group_symop_operation_xyz
x,y,z
1/2-y,x,1/2+z
1/2-x,1/2-y,z
y,1/2-x,1/2+z
1/2+x,-y,-z
-x,1/2+y,-z
1/2+y,1/2+x,1/2-z
-y,-x,1/2-z
-x,-y,-z
1/2+y,-x,1/2-z
1/2+x,1/2+y,-z
-y,1/2+x,1/2-z
1/2-x,y,z
x,1/2-y,z
1/2-y,1/2-x,1/2+z
y,x,1/2+z
loop_
_atom_site_type_symbol
_atom_site_label
_atom_site_fract_x
_atom_site_fract_y
_atom_site_fract_z
Si Si1 0.130627 0.316743 0.602718
Si Si2 0.412146 0.587855 0.250000
Si Si3 0.858656 0.187248 0.994105
Si Si4 0.590127 0.961582 0.898144
O O1 0.117546 0.250000 0.600568
O O2 0.167277 0.333402 0.354152
O O3 0.069762 0.348726 0.601891
O O4 0.407921 0.639330 0.041392
O O5 0.470807 0.596929 0.400860
O O6 0.816113 0.183888 0.750000
O O7 0.886808 0.250000 0.006405
O O8 0.822928 0.177073 0.250000
O O9 0.554293 0.945117 0.648865
#
# Coordination Sequence:
#
# PCOD8318708 Si02
#       4
#    16   8  16  16
#     4  10  21  37  57  85 117 153 191 235 287 340
#     4  10  24  38  65  86 118 150 208 232 299 354
#     4  10  23  39  59  85 115 150 192 240 294 347
#     4  10  22  38  61  86 119 154 193 243 293 341
#
# _framework density 19.534375000000001
#
# number of rings (size 3 to 8) (size 9 to 14) (size 15 to 20)
#    0.857    1.143    0.000    2.571    4.000    4.571 
#    0.000    0.000    0.000    0.000    0.000    0.000 
#    0.000    0.000    0.000    0.000    0.000    0.000 
#
# Total GULP energy -694199.903125 kJ/mol
# GULP energy per Si atom -12396.426842 kJ/mol
# Density = 1.948991 g / cm^3
# Si number density = 19.534375 Si / 1000 Ang^3
#
#
#
# Elastic Constant Matrix: (Units=GPa)
#
#
# Indices 1 2 3 4 5 6 
#
# 1 141.0599 70.3822 42.0907 0.0000 0.0000 0.0000
# 2 70.3822 141.0600 42.0916 0.0000 0.0000 0.0000
# 3 42.0907 42.0916 154.4537 0.0000 0.0000 0.0000
# 4 0.0000 0.0000 0.0000 10.9372 0.0000 0.0000
# 5 0.0000 0.0000 0.0000 0.0000 10.9361 0.0000
# 6 0.0000 0.0000 0.0000 0.0000 0.0000 13.9255
#
#
#
# Elastic Compliance Matrix: (Units=1/GPa)
#
#
# Indices 1 2 3 4 5 6 
#
# 1 0.009727 -0.004422 -0.001446 0.000000 0.000000 0.000000
# 2 -0.004422 0.009727 -0.001446 0.000000 0.000000 0.000000
# 3 -0.001446 -0.001446 0.007262 0.000000 0.000000 0.000000
# 4 0.000000 0.000000 0.000000 0.091431 0.000000 0.000000
# 5 0.000000 0.000000 0.000000 0.000000 0.091440 0.000000
# 6 0.000000 0.000000 0.000000 0.000000 0.000000 0.071811
#
#
# Mechanical properties :
#
#
# Convention : Reuss Voigt Hill
#
# Bulk Modulus (GPa) = 82.71572 82.85584 82.78578
# Shear Modulus (GPa) = 16.66364 25.96036 21.31200
#
# Velocity S-wave (km/s) = 2.92386 3.64944 3.30661
# Velocity P-wave (km/s) = 7.33718 7.76308 7.55313
#
# Compressibility (1/GPa) = 0.01208960
#
# Stress axis : x y z
#
# Youngs Moduli (GPa) = 102.80821 102.80782 137.69573
#
# Poissons Ratio (x) = 0.45460 0.19906
# Poissons Ratio (y) = 0.45460 0.19907
# Poissons Ratio (z) = 0.14862 0.14863
#
# Static dielectric constant tensor:
#      x y z
#    x 3.441920 0.000000 0.000000 
#    y 0.000000 3.441960 0.000000 
#    z 0.000000 0.000000 3.683520 
# 
# 
# High freq. dielectric constant tensor:
#      x y z
#    x 1.753420 0.000000 0.000000 
#    y 0.000000 1.753420 0.000000 
#    z 0.000000 0.000000 1.778470 
# 
# From -- ./inp_files/416.got.cif
#   From: 2010.03.12/outbox.cif.g09.slc.cpg/sg137_1_cif.got.tgz:416.got - 2010.04.08 09:34:49.
