data_PCOD8318514
_publ_section_title
;
Structure prediction by ZEFSAII (Michael W. Deem and Ramdas Pophale) SiO2 
 PCOD8318514
Probable space group: P 42/N M C
;
_chemical_formula_sum "Si O2"
_cell_formula_units_Z 48
_cell_length_a 20.635379
_cell_length_b 20.635379
_cell_length_c 5.090990
_cell_angle_alpha 90.000000
_cell_angle_beta 90.000000
_cell_angle_gamma 90.000000
_cell_volume 2167.839591
_symmetry_space_group_name_H-M "P 42/N M C"
_symmetry_group_IT_number 137
_space_group.IT_coordinate_system_code '2'
_symmetry_cell_setting 'tetragonal'
loop_
_space_group_symop_operation_xyz
x,y,z
1/2-y,x,1/2+z
1/2-x,1/2-y,z
y,1/2-x,1/2+z
1/2+x,-y,-z
-x,1/2+y,-z
1/2+y,1/2+x,1/2-z
-y,-x,1/2-z
-x,-y,-z
1/2+y,-x,1/2-z
1/2+x,1/2+y,-z
-y,1/2+x,1/2-z
1/2-x,y,z
x,1/2-y,z
1/2-y,1/2-x,1/2+z
y,x,1/2+z
loop_
_atom_site_type_symbol
_atom_site_label
_atom_site_fract_x
_atom_site_fract_y
_atom_site_fract_z
Si Si1 0.424356 0.824529 0.790094
Si Si2 0.118889 0.175687 0.765716
Si Si3 0.483847 0.617437 0.290275
O O1 0.352150 0.852150 0.750000
O O2 0.423939 0.750000 0.720094
O O3 0.473076 0.860436 0.590005
O O4 0.445873 0.835823 0.089172
O O5 0.093388 0.250000 0.758320
O O6 0.165200 0.162430 0.520733
O O7 0.059797 0.124153 0.768881
O O8 0.456374 0.543627 0.250000
#
# Coordination Sequence:
#
# PCOD8318514 Si02
#       3
#    16  16  16
#     4  10  19  33  55  83 119 160 201 249 301 359
#     4  12  26  43  66  93 124 164 206 252 304 362
#     4  10  22  40  63  90 119 155 201 253 307 361
#
# _framework density 22.141857999999999
#
# number of rings (size 3 to 8) (size 9 to 14) (size 15 to 20)
#    0.000    1.333    0.000    6.000    0.000    3.667 
#    0.000    0.000    0.000    6.000    0.000    0.000 
#    0.000    0.000    0.000    0.000    0.000    0.000 
#
# Total GULP energy -595282.438200 kJ/mol
# GULP energy per Si atom -12401.717462 kJ/mol
# Density = 2.209146 g / cm^3
# Si number density = 22.141858 Si / 1000 Ang^3
#
#
#
# Elastic Constant Matrix: (Units=GPa)
#
#
# Indices 1 2 3 4 5 6 
#
# 1 92.4440 34.7529 21.3854 0.0000 0.0000 0.0000
# 2 34.7529 92.4454 21.3857 0.0000 0.0000 0.0000
# 3 21.3854 21.3857 117.7421 0.0000 0.0000 0.0000
# 4 0.0000 0.0000 0.0000 11.2753 0.0000 0.0000
# 5 0.0000 0.0000 0.0000 0.0000 11.2749 0.0000
# 6 0.0000 0.0000 0.0000 0.0000 0.0000 22.4983
#
#
#
# Elastic Compliance Matrix: (Units=1/GPa)
#
#
# Indices 1 2 3 4 5 6 
#
# 1 0.012853 -0.004480 -0.001521 0.000000 0.000000 0.000000
# 2 -0.004480 0.012853 -0.001521 0.000000 0.000000 0.000000
# 3 -0.001521 -0.001521 0.009046 0.000000 0.000000 0.000000
# 4 0.000000 0.000000 0.000000 0.088690 0.000000 0.000000
# 5 0.000000 0.000000 0.000000 0.000000 0.088693 0.000000
# 6 0.000000 0.000000 0.000000 0.000000 0.000000 0.044448
#
#
# Mechanical properties :
#
#
# Convention : Reuss Voigt Hill
#
# Bulk Modulus (GPa) = 50.73917 50.85329 50.79623
# Shear Modulus (GPa) = 17.97296 24.01685 20.99491
#
# Velocity S-wave (km/s) = 2.85216 3.29702 3.08263
# Velocity P-wave (km/s) = 5.81478 6.12460 5.97170
#
# Compressibility (1/GPa) = 0.01970864
#
# Stress axis : x y z
#
# Youngs Moduli (GPa) = 77.80030 77.80144 110.55108
#
# Poissons Ratio (x) = 0.34856 0.16813
# Poissons Ratio (y) = 0.34856 0.16813
# Poissons Ratio (z) = 0.11832 0.11832
#
# Static dielectric constant tensor:
#      x y z
#    x 3.827950 0.000000 0.000000 
#    y 0.000000 3.827940 0.000000 
#    z 0.000000 0.000000 4.265640 
# 
# 
# High freq. dielectric constant tensor:
#      x y z
#    x 1.859930 0.000000 0.000000 
#    y 0.000000 1.859930 0.000000 
#    z 0.000000 0.000000 1.896110 
# 
# From -- ./inp_files/288.got.cif
#   From: 2010.03.12/outbox.cif.g09.slc.cpg/sg137_1_cif.got.tgz:288.got - 2010.04.08 09:34:49.
