data_PCOD8318158
_publ_section_title
;
Structure prediction by ZEFSAII (Michael W. Deem and Ramdas Pophale) SiO2 
 PCOD8318158
Probable space group: P 42/M N M
;
_chemical_formula_sum "Si O2"
_cell_formula_units_Z 88
_cell_length_a 13.778578
_cell_length_b 13.778578
_cell_length_c 25.616768
_cell_angle_alpha 90.000000
_cell_angle_beta 90.000000
_cell_angle_gamma 90.000000
_cell_volume 4863.323211
_symmetry_space_group_name_H-M "P 42/M N M"
_symmetry_group_IT_number 136
_symmetry_cell_setting 'tetragonal'
loop_
_space_group_symop_operation_xyz
x,y,z
1/2-y,1/2+x,1/2+z
-x,-y,z
1/2+y,1/2-x,1/2+z
1/2+x,1/2-y,1/2-z
1/2-x,1/2+y,1/2-z
y,x,-z
-y,-x,-z
-x,-y,-z
1/2+y,1/2-x,1/2-z
x,y,-z
1/2-y,1/2+x,1/2-z
1/2-x,1/2+y,1/2+z
1/2+x,1/2-y,1/2+z
-y,-x,z
y,x,z
loop_
_atom_site_type_symbol
_atom_site_label
_atom_site_fract_x
_atom_site_fract_y
_atom_site_fract_z
Si Si1 0.763555 0.396974 0.210702
Si Si2 0.642448 0.194068 0.000000
Si Si3 0.994814 0.843525 0.111252
Si Si4 0.438939 0.724427 0.901613
Si Si5 0.703532 0.539888 0.500000
Si Si6 0.737700 0.576342 0.712624
Si Si7 0.581621 0.581621 0.941514
O O1 0.666983 0.333018 0.213715
O O2 0.779819 0.440715 0.153140
O O3 0.857855 0.332114 0.222509
O O4 0.747696 0.485929 0.249258
O O5 0.576478 0.199673 0.948388
O O6 0.718797 0.281204 0.000000
O O7 0.692952 0.091011 0.000000
O O8 0.077679 0.922322 0.104741
O O9 0.031959 0.765032 0.153770
O O10 0.976463 0.799174 0.053307
O O11 0.894845 0.894845 0.130384
O O12 0.353059 0.646942 0.902234
O O13 0.542734 0.673741 0.909825
O O14 0.616600 0.616600 0.500000
O O15 0.639570 0.639570 0.723158
O O16 0.500000 0.500000 0.945336
O O17 0.612080 0.612080 0.000000
#
# Coordination Sequence:
#
# PCOD8318158 Si02
#       7
#    16   8  16  16   8  16   8
#     4  10  21  35  52  74 101 135 176 218 261 315
#     4   9  14  22  36  58  95 137 168 204 252 302
#     4   9  16  27  44  68 100 133 166 210 262 312
#     4   9  16  25  40  64  96 133 170 207 255 308
#     4   9  15  22  38  64  96 133 170 205 250 309
#     4  10  21  36  52  74 102 133 173 218 265 315
#     4   9  14  22  36  62 100 136 168 203 248 308
#
# _framework density 18.094622999999999
#
# number of rings (size 3 to 8) (size 9 to 14) (size 15 to 20)
#    0.000    2.636    0.909    1.909    1.273    6.909 
#    0.000    0.000    0.000    0.000    0.000    1.273 
#    0.000    7.273    0.000    0.000    0.000    0.000 
#
# Total GULP energy -1090530.825291 kJ/mol
# GULP energy per Si atom -12392.395742 kJ/mol
# Density = 1.805344 g / cm^3
# Si number density = 18.094623 Si / 1000 Ang^3
#
#
#
# Elastic Constant Matrix: (Units=GPa)
#
#
# Indices 1 2 3 4 5 6 
#
# 1 68.7171 37.7358 50.8199 0.0000 0.0000 0.0000
# 2 37.7358 68.7171 50.8198 0.0000 0.0000 0.0000
# 3 50.8199 50.8198 151.8917 0.0000 0.0000 0.0000
# 4 0.0000 0.0000 0.0000 5.3608 0.0000 0.0000
# 5 0.0000 0.0000 0.0000 0.0000 5.3608 0.0000
# 6 0.0000 0.0000 0.0000 0.0000 0.0000 22.2342
#
#
#
# Elastic Compliance Matrix: (Units=1/GPa)
#
#
# Indices 1 2 3 4 5 6 
#
# 1 0.023040 -0.009237 -0.004618 0.000000 0.000000 0.000000
# 2 -0.009237 0.023040 -0.004618 0.000000 0.000000 0.000000
# 3 -0.004618 -0.004618 0.009674 0.000000 0.000000 0.000000
# 4 0.000000 0.000000 0.000000 0.186539 0.000000 0.000000
# 5 0.000000 0.000000 0.000000 0.000000 0.186539 0.000000
# 6 0.000000 0.000000 0.000000 0.000000 0.000000 0.044976
#
#
# Mechanical properties :
#
#
# Convention : Reuss Voigt Hill
#
# Bulk Modulus (GPa) = 53.17048 63.11965 58.14507
# Shear Modulus (GPa) = 9.67071 16.58786 13.12929
#
# Velocity S-wave (km/s) = 2.31433 3.03104 2.69660
# Velocity P-wave (km/s) = 6.04897 6.87084 6.47296
#
# Compressibility (1/GPa) = 0.01880743
#
# Stress axis : x y z
#
# Youngs Moduli (GPa) = 43.40194 43.40194 103.36964
#
# Poissons Ratio (x) = 0.40091 0.47739
# Poissons Ratio (y) = 0.40091 0.47739
# Poissons Ratio (z) = 0.20044 0.20044
#
# Static dielectric constant tensor:
#      x y z
#    x 3.085580 0.000000 0.000000 
#    y 0.000000 3.085580 0.000000 
#    z 0.000000 0.000000 3.649680 
# 
# 
# High freq. dielectric constant tensor:
#      x y z
#    x 1.664070 0.000000 0.000000 
#    y 0.000000 1.664070 0.000000 
#    z 0.000000 0.000000 1.717880 
# 
# From -- ./inp_files/8379.got.cif
#   From: 2010.03.12/outbox.cif.g09.slc.cpg/sg136_5_cif.got.tgz:8379.got - 2010.04.06 18:39:43.
