data_PCOD8318156
_publ_section_title
;
Structure prediction by ZEFSAII (Michael W. Deem and Ramdas Pophale) SiO2 
 PCOD8318156
Probable space group: P 42/M N M
;
_chemical_formula_sum "Si O2"
_cell_formula_units_Z 60
_cell_length_a 13.886454
_cell_length_b 13.886454
_cell_length_c 15.822388
_cell_angle_alpha 90.000000
_cell_angle_beta 90.000000
_cell_angle_gamma 90.000000
_cell_volume 3051.088113
_symmetry_space_group_name_H-M "P 42/M N M"
_symmetry_group_IT_number 136
_symmetry_cell_setting 'tetragonal'
loop_
_space_group_symop_operation_xyz
x,y,z
1/2-y,1/2+x,1/2+z
-x,-y,z
1/2+y,1/2-x,1/2+z
1/2+x,1/2-y,1/2-z
1/2-x,1/2+y,1/2-z
y,x,-z
-y,-x,-z
-x,-y,-z
1/2+y,1/2-x,1/2-z
x,y,-z
1/2-y,1/2+x,1/2-z
1/2-x,1/2+y,1/2+z
1/2+x,1/2-y,1/2+z
-y,-x,z
y,x,z
loop_
_atom_site_type_symbol
_atom_site_label
_atom_site_fract_x
_atom_site_fract_y
_atom_site_fract_z
Si Si1 0.573872 0.573872 0.188593
Si Si2 0.905382 0.094619 0.500000
Si Si3 0.934042 0.771928 0.500000
Si Si4 0.580743 0.419258 0.595433
Si Si5 0.255936 0.498291 0.291072
Si Si6 0.188491 0.649839 0.833064
O O1 0.500000 0.500000 0.235491
O O2 0.555895 0.555895 0.089469
O O3 0.681884 0.549459 0.215719
O O4 0.949180 0.204288 0.500000
O O5 0.872682 0.872682 0.500000
O O6 0.908820 0.708684 0.418478
O O7 0.500000 0.500000 0.599721
O O8 0.607141 0.392860 0.500000
O O9 0.543658 0.322185 0.637614
O O10 0.190589 0.419229 0.337128
O O11 0.192157 0.581165 0.248581
O O12 0.264225 0.735776 0.822503
#
# Coordination Sequence:
#
# PCOD8318156 Si02
#       6
#     8   4   8   8  16  16
#     4  12  19  35  61  96 120 156 206 264 312 368
#     4  12  21  32  66 102 128 154 200 271 332 365
#     4  10  21  34  58  99 130 156 202 269 319 370
#     4  11  22  37  64  98 126 166 221 273 308 362
#     4  12  22  40  64  88 127 171 213 259 312 379
#     4  11  23  39  63  92 128 166 212 262 323 377
#
# _framework density 19.665115
#
# number of rings (size 3 to 8) (size 9 to 14) (size 15 to 20)
#    0.000    0.667    8.000    1.200    1.867    0.533 
#    0.000    0.000    8.800    1.600    0.000    0.000 
#    0.000    0.000    0.000    0.000    0.000    0.000 
#
# Total GULP energy -743524.344310 kJ/mol
# GULP energy per Si atom -12392.072405 kJ/mol
# Density = 1.962036 g / cm^3
# Si number density = 19.665115 Si / 1000 Ang^3
#
#
#
# Elastic Constant Matrix: (Units=GPa)
#
#
# Indices 1 2 3 4 5 6 
#
# 1 107.4069 65.5949 57.8104 0.0000 0.0000 0.0000
# 2 65.5949 107.4071 57.8105 0.0000 0.0000 0.0000
# 3 57.8104 57.8105 146.6319 0.0000 0.0000 0.0000
# 4 0.0000 0.0000 0.0000 9.7134 0.0000 0.0000
# 5 0.0000 0.0000 0.0000 0.0000 9.7129 0.0000
# 6 0.0000 0.0000 0.0000 0.0000 0.0000 51.2011
#
#
#
# Elastic Compliance Matrix: (Units=1/GPa)
#
#
# Indices 1 2 3 4 5 6 
#
# 1 0.015882 -0.008034 -0.003094 0.000000 0.000000 0.000000
# 2 -0.008034 0.015882 -0.003094 0.000000 0.000000 0.000000
# 3 -0.003094 -0.003094 0.009260 0.000000 0.000000 0.000000
# 4 0.000000 0.000000 0.000000 0.102950 0.000000 0.000000
# 5 0.000000 0.000000 0.000000 0.000000 0.102956 0.000000
# 6 0.000000 0.000000 0.000000 0.000000 0.000000 0.019531
#
#
# Mechanical properties :
#
#
# Convention : Reuss Voigt Hill
#
# Bulk Modulus (GPa) = 79.49617 80.43083 79.96350
# Shear Modulus (GPa) = 16.71683 26.14082 21.42883
#
# Velocity S-wave (km/s) = 2.91877 3.64991 3.30462
# Velocity P-wave (km/s) = 7.20220 7.66495 7.43718
#
# Compressibility (1/GPa) = 0.01257922
#
# Stress axis : x y z
#
# Youngs Moduli (GPa) = 62.96296 62.96297 107.99584
#
# Poissons Ratio (x) = 0.50585 0.33416
# Poissons Ratio (y) = 0.50585 0.33416
# Poissons Ratio (z) = 0.19482 0.19482
#
# Static dielectric constant tensor:
#      x y z
#    x 3.464010 0.000000 0.000000 
#    y 0.000000 3.464010 0.000000 
#    z 0.000000 0.000000 3.733220 
# 
# 
# High freq. dielectric constant tensor:
#      x y z
#    x 1.746960 0.000000 0.000000 
#    y 0.000000 1.746960 0.000000 
#    z 0.000000 0.000000 1.781450 
# 
# From -- ./inp_files/4755.got.cif
#   From: 2010.03.12/outbox.cif.g09.slc.cpg/sg136_3_cif.got.tgz:4755.got - 2010.04.06 18:39:43.
