data_PCOD8318195
_publ_section_title
;
Structure prediction by ZEFSAII (Michael W. Deem and Ramdas Pophale) SiO2 
 PCOD8318195
Probable space group: P 42/M N M
;
_chemical_formula_sum "Si O2"
_cell_formula_units_Z 80
_cell_length_a 11.936943
_cell_length_b 11.936943
_cell_length_c 28.257936
_cell_angle_alpha 90.000000
_cell_angle_beta 90.000000
_cell_angle_gamma 90.000000
_cell_volume 4026.490487
_symmetry_space_group_name_H-M "P 42/M N M"
_symmetry_group_IT_number 136
_symmetry_cell_setting 'tetragonal'
loop_
_space_group_symop_operation_xyz
x,y,z
1/2-y,1/2+x,1/2+z
-x,-y,z
1/2+y,1/2-x,1/2+z
1/2+x,1/2-y,1/2-z
1/2-x,1/2+y,1/2-z
y,x,-z
-y,-x,-z
-x,-y,-z
1/2+y,1/2-x,1/2-z
x,y,-z
1/2-y,1/2+x,1/2-z
1/2-x,1/2+y,1/2+z
1/2+x,1/2-y,1/2+z
-y,-x,z
y,x,z
loop_
_atom_site_type_symbol
_atom_site_label
_atom_site_fract_x
_atom_site_fract_y
_atom_site_fract_z
Si Si1 0.699251 0.699251 0.053211
Si Si2 0.500343 0.319503 0.636263
Si Si3 0.410712 0.410712 0.141487
Si Si4 0.429613 0.891566 0.591267
Si Si5 0.709233 0.111845 0.781117
Si Si6 0.813958 0.514547 0.182647
O O1 0.630530 0.630530 0.091027
O O2 0.659744 0.829639 0.058985
O O3 0.665695 0.665695 0.000000
O O4 0.623562 0.376439 0.634084
O O5 0.406212 0.406212 0.619330
O O6 0.489997 0.214935 0.600127
O O7 0.479944 0.282758 0.690674
O O8 0.500000 0.500000 0.126535
O O9 0.316696 0.468916 0.173219
O O10 0.385099 0.922881 0.643099
O O11 0.500000 0.000000 0.570063
O O12 0.784212 0.215789 0.765073
O O13 0.615733 0.155329 0.817829
O O14 0.653876 0.062348 0.733978
#
# Coordination Sequence:
#
# PCOD8318195 Si02
#       6
#     8  16   8  16  16  16
#     4  10  24  43  67  96 120 151 199 266 336 400
#     4  10  21  37  58  85 120 165 210 256 307 357
#     4  10  22  41  60  83 119 160 204 253 310 377
#     4  11  21  39  64  89 120 161 204 252 319 389
#     4  11  22  34  51  83 121 163 212 261 292 350
#     4  11  22  34  54  81 118 166 207 252 299 348
#
# _framework density 19.86842
#
# number of rings (size 3 to 8) (size 9 to 14) (size 15 to 20)
#    0.000    1.400    4.000    1.800    0.000    3.800 
#    0.000    0.000    0.000    1.200    0.000    0.000 
#    0.000    0.000    0.000    0.000    0.000    0.000 
#
# Total GULP energy -991511.207342 kJ/mol
# GULP energy per Si atom -12393.890092 kJ/mol
# Density = 1.982320 g / cm^3
# Si number density = 19.868420 Si / 1000 Ang^3
#
#
#
# Elastic Constant Matrix: (Units=GPa)
#
#
# Indices 1 2 3 4 5 6 
#
# 1 102.9613 43.9180 25.2486 0.0000 0.0000 0.0000
# 2 43.9180 102.9613 25.2486 0.0000 0.0000 0.0000
# 3 25.2486 25.2486 69.9258 0.0000 0.0000 0.0000
# 4 0.0000 0.0000 0.0000 1.5221 0.0000 0.0000
# 5 0.0000 0.0000 0.0000 0.0000 1.5221 0.0000
# 6 0.0000 0.0000 0.0000 0.0000 0.0000 43.2348
#
#
#
# Elastic Compliance Matrix: (Units=1/GPa)
#
#
# Indices 1 2 3 4 5 6 
#
# 1 0.012355 -0.004582 -0.002807 0.000000 0.000000 0.000000
# 2 -0.004582 0.012355 -0.002807 0.000000 0.000000 0.000000
# 3 -0.002807 -0.002807 0.016328 0.000000 0.000000 0.000000
# 4 0.000000 0.000000 0.000000 0.656978 0.000000 0.000000
# 5 0.000000 0.000000 0.000000 0.000000 0.656978 0.000000
# 6 0.000000 0.000000 0.000000 0.000000 0.000000 0.023130
#
#
# Mechanical properties :
#
#
# Convention : Reuss Voigt Hill
#
# Bulk Modulus (GPa) = 48.43243 51.63098 50.03170
# Shear Modulus (GPa) = 3.55772 21.35136 12.45454
#
# Velocity S-wave (km/s) = 1.33960 3.28172 2.50642
# Velocity P-wave (km/s) = 5.17902 6.35629 5.79762
#
# Compressibility (1/GPa) = 0.02064732
#
# Stress axis : x y z
#
# Youngs Moduli (GPa) = 80.93896 80.93896 61.24532
#
# Poissons Ratio (x) = 0.37084 0.17190
# Poissons Ratio (y) = 0.37084 0.17190
# Poissons Ratio (z) = 0.22718 0.22718
#
# Static dielectric constant tensor:
#      x y z
#    x 3.870150 0.000000 0.000000 
#    y 0.000000 3.870150 0.000000 
#    z 0.000000 0.000000 3.187350 
# 
# 
# High freq. dielectric constant tensor:
#      x y z
#    x 1.785080 0.000000 0.000000 
#    y 0.000000 1.785080 0.000000 
#    z 0.000000 0.000000 1.734060 
# 
# From -- ./inp_files/9627.got.cif
#   From: 2010.03.12/outbox.cif.g09.slc.cpg/sg136_5_cif.got.tgz:9627.got - 2010.04.06 18:39:43.
