data_PCOD8318105
_publ_section_title
;
Structure prediction by ZEFSAII (Michael W. Deem and Ramdas Pophale) SiO2 
 PCOD8318105
Probable space group: P 42/M N M
;
_chemical_formula_sum "Si O2"
_cell_formula_units_Z 128
_cell_length_a 23.285656
_cell_length_b 23.285656
_cell_length_c 11.098432
_cell_angle_alpha 90.000000
_cell_angle_beta 90.000000
_cell_angle_gamma 90.000000
_cell_volume 6017.811503
_symmetry_space_group_name_H-M "P 42/M N M"
_symmetry_group_IT_number 136
_symmetry_cell_setting 'tetragonal'
loop_
_space_group_symop_operation_xyz
x,y,z
1/2-y,1/2+x,1/2+z
-x,-y,z
1/2+y,1/2-x,1/2+z
1/2+x,1/2-y,1/2-z
1/2-x,1/2+y,1/2-z
y,x,-z
-y,-x,-z
-x,-y,-z
1/2+y,1/2-x,1/2-z
x,y,-z
1/2-y,1/2+x,1/2-z
1/2-x,1/2+y,1/2+z
1/2+x,1/2-y,1/2+z
-y,-x,z
y,x,z
loop_
_atom_site_type_symbol
_atom_site_label
_atom_site_fract_x
_atom_site_fract_y
_atom_site_fract_z
Si Si1 0.920398 0.169012 0.738675
Si Si2 0.772629 0.635290 0.636046
Si Si3 0.397264 0.078941 0.872396
Si Si4 0.327240 0.802931 0.638898
Si Si5 0.197418 0.108254 0.765426
Si Si6 0.753053 0.492695 0.865925
Si Si7 0.535840 0.852618 0.697904
Si Si8 0.612068 0.477507 0.636611
O O1 0.867806 0.132195 0.680371
O O2 0.895083 0.211483 0.841113
O O3 0.956277 0.205772 0.641854
O O4 0.963380 0.122360 0.794953
O O5 0.770955 0.664102 0.500000
O O6 0.783604 0.678350 0.751266
O O7 0.822625 0.587472 0.626529
O O8 0.342067 0.117599 0.848627
O O9 0.442718 0.090878 0.768482
O O10 0.376746 0.013487 0.886966
O O11 0.425623 0.095883 0.000000
O O12 0.301085 0.807130 0.500000
O O13 0.349068 0.738801 0.661151
O O14 0.148321 0.148321 0.704387
O O15 0.168458 0.063135 0.857332
O O16 0.228958 0.070600 0.664054
O O17 0.807335 0.507155 0.786616
O O18 0.776097 0.490275 0.000000
O O19 0.599808 0.493263 0.500000
O O20 0.556710 0.443291 0.690493
#
# Coordination Sequence:
#
# PCOD8318105 Si02
#       8
#    16  16  16  16  16  16  16  16
#     4  10  22  38  57  83 117 158 201 247 297 356
#     4  10  22  38  58  85 121 164 207 250 303 366
#     4  10  20  36  58  83 115 154 197 244 295 353
#     4  10  21  38  60  87 121 159 202 252 305 365
#     4  10  20  36  58  88 117 147 192 247 305 363
#     4  10  21  39  61  85 117 158 201 247 302 362
#     4  10  20  38  58  86 115 154 198 249 299 360
#     4   9  18  33  56  85 114 144 184 240 303 361
#
# _framework density 21.270189999999999
#
# number of rings (size 3 to 8) (size 9 to 14) (size 15 to 20)
#    0.000    2.125    1.250    1.500    0.000    6.750 
#    0.000    3.125    0.000    0.000    0.000    3.500 
#    0.000    0.000    0.000    0.000    0.000    0.000 
#
# Total GULP energy -1585688.876876 kJ/mol
# GULP energy per Si atom -12388.194351 kJ/mol
# Density = 2.122178 g / cm^3
# Si number density = 21.270190 Si / 1000 Ang^3
#
#
#
# Elastic Constant Matrix: (Units=GPa)
#
#
# Indices 1 2 3 4 5 6 
#
# 1 68.2108 31.9797 22.6017 0.0000 0.0000 0.0000
# 2 31.9797 68.2108 22.6017 0.0000 0.0000 0.0000
# 3 22.6017 22.6017 102.8383 0.0000 0.0000 0.0000
# 4 0.0000 0.0000 0.0000 4.6829 0.0000 0.0000
# 5 0.0000 0.0000 0.0000 0.0000 4.6829 0.0000
# 6 0.0000 0.0000 0.0000 0.0000 0.0000 42.0374
#
#
#
# Elastic Compliance Matrix: (Units=1/GPa)
#
#
# Indices 1 2 3 4 5 6 
#
# 1 0.019340 -0.008260 -0.002435 0.000000 0.000000 0.000000
# 2 -0.008260 0.019340 -0.002435 0.000000 0.000000 0.000000
# 3 -0.002435 -0.002435 0.010794 0.000000 0.000000 0.000000
# 4 0.000000 0.000000 0.000000 0.213541 0.000000 0.000000
# 5 0.000000 0.000000 0.000000 0.000000 0.213541 0.000000
# 6 0.000000 0.000000 0.000000 0.000000 0.000000 0.023788
#
#
# Mechanical properties :
#
#
# Convention : Reuss Voigt Hill
#
# Bulk Modulus (GPa) = 43.07873 43.73627 43.40750
# Shear Modulus (GPa) = 9.35725 21.08577 15.22151
#
# Velocity S-wave (km/s) = 2.09971 3.15195 2.67802
# Velocity P-wave (km/s) = 5.11619 5.81836 5.47854
#
# Compressibility (1/GPa) = 0.02321331
#
# Stress axis : x y z
#
# Youngs Moduli (GPa) = 51.70602 51.70602 92.64097
#
# Poissons Ratio (x) = 0.42712 0.22559
# Poissons Ratio (y) = 0.42712 0.22559
# Poissons Ratio (z) = 0.12591 0.12591
#
# Static dielectric constant tensor:
#      x y z
#    x 3.905810 0.000000 0.000000 
#    y 0.000000 3.905810 0.000000 
#    z 0.000000 0.000000 3.623970 
# 
# 
# High freq. dielectric constant tensor:
#      x y z
#    x 1.834540 0.000000 0.000000 
#    y 0.000000 1.834540 0.000000 
#    z 0.000000 0.000000 1.810270 
# 
# From -- ./inp_files/4099.got.cif
#   From: 2010.03.12/outbox.cif.g09.slc.cpg/sg136_3_cif.got.tgz:4099.got - 2010.04.06 18:39:43.
