data_PCOD8318269
_publ_section_title
;
Structure prediction by ZEFSAII (Michael W. Deem and Ramdas Pophale) SiO2 
 PCOD8318269
Probable space group: P 42/M N M
;
_chemical_formula_sum "Si O2"
_cell_formula_units_Z 56
_cell_length_a 12.841937
_cell_length_b 12.841937
_cell_length_c 18.333025
_cell_angle_alpha 90.000000
_cell_angle_beta 90.000000
_cell_angle_gamma 90.000000
_cell_volume 3023.397159
_symmetry_space_group_name_H-M "P 42/M N M"
_symmetry_group_IT_number 136
_symmetry_cell_setting 'tetragonal'
loop_
_space_group_symop_operation_xyz
x,y,z
1/2-y,1/2+x,1/2+z
-x,-y,z
1/2+y,1/2-x,1/2+z
1/2+x,1/2-y,1/2-z
1/2-x,1/2+y,1/2-z
y,x,-z
-y,-x,-z
-x,-y,-z
1/2+y,1/2-x,1/2-z
x,y,-z
1/2-y,1/2+x,1/2-z
1/2-x,1/2+y,1/2+z
1/2+x,1/2-y,1/2+z
-y,-x,z
y,x,z
loop_
_atom_site_type_symbol
_atom_site_label
_atom_site_fract_x
_atom_site_fract_y
_atom_site_fract_z
Si Si1 0.086737 0.086737 0.917385
Si Si2 0.881332 0.534380 0.080724
Si Si3 0.644855 0.187988 0.174825
Si Si4 0.714590 0.952877 0.174607
O O1 0.039192 0.184493 0.875395
O O2 0.118206 0.118206 0.000000
O O3 0.000000 0.000000 0.919299
O O4 0.808296 0.442268 0.111707
O O5 0.876851 0.633272 0.133871
O O6 0.000000 0.500000 0.075263
O O7 0.839622 0.563212 0.000000
O O8 0.744926 0.255075 0.149440
O O9 0.599013 0.239174 0.248004
O O10 0.672697 0.068212 0.189523
#
# Coordination Sequence:
#
# PCOD8318269 Si02
#       4
#     8  16  16  16
#     4  11  24  40  58  84 124 164 197 242 304 364
#     4   9  19  34  55  81 109 144 186 239 294 345
#     4  11  21  34  57  86 113 149 192 244 296 348
#     4  11  20  36  58  83 114 150 199 242 289 356
#
# _framework density 18.522212
#
# number of rings (size 3 to 8) (size 9 to 14) (size 15 to 20)
#    0.000    1.571    4.286    1.714    0.000    1.714 
#    0.000    0.000    0.000    0.000    0.000    0.000 
#    0.000    6.857    0.000    0.000    0.000    0.000 
#
# Total GULP energy -694410.489555 kJ/mol
# GULP energy per Si atom -12400.187313 kJ/mol
# Density = 1.848005 g / cm^3
# Si number density = 18.522212 Si / 1000 Ang^3
#
#
#
# Elastic Constant Matrix: (Units=GPa)
#
#
# Indices 1 2 3 4 5 6 
#
# 1 76.4123 21.7367 31.5616 0.0000 0.0000 0.0000
# 2 21.7367 76.4123 31.5616 0.0000 0.0000 0.0000
# 3 31.5616 31.5616 126.2551 0.0000 0.0000 0.0000
# 4 0.0000 0.0000 0.0000 16.4029 0.0000 0.0000
# 5 0.0000 0.0000 0.0000 0.0000 16.4029 0.0000
# 6 0.0000 0.0000 0.0000 0.0000 0.0000 35.5803
#
#
#
# Elastic Compliance Matrix: (Units=1/GPa)
#
#
# Indices 1 2 3 4 5 6 
#
# 1 0.015215 -0.003075 -0.003035 0.000000 0.000000 0.000000
# 2 -0.003075 0.015215 -0.003035 0.000000 0.000000 0.000000
# 3 -0.003035 -0.003035 0.009438 0.000000 0.000000 0.000000
# 4 0.000000 0.000000 0.000000 0.060965 0.000000 0.000000
# 5 0.000000 0.000000 0.000000 0.000000 0.060965 0.000000
# 6 0.000000 0.000000 0.000000 0.000000 0.000000 0.028105
#
#
# Mechanical properties :
#
#
# Convention : Reuss Voigt Hill
#
# Bulk Modulus (GPa) = 46.34115 49.86663 48.10389
# Shear Modulus (GPa) = 23.21428 26.62523 24.91975
#
# Velocity S-wave (km/s) = 3.54407 3.79552 3.67195
# Velocity P-wave (km/s) = 6.46690 6.79625 6.63362
#
# Compressibility (1/GPa) = 0.02157909
#
# Stress axis : x y z
#
# Youngs Moduli (GPa) = 65.72430 65.72430 105.95669
#
# Poissons Ratio (x) = 0.20208 0.32157
# Poissons Ratio (y) = 0.20208 0.32157
# Poissons Ratio (z) = 0.19947 0.19947
#
# Static dielectric constant tensor:
#      x y z
#    x 3.277030 0.000000 0.000000 
#    y 0.000000 3.277030 0.000000 
#    z 0.000000 0.000000 3.626500 
# 
# 
# High freq. dielectric constant tensor:
#      x y z
#    x 1.703590 0.000000 0.000000 
#    y 0.000000 1.703590 0.000000 
#    z 0.000000 0.000000 1.732750 
# 
# From -- ./inp_files/4604.got.cif
#   From: 2010.03.12/outbox.cif.g09.slc.cpg/sg136_3_cif.got.tgz:4604.got - 2010.04.06 18:39:43.
