data_PCOD8318591
_publ_section_title
;
Structure prediction by ZEFSAII (Michael W. Deem and Ramdas Pophale) SiO2 
 PCOD8318591
Probable space group: P 42/N M C
;
_chemical_formula_sum "Si O2"
_cell_formula_units_Z 112
_cell_length_a 14.360568
_cell_length_b 14.360568
_cell_length_c 28.916260
_cell_angle_alpha 90.000000
_cell_angle_beta 90.000000
_cell_angle_gamma 90.000000
_cell_volume 5963.282127
_symmetry_space_group_name_H-M "P 42/N M C"
_symmetry_group_IT_number 137
_space_group.IT_coordinate_system_code '2'
_symmetry_cell_setting 'tetragonal'
loop_
_space_group_symop_operation_xyz
x,y,z
1/2-y,x,1/2+z
1/2-x,1/2-y,z
y,1/2-x,1/2+z
1/2+x,-y,-z
-x,1/2+y,-z
1/2+y,1/2+x,1/2-z
-y,-x,1/2-z
-x,-y,-z
1/2+y,-x,1/2-z
1/2+x,1/2+y,-z
-y,1/2+x,1/2-z
1/2-x,y,z
x,1/2-y,z
1/2-y,1/2-x,1/2+z
y,x,1/2+z
loop_
_atom_site_type_symbol
_atom_site_label
_atom_site_fract_x
_atom_site_fract_y
_atom_site_fract_z
Si Si1 0.646872 0.355577 0.088616
Si Si2 0.964038 0.642167 0.865630
Si Si3 0.980386 0.908157 0.529336
Si Si4 0.145347 0.999686 0.306926
Si Si5 0.351391 0.354170 0.048063
Si Si6 0.140808 0.358856 0.886505
Si Si7 0.988848 0.642392 0.300220
O O1 0.750000 0.368165 0.109603
O O2 0.629689 0.250000 0.071289
O O3 0.574624 0.379303 0.130242
O O4 0.635361 0.420515 0.043595
O O5 0.941413 0.750000 0.859734
O O6 0.922990 0.605081 0.914367
O O7 0.915399 0.594412 0.822679
O O8 0.921683 0.841937 0.495737
O O9 0.917896 0.916983 0.575662
O O10 0.000000 0.000000 0.500000
O O11 0.250000 0.967295 0.317877
O O12 0.083600 0.908120 0.316254
O O13 0.118547 0.089046 0.338100
O O14 0.134951 0.030936 0.254031
O O15 0.250000 0.350130 0.071704
O O16 0.381966 0.250000 0.032108
O O17 0.250000 0.389814 0.883603
O O18 0.134429 0.250000 0.898840
O O19 0.992296 0.750000 0.316608
#
# Coordination Sequence:
#
# PCOD8318591 Si02
#       7
#    16  16  16  16  16  16  16
#     4  10  21  37  55  76 107 148 191 229 272 333
#     4  10  20  35  55  82 112 143 182 229 281 332
#     4  12  22  33  54  79 105 144 183 226 277 329
#     4   9  20  37  58  85 114 148 188 230 274 328
#     4  10  20  34  52  77 108 139 177 226 280 335
#     4  10  21  38  60  85 113 144 183 233 285 334
#     4  10  20  35  57  84 115 150 188 228 276 332
#
# _framework density 18.781603
#
# number of rings (size 3 to 8) (size 9 to 14) (size 15 to 20)
#    0.000    1.857    1.429    3.000    0.000    3.429 
#    0.000    2.857    0.000    0.857    0.000    0.000 
#    0.000    2.286    0.000    0.000    0.000    0.000 
#
# Total GULP energy -1388196.945847 kJ/mol
# GULP energy per Si atom -12394.615588 kJ/mol
# Density = 1.873886 g / cm^3
# Si number density = 18.781603 Si / 1000 Ang^3
#
#
#
# Elastic Constant Matrix: (Units=GPa)
#
#
# Indices 1 2 3 4 5 6 
#
# 1 121.7450 54.0522 56.1402 0.0000 0.0000 0.0000
# 2 54.0522 121.7450 56.1402 0.0000 0.0000 0.0000
# 3 56.1402 56.1402 83.4386 0.0000 0.0000 0.0000
# 4 0.0000 0.0000 0.0000 32.7167 0.0000 0.0000
# 5 0.0000 0.0000 0.0000 0.0000 32.7167 0.0000
# 6 0.0000 0.0000 0.0000 0.0000 0.0000 23.4099
#
#
#
# Elastic Compliance Matrix: (Units=1/GPa)
#
#
# Indices 1 2 3 4 5 6 
#
# 1 0.012374 -0.002399 -0.006711 0.000000 0.000000 0.000000
# 2 -0.002399 0.012374 -0.006711 0.000000 0.000000 0.000000
# 3 -0.006711 -0.006711 0.021016 0.000000 0.000000 0.000000
# 4 0.000000 0.000000 0.000000 0.030565 0.000000 0.000000
# 5 0.000000 0.000000 0.000000 0.000000 0.030565 0.000000
# 6 0.000000 0.000000 0.000000 0.000000 0.000000 0.042717
#
#
# Mechanical properties :
#
#
# Convention : Reuss Voigt Hill
#
# Bulk Modulus (GPa) = 70.82019 73.28820 72.05420
# Shear Modulus (GPa) = 26.88723 28.47507 27.68115
#
# Velocity S-wave (km/s) = 3.78772 3.89796 3.84323
# Velocity P-wave (km/s) = 7.54441 7.70485 7.62505
#
# Compressibility (1/GPa) = 0.01412027
#
# Stress axis : x y z
#
# Youngs Moduli (GPa) = 80.81604 80.81604 47.58225
#
# Poissons Ratio (x) = 0.19387 0.31935
# Poissons Ratio (y) = 0.19387 0.31935
# Poissons Ratio (z) = 0.54239 0.54239
#
# Static dielectric constant tensor:
#      x y z
#    x 3.630570 0.000000 0.000000 
#    y 0.000000 3.630570 0.000000 
#    z 0.000000 0.000000 3.342130 
# 
# 
# High freq. dielectric constant tensor:
#      x y z
#    x 1.738600 0.000000 0.000000 
#    y 0.000000 1.738600 0.000000 
#    z 0.000000 0.000000 1.708840 
# 
# From -- ./inp_files/9827.got.cif
#   From: 2010.03.12/outbox.cif.g09.slc.cpg/sg137_5_cif.got.tgz:9827.got - 2010.04.08 09:34:49.
