data_PCOD8318294
_publ_section_title
;
Structure prediction by ZEFSAII (Michael W. Deem and Ramdas Pophale) SiO2 
 PCOD8318294
Probable space group: P 42/M N M
;
_chemical_formula_sum "Si O2"
_cell_formula_units_Z 56
_cell_length_a 17.465519
_cell_length_b 17.465519
_cell_length_c 8.177950
_cell_angle_alpha 90.000000
_cell_angle_beta 90.000000
_cell_angle_gamma 90.000000
_cell_volume 2494.637474
_symmetry_space_group_name_H-M "P 42/M N M"
_symmetry_group_IT_number 136
_symmetry_cell_setting 'tetragonal'
loop_
_space_group_symop_operation_xyz
x,y,z
1/2-y,1/2+x,1/2+z
-x,-y,z
1/2+y,1/2-x,1/2+z
1/2+x,1/2-y,1/2-z
1/2-x,1/2+y,1/2-z
y,x,-z
-y,-x,-z
-x,-y,-z
1/2+y,1/2-x,1/2-z
x,y,-z
1/2-y,1/2+x,1/2-z
1/2-x,1/2+y,1/2+z
1/2+x,1/2-y,1/2+z
-y,-x,z
y,x,z
loop_
_atom_site_type_symbol
_atom_site_label
_atom_site_fract_x
_atom_site_fract_y
_atom_site_fract_z
Si Si1 0.930767 0.590920 0.816190
Si Si2 0.002649 0.126358 0.500000
Si Si3 0.193248 0.311649 0.310877
Si Si4 0.184091 0.941347 0.180471
O O1 0.898136 0.521717 0.705630
O O2 0.887884 0.670766 0.775192
O O3 0.914090 0.566868 0.000000
O O4 0.083213 0.083213 0.500000
O O5 0.000222 0.177699 0.666413
O O6 0.931333 0.068668 0.500000
O O7 0.177967 0.297052 0.500000
O O8 0.236430 0.236430 0.237280
O O9 0.245913 0.385347 0.281320
O O10 0.105913 0.894088 0.169704
O O11 0.195978 0.981192 0.000000
#
# Coordination Sequence:
#
# PCOD8318294 Si02
#       4
#    16   8  16  16
#     4  11  22  37  59  87 122 159 197 243 300 361
#     4   9  16  24  38  62  94 131 176 230 279 336
#     4   9  18  34  57  85 116 150 191 241 296 355
#     4   8  15  27  43  66  98 134 175 226 279 331
#
# _framework density 22.448152
#
# number of rings (size 3 to 8) (size 9 to 14) (size 15 to 20)
#    0.000    2.714    0.000    5.143    2.000    1.143 
#    0.000    2.857    0.000    1.714    0.000    4.000 
#    0.000    0.000    0.000    0.000    0.000    0.000 
#
# Total GULP energy -693949.335229 kJ/mol
# GULP energy per Si atom -12391.952415 kJ/mol
# Density = 2.239706 g / cm^3
# Si number density = 22.448152 Si / 1000 Ang^3
#
#
#
# Elastic Constant Matrix: (Units=GPa)
#
#
# Indices 1 2 3 4 5 6 
#
# 1 47.6659 31.3644 11.2622 0.0000 0.0000 0.0000
# 2 31.3644 47.6657 11.2620 0.0000 0.0000 0.0000
# 3 11.2622 11.2620 111.2370 0.0000 0.0000 0.0000
# 4 0.0000 0.0000 0.0000 22.8644 0.0000 0.0000
# 5 0.0000 0.0000 0.0000 0.0000 22.8644 0.0000
# 6 0.0000 0.0000 0.0000 0.0000 0.0000 26.5408
#
#
#
# Elastic Compliance Matrix: (Units=1/GPa)
#
#
# Indices 1 2 3 4 5 6 
#
# 1 0.037187 -0.024158 -0.001319 0.000000 0.000000 0.000000
# 2 -0.024158 0.037187 -0.001319 0.000000 0.000000 0.000000
# 3 -0.001319 -0.001319 0.009257 0.000000 0.000000 0.000000
# 4 0.000000 0.000000 0.000000 0.043736 0.000000 0.000000
# 5 0.000000 0.000000 0.000000 0.000000 0.043736 0.000000
# 6 0.000000 0.000000 0.000000 0.000000 0.000000 0.037678
#
#
# Mechanical properties :
#
#
# Convention : Reuss Voigt Hill
#
# Bulk Modulus (GPa) = 33.29001 34.92732 34.10867
# Shear Modulus (GPa) = 18.35634 24.63258 21.49446
#
# Velocity S-wave (km/s) = 2.86269 3.31616 3.09773
# Velocity P-wave (km/s) = 5.07824 5.50050 5.29358
#
# Compressibility (1/GPa) = 0.03003904
#
# Stress axis : x y z
#
# Youngs Moduli (GPa) = 26.89124 26.89116 108.02724
#
# Poissons Ratio (x) = 0.64962 0.14251
# Poissons Ratio (y) = 0.64963 0.14250
# Poissons Ratio (z) = 0.03547 0.03547
#
# Static dielectric constant tensor:
#      x y z
#    x 3.754350 0.000000 0.000000 
#    y 0.000000 3.754360 0.000000 
#    z 0.000000 0.000000 4.237300 
# 
# 
# High freq. dielectric constant tensor:
#      x y z
#    x 1.855550 0.000000 0.000000 
#    y 0.000000 1.855550 0.000000 
#    z 0.000000 0.000000 1.889580 
# 
# From -- ./inp_files/1118.got.cif
#   From: 2010.03.12/outbox.cif.g09.slc.cpg/sg136_1_cif.got.tgz:1118.got - 2010.04.06 18:39:43.
