data_PCOD8318989
_publ_section_title
;
Structure prediction by ZEFSAII (Michael W. Deem and Ramdas Pophale) SiO2 
 PCOD8318989
Probable space group: P 42/N C M
;
_chemical_formula_sum "Si O2"
_cell_formula_units_Z 64
_cell_length_a 13.378588
_cell_length_b 13.378588
_cell_length_c 20.039012
_cell_angle_alpha 90.000000
_cell_angle_beta 90.000000
_cell_angle_gamma 90.000000
_cell_volume 3586.714963
_symmetry_space_group_name_H-M "P 42/N C M"
_symmetry_group_IT_number 138
_space_group.IT_coordinate_system_code '2'
_symmetry_cell_setting 'tetragonal'
loop_
_space_group_symop_operation_xyz
x,y,z
1/2-y,x,1/2+z
1/2-x,1/2-y,z
y,1/2-x,1/2+z
1/2+x,-y,1/2-z
-x,1/2+y,1/2-z
1/2+y,1/2+x,-z
-y,-x,-z
-x,-y,-z
1/2+y,-x,1/2-z
1/2+x,1/2+y,-z
-y,1/2+x,1/2-z
1/2-x,y,1/2+z
x,1/2-y,1/2+z
1/2-y,1/2-x,z
y,x,z
loop_
_atom_site_type_symbol
_atom_site_label
_atom_site_fract_x
_atom_site_fract_y
_atom_site_fract_z
Si Si1 0.654999 0.010292 0.816694
Si Si2 0.512723 0.155291 0.032274
Si Si3 0.507017 0.671915 0.712484
Si Si4 0.912841 0.755278 0.082254
O O1 0.691159 0.030244 0.892328
O O2 0.590751 0.103555 0.790963
O O3 0.591601 0.908400 0.810823
O O4 0.755122 0.001235 0.774708
O O5 0.434391 0.065610 0.032980
O O6 0.615523 0.115523 0.000000
O O7 0.473830 0.247035 0.986980
O O8 0.605697 0.605697 0.722232
O O9 0.514359 0.736691 0.644767
O O10 0.827112 0.672889 0.082897
O O11 0.865791 0.865791 0.087158
#
# Coordination Sequence:
#
# PCOD8318989 Si02
#       4
#    16  16  16  16
#     4  10  20  33  53  78 107 142 177 221 270 316
#     4   9  15  28  49  73 102 135 172 215 265 318
#     4  10  20  34  51  76 108 141 179 221 268 321
#     4   9  16  27  47  75 105 136 172 217 266 315
#
# _framework density 17.843627000000001
#
# number of rings (size 3 to 8) (size 9 to 14) (size 15 to 20)
#    0.000    2.500    2.500    0.750    0.000    3.000 
#    0.000    2.500    0.000    1.500    0.000    5.250 
#    0.000    0.000    0.000    0.000    0.000    0.000 
#
# Total GULP energy -793509.229743 kJ/mol
# GULP energy per Si atom -12398.581715 kJ/mol
# Density = 1.780301 g / cm^3
# Si number density = 17.843627 Si / 1000 Ang^3
#
#
#
# Elastic Constant Matrix: (Units=GPa)
#
#
# Indices 1 2 3 4 5 6 
#
# 1 69.3530 32.8950 56.3761 0.0000 0.0000 0.0000
# 2 32.8950 69.3530 56.3761 0.0000 0.0000 0.0000
# 3 56.3761 56.3761 173.0546 0.0000 0.0000 0.0000
# 4 0.0000 0.0000 0.0000 22.9124 0.0000 0.0000
# 5 0.0000 0.0000 0.0000 0.0000 22.9124 0.0000
# 6 0.0000 0.0000 0.0000 0.0000 0.0000 17.7287
#
#
#
# Elastic Compliance Matrix: (Units=1/GPa)
#
#
# Indices 1 2 3 4 5 6 
#
# 1 0.021346 -0.006083 -0.004972 0.000000 0.000000 0.000000
# 2 -0.006083 0.021346 -0.004972 0.000000 0.000000 0.000000
# 3 -0.004972 -0.004972 0.009018 0.000000 0.000000 0.000000
# 4 0.000000 0.000000 0.000000 0.043644 0.000000 0.000000
# 5 0.000000 0.000000 0.000000 0.000000 0.043644 0.000000
# 6 0.000000 0.000000 0.000000 0.000000 0.000000 0.056406
#
#
# Mechanical properties :
#
#
# Convention : Reuss Voigt Hill
#
# Bulk Modulus (GPa) = 50.87644 67.00609 58.94126
# Shear Modulus (GPa) = 21.36647 23.78494 22.57571
#
# Velocity S-wave (km/s) = 3.46414 3.65494 3.56082
# Velocity P-wave (km/s) = 6.67643 7.44613 7.07176
#
# Compressibility (1/GPa) = 0.01965546
#
# Stress axis : x y z
#
# Youngs Moduli (GPa) = 46.84708 46.84708 110.88690
#
# Poissons Ratio (x) = 0.28496 0.55137
# Poissons Ratio (y) = 0.28496 0.55137
# Poissons Ratio (z) = 0.23294 0.23294
#
# Static dielectric constant tensor:
#      x y z
#    x 3.092100 0.000000 0.000000 
#    y 0.000000 3.092100 0.000000 
#    z 0.000000 0.000000 3.491940 
# 
# 
# High freq. dielectric constant tensor:
#      x y z
#    x 1.662950 0.000000 0.000000 
#    y 0.000000 1.662950 0.000000 
#    z 0.000000 0.000000 1.706090 
# 
# From -- ./inp_files/3878.got.cif
#   From: 2010.03.12/outbox.cif.g09.slc.cpg/sg138_2_cif.got.tgz:3878.got - 2010.04.08 09:41:05.
