data_PCOD8318795
_publ_section_title
;
Structure prediction by ZEFSAII (Michael W. Deem and Ramdas Pophale) SiO2 
 PCOD8318795
Probable space group: P 42/N M C
;
_chemical_formula_sum "Si O2"
_cell_formula_units_Z 128
_cell_length_a 19.042982
_cell_length_b 19.042982
_cell_length_c 19.993129
_cell_angle_alpha 90.000000
_cell_angle_beta 90.000000
_cell_angle_gamma 90.000000
_cell_volume 7250.211603
_symmetry_space_group_name_H-M "P 42/N M C"
_symmetry_group_IT_number 137
_space_group.IT_coordinate_system_code '2'
_symmetry_cell_setting 'tetragonal'
loop_
_space_group_symop_operation_xyz
x,y,z
1/2-y,x,1/2+z
1/2-x,1/2-y,z
y,1/2-x,1/2+z
1/2+x,-y,-z
-x,1/2+y,-z
1/2+y,1/2+x,1/2-z
-y,-x,1/2-z
-x,-y,-z
1/2+y,-x,1/2-z
1/2+x,1/2+y,-z
-y,1/2+x,1/2-z
1/2-x,y,z
x,1/2-y,z
1/2-y,1/2-x,1/2+z
y,x,1/2+z
loop_
_atom_site_type_symbol
_atom_site_label
_atom_site_fract_x
_atom_site_fract_y
_atom_site_fract_z
Si Si1 0.416620 0.668755 0.056499
Si Si2 0.566672 0.828498 0.230909
Si Si3 0.924850 0.827014 0.071761
Si Si4 0.832418 0.404359 0.309920
Si Si5 0.447920 0.328431 0.407459
Si Si6 0.831328 0.104247 0.061878
Si Si7 0.168039 0.447988 0.753381
Si Si8 0.083583 0.667911 0.203716
O O1 0.396604 0.750000 0.054327
O O2 0.498910 0.657818 0.039595
O O3 0.404230 0.635554 0.130137
O O4 0.364199 0.631478 0.006272
O O5 0.576960 0.750000 0.261209
O O6 0.576165 0.824807 0.151584
O O7 0.621701 0.880301 0.267865
O O8 0.487517 0.858450 0.240964
O O9 0.898852 0.750000 0.046003
O O10 0.874135 0.890874 0.051681
O O11 0.852691 0.352691 0.250000
O O12 0.750000 0.399085 0.322014
O O13 0.870434 0.379357 0.376924
O O14 0.853751 0.484384 0.290799
O O15 0.417768 0.250000 0.408627
O O16 0.520837 0.334762 0.445859
O O17 0.463333 0.350314 0.330734
O O18 0.750000 0.129086 0.070968
O O19 0.250000 0.430280 0.743131
O O20 0.149255 0.649255 0.250000
O O21 0.075402 0.750000 0.193525
#
# Coordination Sequence:
#
# PCOD8318795 Si02
#       8
#    16  16  16  16  16  16  16  16
#     4   9  19  35  52  73 100 130 167 209 251 303
#     4   8  15  29  49  74 102 128 159 203 255 308
#     4   8  15  30  51  73  99 129 160 203 254 304
#     4  11  21  33  48  69  98 136 180 219 255 296
#     4   9  17  30  48  73 104 131 162 208 254 298
#     4  11  22  35  50  72 104 139 173 216 260 299
#     4   9  17  30  47  71 101 131 168 212 253 296
#     4   9  18  33  52  76 103 128 160 202 251 308
#
# _framework density 17.654657
#
# number of rings (size 3 to 8) (size 9 to 14) (size 15 to 20)
#    0.000    2.750    1.250    2.250    0.000    3.750 
#    2.250    3.750    0.000    0.000    0.000    0.000 
#    0.000    4.000    0.000    0.250    0.000    0.000 
#
# Total GULP energy -1586259.036953 kJ/mol
# GULP energy per Si atom -12392.648726 kJ/mol
# Density = 1.761447 g / cm^3
# Si number density = 17.654657 Si / 1000 Ang^3
#
#
#
# Elastic Constant Matrix: (Units=GPa)
#
#
# Indices 1 2 3 4 5 6 
#
# 1 84.4426 63.2202 41.6791 0.0000 0.0000 0.0000
# 2 63.2202 84.4426 41.6791 0.0000 0.0000 0.0000
# 3 41.6791 41.6791 60.6547 0.0000 0.0000 0.0000
# 4 0.0000 0.0000 0.0000 20.4738 0.0000 0.0000
# 5 0.0000 0.0000 0.0000 0.0000 20.4738 0.0000
# 6 0.0000 0.0000 0.0000 0.0000 0.0000 35.8983
#
#
#
# Elastic Compliance Matrix: (Units=1/GPa)
#
#
# Indices 1 2 3 4 5 6 
#
# 1 0.029092 -0.018028 -0.007603 0.000000 0.000000 0.000000
# 2 -0.018028 0.029092 -0.007603 0.000000 0.000000 0.000000
# 3 -0.007603 -0.007603 0.026935 0.000000 0.000000 0.000000
# 4 0.000000 0.000000 0.000000 0.048843 0.000000 0.000000
# 5 0.000000 0.000000 0.000000 0.000000 0.048843 0.000000
# 6 0.000000 0.000000 0.000000 0.000000 0.000000 0.027856
#
#
# Mechanical properties :
#
#
# Convention : Reuss Voigt Hill
#
# Bulk Modulus (GPa) = 53.61208 58.07739 55.84473
# Shear Modulus (GPa) = 17.64631 20.89997 19.27314
#
# Velocity S-wave (km/s) = 3.16496 3.44440 3.30763
# Velocity P-wave (km/s) = 6.61732 6.98472 6.80350
#
# Compressibility (1/GPa) = 0.01865251
#
# Stress axis : x y z
#
# Youngs Moduli (GPa) = 34.37376 34.37376 37.12618
#
# Poissons Ratio (x) = 0.61969 0.28226
# Poissons Ratio (y) = 0.61969 0.28226
# Poissons Ratio (z) = 0.26133 0.26133
#
# Static dielectric constant tensor:
#      x y z
#    x 3.432300 0.000000 0.000000 
#    y 0.000000 3.432300 0.000000 
#    z 0.000000 0.000000 2.944860 
# 
# 
# High freq. dielectric constant tensor:
#      x y z
#    x 1.684790 0.000000 0.000000 
#    y 0.000000 1.684790 0.000000 
#    z 0.000000 0.000000 1.641470 
# 
# From -- ./inp_files/6850.got.cif
#   From: 2010.03.12/outbox.cif.g09.slc.cpg/sg137_4_cif.got.tgz:6850.got - 2010.04.08 09:34:49.
