data_PCOD8318384
_publ_section_title
;
Structure prediction by ZEFSAII (Michael W. Deem and Ramdas Pophale) SiO2 
 PCOD8318384
Probable space group: P 42/N M C
;
_chemical_formula_sum "Si O2"
_cell_formula_units_Z 128
_cell_length_a 18.100535
_cell_length_b 18.100535
_cell_length_c 22.766781
_cell_angle_alpha 90.000000
_cell_angle_beta 90.000000
_cell_angle_gamma 90.000000
_cell_volume 7459.066054
_symmetry_space_group_name_H-M "P 42/N M C"
_symmetry_group_IT_number 137
_space_group.IT_coordinate_system_code '2'
_symmetry_cell_setting 'tetragonal'
loop_
_space_group_symop_operation_xyz
x,y,z
1/2-y,x,1/2+z
1/2-x,1/2-y,z
y,1/2-x,1/2+z
1/2+x,-y,-z
-x,1/2+y,-z
1/2+y,1/2+x,1/2-z
-y,-x,1/2-z
-x,-y,-z
1/2+y,-x,1/2-z
1/2+x,1/2+y,-z
-y,1/2+x,1/2-z
1/2-x,y,z
x,1/2-y,z
1/2-y,1/2-x,1/2+z
y,x,1/2+z
loop_
_atom_site_type_symbol
_atom_site_label
_atom_site_fract_x
_atom_site_fract_y
_atom_site_fract_z
Si Si1 0.331750 0.380214 0.994647
Si Si2 0.889244 0.981924 0.365496
Si Si3 0.167703 0.049050 0.409762
Si Si4 0.918279 0.979149 0.151376
Si Si5 0.553243 0.163922 0.017700
Si Si6 0.830482 0.834273 0.874688
Si Si7 0.664176 0.036241 0.040844
Si Si8 0.048893 0.833883 0.753360
O O1 0.250000 0.383612 0.967346
O O2 0.378230 0.332551 0.949273
O O3 0.358438 0.466489 0.000893
O O4 0.332193 0.337901 0.055393
O O5 0.885996 0.894955 0.349480
O O6 0.860177 0.994881 0.431910
O O7 0.835238 0.024907 0.321214
O O8 0.973295 0.007051 0.355948
O O9 0.250000 0.040552 0.381773
O O10 0.105999 0.057621 0.358840
O O11 0.150197 0.981097 0.453397
O O12 0.858273 0.011072 0.106117
O O13 0.881839 0.989916 0.215371
O O14 0.575231 0.250000 0.025862
O O15 0.624378 0.111535 0.021443
O O16 0.750000 0.861030 0.851372
O O17 0.844768 0.750000 0.855435
O O18 0.750000 0.055379 0.038552
O O19 0.130324 0.869676 0.750000
O O20 0.052947 0.750000 0.730740
#
# Coordination Sequence:
#
# PCOD8318384 Si02
#       8
#    16  16  16  16  16  16  16  16
#     4   9  17  27  42  64  90 120 151 185 226 276
#     4  10  19  32  51  69  94 125 160 203 244 287
#     4  10  19  31  48  70  97 125 159 199 236 283
#     4   9  20  33  50  68  93 129 168 198 240 291
#     4  10  19  29  46  70  94 125 161 196 242 289
#     4  10  18  27  42  66  93 118 147 189 238 282
#     4   9  18  30  44  64  92 124 159 196 237 284
#     4  10  20  35  53  74  98 129 166 204 242 282
#
# _framework density 17.160325
#
# number of rings (size 3 to 8) (size 9 to 14) (size 15 to 20)
#    0.000    2.375    1.250    1.875    1.750    3.125 
#    0.000    0.625    0.000    5.250    0.000    0.000 
#    0.000    0.000    0.000    0.000    0.000    7.125 
#
# Total GULP energy -1586446.524255 kJ/mol
# GULP energy per Si atom -12394.113471 kJ/mol
# Density = 1.712127 g / cm^3
# Si number density = 17.160325 Si / 1000 Ang^3
#
#
#
# Elastic Constant Matrix: (Units=GPa)
#
#
# Indices 1 2 3 4 5 6 
#
# 1 105.7151 50.8039 16.7666 0.0000 0.0000 0.0000
# 2 50.8039 105.7150 16.7667 0.0000 0.0000 0.0000
# 3 16.7666 16.7667 33.8050 0.0000 0.0000 0.0000
# 4 0.0000 0.0000 0.0000 17.7123 0.0000 0.0000
# 5 0.0000 0.0000 0.0000 0.0000 17.7119 0.0000
# 6 0.0000 0.0000 0.0000 0.0000 0.0000 21.6109
#
#
#
# Elastic Compliance Matrix: (Units=1/GPa)
#
#
# Indices 1 2 3 4 5 6 
#
# 1 0.012680 -0.005531 -0.003546 0.000000 0.000000 0.000000
# 2 -0.005531 0.012680 -0.003546 0.000000 0.000000 0.000000
# 3 -0.003546 -0.003546 0.033099 0.000000 0.000000 0.000000
# 4 0.000000 0.000000 0.000000 0.056458 0.000000 0.000000
# 5 0.000000 0.000000 0.000000 0.000000 0.056459 0.000000
# 6 0.000000 0.000000 0.000000 0.000000 0.000000 0.046273
#
#
# Mechanical properties :
#
#
# Convention : Reuss Voigt Hill
#
# Bulk Modulus (GPa) = 30.10830 45.98993 38.04911
# Shear Modulus (GPa) = 19.68779 22.13355 20.91067
#
# Velocity S-wave (km/s) = 3.39083 3.59529 3.49456
# Velocity P-wave (km/s) = 5.73705 6.64027 6.20511
#
# Compressibility (1/GPa) = 0.03321344
#
# Stress axis : x y z
#
# Youngs Moduli (GPa) = 78.86482 78.86467 30.21282
#
# Poissons Ratio (x) = 0.43622 0.10712
# Poissons Ratio (y) = 0.43623 0.10712
# Poissons Ratio (z) = 0.27962 0.27962
#
# Static dielectric constant tensor:
#      x y z
#    x 3.298930 0.000000 0.000000 
#    y 0.000000 3.298930 0.000000 
#    z 0.000000 0.000000 2.983040 
# 
# 
# High freq. dielectric constant tensor:
#      x y z
#    x 1.661270 0.000000 0.000000 
#    y 0.000000 1.661270 0.000000 
#    z 0.000000 0.000000 1.628270 
# 
# From -- ./inp_files/9183.got.cif
#   From: 2010.03.12/outbox.cif.g09.slc.cpg/sg137_5_cif.got.tgz:9183.got - 2010.04.08 09:34:49.
