data_PCOD8318923
_publ_section_title
;
Structure prediction by ZEFSAII (Michael W. Deem and Ramdas Pophale) SiO2 
 PCOD8318923
Probable space group: P 42/N C M
;
_chemical_formula_sum "Si O2"
_cell_formula_units_Z 72
_cell_length_a 16.975454
_cell_length_b 16.975454
_cell_length_c 14.258491
_cell_angle_alpha 90.000000
_cell_angle_beta 90.000000
_cell_angle_gamma 90.000000
_cell_volume 4108.812867
_symmetry_space_group_name_H-M "P 42/N C M"
_symmetry_group_IT_number 138
_space_group.IT_coordinate_system_code '2'
_symmetry_cell_setting 'tetragonal'
loop_
_space_group_symop_operation_xyz
x,y,z
1/2-y,x,1/2+z
1/2-x,1/2-y,z
y,1/2-x,1/2+z
1/2+x,-y,1/2-z
-x,1/2+y,1/2-z
1/2+y,1/2+x,-z
-y,-x,-z
-x,-y,-z
1/2+y,-x,1/2-z
1/2+x,1/2+y,-z
-y,1/2+x,1/2-z
1/2-x,y,1/2+z
x,1/2-y,1/2+z
1/2-y,1/2-x,z
y,x,z
loop_
_atom_site_type_symbol
_atom_site_label
_atom_site_fract_x
_atom_site_fract_y
_atom_site_fract_z
Si Si1 0.354701 0.854701 0.000000
Si Si2 0.026643 0.347106 0.792011
Si Si3 0.851375 0.307049 0.795655
Si Si4 0.967251 0.842784 0.492533
Si Si5 0.376170 0.250798 0.653792
O O1 0.300781 0.836477 0.908828
O O2 0.345401 0.942793 0.039562
O O3 0.069071 0.430930 0.768288
O O4 0.041179 0.323048 0.898651
O O5 0.064285 0.275651 0.734472
O O6 0.932971 0.352346 0.772557
O O7 0.854621 0.218140 0.756052
O O8 0.926628 0.926628 0.468375
O O9 0.925046 0.772332 0.438284
O O10 0.320237 0.179764 0.622855
O O11 0.324851 0.324851 0.691081
#
# Coordination Sequence:
#
# PCOD8318923 Si02
#       5
#     8  16  16  16  16
#     4  10  19  33  52  72  94 124 161 203 242 280
#     4   9  18  33  51  73 100 128 160 201 245 286
#     4  10  21  35  52  74  98 127 163 199 241 288
#     4   9  17  29  48  73  99 126 159 199 239 280
#     4   9  17  29  47  72 101 132 162 194 238 289
#
# _framework density 17.523309000000001
#
# number of rings (size 3 to 8) (size 9 to 14) (size 15 to 20)
#    0.000    2.667    0.000    1.667    0.000    3.556 
#    0.000    5.556    0.000    1.333    0.000   14.000 
#    0.000    0.000    0.000    0.000    0.000    0.000 
#
# Total GULP energy -892546.976409 kJ/mol
# GULP energy per Si atom -12396.485783 kJ/mol
# Density = 1.748343 g / cm^3
# Si number density = 17.523309 Si / 1000 Ang^3
#
#
#
# Elastic Constant Matrix: (Units=GPa)
#
#
# Indices 1 2 3 4 5 6 
#
# 1 89.5817 48.3002 48.4537 0.0000 0.0000 0.0000
# 2 48.3002 89.5817 48.4537 0.0000 0.0000 0.0000
# 3 48.4537 48.4537 87.3427 0.0000 0.0000 0.0000
# 4 0.0000 0.0000 0.0000 28.2551 0.0000 0.0000
# 5 0.0000 0.0000 0.0000 0.0000 28.2551 0.0000
# 6 0.0000 0.0000 0.0000 0.0000 0.0000 17.4254
#
#
#
# Elastic Compliance Matrix: (Units=1/GPa)
#
#
# Indices 1 2 3 4 5 6 
#
# 1 0.018056 -0.006168 -0.006595 0.000000 0.000000 0.000000
# 2 -0.006168 0.018056 -0.006595 0.000000 0.000000 0.000000
# 3 -0.006595 -0.006595 0.018766 0.000000 0.000000 0.000000
# 4 0.000000 0.000000 0.000000 0.035392 0.000000 0.000000
# 5 0.000000 0.000000 0.000000 0.000000 0.035392 0.000000
# 6 0.000000 0.000000 0.000000 0.000000 0.000000 0.057388
#
#
# Mechanical properties :
#
#
# Convention : Reuss Voigt Hill
#
# Bulk Modulus (GPa) = 61.87199 61.88013 61.87606
# Shear Modulus (GPa) = 22.01181 22.87369 22.44275
#
# Velocity S-wave (km/s) = 3.54806 3.61685 3.58262
# Velocity P-wave (km/s) = 7.22288 7.26855 7.24575
#
# Compressibility (1/GPa) = 0.01616240
#
# Stress axis : x y z
#
# Youngs Moduli (GPa) = 55.38426 55.38426 53.28811
#
# Poissons Ratio (x) = 0.34162 0.35141
# Poissons Ratio (y) = 0.34162 0.35141
# Poissons Ratio (z) = 0.36524 0.36524
#
# Static dielectric constant tensor:
#      x y z
#    x 3.316730 0.000000 0.000000 
#    y 0.000000 3.316730 0.000000 
#    z 0.000000 0.000000 3.241220 
# 
# 
# High freq. dielectric constant tensor:
#      x y z
#    x 1.675050 0.000000 0.000000 
#    y 0.000000 1.675050 0.000000 
#    z 0.000000 0.000000 1.673770 
# 
# From -- ./inp_files/2803.got.cif
#   From: 2010.03.12/outbox.cif.g09.slc.cpg/sg138_2_cif.got.tgz:2803.got - 2010.04.08 09:41:05.
