data_PCOD8318960
_publ_section_title
;
Structure prediction by ZEFSAII (Michael W. Deem and Ramdas Pophale) SiO2 
 PCOD8318960
Probable space group: P 42/N C M
;
_chemical_formula_sum "Si O2"
_cell_formula_units_Z 112
_cell_length_a 15.073043
_cell_length_b 15.073043
_cell_length_c 25.443824
_cell_angle_alpha 90.000000
_cell_angle_beta 90.000000
_cell_angle_gamma 90.000000
_cell_volume 5780.750947
_symmetry_space_group_name_H-M "P 42/N C M"
_symmetry_group_IT_number 138
_space_group.IT_coordinate_system_code '2'
_symmetry_cell_setting 'tetragonal'
loop_
_space_group_symop_operation_xyz
x,y,z
1/2-y,x,1/2+z
1/2-x,1/2-y,z
y,1/2-x,1/2+z
1/2+x,-y,1/2-z
-x,1/2+y,1/2-z
1/2+y,1/2+x,-z
-y,-x,-z
-x,-y,-z
1/2+y,-x,1/2-z
1/2+x,1/2+y,-z
-y,1/2+x,1/2-z
1/2-x,y,1/2+z
x,1/2-y,1/2+z
1/2-y,1/2-x,z
y,x,z
loop_
_atom_site_type_symbol
_atom_site_label
_atom_site_fract_x
_atom_site_fract_y
_atom_site_fract_z
Si Si1 0.974251 0.117619 0.047930
Si Si2 0.515503 0.133043 0.746168
Si Si3 0.218494 0.077445 0.575753
Si Si4 0.627756 0.170196 0.650695
Si Si5 0.609637 0.754731 0.805951
Si Si6 0.933781 0.426723 0.058091
Si Si7 0.869795 0.167840 0.346791
O O1 0.908922 0.142096 0.094641
O O2 0.041974 0.201977 0.037294
O O3 0.909057 0.090944 0.000000
O O4 0.032788 0.032788 0.063107
O O5 0.579824 0.116616 0.696973
O O6 0.467063 0.227928 0.735123
O O7 0.569590 0.134839 0.799515
O O8 0.446786 0.053215 0.749247
O O9 0.175201 0.175201 0.560955
O O10 0.260230 0.078139 0.634100
O O11 0.139198 0.009103 0.576806
O O12 0.617066 0.276146 0.657244
O O13 0.728658 0.142894 0.655265
O O14 0.643489 0.856512 0.797292
O O15 0.690872 0.690872 0.795011
O O16 0.853142 0.420396 0.098742
O O17 0.972819 0.527182 0.056928
O O18 0.899924 0.399924 0.000000
#
# Coordination Sequence:
#
# PCOD8318960 Si02
#       7
#    16  16  16  16  16  16  16
#     4  11  23  39  61  92 126 160 203 254 314 377
#     4  11  21  37  60  85 118 152 194 252 309 359
#     4  10  19  35  61  90 119 154 201 253 305 363
#     4  11  23  39  58  82 119 157 195 243 299 362
#     4   9  17  31  56  87 116 149 190 240 297 355
#     4  10  21  37  57  84 116 149 193 250 302 349
#     4  11  23  38  59  85 113 156 204 240 293 373
#
# _framework density 19.374647
#
# number of rings (size 3 to 8) (size 9 to 14) (size 15 to 20)
#    0.000    1.571    2.857    2.143    2.000    2.000 
#    0.000    6.429    0.000    0.000    0.000    0.000 
#    0.000    0.000    0.000    0.000    0.000    0.000 
#
# Total GULP energy -1388146.150711 kJ/mol
# GULP energy per Si atom -12394.162060 kJ/mol
# Density = 1.933055 g / cm^3
# Si number density = 19.374647 Si / 1000 Ang^3
#
#
#
# Elastic Constant Matrix: (Units=GPa)
#
#
# Indices 1 2 3 4 5 6 
#
# 1 80.3154 46.2580 61.0066 0.0000 0.0000 0.0000
# 2 46.2580 80.3152 61.0067 0.0000 0.0000 0.0000
# 3 61.0066 61.0067 142.1097 0.0000 0.0000 0.0000
# 4 0.0000 0.0000 0.0000 36.8111 0.0000 0.0000
# 5 0.0000 0.0000 0.0000 0.0000 36.8110 0.0000
# 6 0.0000 0.0000 0.0000 0.0000 0.0000 29.3745
#
#
#
# Elastic Compliance Matrix: (Units=1/GPa)
#
#
# Indices 1 2 3 4 5 6 
#
# 1 0.021420 -0.007942 -0.005786 0.000000 0.000000 0.000000
# 2 -0.007942 0.021420 -0.005786 0.000000 0.000000 0.000000
# 3 -0.005786 -0.005786 0.012005 0.000000 0.000000 0.000000
# 4 0.000000 0.000000 0.000000 0.027166 0.000000 0.000000
# 5 0.000000 0.000000 0.000000 0.000000 0.027166 0.000000
# 6 0.000000 0.000000 0.000000 0.000000 0.000000 0.034043
#
#
# Mechanical properties :
#
#
# Convention : Reuss Voigt Hill
#
# Bulk Modulus (GPa) = 63.22429 71.03143 67.12786
# Shear Modulus (GPa) = 26.66376 29.56392 28.11384
#
# Velocity S-wave (km/s) = 3.71377 3.91052 3.81342
# Velocity P-wave (km/s) = 7.14792 7.55852 7.35609
#
# Compressibility (1/GPa) = 0.01581671
#
# Stress axis : x y z
#
# Youngs Moduli (GPa) = 46.68492 46.68481 83.30093
#
# Poissons Ratio (x) = 0.37077 0.48199
# Poissons Ratio (y) = 0.37077 0.48199
# Poissons Ratio (z) = 0.27012 0.27012
#
# Static dielectric constant tensor:
#      x y z
#    x 3.875680 0.000000 0.000000 
#    y 0.000000 3.875680 0.000000 
#    z 0.000000 0.000000 3.436410 
# 
# 
# High freq. dielectric constant tensor:
#      x y z
#    x 1.760180 0.000000 0.000000 
#    y 0.000000 1.760180 0.000000 
#    z 0.000000 0.000000 1.736300 
# 
# From -- ./inp_files/7079.got.cif
#   From: 2010.03.12/outbox.cif.g09.slc.cpg/sg138_4_cif.got.tgz:7079.got - 2010.04.08 09:41:05.
