data_PCOD8318165
_publ_section_title
;
Structure prediction by ZEFSAII (Michael W. Deem and Ramdas Pophale) SiO2 
 PCOD8318165
Probable space group: P 42/M N M
;
_chemical_formula_sum "Si O2"
_cell_formula_units_Z 112
_cell_length_a 15.906532
_cell_length_b 15.906532
_cell_length_c 22.840973
_cell_angle_alpha 90.000000
_cell_angle_beta 90.000000
_cell_angle_gamma 90.000000
_cell_volume 5779.171831
_symmetry_space_group_name_H-M "P 42/M N M"
_symmetry_group_IT_number 136
_symmetry_cell_setting 'tetragonal'
loop_
_space_group_symop_operation_xyz
x,y,z
1/2-y,1/2+x,1/2+z
-x,-y,z
1/2+y,1/2-x,1/2+z
1/2+x,1/2-y,1/2-z
1/2-x,1/2+y,1/2-z
y,x,-z
-y,-x,-z
-x,-y,-z
1/2+y,1/2-x,1/2-z
x,y,-z
1/2-y,1/2+x,1/2-z
1/2-x,1/2+y,1/2+z
1/2+x,1/2-y,1/2+z
-y,-x,z
y,x,z
loop_
_atom_site_type_symbol
_atom_site_label
_atom_site_fract_x
_atom_site_fract_y
_atom_site_fract_z
Si Si1 0.415597 0.110719 0.568669
Si Si2 0.166902 0.597658 0.435276
Si Si3 0.107674 0.756765 0.154709
Si Si4 0.135954 0.999578 0.433089
Si Si5 0.032161 0.694512 0.377403
Si Si6 0.784892 0.918899 0.167623
Si Si7 0.702974 0.160651 0.277323
O O1 0.386848 0.104376 0.500000
O O2 0.516670 0.105669 0.573509
O O3 0.391698 0.201164 0.595926
O O4 0.374914 0.039422 0.609950
O O5 0.202243 0.603111 0.500000
O O6 0.109947 0.678378 0.421219
O O7 0.250528 0.597874 0.397241
O O8 0.162936 0.837065 0.139674
O O9 0.144032 0.702642 0.208294
O O10 0.018043 0.792064 0.176589
O O11 0.165635 0.010177 0.500000
O O12 0.088832 0.911169 0.424726
O O13 0.214498 0.006197 0.390024
O O14 0.075009 0.075009 0.414967
O O15 0.071805 0.693478 0.312000
O O16 0.876175 0.876175 0.175067
O O17 0.717794 0.879267 0.212694
O O18 0.787548 0.212453 0.296441
#
# Coordination Sequence:
#
# PCOD8318165 Si02
#       7
#    16  16  16  16  16  16  16
#     4  10  21  35  54  82 115 148 185 234 287 336
#     4   9  18  33  52  79 115 144 172 222 282 333
#     4  10  22  39  58  80 111 152 192 237 289 340
#     4   9  18  31  45  67 104 143 179 224 271 316
#     4  11  19  31  56  81 105 144 188 229 274 343
#     4   9  19  36  58  82 111 143 181 232 282 337
#     4   9  20  37  56  82 116 147 184 236 291 343
#
# _framework density 19.379937999999999
#
# number of rings (size 3 to 8) (size 9 to 14) (size 15 to 20)
#    0.000    2.429    0.000    2.571    2.000    3.143 
#    0.000    0.714    0.000    0.857    0.000    4.000 
#    0.000    0.000    0.000    0.000    0.000    0.000 
#
# Total GULP energy -1388352.273976 kJ/mol
# GULP energy per Si atom -12396.002446 kJ/mol
# Density = 1.933583 g / cm^3
# Si number density = 19.379938 Si / 1000 Ang^3
#
#
#
# Elastic Constant Matrix: (Units=GPa)
#
#
# Indices 1 2 3 4 5 6 
#
# 1 61.0004 14.2671 18.7805 0.0000 0.0000 0.0000
# 2 14.2671 61.0004 18.7805 0.0000 0.0000 0.0000
# 3 18.7805 18.7805 58.4810 0.0000 0.0000 0.0000
# 4 0.0000 0.0000 0.0000 22.2014 0.0000 0.0000
# 5 0.0000 0.0000 0.0000 0.0000 22.2014 0.0000
# 6 0.0000 0.0000 0.0000 0.0000 0.0000 26.6671
#
#
#
# Elastic Compliance Matrix: (Units=1/GPa)
#
#
# Indices 1 2 3 4 5 6 
#
# 1 0.018610 -0.002788 -0.005081 0.000000 0.000000 0.000000
# 2 -0.002788 0.018610 -0.005081 0.000000 0.000000 0.000000
# 3 -0.005081 -0.005081 0.020363 0.000000 0.000000 0.000000
# 4 0.000000 0.000000 0.000000 0.045042 0.000000 0.000000
# 5 0.000000 0.000000 0.000000 0.000000 0.045042 0.000000
# 6 0.000000 0.000000 0.000000 0.000000 0.000000 0.037499
#
#
# Mechanical properties :
#
#
# Convention : Reuss Voigt Hill
#
# Bulk Modulus (GPa) = 31.56335 31.57090 31.56712
# Shear Modulus (GPa) = 22.56043 22.79090 22.67566
#
# Velocity S-wave (km/s) = 3.41561 3.43301 3.42432
# Velocity P-wave (km/s) = 5.64599 5.66039 5.65319
#
# Compressibility (1/GPa) = 0.03168231
#
# Stress axis : x y z
#
# Youngs Moduli (GPa) = 53.73525 53.73525 49.10882
#
# Poissons Ratio (x) = 0.14983 0.24952
# Poissons Ratio (y) = 0.14983 0.24952
# Poissons Ratio (z) = 0.27302 0.27302
#
# Static dielectric constant tensor:
#      x y z
#    x 3.475780 0.000000 0.000000 
#    y 0.000000 3.475780 0.000000 
#    z 0.000000 0.000000 3.405770 
# 
# 
# High freq. dielectric constant tensor:
#      x y z
#    x 1.749890 0.000000 0.000000 
#    y 0.000000 1.749890 0.000000 
#    z 0.000000 0.000000 1.744080 
# 
# From -- ./inp_files/8517.got.cif
#   From: 2010.03.12/outbox.cif.g09.slc.cpg/sg136_5_cif.got.tgz:8517.got - 2010.04.06 18:39:43.
