data_PCOD8318650
_publ_section_title
;
Structure prediction by ZEFSAII (Michael W. Deem and Ramdas Pophale) SiO2 
 PCOD8318650
Probable space group: P 42/N M C
;
_chemical_formula_sum "Si O2"
_cell_formula_units_Z 112
_cell_length_a 13.623837
_cell_length_b 13.623837
_cell_length_c 28.922380
_cell_angle_alpha 90.000000
_cell_angle_beta 90.000000
_cell_angle_gamma 90.000000
_cell_volume 5368.252138
_symmetry_space_group_name_H-M "P 42/N M C"
_symmetry_group_IT_number 137
_space_group.IT_coordinate_system_code '2'
_symmetry_cell_setting 'tetragonal'
loop_
_space_group_symop_operation_xyz
x,y,z
1/2-y,x,1/2+z
1/2-x,1/2-y,z
y,1/2-x,1/2+z
1/2+x,-y,-z
-x,1/2+y,-z
1/2+y,1/2+x,1/2-z
-y,-x,1/2-z
-x,-y,-z
1/2+y,-x,1/2-z
1/2+x,1/2+y,-z
-y,1/2+x,1/2-z
1/2-x,y,z
x,1/2-y,z
1/2-y,1/2-x,1/2+z
y,x,1/2+z
loop_
_atom_site_type_symbol
_atom_site_label
_atom_site_fract_x
_atom_site_fract_y
_atom_site_fract_z
Si Si1 0.599037 0.644545 0.318661
Si Si2 0.999495 0.355481 0.774036
Si Si3 0.863401 0.952354 0.572485
Si Si4 0.139283 0.037780 0.844501
Si Si5 0.139146 0.362539 0.524052
Si Si6 0.360426 0.527356 0.095905
Si Si7 0.430636 0.641353 0.798827
O O1 0.649720 0.750000 0.335662
O O2 0.576399 0.664641 0.265864
O O3 0.502010 0.628104 0.350261
O O4 0.658671 0.542627 0.316969
O O5 0.909190 0.409190 0.750000
O O6 0.964119 0.250000 0.794288
O O7 0.053664 0.414004 0.814286
O O8 0.750000 0.929509 0.583638
O O9 0.932178 0.880724 0.602745
O O10 0.887954 0.931108 0.519217
O O11 0.884900 0.066331 0.583324
O O12 0.250000 0.070005 0.830571
O O13 0.128724 0.920125 0.837537
O O14 0.250000 0.383242 0.540999
O O15 0.126947 0.250000 0.508264
O O16 0.069181 0.389023 0.566584
O O17 0.250000 0.563365 0.084847
O O18 0.419311 0.580690 0.750000
O O19 0.384597 0.750000 0.792939
#
# Coordination Sequence:
#
# PCOD8318650 Si02
#       7
#    16  16  16  16  16  16  16
#     4  10  20  37  60  85 116 150 192 242 292 345
#     4  11  21  37  58  84 118 152 193 239 288 347
#     4  11  22  38  60  88 120 154 199 250 301 357
#     4  12  24  41  61  84 116 155 199 245 297 353
#     4   9  19  36  59  88 119 152 196 249 301 354
#     4  10  20  37  61  87 119 157 196 242 301 364
#     4  12  24  41  62  86 120 160 201 245 296 354
#
# _framework density 20.863399999999999
#
# number of rings (size 3 to 8) (size 9 to 14) (size 15 to 20)
#    0.000    1.286    4.286    1.714    0.000    4.000 
#    0.000    2.857    0.000    4.286    0.000    2.000 
#    0.000    0.000    0.000    0.000    0.000    0.000 
#
# Total GULP energy -1387620.301603 kJ/mol
# GULP energy per Si atom -12389.466979 kJ/mol
# Density = 2.081591 g / cm^3
# Si number density = 20.863400 Si / 1000 Ang^3
#
#
#
# Elastic Constant Matrix: (Units=GPa)
#
#
# Indices 1 2 3 4 5 6 
#
# 1 99.1024 20.4058 8.3869 0.0000 0.0000 0.0000
# 2 20.4058 99.1029 8.3870 0.0000 0.0000 0.0000
# 3 8.3869 8.3870 52.0792 0.0000 0.0000 0.0000
# 4 0.0000 0.0000 0.0000 20.6072 0.0000 0.0000
# 5 0.0000 0.0000 0.0000 0.0000 20.6071 0.0000
# 6 0.0000 0.0000 0.0000 0.0000 0.0000 11.5328
#
#
#
# Elastic Compliance Matrix: (Units=1/GPa)
#
#
# Indices 1 2 3 4 5 6 
#
# 1 0.010634 -0.002073 -0.001379 0.000000 0.000000 0.000000
# 2 -0.002073 0.010634 -0.001379 0.000000 0.000000 0.000000
# 3 -0.001379 -0.001379 0.019646 0.000000 0.000000 0.000000
# 4 0.000000 0.000000 0.000000 0.048527 0.000000 0.000000
# 5 0.000000 0.000000 0.000000 0.000000 0.048527 0.000000
# 6 0.000000 0.000000 0.000000 0.000000 0.000000 0.086709
#
#
# Mechanical properties :
#
#
# Convention : Reuss Voigt Hill
#
# Bulk Modulus (GPa) = 31.99691 36.07154 34.03423
# Shear Modulus (GPa) = 20.42859 24.75641 22.59250
#
# Velocity S-wave (km/s) = 3.13255 3.44844 3.29428
# Velocity P-wave (km/s) = 5.33418 5.76043 5.55140
#
# Compressibility (1/GPa) = 0.03125301
#
# Stress axis : x y z
#
# Youngs Moduli (GPa) = 94.03731 94.03779 50.90203
#
# Poissons Ratio (x) = 0.19493 0.07018
# Poissons Ratio (y) = 0.19493 0.07018
# Poissons Ratio (z) = 0.12965 0.12965
#
# Static dielectric constant tensor:
#      x y z
#    x 3.984760 0.000000 0.000000 
#    y 0.000000 3.984770 0.000000 
#    z 0.000000 0.000000 3.780390 
# 
# 
# High freq. dielectric constant tensor:
#      x y z
#    x 1.810460 0.000000 0.000000 
#    y 0.000000 1.810460 0.000000 
#    z 0.000000 0.000000 1.809850 
# 
# From -- ./inp_files/9812.got.cif
#   From: 2010.03.12/outbox.cif.g09.slc.cpg/sg137_5_cif.got.tgz:9812.got - 2010.04.08 09:34:49.
