data_PCOD8318244
_publ_section_title
;
Structure prediction by ZEFSAII (Michael W. Deem and Ramdas Pophale) SiO2 
 PCOD8318244
Probable space group: P 42/M N M
;
_chemical_formula_sum "Si O2"
_cell_formula_units_Z 96
_cell_length_a 23.547056
_cell_length_b 23.547056
_cell_length_c 8.931725
_cell_angle_alpha 90.000000
_cell_angle_beta 90.000000
_cell_angle_gamma 90.000000
_cell_volume 4952.318597
_symmetry_space_group_name_H-M "P 42/M N M"
_symmetry_group_IT_number 136
_symmetry_cell_setting 'tetragonal'
loop_
_space_group_symop_operation_xyz
x,y,z
1/2-y,1/2+x,1/2+z
-x,-y,z
1/2+y,1/2-x,1/2+z
1/2+x,1/2-y,1/2-z
1/2-x,1/2+y,1/2-z
y,x,-z
-y,-x,-z
-x,-y,-z
1/2+y,1/2-x,1/2-z
x,y,-z
1/2-y,1/2+x,1/2-z
1/2-x,1/2+y,1/2+z
1/2+x,1/2-y,1/2+z
-y,-x,z
y,x,z
loop_
_atom_site_type_symbol
_atom_site_label
_atom_site_fract_x
_atom_site_fract_y
_atom_site_fract_z
Si Si1 0.467137 0.077023 0.677097
Si Si2 0.999318 0.908220 0.825965
Si Si3 0.182657 0.725112 0.672401
Si Si4 0.016643 0.209994 0.675271
Si Si5 0.867637 0.774687 0.169164
Si Si6 0.066943 0.703737 0.825661
O O1 0.470781 0.066188 0.500000
O O2 0.426707 0.030085 0.752884
O O3 0.440548 0.137800 0.715892
O O4 0.944718 0.944718 0.773091
O O5 0.004120 0.850354 0.735990
O O6 0.993025 0.893586 0.000000
O O7 0.056329 0.943672 0.795483
O O8 0.163165 0.722169 0.500000
O O9 0.217172 0.782828 0.702461
O O10 0.221480 0.671281 0.712469
O O11 0.128931 0.724883 0.779652
O O12 0.008902 0.209072 0.500000
O O13 0.081572 0.222326 0.714682
O O14 0.979781 0.260723 0.739556
O O15 0.832540 0.832540 0.181536
O O16 0.891073 0.767996 0.000000
O O17 0.058378 0.714523 0.000000
#
# Coordination Sequence:
#
# PCOD8318244 Si02
#       6
#    16  16  16  16  16  16
#     4  10  22  40  63  89 117 151 193 240 295 353
#     4   9  19  38  63  87 114 153 197 241 294 353
#     4   9  20  40  64  88 115 151 193 238 291 345
#     4  12  25  37  55  86 121 156 195 241 289 340
#     4   9  19  38  63  88 117 154 192 235 290 348
#     4  11  25  41  59  87 119 158 200 240 293 352
#
# _framework density 19.38486
#
# number of rings (size 3 to 8) (size 9 to 14) (size 15 to 20)
#    0.000    2.000    0.000    5.000    2.333    7.333 
#    0.000    2.500    0.000    0.000    0.000    0.000 
#    0.000    0.000    0.000    0.000    0.000    0.000 
#
# Total GULP energy -1190737.741504 kJ/mol
# GULP energy per Si atom -12403.518141 kJ/mol
# Density = 1.934074 g / cm^3
# Si number density = 19.384860 Si / 1000 Ang^3
#
#
#
# Elastic Constant Matrix: (Units=GPa)
#
#
# Indices 1 2 3 4 5 6 
#
# 1 106.7559 12.8379 40.5965 0.0000 0.0000 0.0000
# 2 12.8379 106.7559 40.5965 0.0000 0.0000 0.0000
# 3 40.5965 40.5965 95.6872 0.0000 0.0000 0.0000
# 4 0.0000 0.0000 0.0000 15.4407 0.0000 0.0000
# 5 0.0000 0.0000 0.0000 0.0000 15.4407 0.0000
# 6 0.0000 0.0000 0.0000 0.0000 0.0000 19.8975
#
#
#
# Elastic Compliance Matrix: (Units=1/GPa)
#
#
# Indices 1 2 3 4 5 6 
#
# 1 0.011196 0.000548 -0.004983 0.000000 0.000000 0.000000
# 2 0.000548 0.011196 -0.004983 0.000000 0.000000 0.000000
# 3 -0.004983 -0.004983 0.014679 0.000000 0.000000 0.000000
# 4 0.000000 0.000000 0.000000 0.064764 0.000000 0.000000
# 5 0.000000 0.000000 0.000000 0.000000 0.064764 0.000000
# 6 0.000000 0.000000 0.000000 0.000000 0.000000 0.050258
#
#
# Mechanical properties :
#
#
# Convention : Reuss Voigt Hill
#
# Bulk Modulus (GPa) = 54.83458 55.25119 55.04289
# Shear Modulus (GPa) = 20.68091 24.50032 22.59062
#
# Velocity S-wave (km/s) = 3.26982 3.55898 3.41746
# Velocity P-wave (km/s) = 6.52720 6.74185 6.63540
#
# Compressibility (1/GPa) = 0.01823667
#
# Stress axis : x y z
#
# Youngs Moduli (GPa) = 89.31749 89.31749 68.12597
#
# Poissons Ratio (x) = -0.04898 0.33945
# Poissons Ratio (y) = -0.04898 0.33945
# Poissons Ratio (z) = 0.44504 0.44504
#
# Static dielectric constant tensor:
#      x y z
#    x 3.409760 0.000000 0.000000 
#    y 0.000000 3.409760 0.000000 
#    z 0.000000 0.000000 3.486090 
# 
# 
# High freq. dielectric constant tensor:
#      x y z
#    x 1.761460 0.000000 0.000000 
#    y 0.000000 1.761460 0.000000 
#    z 0.000000 0.000000 1.752890 
# 
# From -- ./inp_files/1909.got.cif
#   From: 2010.03.12/outbox.cif.g09.slc.cpg/sg136_1_cif.got.tgz:1909.got - 2010.04.06 18:39:43.
