data_PCOD8318292
_publ_section_title
;
Structure prediction by ZEFSAII (Michael W. Deem and Ramdas Pophale) SiO2 
 PCOD8318292
Probable space group: P 42/M N M
;
_chemical_formula_sum "Si O2"
_cell_formula_units_Z 56
_cell_length_a 10.558973
_cell_length_b 10.558973
_cell_length_c 21.737837
_cell_angle_alpha 90.000000
_cell_angle_beta 90.000000
_cell_angle_gamma 90.000000
_cell_volume 2423.592984
_symmetry_space_group_name_H-M "P 42/M N M"
_symmetry_group_IT_number 136
_symmetry_cell_setting 'tetragonal'
loop_
_space_group_symop_operation_xyz
x,y,z
1/2-y,1/2+x,1/2+z
-x,-y,z
1/2+y,1/2-x,1/2+z
1/2+x,1/2-y,1/2-z
1/2-x,1/2+y,1/2-z
y,x,-z
-y,-x,-z
-x,-y,-z
1/2+y,1/2-x,1/2-z
x,y,-z
1/2-y,1/2+x,1/2-z
1/2-x,1/2+y,1/2+z
1/2+x,1/2-y,1/2+z
-y,-x,z
y,x,z
loop_
_atom_site_type_symbol
_atom_site_label
_atom_site_fract_x
_atom_site_fract_y
_atom_site_fract_z
Si Si1 0.766461 0.962571 0.207324
Si Si2 0.566301 0.766736 0.834722
Si Si3 0.672838 0.131064 0.107055
Si Si4 0.004500 0.209428 0.000000
O O1 0.891939 0.891939 0.181157
O O2 0.644369 0.876486 0.197749
O O3 0.792460 0.984277 0.279483
O O4 0.738654 0.092048 0.171369
O O5 0.657357 0.657357 0.863909
O O6 0.475234 0.831349 0.885974
O O7 0.742752 0.257249 0.082893
O O8 0.698552 0.015606 0.059157
O O9 0.903123 0.096878 0.000000
O O10 0.145713 0.145713 0.000000
#
# Coordination Sequence:
#
# PCOD8318292 Si02
#       4
#    16  16  16   8
#     4  11  22  37  58  86 122 164 209 259 321 388
#     4  11  23  38  57  87 127 168 209 260 328 395
#     4  11  22  38  62  91 121 160 213 271 327 383
#     4   9  20  40  64  91 125 167 219 276 328 385
#
# _framework density 23.106188
#
# number of rings (size 3 to 8) (size 9 to 14) (size 15 to 20)
#    0.000    1.286    2.857    3.429    0.000    5.143 
#    0.000    3.571    0.000    6.000    0.000    0.000 
#    0.000    0.000    0.000    0.000    0.000    0.000 
#
# Total GULP energy -694082.527950 kJ/mol
# GULP energy per Si atom -12394.330856 kJ/mol
# Density = 2.305360 g / cm^3
# Si number density = 23.106188 Si / 1000 Ang^3
#
#
#
# Elastic Constant Matrix: (Units=GPa)
#
#
# Indices 1 2 3 4 5 6 
#
# 1 102.2868 80.6031 31.4231 0.0000 0.0000 0.0000
# 2 80.6031 102.2868 31.4233 0.0000 0.0000 0.0000
# 3 31.4231 31.4233 86.5203 0.0000 0.0000 0.0000
# 4 0.0000 0.0000 0.0000 26.4609 0.0000 0.0000
# 5 0.0000 0.0000 0.0000 0.0000 26.4609 0.0000
# 6 0.0000 0.0000 0.0000 0.0000 0.0000 48.6273
#
#
#
# Elastic Compliance Matrix: (Units=1/GPa)
#
#
# Indices 1 2 3 4 5 6 
#
# 1 0.026183 -0.019935 -0.002269 0.000000 0.000000 0.000000
# 2 -0.019935 0.026183 -0.002269 0.000000 0.000000 0.000000
# 3 -0.002269 -0.002269 0.013206 0.000000 0.000000 0.000000
# 4 0.000000 0.000000 0.000000 0.037792 0.000000 0.000000
# 5 0.000000 0.000000 0.000000 0.000000 0.037792 0.000000
# 6 0.000000 0.000000 0.000000 0.000000 0.000000 0.020565
#
#
# Mechanical properties :
#
#
# Convention : Reuss Voigt Hill
#
# Bulk Modulus (GPa) = 60.15024 64.22144 62.18584
# Shear Modulus (GPa) = 23.12601 30.15279 26.63940
#
# Velocity S-wave (km/s) = 3.16707 3.61635 3.39914
# Velocity P-wave (km/s) = 6.28191 6.72991 6.50976
#
# Compressibility (1/GPa) = 0.01662504
#
# Stress axis : x y z
#
# Youngs Moduli (GPa) = 38.19341 38.19335 75.72233
#
# Poissons Ratio (x) = 0.76139 0.17181
# Poissons Ratio (y) = 0.76139 0.17182
# Poissons Ratio (z) = 0.08666 0.08666
#
# Static dielectric constant tensor:
#      x y z
#    x 4.171040 0.000000 0.000000 
#    y 0.000000 4.171040 0.000000 
#    z 0.000000 0.000000 3.924820 
# 
# 
# High freq. dielectric constant tensor:
#      x y z
#    x 1.914120 0.000000 0.000000 
#    y 0.000000 1.914120 0.000000 
#    z 0.000000 0.000000 1.871010 
# 
# From -- ./inp_files/6900.got.cif
#   From: 2010.03.12/outbox.cif.g09.slc.cpg/sg136_4_cif.got.tgz:6900.got - 2010.04.06 18:39:43.
