data_PCOD8318403
_publ_section_title
;
Structure prediction by ZEFSAII (Michael W. Deem and Ramdas Pophale) SiO2 
 PCOD8318403
Probable space group: P 42/N M C
;
_chemical_formula_sum "Si O2"
_cell_formula_units_Z 112
_cell_length_a 14.084109
_cell_length_b 14.084109
_cell_length_c 34.413971
_cell_angle_alpha 90.000000
_cell_angle_beta 90.000000
_cell_angle_gamma 90.000000
_cell_volume 6826.428463
_symmetry_space_group_name_H-M "P 42/N M C"
_symmetry_group_IT_number 137
_space_group.IT_coordinate_system_code '2'
_symmetry_cell_setting 'tetragonal'
loop_
_space_group_symop_operation_xyz
x,y,z
1/2-y,x,1/2+z
1/2-x,1/2-y,z
y,1/2-x,1/2+z
1/2+x,-y,-z
-x,1/2+y,-z
1/2+y,1/2+x,1/2-z
-y,-x,1/2-z
-x,-y,-z
1/2+y,-x,1/2-z
1/2+x,1/2+y,-z
-y,1/2+x,1/2-z
1/2-x,y,z
x,1/2-y,z
1/2-y,1/2-x,1/2+z
y,x,1/2+z
loop_
_atom_site_type_symbol
_atom_site_label
_atom_site_fract_x
_atom_site_fract_y
_atom_site_fract_z
Si Si1 0.858108 0.641816 0.477376
Si Si2 0.014077 0.639767 0.829359
Si Si3 0.020383 0.641329 0.919306
Si Si4 0.525896 0.637642 0.551652
Si Si5 0.360882 0.355773 0.728619
Si Si6 0.644298 0.637222 0.624276
Si Si7 0.862519 0.974824 0.198289
O O1 0.750000 0.631604 0.492687
O O2 0.881143 0.750000 0.466477
O O3 0.874512 0.582610 0.438260
O O4 0.928362 0.604718 0.511018
O O5 0.041570 0.750000 0.823363
O O6 0.013737 0.611037 0.874459
O O7 0.090812 0.578591 0.805556
O O8 0.909096 0.619284 0.812100
O O9 0.053976 0.750000 0.923260
O O10 0.096131 0.579121 0.942914
O O11 0.517654 0.750000 0.553715
O O12 0.592544 0.597914 0.585973
O O13 0.250000 0.343497 0.736163
O O14 0.407525 0.250000 0.727755
O O15 0.401453 0.420376 0.763657
O O16 0.750000 0.593991 0.625861
O O17 0.649157 0.750000 0.622944
O O18 0.587869 0.603340 0.662017
O O19 0.750000 0.990227 0.199407
#
# Coordination Sequence:
#
# PCOD8318403 Si02
#       7
#    16  16  16  16  16  16  16
#     4   9  18  32  50  70  91 120 160 206 251 286
#     4  10  20  32  46  68  99 133 162 188 224 280
#     4  10  20  32  46  67  97 130 162 193 229 282
#     4  10  18  30  47  68  95 125 157 196 238 283
#     4   9  18  32  49  67  89 120 157 198 237 266
#     4   9  16  26  43  67  93 121 152 190 237 280
#     4  10  18  30  47  69  98 128 157 192 230 276
#
# _framework density 16.406822999999999
#
# number of rings (size 3 to 8) (size 9 to 14) (size 15 to 20)
#    0.000    2.429    1.429    1.714    0.000    4.571 
#    0.000    4.286    0.000    2.571    0.000    0.000 
#    0.000   10.857    0.000    0.000    0.000    0.000 
#
# Total GULP energy -1388595.591023 kJ/mol
# GULP energy per Si atom -12398.174920 kJ/mol
# Density = 1.636948 g / cm^3
# Si number density = 16.406823 Si / 1000 Ang^3
#
#
#
# Elastic Constant Matrix: (Units=GPa)
#
#
# Indices 1 2 3 4 5 6 
#
# 1 70.3475 36.6004 33.1715 0.0000 0.0000 0.0000
# 2 36.6004 70.3475 33.1715 0.0000 0.0000 0.0000
# 3 33.1715 33.1715 71.2508 0.0000 0.0000 0.0000
# 4 0.0000 0.0000 0.0000 24.1388 0.0000 0.0000
# 5 0.0000 0.0000 0.0000 0.0000 24.1388 0.0000
# 6 0.0000 0.0000 0.0000 0.0000 0.0000 16.7168
#
#
#
# Elastic Compliance Matrix: (Units=1/GPa)
#
#
# Indices 1 2 3 4 5 6 
#
# 1 0.021390 -0.008242 -0.006121 0.000000 0.000000 0.000000
# 2 -0.008242 0.021390 -0.006121 0.000000 0.000000 0.000000
# 3 -0.006121 -0.006121 0.019734 0.000000 0.000000 0.000000
# 4 0.000000 0.000000 0.000000 0.041427 0.000000 0.000000
# 5 0.000000 0.000000 0.000000 0.000000 0.041427 0.000000
# 6 0.000000 0.000000 0.000000 0.000000 0.000000 0.059820
#
#
# Mechanical properties :
#
#
# Convention : Reuss Voigt Hill
#
# Bulk Modulus (GPa) = 46.41370 46.42584 46.41977
# Shear Modulus (GPa) = 19.73650 20.26571 20.00111
#
# Velocity S-wave (km/s) = 3.47211 3.51835 3.49531
# Velocity P-wave (km/s) = 6.66519 6.69800 6.68161
#
# Compressibility (1/GPa) = 0.02154536
#
# Stress axis : x y z
#
# Youngs Moduli (GPa) = 46.75148 46.75148 50.67355
#
# Poissons Ratio (x) = 0.38534 0.31016
# Poissons Ratio (y) = 0.38534 0.31016
# Poissons Ratio (z) = 0.28616 0.28616
#
# Static dielectric constant tensor:
#      x y z
#    x 2.993380 0.000000 0.000000 
#    y 0.000000 2.993380 0.000000 
#    z 0.000000 0.000000 3.218040 
# 
# 
# High freq. dielectric constant tensor:
#      x y z
#    x 1.611550 0.000000 0.000000 
#    y 0.000000 1.611550 0.000000 
#    z 0.000000 0.000000 1.643020 
# 
# From -- ./inp_files/10707.got.cif
#   From: 2010.03.12/outbox.cif.g09.slc.cpg/sg137_6_cif.got.tgz:10707.got - 2010.04.08 09:34:49.
