data_PCOD8318031
_publ_section_title
;
Structure prediction by ZEFSAII (Michael W. Deem and Ramdas Pophale) SiO2 
 PCOD8318031
Probable space group: P 42/M N M
;
_chemical_formula_sum "Si O2"
_cell_formula_units_Z 128
_cell_length_a 20.065597
_cell_length_b 20.065597
_cell_length_c 17.684363
_cell_angle_alpha 90.000000
_cell_angle_beta 90.000000
_cell_angle_gamma 90.000000
_cell_volume 7120.222942
_symmetry_space_group_name_H-M "P 42/M N M"
_symmetry_group_IT_number 136
_symmetry_cell_setting 'tetragonal'
loop_
_space_group_symop_operation_xyz
x,y,z
1/2-y,1/2+x,1/2+z
-x,-y,z
1/2+y,1/2-x,1/2+z
1/2+x,1/2-y,1/2-z
1/2-x,1/2+y,1/2-z
y,x,-z
-y,-x,-z
-x,-y,-z
1/2+y,1/2-x,1/2-z
x,y,-z
1/2-y,1/2+x,1/2-z
1/2-x,1/2+y,1/2+z
1/2+x,1/2-y,1/2+z
-y,-x,z
y,x,z
loop_
_atom_site_type_symbol
_atom_site_label
_atom_site_fract_x
_atom_site_fract_y
_atom_site_fract_z
Si Si1 0.934686 0.781622 0.583405
Si Si2 0.420778 0.309911 0.411186
Si Si3 0.392683 0.497660 0.162849
Si Si4 0.255203 0.642086 0.227991
Si Si5 0.952481 0.842185 0.182680
Si Si6 0.887702 0.325191 0.172921
Si Si7 0.472804 0.099063 0.225576
Si Si8 0.955126 0.629187 0.417255
O O1 0.906596 0.800311 0.500000
O O2 0.995191 0.830668 0.605983
O O3 0.876954 0.786048 0.646008
O O4 0.963558 0.707972 0.582097
O O5 0.422372 0.292251 0.500000
O O6 0.373380 0.373380 0.395983
O O7 0.496579 0.325646 0.385377
O O8 0.390038 0.247253 0.365152
O O9 0.444132 0.555869 0.142568
O O10 0.425438 0.425438 0.150109
O O11 0.371075 0.502812 0.249887
O O12 0.290753 0.709248 0.254908
O O13 0.274089 0.584124 0.288554
O O14 0.178005 0.659218 0.222178
O O15 0.897356 0.897356 0.156989
O O16 0.947314 0.333101 0.234215
O O17 0.893958 0.381628 0.108630
O O18 0.541953 0.081998 0.266430
O O19 0.485927 0.104430 0.136657
O O20 0.967212 0.598546 0.500000
#
# Coordination Sequence:
#
# PCOD8318031 Si02
#       8
#    16  16  16  16  16  16  16  16
#     4   9  17  27  44  70  97 129 169 206 250 307
#     4  11  24  37  52  80 115 147 182 229 288 342
#     4   9  17  28  43  66  96 130 169 213 259 304
#     4   9  18  33  54  77 101 136 176 215 260 317
#     4   9  19  36  57  76 101 141 191 231 261 313
#     4  10  20  33  57  78 111 136 173 216 276 326
#     4   9  19  34  53  79 103 134 175 216 261 321
#     4   9  18  34  52  73 102 138 170 212 262 319
#
# _framework density 17.976966000000001
#
# number of rings (size 3 to 8) (size 9 to 14) (size 15 to 20)
#    0.000    2.625    0.000    2.250    7.000    2.750 
#    0.000    6.875    0.000    0.000    0.000    0.000 
#    0.000    0.000    0.000    0.000    0.000    0.000 
#
# Total GULP energy -1586259.006381 kJ/mol
# GULP energy per Si atom -12392.648487 kJ/mol
# Density = 1.793605 g / cm^3
# Si number density = 17.976966 Si / 1000 Ang^3
#
#
#
# Elastic Constant Matrix: (Units=GPa)
#
#
# Indices 1 2 3 4 5 6 
#
# 1 74.8739 37.2336 41.4302 0.0000 0.0000 0.0000
# 2 37.2336 74.8739 41.4302 0.0000 0.0000 0.0000
# 3 41.4302 41.4302 95.8402 0.0000 0.0000 0.0000
# 4 0.0000 0.0000 0.0000 21.1830 0.0000 0.0000
# 5 0.0000 0.0000 0.0000 0.0000 21.1830 0.0000
# 6 0.0000 0.0000 0.0000 0.0000 0.0000 25.1075
#
#
#
# Elastic Compliance Matrix: (Units=1/GPa)
#
#
# Indices 1 2 3 4 5 6 
#
# 1 0.019838 -0.006730 -0.005666 0.000000 0.000000 0.000000
# 2 -0.006730 0.019838 -0.005666 0.000000 0.000000 0.000000
# 3 -0.005666 -0.005666 0.015333 0.000000 0.000000 0.000000
# 4 0.000000 0.000000 0.000000 0.047208 0.000000 0.000000
# 5 0.000000 0.000000 0.000000 0.000000 0.047208 0.000000
# 6 0.000000 0.000000 0.000000 0.000000 0.000000 0.039829
#
#
# Mechanical properties :
#
#
# Convention : Reuss Voigt Hill
#
# Bulk Modulus (GPa) = 52.95601 53.97512 53.46557
# Shear Modulus (GPa) = 21.58223 21.86096 21.72159
#
# Velocity S-wave (km/s) = 3.46865 3.49098 3.47983
# Velocity P-wave (km/s) = 6.75009 6.80728 6.77874
#
# Compressibility (1/GPa) = 0.01888360
#
# Stress axis : x y z
#
# Youngs Moduli (GPa) = 50.40897 50.40897 65.21839
#
# Poissons Ratio (x) = 0.33923 0.36956
# Poissons Ratio (y) = 0.33923 0.36956
# Poissons Ratio (z) = 0.28564 0.28564
#
# Static dielectric constant tensor:
#      x y z
#    x 3.304960 0.000000 0.000000 
#    y 0.000000 3.304960 0.000000 
#    z 0.000000 0.000000 3.411970 
# 
# 
# High freq. dielectric constant tensor:
#      x y z
#    x 1.689560 0.000000 0.000000 
#    y 0.000000 1.689560 0.000000 
#    z 0.000000 0.000000 1.681530 
# 
# From -- ./inp_files/6651.got.cif
#   From: 2010.03.12/outbox.cif.g09.slc.cpg/sg136_4_cif.got.tgz:6651.got - 2010.04.06 18:39:43.
