data_PCOD8318872
_publ_section_title
;
Structure prediction by ZEFSAII (Michael W. Deem and Ramdas Pophale) SiO2 
 PCOD8318872
Probable space group: P 42/N C M
;
_chemical_formula_sum "Si O2"
_cell_formula_units_Z 88
_cell_length_a 15.320126
_cell_length_b 15.320126
_cell_length_c 21.262178
_cell_angle_alpha 90.000000
_cell_angle_beta 90.000000
_cell_angle_gamma 90.000000
_cell_volume 4990.366292
_symmetry_space_group_name_H-M "P 42/N C M"
_symmetry_group_IT_number 138
_space_group.IT_coordinate_system_code '2'
_symmetry_cell_setting 'tetragonal'
loop_
_space_group_symop_operation_xyz
x,y,z
1/2-y,x,1/2+z
1/2-x,1/2-y,z
y,1/2-x,1/2+z
1/2+x,-y,1/2-z
-x,1/2+y,1/2-z
1/2+y,1/2+x,-z
-y,-x,-z
-x,-y,-z
1/2+y,-x,1/2-z
1/2+x,1/2+y,-z
-y,1/2+x,1/2-z
1/2-x,y,1/2+z
x,1/2-y,1/2+z
1/2-y,1/2-x,z
y,x,z
loop_
_atom_site_type_symbol
_atom_site_label
_atom_site_fract_x
_atom_site_fract_y
_atom_site_fract_z
Si Si1 0.392037 0.892037 0.500000
Si Si2 0.409097 0.949914 0.854808
Si Si3 0.508961 0.129403 0.625334
Si Si4 0.826650 0.128903 0.761633
Si Si5 0.699925 0.434082 0.526465
Si Si6 0.544312 0.815491 0.908212
O O1 0.460813 0.903072 0.443551
O O2 0.298450 0.902813 0.468191
O O3 0.367067 0.939243 0.786857
O O4 0.331301 0.959200 0.904460
O O5 0.472101 0.869182 0.869846
O O6 0.459906 0.040095 0.855853
O O7 0.593072 0.148091 0.669276
O O8 0.452361 0.218138 0.619625
O O9 0.445795 0.054206 0.653272
O O10 0.723258 0.131779 0.750630
O O11 0.646943 0.353058 0.500000
O O12 0.687071 0.517630 0.481472
O O13 0.639007 0.860993 0.901967
#
# Coordination Sequence:
#
# PCOD8318872 Si02
#       6
#     8  16  16  16  16  16
#     4  10  20  34  52  78 110 139 179 216 260 314
#     4  10  18  32  52  76 106 137 171 212 261 312
#     4  11  22  37  54  76 105 143 182 216 261 313
#     4  11  22  36  54  77 107 136 173 216 271 322
#     4   9  17  29  51  81 107 136 167 211 263 314
#     4   9  18  33  52  76 103 133 173 216 257 304
#
# _framework density 17.633975
#
# number of rings (size 3 to 8) (size 9 to 14) (size 15 to 20)
#    0.000    2.000    1.818    2.727    0.000    2.545 
#    0.000    0.000    0.000    0.000    0.000    0.000 
#    0.000   10.182    0.000    0.000    0.000    0.000 
#
# Total GULP energy -1091124.224554 kJ/mol
# GULP energy per Si atom -12399.138915 kJ/mol
# Density = 1.759384 g / cm^3
# Si number density = 17.633975 Si / 1000 Ang^3
#
#
#
# Elastic Constant Matrix: (Units=GPa)
#
#
# Indices 1 2 3 4 5 6 
#
# 1 82.1480 57.1673 34.6931 0.0000 0.0000 0.0000
# 2 57.1673 82.1484 34.6934 0.0000 0.0000 0.0000
# 3 34.6931 34.6934 90.4114 0.0000 0.0000 0.0000
# 4 0.0000 0.0000 0.0000 24.5756 0.0000 0.0000
# 5 0.0000 0.0000 0.0000 0.0000 24.5754 0.0000
# 6 0.0000 0.0000 0.0000 0.0000 0.0000 29.7933
#
#
#
# Elastic Compliance Matrix: (Units=1/GPa)
#
#
# Indices 1 2 3 4 5 6 
#
# 1 0.024452 -0.015578 -0.003405 0.000000 0.000000 0.000000
# 2 -0.015578 0.024452 -0.003405 0.000000 0.000000 0.000000
# 3 -0.003405 -0.003405 0.013674 0.000000 0.000000 0.000000
# 4 0.000000 0.000000 0.000000 0.040691 0.000000 0.000000
# 5 0.000000 0.000000 0.000000 0.000000 0.040691 0.000000
# 6 0.000000 0.000000 0.000000 0.000000 0.000000 0.033565
#
#
# Mechanical properties :
#
#
# Convention : Reuss Voigt Hill
#
# Bulk Modulus (GPa) = 56.17648 56.42392 56.30020
# Shear Modulus (GPa) = 21.90717 24.33244 23.11980
#
# Velocity S-wave (km/s) = 3.52849 3.71868 3.62483
# Velocity P-wave (km/s) = 6.96609 7.10668 7.03673
#
# Compressibility (1/GPa) = 0.01780104
#
# Stress axis : x y z
#
# Youngs Moduli (GPa) = 40.89599 40.89615 73.13230
#
# Poissons Ratio (x) = 0.63709 0.24902
# Poissons Ratio (y) = 0.63709 0.24903
# Poissons Ratio (z) = 0.13926 0.13926
#
# Static dielectric constant tensor:
#      x y z
#    x 3.167530 0.000000 0.000000 
#    y 0.000000 3.167540 0.000000 
#    z 0.000000 0.000000 3.271320 
# 
# 
# High freq. dielectric constant tensor:
#      x y z
#    x 1.673580 0.000000 0.000000 
#    y 0.000000 1.673580 0.000000 
#    z 0.000000 0.000000 1.683950 
# 
# From -- ./inp_files/6131.got.cif
#   From: 2010.03.12/outbox.cif.g09.slc.cpg/sg138_4_cif.got.tgz:6131.got - 2010.04.08 09:41:05.
