data_PCOD8318696
_publ_section_title
;
Structure prediction by ZEFSAII (Michael W. Deem and Ramdas Pophale) SiO2 
 PCOD8318696
Probable space group: P 42/N M C
;
_chemical_formula_sum "Si O2"
_cell_formula_units_Z 96
_cell_length_a 14.420042
_cell_length_b 14.420042
_cell_length_c 20.128863
_cell_angle_alpha 90.000000
_cell_angle_beta 90.000000
_cell_angle_gamma 90.000000
_cell_volume 4185.547690
_symmetry_space_group_name_H-M "P 42/N M C"
_symmetry_group_IT_number 137
_space_group.IT_coordinate_system_code '2'
_symmetry_cell_setting 'tetragonal'
loop_
_space_group_symop_operation_xyz
x,y,z
1/2-y,x,1/2+z
1/2-x,1/2-y,z
y,1/2-x,1/2+z
1/2+x,-y,-z
-x,1/2+y,-z
1/2+y,1/2+x,1/2-z
-y,-x,1/2-z
-x,-y,-z
1/2+y,-x,1/2-z
1/2+x,1/2+y,-z
-y,1/2+x,1/2-z
1/2-x,y,z
x,1/2-y,z
1/2-y,1/2-x,1/2+z
y,x,1/2+z
loop_
_atom_site_type_symbol
_atom_site_label
_atom_site_fract_x
_atom_site_fract_y
_atom_site_fract_z
Si Si1 0.010741 0.146134 0.745843
Si Si2 0.854854 0.146693 0.458709
Si Si3 0.906937 0.150535 0.317224
Si Si4 0.146964 0.388473 0.860895
Si Si5 0.544103 0.860241 0.005212
Si Si6 0.140680 0.144784 0.128936
O O1 0.973089 0.250000 0.729312
O O2 0.071995 0.159232 0.812715
O O3 0.077763 0.107432 0.688083
O O4 0.923435 0.076566 0.750000
O O5 0.750000 0.158644 0.482059
O O6 0.903414 0.250000 0.465554
O O7 0.854922 0.109570 0.381943
O O8 0.899416 0.063312 0.503188
O O9 0.909125 0.090875 0.250000
O O10 0.861345 0.250000 0.300017
O O11 0.011058 0.165744 0.335808
O O12 0.250000 0.338682 0.863160
O O13 0.101824 0.398621 0.933409
O O14 0.542051 0.750000 0.009833
O O15 0.594960 0.892359 0.938402
O O16 0.250000 0.140295 0.119683
O O17 0.109465 0.250000 0.146181
#
# Coordination Sequence:
#
# PCOD8318696 Si02
#       6
#    16  16  16  16  16  16
#     4  11  25  45  67  93 125 168 218 271 326 382
#     4   9  19  36  57  86 127 173 216 257 310 382
#     4  10  21  36  58  91 128 168 211 259 320 388
#     4  11  24  40  64  98 132 164 207 267 335 398
#     4  10  21  37  63  93 125 169 212 260 320 387
#     4   9  19  38  66  98 128 162 208 262 327 398
#
# _framework density 22.936067999999999
#
# number of rings (size 3 to 8) (size 9 to 14) (size 15 to 20)
#    0.000    2.000    0.000    2.500    4.667    4.333 
#    0.000    0.833    0.000    2.000    0.000    0.000 
#    0.000    0.000    0.000    0.000    0.000    0.000 
#
# Total GULP energy -1189275.597090 kJ/mol
# GULP energy per Si atom -12388.287470 kJ/mol
# Density = 2.288386 g / cm^3
# Si number density = 22.936068 Si / 1000 Ang^3
#
#
#
# Elastic Constant Matrix: (Units=GPa)
#
#
# Indices 1 2 3 4 5 6 
#
# 1 80.8518 55.1270 52.9647 0.0000 0.0000 0.0000
# 2 55.1270 80.8497 52.9647 0.0000 0.0000 0.0000
# 3 52.9647 52.9647 135.8022 0.0000 0.0000 0.0000
# 4 0.0000 0.0000 0.0000 40.4180 0.0000 0.0000
# 5 0.0000 0.0000 0.0000 0.0000 40.4177 0.0000
# 6 0.0000 0.0000 0.0000 0.0000 0.0000 -296.1572
#
#
#
# Elastic Compliance Matrix: (Units=1/GPa)
#
#
# Indices 1 2 3 4 5 6 
#
# 1 0.024719 -0.014155 -0.004120 0.000000 0.000000 0.000000
# 2 -0.014155 0.024720 -0.004120 0.000000 0.000000 0.000000
# 3 -0.004120 -0.004120 0.010577 0.000000 0.000000 0.000000
# 4 0.000000 0.000000 0.000000 0.024741 0.000000 0.000000
# 5 0.000000 0.000000 0.000000 0.000000 0.024742 0.000000
# 6 0.000000 0.000000 0.000000 0.000000 0.000000 -0.003377
#
#
# Mechanical properties :
#
#
# Convention : Reuss Voigt Hill
#
# Bulk Modulus (GPa) = 65.68231 68.84629 67.26430
# Shear Modulus (GPa) = 32.05373 -33.96781 -0.95704
#
# Velocity S-wave (km/s) = 3.74240 -3.85252 -0.64666
# Velocity P-wave (km/s) = 6.88283 3.20820 5.36963
#
# Compressibility (1/GPa) = 0.01522480
#
# Stress axis : x y z
#
# Youngs Moduli (GPa) = 40.45513 40.45369 94.54154
#
# Poissons Ratio (x) = 0.57264 0.38949
# Poissons Ratio (y) = 0.57266 0.38953
# Poissons Ratio (z) = 0.16667 0.16668
#
# Static dielectric constant tensor:
#      x y z
#    x 3.956300 0.000000 0.000000 
#    y 0.000000 3.956330 0.000000 
#    z 0.000000 0.000000 4.436050 
# 
# 
# High freq. dielectric constant tensor:
#      x y z
#    x 1.906400 0.000000 0.000000 
#    y 0.000000 1.906400 0.000000 
#    z 0.000000 0.000000 1.895190 
# 
# From -- ./inp_files/7810.got.cif
#   From: 2010.03.12/outbox.cif.g09.slc.cpg/sg137_4_cif.got.tgz:7810.got - 2010.04.08 09:34:49.
