data_PCOD8318780
_publ_section_title
;
Structure prediction by ZEFSAII (Michael W. Deem and Ramdas Pophale) SiO2 
 PCOD8318780
Probable space group: P 42/N M C
;
_chemical_formula_sum "Si O2"
_cell_formula_units_Z 42
_cell_length_a 13.782504
_cell_length_b 13.782504
_cell_length_c 9.042619
_cell_angle_alpha 90.000000
_cell_angle_beta 90.000000
_cell_angle_gamma 90.000000
_cell_volume 1717.712544
_symmetry_space_group_name_H-M "P 42/N M C"
_symmetry_group_IT_number 137
_space_group.IT_coordinate_system_code '2'
_symmetry_cell_setting 'tetragonal'
loop_
_space_group_symop_operation_xyz
x,y,z
1/2-y,x,1/2+z
1/2-x,1/2-y,z
y,1/2-x,1/2+z
1/2+x,-y,-z
-x,1/2+y,-z
1/2+y,1/2+x,1/2-z
-y,-x,1/2-z
-x,-y,-z
1/2+y,-x,1/2-z
1/2+x,1/2+y,-z
-y,1/2+x,1/2-z
1/2-x,y,z
x,1/2-y,z
1/2-y,1/2-x,1/2+z
y,x,1/2+z
loop_
_atom_site_type_symbol
_atom_site_label
_atom_site_fract_x
_atom_site_fract_y
_atom_site_fract_z
Si Si1 0.099042 0.012678 0.139740
Si Si2 0.250000 0.750000 0.750000
Si Si3 0.144303 0.139444 0.392939
Si Si4 0.250000 0.641690 0.038801
O O1 0.160717 0.091771 0.232281
O O2 0.155420 0.914721 0.096012
O O3 0.071579 0.070225 0.989109
O O4 0.010303 0.989698 0.250000
O O5 0.154610 0.750000 0.641881
O O6 0.250000 0.141592 0.469349
O O7 0.102256 0.250000 0.383540
O O8 0.250000 0.750000 0.109860
#
# Coordination Sequence:
#
# PCOD8318780 Si02
#       4
#    16   2  16   8
#     4  12  25  45  69 113 151 193 255 311 373 448
#     4   8  24  52  74 104 132 204 242 296 380 432
#     4  11  23  46  75 106 151 198 249 312 377 442
#     4  10  24  47  75 100 145 199 250 302 371 442
#
# _framework density 24.451121000000001
#
# number of rings (size 3 to 8) (size 9 to 14) (size 15 to 20)
#    0.571    0.381    3.810    2.286    2.667    3.048 
#   10.286    0.000    0.000    0.000    0.000    0.000 
#    0.000    0.000    0.000    0.000    0.000    0.000 
#
# Total GULP energy -520298.355193 kJ/mol
# GULP energy per Si atom -12388.056076 kJ/mol
# Density = 2.439547 g / cm^3
# Si number density = 24.451121 Si / 1000 Ang^3
#
#
#
# Elastic Constant Matrix: (Units=GPa)
#
#
# Indices 1 2 3 4 5 6 
#
# 1 73.1101 23.8520 54.5526 0.0000 0.0000 0.0000
# 2 23.8520 73.1118 54.5521 0.0000 0.0000 0.0000
# 3 54.5526 54.5521 156.7792 0.0000 0.0000 0.0000
# 4 0.0000 0.0000 0.0000 44.1498 0.0000 0.0000
# 5 0.0000 0.0000 0.0000 0.0000 44.1502 0.0000
# 6 0.0000 0.0000 0.0000 0.0000 0.0000 22.3876
#
#
#
# Elastic Compliance Matrix: (Units=1/GPa)
#
#
# Indices 1 2 3 4 5 6 
#
# 1 0.018625 -0.001676 -0.005898 0.000000 0.000000 0.000000
# 2 -0.001676 0.018625 -0.005897 0.000000 0.000000 0.000000
# 3 -0.005898 -0.005897 0.010483 0.000000 0.000000 0.000000
# 4 0.000000 0.000000 0.000000 0.022650 0.000000 0.000000
# 5 0.000000 0.000000 0.000000 0.000000 0.022650 0.000000
# 6 0.000000 0.000000 0.000000 0.000000 0.000000 0.044668
#
#
# Mechanical properties :
#
#
# Convention : Reuss Voigt Hill
#
# Bulk Modulus (GPa) = 48.09815 63.21272 55.65544
# Shear Modulus (GPa) = 29.14210 33.47380 31.30795
#
# Velocity S-wave (km/s) = 3.45607 3.70403 3.58219
# Velocity P-wave (km/s) = 5.96990 6.64845 6.31829
#
# Compressibility (1/GPa) = 0.02079082
#
# Stress axis : x y z
#
# Youngs Moduli (GPa) = 53.68986 53.69194 95.39569
#
# Poissons Ratio (x) = 0.08997 0.56263
# Poissons Ratio (y) = 0.08997 0.56260
# Poissons Ratio (z) = 0.31665 0.31665
#
# Static dielectric constant tensor:
#      x y z
#    x 4.150380 0.000000 0.000000 
#    y 0.000000 4.150390 0.000000 
#    z 0.000000 0.000000 4.435710 
# 
# 
# High freq. dielectric constant tensor:
#      x y z
#    x 1.963880 0.000000 0.000000 
#    y 0.000000 1.963880 0.000000 
#    z 0.000000 0.000000 1.988640 
# 
# From -- ./inp_files/1117.got.cif
#   From: 2010.03.12/outbox.cif.g09.slc.cpg/sg137_1_cif.got.tgz:1117.got - 2010.04.08 09:34:49.
