data_PCOD8318108
_publ_section_title
;
Structure prediction by ZEFSAII (Michael W. Deem and Ramdas Pophale) SiO2 
 PCOD8318108
Probable space group: P 42/M N M
;
_chemical_formula_sum "Si O2"
_cell_formula_units_Z 72
_cell_length_a 19.723923
_cell_length_b 19.723923
_cell_length_c 9.001280
_cell_angle_alpha 90.000000
_cell_angle_beta 90.000000
_cell_angle_gamma 90.000000
_cell_volume 3501.796209
_symmetry_space_group_name_H-M "P 42/M N M"
_symmetry_group_IT_number 136
_symmetry_cell_setting 'tetragonal'
loop_
_space_group_symop_operation_xyz
x,y,z
1/2-y,1/2+x,1/2+z
-x,-y,z
1/2+y,1/2-x,1/2+z
1/2+x,1/2-y,1/2-z
1/2-x,1/2+y,1/2-z
y,x,-z
-y,-x,-z
-x,-y,-z
1/2+y,1/2-x,1/2-z
x,y,-z
1/2-y,1/2+x,1/2-z
1/2-x,1/2+y,1/2+z
1/2+x,1/2-y,1/2+z
-y,-x,z
y,x,z
loop_
_atom_site_type_symbol
_atom_site_label
_atom_site_fract_x
_atom_site_fract_y
_atom_site_fract_z
Si Si1 0.760516 0.652225 0.826365
Si Si2 0.795383 0.406872 0.330787
Si Si3 0.031518 0.410260 0.328526
Si Si4 0.553843 0.553843 0.677172
Si Si5 0.473947 0.296382 0.329355
O O1 0.696867 0.696867 0.772458
O O2 0.827538 0.697968 0.789124
O O3 0.756633 0.578677 0.747886
O O4 0.757894 0.637829 0.000000
O O5 0.822019 0.417691 0.500000
O O6 0.834461 0.448238 0.204503
O O7 0.722942 0.445459 0.314902
O O8 0.040956 0.429791 0.500000
O O9 0.079444 0.454447 0.221191
O O10 0.500000 0.500000 0.742360
O O11 0.551867 0.551867 0.500000
O O12 0.628408 0.534364 0.738070
O O13 0.451821 0.295848 0.500000
#
# Coordination Sequence:
#
# PCOD8318108 Si02
#       5
#    16  16  16   8  16
#     4  10  21  37  57  81 114 156 197 240 298 363
#     4  10  21  35  53  81 113 147 191 240 290 349
#     4  11  21  34  52  75 107 146 186 229 279 337
#     4   9  18  34  59  89 115 145 191 248 303 350
#     4  10  20  36  59  85 115 151 195 244 296 353
#
# _framework density 20.560877000000001
#
# number of rings (size 3 to 8) (size 9 to 14) (size 15 to 20)
#    0.000    1.889    1.111    4.000    0.000    6.222 
#    0.000    4.444    0.000    1.333    0.000    3.111 
#    0.000    0.000    0.000    0.000    0.000    0.000 
#
# Total GULP energy -891970.207599 kJ/mol
# GULP energy per Si atom -12388.475106 kJ/mol
# Density = 2.051408 g / cm^3
# Si number density = 20.560877 Si / 1000 Ang^3
#
#
#
# Elastic Constant Matrix: (Units=GPa)
#
#
# Indices 1 2 3 4 5 6 
#
# 1 118.3564 38.9655 23.6057 0.0000 0.0000 0.0000
# 2 38.9655 118.3564 23.6057 0.0000 0.0000 0.0000
# 3 23.6057 23.6057 61.3156 0.0000 0.0000 0.0000
# 4 0.0000 0.0000 0.0000 23.4676 0.0000 0.0000
# 5 0.0000 0.0000 0.0000 0.0000 23.4676 0.0000
# 6 0.0000 0.0000 0.0000 0.0000 0.0000 78.3414
#
#
#
# Elastic Compliance Matrix: (Units=1/GPa)
#
#
# Indices 1 2 3 4 5 6 
#
# 1 0.009891 -0.002705 -0.002767 0.000000 0.000000 0.000000
# 2 -0.002705 0.009891 -0.002767 0.000000 0.000000 0.000000
# 3 -0.002767 -0.002767 0.018439 0.000000 0.000000 0.000000
# 4 0.000000 0.000000 0.000000 0.042612 0.000000 0.000000
# 5 0.000000 0.000000 0.000000 0.000000 0.042612 0.000000
# 6 0.000000 0.000000 0.000000 0.000000 0.000000 0.012765
#
#
# Mechanical properties :
#
#
# Convention : Reuss Voigt Hill
#
# Bulk Modulus (GPa) = 45.98616 52.26467 49.12541
# Shear Modulus (GPa) = 31.26263 39.17877 35.22070
#
# Velocity S-wave (km/s) = 3.90358 4.36994 4.14333
# Velocity P-wave (km/s) = 6.53694 7.13698 6.84354
#
# Compressibility (1/GPa) = 0.02174567
#
# Stress axis : x y z
#
# Youngs Moduli (GPa) = 101.09902 101.09902 54.23165
#
# Poissons Ratio (x) = 0.27343 0.15005
# Poissons Ratio (y) = 0.27343 0.15005
# Poissons Ratio (z) = 0.27972 0.27972
#
# Static dielectric constant tensor:
#      x y z
#    x 3.815420 0.000000 0.000000 
#    y 0.000000 3.815420 0.000000 
#    z 0.000000 0.000000 3.480160 
# 
# 
# High freq. dielectric constant tensor:
#      x y z
#    x 1.801230 0.000000 0.000000 
#    y 0.000000 1.801230 0.000000 
#    z 0.000000 0.000000 1.779840 
# 
# From -- ./inp_files/1551.got.cif
#   From: 2010.03.12/outbox.cif.g09.slc.cpg/sg136_1_cif.got.tgz:1551.got - 2010.04.06 18:39:43.
