data_PCOD8318641
_publ_section_title
;
Structure prediction by ZEFSAII (Michael W. Deem and Ramdas Pophale) SiO2 
 PCOD8318641
Probable space group: P 42/N M C
;
_chemical_formula_sum "Si O2"
_cell_formula_units_Z 72
_cell_length_a 18.088222
_cell_length_b 18.088222
_cell_length_c 10.817243
_cell_angle_alpha 90.000000
_cell_angle_beta 90.000000
_cell_angle_gamma 90.000000
_cell_volume 3539.226401
_symmetry_space_group_name_H-M "P 42/N M C"
_symmetry_group_IT_number 137
_space_group.IT_coordinate_system_code '2'
_symmetry_cell_setting 'tetragonal'
loop_
_space_group_symop_operation_xyz
x,y,z
1/2-y,x,1/2+z
1/2-x,1/2-y,z
y,1/2-x,1/2+z
1/2+x,-y,-z
-x,1/2+y,-z
1/2+y,1/2+x,1/2-z
-y,-x,1/2-z
-x,-y,-z
1/2+y,-x,1/2-z
1/2+x,1/2+y,-z
-y,1/2+x,1/2-z
1/2-x,y,z
x,1/2-y,z
1/2-y,1/2-x,1/2+z
y,x,1/2+z
loop_
_atom_site_type_symbol
_atom_site_label
_atom_site_fract_x
_atom_site_fract_y
_atom_site_fract_z
Si Si1 0.405401 0.665995 0.020391
Si Si2 0.919860 0.909029 0.738497
Si Si3 0.925513 0.425513 0.750000
Si Si4 0.071091 0.835175 0.666694
Si Si5 0.666433 0.926578 0.484007
O O1 0.375113 0.750000 0.010535
O O2 0.348991 0.604000 0.969615
O O3 0.485663 0.659342 0.955323
O O4 0.415939 0.643239 0.160285
O O5 0.888793 0.862137 0.855934
O O6 0.873027 0.902133 0.611583
O O7 0.000954 0.885145 0.695485
O O8 0.919457 0.990644 0.798953
O O9 0.140743 0.859258 0.750000
O O10 0.050466 0.750000 0.687775
O O11 0.750000 0.901671 0.503621
#
# Coordination Sequence:
#
# PCOD8318641 Si02
#       5
#    16  16   8  16  16
#     4  10  21  37  56  85 124 161 202 256 313 377
#     4  11  20  38  65  92 125 162 215 266 313 373
#     4  10  20  36  62  89 117 164 216 262 312 366
#     4  12  23  36  58  88 122 166 210 253 308 372
#     4  10  21  39  64  93 123 158 203 261 322 378
#
# _framework density 20.343429
#
# number of rings (size 3 to 8) (size 9 to 14) (size 15 to 20)
#    0.000    1.333    3.333    2.667    0.000    6.000 
#    0.000    6.667    0.000    5.333    0.000    0.000 
#    0.000    0.000    0.000    0.000    0.000    0.000 
#
# Total GULP energy -891974.346606 kJ/mol
# GULP energy per Si atom -12388.532592 kJ/mol
# Density = 2.029713 g / cm^3
# Si number density = 20.343429 Si / 1000 Ang^3
#
#
#
# Elastic Constant Matrix: (Units=GPa)
#
#
# Indices 1 2 3 4 5 6 
#
# 1 76.3307 22.5118 46.9839 0.0000 0.0000 0.0000
# 2 22.5118 76.3300 46.9824 0.0000 0.0000 0.0000
# 3 46.9839 46.9824 112.8978 0.0000 0.0000 0.0000
# 4 0.0000 0.0000 0.0000 22.6887 0.0000 0.0000
# 5 0.0000 0.0000 0.0000 0.0000 22.6884 0.0000
# 6 0.0000 0.0000 0.0000 0.0000 0.0000 14.7526
#
#
#
# Elastic Compliance Matrix: (Units=1/GPa)
#
#
# Indices 1 2 3 4 5 6 
#
# 1 0.017661 -0.000921 -0.006967 0.000000 0.000000 0.000000
# 2 -0.000921 0.017660 -0.006966 0.000000 0.000000 0.000000
# 3 -0.006967 -0.006966 0.014656 0.000000 0.000000 0.000000
# 4 0.000000 0.000000 0.000000 0.044075 0.000000 0.000000
# 5 0.000000 0.000000 0.000000 0.000000 0.044075 0.000000
# 6 0.000000 0.000000 0.000000 0.000000 0.000000 0.067784
#
#
# Mechanical properties :
#
#
# Convention : Reuss Voigt Hill
#
# Bulk Modulus (GPa) = 49.33415 55.39052 52.36233
# Shear Modulus (GPa) = 20.62922 21.96464 21.29693
#
# Velocity S-wave (km/s) = 3.18787 3.28943 3.23905
# Velocity P-wave (km/s) = 6.15250 6.45864 6.30743
#
# Compressibility (1/GPa) = 0.02026994
#
# Stress axis : x y z
#
# Youngs Moduli (GPa) = 56.62352 56.62408 68.23246
#
# Poissons Ratio (x) = 0.05212 0.47535
# Poissons Ratio (y) = 0.05212 0.47532
# Poissons Ratio (z) = 0.39447 0.39446
#
# Static dielectric constant tensor:
#      x y z
#    x 3.738570 0.000000 0.000000 
#    y 0.000000 3.738580 0.000000 
#    z 0.000000 0.000000 3.791370 
# 
# 
# High freq. dielectric constant tensor:
#      x y z
#    x 1.778720 0.000000 0.000000 
#    y 0.000000 1.778720 0.000000 
#    z 0.000000 0.000000 1.807870 
# 
# From -- ./inp_files/3474.got.cif
#   From: 2010.03.12/outbox.cif.g09.slc.cpg/sg137_2_cif.got.tgz:3474.got - 2010.04.08 09:34:49.
