data_PCOD8318742
_publ_section_title
;
Structure prediction by ZEFSAII (Michael W. Deem and Ramdas Pophale) SiO2 
 PCOD8318742
Probable space group: P 42/N M C
;
_chemical_formula_sum "Si O2"
_cell_formula_units_Z 96
_cell_length_a 14.548684
_cell_length_b 14.548684
_cell_length_c 20.826243
_cell_angle_alpha 90.000000
_cell_angle_beta 90.000000
_cell_angle_gamma 90.000000
_cell_volume 4408.170191
_symmetry_space_group_name_H-M "P 42/N M C"
_symmetry_group_IT_number 137
_space_group.IT_coordinate_system_code '2'
_symmetry_cell_setting 'tetragonal'
loop_
_space_group_symop_operation_xyz
x,y,z
1/2-y,x,1/2+z
1/2-x,1/2-y,z
y,1/2-x,1/2+z
1/2+x,-y,-z
-x,1/2+y,-z
1/2+y,1/2+x,1/2-z
-y,-x,1/2-z
-x,-y,-z
1/2+y,-x,1/2-z
1/2+x,1/2+y,-z
-y,1/2+x,1/2-z
1/2-x,y,z
x,1/2-y,z
1/2-y,1/2-x,1/2+z
y,x,1/2+z
loop_
_atom_site_type_symbol
_atom_site_label
_atom_site_fract_x
_atom_site_fract_y
_atom_site_fract_z
Si Si1 0.004672 0.850925 0.432210
Si Si2 0.645607 0.461269 0.072682
Si Si3 0.849708 0.851155 0.771269
Si Si4 0.853324 0.393806 0.675939
Si Si5 0.898384 0.647913 0.133172
Si Si6 0.521320 0.640567 0.880206
O O1 0.959841 0.750000 0.437773
O O2 0.061397 0.872035 0.497617
O O3 0.074316 0.847179 0.372018
O O4 0.919234 0.921441 0.431366
O O5 0.750000 0.441109 0.093107
O O6 0.621850 0.569542 0.081375
O O7 0.583615 0.394465 0.116759
O O8 0.750000 0.903428 0.780005
O O9 0.837039 0.750000 0.800212
O O10 0.875121 0.840357 0.696833
O O11 0.933751 0.893272 0.812328
O O12 0.882952 0.382952 0.750000
O O13 0.750000 0.353037 0.666836
O O14 0.854412 0.498961 0.657771
O O15 0.873734 0.750000 0.105581
O O16 0.524703 0.750000 0.893482
#
# Coordination Sequence:
#
# PCOD8318742 Si02
#       6
#    16  16  16  16  16  16
#     4  11  24  43  64  91 130 169 212 266 323 385
#     4  11  25  43  63  90 128 174 219 264 318 386
#     4   9  18  34  59  92 123 155 202 263 327 375
#     4  11  23  39  65 100 135 168 205 257 329 406
#     4  10  21  38  64  95 129 168 211 264 324 387
#     4  11  23  40  64  89 122 165 214 270 319 377
#
# _framework density 21.777743999999998
#
# number of rings (size 3 to 8) (size 9 to 14) (size 15 to 20)
#    0.000    1.500    1.667    3.000    0.000    6.167 
#    0.000    3.333    0.000    0.000    0.000    2.333 
#    0.000    0.000    0.000    0.000    0.000    0.000 
#
# Total GULP energy -1189408.491208 kJ/mol
# GULP energy per Si atom -12389.671783 kJ/mol
# Density = 2.172818 g / cm^3
# Si number density = 21.777744 Si / 1000 Ang^3
#
#
#
# Elastic Constant Matrix: (Units=GPa)
#
#
# Indices 1 2 3 4 5 6 
#
# 1 117.8356 30.9496 35.3249 0.0000 0.0000 0.0000
# 2 30.9496 117.8356 35.3249 0.0000 0.0000 0.0000
# 3 35.3249 35.3249 107.1955 0.0000 0.0000 0.0000
# 4 0.0000 0.0000 0.0000 28.7652 0.0000 0.0000
# 5 0.0000 0.0000 0.0000 0.0000 28.7652 0.0000
# 6 0.0000 0.0000 0.0000 0.0000 0.0000 -7.4917
#
#
#
# Elastic Compliance Matrix: (Units=1/GPa)
#
#
# Indices 1 2 3 4 5 6 
#
# 1 0.009739 -0.001771 -0.002626 0.000000 0.000000 0.000000
# 2 -0.001771 0.009739 -0.002626 0.000000 0.000000 0.000000
# 3 -0.002626 -0.002626 0.011059 0.000000 0.000000 0.000000
# 4 0.000000 0.000000 0.000000 0.034764 0.000000 0.000000
# 5 0.000000 0.000000 0.000000 0.000000 0.034764 0.000000
# 6 0.000000 0.000000 0.000000 0.000000 0.000000 -0.133482
#
#
# Mechanical properties :
#
#
# Convention : Reuss Voigt Hill
#
# Bulk Modulus (GPa) = 60.63463 60.67394 60.65428
# Shear Modulus (GPa) = -360.35568 26.09225 -167.13172
#
# Velocity S-wave (km/s) = -12.87746 3.46514 -8.76988
# Velocity P-wave (km/s) = 13.89972 6.62801 8.63921
#
# Compressibility (1/GPa) = 0.01649223
#
# Stress axis : x y z
#
# Youngs Moduli (GPa) = 102.68398 102.68398 90.42166
#
# Poissons Ratio (x) = 0.18182 0.23742
# Poissons Ratio (y) = 0.18182 0.23742
# Poissons Ratio (z) = 0.26962 0.26962
#
# Static dielectric constant tensor:
#      x y z
#    x 4.092000 0.000000 0.000000 
#    y 0.000000 4.092000 0.000000 
#    z 0.000000 0.000000 4.281300 
# 
# 
# High freq. dielectric constant tensor:
#      x y z
#    x 1.857150 0.000000 0.000000 
#    y 0.000000 1.857150 0.000000 
#    z 0.000000 0.000000 1.844940 
# 
# From -- ./inp_files/7797.got.cif
#   From: 2010.03.12/outbox.cif.g09.slc.cpg/sg137_4_cif.got.tgz:7797.got - 2010.04.08 09:34:49.
