data_PCOD8318971
_publ_section_title
;
Structure prediction by ZEFSAII (Michael W. Deem and Ramdas Pophale) SiO2 
 PCOD8318971
Probable space group: P 42/N C M
;
_chemical_formula_sum "Si O2"
_cell_formula_units_Z 56
_cell_length_a 22.232804
_cell_length_b 22.232804
_cell_length_c 5.462302
_cell_angle_alpha 90.000000
_cell_angle_beta 90.000000
_cell_angle_gamma 90.000000
_cell_volume 2700.002625
_symmetry_space_group_name_H-M "P 42/N C M"
_symmetry_group_IT_number 138
_space_group.IT_coordinate_system_code '2'
_symmetry_cell_setting 'tetragonal'
loop_
_space_group_symop_operation_xyz
x,y,z
1/2-y,x,1/2+z
1/2-x,1/2-y,z
y,1/2-x,1/2+z
1/2+x,-y,1/2-z
-x,1/2+y,1/2-z
1/2+y,1/2+x,-z
-y,-x,-z
-x,-y,-z
1/2+y,-x,1/2-z
1/2+x,1/2+y,-z
-y,1/2+x,1/2-z
1/2-x,y,1/2+z
x,1/2-y,1/2+z
1/2-y,1/2-x,z
y,x,z
loop_
_atom_site_type_symbol
_atom_site_label
_atom_site_fract_x
_atom_site_fract_y
_atom_site_fract_z
Si Si1 0.005081 0.591197 0.153099
Si Si2 0.231504 0.867153 0.851566
Si Si3 0.892529 0.392529 0.500000
Si Si4 0.001596 0.778209 0.556917
O O1 0.040968 0.614055 0.390969
O O2 0.946115 0.553885 0.231027
O O3 0.985454 0.651523 0.012538
O O4 0.049536 0.549536 0.000000
O O5 0.261257 0.831847 0.617952
O O6 0.270227 0.926231 0.927530
O O7 0.161804 0.884928 0.803188
O O8 0.974016 0.745201 0.316140
#
# Coordination Sequence:
#
# PCOD8318971 Si02
#       4
#    16  16   8  16
#     4  11  23  35  54  88 121 148 183 239 298 348
#     4  10  20  34  54  77  97 146 194 231 270 333
#     4  12  21  34  60  75 114 150 192 230 291 350
#     4  10  19  38  56  75 106 153 193 224 268 346
#
# _framework density 20.740721000000001
#
# number of rings (size 3 to 8) (size 9 to 14) (size 15 to 20)
#    0.000    1.429    5.714    3.857    0.000    0.000 
#    0.000    0.000    0.000    2.571    0.000    0.000 
#    0.000    3.429    0.000    0.000    0.000    0.000 
#
# Total GULP energy -693882.092612 kJ/mol
# GULP energy per Si atom -12390.751654 kJ/mol
# Density = 2.069351 g / cm^3
# Si number density = 20.740721 Si / 1000 Ang^3
#
#
#
# Elastic Constant Matrix: (Units=GPa)
#
#
# Indices 1 2 3 4 5 6 
#
# 1 69.0998 61.5965 29.5557 0.0000 0.0000 0.0000
# 2 61.5965 69.0998 29.5557 0.0000 0.0000 0.0000
# 3 29.5557 29.5557 146.4263 0.0000 0.0000 0.0000
# 4 0.0000 0.0000 0.0000 19.0929 0.0000 0.0000
# 5 0.0000 0.0000 0.0000 0.0000 19.0929 0.0000
# 6 0.0000 0.0000 0.0000 0.0000 0.0000 -4.4411
#
#
#
# Elastic Compliance Matrix: (Units=1/GPa)
#
#
# Indices 1 2 3 4 5 6 
#
# 1 0.070848 -0.062428 -0.001700 0.000000 0.000000 0.000000
# 2 -0.062428 0.070848 -0.001700 0.000000 0.000000 0.000000
# 3 -0.001700 -0.001700 0.007515 0.000000 0.000000 0.000000
# 4 0.000000 0.000000 0.000000 0.052375 0.000000 0.000000
# 5 0.000000 0.000000 0.000000 0.000000 0.052375 0.000000
# 6 0.000000 0.000000 0.000000 0.000000 0.000000 -0.225170
#
#
# Mechanical properties :
#
#
# Convention : Reuss Voigt Hill
#
# Bulk Modulus (GPa) = 56.95648 58.44908 57.70278
# Shear Modulus (GPa) = 30.06659 17.67682 23.87171
#
# Velocity S-wave (km/s) = 3.81155 2.92254 3.39626
# Velocity P-wave (km/s) = 6.84772 6.29527 6.57730
#
# Compressibility (1/GPa) = 0.01755726
#
# Stress axis : x y z
#
# Youngs Moduli (GPa) = 14.11482 14.11482 133.05889
#
# Poissons Ratio (x) = 0.88115 0.22614
# Poissons Ratio (y) = 0.88115 0.22614
# Poissons Ratio (z) = 0.02399 0.02399
#
# Static dielectric constant tensor:
#      x y z
#    x 3.592390 0.000000 0.000000 
#    y 0.000000 3.592390 0.000000 
#    z 0.000000 0.000000 4.718580 
# 
# 
# High freq. dielectric constant tensor:
#      x y z
#    x 1.772010 0.000000 0.000000 
#    y 0.000000 1.772010 0.000000 
#    z 0.000000 0.000000 1.830720 
# 
# From -- ./inp_files/327.got.cif
#   From: 2010.03.12/outbox.cif.g09.slc.cpg/sg138_1_cif.got.tgz:327.got - 2010.04.08 09:41:05.
