data_PCOD8318123
_publ_section_title
;
Structure prediction by ZEFSAII (Michael W. Deem and Ramdas Pophale) SiO2 
 PCOD8318123
Probable space group: P 42/M N M
;
_chemical_formula_sum "Si O2"
_cell_formula_units_Z 112
_cell_length_a 16.326807
_cell_length_b 16.326807
_cell_length_c 23.153195
_cell_angle_alpha 90.000000
_cell_angle_beta 90.000000
_cell_angle_gamma 90.000000
_cell_volume 6171.822785
_symmetry_space_group_name_H-M "P 42/M N M"
_symmetry_group_IT_number 136
_symmetry_cell_setting 'tetragonal'
loop_
_space_group_symop_operation_xyz
x,y,z
1/2-y,1/2+x,1/2+z
-x,-y,z
1/2+y,1/2-x,1/2+z
1/2+x,1/2-y,1/2-z
1/2-x,1/2+y,1/2-z
y,x,-z
-y,-x,-z
-x,-y,-z
1/2+y,1/2-x,1/2-z
x,y,-z
1/2-y,1/2+x,1/2-z
1/2-x,1/2+y,1/2+z
1/2+x,1/2-y,1/2+z
-y,-x,z
y,x,z
loop_
_atom_site_type_symbol
_atom_site_label
_atom_site_fract_x
_atom_site_fract_y
_atom_site_fract_z
Si Si1 0.430933 0.935762 0.433840
Si Si2 0.004737 0.714444 0.356673
Si Si3 0.774082 0.531683 0.566856
Si Si4 0.366608 0.501533 0.650450
Si Si5 0.633068 0.496728 0.064190
Si Si6 0.813897 0.680462 0.646439
Si Si7 0.222264 0.909205 0.753855
O O1 0.402832 0.949806 0.500000
O O2 0.355307 0.948434 0.391648
O O3 0.466060 0.845656 0.424373
O O4 0.500000 0.000000 0.416186
O O5 0.050376 0.724000 0.295985
O O6 0.015619 0.797958 0.390390
O O7 0.909720 0.696117 0.347586
O O8 0.754790 0.546560 0.500000
O O9 0.695070 0.492416 0.596969
O O10 0.797587 0.619399 0.593375
O O11 0.412105 0.587896 0.657967
O O12 0.428918 0.428918 0.635689
O O13 0.319993 0.482286 0.710020
O O14 0.586086 0.413914 0.082217
O O15 0.571805 0.571805 0.064510
O O16 0.670702 0.486119 0.000000
O O17 0.764744 0.764744 0.634449
O O18 0.784313 0.640338 0.705768
O O19 0.152433 0.847568 0.729553
#
# Coordination Sequence:
#
# PCOD8318123 Si02
#       7
#    16  16  16  16  16  16  16
#     4  10  21  38  56  79 113 149 184 227 276 328
#     4  12  21  35  60  83 105 147 196 227 268 338
#     4  10  20  37  59  82 112 150 187 229 283 339
#     4   9  19  37  60  85 115 148 183 231 288 341
#     4   9  19  35  54  82 118 145 173 225 281 326
#     4  10  22  38  54  81 114 138 178 240 291 326
#     4   9  21  39  55  77 111 147 183 229 278 327
#
# _framework density 18.146989999999999
#
# number of rings (size 3 to 8) (size 9 to 14) (size 15 to 20)
#    0.000    2.143    1.429    3.000    0.000    5.429 
#    0.000    5.000    0.000    1.714    0.000    0.000 
#    0.000    0.000    0.000    0.000    0.000    0.000 
#
# Total GULP energy -1388982.881726 kJ/mol
# GULP energy per Si atom -12401.632873 kJ/mol
# Density = 1.810569 g / cm^3
# Si number density = 18.146990 Si / 1000 Ang^3
#
#
#
# Elastic Constant Matrix: (Units=GPa)
#
#
# Indices 1 2 3 4 5 6 
#
# 1 76.7761 19.2549 46.4473 0.0000 0.0000 0.0000
# 2 19.2549 76.7761 46.4473 0.0000 0.0000 0.0000
# 3 46.4473 46.4473 109.2972 0.0000 0.0000 0.0000
# 4 0.0000 0.0000 0.0000 22.5859 0.0000 0.0000
# 5 0.0000 0.0000 0.0000 0.0000 22.5859 0.0000
# 6 0.0000 0.0000 0.0000 0.0000 0.0000 22.6238
#
#
#
# Elastic Compliance Matrix: (Units=1/GPa)
#
#
# Indices 1 2 3 4 5 6 
#
# 1 0.017534 0.000149 -0.007514 0.000000 0.000000 0.000000
# 2 0.000149 0.017534 -0.007514 0.000000 0.000000 0.000000
# 3 -0.007514 -0.007514 0.015536 0.000000 0.000000 0.000000
# 4 0.000000 0.000000 0.000000 0.044275 0.000000 0.000000
# 5 0.000000 0.000000 0.000000 0.000000 0.044275 0.000000
# 6 0.000000 0.000000 0.000000 0.000000 0.000000 0.044201
#
#
# Mechanical properties :
#
#
# Convention : Reuss Voigt Hill
#
# Bulk Modulus (GPa) = 47.97733 54.12760 51.05246
# Shear Modulus (GPa) = 22.72081 23.60578 23.16329
#
# Velocity S-wave (km/s) = 3.54226 3.61059 3.57659
# Velocity P-wave (km/s) = 6.57463 6.87560 6.72680
#
# Compressibility (1/GPa) = 0.02084318
#
# Stress axis : x y z
#
# Youngs Moduli (GPa) = 57.03360 57.03360 64.36690
#
# Poissons Ratio (x) = -0.00848 0.48367
# Poissons Ratio (y) = -0.00848 0.48367
# Poissons Ratio (z) = 0.42857 0.42857
#
# Static dielectric constant tensor:
#      x y z
#    x 3.431870 0.000000 0.000000 
#    y 0.000000 3.431870 0.000000 
#    z 0.000000 0.000000 3.498380 
# 
# 
# High freq. dielectric constant tensor:
#      x y z
#    x 1.706310 0.000000 0.000000 
#    y 0.000000 1.706310 0.000000 
#    z 0.000000 0.000000 1.704090 
# 
# From -- ./inp_files/8505.got.cif
#   From: 2010.03.12/outbox.cif.g09.slc.cpg/sg136_5_cif.got.tgz:8505.got - 2010.04.06 18:39:43.
