data_PCOD8318076
_publ_section_title
;
Structure prediction by ZEFSAII (Michael W. Deem and Ramdas Pophale) SiO2 
 PCOD8318076
Probable space group: P 42/M N M
;
_chemical_formula_sum "Si O2"
_cell_formula_units_Z 72
_cell_length_a 21.339614
_cell_length_b 21.339614
_cell_length_c 8.577144
_cell_angle_alpha 90.000000
_cell_angle_beta 90.000000
_cell_angle_gamma 90.000000
_cell_volume 3905.852335
_symmetry_space_group_name_H-M "P 42/M N M"
_symmetry_group_IT_number 136
_symmetry_cell_setting 'tetragonal'
loop_
_space_group_symop_operation_xyz
x,y,z
1/2-y,1/2+x,1/2+z
-x,-y,z
1/2+y,1/2-x,1/2+z
1/2+x,1/2-y,1/2-z
1/2-x,1/2+y,1/2-z
y,x,-z
-y,-x,-z
-x,-y,-z
1/2+y,1/2-x,1/2-z
x,y,-z
1/2-y,1/2+x,1/2-z
1/2-x,1/2+y,1/2+z
1/2+x,1/2-y,1/2+z
-y,-x,z
y,x,z
loop_
_atom_site_type_symbol
_atom_site_label
_atom_site_fract_x
_atom_site_fract_y
_atom_site_fract_z
Si Si1 0.184516 0.988674 0.815271
Si Si2 0.354708 0.094360 0.182948
Si Si3 0.684323 0.035246 0.316657
Si Si4 0.780105 0.875586 0.183181
Si Si5 0.948745 0.051256 0.684223
O O1 0.248155 0.952771 0.763963
O O2 0.121352 0.962767 0.740464
O O3 0.193211 0.059137 0.751347
O O4 0.178272 0.983998 0.000000
O O5 0.411882 0.136127 0.242916
O O6 0.292489 0.134112 0.223010
O O7 0.350135 0.029197 0.273943
O O8 0.359214 0.078680 0.000000
O O9 0.694930 0.040036 0.500000
O O10 0.818834 0.818834 0.260869
O O11 0.790449 0.876709 0.000000
O O12 0.950179 0.049822 0.500000
O O13 0.000000 0.000000 0.748483
#
# Coordination Sequence:
#
# PCOD8318076 Si02
#       5
#    16  16  16  16   8
#     4  10  20  35  55  78 108 144 181 223 272 329
#     4   9  19  34  52  77 105 138 180 222 274 335
#     4  10  20  35  54  78 108 141 181 228 279 328
#     4   8  14  28  51  75  97 127 172 218 258 310
#     4  11  23  37  55  83 115 147 187 231 273 318
#
# _framework density 18.433876999999999
#
# number of rings (size 3 to 8) (size 9 to 14) (size 15 to 20)
#    0.000    2.556    0.000    3.667    0.000    4.000 
#    2.000    2.222    0.000    6.000    0.000    0.000 
#    0.000    0.000    0.000    0.000    0.000    0.000 
#
# Total GULP energy -892393.244272 kJ/mol
# GULP energy per Si atom -12394.350615 kJ/mol
# Density = 1.839192 g / cm^3
# Si number density = 18.433877 Si / 1000 Ang^3
#
#
#
# Elastic Constant Matrix: (Units=GPa)
#
#
# Indices 1 2 3 4 5 6 
#
# 1 116.7091 91.1712 24.8920 0.0000 0.0000 0.0000
# 2 91.1712 116.7096 24.8923 0.0000 0.0000 0.0000
# 3 24.8920 24.8923 47.5771 0.0000 0.0000 0.0000
# 4 0.0000 0.0000 0.0000 25.9797 0.0000 0.0000
# 5 0.0000 0.0000 0.0000 0.0000 25.9797 0.0000
# 6 0.0000 0.0000 0.0000 0.0000 0.0000 39.5147
#
#
#
# Elastic Compliance Matrix: (Units=1/GPa)
#
#
# Indices 1 2 3 4 5 6 
#
# 1 0.022328 -0.016829 -0.002877 0.000000 0.000000 0.000000
# 2 -0.016829 0.022328 -0.002877 0.000000 0.000000 0.000000
# 3 -0.002877 -0.002877 0.024029 0.000000 0.000000 0.000000
# 4 0.000000 0.000000 0.000000 0.038492 0.000000 0.000000
# 5 0.000000 0.000000 0.000000 0.000000 0.038492 0.000000
# 6 0.000000 0.000000 0.000000 0.000000 0.000000 0.025307
#
#
# Mechanical properties :
#
#
# Convention : Reuss Voigt Hill
#
# Bulk Modulus (GPa) = 42.51868 62.54519 52.53194
# Shear Modulus (GPa) = 22.32315 27.63084 24.97700
#
# Velocity S-wave (km/s) = 3.48370 3.87578 3.68496
# Velocity P-wave (km/s) = 6.26874 7.35065 6.83115
#
# Compressibility (1/GPa) = 0.02351907
#
# Stress axis : x y z
#
# Youngs Moduli (GPa) = 44.78615 44.78628 41.61579
#
# Poissons Ratio (x) = 0.75370 0.11974
# Poissons Ratio (y) = 0.75370 0.11975
# Poissons Ratio (z) = 0.12886 0.12887
#
# Static dielectric constant tensor:
#      x y z
#    x 3.606580 0.000000 0.000000 
#    y 0.000000 3.606590 0.000000 
#    z 0.000000 0.000000 3.209850 
# 
# 
# High freq. dielectric constant tensor:
#      x y z
#    x 1.718280 0.000000 0.000000 
#    y 0.000000 1.718280 0.000000 
#    z 0.000000 0.000000 1.700140 
# 
# From -- ./inp_files/1595.got.cif
#   From: 2010.03.12/outbox.cif.g09.slc.cpg/sg136_1_cif.got.tgz:1595.got - 2010.04.06 18:39:43.
