data_PCOD8318558
_publ_section_title
;
Structure prediction by ZEFSAII (Michael W. Deem and Ramdas Pophale) SiO2 
 PCOD8318558
Probable space group: P 42/N M C
;
_chemical_formula_sum "Si O2"
_cell_formula_units_Z 128
_cell_length_a 22.748082
_cell_length_b 22.748082
_cell_length_c 12.426321
_cell_angle_alpha 90.000000
_cell_angle_beta 90.000000
_cell_angle_gamma 90.000000
_cell_volume 6430.313376
_symmetry_space_group_name_H-M "P 42/N M C"
_symmetry_group_IT_number 137
_space_group.IT_coordinate_system_code '2'
_symmetry_cell_setting 'tetragonal'
loop_
_space_group_symop_operation_xyz
x,y,z
1/2-y,x,1/2+z
1/2-x,1/2-y,z
y,1/2-x,1/2+z
1/2+x,-y,-z
-x,1/2+y,-z
1/2+y,1/2+x,1/2-z
-y,-x,1/2-z
-x,-y,-z
1/2+y,-x,1/2-z
1/2+x,1/2+y,-z
-y,1/2+x,1/2-z
1/2-x,y,z
x,1/2-y,z
1/2-y,1/2-x,1/2+z
y,x,1/2+z
loop_
_atom_site_type_symbol
_atom_site_label
_atom_site_fract_x
_atom_site_fract_y
_atom_site_fract_z
Si Si1 0.032723 0.684210 0.701849
Si Si2 0.184060 0.412283 0.913262
Si Si3 0.519704 0.420919 0.155859
Si Si4 0.618311 0.589570 0.875069
Si Si5 0.015869 0.818378 0.310475
Si Si6 0.622717 0.081936 0.003668
Si Si7 0.683048 0.119267 0.656096
Si Si8 0.816628 0.682001 0.754453
O O1 0.047639 0.750000 0.738521
O O2 0.044675 0.641596 0.802056
O O3 0.074829 0.668461 0.601401
O O4 0.963971 0.676916 0.673467
O O5 0.250000 0.413190 0.962335
O O6 0.171261 0.349267 0.859132
O O7 0.136528 0.425660 0.003851
O O8 0.530738 0.469263 0.250000
O O9 0.451177 0.417980 0.130838
O O10 0.557197 0.434623 0.047604
O O11 0.653418 0.548032 0.789539
O O12 0.643157 0.653939 0.848051
O O13 0.013386 0.750000 0.346015
O O14 0.039391 0.858903 0.407239
O O15 0.053448 0.825739 0.202268
O O16 0.625767 0.147571 0.954936
O O17 0.664160 0.164160 0.750000
O O18 0.750000 0.132552 0.626716
O O19 0.750000 0.656542 0.748768
O O20 0.814534 0.750000 0.783841
#
# Coordination Sequence:
#
# PCOD8318558 Si02
#       8
#    16  16  16  16  16  16  16  16
#     4  10  19  39  62  80 110 153 198 235 279 347
#     4  10  20  36  58  83 109 147 195 235 277 340
#     4  10  24  39  54  86 120 151 190 242 300 344
#     4  12  22  36  60  85 111 149 196 238 286 345
#     4  10  20  36  58  83 113 154 196 232 281 350
#     4  10  20  37  58  85 115 151 195 235 286 347
#     4   9  20  37  57  85 120 150 182 230 292 353
#     4  10  22  39  58  84 119 152 187 241 296 340
#
# _framework density 19.905718
#
# number of rings (size 3 to 8) (size 9 to 14) (size 15 to 20)
#    0.000    1.875    2.500    1.500    0.000    4.625 
#    0.000    1.250    0.000    0.000    0.000    0.000 
#    0.000    0.000    0.000    0.000    0.000    0.000 
#
# Total GULP energy -1586865.051162 kJ/mol
# GULP energy per Si atom -12397.383212 kJ/mol
# Density = 1.986041 g / cm^3
# Si number density = 19.905718 Si / 1000 Ang^3
#
#
#
# Elastic Constant Matrix: (Units=GPa)
#
#
# Indices 1 2 3 4 5 6 
#
# 1 108.9829 28.6083 23.7132 0.0000 0.0000 0.0000
# 2 28.6083 108.9812 23.7130 0.0000 0.0000 0.0000
# 3 23.7132 23.7130 49.6915 0.0000 0.0000 0.0000
# 4 0.0000 0.0000 0.0000 23.6537 0.0000 0.0000
# 5 0.0000 0.0000 0.0000 0.0000 23.6538 0.0000
# 6 0.0000 0.0000 0.0000 0.0000 0.0000 25.5786
#
#
#
# Elastic Compliance Matrix: (Units=1/GPa)
#
#
# Indices 1 2 3 4 5 6 
#
# 1 0.010570 -0.001872 -0.004151 0.000000 0.000000 0.000000
# 2 -0.001872 0.010570 -0.004151 0.000000 0.000000 0.000000
# 3 -0.004151 -0.004151 0.024086 0.000000 0.000000 0.000000
# 4 0.000000 0.000000 0.000000 0.042277 0.000000 0.000000
# 5 0.000000 0.000000 0.000000 0.000000 0.042277 0.000000
# 6 0.000000 0.000000 0.000000 0.000000 0.000000 0.039095
#
#
# Mechanical properties :
#
#
# Convention : Reuss Voigt Hill
#
# Bulk Modulus (GPa) = 40.19427 46.63607 43.41517
# Shear Modulus (GPa) = 25.31443 27.35195 26.33319
#
# Velocity S-wave (km/s) = 3.56998 3.71087 3.64111
# Velocity P-wave (km/s) = 6.10157 6.46839 6.28766
#
# Compressibility (1/GPa) = 0.02487917
#
# Stress axis : x y z
#
# Youngs Moduli (GPa) = 94.60508 94.60354 41.51776
#
# Poissons Ratio (x) = 0.17705 0.17234
# Poissons Ratio (y) = 0.17706 0.17235
# Poissons Ratio (z) = 0.39272 0.39271
#
# Static dielectric constant tensor:
#      x y z
#    x 3.806580 0.000000 0.000000 
#    y 0.000000 3.806580 0.000000 
#    z 0.000000 0.000000 3.396730 
# 
# 
# High freq. dielectric constant tensor:
#      x y z
#    x 1.779920 0.000000 0.000000 
#    y 0.000000 1.779930 0.000000 
#    z 0.000000 0.000000 1.756590 
# 
# From -- ./inp_files/4014.got.cif
#   From: 2010.03.12/outbox.cif.g09.slc.cpg/sg137_3_cif.got.tgz:4014.got - 2010.04.08 09:34:49.
