data_PCOD8318823
_publ_section_title
;
Structure prediction by ZEFSAII (Michael W. Deem and Ramdas Pophale) SiO2 
 PCOD8318823
Probable space group: P 42/N M C
;
_chemical_formula_sum "Si O2"
_cell_formula_units_Z 56
_cell_length_a 15.208530
_cell_length_b 15.208530
_cell_length_c 10.647513
_cell_angle_alpha 90.000000
_cell_angle_beta 90.000000
_cell_angle_gamma 90.000000
_cell_volume 2462.763206
_symmetry_space_group_name_H-M "P 42/N M C"
_symmetry_group_IT_number 137
_space_group.IT_coordinate_system_code '2'
_symmetry_cell_setting 'tetragonal'
loop_
_space_group_symop_operation_xyz
x,y,z
1/2-y,x,1/2+z
1/2-x,1/2-y,z
y,1/2-x,1/2+z
1/2+x,-y,-z
-x,1/2+y,-z
1/2+y,1/2+x,1/2-z
-y,-x,1/2-z
-x,-y,-z
1/2+y,-x,1/2-z
1/2+x,1/2+y,-z
-y,1/2+x,1/2-z
1/2-x,y,z
x,1/2-y,z
1/2-y,1/2-x,1/2+z
y,x,1/2+z
loop_
_atom_site_type_symbol
_atom_site_label
_atom_site_fract_x
_atom_site_fract_y
_atom_site_fract_z
Si Si1 0.931271 0.615343 0.441827
Si Si2 0.250000 0.004348 0.252081
Si Si3 0.750000 0.148306 0.560485
Si Si4 0.750000 0.843054 0.549719
Si Si5 0.587388 0.411083 0.107196
O O1 0.981847 0.662381 0.328085
O O2 0.836941 0.658791 0.463827
O O3 0.914693 0.516501 0.402653
O O4 0.993682 0.624802 0.564683
O O5 0.250000 0.072607 0.364950
O O6 0.250000 0.906836 0.309985
O O7 0.750000 0.250000 0.597868
O O8 0.836306 0.126837 0.480723
O O9 0.750000 0.750000 0.625193
O O10 0.612335 0.387666 0.250000
#
# Coordination Sequence:
#
# PCOD8318823 Si02
#       5
#    16   8   8   8  16
#     4  11  25  47  74 111 144 202 249 316 392 452
#     4  12  26  49  75 115 156 191 261 314 383 471
#     4  12  30  51  74 110 154 209 260 319 380 455
#     4  12  24  46  71 113 152 194 247 309 393 456
#     4  11  26  49  74 101 149 199 260 314 378 458
#
# _framework density 22.738686000000001
#
# number of rings (size 3 to 8) (size 9 to 14) (size 15 to 20)
#    0.000    0.571    4.286    1.714   10.000    0.000 
#    7.714    0.000    0.000    0.000    0.000    0.000 
#    0.000    0.000    0.000    0.000    0.000    0.000 
#
# Total GULP energy -694537.889598 kJ/mol
# GULP energy per Si atom -12402.462314 kJ/mol
# Density = 2.268693 g / cm^3
# Si number density = 22.738686 Si / 1000 Ang^3
#
#
#
# Elastic Constant Matrix: (Units=GPa)
#
#
# Indices 1 2 3 4 5 6 
#
# 1 166.5774 60.3118 55.3945 0.0000 0.0000 0.0000
# 2 60.3118 166.5775 55.3944 0.0000 0.0000 0.0000
# 3 55.3945 55.3944 127.0968 0.0000 0.0000 0.0000
# 4 0.0000 0.0000 0.0000 54.0288 0.0000 0.0000
# 5 0.0000 0.0000 0.0000 0.0000 54.0515 0.0000
# 6 0.0000 0.0000 0.0000 0.0000 0.0000 -37.2707
#
#
#
# Elastic Compliance Matrix: (Units=1/GPa)
#
#
# Indices 1 2 3 4 5 6 
#
# 1 0.007505 -0.001906 -0.002440 0.000000 0.000000 0.000000
# 2 -0.001906 0.007505 -0.002440 0.000000 0.000000 0.000000
# 3 -0.002440 -0.002440 0.009995 0.000000 0.000000 0.000000
# 4 0.000000 0.000000 0.000000 0.018509 0.000000 0.000000
# 5 0.000000 0.000000 0.000000 0.000000 0.018501 0.000000
# 6 0.000000 0.000000 0.000000 0.000000 0.000000 -0.026831
#
#
# Mechanical properties :
#
#
# Convention : Reuss Voigt Hill
#
# Bulk Modulus (GPa) = 87.47349 89.16148 88.31749
# Shear Modulus (GPa) = 95.11729 33.43864 64.27797
#
# Velocity S-wave (km/s) = 6.47467 3.83895 5.32254
# Velocity P-wave (km/s) = 9.71842 7.67767 8.75769
#
# Compressibility (1/GPa) = 0.01143203
#
# Stress axis : x y z
#
# Youngs Moduli (GPa) = 133.24968 133.24985 100.04795
#
# Poissons Ratio (x) = 0.25393 0.24415
# Poissons Ratio (y) = 0.25393 0.24415
# Poissons Ratio (z) = 0.32517 0.32517
#
# Static dielectric constant tensor:
#      x y z
#    x 4.809710 0.000000 0.000000 
#    y 0.000000 4.809880 0.000000 
#    z 0.000000 0.000000 4.046630 
# 
# 
# High freq. dielectric constant tensor:
#      x y z
#    x 1.916150 0.000000 0.000000 
#    y 0.000000 1.916150 0.000000 
#    z 0.000000 0.000000 1.889680 
# 
# From -- ./inp_files/1560.got.cif
#   From: 2010.03.12/outbox.cif.g09.slc.cpg/sg137_1_cif.got.tgz:1560.got - 2010.04.08 09:34:49.
