data_PCOD8318078
_publ_section_title
;
Structure prediction by ZEFSAII (Michael W. Deem and Ramdas Pophale) SiO2 
 PCOD8318078
Probable space group: P 42/M N M
;
_chemical_formula_sum "Si O2"
_cell_formula_units_Z 56
_cell_length_a 19.107118
_cell_length_b 19.107118
_cell_length_c 8.570281
_cell_angle_alpha 90.000000
_cell_angle_beta 90.000000
_cell_angle_gamma 90.000000
_cell_volume 3128.854970
_symmetry_space_group_name_H-M "P 42/M N M"
_symmetry_group_IT_number 136
_symmetry_cell_setting 'tetragonal'
loop_
_space_group_symop_operation_xyz
x,y,z
1/2-y,1/2+x,1/2+z
-x,-y,z
1/2+y,1/2-x,1/2+z
1/2+x,1/2-y,1/2-z
1/2-x,1/2+y,1/2-z
y,x,-z
-y,-x,-z
-x,-y,-z
1/2+y,1/2-x,1/2-z
x,y,-z
1/2-y,1/2+x,1/2-z
1/2-x,1/2+y,1/2+z
1/2+x,1/2-y,1/2+z
-y,-x,z
y,x,z
loop_
_atom_site_type_symbol
_atom_site_label
_atom_site_fract_x
_atom_site_fract_y
_atom_site_fract_z
Si Si1 0.984273 0.209129 0.682978
Si Si2 0.131774 0.244472 0.181781
Si Si3 0.348744 0.234647 0.318106
Si Si4 0.055617 0.944384 0.685448
O O1 0.000193 0.208438 0.500000
O O2 0.920193 0.260692 0.720555
O O3 0.965156 0.132090 0.747550
O O4 0.051619 0.235968 0.773477
O O5 0.174153 0.174153 0.228022
O O6 0.162324 0.310603 0.275419
O O7 0.139019 0.260610 0.000000
O O8 0.366411 0.235986 0.500000
O O9 0.299033 0.299033 0.268632
O O10 0.055629 0.944372 0.500000
O O11 0.000000 0.000000 0.752364
#
# Coordination Sequence:
#
# PCOD8318078 Si02
#       4
#    16  16  16   8
#     4  11  20  33  54  79 110 145 182 223 272 324
#     4  10  21  36  54  78 109 143 183 228 273 321
#     4  10  20  35  55  78 106 141 184 228 272 323
#     4   9  18  30  47  75 111 147 179 212 259 324
#
# _framework density 17.897921
#
# number of rings (size 3 to 8) (size 9 to 14) (size 15 to 20)
#    0.000    1.857    1.429    3.429    0.000    4.000 
#    0.000    0.000    0.000    4.286    0.000    6.000 
#    0.000    0.000    0.000    0.000    0.000    0.000 
#
# Total GULP energy -694692.346343 kJ/mol
# GULP energy per Si atom -12405.220470 kJ/mol
# Density = 1.785718 g / cm^3
# Si number density = 17.897921 Si / 1000 Ang^3
#
#
#
# Elastic Constant Matrix: (Units=GPa)
#
#
# Indices 1 2 3 4 5 6 
#
# 1 93.9024 51.4885 10.1678 0.0000 0.0000 0.0000
# 2 51.4885 93.9022 10.1676 0.0000 0.0000 0.0000
# 3 10.1678 10.1676 43.5194 0.0000 0.0000 0.0000
# 4 0.0000 0.0000 0.0000 28.3954 0.0000 0.0000
# 5 0.0000 0.0000 0.0000 0.0000 28.3954 0.0000
# 6 0.0000 0.0000 0.0000 0.0000 0.0000 27.3552
#
#
#
# Elastic Compliance Matrix: (Units=1/GPa)
#
#
# Indices 1 2 3 4 5 6 
#
# 1 0.015344 -0.008233 -0.001661 0.000000 0.000000 0.000000
# 2 -0.008233 0.015344 -0.001661 0.000000 0.000000 0.000000
# 3 -0.001661 -0.001661 0.023754 0.000000 0.000000 0.000000
# 4 0.000000 0.000000 0.000000 0.035217 0.000000 0.000000
# 5 0.000000 0.000000 0.000000 0.000000 0.035217 0.000000
# 6 0.000000 0.000000 0.000000 0.000000 0.000000 0.036556
#
#
# Mechanical properties :
#
#
# Convention : Reuss Voigt Hill
#
# Bulk Modulus (GPa) = 31.91800 41.66355 36.79077
# Shear Modulus (GPa) = 25.64268 27.46254 26.55261
#
# Velocity S-wave (km/s) = 3.78923 3.92139 3.85588
# Velocity P-wave (km/s) = 6.08411 6.62058 6.35801
#
# Compressibility (1/GPa) = 0.03133028
#
# Stress axis : x y z
#
# Youngs Moduli (GPa) = 65.17292 65.17285 42.09729
#
# Poissons Ratio (x) = 0.53660 0.06994
# Poissons Ratio (y) = 0.53660 0.06993
# Poissons Ratio (z) = 0.10827 0.10826
#
# Static dielectric constant tensor:
#      x y z
#    x 3.243060 0.000000 0.000000 
#    y 0.000000 3.243060 0.000000 
#    z 0.000000 0.000000 3.204400 
# 
# 
# High freq. dielectric constant tensor:
#      x y z
#    x 1.684070 0.000000 0.000000 
#    y 0.000000 1.684070 0.000000 
#    z 0.000000 0.000000 1.694330 
# 
# From -- ./inp_files/1099.got.cif
#   From: 2010.03.12/outbox.cif.g09.slc.cpg/sg136_1_cif.got.tgz:1099.got - 2010.04.06 18:39:43.
