data_PCOD8318509
_publ_section_title
;
Structure prediction by ZEFSAII (Michael W. Deem and Ramdas Pophale) SiO2 
 PCOD8318509
Probable space group: P 42/N M C
;
_chemical_formula_sum "Si O2"
_cell_formula_units_Z 40
_cell_length_a 7.713591
_cell_length_b 7.713591
_cell_length_c 32.830541
_cell_angle_alpha 90.000000
_cell_angle_beta 90.000000
_cell_angle_gamma 90.000000
_cell_volume 1953.400318
_symmetry_space_group_name_H-M "P 42/N M C"
_symmetry_group_IT_number 137
_space_group.IT_coordinate_system_code '2'
_symmetry_cell_setting 'tetragonal'
loop_
_space_group_symop_operation_xyz
x,y,z
1/2-y,x,1/2+z
1/2-x,1/2-y,z
y,1/2-x,1/2+z
1/2+x,-y,-z
-x,1/2+y,-z
1/2+y,1/2+x,1/2-z
-y,-x,1/2-z
-x,-y,-z
1/2+y,-x,1/2-z
1/2+x,1/2+y,-z
-y,1/2+x,1/2-z
1/2-x,y,z
x,1/2-y,z
1/2-y,1/2-x,1/2+z
y,x,1/2+z
loop_
_atom_site_type_symbol
_atom_site_label
_atom_site_fract_x
_atom_site_fract_y
_atom_site_fract_z
Si Si1 0.944960 0.444960 0.250000
Si Si2 0.543202 0.250000 0.599947
Si Si3 0.750000 0.044795 0.807725
Si Si4 0.441557 0.045911 0.955006
O O1 0.970723 0.250000 0.267052
O O2 0.975020 0.576698 0.286821
O O3 0.750000 0.250000 0.598455
O O4 0.476160 0.250000 0.646152
O O5 0.468648 0.420786 0.577275
O O6 0.750000 0.250000 0.804542
O O7 0.250000 0.966968 0.946526
O O8 0.434794 0.250000 0.950066
O O9 0.500000 0.000000 0.000000
#
# Coordination Sequence:
#
# PCOD8318509 Si02
#       4
#     8   8   8  16
#     4  11  23  40  64  92 125 163 200 254 314 381
#     4   9  20  35  55  85 118 149 201 254 289 365
#     4  11  21  39  65  92 119 161 210 257 323 380
#     4  10  19  33  54  80 112 155 200 243 298 355
#
# _framework density 20.477115000000001
#
# number of rings (size 3 to 8) (size 9 to 14) (size 15 to 20)
#    0.000    1.800    4.000    0.600    0.000    1.600 
#    0.000    8.000    0.000    0.000    0.000    0.000 
#    0.000    0.000    0.000    0.000    0.000    0.000 
#
# Total GULP energy -495927.420676 kJ/mol
# GULP energy per Si atom -12398.185517 kJ/mol
# Density = 2.043051 g / cm^3
# Si number density = 20.477115 Si / 1000 Ang^3
#
#
#
# Elastic Constant Matrix: (Units=GPa)
#
#
# Indices 1 2 3 4 5 6 
#
# 1 139.0128 41.6310 70.4964 0.0000 0.0000 0.0000
# 2 41.6310 139.0128 70.4964 0.0000 0.0000 0.0000
# 3 70.4964 70.4964 186.6718 0.0000 0.0000 0.0000
# 4 0.0000 0.0000 0.0000 14.8042 0.0000 0.0000
# 5 0.0000 0.0000 0.0000 0.0000 14.8042 0.0000
# 6 0.0000 0.0000 0.0000 0.0000 0.0000 21.7123
#
#
#
# Elastic Compliance Matrix: (Units=1/GPa)
#
#
# Indices 1 2 3 4 5 6 
#
# 1 0.009059 -0.001210 -0.002964 0.000000 0.000000 0.000000
# 2 -0.001210 0.009059 -0.002964 0.000000 0.000000 0.000000
# 3 -0.002964 -0.002964 0.007596 0.000000 0.000000 0.000000
# 4 0.000000 0.000000 0.000000 0.067549 0.000000 0.000000
# 5 0.000000 0.000000 0.000000 0.000000 0.067549 0.000000
# 6 0.000000 0.000000 0.000000 0.000000 0.000000 0.046057
#
#
# Mechanical properties :
#
#
# Convention : Reuss Voigt Hill
#
# Bulk Modulus (GPa) = 87.43186 92.21612 89.82399
# Shear Modulus (GPa) = 22.22643 29.06904 25.64773
#
# Velocity S-wave (km/s) = 3.29816 3.77183 3.54292
# Velocity P-wave (km/s) = 7.56927 8.00627 7.79084
#
# Compressibility (1/GPa) = 0.01143748
#
# Stress axis : x y z
#
# Youngs Moduli (GPa) = 110.38581 110.38581 131.64924
#
# Poissons Ratio (x) = 0.13354 0.39025
# Poissons Ratio (y) = 0.13354 0.39025
# Poissons Ratio (z) = 0.32722 0.32722
#
# Static dielectric constant tensor:
#      x y z
#    x 4.062330 0.000000 0.000000 
#    y 0.000000 4.062330 0.000000 
#    z 0.000000 0.000000 3.733920 
# 
# 
# High freq. dielectric constant tensor:
#      x y z
#    x 1.805990 0.000000 0.000000 
#    y 0.000000 1.805990 0.000000 
#    z 0.000000 0.000000 1.787310 
# 
# From -- ./inp_files/9343.got.cif
#   From: 2010.03.12/outbox.cif.g09.slc.cpg/sg137_5_cif.got.tgz:9343.got - 2010.04.08 09:34:49.
