data_PCOD8318483
_publ_section_title
;
Structure prediction by ZEFSAII (Michael W. Deem and Ramdas Pophale) SiO2 
 PCOD8318483
Probable space group: P 42/N M C
;
_chemical_formula_sum "Si O2"
_cell_formula_units_Z 80
_cell_length_a 17.456345
_cell_length_b 17.456345
_cell_length_c 15.995415
_cell_angle_alpha 90.000000
_cell_angle_beta 90.000000
_cell_angle_gamma 90.000000
_cell_volume 4874.186533
_symmetry_space_group_name_H-M "P 42/N M C"
_symmetry_group_IT_number 137
_space_group.IT_coordinate_system_code '2'
_symmetry_cell_setting 'tetragonal'
loop_
_space_group_symop_operation_xyz
x,y,z
1/2-y,x,1/2+z
1/2-x,1/2-y,z
y,1/2-x,1/2+z
1/2+x,-y,-z
-x,1/2+y,-z
1/2+y,1/2+x,1/2-z
-y,-x,1/2-z
-x,-y,-z
1/2+y,-x,1/2-z
1/2+x,1/2+y,-z
-y,1/2+x,1/2-z
1/2-x,y,z
x,1/2-y,z
1/2-y,1/2-x,1/2+z
y,x,1/2+z
loop_
_atom_site_type_symbol
_atom_site_label
_atom_site_fract_x
_atom_site_fract_y
_atom_site_fract_z
Si Si1 0.663172 0.423357 0.312643
Si Si2 0.158657 0.018986 0.273066
Si Si3 0.091538 0.535739 0.933390
Si Si4 0.436061 0.337716 0.302899
Si Si5 0.041148 0.565506 0.381136
O O1 0.646676 0.353325 0.250000
O O2 0.750000 0.427915 0.337977
O O3 0.620897 0.404413 0.398074
O O4 0.637092 0.502692 0.267958
O O5 0.250000 0.008775 0.272121
O O6 0.137535 0.107040 0.295262
O O7 0.122867 0.000125 0.182784
O O8 0.122597 0.962021 0.342779
O O9 0.153239 0.477355 0.893272
O O10 0.008108 0.508464 0.904153
O O11 0.109776 0.547474 0.031006
O O12 0.408906 0.250000 0.292590
#
# Coordination Sequence:
#
# PCOD8318483 Si02
#       5
#    16  16  16  16  16
#     4   9  16  27  45  69  98 127 154 192 243 291
#     4  10  19  32  50  70  98 131 163 202 245 289
#     4   9  16  30  51  70  92 126 163 208 241 274
#     4   9  17  30  48  72 100 127 158 193 239 296
#     4   9  18  32  49  71  93 121 172 210 237 282
#
# _framework density 16.412994999999999
#
# number of rings (size 3 to 8) (size 9 to 14) (size 15 to 20)
#    0.000    2.800    2.000    0.000    0.000    2.200 
#    0.000    0.000    0.000    4.800    0.000   11.200 
#    0.000    0.000    0.000    0.000    0.000    0.000 
#
# Total GULP energy -991249.774006 kJ/mol
# GULP energy per Si atom -12390.622175 kJ/mol
# Density = 1.637564 g / cm^3
# Si number density = 16.412995 Si / 1000 Ang^3
#
#
#
# Elastic Constant Matrix: (Units=GPa)
#
#
# Indices 1 2 3 4 5 6 
#
# 1 71.2157 35.2976 35.9587 0.0000 0.0000 0.0000
# 2 35.2976 71.2197 35.9576 0.0000 0.0000 0.0000
# 3 35.9587 35.9576 120.1058 0.0000 0.0000 0.0000
# 4 0.0000 0.0000 0.0000 13.2470 0.0000 0.0000
# 5 0.0000 0.0000 0.0000 0.0000 13.2468 0.0000
# 6 0.0000 0.0000 0.0000 0.0000 0.0000 16.7311
#
#
#
# Elastic Compliance Matrix: (Units=1/GPa)
#
#
# Indices 1 2 3 4 5 6 
#
# 1 0.019804 -0.008036 -0.003523 0.000000 0.000000 0.000000
# 2 -0.008036 0.019802 -0.003522 0.000000 0.000000 0.000000
# 3 -0.003523 -0.003522 0.010435 0.000000 0.000000 0.000000
# 4 0.000000 0.000000 0.000000 0.075489 0.000000 0.000000
# 5 0.000000 0.000000 0.000000 0.000000 0.075490 0.000000
# 6 0.000000 0.000000 0.000000 0.000000 0.000000 0.059769
#
#
# Mechanical properties :
#
#
# Convention : Reuss Voigt Hill
#
# Bulk Modulus (GPa) = 50.30761 52.99655 51.65208
# Shear Modulus (GPa) = 16.80221 19.00011 17.90116
#
# Velocity S-wave (km/s) = 3.20302 3.40608 3.30611
# Velocity P-wave (km/s) = 6.66309 6.91578 6.79061
#
# Compressibility (1/GPa) = 0.01987771
#
# Stress axis : x y z
#
# Youngs Moduli (GPa) = 50.49492 50.49889 95.82780
#
# Poissons Ratio (x) = 0.40583 0.33762
# Poissons Ratio (y) = 0.40579 0.33755
# Poissons Ratio (z) = 0.17790 0.17788
#
# Static dielectric constant tensor:
#      x y z
#    x 2.923000 0.000000 0.000000 
#    y 0.000000 2.923000 0.000000 
#    z 0.000000 0.000000 3.325310 
# 
# 
# High freq. dielectric constant tensor:
#      x y z
#    x 1.615070 0.000000 0.000000 
#    y 0.000000 1.615070 0.000000 
#    z 0.000000 0.000000 1.631680 
# 
# From -- ./inp_files/4962.got.cif
#   From: 2010.03.12/outbox.cif.g09.slc.cpg/sg137_3_cif.got.tgz:4962.got - 2010.04.08 09:34:49.
