data_PCOD8318921
_publ_section_title
;
Structure prediction by ZEFSAII (Michael W. Deem and Ramdas Pophale) SiO2 
 PCOD8318921
Probable space group: P 42/N C M
;
_chemical_formula_sum "Si O2"
_cell_formula_units_Z 64
_cell_length_a 26.112940
_cell_length_b 26.112940
_cell_length_c 5.417523
_cell_angle_alpha 90.000000
_cell_angle_beta 90.000000
_cell_angle_gamma 90.000000
_cell_volume 3694.131113
_symmetry_space_group_name_H-M "P 42/N C M"
_symmetry_group_IT_number 138
_space_group.IT_coordinate_system_code '2'
_symmetry_cell_setting 'tetragonal'
loop_
_space_group_symop_operation_xyz
x,y,z
1/2-y,x,1/2+z
1/2-x,1/2-y,z
y,1/2-x,1/2+z
1/2+x,-y,1/2-z
-x,1/2+y,1/2-z
1/2+y,1/2+x,-z
-y,-x,-z
-x,-y,-z
1/2+y,-x,1/2-z
1/2+x,1/2+y,-z
-y,1/2+x,1/2-z
1/2-x,y,1/2+z
x,1/2-y,1/2+z
1/2-y,1/2-x,z
y,x,z
loop_
_atom_site_type_symbol
_atom_site_label
_atom_site_fract_x
_atom_site_fract_y
_atom_site_fract_z
Si Si1 0.114425 0.540329 0.653409
Si Si2 0.628534 0.371467 0.500000
Si Si3 0.265878 0.649193 0.649087
Si Si4 0.274442 0.537523 0.054118
Si Si5 0.023014 0.023014 0.249210
O O1 0.076858 0.576858 0.500000
O O2 0.165568 0.523565 0.510101
O O3 0.083698 0.489709 0.744577
O O4 0.134665 0.572400 0.886927
O O5 0.674794 0.365549 0.301260
O O6 0.259949 0.679456 0.381922
O O7 0.232883 0.598957 0.568336
O O8 0.253964 0.513799 0.313286
O O9 0.000000 0.000000 0.500000
O O10 0.000000 0.000000 0.000000
#
# Coordination Sequence:
#
# PCOD8318921 Si02
#       5
#    16   8  16  16   8
#     4  11  21  32  51  71  97 125 156 197 245 282
#     4  12  20  29  56  63  86 120 148 204 236 268
#     4  10  20  32  43  68  82 105 151 191 233 281
#     4  10  19  33  47  69  89 113 159 200 229 283
#     4  10  22  34  46  72 102 126 158 185 238 309
#
# _framework density 17.324776
#
# number of rings (size 3 to 8) (size 9 to 14) (size 15 to 20)
#    0.000    1.500    6.250    3.000    0.000    0.000 
#    0.000    0.000    0.000    2.250    0.000    0.000 
#    0.000    0.000    0.000    0.000    0.000    3.750 
#
# Total GULP energy -792872.463706 kJ/mol
# GULP energy per Si atom -12388.632245 kJ/mol
# Density = 1.728534 g / cm^3
# Si number density = 17.324776 Si / 1000 Ang^3
#
#
#
# Elastic Constant Matrix: (Units=GPa)
#
#
# Indices 1 2 3 4 5 6 
#
# 1 64.8748 50.2644 21.3512 0.0000 0.0000 0.0000
# 2 50.2644 64.8760 21.3519 0.0000 0.0000 0.0000
# 3 21.3512 21.3519 122.2584 0.0000 0.0000 0.0000
# 4 0.0000 0.0000 0.0000 17.9592 0.0000 0.0000
# 5 0.0000 0.0000 0.0000 0.0000 17.9588 0.0000
# 6 0.0000 0.0000 0.0000 0.0000 0.0000 1.9542
#
#
#
# Elastic Compliance Matrix: (Units=1/GPa)
#
#
# Indices 1 2 3 4 5 6 
#
# 1 0.038864 -0.029578 -0.001622 0.000000 0.000000 0.000000
# 2 -0.029578 0.038864 -0.001622 0.000000 0.000000 0.000000
# 3 -0.001622 -0.001622 0.008746 0.000000 0.000000 0.000000
# 4 0.000000 0.000000 0.000000 0.055682 0.000000 0.000000
# 5 0.000000 0.000000 0.000000 0.000000 0.055683 0.000000
# 6 0.000000 0.000000 0.000000 0.000000 0.000000 0.511717
#
#
# Mechanical properties :
#
#
# Convention : Reuss Voigt Hill
#
# Bulk Modulus (GPa) = 48.00367 48.66045 48.33206
# Shear Modulus (GPa) = 6.39270 18.17721 12.28495
#
# Velocity S-wave (km/s) = 1.92300 3.24265 2.66578
# Velocity P-wave (km/s) = 5.71829 6.49368 6.11828
#
# Compressibility (1/GPa) = 0.02083174
#
# Stress axis : x y z
#
# Youngs Moduli (GPa) = 25.73046 25.73084 114.33951
#
# Poissons Ratio (x) = 0.76106 0.18542
# Poissons Ratio (y) = 0.76104 0.18546
# Poissons Ratio (z) = 0.04173 0.04174
#
# Static dielectric constant tensor:
#      x y z
#    x 3.212850 0.000000 0.000000 
#    y 0.000000 3.212850 0.000000 
#    z 0.000000 0.000000 4.081670 
# 
# 
# High freq. dielectric constant tensor:
#      x y z
#    x 1.621470 0.000000 0.000000 
#    y 0.000000 1.621470 0.000000 
#    z 0.000000 0.000000 1.698630 
# 
# From -- ./inp_files/385.got.cif
#   From: 2010.03.12/outbox.cif.g09.slc.cpg/sg138_1_cif.got.tgz:385.got - 2010.04.08 09:41:05.
