data_PCOD8318979
_publ_section_title
;
Structure prediction by ZEFSAII (Michael W. Deem and Ramdas Pophale) SiO2 
 PCOD8318979
Probable space group: P 42/N C M
;
_chemical_formula_sum "Si O2"
_cell_formula_units_Z 112
_cell_length_a 22.042376
_cell_length_b 22.042376
_cell_length_c 13.198492
_cell_angle_alpha 90.000000
_cell_angle_beta 90.000000
_cell_angle_gamma 90.000000
_cell_volume 6412.702998
_symmetry_space_group_name_H-M "P 42/N C M"
_symmetry_group_IT_number 138
_space_group.IT_coordinate_system_code '2'
_symmetry_cell_setting 'tetragonal'
loop_
_space_group_symop_operation_xyz
x,y,z
1/2-y,x,1/2+z
1/2-x,1/2-y,z
y,1/2-x,1/2+z
1/2+x,-y,1/2-z
-x,1/2+y,1/2-z
1/2+y,1/2+x,-z
-y,-x,-z
-x,-y,-z
1/2+y,-x,1/2-z
1/2+x,1/2+y,-z
-y,1/2+x,1/2-z
1/2-x,y,1/2+z
x,1/2-y,1/2+z
1/2-y,1/2-x,z
y,x,z
loop_
_atom_site_type_symbol
_atom_site_label
_atom_site_fract_x
_atom_site_fract_y
_atom_site_fract_z
Si Si1 0.270340 0.070407 0.693181
Si Si2 0.458956 0.940374 0.801761
Si Si3 0.753554 0.845997 0.640036
Si Si4 0.674161 0.924204 0.517130
Si Si5 0.965961 0.635033 0.145162
Si Si6 0.545176 0.644942 0.410972
Si Si7 0.415003 0.982351 0.417805
O O1 0.253810 0.135760 0.741462
O O2 0.317905 0.076594 0.602819
O O3 0.305764 0.034250 0.782279
O O4 0.207498 0.041947 0.652751
O O5 0.484535 0.891689 0.881145
O O6 0.450414 0.910041 0.691364
O O7 0.505207 0.994794 0.789316
O O8 0.395995 0.968108 0.842294
O O9 0.706927 0.793074 0.621181
O O10 0.820632 0.820632 0.609177
O O11 0.737124 0.904452 0.571257
O O12 0.623886 0.876115 0.550354
O O13 0.651153 0.989764 0.555104
O O14 0.911896 0.588105 0.174492
O O15 0.957822 0.657653 0.030220
O O16 0.605114 0.605114 0.382402
O O17 0.431093 0.931093 0.500000
O O18 0.465133 0.034867 0.420411
#
# Coordination Sequence:
#
# PCOD8318979 Si02
#       7
#    16  16  16  16  16  16  16
#     4  12  21  31  47  68  95 126 160 203 254 298
#     4   9  17  32  53  72  93 125 164 205 249 296
#     4  10  21  34  45  59  84 124 174 216 244 279
#     4  10  20  32  45  63  90 124 163 208 255 299
#     4  10  20  34  52  74  98 127 168 211 249 295
#     4  10  21  35  51  71  97 131 169 208 251 301
#     4   9  16  27  45  69  93 117 150 195 250 309
#
# _framework density 17.465333999999999
#
# number of rings (size 3 to 8) (size 9 to 14) (size 15 to 20)
#    0.000    2.000    0.000    4.714    0.000    8.571 
#    0.000    1.429    0.000    0.000    0.000    0.000 
#    0.000    0.571    0.000    3.857    0.000    0.429 
#
# Total GULP energy -1387911.296835 kJ/mol
# GULP energy per Si atom -12392.065150 kJ/mol
# Density = 1.742558 g / cm^3
# Si number density = 17.465334 Si / 1000 Ang^3
#
#
#
# Elastic Constant Matrix: (Units=GPa)
#
#
# Indices 1 2 3 4 5 6 
#
# 1 75.6208 53.7266 45.6636 0.0000 0.0000 0.0000
# 2 53.7266 75.6208 45.6636 0.0000 0.0000 0.0000
# 3 45.6636 45.6636 110.1490 0.0000 0.0000 0.0000
# 4 0.0000 0.0000 0.0000 29.4883 0.0000 0.0000
# 5 0.0000 0.0000 0.0000 0.0000 29.4883 0.0000
# 6 0.0000 0.0000 0.0000 0.0000 0.0000 32.5137
#
#
#
# Elastic Compliance Matrix: (Units=1/GPa)
#
#
# Indices 1 2 3 4 5 6 
#
# 1 0.028302 -0.017372 -0.004531 0.000000 0.000000 0.000000
# 2 -0.017372 0.028302 -0.004531 0.000000 0.000000 0.000000
# 3 -0.004531 -0.004531 0.012836 0.000000 0.000000 0.000000
# 4 0.000000 0.000000 0.000000 0.033912 0.000000 0.000000
# 5 0.000000 0.000000 0.000000 0.000000 0.033912 0.000000
# 6 0.000000 0.000000 0.000000 0.000000 0.000000 0.030756
#
#
# Mechanical properties :
#
#
# Convention : Reuss Voigt Hill
#
# Bulk Modulus (GPa) = 60.34550 61.27756 60.81153
# Shear Modulus (GPa) = 22.08354 26.05386 24.06870
#
# Velocity S-wave (km/s) = 3.55973 3.86650 3.71628
# Velocity P-wave (km/s) = 7.17789 7.42257 7.30126
#
# Compressibility (1/GPa) = 0.01657124
#
# Stress axis : x y z
#
# Youngs Moduli (GPa) = 35.33280 35.33280 77.90772
#
# Poissons Ratio (x) = 0.61379 0.35303
# Poissons Ratio (y) = 0.61379 0.35303
# Poissons Ratio (z) = 0.16011 0.16011
#
# Static dielectric constant tensor:
#      x y z
#    x 3.223430 0.000000 0.000000 
#    y 0.000000 3.223430 0.000000 
#    z 0.000000 0.000000 3.403310 
# 
# 
# High freq. dielectric constant tensor:
#      x y z
#    x 1.644090 0.000000 0.000000 
#    y 0.000000 1.644090 0.000000 
#    z 0.000000 0.000000 1.693490 
# 
# From -- ./inp_files/3273.got.cif
#   From: 2010.03.12/outbox.cif.g09.slc.cpg/sg138_2_cif.got.tgz:3273.got - 2010.04.08 09:41:05.
