data_PCOD8318820
_publ_section_title
;
Structure prediction by ZEFSAII (Michael W. Deem and Ramdas Pophale) SiO2 
 PCOD8318820
Probable space group: P 42/N M C
;
_chemical_formula_sum "Si O2"
_cell_formula_units_Z 64
_cell_length_a 18.165749
_cell_length_b 18.165749
_cell_length_c 9.591739
_cell_angle_alpha 90.000000
_cell_angle_beta 90.000000
_cell_angle_gamma 90.000000
_cell_volume 3165.220509
_symmetry_space_group_name_H-M "P 42/N M C"
_symmetry_group_IT_number 137
_space_group.IT_coordinate_system_code '2'
_symmetry_cell_setting 'tetragonal'
loop_
_space_group_symop_operation_xyz
x,y,z
1/2-y,x,1/2+z
1/2-x,1/2-y,z
y,1/2-x,1/2+z
1/2+x,-y,-z
-x,1/2+y,-z
1/2+y,1/2+x,1/2-z
-y,-x,1/2-z
-x,-y,-z
1/2+y,-x,1/2-z
1/2+x,1/2+y,-z
-y,1/2+x,1/2-z
1/2-x,y,z
x,1/2-y,z
1/2-y,1/2-x,1/2+z
y,x,1/2+z
loop_
_atom_site_type_symbol
_atom_site_label
_atom_site_fract_x
_atom_site_fract_y
_atom_site_fract_z
Si Si1 0.168623 0.837043 0.098674
Si Si2 0.585890 0.906744 0.480869
Si Si3 0.164504 0.163603 0.770060
Si Si4 0.929333 0.427177 0.415950
O O1 0.136419 0.863582 0.250000
O O2 0.250000 0.869641 0.078449
O O3 0.170824 0.750000 0.100630
O O4 0.121956 0.861799 0.965858
O O5 0.607953 0.880205 0.327655
O O6 0.645300 0.865297 0.576734
O O7 0.502489 0.886805 0.524547
O O8 0.587634 0.994803 0.487301
O O9 0.250000 0.138417 0.753508
O O10 0.158023 0.250000 0.742371
O O11 0.933333 0.433333 0.250000
#
# Coordination Sequence:
#
# PCOD8318820 Si02
#       4
#    16  16  16  16
#     4   9  21  41  63  91 125 160 204 256 309 371
#     4  11  24  43  64  92 128 165 206 261 310 370
#     4  11  24  43  66  94 130 169 212 261 314 374
#     4  11  24  42  64  92 127 166 208 258 313 374
#
# _framework density 20.219760000000001
#
# number of rings (size 3 to 8) (size 9 to 14) (size 15 to 20)
#    0.000    1.500    2.500    2.250    3.500    7.000 
#    0.000    1.250    0.000    0.000    0.000    0.000 
#    0.000    0.000    0.000    0.000    0.000    0.000 
#
# Total GULP energy -793407.489898 kJ/mol
# GULP energy per Si atom -12396.992030 kJ/mol
# Density = 2.017374 g / cm^3
# Si number density = 20.219760 Si / 1000 Ang^3
#
#
#
# Elastic Constant Matrix: (Units=GPa)
#
#
# Indices 1 2 3 4 5 6 
#
# 1 67.6026 47.8919 28.7476 0.0000 0.0000 0.0000
# 2 47.8919 67.6028 28.7478 0.0000 0.0000 0.0000
# 3 28.7476 28.7478 73.7558 0.0000 0.0000 0.0000
# 4 0.0000 0.0000 0.0000 37.8132 0.0000 0.0000
# 5 0.0000 0.0000 0.0000 0.0000 37.8135 0.0000
# 6 0.0000 0.0000 0.0000 0.0000 0.0000 33.1426
#
#
#
# Elastic Compliance Matrix: (Units=1/GPa)
#
#
# Indices 1 2 3 4 5 6 
#
# 1 0.030738 -0.019995 -0.004187 0.000000 0.000000 0.000000
# 2 -0.019995 0.030738 -0.004187 0.000000 0.000000 0.000000
# 3 -0.004187 -0.004187 0.016822 0.000000 0.000000 0.000000
# 4 0.000000 0.000000 0.000000 0.026446 0.000000 0.000000
# 5 0.000000 0.000000 0.000000 0.000000 0.026446 0.000000
# 6 0.000000 0.000000 0.000000 0.000000 0.000000 0.030173
#
#
# Mechanical properties :
#
#
# Convention : Reuss Voigt Hill
#
# Bulk Modulus (GPa) = 46.38391 46.63729 46.51060
# Shear Modulus (GPa) = 22.19374 28.65878 25.42626
#
# Velocity S-wave (km/s) = 3.31664 3.76888 3.54997
# Velocity P-wave (km/s) = 6.13649 6.48494 6.31312
#
# Compressibility (1/GPa) = 0.02155920
#
# Stress axis : x y z
#
# Youngs Moduli (GPa) = 32.53282 32.53279 59.44472
#
# Poissons Ratio (x) = 0.65050 0.24890
# Poissons Ratio (y) = 0.65050 0.24891
# Poissons Ratio (z) = 0.13622 0.13623
#
# Static dielectric constant tensor:
#      x y z
#    x 3.656950 0.000000 0.000000 
#    y 0.000000 3.656950 0.000000 
#    z 0.000000 0.000000 3.719250 
# 
# 
# High freq. dielectric constant tensor:
#      x y z
#    x 1.789680 0.000000 0.000000 
#    y 0.000000 1.789680 0.000000 
#    z 0.000000 0.000000 1.798550 
# 
# From -- ./inp_files/3311.got.cif
#   From: 2010.03.12/outbox.cif.g09.slc.cpg/sg137_2_cif.got.tgz:3311.got - 2010.04.08 09:34:49.
