data_PCOD8318590
_publ_section_title
;
Structure prediction by ZEFSAII (Michael W. Deem and Ramdas Pophale) SiO2 
 PCOD8318590
Probable space group: P 42/N M C
;
_chemical_formula_sum "Si O2"
_cell_formula_units_Z 56
_cell_length_a 10.054532
_cell_length_b 10.054532
_cell_length_c 32.906932
_cell_angle_alpha 90.000000
_cell_angle_beta 90.000000
_cell_angle_gamma 90.000000
_cell_volume 3326.680673
_symmetry_space_group_name_H-M "P 42/N M C"
_symmetry_group_IT_number 137
_space_group.IT_coordinate_system_code '2'
_symmetry_cell_setting 'tetragonal'
loop_
_space_group_symop_operation_xyz
x,y,z
1/2-y,x,1/2+z
1/2-x,1/2-y,z
y,1/2-x,1/2+z
1/2+x,-y,-z
-x,1/2+y,-z
1/2+y,1/2+x,1/2-z
-y,-x,1/2-z
-x,-y,-z
1/2+y,-x,1/2-z
1/2+x,1/2+y,-z
-y,1/2+x,1/2-z
1/2-x,y,z
x,1/2-y,z
1/2-y,1/2-x,1/2+z
y,x,1/2+z
loop_
_atom_site_type_symbol
_atom_site_label
_atom_site_fract_x
_atom_site_fract_y
_atom_site_fract_z
Si Si1 0.750000 0.903946 0.532616
Si Si2 0.404261 0.904261 0.250000
Si Si3 0.597958 0.986544 0.092257
Si Si4 0.592066 0.405188 0.662016
Si Si5 0.099950 0.750000 0.957427
O O1 0.750000 0.750000 0.518876
O O2 0.622583 0.940316 0.559102
O O3 0.750000 0.995102 0.493341
O O4 0.433696 0.750000 0.249295
O O5 0.456212 0.961201 0.206668
O O6 0.750000 0.966411 0.107391
O O7 0.575781 0.126022 0.071269
O O8 0.498038 0.980970 0.129893
O O9 0.750000 0.424211 0.658535
O O10 0.555631 0.250000 0.654720
O O11 0.250000 0.750000 0.975526
#
# Coordination Sequence:
#
# PCOD8318590 Si02
#       5
#     8   8  16  16   8
#     4  10  20  34  52  74  98 126 170 212 244 290
#     4   7  12  24  44  72 101 122 150 202 249 288
#     4  10  20  34  51  73 100 133 165 202 249 296
#     4   9  16  28  50  77  99 124 162 202 247 293
#     4  10  22  36  50  70 100 138 166 202 250 292
#
# _framework density 16.833594999999999
#
# number of rings (size 3 to 8) (size 9 to 14) (size 15 to 20)
#    0.000    2.714    1.429    2.571    0.000    2.286 
#    0.000    0.000    3.143    0.000    0.000    0.000 
#    0.000    0.000    0.000    0.000    0.000    0.000 
#
# Total GULP energy -693883.237531 kJ/mol
# GULP energy per Si atom -12390.772099 kJ/mol
# Density = 1.679528 g / cm^3
# Si number density = 16.833595 Si / 1000 Ang^3
#
#
#
# Elastic Constant Matrix: (Units=GPa)
#
#
# Indices 1 2 3 4 5 6 
#
# 1 86.2095 35.0426 67.9986 0.0000 0.0000 0.0000
# 2 35.0426 86.2095 67.9986 0.0000 0.0000 0.0000
# 3 67.9986 67.9986 154.7256 0.0000 0.0000 0.0000
# 4 0.0000 0.0000 0.0000 11.3704 0.0000 0.0000
# 5 0.0000 0.0000 0.0000 0.0000 11.3704 0.0000
# 6 0.0000 0.0000 0.0000 0.0000 0.0000 20.7437
#
#
#
# Elastic Compliance Matrix: (Units=1/GPa)
#
#
# Indices 1 2 3 4 5 6 
#
# 1 0.017904 -0.001640 -0.007148 0.000000 0.000000 0.000000
# 2 -0.001640 0.017904 -0.007148 0.000000 0.000000 0.000000
# 3 -0.007148 -0.007148 0.012746 0.000000 0.000000 0.000000
# 4 0.000000 0.000000 0.000000 0.087947 0.000000 0.000000
# 5 0.000000 0.000000 0.000000 0.000000 0.087947 0.000000
# 6 0.000000 0.000000 0.000000 0.000000 0.000000 0.048207
#
#
# Mechanical properties :
#
#
# Convention : Reuss Voigt Hill
#
# Bulk Modulus (GPa) = 59.94106 74.35826 67.14966
# Shear Modulus (GPa) = 16.12444 19.10389 17.61417
#
# Velocity S-wave (km/s) = 3.09831 3.37243 3.23827
# Velocity P-wave (km/s) = 6.96309 7.70927 7.34566
#
# Compressibility (1/GPa) = 0.01668305
#
# Stress axis : x y z
#
# Youngs Moduli (GPa) = 55.85309 55.85309 78.45779
#
# Poissons Ratio (x) = 0.09159 0.56080
# Poissons Ratio (y) = 0.09159 0.56080
# Poissons Ratio (z) = 0.39923 0.39923
#
# Static dielectric constant tensor:
#      x y z
#    x 3.078370 0.000000 0.000000 
#    y 0.000000 3.078370 0.000000 
#    z 0.000000 0.000000 3.388930 
# 
# 
# High freq. dielectric constant tensor:
#      x y z
#    x 1.632420 0.000000 0.000000 
#    y 0.000000 1.632420 0.000000 
#    z 0.000000 0.000000 1.660460 
# 
# From -- ./inp_files/9396.got.cif
#   From: 2010.03.12/outbox.cif.g09.slc.cpg/sg137_5_cif.got.tgz:9396.got - 2010.04.08 09:34:49.
