data_PCOD8318235
_publ_section_title
;
Structure prediction by ZEFSAII (Michael W. Deem and Ramdas Pophale) SiO2 
 PCOD8318235
Probable space group: P 42/M N M
;
_chemical_formula_sum "Si O2"
_cell_formula_units_Z 96
_cell_length_a 23.882336
_cell_length_b 23.882336
_cell_length_c 8.735823
_cell_angle_alpha 90.000000
_cell_angle_beta 90.000000
_cell_angle_gamma 90.000000
_cell_volume 4982.616184
_symmetry_space_group_name_H-M "P 42/M N M"
_symmetry_group_IT_number 136
_symmetry_cell_setting 'tetragonal'
loop_
_space_group_symop_operation_xyz
x,y,z
1/2-y,1/2+x,1/2+z
-x,-y,z
1/2+y,1/2-x,1/2+z
1/2+x,1/2-y,1/2-z
1/2-x,1/2+y,1/2-z
y,x,-z
-y,-x,-z
-x,-y,-z
1/2+y,1/2-x,1/2-z
x,y,-z
1/2-y,1/2+x,1/2-z
1/2-x,1/2+y,1/2+z
1/2+x,1/2-y,1/2+z
-y,-x,z
y,x,z
loop_
_atom_site_type_symbol
_atom_site_label
_atom_site_fract_x
_atom_site_fract_y
_atom_site_fract_z
Si Si1 0.206970 0.982404 0.322047
Si Si2 0.588626 0.500340 0.319121
Si Si3 0.029132 0.420668 0.182012
Si Si4 0.934764 0.695776 0.318351
Si Si5 0.311756 0.774971 0.181557
Si Si6 0.633622 0.725314 0.674101
O O1 0.197523 0.989778 0.500000
O O2 0.150793 0.003525 0.243298
O O3 0.221098 0.918843 0.284472
O O4 0.258774 0.019897 0.266329
O O5 0.591673 0.502399 0.500000
O O6 0.554447 0.445553 0.264454
O O7 0.556141 0.556141 0.260180
O O8 0.071364 0.468102 0.243287
O O9 0.053408 0.361085 0.229204
O O10 0.024116 0.425371 0.000000
O O11 0.935439 0.684423 0.500000
O O12 0.875096 0.719822 0.260873
O O13 0.281822 0.718179 0.245287
O O14 0.276606 0.829004 0.236152
O O15 0.309224 0.773273 0.000000
O O16 0.613410 0.735778 0.500000
O O17 0.667709 0.667709 0.682523
#
# Coordination Sequence:
#
# PCOD8318235 Si02
#       6
#    16  16  16  16  16  16
#     4  11  23  34  50  82 120 148 179 229 285 340
#     4   9  19  37  59  80 106 146 195 242 285 337
#     4  11  23  41  64  88 116 150 191 238 290 344
#     4  10  22  38  56  85 120 154 192 233 281 339
#     4   8  16  34  59  81 103 141 191 233 271 323
#     4   9  18  34  57  81 103 137 189 237 275 326
#
# _framework density 19.266988000000001
#
# number of rings (size 3 to 8) (size 9 to 14) (size 15 to 20)
#    0.000    2.333    0.000    4.500    2.333    5.000 
#    0.000    2.500    0.000    1.500    0.000    0.000 
#    0.000    0.000    0.000    0.000    0.000    0.000 
#
# Total GULP energy -1190371.564933 kJ/mol
# GULP energy per Si atom -12399.703801 kJ/mol
# Density = 1.922314 g / cm^3
# Si number density = 19.266988 Si / 1000 Ang^3
#
#
#
# Elastic Constant Matrix: (Units=GPa)
#
#
# Indices 1 2 3 4 5 6 
#
# 1 108.9551 72.8810 27.3343 0.0000 0.0000 0.0000
# 2 72.8810 108.9551 27.3343 0.0000 0.0000 0.0000
# 3 27.3343 27.3343 49.7526 0.0000 0.0000 0.0000
# 4 0.0000 0.0000 0.0000 20.7601 0.0000 0.0000
# 5 0.0000 0.0000 0.0000 0.0000 20.7601 0.0000
# 6 0.0000 0.0000 0.0000 0.0000 0.0000 22.1359
#
#
#
# Elastic Compliance Matrix: (Units=1/GPa)
#
#
# Indices 1 2 3 4 5 6 
#
# 1 0.017154 -0.010567 -0.003619 0.000000 0.000000 0.000000
# 2 -0.010567 0.017154 -0.003619 0.000000 0.000000 0.000000
# 3 -0.003619 -0.003619 0.024076 0.000000 0.000000 0.000000
# 4 0.000000 0.000000 0.000000 0.048169 0.000000 0.000000
# 5 0.000000 0.000000 0.000000 0.000000 0.048169 0.000000
# 6 0.000000 0.000000 0.000000 0.000000 0.000000 0.045175
#
#
# Mechanical properties :
#
#
# Convention : Reuss Voigt Hill
#
# Bulk Modulus (GPa) = 43.90878 58.08466 50.99672
# Shear Modulus (GPa) = 20.56762 22.07209 21.31985
#
# Velocity S-wave (km/s) = 3.27082 3.38833 3.33009
# Velocity P-wave (km/s) = 6.09126 6.74688 6.42743
#
# Compressibility (1/GPa) = 0.02277449
#
# Stress axis : x y z
#
# Youngs Moduli (GPa) = 58.29484 58.29484 41.53462
#
# Poissons Ratio (x) = 0.61598 0.15032
# Poissons Ratio (y) = 0.61598 0.15032
# Poissons Ratio (z) = 0.21098 0.21098
#
# Static dielectric constant tensor:
#      x y z
#    x 3.841430 0.000000 0.000000 
#    y 0.000000 3.841430 0.000000 
#    z 0.000000 0.000000 3.257680 
# 
# 
# High freq. dielectric constant tensor:
#      x y z
#    x 1.757350 0.000000 0.000000 
#    y 0.000000 1.757350 0.000000 
#    z 0.000000 0.000000 1.727120 
# 
# From -- ./inp_files/2020.got.cif
#   From: 2010.03.12/outbox.cif.g09.slc.cpg/sg136_2_cif.got.tgz:2020.got - 2010.04.06 18:39:43.
