data_PCOD8318125
_publ_section_title
;
Structure prediction by ZEFSAII (Michael W. Deem and Ramdas Pophale) SiO2 
 PCOD8318125
Probable space group: P 42/M N M
;
_chemical_formula_sum "Si O2"
_cell_formula_units_Z 96
_cell_length_a 23.480255
_cell_length_b 23.480255
_cell_length_c 8.957581
_cell_angle_alpha 90.000000
_cell_angle_beta 90.000000
_cell_angle_gamma 90.000000
_cell_volume 4938.514830
_symmetry_space_group_name_H-M "P 42/M N M"
_symmetry_group_IT_number 136
_symmetry_cell_setting 'tetragonal'
loop_
_space_group_symop_operation_xyz
x,y,z
1/2-y,1/2+x,1/2+z
-x,-y,z
1/2+y,1/2-x,1/2+z
1/2+x,1/2-y,1/2-z
1/2-x,1/2+y,1/2-z
y,x,-z
-y,-x,-z
-x,-y,-z
1/2+y,1/2-x,1/2-z
x,y,-z
1/2-y,1/2+x,1/2-z
1/2-x,1/2+y,1/2+z
1/2+x,1/2-y,1/2+z
-y,-x,z
y,x,z
loop_
_atom_site_type_symbol
_atom_site_label
_atom_site_fract_x
_atom_site_fract_y
_atom_site_fract_z
Si Si1 0.293303 0.169577 0.825119
Si Si2 0.693837 0.395793 0.829274
Si Si3 0.000081 0.644612 0.164074
Si Si4 0.228730 0.862610 0.828202
Si Si5 0.380013 0.099375 0.331853
Si Si6 0.507853 0.725311 0.669600
O O1 0.233569 0.150933 0.753584
O O2 0.322420 0.225979 0.756174
O O3 0.334574 0.117060 0.792218
O O4 0.284423 0.179662 0.000000
O O5 0.630021 0.369980 0.820655
O O6 0.690704 0.459764 0.760803
O O7 0.714873 0.400986 0.000000
O O8 0.966447 0.608097 0.289091
O O9 0.066626 0.639324 0.193936
O O10 0.985194 0.710614 0.176274
O O11 0.986019 0.619954 0.000000
O O12 0.167134 0.832867 0.815439
O O13 0.221900 0.927312 0.763609
O O14 0.249653 0.866913 0.000000
O O15 0.356553 0.104153 0.500000
O O16 0.508670 0.702173 0.500000
#
# Coordination Sequence:
#
# PCOD8318125 Si02
#       6
#    16  16  16  16  16  16
#     4  12  23  35  56  86 119 151 187 234 284 334
#     4  11  24  40  59  85 116 151 191 232 281 340
#     4  10  21  37  55  79 110 145 190 240 282 325
#     4  10  21  39  62  87 118 153 188 229 280 339
#     4  11  22  37  57  78 109 150 193 236 281 334
#     4  10  20  37  60  86 115 147 185 230 281 336
#
# _framework density 19.439043000000002
#
# number of rings (size 3 to 8) (size 9 to 14) (size 15 to 20)
#    0.000    1.333    3.333    3.000    0.000    6.000 
#    0.000    1.667    0.000    0.500    0.000    3.500 
#    0.000    0.000    0.000    0.000    0.000    0.000 
#
# Total GULP energy -1189703.802870 kJ/mol
# GULP energy per Si atom -12392.747947 kJ/mol
# Density = 1.939480 g / cm^3
# Si number density = 19.439043 Si / 1000 Ang^3
#
#
#
# Elastic Constant Matrix: (Units=GPa)
#
#
# Indices 1 2 3 4 5 6 
#
# 1 76.9116 41.8125 38.2980 0.0000 0.0000 0.0000
# 2 41.8125 76.9116 38.2980 0.0000 0.0000 0.0000
# 3 38.2980 38.2980 92.0344 0.0000 0.0000 0.0000
# 4 0.0000 0.0000 0.0000 24.5399 0.0000 0.0000
# 5 0.0000 0.0000 0.0000 0.0000 24.5399 0.0000
# 6 0.0000 0.0000 0.0000 0.0000 0.0000 25.4847
#
#
#
# Elastic Compliance Matrix: (Units=1/GPa)
#
#
# Indices 1 2 3 4 5 6 
#
# 1 0.020002 -0.008488 -0.004791 0.000000 0.000000 0.000000
# 2 -0.008488 0.020002 -0.004791 0.000000 0.000000 0.000000
# 3 -0.004791 -0.004791 0.014853 0.000000 0.000000 0.000000
# 4 0.000000 0.000000 0.000000 0.040750 0.000000 0.000000
# 5 0.000000 0.000000 0.000000 0.000000 0.040750 0.000000
# 6 0.000000 0.000000 0.000000 0.000000 0.000000 0.039239
#
#
# Mechanical properties :
#
#
# Convention : Reuss Voigt Hill
#
# Bulk Modulus (GPa) = 53.43035 53.63051 53.53043
# Shear Modulus (GPa) = 22.93814 23.40952 23.17383
#
# Velocity S-wave (km/s) = 3.43884 3.47400 3.45647
# Velocity P-wave (km/s) = 6.58128 6.61366 6.59749
#
# Compressibility (1/GPa) = 0.01871596
#
# Stress axis : x y z
#
# Youngs Moduli (GPa) = 49.99402 49.99402 67.32618
#
# Poissons Ratio (x) = 0.42437 0.32258
# Poissons Ratio (y) = 0.42437 0.32258
# Poissons Ratio (z) = 0.23954 0.23954
#
# Static dielectric constant tensor:
#      x y z
#    x 3.529720 0.000000 0.000000 
#    y 0.000000 3.529720 0.000000 
#    z 0.000000 0.000000 3.527720 
# 
# 
# High freq. dielectric constant tensor:
#      x y z
#    x 1.748320 0.000000 0.000000 
#    y 0.000000 1.748320 0.000000 
#    z 0.000000 0.000000 1.752500 
# 
# From -- ./inp_files/2017.got.cif
#   From: 2010.03.12/outbox.cif.g09.slc.cpg/sg136_2_cif.got.tgz:2017.got - 2010.04.06 18:39:43.
