data_PCOD8318077
_publ_section_title
;
Structure prediction by ZEFSAII (Michael W. Deem and Ramdas Pophale) SiO2 
 PCOD8318077
Probable space group: P 42/M N M
;
_chemical_formula_sum "Si O2"
_cell_formula_units_Z 112
_cell_length_a 14.551742
_cell_length_b 14.551742
_cell_length_c 26.537305
_cell_angle_alpha 90.000000
_cell_angle_beta 90.000000
_cell_angle_gamma 90.000000
_cell_volume 5619.359127
_symmetry_space_group_name_H-M "P 42/M N M"
_symmetry_group_IT_number 136
_symmetry_cell_setting 'tetragonal'
loop_
_space_group_symop_operation_xyz
x,y,z
1/2-y,1/2+x,1/2+z
-x,-y,z
1/2+y,1/2-x,1/2+z
1/2+x,1/2-y,1/2-z
1/2-x,1/2+y,1/2-z
y,x,-z
-y,-x,-z
-x,-y,-z
1/2+y,1/2-x,1/2-z
x,y,-z
1/2-y,1/2+x,1/2-z
1/2-x,1/2+y,1/2+z
1/2+x,1/2-y,1/2+z
-y,-x,z
y,x,z
loop_
_atom_site_type_symbol
_atom_site_label
_atom_site_fract_x
_atom_site_fract_y
_atom_site_fract_z
Si Si1 0.242716 0.907932 0.555953
Si Si2 0.871407 0.571754 0.247891
Si Si3 0.082474 0.235553 0.386495
Si Si4 0.341521 0.199520 0.843700
Si Si5 0.305109 0.547846 0.319776
Si Si6 0.499094 0.348556 0.790250
Si Si7 0.630647 0.782425 0.654080
O O1 0.284201 0.892047 0.500000
O O2 0.145393 0.854608 0.560624
O O3 0.315911 0.872881 0.598312
O O4 0.230856 0.017030 0.564556
O O5 0.884500 0.468961 0.268029
O O6 0.807797 0.576134 0.197459
O O7 0.828767 0.633258 0.291402
O O8 0.156227 0.156227 0.392430
O O9 0.134737 0.335532 0.383173
O O10 0.014761 0.217148 0.338763
O O11 0.302255 0.302255 0.838925
O O12 0.264195 0.129560 0.827375
O O13 0.409025 0.590976 0.329331
O O14 0.294627 0.502764 0.263736
O O15 0.270551 0.466293 0.357845
O O16 0.583998 0.416003 0.787688
O O17 0.403706 0.403706 0.795217
O O18 0.706968 0.706968 0.652903
#
# Coordination Sequence:
#
# PCOD8318077 Si02
#       7
#    16  16  16  16  16  16  16
#     4  10  22  39  61  88 112 143 191 239 286 346
#     4  11  21  33  50  79 113 156 195 227 270 341
#     4  10  21  36  54  80 117 157 191 232 286 342
#     4  10  20  36  56  76 109 148 186 236 288 337
#     4  10  20  35  54  79 111 152 197 239 285 338
#     4   9  17  30  48  74 111 151 190 226 267 332
#     4  11  22  35  52  79 117 155 196 237 280 342
#
# _framework density 19.931100000000001
#
# number of rings (size 3 to 8) (size 9 to 14) (size 15 to 20)
#    0.000    1.857    1.429    3.000    2.000    4.286 
#    0.000    0.714    0.000    1.714    0.000    0.000 
#    0.000    1.714    0.000   28.714    0.000    0.000 
#
# Total GULP energy -1387557.265792 kJ/mol
# GULP energy per Si atom -12388.904159 kJ/mol
# Density = 1.988574 g / cm^3
# Si number density = 19.931100 Si / 1000 Ang^3
#
#
#
# Elastic Constant Matrix: (Units=GPa)
#
#
# Indices 1 2 3 4 5 6 
#
# 1 52.0019 21.0330 29.3830 0.0000 0.0000 0.0000
# 2 21.0330 52.0019 29.3830 0.0000 0.0000 0.0000
# 3 29.3830 29.3830 90.1680 0.0000 0.0000 0.0000
# 4 0.0000 0.0000 0.0000 22.6319 0.0000 0.0000
# 5 0.0000 0.0000 0.0000 0.0000 22.6319 0.0000
# 6 0.0000 0.0000 0.0000 0.0000 0.0000 0.2881
#
#
#
# Elastic Compliance Matrix: (Units=1/GPa)
#
#
# Indices 1 2 3 4 5 6 
#
# 1 0.025424 -0.006866 -0.006048 0.000000 0.000000 0.000000
# 2 -0.006866 0.025424 -0.006048 0.000000 0.000000 0.000000
# 3 -0.006048 -0.006048 0.015032 0.000000 0.000000 0.000000
# 4 0.000000 0.000000 0.000000 0.044186 0.000000 0.000000
# 5 0.000000 0.000000 0.000000 0.000000 0.044186 0.000000
# 6 0.000000 0.000000 0.000000 0.000000 0.000000 3.471070
#
#
# Mechanical properties :
#
#
# Convention : Reuss Voigt Hill
#
# Bulk Modulus (GPa) = 35.76800 39.30776 37.53788
# Shear Modulus (GPa) = 1.36145 16.73521 9.04833
#
# Velocity S-wave (km/s) = 0.82738 2.90082 2.13299
# Velocity P-wave (km/s) = 4.34713 5.56636 4.99409
#
# Compressibility (1/GPa) = 0.02795795
#
# Stress axis : x y z
#
# Youngs Moduli (GPa) = 39.33246 39.33246 66.52550
#
# Poissons Ratio (x) = 0.27006 0.40232
# Poissons Ratio (y) = 0.27006 0.40232
# Poissons Ratio (z) = 0.23786 0.23786
#
# Static dielectric constant tensor:
#      x y z
#    x 4.544590 0.000000 0.000000 
#    y 0.000000 4.544590 0.000000 
#    z 0.000000 0.000000 3.354780 
# 
# 
# High freq. dielectric constant tensor:
#      x y z
#    x 1.795600 0.000000 0.000000 
#    y 0.000000 1.795600 0.000000 
#    z 0.000000 0.000000 1.719520 
# 
# From -- ./inp_files/8490.got.cif
#   From: 2010.03.12/outbox.cif.g09.slc.cpg/sg136_5_cif.got.tgz:8490.got - 2010.04.06 18:39:43.
