data_PCOD8318681
_publ_section_title
;
Structure prediction by ZEFSAII (Michael W. Deem and Ramdas Pophale) SiO2 
 PCOD8318681
Probable space group: P 42/N M C
;
_chemical_formula_sum "Si O2"
_cell_formula_units_Z 80
_cell_length_a 14.098224
_cell_length_b 14.098224
_cell_length_c 20.085286
_cell_angle_alpha 90.000000
_cell_angle_beta 90.000000
_cell_angle_gamma 90.000000
_cell_volume 3992.149838
_symmetry_space_group_name_H-M "P 42/N M C"
_symmetry_group_IT_number 137
_space_group.IT_coordinate_system_code '2'
_symmetry_cell_setting 'tetragonal'
loop_
_space_group_symop_operation_xyz
x,y,z
1/2-y,x,1/2+z
1/2-x,1/2-y,z
y,1/2-x,1/2+z
1/2+x,-y,-z
-x,1/2+y,-z
1/2+y,1/2+x,1/2-z
-y,-x,1/2-z
-x,-y,-z
1/2+y,-x,1/2-z
1/2+x,1/2+y,-z
-y,1/2+x,1/2-z
1/2-x,y,z
x,1/2-y,z
1/2-y,1/2-x,1/2+z
y,x,1/2+z
loop_
_atom_site_type_symbol
_atom_site_label
_atom_site_fract_x
_atom_site_fract_y
_atom_site_fract_z
Si Si1 0.859331 0.140347 0.928850
Si Si2 0.357682 0.071658 0.882391
Si Si3 0.955086 0.522694 0.864134
Si Si4 0.642944 0.959904 0.490010
Si Si5 0.644129 0.856309 0.760207
O O1 0.750000 0.115973 0.947788
O O2 0.868817 0.250000 0.907350
O O3 0.930383 0.117828 0.990746
O O4 0.897751 0.077254 0.867117
O O5 0.250000 0.033158 0.891232
O O6 0.390222 0.128087 0.947663
O O7 0.365035 0.141509 0.819440
O O8 0.430807 0.986188 0.867419
O O9 0.929299 0.573183 0.795337
O O10 0.922487 0.580831 0.929051
O O11 0.750000 0.952799 0.465844
O O12 0.750000 0.881508 0.784036
O O13 0.616740 0.750000 0.782020
#
# Coordination Sequence:
#
# PCOD8318681 Si02
#       5
#    16  16  16  16  16
#     4   9  18  33  52  75 106 141 174 213 267 331
#     4  10  21  37  56  78 109 150 188 220 265 327
#     4  11  21  35  56  83 111 139 179 230 277 318
#     4  10  21  35  54  81 109 138 178 227 272 319
#     4  10  21  37  57  81 110 144 181 225 278 329
#
# _framework density 20.039328999999999
#
# number of rings (size 3 to 8) (size 9 to 14) (size 15 to 20)
#    0.000    2.000    0.000    4.800    0.000    6.000 
#    0.000    0.000    0.000    3.000    0.000   16.800 
#    0.000    0.000    0.000    0.000    0.000    0.000 
#
# Total GULP energy -991741.857024 kJ/mol
# GULP energy per Si atom -12396.773213 kJ/mol
# Density = 1.999372 g / cm^3
# Si number density = 20.039329 Si / 1000 Ang^3
#
#
#
# Elastic Constant Matrix: (Units=GPa)
#
#
# Indices 1 2 3 4 5 6 
#
# 1 97.4176 28.4772 30.5859 0.0000 0.0000 0.0000
# 2 28.4772 97.4176 30.5859 0.0000 0.0000 0.0000
# 3 30.5859 30.5859 70.4362 0.0000 0.0000 0.0000
# 4 0.0000 0.0000 0.0000 24.2224 0.0000 0.0000
# 5 0.0000 0.0000 0.0000 0.0000 24.2224 0.0000
# 6 0.0000 0.0000 0.0000 0.0000 0.0000 28.1871
#
#
#
# Elastic Compliance Matrix: (Units=1/GPa)
#
#
# Indices 1 2 3 4 5 6 
#
# 1 0.012286 -0.002219 -0.004372 0.000000 0.000000 0.000000
# 2 -0.002219 0.012286 -0.004372 0.000000 0.000000 0.000000
# 3 -0.004372 -0.004372 0.017994 0.000000 0.000000 0.000000
# 4 0.000000 0.000000 0.000000 0.041284 0.000000 0.000000
# 5 0.000000 0.000000 0.000000 0.000000 0.041284 0.000000
# 6 0.000000 0.000000 0.000000 0.000000 0.000000 0.035477
#
#
# Mechanical properties :
#
#
# Convention : Reuss Voigt Hill
#
# Bulk Modulus (GPa) = 48.44471 49.39662 48.92066
# Shear Modulus (GPa) = 26.39683 27.03455 26.71569
#
# Velocity S-wave (km/s) = 3.63333 3.67696 3.65521
# Velocity P-wave (km/s) = 6.46752 6.53682 6.50226
#
# Compressibility (1/GPa) = 0.02064209
#
# Stress axis : x y z
#
# Youngs Moduli (GPa) = 81.39162 81.39162 55.57459
#
# Poissons Ratio (x) = 0.18061 0.24295
# Poissons Ratio (y) = 0.18061 0.24295
# Poissons Ratio (z) = 0.35581 0.35581
#
# Static dielectric constant tensor:
#      x y z
#    x 3.742020 0.000000 0.000000 
#    y 0.000000 3.742020 0.000000 
#    z 0.000000 0.000000 3.386890 
# 
# 
# High freq. dielectric constant tensor:
#      x y z
#    x 1.782720 0.000000 0.000000 
#    y 0.000000 1.782720 0.000000 
#    z 0.000000 0.000000 1.766810 
# 
# From -- ./inp_files/7579.got.cif
#   From: 2010.03.12/outbox.cif.g09.slc.cpg/sg137_4_cif.got.tgz:7579.got - 2010.04.08 09:34:49.
