data_PCOD8318767
_publ_section_title
;
Structure prediction by ZEFSAII (Michael W. Deem and Ramdas Pophale) SiO2 
 PCOD8318767
Probable space group: P 42/N M C
;
_chemical_formula_sum "Si O2"
_cell_formula_units_Z 56
_cell_length_a 11.781740
_cell_length_b 11.781740
_cell_length_c 20.290741
_cell_angle_alpha 90.000000
_cell_angle_beta 90.000000
_cell_angle_gamma 90.000000
_cell_volume 2816.545532
_symmetry_space_group_name_H-M "P 42/N M C"
_symmetry_group_IT_number 137
_space_group.IT_coordinate_system_code '2'
_symmetry_cell_setting 'tetragonal'
loop_
_space_group_symop_operation_xyz
x,y,z
1/2-y,x,1/2+z
1/2-x,1/2-y,z
y,1/2-x,1/2+z
1/2+x,-y,-z
-x,1/2+y,-z
1/2+y,1/2+x,1/2-z
-y,-x,1/2-z
-x,-y,-z
1/2+y,-x,1/2-z
1/2+x,1/2+y,-z
-y,1/2+x,1/2-z
1/2-x,y,z
x,1/2-y,z
1/2-y,1/2-x,1/2+z
y,x,1/2+z
loop_
_atom_site_type_symbol
_atom_site_label
_atom_site_fract_x
_atom_site_fract_y
_atom_site_fract_z
Si Si1 0.005515 0.377031 0.808039
Si Si2 0.118649 0.750000 0.625568
Si Si3 0.115860 0.250000 0.123283
Si Si4 0.750000 0.564686 0.229404
Si Si5 0.487651 0.540846 0.926348
O O1 0.955529 0.250000 0.812111
O O2 0.139353 0.367293 0.793694
O O3 0.982153 0.438357 0.877129
O O4 0.945438 0.445438 0.750000
O O5 0.250000 0.750000 0.640331
O O6 0.084400 0.860121 0.583908
O O7 0.059751 0.750000 0.697057
O O8 0.250000 0.250000 0.135978
O O9 0.048039 0.250000 0.192200
O O10 0.079899 0.360560 0.083049
O O11 0.500000 0.500000 0.000000
#
# Coordination Sequence:
#
# PCOD8318767 Si02
#       5
#    16   8   8   8  16
#     4  11  23  41  65  94 129 170 218 269 322 389
#     4  10  22  44  70 102 136 168 223 281 336 388
#     4  12  24  43  71  94 129 175 218 267 332 408
#     4  10  22  42  66 101 130 166 215 273 333 393
#     4  11  26  44  66  97 132 175 218 269 331 393
#
# _framework density 19.882511999999998
#
# number of rings (size 3 to 8) (size 9 to 14) (size 15 to 20)
#    0.000    1.143    4.286    1.286    4.000    0.286 
#    2.571    0.000    0.000    0.000    0.000    0.000 
#    0.000    0.000    0.000    0.000    0.000    0.000 
#
# Total GULP energy -694679.706355 kJ/mol
# GULP energy per Si atom -12404.994756 kJ/mol
# Density = 1.983726 g / cm^3
# Si number density = 19.882512 Si / 1000 Ang^3
#
#
#
# Elastic Constant Matrix: (Units=GPa)
#
#
# Indices 1 2 3 4 5 6 
#
# 1 132.9082 56.2417 65.9437 0.0000 0.0000 0.0000
# 2 56.2417 132.9082 65.9437 0.0000 0.0000 0.0000
# 3 65.9437 65.9437 187.0668 0.0000 0.0000 0.0000
# 4 0.0000 0.0000 0.0000 19.2765 0.0000 0.0000
# 5 0.0000 0.0000 0.0000 0.0000 19.2765 0.0000
# 6 0.0000 0.0000 0.0000 0.0000 0.0000 16.0188
#
#
#
# Elastic Compliance Matrix: (Units=1/GPa)
#
#
# Indices 1 2 3 4 5 6 
#
# 1 0.010027 -0.003017 -0.002471 0.000000 0.000000 0.000000
# 2 -0.003017 0.010027 -0.002471 0.000000 0.000000 0.000000
# 3 -0.002471 -0.002471 0.007088 0.000000 0.000000 0.000000
# 4 0.000000 0.000000 0.000000 0.051877 0.000000 0.000000
# 5 0.000000 0.000000 0.000000 0.000000 0.051877 0.000000
# 6 0.000000 0.000000 0.000000 0.000000 0.000000 0.062427
#
#
# Mechanical properties :
#
#
# Convention : Reuss Voigt Hill
#
# Bulk Modulus (GPa) = 89.10101 92.12683 90.61392
# Shear Modulus (GPa) = 23.47638 28.56463 26.02051
#
# Velocity S-wave (km/s) = 3.43994 3.79446 3.62154
# Velocity P-wave (km/s) = 7.79029 8.10144 7.94739
#
# Compressibility (1/GPa) = 0.01122322
#
# Stress axis : x y z
#
# Youngs Moduli (GPa) = 99.73424 99.73424 141.08664
#
# Poissons Ratio (x) = 0.30088 0.34863
# Poissons Ratio (y) = 0.30088 0.34863
# Poissons Ratio (z) = 0.24645 0.24645
#
# Static dielectric constant tensor:
#      x y z
#    x -1.893460 0.000000 0.000000 
#    y 0.000000 -1.893460 0.000000 
#    z 0.000000 0.000000 3.494240 
# 
# 
# High freq. dielectric constant tensor:
#      x y z
#    x 1.783400 0.000000 0.000000 
#    y 0.000000 1.783400 0.000000 
#    z 0.000000 0.000000 1.772630 
# 
# From -- ./inp_files/7249.got.cif
#   From: 2010.03.12/outbox.cif.g09.slc.cpg/sg137_4_cif.got.tgz:7249.got - 2010.04.08 09:34:49.
