data_PCOD8318679
_publ_section_title
;
Structure prediction by ZEFSAII (Michael W. Deem and Ramdas Pophale) SiO2 
 PCOD8318679
Probable space group: P 42/N M C
;
_chemical_formula_sum "Si O2"
_cell_formula_units_Z 42
_cell_length_a 7.943186
_cell_length_b 7.943186
_cell_length_c 31.546503
_cell_angle_alpha 90.000000
_cell_angle_beta 90.000000
_cell_angle_gamma 90.000000
_cell_volume 1990.401490
_symmetry_space_group_name_H-M "P 42/N M C"
_symmetry_group_IT_number 137
_space_group.IT_coordinate_system_code '2'
_symmetry_cell_setting 'tetragonal'
loop_
_space_group_symop_operation_xyz
x,y,z
1/2-y,x,1/2+z
1/2-x,1/2-y,z
y,1/2-x,1/2+z
1/2+x,-y,-z
-x,1/2+y,-z
1/2+y,1/2+x,1/2-z
-y,-x,1/2-z
-x,-y,-z
1/2+y,-x,1/2-z
1/2+x,1/2+y,-z
-y,1/2+x,1/2-z
1/2-x,y,z
x,1/2-y,z
1/2-y,1/2-x,1/2+z
y,x,1/2+z
loop_
_atom_site_type_symbol
_atom_site_label
_atom_site_fract_x
_atom_site_fract_y
_atom_site_fract_z
Si Si1 0.750000 0.937999 0.312443
Si Si2 0.932523 0.053604 0.955036
Si Si3 0.556427 0.941537 0.634111
Si Si4 0.250000 0.750000 0.750000
O O1 0.750000 0.750000 0.292342
O O2 0.578659 0.951385 0.339757
O O3 0.750000 0.079080 0.276655
O O4 0.750000 0.968996 0.947643
O O5 0.912533 0.250000 0.956346
O O6 0.050852 0.004040 0.915538
O O7 0.000000 0.000000 0.000000
O O8 0.750000 0.007428 0.641028
O O9 0.542363 0.750000 0.649392
#
# Coordination Sequence:
#
# PCOD8318679 Si02
#       4
#     8  16  16   2
#     4  12  26  46  76 104 136 180 220 280 352 418
#     4  10  21  35  53  84 126 174 228 280 328 393
#     4  10  21  41  68  97 134 178 227 282 341 407
#     4  12  28  52  68 112 140 164 236 284 344 428
#
# _framework density 21.10127
#
# number of rings (size 3 to 8) (size 9 to 14) (size 15 to 20)
#    0.000    1.524    1.905    2.286    2.667    6.095 
#    0.000    0.000    0.000    0.000    0.000    0.000 
#    0.000    0.000    0.000    0.000    0.000    0.000 
#
# Total GULP energy -520497.202079 kJ/mol
# GULP energy per Si atom -12392.790526 kJ/mol
# Density = 2.105324 g / cm^3
# Si number density = 21.101270 Si / 1000 Ang^3
#
#
#
# Elastic Constant Matrix: (Units=GPa)
#
#
# Indices 1 2 3 4 5 6 
#
# 1 117.5251 44.9069 50.1772 0.0000 0.0000 0.0000
# 2 44.9069 117.5251 50.1772 0.0000 0.0000 0.0000
# 3 50.1772 50.1772 112.9950 0.0000 0.0000 0.0000
# 4 0.0000 0.0000 0.0000 29.5600 0.0000 0.0000
# 5 0.0000 0.0000 0.0000 0.0000 29.5600 0.0000
# 6 0.0000 0.0000 0.0000 0.0000 0.0000 21.1665
#
#
#
# Elastic Compliance Matrix: (Units=1/GPa)
#
#
# Indices 1 2 3 4 5 6 
#
# 1 0.011127 -0.002643 -0.003767 0.000000 0.000000 0.000000
# 2 -0.002643 0.011127 -0.003767 0.000000 0.000000 0.000000
# 3 -0.003767 -0.003767 0.012196 0.000000 0.000000 0.000000
# 4 0.000000 0.000000 0.000000 0.033830 0.000000 0.000000
# 5 0.000000 0.000000 0.000000 0.000000 0.033830 0.000000
# 6 0.000000 0.000000 0.000000 0.000000 0.000000 0.047244
#
#
# Mechanical properties :
#
#
# Convention : Reuss Voigt Hill
#
# Bulk Modulus (GPa) = 70.95132 70.95197 70.95165
# Shear Modulus (GPa) = 28.66828 29.57622 29.12225
#
# Velocity S-wave (km/s) = 3.68992 3.74790 3.71902
# Velocity P-wave (km/s) = 7.20078 7.24061 7.22073
#
# Compressibility (1/GPa) = 0.01409417
#
# Stress axis : x y z
#
# Youngs Moduli (GPa) = 89.86860 89.86860 81.99439
#
# Poissons Ratio (x) = 0.23755 0.30891
# Poissons Ratio (y) = 0.23755 0.30891
# Poissons Ratio (z) = 0.33858 0.33858
#
# Static dielectric constant tensor:
#      x y z
#    x 4.084110 0.000000 0.000000 
#    y 0.000000 4.084110 0.000000 
#    z 0.000000 0.000000 3.654130 
# 
# 
# High freq. dielectric constant tensor:
#      x y z
#    x 1.832530 0.000000 0.000000 
#    y 0.000000 1.832530 0.000000 
#    z 0.000000 0.000000 1.813210 
# 
# From -- ./inp_files/9324.got.cif
#   From: 2010.03.12/outbox.cif.g09.slc.cpg/sg137_5_cif.got.tgz:9324.got - 2010.04.08 09:34:49.
