data_PCOD8318033
_publ_section_title
;
Structure prediction by ZEFSAII (Michael W. Deem and Ramdas Pophale) SiO2 
 PCOD8318033
Probable space group: P 42/M N M
;
_chemical_formula_sum "Si O2"
_cell_formula_units_Z 72
_cell_length_a 20.496860
_cell_length_b 20.496860
_cell_length_c 10.309751
_cell_angle_alpha 90.000000
_cell_angle_beta 90.000000
_cell_angle_gamma 90.000000
_cell_volume 4331.345682
_symmetry_space_group_name_H-M "P 42/M N M"
_symmetry_group_IT_number 136
_symmetry_cell_setting 'tetragonal'
loop_
_space_group_symop_operation_xyz
x,y,z
1/2-y,1/2+x,1/2+z
-x,-y,z
1/2+y,1/2-x,1/2+z
1/2+x,1/2-y,1/2-z
1/2-x,1/2+y,1/2-z
y,x,-z
-y,-x,-z
-x,-y,-z
1/2+y,1/2-x,1/2-z
x,y,-z
1/2-y,1/2+x,1/2-z
1/2-x,1/2+y,1/2+z
1/2+x,1/2-y,1/2+z
-y,-x,z
y,x,z
loop_
_atom_site_type_symbol
_atom_site_label
_atom_site_fract_x
_atom_site_fract_y
_atom_site_fract_z
Si Si1 0.877920 0.231868 0.261823
Si Si2 0.615137 0.274271 0.000000
Si Si3 0.788691 0.899811 0.000000
Si Si4 0.553951 0.446050 0.854574
Si Si5 0.314777 0.206239 0.000000
Si Si6 0.719876 0.171355 0.000000
Si Si7 0.308465 0.525987 0.763399
O O1 0.833227 0.166774 0.266984
O O2 0.858087 0.283411 0.372239
O O3 0.872782 0.269353 0.125980
O O4 0.952610 0.214432 0.284133
O O5 0.571889 0.276771 0.128543
O O6 0.668332 0.331669 0.000000
O O7 0.648333 0.203081 0.000000
O O8 0.790569 0.946402 0.123621
O O9 0.848276 0.848276 0.000000
O O10 0.718222 0.864788 0.000000
O O11 0.500000 0.500000 0.865749
O O12 0.613910 0.475289 0.776217
O O13 0.576028 0.423973 0.000000
O O14 0.257287 0.257287 0.000000
O O15 0.770439 0.229562 0.000000
#
# Coordination Sequence:
#
# PCOD8318033 Si02
#       7
#    16   8   8   8   8   8  16
#     4  10  20  34  50  73 103 138 172 207 256 300
#     4  11  19  34  54  74  99 132 182 217 256 293
#     4  11  21  34  52  74 109 134 172 219 272 309
#     4  11  22  35  49  73 107 153 189 209 233 286
#     4   9  19  34  52  73  96 135 171 219 270 307
#     4   9  19  34  52  69  96 135 171 215 260 307
#     4  12  20  34  51  78 105 139 178 214 250 306
#
# _framework density 16.623010000000001
#
# number of rings (size 3 to 8) (size 9 to 14) (size 15 to 20)
#    0.000    1.444    3.333    3.333    0.000    3.556 
#    0.000    2.222    0.000    0.000    0.000    0.000 
#    0.000   62.222    0.000    0.000    0.000    0.000 
#
# Total GULP energy -892876.698346 kJ/mol
# GULP energy per Si atom -12401.065255 kJ/mol
# Density = 1.658518 g / cm^3
# Si number density = 16.623010 Si / 1000 Ang^3
#
#
#
# Elastic Constant Matrix: (Units=GPa)
#
#
# Indices 1 2 3 4 5 6 
#
# 1 91.5951 35.5104 39.7336 0.0000 0.0000 0.0000
# 2 35.5104 91.5960 39.7337 0.0000 0.0000 0.0000
# 3 39.7336 39.7337 140.5653 0.0000 0.0000 0.0000
# 4 0.0000 0.0000 0.0000 14.4966 0.0000 0.0000
# 5 0.0000 0.0000 0.0000 0.0000 14.4971 0.0000
# 6 0.0000 0.0000 0.0000 0.0000 0.0000 28.1787
#
#
#
# Elastic Compliance Matrix: (Units=1/GPa)
#
#
# Indices 1 2 3 4 5 6 
#
# 1 0.013693 -0.004137 -0.002701 0.000000 0.000000 0.000000
# 2 -0.004137 0.013693 -0.002701 0.000000 0.000000 0.000000
# 3 -0.002701 -0.002701 0.008641 0.000000 0.000000 0.000000
# 4 0.000000 0.000000 0.000000 0.068982 0.000000 0.000000
# 5 0.000000 0.000000 0.000000 0.000000 0.068979 0.000000
# 6 0.000000 0.000000 0.000000 0.000000 0.000000 0.035488
#
#
# Mechanical properties :
#
#
# Convention : Reuss Voigt Hill
#
# Bulk Modulus (GPa) = 59.00138 61.52354 60.26246
# Shear Modulus (GPa) = 21.34885 25.35307 23.35096
#
# Velocity S-wave (km/s) = 3.58759 3.90959 3.75205
# Velocity P-wave (km/s) = 7.26168 7.58098 7.42305
#
# Compressibility (1/GPa) = 0.01694876
#
# Stress axis : x y z
#
# Youngs Moduli (GPa) = 73.02868 73.02950 115.72360
#
# Poissons Ratio (x) = 0.30211 0.31260
# Poissons Ratio (y) = 0.30211 0.31260
# Poissons Ratio (z) = 0.19727 0.19727
#
# Static dielectric constant tensor:
#      x y z
#    x 3.076110 0.000000 0.000000 
#    y 0.000000 3.076120 0.000000 
#    z 0.000000 0.000000 2.903840 
# 
# 
# High freq. dielectric constant tensor:
#      x y z
#    x 1.625240 0.000000 0.000000 
#    y 0.000000 1.625240 0.000000 
#    z 0.000000 0.000000 1.661720 
# 
# From -- ./inp_files/1676.got.cif
#   From: 2010.03.12/outbox.cif.g09.slc.cpg/sg136_1_cif.got.tgz:1676.got - 2010.04.06 18:39:43.
