data_PCOD8318967
_publ_section_title
;
Structure prediction by ZEFSAII (Michael W. Deem and Ramdas Pophale) SiO2 
 PCOD8318967
Probable space group: P 42/N C M
;
_chemical_formula_sum "Si O2"
_cell_formula_units_Z 104
_cell_length_a 16.447340
_cell_length_b 16.447340
_cell_length_c 17.111752
_cell_angle_alpha 90.000000
_cell_angle_beta 90.000000
_cell_angle_gamma 90.000000
_cell_volume 4628.985474
_symmetry_space_group_name_H-M "P 42/N C M"
_symmetry_group_IT_number 138
_space_group.IT_coordinate_system_code '2'
_symmetry_cell_setting 'tetragonal'
loop_
_space_group_symop_operation_xyz
x,y,z
1/2-y,x,1/2+z
1/2-x,1/2-y,z
y,1/2-x,1/2+z
1/2+x,-y,1/2-z
-x,1/2+y,1/2-z
1/2+y,1/2+x,-z
-y,-x,-z
-x,-y,-z
1/2+y,-x,1/2-z
1/2+x,1/2+y,-z
-y,1/2+x,1/2-z
1/2-x,y,1/2+z
x,1/2-y,1/2+z
1/2-y,1/2-x,z
y,x,z
loop_
_atom_site_type_symbol
_atom_site_label
_atom_site_fract_x
_atom_site_fract_y
_atom_site_fract_z
Si Si1 0.677012 0.021029 0.775496
Si Si2 0.060302 0.779561 0.915287
Si Si3 0.912799 0.462576 0.129812
Si Si4 0.849173 0.349173 0.000000
Si Si5 0.089281 0.541823 0.374965
Si Si6 0.798939 0.572797 0.528672
Si Si7 0.210380 0.082572 0.312977
O O1 0.746663 0.064964 0.826365
O O2 0.596368 0.021087 0.828662
O O3 0.650468 0.066226 0.695708
O O4 0.713039 0.933517 0.745546
O O5 0.062565 0.875946 0.916199
O O6 0.136445 0.740374 0.963418
O O7 0.973556 0.754480 0.956170
O O8 0.848950 0.503324 0.190777
O O9 0.964976 0.535025 0.090430
O O10 0.859992 0.417107 0.065870
O O11 0.136086 0.491220 0.439487
O O12 0.010724 0.489277 0.345630
O O13 0.845647 0.654354 0.499895
O O14 0.736765 0.596985 0.597262
O O15 0.163013 0.163013 0.283997
#
# Coordination Sequence:
#
# PCOD8318967 Si02
#       7
#    16  16  16   8  16  16  16
#     4  10  22  35  59  93 128 162 221 273 314 387
#     4  11  21  38  63  92 130 162 213 272 328 384
#     4  10  19  36  61  85 116 167 217 260 311 384
#     4  10  21  36  59  92 124 156 197 269 330 386
#     4  10  21  40  65  89 120 172 225 268 316 389
#     4  10  21  39  64  93 126 168 220 271 324 399
#     4  10  21  39  63  91 130 174 216 273 339 394
#
# _framework density 22.467124999999999
#
# number of rings (size 3 to 8) (size 9 to 14) (size 15 to 20)
#    0.000    1.846    1.538    2.538    0.000    4.615 
#    0.000    2.308    0.000    6.000    0.000    2.154 
#    0.000    0.000    0.000    0.000    0.000    0.000 
#
# Total GULP energy -1288411.454693 kJ/mol
# GULP energy per Si atom -12388.571680 kJ/mol
# Density = 2.241599 g / cm^3
# Si number density = 22.467125 Si / 1000 Ang^3
#
#
#
# Elastic Constant Matrix: (Units=GPa)
#
#
# Indices 1 2 3 4 5 6 
#
# 1 115.5637 16.3946 27.0146 0.0000 0.0000 0.0000
# 2 16.3946 115.5637 27.0146 0.0000 0.0000 0.0000
# 3 27.0146 27.0146 88.3821 0.0000 0.0000 0.0000
# 4 0.0000 0.0000 0.0000 17.5680 0.0000 0.0000
# 5 0.0000 0.0000 0.0000 0.0000 17.5680 0.0000
# 6 0.0000 0.0000 0.0000 0.0000 0.0000 36.6154
#
#
#
# Elastic Compliance Matrix: (Units=1/GPa)
#
#
# Indices 1 2 3 4 5 6 
#
# 1 0.009373 -0.000711 -0.002648 0.000000 0.000000 0.000000
# 2 -0.000711 0.009373 -0.002648 0.000000 0.000000 0.000000
# 3 -0.002648 -0.002648 0.012933 0.000000 0.000000 0.000000
# 4 0.000000 0.000000 0.000000 0.056922 0.000000 0.000000
# 5 0.000000 0.000000 0.000000 0.000000 0.056922 0.000000
# 6 0.000000 0.000000 0.000000 0.000000 0.000000 0.027311
#
#
# Mechanical properties :
#
#
# Convention : Reuss Voigt Hill
#
# Bulk Modulus (GPa) = 50.84706 51.15081 50.99893
# Shear Modulus (GPa) = 26.12312 30.95598 28.53955
#
# Velocity S-wave (km/s) = 3.41358 3.71595 3.56797
# Velocity P-wave (km/s) = 6.18204 6.42086 6.30258
#
# Compressibility (1/GPa) = 0.01966682
#
# Stress axis : x y z
#
# Youngs Moduli (GPa) = 106.68941 106.68941 77.32113
#
# Poissons Ratio (x) = 0.07583 0.20472
# Poissons Ratio (y) = 0.07583 0.20472
# Poissons Ratio (z) = 0.28248 0.28248
#
# Static dielectric constant tensor:
#      x y z
#    x 3.995240 0.000000 0.000000 
#    y 0.000000 3.995240 0.000000 
#    z 0.000000 0.000000 4.049420 
# 
# 
# High freq. dielectric constant tensor:
#      x y z
#    x 1.872600 0.000000 0.000000 
#    y 0.000000 1.872600 0.000000 
#    z 0.000000 0.000000 1.879560 
# 
# From -- ./inp_files/5300.got.cif
#   From: 2010.03.12/outbox.cif.g09.slc.cpg/sg138_3_cif.got.tgz:5300.got - 2010.04.08 09:41:05.
