data_PCOD8318900
_publ_section_title
;
Structure prediction by ZEFSAII (Michael W. Deem and Ramdas Pophale) SiO2 
 PCOD8318900
Probable space group: P 42/N C M
;
_chemical_formula_sum "Si O2"
_cell_formula_units_Z 96
_cell_length_a 23.070510
_cell_length_b 23.070510
_cell_length_c 11.202679
_cell_angle_alpha 90.000000
_cell_angle_beta 90.000000
_cell_angle_gamma 90.000000
_cell_volume 5962.608328
_symmetry_space_group_name_H-M "P 42/N C M"
_symmetry_group_IT_number 138
_space_group.IT_coordinate_system_code '2'
_symmetry_cell_setting 'tetragonal'
loop_
_space_group_symop_operation_xyz
x,y,z
1/2-y,x,1/2+z
1/2-x,1/2-y,z
y,1/2-x,1/2+z
1/2+x,-y,1/2-z
-x,1/2+y,1/2-z
1/2+y,1/2+x,-z
-y,-x,-z
-x,-y,-z
1/2+y,-x,1/2-z
1/2+x,1/2+y,-z
-y,1/2+x,1/2-z
1/2-x,y,1/2+z
x,1/2-y,1/2+z
1/2-y,1/2-x,z
y,x,z
loop_
_atom_site_type_symbol
_atom_site_label
_atom_site_fract_x
_atom_site_fract_y
_atom_site_fract_z
Si Si1 0.047392 0.950137 0.132024
Si Si2 0.590337 0.001588 0.988795
Si Si3 0.964906 0.867694 0.257191
Si Si4 0.587319 0.746889 0.745440
Si Si5 0.844202 0.751847 0.996965
Si Si6 0.466778 0.125889 0.756433
O O1 0.019021 0.892126 0.182750
O O2 0.105396 0.972656 0.197559
O O3 0.065817 0.934184 0.000000
O O4 0.001454 0.001454 0.141140
O O5 0.533951 0.966050 0.942488
O O6 0.638930 0.991307 0.889644
O O7 0.568608 0.068608 0.000000
O O8 0.617271 0.973901 0.104293
O O9 0.907699 0.907699 0.246354
O O10 0.949704 0.803671 0.214183
O O11 0.624453 0.737447 0.623757
O O12 0.544529 0.693056 0.767992
O O13 0.620338 0.754087 0.872364
O O14 0.794662 0.705339 0.983170
O O15 0.816356 0.816356 0.004425
O O16 0.411987 0.088014 0.709210
#
# Coordination Sequence:
#
# PCOD8318900 Si02
#       6
#    16  16  16  16  16  16
#     4   9  18  31  49  69  93 127 163 202 254 317
#     4   9  15  29  51  71  90 120 161 201 247 304
#     4  10  19  32  50  72  98 129 166 208 256 304
#     4  12  24  35  52  78 104 133 176 226 260 298
#     4  11  23  39  53  67  97 144 188 220 252 288
#     4  10  19  32  50  72  98 129 166 208 256 304
#
# _framework density 16.100335000000001
#
# number of rings (size 3 to 8) (size 9 to 14) (size 15 to 20)
#    0.000    1.833    1.667    4.000    2.333    2.667 
#    0.000    0.000    0.000    0.000    0.000    0.000 
#    0.000    0.667    0.000    3.000    0.000    0.000 
#
# Total GULP energy -1189282.556145 kJ/mol
# GULP energy per Si atom -12388.359960 kJ/mol
# Density = 1.606369 g / cm^3
# Si number density = 16.100335 Si / 1000 Ang^3
#
#
#
# Elastic Constant Matrix: (Units=GPa)
#
#
# Indices 1 2 3 4 5 6 
#
# 1 73.0386 53.9748 25.1360 0.0000 0.0000 0.0000
# 2 53.9748 73.0386 25.1360 0.0000 0.0000 0.0000
# 3 25.1360 25.1360 107.2547 0.0000 0.0000 0.0000
# 4 0.0000 0.0000 0.0000 17.8615 0.0000 0.0000
# 5 0.0000 0.0000 0.0000 0.0000 17.8614 0.0000
# 6 0.0000 0.0000 0.0000 0.0000 0.0000 29.2635
#
#
#
# Elastic Compliance Matrix: (Units=1/GPa)
#
#
# Indices 1 2 3 4 5 6 
#
# 1 0.030567 -0.021889 -0.002034 0.000000 0.000000 0.000000
# 2 -0.021889 0.030567 -0.002034 0.000000 0.000000 0.000000
# 3 -0.002034 -0.002034 0.010277 0.000000 0.000000 0.000000
# 4 0.000000 0.000000 0.000000 0.055986 0.000000 0.000000
# 5 0.000000 0.000000 0.000000 0.000000 0.055987 0.000000
# 6 0.000000 0.000000 0.000000 0.000000 0.000000 0.034172
#
#
# Mechanical properties :
#
#
# Convention : Reuss Voigt Hill
#
# Bulk Modulus (GPa) = 51.28729 51.31396 51.30062
# Shear Modulus (GPa) = 18.11805 22.93629 20.52717
#
# Velocity S-wave (km/s) = 3.35822 3.77846 3.57452
# Velocity P-wave (km/s) = 6.85280 7.13976 6.99775
#
# Compressibility (1/GPa) = 0.01949801
#
# Stress axis : x y z
#
# Youngs Moduli (GPa) = 32.71515 32.71514 97.30590
#
# Poissons Ratio (x) = 0.71609 0.19790
# Poissons Ratio (y) = 0.71609 0.19790
# Poissons Ratio (z) = 0.06654 0.06654
#
# Static dielectric constant tensor:
#      x y z
#    x 2.917580 0.000000 0.000000 
#    y 0.000000 2.917580 0.000000 
#    z 0.000000 0.000000 3.301450 
# 
# 
# High freq. dielectric constant tensor:
#      x y z
#    x 1.587550 0.000000 0.000000 
#    y 0.000000 1.587550 0.000000 
#    z 0.000000 0.000000 1.642930 
# 
# From -- ./inp_files/3120.got.cif
#   From: 2010.03.12/outbox.cif.g09.slc.cpg/sg138_2_cif.got.tgz:3120.got - 2010.04.08 09:41:05.
