data_PCOD8318752
_publ_section_title
;
Structure prediction by ZEFSAII (Michael W. Deem and Ramdas Pophale) SiO2 
 PCOD8318752
Probable space group: P 42/N M C
;
_chemical_formula_sum "Si O2"
_cell_formula_units_Z 96
_cell_length_a 15.138512
_cell_length_b 15.138512
_cell_length_c 23.331896
_cell_angle_alpha 90.000000
_cell_angle_beta 90.000000
_cell_angle_gamma 90.000000
_cell_volume 5347.076663
_symmetry_space_group_name_H-M "P 42/N M C"
_symmetry_group_IT_number 137
_space_group.IT_coordinate_system_code '2'
_symmetry_cell_setting 'tetragonal'
loop_
_space_group_symop_operation_xyz
x,y,z
1/2-y,x,1/2+z
1/2-x,1/2-y,z
y,1/2-x,1/2+z
1/2+x,-y,-z
-x,1/2+y,-z
1/2+y,1/2+x,1/2-z
-y,-x,1/2-z
-x,-y,-z
1/2+y,-x,1/2-z
1/2+x,1/2+y,-z
-y,1/2+x,1/2-z
1/2-x,y,z
x,1/2-y,z
1/2-y,1/2-x,1/2+z
y,x,1/2+z
loop_
_atom_site_type_symbol
_atom_site_label
_atom_site_fract_x
_atom_site_fract_y
_atom_site_fract_z
Si Si1 0.961650 0.654220 0.472702
Si Si2 0.019945 0.349216 0.094421
Si Si3 0.150689 0.414333 0.426660
Si Si4 0.988036 0.352515 0.225003
Si Si5 0.096482 0.846616 0.012343
Si Si6 0.353003 0.150322 0.802629
O O1 0.931557 0.750000 0.452058
O O2 0.923617 0.587860 0.425874
O O3 0.921051 0.636673 0.535357
O O4 0.068499 0.656292 0.475391
O O5 0.061801 0.250000 0.091685
O O6 0.991386 0.373645 0.158001
O O7 0.935402 0.353111 0.053350
O O8 0.250000 0.376178 0.437260
O O9 0.148187 0.516300 0.443202
O O10 0.124777 0.405499 0.360232
O O11 0.907569 0.407569 0.250000
O O12 0.968103 0.250000 0.236861
O O13 0.081575 0.380610 0.253202
O O14 0.144078 0.750000 0.020496
O O15 0.250000 0.143454 0.817042
O O16 0.377104 0.250000 0.782143
#
# Coordination Sequence:
#
# PCOD8318752 Si02
#       6
#    16  16  16  16  16  16
#     4  11  21  30  50  78 105 135 167 210 263 318
#     4   9  19  36  53  73 101 135 174 215 259 308
#     4   9  17  31  52  75  99 129 167 212 260 310
#     4  10  22  36  55  78 106 145 181 217 260 310
#     4   9  19  34  51  70 101 139 172 209 252 303
#     4   9  18  32  51  77 104 130 168 218 267 309
#
# _framework density 17.953735999999999
#
# number of rings (size 3 to 8) (size 9 to 14) (size 15 to 20)
#    0.000    2.500    0.000    4.000    4.667    3.167 
#    0.000    1.667    0.000    3.000    0.000    0.000 
#    0.000    0.333    0.000    0.000    0.000    0.000 
#
# Total GULP energy -1189889.783965 kJ/mol
# GULP energy per Si atom -12394.685250 kJ/mol
# Density = 1.791287 g / cm^3
# Si number density = 17.953736 Si / 1000 Ang^3
#
#
#
# Elastic Constant Matrix: (Units=GPa)
#
#
# Indices 1 2 3 4 5 6 
#
# 1 80.2757 25.9230 26.8174 0.0000 0.0000 0.0000
# 2 25.9230 80.2757 26.8174 0.0000 0.0000 0.0000
# 3 26.8174 26.8174 102.6683 0.0000 0.0000 0.0000
# 4 0.0000 0.0000 0.0000 7.7117 0.0000 0.0000
# 5 0.0000 0.0000 0.0000 0.0000 7.7117 0.0000
# 6 0.0000 0.0000 0.0000 0.0000 0.0000 10.8197
#
#
#
# Elastic Compliance Matrix: (Units=1/GPa)
#
#
# Indices 1 2 3 4 5 6 
#
# 1 0.014623 -0.003776 -0.002833 0.000000 0.000000 0.000000
# 2 -0.003776 0.014623 -0.002833 0.000000 0.000000 0.000000
# 3 -0.002833 -0.002833 0.011220 0.000000 0.000000 0.000000
# 4 0.000000 0.000000 0.000000 0.129673 0.000000 0.000000
# 5 0.000000 0.000000 0.000000 0.000000 0.129673 0.000000
# 6 0.000000 0.000000 0.000000 0.000000 0.000000 0.092424
#
#
# Mechanical properties :
#
#
# Convention : Reuss Voigt Hill
#
# Bulk Modulus (GPa) = 46.33617 46.92613 46.63115
# Shear Modulus (GPa) = 11.95273 17.49275 14.72274
#
# Velocity S-wave (km/s) = 2.58302 3.12480 2.86674
# Velocity P-wave (km/s) = 5.89582 6.26204 6.08169
#
# Compressibility (1/GPa) = 0.02158141
#
# Stress axis : x y z
#
# Youngs Moduli (GPa) = 68.38626 68.38626 89.12444
#
# Poissons Ratio (x) = 0.25820 0.25252
# Poissons Ratio (y) = 0.25820 0.25252
# Poissons Ratio (z) = 0.19376 0.19376
#
# Static dielectric constant tensor:
#      x y z
#    x 3.325080 0.000000 0.000000 
#    y 0.000000 3.325080 0.000000 
#    z 0.000000 0.000000 3.280250 
# 
# 
# High freq. dielectric constant tensor:
#      x y z
#    x 1.687160 0.000000 0.000000 
#    y 0.000000 1.687160 0.000000 
#    z 0.000000 0.000000 1.686860 
# 
# From -- ./inp_files/7859.got.cif
#   From: 2010.03.12/outbox.cif.g09.slc.cpg/sg137_4_cif.got.tgz:7859.got - 2010.04.08 09:34:49.
