data_PCOD8318961
_publ_section_title
;
Structure prediction by ZEFSAII (Michael W. Deem and Ramdas Pophale) SiO2 
 PCOD8318961
Probable space group: P 42/N C M
;
_chemical_formula_sum "Si O2"
_cell_formula_units_Z 84
_cell_length_a 14.861154
_cell_length_b 14.861154
_cell_length_c 18.949590
_cell_angle_alpha 90.000000
_cell_angle_beta 90.000000
_cell_angle_gamma 90.000000
_cell_volume 4185.090821
_symmetry_space_group_name_H-M "P 42/N C M"
_symmetry_group_IT_number 138
_space_group.IT_coordinate_system_code '2'
_symmetry_cell_setting 'tetragonal'
loop_
_space_group_symop_operation_xyz
x,y,z
1/2-y,x,1/2+z
1/2-x,1/2-y,z
y,1/2-x,1/2+z
1/2+x,-y,1/2-z
-x,1/2+y,1/2-z
1/2+y,1/2+x,-z
-y,-x,-z
-x,-y,-z
1/2+y,-x,1/2-z
1/2+x,1/2+y,-z
-y,1/2+x,1/2-z
1/2-x,y,1/2+z
x,1/2-y,1/2+z
1/2-y,1/2-x,z
y,x,z
loop_
_atom_site_type_symbol
_atom_site_label
_atom_site_fract_x
_atom_site_fract_y
_atom_site_fract_z
Si Si1 0.079301 0.771611 0.401874
Si Si2 0.250000 0.750000 0.000000
Si Si3 0.448752 0.304033 0.473478
Si Si4 0.104008 0.959951 0.343926
Si Si5 0.325023 0.174978 0.246371
Si Si6 0.036635 0.184560 0.204779
Si Si7 0.326509 0.326509 0.903895
O O1 0.165195 0.744496 0.448001
O O2 0.097966 0.852514 0.346916
O O3 0.000151 0.797351 0.454012
O O4 0.042847 0.689566 0.353459
O O5 0.361255 0.361255 0.490310
O O6 0.511989 0.351596 0.417148
O O7 0.415554 0.207736 0.444286
O O8 0.167802 0.991866 0.280650
O O9 0.005702 0.005702 0.335812
O O10 0.250000 0.250000 0.255715
O O11 0.409961 0.219570 0.206062
O O12 0.354967 0.145034 0.324835
O O13 0.103698 0.103698 0.184254
O O14 0.250000 0.250000 0.900582
#
# Coordination Sequence:
#
# PCOD8318961 Si02
#       7
#    16   4  16  16   8  16   8
#     4  12  25  42  65  88 123 165 217 264 312 365
#     4  12  28  48  62  84 124 172 226 260 312 376
#     4  10  19  35  62  96 127 159 203 256 315 375
#     4  10  20  40  64  90 122 162 212 261 310 375
#     4   9  16  34  60  91 132 167 193 251 326 385
#     4  10  23  40  64  98 132 162 208 269 329 385
#     4   9  16  30  60  95 132 165 189 238 324 390
#
# _framework density 20.071249999999999
#
# number of rings (size 3 to 8) (size 9 to 14) (size 15 to 20)
#    0.000    1.714    3.810    0.571    4.000    3.048 
#    0.000    0.476    0.000    0.000    0.000    0.000 
#    0.000    0.000    0.000    0.000    0.000    0.000 
#
# Total GULP energy -1041437.887806 kJ/mol
# GULP energy per Si atom -12398.070093 kJ/mol
# Density = 2.002557 g / cm^3
# Si number density = 20.071250 Si / 1000 Ang^3
#
#
#
# Elastic Constant Matrix: (Units=GPa)
#
#
# Indices 1 2 3 4 5 6 
#
# 1 67.3455 34.5006 27.5738 0.0000 0.0000 0.0000
# 2 34.5006 67.3455 27.5738 0.0000 0.0000 0.0000
# 3 27.5738 27.5738 85.9807 0.0000 0.0000 0.0000
# 4 0.0000 0.0000 0.0000 16.5940 0.0000 0.0000
# 5 0.0000 0.0000 0.0000 0.0000 16.5940 0.0000
# 6 0.0000 0.0000 0.0000 0.0000 0.0000 13.5145
#
#
#
# Elastic Compliance Matrix: (Units=1/GPa)
#
#
# Indices 1 2 3 4 5 6 
#
# 1 0.021164 -0.009282 -0.003811 0.000000 0.000000 0.000000
# 2 -0.009282 0.021164 -0.003811 0.000000 0.000000 0.000000
# 3 -0.003811 -0.003811 0.014075 0.000000 0.000000 0.000000
# 4 0.000000 0.000000 0.000000 0.060263 0.000000 0.000000
# 5 0.000000 0.000000 0.000000 0.000000 0.060263 0.000000
# 6 0.000000 0.000000 0.000000 0.000000 0.000000 0.073995
#
#
# Mechanical properties :
#
#
# Convention : Reuss Voigt Hill
#
# Bulk Modulus (GPa) = 44.25458 44.44089 44.34774
# Shear Modulus (GPa) = 17.10798 18.07541 17.59169
#
# Velocity S-wave (km/s) = 2.92269 3.00419 2.96372
# Velocity P-wave (km/s) = 5.78672 5.85006 5.81848
#
# Compressibility (1/GPa) = 0.02259653
#
# Stress axis : x y z
#
# Youngs Moduli (GPa) = 47.24983 47.24983 71.05012
#
# Poissons Ratio (x) = 0.43857 0.27074
# Poissons Ratio (y) = 0.43857 0.27074
# Poissons Ratio (z) = 0.18005 0.18005
#
# Static dielectric constant tensor:
#      x y z
#    x 3.721040 0.000000 0.000000 
#    y 0.000000 3.721040 0.000000 
#    z 0.000000 0.000000 3.674120 
# 
# 
# High freq. dielectric constant tensor:
#      x y z
#    x 1.769420 0.000000 0.000000 
#    y 0.000000 1.769420 0.000000 
#    z 0.000000 0.000000 1.789620 
# 
# From -- ./inp_files/6164.got.cif
#   From: 2010.03.12/outbox.cif.g09.slc.cpg/sg138_4_cif.got.tgz:6164.got - 2010.04.08 09:41:05.
