data_PCOD8318298
_publ_section_title
;
Structure prediction by ZEFSAII (Michael W. Deem and Ramdas Pophale) SiO2 
 PCOD8318298
Probable space group: P 42/M N M
;
_chemical_formula_sum "Si O2"
_cell_formula_units_Z 88
_cell_length_a 11.997660
_cell_length_b 11.997660
_cell_length_c 29.080527
_cell_angle_alpha 90.000000
_cell_angle_beta 90.000000
_cell_angle_gamma 90.000000
_cell_volume 4185.962885
_symmetry_space_group_name_H-M "P 42/M N M"
_symmetry_group_IT_number 136
_symmetry_cell_setting 'tetragonal'
loop_
_space_group_symop_operation_xyz
x,y,z
1/2-y,1/2+x,1/2+z
-x,-y,z
1/2+y,1/2-x,1/2+z
1/2+x,1/2-y,1/2-z
1/2-x,1/2+y,1/2-z
y,x,-z
-y,-x,-z
-x,-y,-z
1/2+y,1/2-x,1/2-z
x,y,-z
1/2-y,1/2+x,1/2-z
1/2-x,1/2+y,1/2+z
1/2+x,1/2-y,1/2+z
-y,-x,z
y,x,z
loop_
_atom_site_type_symbol
_atom_site_label
_atom_site_fract_x
_atom_site_fract_y
_atom_site_fract_z
Si Si1 0.729058 0.549048 0.881828
Si Si2 0.002203 0.179304 0.052881
Si Si3 0.906266 0.906266 0.447734
Si Si4 0.537861 0.127969 0.382979
Si Si5 0.419130 0.240390 0.298345
Si Si6 0.563607 0.259710 0.787934
O O1 0.617492 0.617492 0.872919
O O2 0.701819 0.454659 0.920355
O O3 0.830565 0.629981 0.895409
O O4 0.773335 0.499749 0.834113
O O5 0.106688 0.106688 0.072631
O O6 0.982974 0.297370 0.077486
O O7 0.024615 0.204624 0.000000
O O8 0.889256 0.110745 0.059798
O O9 0.871577 0.871577 0.500000
O O10 0.000000 0.000000 0.450940
O O11 0.503901 0.189263 0.335587
O O12 0.500000 0.000000 0.384682
O O13 0.341335 0.341335 0.318362
O O14 0.342557 0.144458 0.276483
O O15 0.487742 0.287043 0.255543
O O16 0.628046 0.371955 0.799981
#
# Coordination Sequence:
#
# PCOD8318298 Si02
#       6
#    16  16   8  16  16  16
#     4  11  22  39  65  94 126 168 215 264 317 381
#     4   9  20  42  70  96 126 169 221 276 332 392
#     4   9  20  40  66  96 130 168 213 265 322 380
#     4  12  24  40  63  92 136 172 210 265 332 392
#     4  11  25  41  62  92 127 168 215 269 324 393
#     4  11  23  41  64  89 124 168 215 262 322 386
#
# _framework density 21.022642000000001
#
# number of rings (size 3 to 8) (size 9 to 14) (size 15 to 20)
#    0.000    1.364    2.727    3.273    0.000    5.091 
#    1.636    1.818    0.000    0.000    0.000    0.000 
#    0.000    0.000    0.000    0.000    0.000    0.000 
#
# Total GULP energy -1090923.866986 kJ/mol
# GULP energy per Si atom -12396.862125 kJ/mol
# Density = 2.097479 g / cm^3
# Si number density = 21.022642 Si / 1000 Ang^3
#
#
#
# Elastic Constant Matrix: (Units=GPa)
#
#
# Indices 1 2 3 4 5 6 
#
# 1 87.9425 19.3063 45.5140 0.0000 0.0000 0.0000
# 2 19.3063 87.9425 45.5140 0.0000 0.0000 0.0000
# 3 45.5140 45.5140 121.5729 0.0000 0.0000 0.0000
# 4 0.0000 0.0000 0.0000 28.7224 0.0000 0.0000
# 5 0.0000 0.0000 0.0000 0.0000 28.7224 0.0000
# 6 0.0000 0.0000 0.0000 0.0000 0.0000 24.8905
#
#
#
# Elastic Compliance Matrix: (Units=1/GPa)
#
#
# Indices 1 2 3 4 5 6 
#
# 1 0.014118 -0.000451 -0.005117 0.000000 0.000000 0.000000
# 2 -0.000451 0.014118 -0.005117 0.000000 0.000000 0.000000
# 3 -0.005117 -0.005117 0.012057 0.000000 0.000000 0.000000
# 4 0.000000 0.000000 0.000000 0.034816 0.000000 0.000000
# 5 0.000000 0.000000 0.000000 0.000000 0.034816 0.000000
# 6 0.000000 0.000000 0.000000 0.000000 0.000000 0.040176
#
#
# Mechanical properties :
#
#
# Convention : Reuss Voigt Hill
#
# Bulk Modulus (GPa) = 52.84290 57.56962 55.20626
# Shear Modulus (GPa) = 28.12499 28.94196 28.53348
#
# Velocity S-wave (km/s) = 3.66162 3.71442 3.68812
# Velocity P-wave (km/s) = 6.56257 6.77052 6.66736
#
# Compressibility (1/GPa) = 0.01892402
#
# Stress axis : x y z
#
# Youngs Moduli (GPa) = 70.83061 70.83061 82.94255
#
# Poissons Ratio (x) = 0.03197 0.42438
# Poissons Ratio (y) = 0.03197 0.42438
# Poissons Ratio (z) = 0.36241 0.36241
#
# Static dielectric constant tensor:
#      x y z
#    x 3.894370 0.000000 0.000000 
#    y 0.000000 3.894370 0.000000 
#    z 0.000000 0.000000 3.672420 
# 
# 
# High freq. dielectric constant tensor:
#      x y z
#    x 1.826660 0.000000 0.000000 
#    y 0.000000 1.826660 0.000000 
#    z 0.000000 0.000000 1.816780 
# 
# From -- ./inp_files/9710.got.cif
#   From: 2010.03.12/outbox.cif.g09.slc.cpg/sg136_5_cif.got.tgz:9710.got - 2010.04.06 18:39:43.
