data_PCOD8318206
_publ_section_title
;
Structure prediction by ZEFSAII (Michael W. Deem and Ramdas Pophale) SiO2 
 PCOD8318206
Probable space group: P 42/M N M
;
_chemical_formula_sum "Si O2"
_cell_formula_units_Z 80
_cell_length_a 12.245817
_cell_length_b 12.245817
_cell_length_c 26.828451
_cell_angle_alpha 90.000000
_cell_angle_beta 90.000000
_cell_angle_gamma 90.000000
_cell_volume 4023.195424
_symmetry_space_group_name_H-M "P 42/M N M"
_symmetry_group_IT_number 136
_symmetry_cell_setting 'tetragonal'
loop_
_space_group_symop_operation_xyz
x,y,z
1/2-y,1/2+x,1/2+z
-x,-y,z
1/2+y,1/2-x,1/2+z
1/2+x,1/2-y,1/2-z
1/2-x,1/2+y,1/2-z
y,x,-z
-y,-x,-z
-x,-y,-z
1/2+y,1/2-x,1/2-z
x,y,-z
1/2-y,1/2+x,1/2-z
1/2-x,1/2+y,1/2+z
1/2+x,1/2-y,1/2+z
-y,-x,z
y,x,z
loop_
_atom_site_type_symbol
_atom_site_label
_atom_site_fract_x
_atom_site_fract_y
_atom_site_fract_z
Si Si1 0.318929 0.146664 0.056875
Si Si2 0.914786 0.914786 0.384584
Si Si3 0.411795 0.588206 0.233797
Si Si4 0.035452 0.325448 0.613143
Si Si5 0.762616 0.587985 0.556494
Si Si6 0.532644 0.166853 0.231301
O O1 0.250408 0.250408 0.076369
O O2 0.424241 0.127267 0.090831
O O3 0.239530 0.041207 0.060329
O O4 0.357133 0.164499 0.000000
O O5 0.914670 0.914670 0.325320
O O6 0.797963 0.949370 0.405421
O O7 0.000000 0.000000 0.406909
O O8 0.500000 0.500000 0.254974
O O9 0.442955 0.710863 0.251808
O O10 0.138058 0.391625 0.593538
O O11 0.030452 0.336102 0.672064
O O12 0.795883 0.619992 0.500000
O O13 0.655280 0.655280 0.573343
O O14 0.628150 0.085709 0.249493
#
# Coordination Sequence:
#
# PCOD8318206 Si02
#       6
#    16   8   8  16  16  16
#     4  10  22  38  59  90 122 156 199 247 301 362
#     4   9  18  34  57  88 115 153 195 232 304 362
#     4   9  20  40  64  84 117 158 201 254 309 370
#     4  11  20  38  62  85 119 157 196 248 302 367
#     4  10  21  37  60  88 118 158 203 243 295 361
#     4  10  24  40  60  91 119 160 208 260 314 364
#
# _framework density 19.884692000000001
#
# number of rings (size 3 to 8) (size 9 to 14) (size 15 to 20)
#    0.000    2.000    1.000    1.800    7.000    2.800 
#    0.000    2.000    0.000    2.400    0.000    0.000 
#    0.000    0.000    0.000    0.000    0.000    0.000 
#
# Total GULP energy -991924.952500 kJ/mol
# GULP energy per Si atom -12399.061906 kJ/mol
# Density = 1.983943 g / cm^3
# Si number density = 19.884692 Si / 1000 Ang^3
#
#
#
# Elastic Constant Matrix: (Units=GPa)
#
#
# Indices 1 2 3 4 5 6 
#
# 1 127.0001 43.6655 28.8991 0.0000 0.0000 0.0000
# 2 43.6655 127.0001 28.8991 0.0000 0.0000 0.0000
# 3 28.8991 28.8991 65.9547 0.0000 0.0000 0.0000
# 4 0.0000 0.0000 0.0000 27.6058 0.0000 0.0000
# 5 0.0000 0.0000 0.0000 0.0000 27.6058 0.0000
# 6 0.0000 0.0000 0.0000 0.0000 0.0000 33.9309
#
#
#
# Elastic Compliance Matrix: (Units=1/GPa)
#
#
# Indices 1 2 3 4 5 6 
#
# 1 0.009440 -0.002560 -0.003015 0.000000 0.000000 0.000000
# 2 -0.002560 0.009440 -0.003015 0.000000 0.000000 0.000000
# 3 -0.003015 -0.003015 0.017804 0.000000 0.000000 0.000000
# 4 0.000000 0.000000 0.000000 0.036224 0.000000 0.000000
# 5 0.000000 0.000000 0.000000 0.000000 0.036224 0.000000
# 6 0.000000 0.000000 0.000000 0.000000 0.000000 0.029472
#
#
# Mechanical properties :
#
#
# Convention : Reuss Voigt Hill
#
# Bulk Modulus (GPa) = 51.26729 58.09805 54.68267
# Shear Modulus (GPa) = 30.81007 32.39458 31.60232
#
# Velocity S-wave (km/s) = 3.94056 4.04062 3.99090
# Velocity P-wave (km/s) = 6.82219 7.14491 6.98541
#
# Compressibility (1/GPa) = 0.01950561
#
# Stress axis : x y z
#
# Youngs Moduli (GPa) = 105.93103 105.93103 56.16761
#
# Poissons Ratio (x) = 0.27115 0.16933
# Poissons Ratio (y) = 0.27115 0.16933
# Poissons Ratio (z) = 0.31936 0.31936
#
# Static dielectric constant tensor:
#      x y z
#    x 3.767780 0.000000 0.000000 
#    y 0.000000 3.767780 0.000000 
#    z 0.000000 0.000000 3.370090 
# 
# 
# High freq. dielectric constant tensor:
#      x y z
#    x 1.783490 0.000000 0.000000 
#    y 0.000000 1.783490 0.000000 
#    z 0.000000 0.000000 1.754820 
# 
# From -- ./inp_files/9601.got.cif
#   From: 2010.03.12/outbox.cif.g09.slc.cpg/sg136_5_cif.got.tgz:9601.got - 2010.04.06 18:39:43.
