data_PCOD8318760
_publ_section_title
;
Structure prediction by ZEFSAII (Michael W. Deem and Ramdas Pophale) SiO2 
 PCOD8318760
Probable space group: P 42/N M C
;
_chemical_formula_sum "Si O2"
_cell_formula_units_Z 56
_cell_length_a 18.562065
_cell_length_b 18.562065
_cell_length_c 8.006951
_cell_angle_alpha 90.000000
_cell_angle_beta 90.000000
_cell_angle_gamma 90.000000
_cell_volume 2758.797025
_symmetry_space_group_name_H-M "P 42/N M C"
_symmetry_group_IT_number 137
_space_group.IT_coordinate_system_code '2'
_symmetry_cell_setting 'tetragonal'
loop_
_space_group_symop_operation_xyz
x,y,z
1/2-y,x,1/2+z
1/2-x,1/2-y,z
y,1/2-x,1/2+z
1/2+x,-y,-z
-x,1/2+y,-z
1/2+y,1/2+x,1/2-z
-y,-x,1/2-z
-x,-y,-z
1/2+y,-x,1/2-z
1/2+x,1/2+y,-z
-y,1/2+x,1/2-z
1/2-x,y,z
x,1/2-y,z
1/2-y,1/2-x,1/2+z
y,x,1/2+z
loop_
_atom_site_type_symbol
_atom_site_label
_atom_site_fract_x
_atom_site_fract_y
_atom_site_fract_z
Si Si1 0.586169 0.166133 0.398226
Si Si2 0.575413 0.828498 0.564365
Si Si3 0.100296 0.600296 0.250000
Si Si4 0.670550 0.953817 0.686069
O O1 0.628192 0.128192 0.250000
O O2 0.596497 0.250000 0.372556
O O3 0.502657 0.143426 0.373827
O O4 0.615324 0.149426 0.586393
O O5 0.593935 0.750000 0.646683
O O6 0.636904 0.887146 0.588305
O O7 0.572081 0.815650 0.370084
O O8 0.114237 0.519814 0.318325
O O9 0.750000 0.974212 0.609627
#
# Coordination Sequence:
#
# PCOD8318760 Si02
#       4
#    16  16   8  16
#     4  10  23  41  62  91 124 160 204 251 305 363
#     4   9  21  39  57  86 124 156 198 255 303 358
#     4  10  22  40  64  89 126 158 203 256 300 356
#     4  10  22  38  60  90 120 160 206 246 305 367
#
# _framework density 20.298701999999999
#
# number of rings (size 3 to 8) (size 9 to 14) (size 15 to 20)
#    0.000    2.286    0.000    2.571    6.000    6.571 
#    0.000    2.857    0.000    3.857    0.000    0.000 
#    0.000    0.000    0.000    0.000    0.000    0.000 
#
# Total GULP energy -693786.363709 kJ/mol
# GULP energy per Si atom -12389.042209 kJ/mol
# Density = 2.025250 g / cm^3
# Si number density = 20.298702 Si / 1000 Ang^3
#
#
#
# Elastic Constant Matrix: (Units=GPa)
#
#
# Indices 1 2 3 4 5 6 
#
# 1 106.2052 71.9324 12.2694 0.0000 0.0000 0.0000
# 2 71.9324 106.2052 12.2694 0.0000 0.0000 0.0000
# 3 12.2694 12.2694 42.8214 0.0000 0.0000 0.0000
# 4 0.0000 0.0000 0.0000 -2.9508 0.0000 0.0000
# 5 0.0000 0.0000 0.0000 0.0000 -2.9508 0.0000
# 6 0.0000 0.0000 0.0000 0.0000 0.0000 20.9484
#
#
#
# Elastic Compliance Matrix: (Units=1/GPa)
#
#
# Indices 1 2 3 4 5 6 
#
# 1 0.017511 -0.011667 -0.001675 0.000000 0.000000 0.000000
# 2 -0.011667 0.017511 -0.001675 0.000000 0.000000 0.000000
# 3 -0.001675 -0.001675 0.024312 0.000000 0.000000 0.000000
# 4 0.000000 0.000000 0.000000 -0.338892 0.000000 0.000000
# 5 0.000000 0.000000 0.000000 0.000000 -0.338892 0.000000
# 6 0.000000 0.000000 0.000000 0.000000 0.000000 0.047736
#
#
# Mechanical properties :
#
#
# Convention : Reuss Voigt Hill
#
# Bulk Modulus (GPa) = 34.12636 49.79712 41.96174
# Shear Modulus (GPa) = -9.41772 13.59342 2.08785
#
# Velocity S-wave (km/s) = -2.15630 2.59060 1.01528
# Velocity P-wave (km/s) = 3.26329 5.79083 4.70015
#
# Compressibility (1/GPa) = 0.02930286
#
# Stress axis : x y z
#
# Youngs Moduli (GPa) = 57.10706 57.10706 41.13131
#
# Poissons Ratio (x) = 0.66625 0.06888
# Poissons Ratio (y) = 0.66625 0.06888
# Poissons Ratio (z) = 0.09563 0.09563
#
# Static dielectric constant tensor:
#      x y z
#    x 2.433990 0.000000 0.000000 
#    y 0.000000 2.433990 0.000000 
#    z 0.000000 0.000000 3.617830 
# 
# 
# High freq. dielectric constant tensor:
#      x y z
#    x 1.793160 0.000000 0.000000 
#    y 0.000000 1.793160 0.000000 
#    z 0.000000 0.000000 1.791060 
# 
# From -- ./inp_files/1543.got.cif
#   From: 2010.03.12/outbox.cif.g09.slc.cpg/sg137_1_cif.got.tgz:1543.got - 2010.04.08 09:34:49.
