data_PCOD8318083
_publ_section_title
;
Structure prediction by ZEFSAII (Michael W. Deem and Ramdas Pophale) SiO2 
 PCOD8318083
Probable space group: P 42/M N M
;
_chemical_formula_sum "Si O2"
_cell_formula_units_Z 120
_cell_length_a 26.055217
_cell_length_b 26.055217
_cell_length_c 9.299538
_cell_angle_alpha 90.000000
_cell_angle_beta 90.000000
_cell_angle_gamma 90.000000
_cell_volume 6313.217656
_symmetry_space_group_name_H-M "P 42/M N M"
_symmetry_group_IT_number 136
_symmetry_cell_setting 'tetragonal'
loop_
_space_group_symop_operation_xyz
x,y,z
1/2-y,1/2+x,1/2+z
-x,-y,z
1/2+y,1/2-x,1/2+z
1/2+x,1/2-y,1/2-z
1/2-x,1/2+y,1/2-z
y,x,-z
-y,-x,-z
-x,-y,-z
1/2+y,1/2-x,1/2-z
x,y,-z
1/2-y,1/2+x,1/2-z
1/2-x,1/2+y,1/2+z
1/2+x,1/2-y,1/2+z
-y,-x,z
y,x,z
loop_
_atom_site_type_symbol
_atom_site_label
_atom_site_fract_x
_atom_site_fract_y
_atom_site_fract_z
Si Si1 0.041290 0.041290 0.670333
Si Si2 0.691138 0.855814 0.167756
Si Si3 0.892589 0.594347 0.336307
Si Si4 0.002708 0.151909 0.669689
Si Si5 0.818477 0.095670 0.840395
Si Si6 0.661884 0.746467 0.841987
Si Si7 0.357540 0.001058 0.338429
Si Si8 0.560776 0.245166 0.167306
O O1 0.039175 0.039175 0.500000
O O2 0.028356 0.098838 0.723261
O O3 0.000000 0.000000 0.732872
O O4 0.636040 0.868984 0.231324
O O5 0.696927 0.795213 0.200005
O O6 0.736834 0.886452 0.245835
O O7 0.693101 0.869454 0.000000
O O8 0.872781 0.601548 0.500000
O O9 0.875223 0.539381 0.279354
O O10 0.953872 0.600398 0.332562
O O11 0.992778 0.151351 0.500000
O O12 0.038168 0.199977 0.714036
O O13 0.948510 0.156376 0.746295
O O14 0.858463 0.141538 0.849743
O O15 0.765205 0.115498 0.768476
O O16 0.805211 0.075357 0.000000
O O17 0.697366 0.697366 0.847127
O O18 0.637234 0.756142 0.000000
O O19 0.356117 0.977640 0.500000
O O20 0.300692 0.021259 0.296139
O O21 0.574936 0.243882 0.000000
#
# Coordination Sequence:
#
# PCOD8318083 Si02
#       8
#     8  16  16  16  16  16  16  16
#     4   9  18  34  59  89 117 149 195 239 275 329
#     4  10  20  35  56  78 104 141 181 224 272 325
#     4  10  21  35  53  77 106 140 179 225 275 324
#     4  10  20  36  59  84 112 150 192 232 277 331
#     4  10  21  35  53  83 118 144 176 225 279 333
#     4   9  19  36  56  79 107 142 181 217 264 328
#     4   9  19  35  51  72 104 141 180 223 272 329
#     4   9  20  37  54  77 111 144 182 231 277 326
#
# _framework density 19.007739999999998
#
# number of rings (size 3 to 8) (size 9 to 14) (size 15 to 20)
#    0.000    2.467    0.000    2.400    1.867    5.867 
#    1.200    1.667    0.000    1.200    0.000    0.000 
#    0.000    0.000    0.000    0.000    0.000    0.000 
#
# Total GULP energy -1487700.561842 kJ/mol
# GULP energy per Si atom -12397.504682 kJ/mol
# Density = 1.896448 g / cm^3
# Si number density = 19.007740 Si / 1000 Ang^3
#
#
#
# Elastic Constant Matrix: (Units=GPa)
#
#
# Indices 1 2 3 4 5 6 
#
# 1 97.9230 41.2454 38.5630 0.0000 0.0000 0.0000
# 2 41.2454 97.9230 38.5630 0.0000 0.0000 0.0000
# 3 38.5630 38.5630 73.1272 0.0000 0.0000 0.0000
# 4 0.0000 0.0000 0.0000 25.3258 0.0000 0.0000
# 5 0.0000 0.0000 0.0000 0.0000 25.3258 0.0000
# 6 0.0000 0.0000 0.0000 0.0000 0.0000 19.2153
#
#
#
# Elastic Compliance Matrix: (Units=1/GPa)
#
#
# Indices 1 2 3 4 5 6 
#
# 1 0.013898 -0.003746 -0.005354 0.000000 0.000000 0.000000
# 2 -0.003746 0.013898 -0.005354 0.000000 0.000000 0.000000
# 3 -0.005354 -0.005354 0.019321 0.000000 0.000000 0.000000
# 4 0.000000 0.000000 0.000000 0.039485 0.000000 0.000000
# 5 0.000000 0.000000 0.000000 0.000000 0.039485 0.000000
# 6 0.000000 0.000000 0.000000 0.000000 0.000000 0.052042
#
#
# Mechanical properties :
#
#
# Convention : Reuss Voigt Hill
#
# Bulk Modulus (GPa) = 54.91146 56.19063 55.55105
# Shear Modulus (GPa) = 23.46233 24.01348 23.73790
#
# Velocity S-wave (km/s) = 3.51715 3.55822 3.53775
# Velocity P-wave (km/s) = 6.74133 6.81964 6.78060
#
# Compressibility (1/GPa) = 0.01821113
#
# Stress axis : x y z
#
# Youngs Moduli (GPa) = 71.95209 71.95209 51.75590
#
# Poissons Ratio (x) = 0.26950 0.27710
# Poissons Ratio (y) = 0.26950 0.27710
# Poissons Ratio (z) = 0.38522 0.38522
#
# Static dielectric constant tensor:
#      x y z
#    x 3.498200 0.000000 0.000000 
#    y 0.000000 3.498200 0.000000 
#    z 0.000000 0.000000 3.614140 
# 
# 
# High freq. dielectric constant tensor:
#      x y z
#    x 1.733330 0.000000 0.000000 
#    y 0.000000 1.733330 0.000000 
#    z 0.000000 0.000000 1.736560 
# 
# From -- ./inp_files/2349.got.cif
#   From: 2010.03.12/outbox.cif.g09.slc.cpg/sg136_2_cif.got.tgz:2349.got - 2010.04.06 18:39:43.
