data_PCOD8318065
_publ_section_title
;
Structure prediction by ZEFSAII (Michael W. Deem and Ramdas Pophale) SiO2 
 PCOD8318065
Probable space group: P 42/M N M
;
_chemical_formula_sum "Si O2"
_cell_formula_units_Z 96
_cell_length_a 24.144766
_cell_length_b 24.144766
_cell_length_c 8.686680
_cell_angle_alpha 90.000000
_cell_angle_beta 90.000000
_cell_angle_gamma 90.000000
_cell_volume 5064.071452
_symmetry_space_group_name_H-M "P 42/M N M"
_symmetry_group_IT_number 136
_symmetry_cell_setting 'tetragonal'
loop_
_space_group_symop_operation_xyz
x,y,z
1/2-y,1/2+x,1/2+z
-x,-y,z
1/2+y,1/2-x,1/2+z
1/2+x,1/2-y,1/2-z
1/2-x,1/2+y,1/2-z
y,x,-z
-y,-x,-z
-x,-y,-z
1/2+y,1/2-x,1/2-z
x,y,-z
1/2-y,1/2+x,1/2-z
1/2-x,1/2+y,1/2+z
1/2+x,1/2-y,1/2+z
-y,-x,z
y,x,z
loop_
_atom_site_type_symbol
_atom_site_label
_atom_site_fract_x
_atom_site_fract_y
_atom_site_fract_z
Si Si1 0.557261 0.062046 0.815990
Si Si2 0.854368 0.652794 0.681755
Si Si3 0.768536 0.144837 0.816953
Si Si4 0.148025 0.059760 0.325714
Si Si5 0.229174 0.140248 0.178915
Si Si6 0.645799 0.554775 0.325226
O O1 0.497383 0.077447 0.746658
O O2 0.600803 0.108399 0.756562
O O3 0.553218 0.059811 0.000000
O O4 0.852903 0.648521 0.500000
O O5 0.793360 0.640094 0.751300
O O6 0.869486 0.714770 0.728370
O O7 0.799941 0.200060 0.753729
O O8 0.801989 0.090483 0.766153
O O9 0.767545 0.148349 0.000000
O O10 0.169565 0.066854 0.500000
O O11 0.088876 0.088876 0.303081
O O12 0.192458 0.086290 0.210626
O O13 0.139527 0.995998 0.288688
O O14 0.195309 0.195309 0.233837
O O15 0.243042 0.144175 0.000000
O O16 0.655293 0.534409 0.500000
O O17 0.590319 0.590319 0.314981
#
# Coordination Sequence:
#
# PCOD8318065 Si02
#       6
#    16  16  16  16  16  16
#     4  10  21  37  56  78 106 140 177 218 266 315
#     4  10  20  34  56  83 106 134 173 212 255 312
#     4   8  15  30  52  77 106 139 172 207 251 306
#     4  10  21  36  53  74 103 140 180 221 265 312
#     4  10  21  36  54  78 108 139 171 211 260 311
#     4   9  18  33  53  77 105 139 180 223 266 312
#
# _framework density 18.957080000000001
#
# number of rings (size 3 to 8) (size 9 to 14) (size 15 to 20)
#    0.000    2.500    0.000    3.500    0.000    6.000 
#    0.000    4.167    0.000    1.000    0.000    0.000 
#    0.000    0.000    0.000    0.000    0.000    0.000 
#
# Total GULP energy -1190251.556466 kJ/mol
# GULP energy per Si atom -12398.453713 kJ/mol
# Density = 1.891393 g / cm^3
# Si number density = 18.957080 Si / 1000 Ang^3
#
#
#
# Elastic Constant Matrix: (Units=GPa)
#
#
# Indices 1 2 3 4 5 6 
#
# 1 111.3903 85.8021 21.0178 0.0000 0.0000 0.0000
# 2 85.8021 111.3903 21.0178 0.0000 0.0000 0.0000
# 3 21.0178 21.0178 29.5250 0.0000 0.0000 0.0000
# 4 0.0000 0.0000 0.0000 27.1178 0.0000 0.0000
# 5 0.0000 0.0000 0.0000 0.0000 27.1178 0.0000
# 6 0.0000 0.0000 0.0000 0.0000 0.0000 25.7370
#
#
#
# Elastic Compliance Matrix: (Units=1/GPa)
#
#
# Indices 1 2 3 4 5 6 
#
# 1 0.022529 -0.016551 -0.004256 0.000000 0.000000 0.000000
# 2 -0.016551 0.022529 -0.004256 0.000000 0.000000 0.000000
# 3 -0.004256 -0.004256 0.039929 0.000000 0.000000 0.000000
# 4 0.000000 0.000000 0.000000 0.036876 0.000000 0.000000
# 5 0.000000 0.000000 0.000000 0.000000 0.036876 0.000000
# 6 0.000000 0.000000 0.000000 0.000000 0.000000 0.038855
#
#
# Mechanical properties :
#
#
# Convention : Reuss Voigt Hill
#
# Bulk Modulus (GPa) = 28.68430 56.44234 42.56332
# Shear Modulus (GPa) = 19.27967 24.29238 21.78602
#
# Velocity S-wave (km/s) = 3.19253 3.58361 3.39371
# Velocity P-wave (km/s) = 5.36225 6.85284 6.15285
#
# Compressibility (1/GPa) = 0.03486228
#
# Stress axis : x y z
#
# Youngs Moduli (GPa) = 44.38636 44.38636 25.04464
#
# Poissons Ratio (x) = 0.73464 0.10659
# Poissons Ratio (y) = 0.73464 0.10659
# Poissons Ratio (z) = 0.18890 0.18890
#
# Static dielectric constant tensor:
#      x y z
#    x 3.588940 0.000000 0.000000 
#    y 0.000000 3.588940 0.000000 
#    z 0.000000 0.000000 3.235290 
# 
# 
# High freq. dielectric constant tensor:
#      x y z
#    x 1.738980 0.000000 0.000000 
#    y 0.000000 1.738980 0.000000 
#    z 0.000000 0.000000 1.719010 
# 
# From -- ./inp_files/1958.got.cif
#   From: 2010.03.12/outbox.cif.g09.slc.cpg/sg136_1_cif.got.tgz:1958.got - 2010.04.06 18:39:43.
