data_PCOD8318822
_publ_section_title
;
Structure prediction by ZEFSAII (Michael W. Deem and Ramdas Pophale) SiO2 
 PCOD8318822
Probable space group: P 42/N M C
;
_chemical_formula_sum "Si O2"
_cell_formula_units_Z 48
_cell_length_a 9.036456
_cell_length_b 9.036456
_cell_length_c 26.374068
_cell_angle_alpha 90.000000
_cell_angle_beta 90.000000
_cell_angle_gamma 90.000000
_cell_volume 2153.641435
_symmetry_space_group_name_H-M "P 42/N M C"
_symmetry_group_IT_number 137
_space_group.IT_coordinate_system_code '2'
_symmetry_cell_setting 'tetragonal'
loop_
_space_group_symop_operation_xyz
x,y,z
1/2-y,x,1/2+z
1/2-x,1/2-y,z
y,1/2-x,1/2+z
1/2+x,-y,-z
-x,1/2+y,-z
1/2+y,1/2+x,1/2-z
-y,-x,1/2-z
-x,-y,-z
1/2+y,-x,1/2-z
1/2+x,1/2+y,-z
-y,1/2+x,1/2-z
1/2-x,y,z
x,1/2-y,z
1/2-y,1/2-x,1/2+z
y,x,1/2+z
loop_
_atom_site_type_symbol
_atom_site_label
_atom_site_fract_x
_atom_site_fract_y
_atom_site_fract_z
Si Si1 0.411783 0.416740 0.290728
Si Si2 0.970263 0.427675 0.609317
Si Si3 0.250000 0.573297 0.574846
Si Si4 0.070632 0.250000 0.965733
O O1 0.531509 0.468492 0.250000
O O2 0.250000 0.416625 0.264404
O O3 0.452939 0.250000 0.308683
O O4 0.395026 0.528814 0.337937
O O5 0.982325 0.250000 0.603579
O O6 0.120759 0.517317 0.610703
O O7 0.890328 0.496628 0.560584
O O8 0.250000 0.750000 0.564981
O O9 0.250000 0.478392 0.523627
O O10 0.250000 0.250000 0.961355
#
# Coordination Sequence:
#
# PCOD8318822 Si02
#       4
#    16  16   8   8
#     4  11  25  45  70  99 134 177 228 284 350 420
#     4  12  25  44  70 101 139 181 235 290 355 423
#     4  12  26  44  68 100 142 188 236 290 355 420
#     4  12  24  44  70 102 142 186 236 290 349 422
#
# _framework density 22.287834
#
# number of rings (size 3 to 8) (size 9 to 14) (size 15 to 20)
#    0.000    0.333    1.667    8.000    2.333    2.000 
#    0.000    0.000    0.000    0.000    0.000    0.000 
#    0.000    0.000    0.000    0.000    0.000    0.000 
#
# Total GULP energy -594922.253928 kJ/mol
# GULP energy per Si atom -12394.213624 kJ/mol
# Density = 2.223711 g / cm^3
# Si number density = 22.287834 Si / 1000 Ang^3
#
#
#
# Elastic Constant Matrix: (Units=GPa)
#
#
# Indices 1 2 3 4 5 6 
#
# 1 170.0364 45.1947 21.9899 0.0000 0.0000 0.0000
# 2 45.1947 170.0374 21.9902 0.0000 0.0000 0.0000
# 3 21.9899 21.9902 71.4637 0.0000 0.0000 0.0000
# 4 0.0000 0.0000 0.0000 40.5903 0.0000 0.0000
# 5 0.0000 0.0000 0.0000 0.0000 40.5903 0.0000
# 6 0.0000 0.0000 0.0000 0.0000 0.0000 34.0515
#
#
#
# Elastic Compliance Matrix: (Units=1/GPa)
#
#
# Indices 1 2 3 4 5 6 
#
# 1 0.006484 -0.001526 -0.001526 0.000000 0.000000 0.000000
# 2 -0.001526 0.006484 -0.001526 0.000000 0.000000 0.000000
# 3 -0.001526 -0.001526 0.014932 0.000000 0.000000 0.000000
# 4 0.000000 0.000000 0.000000 0.024636 0.000000 0.000000
# 5 0.000000 0.000000 0.000000 0.000000 0.024636 0.000000
# 6 0.000000 0.000000 0.000000 0.000000 0.000000 0.029367
#
#
# Mechanical properties :
#
#
# Convention : Reuss Voigt Hill
#
# Bulk Modulus (GPa) = 53.34637 65.54303 59.44470
# Shear Modulus (GPa) = 41.00272 44.53728 42.77000
#
# Velocity S-wave (km/s) = 4.29381 4.47506 4.38537
# Velocity P-wave (km/s) = 6.96919 7.49486 7.23680
#
# Compressibility (1/GPa) = 0.01874542
#
# Stress axis : x y z
#
# Youngs Moduli (GPa) = 154.22535 154.22610 66.97031
#
# Poissons Ratio (x) = 0.23537 0.10217
# Poissons Ratio (y) = 0.23536 0.10217
# Poissons Ratio (z) = 0.23528 0.23529
#
# Static dielectric constant tensor:
#      x y z
#    x 4.129170 0.000000 0.000000 
#    y 0.000000 4.129170 0.000000 
#    z 0.000000 0.000000 3.764260 
# 
# 
# High freq. dielectric constant tensor:
#      x y z
#    x 1.895470 0.000000 0.000000 
#    y 0.000000 1.895470 0.000000 
#    z 0.000000 0.000000 1.874050 
# 
# From -- ./inp_files/10054.got.cif
#   From: 2010.03.12/outbox.cif.g09.slc.cpg/sg137_6_cif.got.tgz:10054.got - 2010.04.08 09:34:49.
