data_PCOD8318816
_publ_section_title
;
Structure prediction by ZEFSAII (Michael W. Deem and Ramdas Pophale) SiO2 
 PCOD8318816
Probable space group: P 42/N M C
;
_chemical_formula_sum "Si O2"
_cell_formula_units_Z 60
_cell_length_a 16.295647
_cell_length_b 16.295647
_cell_length_c 11.907456
_cell_angle_alpha 90.000000
_cell_angle_beta 90.000000
_cell_angle_gamma 90.000000
_cell_volume 3162.002449
_symmetry_space_group_name_H-M "P 42/N M C"
_symmetry_group_IT_number 137
_space_group.IT_coordinate_system_code '2'
_symmetry_cell_setting 'tetragonal'
loop_
_space_group_symop_operation_xyz
x,y,z
1/2-y,x,1/2+z
1/2-x,1/2-y,z
y,1/2-x,1/2+z
1/2+x,-y,-z
-x,1/2+y,-z
1/2+y,1/2+x,1/2-z
-y,-x,1/2-z
-x,-y,-z
1/2+y,-x,1/2-z
1/2+x,1/2+y,-z
-y,1/2+x,1/2-z
1/2-x,y,z
x,1/2-y,z
1/2-y,1/2-x,1/2+z
y,x,1/2+z
loop_
_atom_site_type_symbol
_atom_site_label
_atom_site_fract_x
_atom_site_fract_y
_atom_site_fract_z
Si Si1 0.250000 0.422684 0.797979
Si Si2 0.410608 0.979964 0.858179
Si Si3 0.076809 0.250000 0.031123
Si Si4 0.890002 0.464383 0.565802
Si Si5 0.339949 0.839949 0.250000
Si Si6 0.250000 0.250000 0.914565
O O1 0.170853 0.466615 0.849059
O O2 0.250000 0.427952 0.664626
O O3 0.250000 0.328262 0.833642
O O4 0.422121 0.922121 0.750000
O O5 0.490780 0.036323 0.870292
O O6 0.404680 0.922722 0.967777
O O7 0.171159 0.250000 0.994583
O O8 0.033095 0.330589 0.984508
O O9 0.844598 0.408045 0.654622
O O10 0.349473 0.750000 0.305897
#
# Coordination Sequence:
#
# PCOD8318816 Si02
#       6
#     8  16   8  16   8   4
#     4  12  25  43  65  99 136 166 218 273 325 398
#     4  11  23  41  65  93 127 171 220 258 322 395
#     4  12  23  43  66  93 137 169 210 272 325 393
#     4  11  23  41  64  91 127 174 216 263 325 383
#     4  11  24  40  62  96 130 170 221 272 320 380
#     4  12  26  44  64 104 128 176 208 268 344 386
#
# _framework density 18.975315999999999
#
# number of rings (size 3 to 8) (size 9 to 14) (size 15 to 20)
#    0.000    0.667    8.000    0.400    1.867    0.000 
#    0.000    0.000    0.000    2.000    0.000    0.000 
#    0.000    0.000    0.000    0.000    0.000    0.000 
#
# Total GULP energy -744200.839810 kJ/mol
# GULP energy per Si atom -12403.347330 kJ/mol
# Density = 1.893213 g / cm^3
# Si number density = 18.975316 Si / 1000 Ang^3
#
#
#
# Elastic Constant Matrix: (Units=GPa)
#
#
# Indices 1 2 3 4 5 6 
#
# 1 102.2895 38.3145 46.8416 0.0000 0.0000 0.0000
# 2 38.3145 102.2895 46.8416 0.0000 0.0000 0.0000
# 3 46.8416 46.8416 108.8000 0.0000 0.0000 0.0000
# 4 0.0000 0.0000 0.0000 23.4993 0.0000 0.0000
# 5 0.0000 0.0000 0.0000 0.0000 23.4993 0.0000
# 6 0.0000 0.0000 0.0000 0.0000 0.0000 17.4088
#
#
#
# Elastic Compliance Matrix: (Units=1/GPa)
#
#
# Indices 1 2 3 4 5 6 
#
# 1 0.012802 -0.002829 -0.004294 0.000000 0.000000 0.000000
# 2 -0.002829 0.012802 -0.004294 0.000000 0.000000 0.000000
# 3 -0.004294 -0.004294 0.012888 0.000000 0.000000 0.000000
# 4 0.000000 0.000000 0.000000 0.042554 0.000000 0.000000
# 5 0.000000 0.000000 0.000000 0.000000 0.042554 0.000000
# 6 0.000000 0.000000 0.000000 0.000000 0.000000 0.057442
#
#
# Mechanical properties :
#
#
# Convention : Reuss Voigt Hill
#
# Bulk Modulus (GPa) = 63.85860 64.15275 64.00567
# Shear Modulus (GPa) = 23.91244 24.97357 24.44300
#
# Velocity S-wave (km/s) = 3.55376 3.63176 3.59297
# Velocity P-wave (km/s) = 7.11094 7.17413 7.14261
#
# Compressibility (1/GPa) = 0.01565960
#
# Stress axis : x y z
#
# Youngs Moduli (GPa) = 78.11244 78.11244 77.58987
#
# Poissons Ratio (x) = 0.22098 0.33315
# Poissons Ratio (y) = 0.22098 0.33315
# Poissons Ratio (z) = 0.33539 0.33539
#
# Static dielectric constant tensor:
#      x y z
#    x 3.511480 0.000000 0.000000 
#    y 0.000000 3.511480 0.000000 
#    z 0.000000 0.000000 3.485170 
# 
# 
# High freq. dielectric constant tensor:
#      x y z
#    x 1.745050 0.000000 0.000000 
#    y 0.000000 1.745050 0.000000 
#    z 0.000000 0.000000 1.745800 
# 
# From -- ./inp_files/3409.got.cif
#   From: 2010.03.12/outbox.cif.g09.slc.cpg/sg137_2_cif.got.tgz:3409.got - 2010.04.08 09:34:49.
