data_PCOD8318357
_publ_section_title
;
Structure prediction by ZEFSAII (Michael W. Deem and Ramdas Pophale) SiO2 
 PCOD8318357
Probable space group: P 42/N M C
;
_chemical_formula_sum "Si O2"
_cell_formula_units_Z 112
_cell_length_a 20.388542
_cell_length_b 20.388542
_cell_length_c 17.108328
_cell_angle_alpha 90.000000
_cell_angle_beta 90.000000
_cell_angle_gamma 90.000000
_cell_volume 7111.806116
_symmetry_space_group_name_H-M "P 42/N M C"
_symmetry_group_IT_number 137
_space_group.IT_coordinate_system_code '2'
_symmetry_cell_setting 'tetragonal'
loop_
_space_group_symop_operation_xyz
x,y,z
1/2-y,x,1/2+z
1/2-x,1/2-y,z
y,1/2-x,1/2+z
1/2+x,-y,-z
-x,1/2+y,-z
1/2+y,1/2+x,1/2-z
-y,-x,1/2-z
-x,-y,-z
1/2+y,-x,1/2-z
1/2+x,1/2+y,-z
-y,1/2+x,1/2-z
1/2-x,y,z
x,1/2-y,z
1/2-y,1/2-x,1/2+z
y,x,1/2+z
loop_
_atom_site_type_symbol
_atom_site_label
_atom_site_fract_x
_atom_site_fract_y
_atom_site_fract_z
Si Si1 0.825314 0.942406 0.201285
Si Si2 0.023332 0.380729 0.142739
Si Si3 0.417143 0.175219 0.819351
Si Si4 0.935329 0.437648 0.932044
Si Si5 0.094299 0.499695 0.210280
Si Si6 0.986582 0.823582 0.022256
Si Si7 0.486443 0.930682 0.595819
O O1 0.750000 0.941335 0.172938
O O2 0.827707 0.976195 0.287205
O O3 0.853736 0.868294 0.202240
O O4 0.870077 0.984565 0.143115
O O5 0.078970 0.432980 0.164594
O O6 0.043001 0.349216 0.059667
O O7 0.953009 0.417320 0.134725
O O8 0.402899 0.250000 0.794246
O O9 0.483171 0.150540 0.773301
O O10 0.430213 0.170524 0.912071
O O11 0.885729 0.447829 0.858149
O O12 0.007470 0.464669 0.906675
O O13 0.906617 0.475459 0.006921
O O14 0.947221 0.361850 0.952593
O O15 0.028175 0.528175 0.250000
O O16 0.010734 0.750000 0.011290
#
# Coordination Sequence:
#
# PCOD8318357 Si02
#       7
#    16  16  16  16  16  16  16
#     4  11  20  31  46  67  96 127 161 192 228 276
#     4   9  17  28  47  68  89 116 150 196 242 280
#     4  10  20  32  45  63  92 128 163 194 225 275
#     4   9  15  27  48  68  91 115 145 194 247 288
#     4  10  16  28  47  69  90 113 153 196 255 288
#     4  10  17  27  44  68  94 117 149 185 228 283
#     4   9  16  28  47  70  90 116 150 190 251 289
#
# _framework density 15.748461000000001
#
# number of rings (size 3 to 8) (size 9 to 14) (size 15 to 20)
#    0.000    2.286    2.857    4.286    0.000    0.286 
#    0.000    0.714    0.000    0.000    0.000    2.000 
#    0.000   38.571    0.000    0.000    0.000    0.000 
#
# Total GULP energy -1387487.510168 kJ/mol
# GULP energy per Si atom -12388.281341 kJ/mol
# Density = 1.571262 g / cm^3
# Si number density = 15.748461 Si / 1000 Ang^3
#
#
#
# Elastic Constant Matrix: (Units=GPa)
#
#
# Indices 1 2 3 4 5 6 
#
# 1 69.6379 43.7742 42.6683 0.0000 0.0000 0.0000
# 2 43.7742 69.6379 42.6683 0.0000 0.0000 0.0000
# 3 42.6683 42.6683 122.7132 0.0000 0.0000 0.0000
# 4 0.0000 0.0000 0.0000 15.3427 0.0000 0.0000
# 5 0.0000 0.0000 0.0000 0.0000 15.3427 0.0000
# 6 0.0000 0.0000 0.0000 0.0000 0.0000 13.1432
#
#
#
# Elastic Compliance Matrix: (Units=1/GPa)
#
#
# Indices 1 2 3 4 5 6 
#
# 1 0.025303 -0.013361 -0.004152 0.000000 0.000000 0.000000
# 2 -0.013361 0.025303 -0.004152 0.000000 0.000000 0.000000
# 3 -0.004152 -0.004152 0.011037 0.000000 0.000000 0.000000
# 4 0.000000 0.000000 0.000000 0.065178 0.000000 0.000000
# 5 0.000000 0.000000 0.000000 0.000000 0.065178 0.000000
# 6 0.000000 0.000000 0.000000 0.000000 0.000000 0.076085
#
#
# Mechanical properties :
#
#
# Convention : Reuss Voigt Hill
#
# Bulk Modulus (GPa) = 54.61155 57.80120 56.20637
# Shear Modulus (GPa) = 15.74716 17.62427 16.68572
#
# Velocity S-wave (km/s) = 3.16558 3.34894 3.25855
# Velocity P-wave (km/s) = 6.93641 7.19280 7.06577
#
# Compressibility (1/GPa) = 0.01831115
#
# Stress axis : x y z
#
# Youngs Moduli (GPa) = 39.52099 39.52099 90.60758
#
# Poissons Ratio (x) = 0.52805 0.37622
# Poissons Ratio (y) = 0.52805 0.37622
# Poissons Ratio (z) = 0.16410 0.16410
#
# Static dielectric constant tensor:
#      x y z
#    x 2.831990 0.000000 0.000000 
#    y 0.000000 2.831990 0.000000 
#    z 0.000000 0.000000 3.473480 
# 
# 
# High freq. dielectric constant tensor:
#      x y z
#    x 1.565620 0.000000 0.000000 
#    y 0.000000 1.565620 0.000000 
#    z 0.000000 0.000000 1.635030 
# 
# From -- ./inp_files/6790.got.cif
#   From: 2010.03.12/outbox.cif.g09.slc.cpg/sg137_4_cif.got.tgz:6790.got - 2010.04.08 09:34:49.
