data_PCOD8318355
_publ_section_title
;
Structure prediction by ZEFSAII (Michael W. Deem and Ramdas Pophale) SiO2 
 PCOD8318355
Probable space group: P 42/M N M
;
_chemical_formula_sum "Si O2"
_cell_formula_units_Z 96
_cell_length_a 24.000000
_cell_length_b 24.000000
_cell_length_c 9.000000
_cell_angle_alpha 90.000000
_cell_angle_beta 90.000000
_cell_angle_gamma 90.000000
_cell_volume 5184.000000
_symmetry_space_group_name_H-M "P 42/M N M"
_symmetry_group_IT_number 136
_symmetry_cell_setting 'tetragonal'
loop_
_space_group_symop_operation_xyz
x,y,z
1/2-y,1/2+x,1/2+z
-x,-y,z
1/2+y,1/2-x,1/2+z
1/2+x,1/2-y,1/2-z
1/2-x,1/2+y,1/2-z
y,x,-z
-y,-x,-z
-x,-y,-z
1/2+y,1/2-x,1/2-z
x,y,-z
1/2-y,1/2+x,1/2-z
1/2-x,1/2+y,1/2+z
1/2+x,1/2-y,1/2+z
-y,-x,z
y,x,z
loop_
_atom_site_type_symbol
_atom_site_label
_atom_site_fract_x
_atom_site_fract_y
_atom_site_fract_z
Si Si1 0.549814 0.638343 0.326879
Si Si2 0.920023 0.492526 0.825796
Si Si3 0.203541 0.481816 0.170909
Si Si4 0.255937 0.255937 0.322871
Si Si5 0.746739 0.617079 0.674345
Si Si6 0.810948 0.949004 0.324335
Si Si7 0.669780 0.330221 0.321678
O O1 0.534552 0.644673 0.500000
O O2 0.578727 0.578727 0.295018
O O3 0.593897 0.686037 0.278280
O O4 0.492837 0.642198 0.231972
O O5 0.948700 0.442435 0.736431
O O6 0.854585 0.488295 0.794425
O O7 0.933963 0.488014 0.000000
O O8 0.206579 0.423343 0.257520
O O9 0.251148 0.525221 0.218613
O O10 0.209763 0.465918 0.000000
O O11 0.248507 0.248507 0.500000
O O12 0.319534 0.243521 0.272150
O O13 0.214455 0.214455 0.238391
O O14 0.753157 0.615363 0.500000
O O15 0.818236 0.938844 0.500000
O O16 0.814964 0.891190 0.237973
O O17 0.670162 0.329839 0.500000
#
# Coordination Sequence:
#
# PCOD8318355 Si02
#       7
#    16  16  16   8  16  16   8
#     4   9  16  31  57  87 116 143 174 219 270 321
#     4  10  20  35  53  75 104 138 178 224 272 321
#     4   9  20  36  55  81 112 143 180 227 276 327
#     4  10  20  36  56  81 113 149 185 226 276 331
#     4   9  17  31  54  83 113 144 180 219 267 326
#     4  10  21  39  59  80 109 146 184 224 276 334
#     4  12  26  42  57  77 108 150 195 236 276 326
#
# _framework density 18.518519000000001
#
# number of rings (size 3 to 8) (size 9 to 14) (size 15 to 20)
#    0.000    2.333    0.833    2.250    0.000    4.333 
#    0.000    5.417    0.000    2.500    0.000    0.000 
#    0.000    0.000    0.000    0.000    0.000    0.000 
#
# Total GULP energy -1190309.301572 kJ/mol
# GULP energy per Si atom -12399.055225 kJ/mol
# Density = 1.847637 g / cm^3
# Si number density = 18.518519 Si / 1000 Ang^3
#
#
#
# Elastic Constant Matrix: (Units=GPa)
#
#
# Indices 1 2 3 4 5 6 
#
# 1 117.9437 49.9552 42.2078 0.0000 0.0000 0.0000
# 2 49.9552 117.9440 42.2081 0.0000 0.0000 0.0000
# 3 42.2078 42.2081 76.0976 0.0000 0.0000 0.0000
# 4 0.0000 0.0000 0.0000 32.4761 0.0000 0.0000
# 5 0.0000 0.0000 0.0000 0.0000 32.4760 0.0000
# 6 0.0000 0.0000 0.0000 0.0000 0.0000 21.4678
#
#
#
# Elastic Compliance Matrix: (Units=1/GPa)
#
#
# Indices 1 2 3 4 5 6 
#
# 1 0.011484 -0.003225 -0.004581 0.000000 0.000000 0.000000
# 2 -0.003225 0.011484 -0.004581 0.000000 0.000000 0.000000
# 3 -0.004581 -0.004581 0.018223 0.000000 0.000000 0.000000
# 4 0.000000 0.000000 0.000000 0.030792 0.000000 0.000000
# 5 0.000000 0.000000 0.000000 0.000000 0.030792 0.000000
# 6 0.000000 0.000000 0.000000 0.000000 0.000000 0.046581
#
#
# Mechanical properties :
#
#
# Convention : Reuss Voigt Hill
#
# Bulk Modulus (GPa) = 60.91194 64.52526 62.71860
# Shear Modulus (GPa) = 27.83949 29.12493 28.48221
#
# Velocity S-wave (km/s) = 3.88149 3.97009 3.92604
# Velocity P-wave (km/s) = 7.28367 7.47895 7.38196
#
# Compressibility (1/GPa) = 0.01641714
#
# Stress axis : x y z
#
# Youngs Moduli (GPa) = 87.07948 87.07951 54.87636
#
# Poissons Ratio (x) = 0.28079 0.25139
# Poissons Ratio (y) = 0.28079 0.25139
# Poissons Ratio (z) = 0.39891 0.39891
#
# Static dielectric constant tensor:
#      x y z
#    x 3.469750 0.000000 0.000000 
#    y 0.000000 3.469750 0.000000 
#    z 0.000000 0.000000 3.440050 
# 
# 
# High freq. dielectric constant tensor:
#      x y z
#    x 1.718710 0.000000 0.000000 
#    y 0.000000 1.718710 0.000000 
#    z 0.000000 0.000000 1.721300 
# 
# From -- ./inp_files/2058.got.cif
#   From: 2010.03.12/outbox.ucp.g09.slc.cvg/sg136_2_cif.got.tgz:2058.got - 2010.05.04 20:30:10.
