data_PCOD8318063
_publ_section_title
;
Structure prediction by ZEFSAII (Michael W. Deem and Ramdas Pophale) SiO2 
 PCOD8318063
Probable space group: P 42/M N M
;
_chemical_formula_sum "Si O2"
_cell_formula_units_Z 104
_cell_length_a 18.303640
_cell_length_b 18.303640
_cell_length_c 17.164363
_cell_angle_alpha 90.000000
_cell_angle_beta 90.000000
_cell_angle_gamma 90.000000
_cell_volume 5750.460458
_symmetry_space_group_name_H-M "P 42/M N M"
_symmetry_group_IT_number 136
_symmetry_cell_setting 'tetragonal'
loop_
_space_group_symop_operation_xyz
x,y,z
1/2-y,1/2+x,1/2+z
-x,-y,z
1/2+y,1/2-x,1/2+z
1/2+x,1/2-y,1/2-z
1/2-x,1/2+y,1/2-z
y,x,-z
-y,-x,-z
-x,-y,-z
1/2+y,1/2-x,1/2-z
x,y,-z
1/2-y,1/2+x,1/2-z
1/2-x,1/2+y,1/2+z
1/2+x,1/2-y,1/2+z
-y,-x,z
y,x,z
loop_
_atom_site_type_symbol
_atom_site_label
_atom_site_fract_x
_atom_site_fract_y
_atom_site_fract_z
Si Si1 0.733205 0.850815 0.785479
Si Si2 0.561284 0.438717 0.909370
Si Si3 0.580928 0.844112 0.412882
Si Si4 0.479998 0.708038 0.177741
Si Si5 0.635616 0.912834 0.087220
Si Si6 0.653106 0.987905 0.409793
Si Si7 0.762144 0.118948 0.216476
O O1 0.800542 0.800542 0.810412
O O2 0.763054 0.909093 0.723397
O O3 0.705767 0.891137 0.862587
O O4 0.666754 0.801385 0.755231
O O5 0.500000 0.500000 0.908990
O O6 0.629680 0.468682 0.860798
O O7 0.581065 0.418936 0.000000
O O8 0.610705 0.827658 0.500000
O O9 0.498734 0.870457 0.416116
O O10 0.623768 0.912107 0.372648
O O11 0.588905 0.770012 0.364268
O O12 0.493798 0.761019 0.104880
O O13 0.551525 0.710028 0.231724
O O14 0.560084 0.884610 0.126537
O O15 0.645327 0.880011 0.000000
O O16 0.633713 0.985586 0.500000
O O17 0.832186 0.167815 0.197184
#
# Coordination Sequence:
#
# PCOD8318063 Si02
#       7
#    16   8  16  16  16  16  16
#     4  11  22  37  57  83 111 146 194 242 291 353
#     4  11  26  46  66  90 117 155 207 254 304 359
#     4  10  20  35  56  83 117 154 189 229 282 348
#     4  12  21  39  62  84 114 155 193 244 295 350
#     4  10  20  36  57  82 115 152 188 231 285 346
#     4  10  20  34  55  86 118 149 187 229 283 349
#     4  11  23  37  56  84 114 148 194 243 294 350
#
# _framework density 18.085508000000001
#
# number of rings (size 3 to 8) (size 9 to 14) (size 15 to 20)
#    0.000    1.308    5.385    1.385    0.000    2.462 
#    0.000    0.000    0.000    0.000    0.000    0.000 
#    0.000    4.923    0.000    0.000    0.000    0.000 
#
# Total GULP energy -1289264.258783 kJ/mol
# GULP energy per Si atom -12396.771719 kJ/mol
# Density = 1.804434 g / cm^3
# Si number density = 18.085508 Si / 1000 Ang^3
#
#
#
# Elastic Constant Matrix: (Units=GPa)
#
#
# Indices 1 2 3 4 5 6 
#
# 1 108.3080 47.9453 44.3404 0.0000 0.0000 0.0000
# 2 47.9453 108.3081 44.3404 0.0000 0.0000 0.0000
# 3 44.3404 44.3404 76.7328 0.0000 0.0000 0.0000
# 4 0.0000 0.0000 0.0000 27.6364 0.0000 0.0000
# 5 0.0000 0.0000 0.0000 0.0000 27.6365 0.0000
# 6 0.0000 0.0000 0.0000 0.0000 0.0000 37.1942
#
#
#
# Elastic Compliance Matrix: (Units=1/GPa)
#
#
# Indices 1 2 3 4 5 6 
#
# 1 0.013045 -0.003522 -0.005503 0.000000 0.000000 0.000000
# 2 -0.003522 0.013045 -0.005503 0.000000 0.000000 0.000000
# 3 -0.005503 -0.005503 0.019392 0.000000 0.000000 0.000000
# 4 0.000000 0.000000 0.000000 0.036184 0.000000 0.000000
# 5 0.000000 0.000000 0.000000 0.000000 0.036184 0.000000
# 6 0.000000 0.000000 0.000000 0.000000 0.000000 0.026886
#
#
# Mechanical properties :
#
#
# Convention : Reuss Voigt Hill
#
# Bulk Modulus (GPa) = 60.87771 62.95566 61.91669
# Shear Modulus (GPa) = 27.89146 28.94160 28.41653
#
# Velocity S-wave (km/s) = 3.93135 4.00467 3.96818
# Velocity P-wave (km/s) = 7.37166 7.50125 7.43674
#
# Compressibility (1/GPa) = 0.01642637
#
# Stress axis : x y z
#
# Youngs Moduli (GPa) = 76.65911 76.65919 51.56762
#
# Poissons Ratio (x) = 0.26997 0.28377
# Poissons Ratio (y) = 0.26997 0.28377
# Poissons Ratio (z) = 0.42185 0.42185
#
# Static dielectric constant tensor:
#      x y z
#    x 3.388990 0.000000 0.000000 
#    y 0.000000 3.388990 0.000000 
#    z 0.000000 0.000000 3.342320 
# 
# 
# High freq. dielectric constant tensor:
#      x y z
#    x 1.705690 0.000000 0.000000 
#    y 0.000000 1.705690 0.000000 
#    z 0.000000 0.000000 1.693820 
# 
# From -- ./inp_files/6431.got.cif
#   From: 2010.03.12/outbox.cif.g09.slc.cpg/sg136_4_cif.got.tgz:6431.got - 2010.04.06 18:39:43.
