data_PCOD8318475
_publ_section_title
;
Structure prediction by ZEFSAII (Michael W. Deem and Ramdas Pophale) SiO2 
 PCOD8318475
Probable space group: P 42/N M C
;
_chemical_formula_sum "Si O2"
_cell_formula_units_Z 80
_cell_length_a 15.528573
_cell_length_b 15.528573
_cell_length_c 18.241836
_cell_angle_alpha 90.000000
_cell_angle_beta 90.000000
_cell_angle_gamma 90.000000
_cell_volume 4398.773935
_symmetry_space_group_name_H-M "P 42/N M C"
_symmetry_group_IT_number 137
_space_group.IT_coordinate_system_code '2'
_symmetry_cell_setting 'tetragonal'
loop_
_space_group_symop_operation_xyz
x,y,z
1/2-y,x,1/2+z
1/2-x,1/2-y,z
y,1/2-x,1/2+z
1/2+x,-y,-z
-x,1/2+y,-z
1/2+y,1/2+x,1/2-z
-y,-x,1/2-z
-x,-y,-z
1/2+y,-x,1/2-z
1/2+x,1/2+y,-z
-y,1/2+x,1/2-z
1/2-x,y,z
x,1/2-y,z
1/2-y,1/2-x,1/2+z
y,x,1/2+z
loop_
_atom_site_type_symbol
_atom_site_label
_atom_site_fract_x
_atom_site_fract_y
_atom_site_fract_z
Si Si1 0.345826 0.506911 0.125046
Si Si2 0.559792 0.847319 0.930481
Si Si3 0.346746 0.417036 0.271060
Si Si4 0.347385 0.523172 0.414310
Si Si5 0.655043 0.480972 0.279747
O O1 0.250000 0.532350 0.103424
O O2 0.366171 0.416812 0.084394
O O3 0.356581 0.495096 0.212678
O O4 0.401314 0.586002 0.097802
O O5 0.598390 0.750000 0.929534
O O6 0.487038 0.856880 0.867433
O O7 0.517805 0.868830 0.007806
O O8 0.250000 0.376139 0.262881
O O9 0.360024 0.450924 0.352817
O O10 0.422809 0.349437 0.254949
O O11 0.250000 0.559915 0.411988
O O12 0.582031 0.417970 0.250000
O O13 0.750000 0.444456 0.260553
#
# Coordination Sequence:
#
# PCOD8318475 Si02
#       5
#    16  16  16  16  16
#     4  10  19  31  50  75 101 128 161 202 246 296
#     4   9  19  35  53  71  94 130 169 204 248 295
#     4   9  18  33  54  77  99 128 166 206 248 295
#     4  10  19  33  52  72 100 134 164 198 244 301
#     4  10  20  35  54  74 100 134 172 212 250 294
#
# _framework density 18.186885
#
# number of rings (size 3 to 8) (size 9 to 14) (size 15 to 20)
#    0.000    2.400    0.000    3.600    0.000    1.400 
#    0.000    8.000    0.000   10.800    0.000    0.000 
#    0.000    0.000    0.000    0.000    0.000    0.000 
#
# Total GULP energy -991638.332044 kJ/mol
# GULP energy per Si atom -12395.479151 kJ/mol
# Density = 1.814549 g / cm^3
# Si number density = 18.186885 Si / 1000 Ang^3
#
#
#
# Elastic Constant Matrix: (Units=GPa)
#
#
# Indices 1 2 3 4 5 6 
#
# 1 77.7858 35.5237 40.9937 0.0000 0.0000 0.0000
# 2 35.5237 77.7823 40.9923 0.0000 0.0000 0.0000
# 3 40.9937 40.9923 130.8022 0.0000 0.0000 0.0000
# 4 0.0000 0.0000 0.0000 16.2727 0.0000 0.0000
# 5 0.0000 0.0000 0.0000 0.0000 16.2727 0.0000
# 6 0.0000 0.0000 0.0000 0.0000 0.0000 4.6970
#
#
#
# Elastic Compliance Matrix: (Units=1/GPa)
#
#
# Indices 1 2 3 4 5 6 
#
# 1 0.017538 -0.006125 -0.003577 0.000000 0.000000 0.000000
# 2 -0.006125 0.017539 -0.003577 0.000000 0.000000 0.000000
# 3 -0.003577 -0.003577 0.009887 0.000000 0.000000 0.000000
# 4 0.000000 0.000000 0.000000 0.061453 0.000000 0.000000
# 5 0.000000 0.000000 0.000000 0.000000 0.061453 0.000000
# 6 0.000000 0.000000 0.000000 0.000000 0.000000 0.212904
#
#
# Mechanical properties :
#
#
# Convention : Reuss Voigt Hill
#
# Bulk Modulus (GPa) = 54.32844 57.93219 56.13031
# Shear Modulus (GPa) = 12.09290 18.70584 15.39937
#
# Velocity S-wave (km/s) = 2.58141 3.21056 2.91302
# Velocity P-wave (km/s) = 6.23074 6.75770 6.49956
#
# Compressibility (1/GPa) = 0.01840657
#
# Stress axis : x y z
#
# Youngs Moduli (GPa) = 57.01926 57.01696 101.14091
#
# Poissons Ratio (x) = 0.34920 0.36179
# Poissons Ratio (y) = 0.34922 0.36178
# Poissons Ratio (z) = 0.20396 0.20395
#
# Static dielectric constant tensor:
#      x y z
#    x 3.283110 0.000000 0.000000 
#    y 0.000000 3.283110 0.000000 
#    z 0.000000 0.000000 3.555950 
# 
# 
# High freq. dielectric constant tensor:
#      x y z
#    x 1.694080 0.000000 0.000000 
#    y 0.000000 1.694080 0.000000 
#    z 0.000000 0.000000 1.714990 
# 
# From -- ./inp_files/7596.got.cif
#   From: 2010.03.12/outbox.cif.g09.slc.cpg/sg137_4_cif.got.tgz:7596.got - 2010.04.08 09:34:49.
