data_PCOD8318243
_publ_section_title
;
Structure prediction by ZEFSAII (Michael W. Deem and Ramdas Pophale) SiO2 
 PCOD8318243
Probable space group: P 42/M N M
;
_chemical_formula_sum "Si O2"
_cell_formula_units_Z 96
_cell_length_a 23.621927
_cell_length_b 23.621927
_cell_length_c 8.892159
_cell_angle_alpha 90.000000
_cell_angle_beta 90.000000
_cell_angle_gamma 90.000000
_cell_volume 4961.784131
_symmetry_space_group_name_H-M "P 42/M N M"
_symmetry_group_IT_number 136
_symmetry_cell_setting 'tetragonal'
loop_
_space_group_symop_operation_xyz
x,y,z
1/2-y,1/2+x,1/2+z
-x,-y,z
1/2+y,1/2-x,1/2+z
1/2+x,1/2-y,1/2-z
1/2-x,1/2+y,1/2-z
y,x,-z
-y,-x,-z
-x,-y,-z
1/2+y,1/2-x,1/2-z
x,y,-z
1/2-y,1/2+x,1/2-z
1/2-x,1/2+y,1/2+z
1/2+x,1/2-y,1/2+z
-y,-x,z
y,x,z
loop_
_atom_site_type_symbol
_atom_site_label
_atom_site_fract_x
_atom_site_fract_y
_atom_site_fract_z
Si Si1 0.313291 0.221424 0.176222
Si Si2 0.796611 0.569269 0.676767
Si Si3 0.078039 0.467926 0.678944
Si Si4 0.209342 0.013003 0.323850
Si Si5 0.859475 0.767307 0.327880
Si Si6 0.501002 0.407946 0.673509
O O1 0.274423 0.274423 0.226195
O O2 0.373090 0.227428 0.255565
O O3 0.283736 0.163058 0.225673
O O4 0.323032 0.220396 0.000000
O O5 0.790305 0.572408 0.500000
O O6 0.861537 0.558231 0.723715
O O7 0.758343 0.519195 0.737593
O O8 0.069994 0.472391 0.500000
O O9 0.072967 0.530247 0.751535
O O10 0.215882 0.002185 0.500000
O O11 0.217389 0.077849 0.277989
O O12 0.147210 0.993380 0.274802
O O13 0.856377 0.746788 0.500000
O O14 0.823581 0.823581 0.300533
O O15 0.506426 0.389995 0.500000
O O16 0.556462 0.443539 0.722831
O O17 0.445494 0.445494 0.698956
#
# Coordination Sequence:
#
# PCOD8318243 Si02
#       6
#    16  16  16  16  16  16
#     4  10  22  40  62  87 114 149 194 241 289 341
#     4  11  25  41  59  87 119 158 199 238 293 353
#     4  10  22  40  63  89 117 151 193 239 293 351
#     4  11  23  37  57  87 120 154 194 241 289 341
#     4   9  19  37  60  86 117 152 189 233 287 343
#     4   9  19  37  60  85 116 156 198 241 293 350
#
# _framework density 19.347878000000001
#
# number of rings (size 3 to 8) (size 9 to 14) (size 15 to 20)
#    0.000    2.000    0.000    3.500    2.333    7.000 
#    0.000    2.500    0.000    0.000    0.000    0.000 
#    0.000    0.000    0.000    0.000    0.000    0.000 
#
# Total GULP energy -1190789.900374 kJ/mol
# GULP energy per Si atom -12404.061462 kJ/mol
# Density = 1.930384 g / cm^3
# Si number density = 19.347878 Si / 1000 Ang^3
#
#
#
# Elastic Constant Matrix: (Units=GPa)
#
#
# Indices 1 2 3 4 5 6 
#
# 1 89.0109 56.9323 42.5915 0.0000 0.0000 0.0000
# 2 56.9323 89.0109 42.5915 0.0000 0.0000 0.0000
# 3 42.5915 42.5915 49.0400 0.0000 0.0000 0.0000
# 4 0.0000 0.0000 0.0000 32.1662 0.0000 0.0000
# 5 0.0000 0.0000 0.0000 0.0000 32.1662 0.0000
# 6 0.0000 0.0000 0.0000 0.0000 0.0000 20.8780
#
#
#
# Elastic Compliance Matrix: (Units=1/GPa)
#
#
# Indices 1 2 3 4 5 6 
#
# 1 0.022535 -0.008639 -0.012069 0.000000 0.000000 0.000000
# 2 -0.008639 0.022535 -0.012069 0.000000 0.000000 0.000000
# 3 -0.012069 -0.012069 0.041356 0.000000 0.000000 0.000000
# 4 0.000000 0.000000 0.000000 0.031089 0.000000 0.000000
# 5 0.000000 0.000000 0.000000 0.000000 0.031089 0.000000
# 6 0.000000 0.000000 0.000000 0.000000 0.000000 0.047897
#
#
# Mechanical properties :
#
#
# Convention : Reuss Voigt Hill
#
# Bulk Modulus (GPa) = 47.91091 56.81025 52.36058
# Shear Modulus (GPa) = 18.58663 22.70516 20.64590
#
# Velocity S-wave (km/s) = 3.10281 3.42939 3.27018
# Velocity P-wave (km/s) = 6.13622 6.71619 6.43274
#
# Compressibility (1/GPa) = 0.02087207
#
# Stress axis : x y z
#
# Youngs Moduli (GPa) = 44.37562 44.37562 24.18053
#
# Poissons Ratio (x) = 0.38334 0.29184
# Poissons Ratio (y) = 0.38334 0.29184
# Poissons Ratio (z) = 0.53557 0.53557
#
# Static dielectric constant tensor:
#      x y z
#    x 3.640060 0.000000 0.000000 
#    y 0.000000 3.640060 0.000000 
#    z 0.000000 0.000000 3.554430 
# 
# 
# High freq. dielectric constant tensor:
#      x y z
#    x 1.758480 0.000000 0.000000 
#    y 0.000000 1.758480 0.000000 
#    z 0.000000 0.000000 1.759310 
# 
# From -- ./inp_files/2005.got.cif
#   From: 2010.03.12/outbox.cif.g09.slc.cpg/sg136_2_cif.got.tgz:2005.got - 2010.04.06 18:39:43.
