data_PCOD8318182
_publ_section_title
;
Structure prediction by ZEFSAII (Michael W. Deem and Ramdas Pophale) SiO2 
 PCOD8318182
Probable space group: P 42/M N M
;
_chemical_formula_sum "Si O2"
_cell_formula_units_Z 80
_cell_length_a 12.569470
_cell_length_b 12.569470
_cell_length_c 28.252463
_cell_angle_alpha 90.000000
_cell_angle_beta 90.000000
_cell_angle_gamma 90.000000
_cell_volume 4463.651158
_symmetry_space_group_name_H-M "P 42/M N M"
_symmetry_group_IT_number 136
_symmetry_cell_setting 'tetragonal'
loop_
_space_group_symop_operation_xyz
x,y,z
1/2-y,1/2+x,1/2+z
-x,-y,z
1/2+y,1/2-x,1/2+z
1/2+x,1/2-y,1/2-z
1/2-x,1/2+y,1/2-z
y,x,-z
-y,-x,-z
-x,-y,-z
1/2+y,1/2-x,1/2-z
x,y,-z
1/2-y,1/2+x,1/2-z
1/2-x,1/2+y,1/2+z
1/2+x,1/2-y,1/2+z
-y,-x,z
y,x,z
loop_
_atom_site_type_symbol
_atom_site_label
_atom_site_fract_x
_atom_site_fract_y
_atom_site_fract_z
Si Si1 0.268169 0.556119 0.687529
Si Si2 0.495313 0.673561 0.786134
Si Si3 0.103864 0.570378 0.553587
Si Si4 0.503292 0.672351 0.588760
Si Si5 0.205900 0.383957 0.858563
O O1 0.351133 0.648868 0.697478
O O2 0.257750 0.494884 0.737553
O O3 0.310730 0.481352 0.645156
O O4 0.155210 0.604195 0.671575
O O5 0.380418 0.619583 0.793046
O O6 0.585742 0.585742 0.783180
O O7 0.512785 0.748605 0.831754
O O8 0.106651 0.613066 0.500000
O O9 0.213612 0.505335 0.563006
O O10 0.090051 0.671221 0.588050
O O11 0.000000 0.500000 0.562251
O O12 0.394925 0.605076 0.579186
O O13 0.605854 0.605854 0.570152
O O14 0.291801 0.291801 0.861646
#
# Coordination Sequence:
#
# PCOD8318182 Si02
#       5
#    16  16  16  16  16
#     4   8  14  27  46  71 103 132 157 194 252 314
#     4   9  16  28  48  71  97 130 165 204 248 293
#     4  10  21  37  53  70 101 139 171 209 263 322
#     4   9  17  31  55  85 109 130 166 216 266 319
#     4   9  18  33  51  72  98 128 170 214 250 303
#
# _framework density 17.922546000000001
#
# number of rings (size 3 to 8) (size 9 to 14) (size 15 to 20)
#    0.000    3.000    0.000    2.400    0.000    4.400 
#    7.200    2.000    0.000    1.800    0.000    2.800 
#    0.000    0.000    0.000    0.000    0.000    0.000 
#
# Total GULP energy -991330.783910 kJ/mol
# GULP energy per Si atom -12391.634799 kJ/mol
# Density = 1.788175 g / cm^3
# Si number density = 17.922546 Si / 1000 Ang^3
#
#
#
# Elastic Constant Matrix: (Units=GPa)
#
#
# Indices 1 2 3 4 5 6 
#
# 1 69.5851 28.9464 41.4817 0.0000 0.0000 0.0000
# 2 28.9464 69.5851 41.4817 0.0000 0.0000 0.0000
# 3 41.4817 41.4817 131.4284 0.0000 0.0000 0.0000
# 4 0.0000 0.0000 0.0000 23.7847 0.0000 0.0000
# 5 0.0000 0.0000 0.0000 0.0000 23.7847 0.0000
# 6 0.0000 0.0000 0.0000 0.0000 0.0000 16.6402
#
#
#
# Elastic Compliance Matrix: (Units=1/GPa)
#
#
# Indices 1 2 3 4 5 6 
#
# 1 0.019215 -0.005392 -0.004363 0.000000 0.000000 0.000000
# 2 -0.005392 0.019215 -0.004363 0.000000 0.000000 0.000000
# 3 -0.004363 -0.004363 0.010363 0.000000 0.000000 0.000000
# 4 0.000000 0.000000 0.000000 0.042044 0.000000 0.000000
# 5 0.000000 0.000000 0.000000 0.000000 0.042044 0.000000
# 6 0.000000 0.000000 0.000000 0.000000 0.000000 0.060096
#
#
# Mechanical properties :
#
#
# Convention : Reuss Voigt Hill
#
# Bulk Modulus (GPa) = 48.64578 54.93535 51.79057
# Shear Modulus (GPa) = 21.92377 23.42116 22.67247
#
# Velocity S-wave (km/s) = 3.50129 3.61889 3.56058
# Velocity P-wave (km/s) = 6.59898 6.94117 6.77224
#
# Compressibility (1/GPa) = 0.02055677
#
# Stress axis : x y z
#
# Youngs Moduli (GPa) = 52.04339 52.04339 96.50092
#
# Poissons Ratio (x) = 0.28064 0.42100
# Poissons Ratio (y) = 0.28064 0.42100
# Poissons Ratio (z) = 0.22705 0.22705
#
# Static dielectric constant tensor:
#      x y z
#    x 3.237000 0.000000 0.000000 
#    y 0.000000 3.237000 0.000000 
#    z 0.000000 0.000000 3.475430 
# 
# 
# High freq. dielectric constant tensor:
#      x y z
#    x 1.671370 0.000000 0.000000 
#    y 0.000000 1.671370 0.000000 
#    z 0.000000 0.000000 1.697820 
# 
# From -- ./inp_files/9518.got.cif
#   From: 2010.03.12/outbox.cif.g09.slc.cpg/sg136_5_cif.got.tgz:9518.got - 2010.04.06 18:39:43.
