data_PCOD8318899
_publ_section_title
;
Structure prediction by ZEFSAII (Michael W. Deem and Ramdas Pophale) SiO2 
 PCOD8318899
Probable space group: P 42/N C M
;
_chemical_formula_sum "Si O2"
_cell_formula_units_Z 96
_cell_length_a 25.654923
_cell_length_b 25.654923
_cell_length_c 10.150626
_cell_angle_alpha 90.000000
_cell_angle_beta 90.000000
_cell_angle_gamma 90.000000
_cell_volume 6680.889020
_symmetry_space_group_name_H-M "P 42/N C M"
_symmetry_group_IT_number 138
_space_group.IT_coordinate_system_code '2'
_symmetry_cell_setting 'tetragonal'
loop_
_space_group_symop_operation_xyz
x,y,z
1/2-y,x,1/2+z
1/2-x,1/2-y,z
y,1/2-x,1/2+z
1/2+x,-y,1/2-z
-x,1/2+y,1/2-z
1/2+y,1/2+x,-z
-y,-x,-z
-x,-y,-z
1/2+y,-x,1/2-z
1/2+x,1/2+y,-z
-y,1/2+x,1/2-z
1/2-x,y,1/2+z
x,1/2-y,1/2+z
1/2-y,1/2-x,z
y,x,z
loop_
_atom_site_type_symbol
_atom_site_label
_atom_site_fract_x
_atom_site_fract_y
_atom_site_fract_z
Si Si1 0.140321 0.445685 0.706348
Si Si2 0.351858 0.437725 0.516489
Si Si3 0.166453 0.250464 0.870226
Si Si4 0.256591 0.098694 0.617312
Si Si5 0.528083 0.059710 0.636181
Si Si6 0.429852 0.982569 0.112131
O O1 0.102223 0.397778 0.672545
O O2 0.193224 0.439055 0.621940
O O3 0.115124 0.500457 0.661785
O O4 0.151776 0.447604 0.861355
O O5 0.386269 0.386269 0.546717
O O6 0.294644 0.432811 0.577111
O O7 0.375518 0.488319 0.587888
O O8 0.191768 0.308233 0.879256
O O9 0.209437 0.209437 0.825089
O O10 0.121189 0.250404 0.763517
O O11 0.144650 0.234176 0.012433
O O12 0.559864 0.059864 0.500000
O O13 0.570549 0.047016 0.748469
O O14 0.484001 0.016000 0.636441
O O15 0.475791 0.024210 0.105849
O O16 0.439389 0.939389 0.000000
#
# Coordination Sequence:
#
# PCOD8318899 Si02
#       6
#    16  16  16  16  16  16
#     4  10  19  33  49  64  90 121 147 192 245 278
#     4  10  19  32  49  66  87 117 154 194 235 281
#     4  11  22  34  46  59  79 113 160 209 245 273
#     4  12  22  33  47  64  87 118 156 195 242 287
#     4   9  17  29  47  71  92 108 137 183 233 281
#     4   9  15  27  49  69  84 109 143 179 223 279
#
# _framework density 14.369344999999999
#
# number of rings (size 3 to 8) (size 9 to 14) (size 15 to 20)
#    0.000    1.833    3.333    3.000    0.000    2.667 
#    0.000    3.333    0.000    0.000    0.000    0.000 
#    0.000    0.000    0.000    0.000    0.000    5.000 
#
# Total GULP energy -1190352.680916 kJ/mol
# GULP energy per Si atom -12399.507093 kJ/mol
# Density = 1.433664 g / cm^3
# Si number density = 14.369345 Si / 1000 Ang^3
#
#
#
# Elastic Constant Matrix: (Units=GPa)
#
#
# Indices 1 2 3 4 5 6 
#
# 1 71.7323 52.7389 38.6667 0.0000 0.0000 0.0000
# 2 52.7389 71.7323 38.6667 0.0000 0.0000 0.0000
# 3 38.6667 38.6667 92.2344 0.0000 0.0000 0.0000
# 4 0.0000 0.0000 0.0000 22.7191 0.0000 0.0000
# 5 0.0000 0.0000 0.0000 0.0000 22.7191 0.0000
# 6 0.0000 0.0000 0.0000 0.0000 0.0000 29.6044
#
#
#
# Elastic Compliance Matrix: (Units=1/GPa)
#
#
# Indices 1 2 3 4 5 6 
#
# 1 0.031757 -0.020893 -0.004554 0.000000 0.000000 0.000000
# 2 -0.020893 0.031757 -0.004554 0.000000 0.000000 0.000000
# 3 -0.004554 -0.004554 0.014660 0.000000 0.000000 0.000000
# 4 0.000000 0.000000 0.000000 0.044016 0.000000 0.000000
# 5 0.000000 0.000000 0.000000 0.000000 0.044016 0.000000
# 6 0.000000 0.000000 0.000000 0.000000 0.000000 0.033779
#
#
# Mechanical properties :
#
#
# Convention : Reuss Voigt Hill
#
# Bulk Modulus (GPa) = 55.03417 55.09372 55.06394
# Shear Modulus (GPa) = 18.79387 22.05032 20.42210
#
# Velocity S-wave (km/s) = 3.62043 3.92157 3.77401
# Velocity P-wave (km/s) = 7.47393 7.67654 7.57591
#
# Compressibility (1/GPa) = 0.01817053
#
# Stress axis : x y z
#
# Youngs Moduli (GPa) = 31.48943 31.48943 68.21095
#
# Poissons Ratio (x) = 0.65791 0.31065
# Poissons Ratio (y) = 0.65791 0.31065
# Poissons Ratio (z) = 0.14341 0.14341
#
# Static dielectric constant tensor:
#      x y z
#    x 2.686060 0.000000 0.000000 
#    y 0.000000 2.686060 0.000000 
#    z 0.000000 0.000000 2.971310 
# 
# 
# High freq. dielectric constant tensor:
#      x y z
#    x 1.517660 0.000000 0.000000 
#    y 0.000000 1.517660 0.000000 
#    z 0.000000 0.000000 1.564700 
# 
# From -- ./inp_files/1819.got.cif
#   From: 2010.03.12/outbox.cif.g09.slc.cpg/sg138_1_cif.got.tgz:1819.got - 2010.04.08 09:41:05.
