data_PCOD8318755
_publ_section_title
;
Structure prediction by ZEFSAII (Michael W. Deem and Ramdas Pophale) SiO2 
 PCOD8318755
Probable space group: P 42/N M C
;
_chemical_formula_sum "Si O2"
_cell_formula_units_Z 112
_cell_length_a 23.406311
_cell_length_b 23.406311
_cell_length_c 12.208632
_cell_angle_alpha 90.000000
_cell_angle_beta 90.000000
_cell_angle_gamma 90.000000
_cell_volume 6688.564902
_symmetry_space_group_name_H-M "P 42/N M C"
_symmetry_group_IT_number 137
_space_group.IT_coordinate_system_code '2'
_symmetry_cell_setting 'tetragonal'
loop_
_space_group_symop_operation_xyz
x,y,z
1/2-y,x,1/2+z
1/2-x,1/2-y,z
y,1/2-x,1/2+z
1/2+x,-y,-z
-x,1/2+y,-z
1/2+y,1/2+x,1/2-z
-y,-x,1/2-z
-x,-y,-z
1/2+y,-x,1/2-z
1/2+x,1/2+y,-z
-y,1/2+x,1/2-z
1/2-x,y,z
x,1/2-y,z
1/2-y,1/2-x,1/2+z
y,x,1/2+z
loop_
_atom_site_type_symbol
_atom_site_label
_atom_site_fract_x
_atom_site_fract_y
_atom_site_fract_z
Si Si1 0.008704 0.814790 0.631241
Si Si2 0.183330 0.099930 0.477077
Si Si3 0.865732 0.928302 0.744719
Si Si4 0.567185 0.453530 0.066639
Si Si5 0.366673 0.475646 0.654931
Si Si6 0.994934 0.446640 0.856884
Si Si7 0.685781 0.909265 0.964141
O O1 0.031146 0.750000 0.604641
O O2 0.053082 0.865493 0.597097
O O3 0.997279 0.817982 0.761335
O O4 0.950719 0.827880 0.564929
O O5 0.250000 0.107393 0.500278
O O6 0.171537 0.104388 0.346971
O O7 0.160758 0.042280 0.538321
O O8 0.149558 0.151319 0.533605
O O9 0.923154 0.897000 0.784004
O O10 0.827242 0.942258 0.850169
O O11 0.883726 0.985819 0.680650
O O12 0.527419 0.411186 0.137445
O O13 0.547043 0.519407 0.083633
O O14 0.559167 0.440186 0.937659
O O15 0.981515 0.481515 0.750000
O O16 0.750000 0.888880 0.966414
#
# Coordination Sequence:
#
# PCOD8318755 Si02
#       7
#    16  16  16  16  16  16  16
#     4  11  21  35  51  74 109 145 175 211 269 327
#     4  11  22  36  53  73 101 140 188 232 274 312
#     4  11  19  34  52  76 102 135 172 230 278 323
#     4  11  20  30  50  80 104 133 173 217 262 333
#     4  11  20  34  52  76 104 132 176 222 277 322
#     4  11  18  28  50  77 105 131 170 218 270 329
#     4  10  22  37  52  71 103 145 189 227 265 312
#
# _framework density 16.744997999999999
#
# number of rings (size 3 to 8) (size 9 to 14) (size 15 to 20)
#    0.000    1.143    5.714    2.143    4.000    0.286 
#    0.000    0.000    0.000    1.714    0.000    0.000 
#    0.000    9.714    0.000    0.000    0.000    6.286 
#
# Total GULP energy -1387974.511144 kJ/mol
# GULP energy per Si atom -12392.629564 kJ/mol
# Density = 1.670689 g / cm^3
# Si number density = 16.744998 Si / 1000 Ang^3
#
#
#
# Elastic Constant Matrix: (Units=GPa)
#
#
# Indices 1 2 3 4 5 6 
#
# 1 80.9610 42.1248 30.2887 0.0000 0.0000 0.0000
# 2 42.1248 80.9610 30.2887 0.0000 0.0000 0.0000
# 3 30.2887 30.2887 96.1345 0.0000 0.0000 0.0000
# 4 0.0000 0.0000 0.0000 20.7883 0.0000 0.0000
# 5 0.0000 0.0000 0.0000 0.0000 20.7883 0.0000
# 6 0.0000 0.0000 0.0000 0.0000 0.0000 15.7746
#
#
#
# Elastic Compliance Matrix: (Units=1/GPa)
#
#
# Indices 1 2 3 4 5 6 
#
# 1 0.017682 -0.008067 -0.003029 0.000000 0.000000 0.000000
# 2 -0.008067 0.017682 -0.003029 0.000000 0.000000 0.000000
# 3 -0.003029 -0.003029 0.012311 0.000000 0.000000 0.000000
# 4 0.000000 0.000000 0.000000 0.048104 0.000000 0.000000
# 5 0.000000 0.000000 0.000000 0.000000 0.048104 0.000000
# 6 0.000000 0.000000 0.000000 0.000000 0.000000 0.063393
#
#
# Mechanical properties :
#
#
# Convention : Reuss Voigt Hill
#
# Bulk Modulus (GPa) = 51.48292 51.49567 51.48930
# Shear Modulus (GPa) = 20.66092 21.82721 21.24406
#
# Velocity S-wave (km/s) = 3.51644 3.61433 3.56572
# Velocity P-wave (km/s) = 6.87744 6.94532 6.91146
#
# Compressibility (1/GPa) = 0.01942392
#
# Stress axis : x y z
#
# Youngs Moduli (GPa) = 56.55388 56.55388 81.22769
#
# Poissons Ratio (x) = 0.45621 0.24608
# Poissons Ratio (y) = 0.45621 0.24608
# Poissons Ratio (z) = 0.17133 0.17133
#
# Static dielectric constant tensor:
#      x y z
#    x 3.002300 0.000000 0.000000 
#    y 0.000000 3.002300 0.000000 
#    z 0.000000 0.000000 3.549330 
# 
# 
# High freq. dielectric constant tensor:
#      x y z
#    x 1.610990 0.000000 0.000000 
#    y 0.000000 1.610990 0.000000 
#    z 0.000000 0.000000 1.675440 
# 
# From -- ./inp_files/3970.got.cif
#   From: 2010.03.12/outbox.cif.g09.slc.cpg/sg137_2_cif.got.tgz:3970.got - 2010.04.08 09:34:49.
