data_PCOD8318174
_publ_section_title
;
Structure prediction by ZEFSAII (Michael W. Deem and Ramdas Pophale) SiO2 
 PCOD8318174
Probable space group: P 42/M N M
;
_chemical_formula_sum "Si O2"
_cell_formula_units_Z 96
_cell_length_a 16.455207
_cell_length_b 16.455207
_cell_length_c 20.018988
_cell_angle_alpha 90.000000
_cell_angle_beta 90.000000
_cell_angle_gamma 90.000000
_cell_volume 5420.618202
_symmetry_space_group_name_H-M "P 42/M N M"
_symmetry_group_IT_number 136
_symmetry_cell_setting 'tetragonal'
loop_
_space_group_symop_operation_xyz
x,y,z
1/2-y,1/2+x,1/2+z
-x,-y,z
1/2+y,1/2-x,1/2+z
1/2+x,1/2-y,1/2-z
1/2-x,1/2+y,1/2-z
y,x,-z
-y,-x,-z
-x,-y,-z
1/2+y,1/2-x,1/2-z
x,y,-z
1/2-y,1/2+x,1/2-z
1/2-x,1/2+y,1/2+z
1/2+x,1/2-y,1/2+z
-y,-x,z
y,x,z
loop_
_atom_site_type_symbol
_atom_site_label
_atom_site_fract_x
_atom_site_fract_y
_atom_site_fract_z
Si Si1 0.924305 0.789417 0.679146
Si Si2 0.681650 0.810646 0.158448
Si Si3 0.798402 0.067699 0.578098
Si Si4 0.257221 0.018100 0.821506
Si Si5 0.210281 0.338400 0.310643
Si Si6 0.504327 0.629035 0.571788
O O1 0.867013 0.867013 0.691297
O O2 0.869604 0.709868 0.665090
O O3 0.982543 0.806666 0.616561
O O4 0.977056 0.773388 0.745340
O O5 0.770431 0.770431 0.143113
O O6 0.616430 0.780484 0.104164
O O7 0.654337 0.782261 0.231185
O O8 0.682299 0.908683 0.158639
O O9 0.786882 0.049257 0.500000
O O10 0.879277 0.120724 0.591392
O O11 0.296636 0.930332 0.837942
O O12 0.181531 0.029924 0.868834
O O13 0.290583 0.290583 0.337104
O O14 0.507387 0.676266 0.500000
O O15 0.445537 0.554464 0.563416
O O16 0.594292 0.594292 0.588672
#
# Coordination Sequence:
#
# PCOD8318174 Si02
#       6
#    16  16  16  16  16  16
#     4  10  21  36  55  82 112 143 183 233 278 324
#     4   9  18  33  51  77 108 138 181 231 274 321
#     4  10  21  38  59  81 111 149 184 229 287 337
#     4  11  18  31  57  79 102 143 187 223 266 328
#     4   9  18  33  53  78 110 143 177 223 274 320
#     4   9  18  30  43  68 106 136 163 211 269 319
#
# _framework density 17.710156999999999
#
# number of rings (size 3 to 8) (size 9 to 14) (size 15 to 20)
#    0.000    2.333    1.667    3.500    0.000    2.000 
#    0.000    4.167    0.000    2.000    0.000    0.000 
#    0.000    0.000    0.000    0.000    0.000    0.000 
#
# Total GULP energy -1189720.446248 kJ/mol
# GULP energy per Si atom -12392.921315 kJ/mol
# Density = 1.766985 g / cm^3
# Si number density = 17.710157 Si / 1000 Ang^3
#
#
#
# Elastic Constant Matrix: (Units=GPa)
#
#
# Indices 1 2 3 4 5 6 
#
# 1 98.6275 37.7295 30.4661 0.0000 0.0000 0.0000
# 2 37.7295 98.6275 30.4661 0.0000 0.0000 0.0000
# 3 30.4661 30.4661 71.6968 0.0000 0.0000 0.0000
# 4 0.0000 0.0000 0.0000 31.4828 0.0000 0.0000
# 5 0.0000 0.0000 0.0000 0.0000 31.4828 0.0000
# 6 0.0000 0.0000 0.0000 0.0000 0.0000 16.8787
#
#
#
# Elastic Compliance Matrix: (Units=1/GPa)
#
#
# Indices 1 2 3 4 5 6 
#
# 1 0.012737 -0.003684 -0.003847 0.000000 0.000000 0.000000
# 2 -0.003684 0.012737 -0.003847 0.000000 0.000000 0.000000
# 3 -0.003847 -0.003847 0.017217 0.000000 0.000000 0.000000
# 4 0.000000 0.000000 0.000000 0.031763 0.000000 0.000000
# 5 0.000000 0.000000 0.000000 0.000000 0.031763 0.000000
# 6 0.000000 0.000000 0.000000 0.000000 0.000000 0.059246
#
#
# Mechanical properties :
#
#
# Convention : Reuss Voigt Hill
#
# Bulk Modulus (GPa) = 50.16267 51.80834 50.98551
# Shear Modulus (GPa) = 25.65898 27.32153 26.49026
#
# Velocity S-wave (km/s) = 3.81048 3.93199 3.87171
# Velocity P-wave (km/s) = 6.90980 7.06619 6.98843
#
# Compressibility (1/GPa) = 0.01993514
#
# Stress axis : x y z
#
# Youngs Moduli (GPa) = 78.51284 78.51284 58.08278
#
# Poissons Ratio (x) = 0.28925 0.22343
# Poissons Ratio (y) = 0.28925 0.22343
# Poissons Ratio (z) = 0.30202 0.30202
#
# Static dielectric constant tensor:
#      x y z
#    x 3.184540 0.000000 0.000000 
#    y 0.000000 3.184540 0.000000 
#    z 0.000000 0.000000 3.223640 
# 
# 
# High freq. dielectric constant tensor:
#      x y z
#    x 1.675200 0.000000 0.000000 
#    y 0.000000 1.675200 0.000000 
#    z 0.000000 0.000000 1.676000 
# 
# From -- ./inp_files/6311.got.cif
#   From: 2010.03.12/outbox.cif.g09.slc.cpg/sg136_4_cif.got.tgz:6311.got - 2010.04.06 18:39:43.
