data_PCOD8318468
_publ_section_title
;
Structure prediction by ZEFSAII (Michael W. Deem and Ramdas Pophale) SiO2 
 PCOD8318468
Probable space group: P 42/N M C
;
_chemical_formula_sum "Si O2"
_cell_formula_units_Z 64
_cell_length_a 18.396915
_cell_length_b 18.396915
_cell_length_c 10.398690
_cell_angle_alpha 90.000000
_cell_angle_beta 90.000000
_cell_angle_gamma 90.000000
_cell_volume 3519.400043
_symmetry_space_group_name_H-M "P 42/N M C"
_symmetry_group_IT_number 137
_space_group.IT_coordinate_system_code '2'
_symmetry_cell_setting 'tetragonal'
loop_
_space_group_symop_operation_xyz
x,y,z
1/2-y,x,1/2+z
1/2-x,1/2-y,z
y,1/2-x,1/2+z
1/2+x,-y,-z
-x,1/2+y,-z
1/2+y,1/2+x,1/2-z
-y,-x,1/2-z
-x,-y,-z
1/2+y,-x,1/2-z
1/2+x,1/2+y,-z
-y,1/2+x,1/2-z
1/2-x,y,z
x,1/2-y,z
1/2-y,1/2-x,1/2+z
y,x,1/2+z
loop_
_atom_site_type_symbol
_atom_site_label
_atom_site_fract_x
_atom_site_fract_y
_atom_site_fract_z
Si Si1 0.834902 0.665307 0.896781
Si Si2 0.836460 0.416769 0.636901
Si Si3 0.163729 0.081773 0.353345
Si Si4 0.836436 0.169048 0.390675
O O1 0.750000 0.651131 0.920148
O O2 0.850676 0.750000 0.872888
O O3 0.865385 0.622106 0.773624
O O4 0.877340 0.634271 0.020325
O O5 0.869558 0.369558 0.750000
O O6 0.750000 0.411661 0.647564
O O7 0.864266 0.499234 0.646814
O O8 0.864820 0.384915 0.501070
O O9 0.250000 0.085821 0.354902
O O10 0.860889 0.139112 0.250000
O O11 0.750000 0.173204 0.391235
O O12 0.868160 0.250000 0.416359
#
# Coordination Sequence:
#
# PCOD8318468 Si02
#       4
#    16  16  16  16
#     4   9  16  30  53  75  94 119 151 190 240 292
#     4  10  19  31  47  69  98 129 161 196 233 274
#     4   9  18  31  48  73  99 121 154 198 235 276
#     4   8  14  26  45  67  89 117 157 199 232 265
#
# _framework density 18.184918
#
# number of rings (size 3 to 8) (size 9 to 14) (size 15 to 20)
#    0.000    3.000    0.000    2.250    0.000    4.250 
#    0.000    3.750    0.000    9.000    0.000    0.000 
#    0.000    0.000    0.000    0.000    0.000    0.000 
#
# Total GULP energy -793444.351603 kJ/mol
# GULP energy per Si atom -12397.567994 kJ/mol
# Density = 1.814353 g / cm^3
# Si number density = 18.184918 Si / 1000 Ang^3
#
#
#
# Elastic Constant Matrix: (Units=GPa)
#
#
# Indices 1 2 3 4 5 6 
#
# 1 54.6439 28.1156 52.3806 0.0000 0.0000 0.0000
# 2 28.1156 54.6441 52.3805 0.0000 0.0000 0.0000
# 3 52.3806 52.3805 184.3653 0.0000 0.0000 0.0000
# 4 0.0000 0.0000 0.0000 2.6839 0.0000 0.0000
# 5 0.0000 0.0000 0.0000 0.0000 2.6838 0.0000
# 6 0.0000 0.0000 0.0000 0.0000 0.0000 10.9040
#
#
#
# Elastic Compliance Matrix: (Units=1/GPa)
#
#
# Indices 1 2 3 4 5 6 
#
# 1 0.028283 -0.009413 -0.005361 0.000000 0.000000 0.000000
# 2 -0.009413 0.028282 -0.005361 0.000000 0.000000 0.000000
# 3 -0.005361 -0.005361 0.008470 0.000000 0.000000 0.000000
# 4 0.000000 0.000000 0.000000 0.372589 0.000000 0.000000
# 5 0.000000 0.000000 0.000000 0.000000 0.372600 0.000000
# 6 0.000000 0.000000 0.000000 0.000000 0.000000 0.091709
#
#
# Mechanical properties :
#
#
# Convention : Reuss Voigt Hill
#
# Bulk Modulus (GPa) = 40.37953 62.15631 51.26792
# Shear Modulus (GPa) = 5.26062 13.97279 9.61670
#
# Velocity S-wave (km/s) = 1.70268 2.77496 2.30212
# Velocity P-wave (km/s) = 5.11064 6.67245 5.94307
#
# Compressibility (1/GPa) = 0.02476502
#
# Stress axis : x y z
#
# Youngs Moduli (GPa) = 35.35749 35.35768 118.05940
#
# Poissons Ratio (x) = 0.33282 0.63293
# Poissons Ratio (y) = 0.33282 0.63292
# Poissons Ratio (z) = 0.18955 0.18955
#
# Static dielectric constant tensor:
#      x y z
#    x 3.149110 0.000000 0.000000 
#    y 0.000000 3.149110 0.000000 
#    z 0.000000 0.000000 3.773140 
# 
# 
# High freq. dielectric constant tensor:
#      x y z
#    x 1.670850 0.000000 0.000000 
#    y 0.000000 1.670850 0.000000 
#    z 0.000000 0.000000 1.725350 
# 
# From -- ./inp_files/1821.got.cif
#   From: 2010.03.12/outbox.cif.g09.slc.cpg/sg137_1_cif.got.tgz:1821.got - 2010.04.08 09:34:49.
