data_PCOD8318796
_publ_section_title
;
Structure prediction by ZEFSAII (Michael W. Deem and Ramdas Pophale) SiO2 
 PCOD8318796
Probable space group: P 42/N M C
;
_chemical_formula_sum "Si O2"
_cell_formula_units_Z 112
_cell_length_a 14.447197
_cell_length_b 14.447197
_cell_length_c 28.460169
_cell_angle_alpha 90.000000
_cell_angle_beta 90.000000
_cell_angle_gamma 90.000000
_cell_volume 5940.249197
_symmetry_space_group_name_H-M "P 42/N M C"
_symmetry_group_IT_number 137
_space_group.IT_coordinate_system_code '2'
_symmetry_cell_setting 'tetragonal'
loop_
_space_group_symop_operation_xyz
x,y,z
1/2-y,x,1/2+z
1/2-x,1/2-y,z
y,1/2-x,1/2+z
1/2+x,-y,-z
-x,1/2+y,-z
1/2+y,1/2+x,1/2-z
-y,-x,1/2-z
-x,-y,-z
1/2+y,-x,1/2-z
1/2+x,1/2+y,-z
-y,1/2+x,1/2-z
1/2-x,y,z
x,1/2-y,z
1/2-y,1/2-x,1/2+z
y,x,1/2+z
loop_
_atom_site_type_symbol
_atom_site_label
_atom_site_fract_x
_atom_site_fract_y
_atom_site_fract_z
Si Si1 0.092123 0.851327 0.880220
Si Si2 0.357787 0.992767 0.423620
Si Si3 0.097616 0.145097 0.169184
Si Si4 0.352831 0.013095 0.087591
Si Si5 0.647007 0.551160 0.135725
Si Si6 0.859622 0.646024 0.228349
Si Si7 0.470079 0.146457 0.030945
O O1 0.142688 0.750000 0.875976
O O2 0.010241 0.854031 0.842499
O O3 0.054867 0.863759 0.933018
O O4 0.155363 0.939619 0.868974
O O5 0.250000 0.981122 0.409364
O O6 0.399738 0.088370 0.404746
O O7 0.371383 0.990864 0.479412
O O8 0.419343 0.910114 0.402203
O O9 0.138010 0.250000 0.164886
O O10 0.110880 0.103453 0.221326
O O11 0.150149 0.077697 0.133501
O O12 0.250000 0.982026 0.074305
O O13 0.392751 0.071032 0.043609
O O14 0.750000 0.591793 0.130700
O O15 0.604242 0.579578 0.186480
O O16 0.750000 0.642428 0.230031
O O17 0.895659 0.750000 0.218802
O O18 0.427195 0.250000 0.034984
#
# Coordination Sequence:
#
# PCOD8318796 Si02
#       7
#    16  16  16  16  16  16  16
#     4   9  18  35  56  82 111 141 182 230 281 336
#     4  11  23  40  56  76 114 155 188 228 274 323
#     4   9  17  33  58  83 110 140 176 229 288 333
#     4  11  21  34  57  87 112 140 183 228 278 333
#     4  11  22  36  57  81 108 148 191 228 275 332
#     4   9  18  32  51  80 113 142 178 226 275 327
#     4   9  19  37  59  79 109 146 180 225 281 329
#
# _framework density 18.854427000000001
#
# number of rings (size 3 to 8) (size 9 to 14) (size 15 to 20)
#    0.000    2.143    2.857    2.571    0.000    4.286 
#    0.000    1.429    0.000    2.571    0.000    4.000 
#    0.000    3.429    0.000    0.000    0.000    0.000 
#
# Total GULP energy -1388261.042758 kJ/mol
# GULP energy per Si atom -12395.187882 kJ/mol
# Density = 1.881151 g / cm^3
# Si number density = 18.854427 Si / 1000 Ang^3
#
#
#
# Elastic Constant Matrix: (Units=GPa)
#
#
# Indices 1 2 3 4 5 6 
#
# 1 100.6375 34.0006 32.0812 0.0000 0.0000 0.0000
# 2 34.0006 100.6375 32.0812 0.0000 0.0000 0.0000
# 3 32.0812 32.0812 101.7679 0.0000 0.0000 0.0000
# 4 0.0000 0.0000 0.0000 13.4869 0.0000 0.0000
# 5 0.0000 0.0000 0.0000 0.0000 13.4869 0.0000
# 6 0.0000 0.0000 0.0000 0.0000 0.0000 12.1952
#
#
#
# Elastic Compliance Matrix: (Units=1/GPa)
#
#
# Indices 1 2 3 4 5 6 
#
# 1 0.011874 -0.003133 -0.002755 0.000000 0.000000 0.000000
# 2 -0.003133 0.011874 -0.002755 0.000000 0.000000 0.000000
# 3 -0.002755 -0.002755 0.011563 0.000000 0.000000 0.000000
# 4 0.000000 0.000000 0.000000 0.074146 0.000000 0.000000
# 5 0.000000 0.000000 0.000000 0.000000 0.074146 0.000000
# 6 0.000000 0.000000 0.000000 0.000000 0.000000 0.081999
#
#
# Mechanical properties :
#
#
# Convention : Reuss Voigt Hill
#
# Bulk Modulus (GPa) = 55.48478 55.48544 55.48511
# Shear Modulus (GPa) = 17.30720 21.49246 19.39983
#
# Velocity S-wave (km/s) = 3.03304 3.37993 3.21117
# Velocity P-wave (km/s) = 6.46201 6.68761 6.57578
#
# Compressibility (1/GPa) = 0.01802296
#
# Stress axis : x y z
#
# Youngs Moduli (GPa) = 84.22087 84.22087 86.47945
#
# Poissons Ratio (x) = 0.26388 0.23828
# Poissons Ratio (y) = 0.26388 0.23828
# Poissons Ratio (z) = 0.23205 0.23205
#
# Static dielectric constant tensor:
#      x y z
#    x 3.367940 0.000000 0.000000 
#    y 0.000000 3.367940 0.000000 
#    z 0.000000 0.000000 3.593760 
# 
# 
# High freq. dielectric constant tensor:
#      x y z
#    x 1.717670 0.000000 0.000000 
#    y 0.000000 1.717670 0.000000 
#    z 0.000000 0.000000 1.734200 
# 
# From -- ./inp_files/10723.got.cif
#   From: 2010.03.12/outbox.cif.g09.slc.cpg/sg137_6_cif.got.tgz:10723.got - 2010.04.08 09:34:49.
