data_PCOD8318146
_publ_section_title
;
Structure prediction by ZEFSAII (Michael W. Deem and Ramdas Pophale) SiO2 
 PCOD8318146
Probable space group: P 42/M N M
;
_chemical_formula_sum "Si O2"
_cell_formula_units_Z 64
_cell_length_a 12.042307
_cell_length_b 12.042307
_cell_length_c 22.469780
_cell_angle_alpha 90.000000
_cell_angle_beta 90.000000
_cell_angle_gamma 90.000000
_cell_volume 3258.503634
_symmetry_space_group_name_H-M "P 42/M N M"
_symmetry_group_IT_number 136
_symmetry_cell_setting 'tetragonal'
loop_
_space_group_symop_operation_xyz
x,y,z
1/2-y,1/2+x,1/2+z
-x,-y,z
1/2+y,1/2-x,1/2+z
1/2+x,1/2-y,1/2-z
1/2-x,1/2+y,1/2-z
y,x,-z
-y,-x,-z
-x,-y,-z
1/2+y,1/2-x,1/2-z
x,y,-z
1/2-y,1/2+x,1/2-z
1/2-x,1/2+y,1/2+z
1/2+x,1/2-y,1/2+z
-y,-x,z
y,x,z
loop_
_atom_site_type_symbol
_atom_site_label
_atom_site_fract_x
_atom_site_fract_y
_atom_site_fract_z
Si Si1 0.827420 0.472654 0.084571
Si Si2 0.334281 0.030813 0.725616
Si Si3 0.141655 0.328459 0.000000
Si Si4 0.585389 0.414612 0.911899
Si Si5 0.288874 0.901533 0.000000
Si Si6 0.587959 0.412042 0.229063
O O1 0.843273 0.476755 0.154826
O O2 0.862493 0.591446 0.057899
O O3 0.703079 0.450378 0.063412
O O4 0.892256 0.366854 0.058347
O O5 0.413416 0.129664 0.747263
O O6 0.211494 0.056398 0.750050
O O7 0.249321 0.249321 0.000000
O O8 0.030949 0.250476 0.000000
O O9 0.500000 0.500000 0.939801
O O10 0.583871 0.416130 0.841249
O O11 0.183478 0.816523 0.000000
O O12 0.500000 0.500000 0.256423
#
# Coordination Sequence:
#
# PCOD8318146 Si02
#       6
#    16  16   8   8   8   8
#     4  10  20  40  62  92 122 158 202 261 315 374
#     4  10  23  38  64  91 124 167 215 262 316 375
#     4  11  25  39  63  93 123 158 207 264 315 372
#     4   9  16  31  60  91 125 151 188 254 323 363
#     4  11  23  40  64  86 122 168 207 250 312 376
#     4   9  20  38  57  87 126 165 205 259 311 365
#
# _framework density 19.640917000000002
#
# number of rings (size 3 to 8) (size 9 to 14) (size 15 to 20)
#    0.000    2.000    1.250    2.250    8.750    1.250 
#    0.000    1.875    0.000    0.000    0.000    0.000 
#    0.000    0.000    0.000    0.000    0.000    0.000 
#
# Total GULP energy -793254.576862 kJ/mol
# GULP energy per Si atom -12394.602763 kJ/mol
# Density = 1.959621 g / cm^3
# Si number density = 19.640917 Si / 1000 Ang^3
#
#
#
# Elastic Constant Matrix: (Units=GPa)
#
#
# Indices 1 2 3 4 5 6 
#
# 1 171.9041 57.8830 34.9140 0.0000 0.0000 0.0000
# 2 57.8830 171.9042 34.9140 0.0000 0.0000 0.0000
# 3 34.9140 34.9140 100.2506 0.0000 0.0000 0.0000
# 4 0.0000 0.0000 0.0000 15.5388 0.0000 0.0000
# 5 0.0000 0.0000 0.0000 0.0000 15.5376 0.0000
# 6 0.0000 0.0000 0.0000 0.0000 0.0000 34.1812
#
#
#
# Elastic Compliance Matrix: (Units=1/GPa)
#
#
# Indices 1 2 3 4 5 6 
#
# 1 0.006819 -0.001952 -0.001695 0.000000 0.000000 0.000000
# 2 -0.001952 0.006819 -0.001695 0.000000 0.000000 0.000000
# 3 -0.001695 -0.001695 0.011156 0.000000 0.000000 0.000000
# 4 0.000000 0.000000 0.000000 0.064355 0.000000 0.000000
# 5 0.000000 0.000000 0.000000 0.000000 0.064360 0.000000
# 6 0.000000 0.000000 0.000000 0.000000 0.000000 0.029256
#
#
# Mechanical properties :
#
#
# Convention : Reuss Voigt Hill
#
# Bulk Modulus (GPa) = 70.87416 77.72009 74.29712
# Shear Modulus (GPa) = 25.23343 34.14141 29.68742
#
# Velocity S-wave (km/s) = 3.58821 4.17379 3.89203
# Velocity P-wave (km/s) = 7.30276 7.92993 7.62280
#
# Compressibility (1/GPa) = 0.01410951
#
# Stress axis : x y z
#
# Youngs Moduli (GPa) = 146.65733 146.65738 89.64092
#
# Poissons Ratio (x) = 0.28623 0.15194
# Poissons Ratio (y) = 0.28623 0.15194
# Poissons Ratio (z) = 0.24858 0.24858
#
# Static dielectric constant tensor:
#      x y z
#    x 4.185150 0.000000 0.000000 
#    y 0.000000 4.185100 0.000000 
#    z 0.000000 0.000000 3.371210 
# 
# 
# High freq. dielectric constant tensor:
#      x y z
#    x 1.769780 0.000000 0.000000 
#    y 0.000000 1.769780 0.000000 
#    z 0.000000 0.000000 1.755340 
# 
# From -- ./inp_files/8211.got.cif
#   From: 2010.03.12/outbox.cif.g09.slc.cpg/sg136_5_cif.got.tgz:8211.got - 2010.04.06 18:39:43.
