data_PCOD8318711
_publ_section_title
;
Structure prediction by ZEFSAII (Michael W. Deem and Ramdas Pophale) SiO2 
 PCOD8318711
Probable space group: P 42/N M C
;
_chemical_formula_sum "Si O2"
_cell_formula_units_Z 64
_cell_length_a 19.284699
_cell_length_b 19.284699
_cell_length_c 9.413515
_cell_angle_alpha 90.000000
_cell_angle_beta 90.000000
_cell_angle_gamma 90.000000
_cell_volume 3500.882609
_symmetry_space_group_name_H-M "P 42/N M C"
_symmetry_group_IT_number 137
_space_group.IT_coordinate_system_code '2'
_symmetry_cell_setting 'tetragonal'
loop_
_space_group_symop_operation_xyz
x,y,z
1/2-y,x,1/2+z
1/2-x,1/2-y,z
y,1/2-x,1/2+z
1/2+x,-y,-z
-x,1/2+y,-z
1/2+y,1/2+x,1/2-z
-y,-x,1/2-z
-x,-y,-z
1/2+y,-x,1/2-z
1/2+x,1/2+y,-z
-y,1/2+x,1/2-z
1/2-x,y,z
x,1/2-y,z
1/2-y,1/2-x,1/2+z
y,x,1/2+z
loop_
_atom_site_type_symbol
_atom_site_label
_atom_site_fract_x
_atom_site_fract_y
_atom_site_fract_z
Si Si1 0.008725 0.394879 0.413296
Si Si2 0.137205 0.750000 0.280426
Si Si3 0.955499 0.250000 0.973589
Si Si4 0.140078 0.750000 0.785685
Si Si5 0.606401 0.506835 0.417689
Si Si6 0.956776 0.250000 0.461862
O O1 0.070754 0.431653 0.495628
O O2 0.027818 0.389963 0.247325
O O3 0.936550 0.435692 0.436364
O O4 0.002024 0.319021 0.484501
O O5 0.181219 0.681219 0.250000
O O6 0.065188 0.750000 0.191803
O O7 0.112775 0.750000 0.443232
O O8 0.880032 0.250000 0.049810
O O9 0.998842 0.182335 0.015683
O O10 0.181049 0.681049 0.750000
O O11 0.068079 0.750000 0.701587
#
# Coordination Sequence:
#
# PCOD8318711 Si02
#       6
#    16   8   8   8  16   8
#     4  10  21  37  58  84 113 148 193 242 290 345
#     4  11  24  36  50  82 124 159 190 228 282 349
#     4  12  22  37  58  81 114 156 195 236 287 344
#     4  11  20  32  54  82 112 147 186 226 274 345
#     4  10  21  37  58  84 113 148 193 242 290 345
#     4  12  22  37  58  81 114 156 195 236 287 344
#
# _framework density 18.281103999999999
#
# number of rings (size 3 to 8) (size 9 to 14) (size 15 to 20)
#    0.000    1.250    2.500    4.500    3.500    2.000 
#    0.000    0.000    0.000    0.750    0.000    3.500 
#    0.000    0.000    0.000    0.000    0.000    0.000 
#
# Total GULP energy -793831.974758 kJ/mol
# GULP energy per Si atom -12403.624606 kJ/mol
# Density = 1.823950 g / cm^3
# Si number density = 18.281104 Si / 1000 Ang^3
#
#
#
# Elastic Constant Matrix: (Units=GPa)
#
#
# Indices 1 2 3 4 5 6 
#
# 1 120.7752 62.0138 39.6713 0.0000 0.0000 0.0000
# 2 62.0138 120.7752 39.6713 0.0000 0.0000 0.0000
# 3 39.6713 39.6713 75.7334 0.0000 0.0000 0.0000
# 4 0.0000 0.0000 0.0000 29.6866 0.0000 0.0000
# 5 0.0000 0.0000 0.0000 0.0000 29.6866 0.0000
# 6 0.0000 0.0000 0.0000 0.0000 0.0000 36.5418
#
#
#
# Elastic Compliance Matrix: (Units=1/GPa)
#
#
# Indices 1 2 3 4 5 6 
#
# 1 0.012049 -0.004969 -0.003709 0.000000 0.000000 0.000000
# 2 -0.004969 0.012049 -0.003709 0.000000 0.000000 0.000000
# 3 -0.003709 -0.003709 0.017090 0.000000 0.000000 0.000000
# 4 0.000000 0.000000 0.000000 0.033685 0.000000 0.000000
# 5 0.000000 0.000000 0.000000 0.000000 0.033685 0.000000
# 6 0.000000 0.000000 0.000000 0.000000 0.000000 0.027366
#
#
# Mechanical properties :
#
#
# Convention : Reuss Voigt Hill
#
# Bulk Modulus (GPa) = 60.91912 66.66629 63.79270
# Shear Modulus (GPa) = 30.08954 30.91148 30.50051
#
# Velocity S-wave (km/s) = 4.06142 4.11651 4.08906
# Velocity P-wave (km/s) = 7.44240 7.69030 7.56737
#
# Compressibility (1/GPa) = 0.01641521
#
# Stress axis : x y z
#
# Youngs Moduli (GPa) = 82.99184 82.99184 58.51340
#
# Poissons Ratio (x) = 0.41235 0.21703
# Poissons Ratio (y) = 0.41235 0.21703
# Poissons Ratio (z) = 0.30783 0.30783
#
# Static dielectric constant tensor:
#      x y z
#    x 3.256990 0.000000 0.000000 
#    y 0.000000 3.256990 0.000000 
#    z 0.000000 0.000000 3.463780 
# 
# 
# High freq. dielectric constant tensor:
#      x y z
#    x 1.692290 0.000000 0.000000 
#    y 0.000000 1.692290 0.000000 
#    z 0.000000 0.000000 1.723740 
# 
# From -- ./inp_files/3402.got.cif
#   From: 2010.03.12/outbox.cif.g09.slc.cpg/sg137_2_cif.got.tgz:3402.got - 2010.04.08 09:34:49.
