data_PCOD8318638
_publ_section_title
;
Structure prediction by ZEFSAII (Michael W. Deem and Ramdas Pophale) SiO2 
 PCOD8318638
Probable space group: P 42/N M C
;
_chemical_formula_sum "Si O2"
_cell_formula_units_Z 128
_cell_length_a 23.195239
_cell_length_b 23.195239
_cell_length_c 12.646470
_cell_angle_alpha 90.000000
_cell_angle_beta 90.000000
_cell_angle_gamma 90.000000
_cell_volume 6804.042563
_symmetry_space_group_name_H-M "P 42/N M C"
_symmetry_group_IT_number 137
_space_group.IT_coordinate_system_code '2'
_symmetry_cell_setting 'tetragonal'
loop_
_space_group_symop_operation_xyz
x,y,z
1/2-y,x,1/2+z
1/2-x,1/2-y,z
y,1/2-x,1/2+z
1/2+x,-y,-z
-x,1/2+y,-z
1/2+y,1/2+x,1/2-z
-y,-x,1/2-z
-x,-y,-z
1/2+y,-x,1/2-z
1/2+x,1/2+y,-z
-y,1/2+x,1/2-z
1/2-x,y,z
x,1/2-y,z
1/2-y,1/2-x,1/2+z
y,x,1/2+z
loop_
_atom_site_type_symbol
_atom_site_label
_atom_site_fract_x
_atom_site_fract_y
_atom_site_fract_z
Si Si1 0.815173 0.609319 0.022823
Si Si2 0.985704 0.312591 0.570978
Si Si3 0.684107 0.593710 0.418663
Si Si4 0.062408 0.848579 0.646498
Si Si5 0.510807 0.313552 0.942517
Si Si6 0.102663 0.510154 0.256838
Si Si7 0.812763 0.092527 0.360585
Si Si8 0.558415 0.617122 0.715102
O O1 0.750000 0.628859 0.049562
O O2 0.815552 0.552893 0.951578
O O3 0.844609 0.658089 0.950660
O O4 0.848562 0.597282 0.131356
O O5 0.970465 0.250000 0.619705
O O6 0.948826 0.317847 0.463950
O O7 0.970812 0.362151 0.653399
O O8 0.750000 0.602369 0.383624
O O9 0.678568 0.555543 0.524722
O O10 0.651093 0.560878 0.324959
O O11 0.127623 0.872464 0.639481
O O12 0.061828 0.805391 0.746230
O O13 0.007885 0.891644 0.672155
O O14 0.520150 0.250000 0.892554
O O15 0.530061 0.361214 0.858692
O O16 0.546422 0.320807 0.048755
O O17 0.088307 0.443498 0.263592
O O18 0.042688 0.542688 0.250000
O O19 0.750000 0.125373 0.378185
#
# Coordination Sequence:
#
# PCOD8318638 Si02
#       8
#    16  16  16  16  16  16  16  16
#     4  10  21  39  60  83 115 153 200 249 292 343
#     4  10  21  39  60  82 115 160 199 236 287 358
#     4  11  21  37  60  84 116 157 202 245 289 342
#     4  10  21  36  60  88 116 153 197 238 297 357
#     4  10  21  38  58  81 117 161 197 233 287 354
#     4  12  24  36  58  88 122 152 188 247 304 349
#     4  10  20  36  60  88 117 149 194 242 290 356
#     4  11  22  38  56  87 120 153 191 247 304 359
#
# _framework density 18.812345000000001
#
# number of rings (size 3 to 8) (size 9 to 14) (size 15 to 20)
#    0.000    1.500    3.750    1.875    1.750    1.250 
#    0.000    3.125    0.000    7.875    0.000    0.000 
#    0.000    3.250    0.000    0.000    0.000    0.000 
#
# Total GULP energy -1585924.774532 kJ/mol
# GULP energy per Si atom -12390.037301 kJ/mol
# Density = 1.876953 g / cm^3
# Si number density = 18.812345 Si / 1000 Ang^3
#
#
#
# Elastic Constant Matrix: (Units=GPa)
#
#
# Indices 1 2 3 4 5 6 
#
# 1 111.8816 41.7688 43.4027 0.0000 0.0000 0.0000
# 2 41.7688 111.8816 43.4027 0.0000 0.0000 0.0000
# 3 43.4027 43.4027 93.5502 0.0000 0.0000 0.0000
# 4 0.0000 0.0000 0.0000 10.3898 0.0000 0.0000
# 5 0.0000 0.0000 0.0000 0.0000 10.3898 0.0000
# 6 0.0000 0.0000 0.0000 0.0000 0.0000 8.7792
#
#
#
# Elastic Compliance Matrix: (Units=1/GPa)
#
#
# Indices 1 2 3 4 5 6 
#
# 1 0.011541 -0.002721 -0.004092 0.000000 0.000000 0.000000
# 2 -0.002721 0.011541 -0.004092 0.000000 0.000000 0.000000
# 3 -0.004092 -0.004092 0.014487 0.000000 0.000000 0.000000
# 4 0.000000 0.000000 0.000000 0.096248 0.000000 0.000000
# 5 0.000000 0.000000 0.000000 0.000000 0.096248 0.000000
# 6 0.000000 0.000000 0.000000 0.000000 0.000000 0.113905
#
#
# Mechanical properties :
#
#
# Convention : Reuss Voigt Hill
#
# Bulk Modulus (GPa) = 63.45839 63.82908 63.64374
# Shear Modulus (GPa) = 13.47582 18.49439 15.98510
#
# Velocity S-wave (km/s) = 2.67933 3.13884 2.91815
# Velocity P-wave (km/s) = 6.58615 6.86582 6.72744
#
# Compressibility (1/GPa) = 0.01575836
#
# Stress axis : x y z
#
# Youngs Moduli (GPa) = 86.64442 86.64442 69.02975
#
# Poissons Ratio (x) = 0.23579 0.28248
# Poissons Ratio (y) = 0.23579 0.28248
# Poissons Ratio (z) = 0.35456 0.35456
#
# Static dielectric constant tensor:
#      x y z
#    x 3.429790 0.000000 0.000000 
#    y 0.000000 3.429790 0.000000 
#    z 0.000000 0.000000 3.521920 
# 
# 
# High freq. dielectric constant tensor:
#      x y z
#    x 1.722560 0.000000 0.000000 
#    y 0.000000 1.722560 0.000000 
#    z 0.000000 0.000000 1.740080 
# 
# From -- ./inp_files/4041.got.cif
#   From: 2010.03.12/outbox.cif.g09.slc.cpg/sg137_3_cif.got.tgz:4041.got - 2010.04.08 09:34:49.
