data_PCOD8318941
_publ_section_title
;
Structure prediction by ZEFSAII (Michael W. Deem and Ramdas Pophale) SiO2 
 PCOD8318941
Probable space group: P 42/N C M
;
_chemical_formula_sum "Si O2"
_cell_formula_units_Z 80
_cell_length_a 12.069548
_cell_length_b 12.069548
_cell_length_c 27.847435
_cell_angle_alpha 90.000000
_cell_angle_beta 90.000000
_cell_angle_gamma 90.000000
_cell_volume 4056.646938
_symmetry_space_group_name_H-M "P 42/N C M"
_symmetry_group_IT_number 138
_space_group.IT_coordinate_system_code '2'
_symmetry_cell_setting 'tetragonal'
loop_
_space_group_symop_operation_xyz
x,y,z
1/2-y,x,1/2+z
1/2-x,1/2-y,z
y,1/2-x,1/2+z
1/2+x,-y,1/2-z
-x,1/2+y,1/2-z
1/2+y,1/2+x,-z
-y,-x,-z
-x,-y,-z
1/2+y,-x,1/2-z
1/2+x,1/2+y,-z
-y,1/2+x,1/2-z
1/2-x,y,1/2+z
x,1/2-y,1/2+z
1/2-y,1/2-x,z
y,x,z
loop_
_atom_site_type_symbol
_atom_site_label
_atom_site_fract_x
_atom_site_fract_y
_atom_site_fract_z
Si Si1 0.953950 0.133822 0.549222
Si Si2 0.980594 0.693696 0.300180
Si Si3 0.274764 0.621663 0.377026
Si Si4 0.082569 0.911163 0.712826
Si Si5 0.632147 0.043544 0.406616
O O1 0.891226 0.108775 0.500000
O O2 0.879406 0.082288 0.591754
O O3 0.961423 0.266915 0.555227
O O4 0.074817 0.074817 0.550832
O O5 0.856829 0.643172 0.290268
O O6 0.994027 0.822851 0.288470
O O7 0.071233 0.629755 0.267698
O O8 0.008517 0.680962 0.355565
O O9 0.250000 0.750000 0.384795
O O10 0.304205 0.600237 0.321319
O O11 0.161195 0.568349 0.397733
O O12 0.969307 0.969307 0.696008
O O13 0.540945 0.959056 0.426352
#
# Coordination Sequence:
#
# PCOD8318941 Si02
#       5
#    16  16  16  16  16
#     4  10  21  38  60  86 115 149 194 247 298 354
#     4  10  21  33  52  84 117 156 201 246 293 347
#     4  10  19  34  56  84 112 150 198 241 288 350
#     4  11  21  34  55  82 117 160 203 244 295 349
#     4  10  21  37  57  86 119 152 191 244 300 349
#
# _framework density 19.72072
#
# number of rings (size 3 to 8) (size 9 to 14) (size 15 to 20)
#    0.000    1.800    4.000    1.800    0.000    4.400 
#    0.000    4.000    0.000    4.800    0.000    0.000 
#    0.000    0.000    0.000    0.000    0.000    0.000 
#
# Total GULP energy -991216.257013 kJ/mol
# GULP energy per Si atom -12390.203213 kJ/mol
# Density = 1.967583 g / cm^3
# Si number density = 19.720720 Si / 1000 Ang^3
#
#
#
# Elastic Constant Matrix: (Units=GPa)
#
#
# Indices 1 2 3 4 5 6 
#
# 1 91.3374 50.5965 27.2821 0.0000 0.0000 0.0000
# 2 50.5965 91.3372 27.2822 0.0000 0.0000 0.0000
# 3 27.2821 27.2822 74.8255 0.0000 0.0000 0.0000
# 4 0.0000 0.0000 0.0000 28.8365 0.0000 0.0000
# 5 0.0000 0.0000 0.0000 0.0000 28.8367 0.0000
# 6 0.0000 0.0000 0.0000 0.0000 0.0000 27.3691
#
#
#
# Elastic Compliance Matrix: (Units=1/GPa)
#
#
# Indices 1 2 3 4 5 6 
#
# 1 0.016370 -0.008176 -0.002988 0.000000 0.000000 0.000000
# 2 -0.008176 0.016370 -0.002988 0.000000 0.000000 0.000000
# 3 -0.002988 -0.002988 0.015543 0.000000 0.000000 0.000000
# 4 0.000000 0.000000 0.000000 0.034678 0.000000 0.000000
# 5 0.000000 0.000000 0.000000 0.000000 0.034678 0.000000
# 6 0.000000 0.000000 0.000000 0.000000 0.000000 0.036538
#
#
# Mechanical properties :
#
#
# Convention : Reuss Voigt Hill
#
# Bulk Modulus (GPa) = 50.04840 51.98021 51.01431
# Shear Modulus (GPa) = 26.43563 27.16440 26.80001
#
# Velocity S-wave (km/s) = 3.66526 3.71543 3.69043
# Velocity P-wave (km/s) = 6.58375 6.69487 6.63955
#
# Compressibility (1/GPa) = 0.01998066
#
# Stress axis : x y z
#
# Youngs Moduli (GPa) = 61.08833 61.08813 64.33732
#
# Poissons Ratio (x) = 0.49944 0.19222
# Poissons Ratio (y) = 0.49944 0.19222
# Poissons Ratio (z) = 0.18251 0.18251
#
# Static dielectric constant tensor:
#      x y z
#    x 3.891950 0.000000 0.000000 
#    y 0.000000 3.891950 0.000000 
#    z 0.000000 0.000000 3.516010 
# 
# 
# High freq. dielectric constant tensor:
#      x y z
#    x 1.757060 0.000000 0.000000 
#    y 0.000000 1.757060 0.000000 
#    z 0.000000 0.000000 1.767690 
# 
# From -- ./inp_files/7864.got.cif
#   From: 2010.03.12/outbox.cif.g09.slc.cpg/sg138_4_cif.got.tgz:7864.got - 2010.04.08 09:41:05.
