data_PCOD8318800
_publ_section_title
;
Structure prediction by ZEFSAII (Michael W. Deem and Ramdas Pophale) SiO2 
 PCOD8318800
Probable space group: P 42/N M C
;
_chemical_formula_sum "Si O2"
_cell_formula_units_Z 80
_cell_length_a 12.106689
_cell_length_b 12.106689
_cell_length_c 29.143114
_cell_angle_alpha 90.000000
_cell_angle_beta 90.000000
_cell_angle_gamma 90.000000
_cell_volume 4271.562131
_symmetry_space_group_name_H-M "P 42/N M C"
_symmetry_group_IT_number 137
_space_group.IT_coordinate_system_code '2'
_symmetry_cell_setting 'tetragonal'
loop_
_space_group_symop_operation_xyz
x,y,z
1/2-y,x,1/2+z
1/2-x,1/2-y,z
y,1/2-x,1/2+z
1/2+x,-y,-z
-x,1/2+y,-z
1/2+y,1/2+x,1/2-z
-y,-x,1/2-z
-x,-y,-z
1/2+y,-x,1/2-z
1/2+x,1/2+y,-z
-y,1/2+x,1/2-z
1/2-x,y,z
x,1/2-y,z
1/2-y,1/2-x,1/2+z
y,x,1/2+z
loop_
_atom_site_type_symbol
_atom_site_label
_atom_site_fract_x
_atom_site_fract_y
_atom_site_fract_z
Si Si1 0.621341 0.750000 0.656943
Si Si2 0.377004 0.869583 0.456883
Si Si3 0.117066 0.490762 0.210021
Si Si4 0.250000 0.119650 0.741952
Si Si5 0.623765 0.122767 0.443052
Si Si6 0.480206 0.039231 0.879943
O O1 0.750000 0.750000 0.664223
O O2 0.565032 0.750000 0.707355
O O3 0.590561 0.861450 0.630833
O O4 0.250000 0.851480 0.468227
O O5 0.426785 0.750000 0.440962
O O6 0.429600 0.902407 0.506544
O O7 0.385782 0.960333 0.417653
O O8 0.068176 0.568176 0.250000
O O9 0.250000 0.505824 0.208264
O O10 0.082167 0.362424 0.216618
O O11 0.061088 0.530122 0.163163
O O12 0.250000 0.250000 0.745816
O O13 0.750000 0.091505 0.442626
O O14 0.601874 0.250000 0.429458
O O15 0.576949 0.041472 0.404230
#
# Coordination Sequence:
#
# PCOD8318800 Si02
#       6
#     8  16  16   8  16  16
#     4  11  22  36  57  83 115 153 192 228 280 345
#     4   9  19  36  57  81 114 151 189 235 287 337
#     4  11  24  40  61  86 115 150 190 238 289 344
#     4   9  20  42  58  76 114 154 184 222 286 353
#     4   9  19  36  56  82 114 151 191 234 284 337
#     4  12  21  35  59  88 112 149 191 236 282 335
#
# _framework density 18.72851
#
# number of rings (size 3 to 8) (size 9 to 14) (size 15 to 20)
#    0.000    1.800    3.000    3.000    1.400    1.000 
#    0.000    0.000    0.000    1.500    0.000    0.000 
#    0.000    0.000    0.000    0.000    0.000    0.000 
#
# Total GULP energy -991219.639844 kJ/mol
# GULP energy per Si atom -12390.245498 kJ/mol
# Density = 1.868588 g / cm^3
# Si number density = 18.728510 Si / 1000 Ang^3
#
#
#
# Elastic Constant Matrix: (Units=GPa)
#
#
# Indices 1 2 3 4 5 6 
#
# 1 85.7992 30.7387 41.0119 0.0000 0.0000 0.0000
# 2 30.7387 85.7992 41.0119 0.0000 0.0000 0.0000
# 3 41.0119 41.0119 119.8707 0.0000 0.0000 0.0000
# 4 0.0000 0.0000 0.0000 24.4408 0.0000 0.0000
# 5 0.0000 0.0000 0.0000 0.0000 24.4408 0.0000
# 6 0.0000 0.0000 0.0000 0.0000 0.0000 24.2700
#
#
#
# Elastic Compliance Matrix: (Units=1/GPa)
#
#
# Indices 1 2 3 4 5 6 
#
# 1 0.014732 -0.003430 -0.003867 0.000000 0.000000 0.000000
# 2 -0.003430 0.014732 -0.003867 0.000000 0.000000 0.000000
# 3 -0.003867 -0.003867 0.010988 0.000000 0.000000 0.000000
# 4 0.000000 0.000000 0.000000 0.040915 0.000000 0.000000
# 5 0.000000 0.000000 0.000000 0.000000 0.040915 0.000000
# 6 0.000000 0.000000 0.000000 0.000000 0.000000 0.041203
#
#
# Mechanical properties :
#
#
# Convention : Reuss Voigt Hill
#
# Bulk Modulus (GPa) = 55.17053 57.44377 56.30715
# Shear Modulus (GPa) = 26.06129 26.54412 26.30271
#
# Velocity S-wave (km/s) = 3.73437 3.76880 3.75163
# Velocity P-wave (km/s) = 6.93657 7.04819 6.99260
#
# Compressibility (1/GPa) = 0.01812562
#
# Stress axis : x y z
#
# Youngs Moduli (GPa) = 67.87828 67.87828 91.00503
#
# Poissons Ratio (x) = 0.23280 0.35192
# Poissons Ratio (y) = 0.23280 0.35192
# Poissons Ratio (z) = 0.26249 0.26249
#
# Static dielectric constant tensor:
#      x y z
#    x 3.352450 0.000000 0.000000 
#    y 0.000000 3.352450 0.000000 
#    z 0.000000 0.000000 3.645210 
# 
# 
# High freq. dielectric constant tensor:
#      x y z
#    x 1.719840 0.000000 0.000000 
#    y 0.000000 1.719840 0.000000 
#    z 0.000000 0.000000 1.740660 
# 
# From -- ./inp_files/10332.got.cif
#   From: 2010.03.12/outbox.cif.g09.slc.cpg/sg137_6_cif.got.tgz:10332.got - 2010.04.08 09:34:49.
