data_PCOD8318570
_publ_section_title
;
Structure prediction by ZEFSAII (Michael W. Deem and Ramdas Pophale) SiO2 
 PCOD8318570
Probable space group: P 42/N M C
;
_chemical_formula_sum "Si O2"
_cell_formula_units_Z 56
_cell_length_a 13.384132
_cell_length_b 13.384132
_cell_length_c 16.308881
_cell_angle_alpha 90.000000
_cell_angle_beta 90.000000
_cell_angle_gamma 90.000000
_cell_volume 2921.491225
_symmetry_space_group_name_H-M "P 42/N M C"
_symmetry_group_IT_number 137
_space_group.IT_coordinate_system_code '2'
_symmetry_cell_setting 'tetragonal'
loop_
_space_group_symop_operation_xyz
x,y,z
1/2-y,x,1/2+z
1/2-x,1/2-y,z
y,1/2-x,1/2+z
1/2+x,-y,-z
-x,1/2+y,-z
1/2+y,1/2+x,1/2-z
-y,-x,1/2-z
-x,-y,-z
1/2+y,-x,1/2-z
1/2+x,1/2+y,-z
-y,1/2+x,1/2-z
1/2-x,y,z
x,1/2-y,z
1/2-y,1/2-x,1/2+z
y,x,1/2+z
loop_
_atom_site_type_symbol
_atom_site_label
_atom_site_fract_x
_atom_site_fract_y
_atom_site_fract_z
Si Si1 0.049764 0.950237 0.750000
Si Si2 0.636787 0.864875 0.825052
Si Si3 0.548193 0.365811 0.421411
Si Si4 0.450822 0.137468 0.998234
O O1 0.083551 0.883665 0.672154
O O2 0.933144 0.934346 0.769480
O O3 0.750000 0.897140 0.807897
O O4 0.617388 0.750000 0.800606
O O5 0.613573 0.880999 0.920353
O O6 0.560862 0.250000 0.444675
O O7 0.433584 0.403896 0.428702
O O8 0.614216 0.432262 0.483929
O O9 0.441024 0.250000 0.965744
#
# Coordination Sequence:
#
# PCOD8318570 Si02
#       4
#     8  16  16  16
#     4  10  20  32  48  76 110 136 168 212 258 308
#     4   9  17  31  51  73 100 136 174 213 259 307
#     4  10  20  34  53  78 108 139 170 209 257 306
#     4   9  19  35  54  77 103 133 174 218 255 298
#
# _framework density 19.168293999999999
#
# number of rings (size 3 to 8) (size 9 to 14) (size 15 to 20)
#    0.000    2.571    0.000    1.714    0.000    4.571 
#    0.000    0.000    0.000    6.000    0.000    0.000 
#    0.000    0.000    0.000    0.000    0.000    0.000 
#
# Total GULP energy -694400.648475 kJ/mol
# GULP energy per Si atom -12400.011580 kJ/mol
# Density = 1.912467 g / cm^3
# Si number density = 19.168294 Si / 1000 Ang^3
#
#
#
# Elastic Constant Matrix: (Units=GPa)
#
#
# Indices 1 2 3 4 5 6 
#
# 1 108.1510 31.3883 18.2075 0.0000 0.0000 0.0000
# 2 31.3883 108.1537 18.2075 0.0000 0.0000 0.0000
# 3 18.2075 18.2075 45.3712 0.0000 0.0000 0.0000
# 4 0.0000 0.0000 0.0000 20.9007 0.0000 0.0000
# 5 0.0000 0.0000 0.0000 0.0000 20.9004 0.0000
# 6 0.0000 0.0000 0.0000 0.0000 0.0000 25.4464
#
#
#
# Elastic Compliance Matrix: (Units=1/GPa)
#
#
# Indices 1 2 3 4 5 6 
#
# 1 0.010516 -0.002511 -0.003212 0.000000 0.000000 0.000000
# 2 -0.002511 0.010516 -0.003212 0.000000 0.000000 0.000000
# 3 -0.003212 -0.003212 0.024619 0.000000 0.000000 0.000000
# 4 0.000000 0.000000 0.000000 0.047845 0.000000 0.000000
# 5 0.000000 0.000000 0.000000 0.000000 0.047846 0.000000
# 6 0.000000 0.000000 0.000000 0.000000 0.000000 0.039298
#
#
# Mechanical properties :
#
#
# Convention : Reuss Voigt Hill
#
# Bulk Modulus (GPa) = 35.99867 44.14250 40.07059
# Shear Modulus (GPa) = 24.06499 26.37435 25.21967
#
# Velocity S-wave (km/s) = 3.54709 3.71339 3.63119
# Velocity P-wave (km/s) = 5.96631 6.43930 6.20731
#
# Compressibility (1/GPa) = 0.02777881
#
# Stress axis : x y z
#
# Youngs Moduli (GPa) = 95.09383 95.09632 40.61974
#
# Poissons Ratio (x) = 0.23880 0.13048
# Poissons Ratio (y) = 0.23879 0.13048
# Poissons Ratio (z) = 0.30547 0.30547
#
# Static dielectric constant tensor:
#      x y z
#    x 3.512340 0.000000 0.000000 
#    y 0.000000 3.512330 0.000000 
#    z 0.000000 0.000000 3.317140 
# 
# 
# High freq. dielectric constant tensor:
#      x y z
#    x 1.740210 0.000000 0.000000 
#    y 0.000000 1.740210 0.000000 
#    z 0.000000 0.000000 1.729220 
# 
# From -- ./inp_files/4598.got.cif
#   From: 2010.03.12/outbox.cif.g09.slc.cpg/sg137_3_cif.got.tgz:4598.got - 2010.04.08 09:34:49.
