data_PCOD8318118
_publ_section_title
;
Structure prediction by ZEFSAII (Michael W. Deem and Ramdas Pophale) SiO2 
 PCOD8318118
Probable space group: P 42/M N M
;
_chemical_formula_sum "Si O2"
_cell_formula_units_Z 72
_cell_length_a 18.754840
_cell_length_b 18.754840
_cell_length_c 11.788763
_cell_angle_alpha 90.000000
_cell_angle_beta 90.000000
_cell_angle_gamma 90.000000
_cell_volume 4146.626929
_symmetry_space_group_name_H-M "P 42/M N M"
_symmetry_group_IT_number 136
_symmetry_cell_setting 'tetragonal'
loop_
_space_group_symop_operation_xyz
x,y,z
1/2-y,1/2+x,1/2+z
-x,-y,z
1/2+y,1/2-x,1/2+z
1/2+x,1/2-y,1/2-z
1/2-x,1/2+y,1/2-z
y,x,-z
-y,-x,-z
-x,-y,-z
1/2+y,1/2-x,1/2-z
x,y,-z
1/2-y,1/2+x,1/2-z
1/2-x,1/2+y,1/2+z
1/2+x,1/2-y,1/2+z
-y,-x,z
y,x,z
loop_
_atom_site_type_symbol
_atom_site_label
_atom_site_fract_x
_atom_site_fract_y
_atom_site_fract_z
Si Si1 0.194152 0.686368 0.500000
Si Si2 0.752680 0.364864 0.271538
Si Si3 0.267870 0.849592 0.130365
Si Si4 0.940392 0.059609 0.130067
Si Si5 0.476232 0.297051 0.242699
Si Si6 0.082777 0.798683 0.500000
O O1 0.249169 0.750832 0.500000
O O2 0.205051 0.638434 0.389602
O O3 0.114445 0.718531 0.500000
O O4 0.679378 0.320623 0.276607
O O5 0.803466 0.335014 0.172236
O O6 0.736130 0.446304 0.250321
O O7 0.195392 0.804609 0.146074
O O8 0.259639 0.919862 0.206955
O O9 0.280782 0.870597 0.000000
O O10 0.970962 0.129841 0.188596
O O11 0.921654 0.078347 0.000000
O O12 0.000000 0.000000 0.138157
O O13 0.464296 0.312141 0.110585
O O14 0.147077 0.852924 0.500000
#
# Coordination Sequence:
#
# PCOD8318118 Si02
#       6
#     8  16  16   8  16   8
#     4   9  18  36  58  80 110 146 195 250 281 329
#     4  10  22  37  56  85 116 147 190 240 287 333
#     4  10  20  37  58  81 111 149 196 238 279 337
#     4  11  24  39  55  83 123 162 193 226 281 354
#     4  12  22  37  59  86 115 154 193 237 290 347
#     4  11  20  38  60  83 113 155 198 234 285 357
#
# _framework density 17.363510000000002
#
# number of rings (size 3 to 8) (size 9 to 14) (size 15 to 20)
#    0.000    1.444    4.444    1.333    4.667    0.000 
#    0.000    2.222    0.000    0.667    0.000    3.111 
#    0.000    0.000    0.000    0.000    0.000    0.000 
#
# Total GULP energy -893008.759926 kJ/mol
# GULP energy per Si atom -12402.899443 kJ/mol
# Density = 1.732399 g / cm^3
# Si number density = 17.363510 Si / 1000 Ang^3
#
#
#
# Elastic Constant Matrix: (Units=GPa)
#
#
# Indices 1 2 3 4 5 6 
#
# 1 81.4439 54.4285 45.2307 0.0000 0.0000 0.0000
# 2 54.4285 81.4411 45.2299 0.0000 0.0000 0.0000
# 3 45.2307 45.2299 154.1907 0.0000 0.0000 0.0000
# 4 0.0000 0.0000 0.0000 36.9438 0.0000 0.0000
# 5 0.0000 0.0000 0.0000 0.0000 36.9497 0.0000
# 6 0.0000 0.0000 0.0000 0.0000 0.0000 19.3677
#
#
#
# Elastic Compliance Matrix: (Units=1/GPa)
#
#
# Indices 1 2 3 4 5 6 
#
# 1 0.023082 -0.013936 -0.002683 0.000000 0.000000 0.000000
# 2 -0.013936 0.023082 -0.002683 0.000000 0.000000 0.000000
# 3 -0.002683 -0.002683 0.008059 0.000000 0.000000 0.000000
# 4 0.000000 0.000000 0.000000 0.027068 0.000000 0.000000
# 5 0.000000 0.000000 0.000000 0.000000 0.027064 0.000000
# 6 0.000000 0.000000 0.000000 0.000000 0.000000 0.051632
#
#
# Mechanical properties :
#
#
# Convention : Reuss Voigt Hill
#
# Bulk Modulus (GPa) = 64.02009 67.42821 65.72415
# Shear Modulus (GPa) = 24.53409 30.13136 27.33273
#
# Velocity S-wave (km/s) = 3.76303 4.17024 3.97186
# Velocity P-wave (km/s) = 7.47201 7.88070 7.67908
#
# Compressibility (1/GPa) = 0.01562010
#
# Stress axis : x y z
#
# Youngs Moduli (GPa) = 43.32448 43.32298 124.07722
#
# Poissons Ratio (x) = 0.60374 0.33289
# Poissons Ratio (y) = 0.60376 0.33289
# Poissons Ratio (z) = 0.11624 0.11623
#
# Static dielectric constant tensor:
#      x y z
#    x 3.100030 0.000000 0.000000 
#    y 0.000000 3.100040 0.000000 
#    z 0.000000 0.000000 3.188840 
# 
# 
# High freq. dielectric constant tensor:
#      x y z
#    x 1.655160 0.000000 0.000000 
#    y 0.000000 1.655160 0.000000 
#    z 0.000000 0.000000 1.693060 
# 
# From -- ./inp_files/3483.got.cif
#   From: 2010.03.12/outbox.cif.g09.slc.cpg/sg136_2_cif.got.tgz:3483.got - 2010.04.06 18:39:43.
