data_PCOD8318003
_publ_section_title
;
Structure prediction by ZEFSAII (Michael W. Deem and Ramdas Pophale) SiO2 
 PCOD8318003
Probable space group: P 42/M N M
;
_chemical_formula_sum "Si O2"
_cell_formula_units_Z 112
_cell_length_a 13.801114
_cell_length_b 13.801114
_cell_length_c 31.671448
_cell_angle_alpha 90.000000
_cell_angle_beta 90.000000
_cell_angle_gamma 90.000000
_cell_volume 6032.484379
_symmetry_space_group_name_H-M "P 42/M N M"
_symmetry_group_IT_number 136
_symmetry_cell_setting 'tetragonal'
loop_
_space_group_symop_operation_xyz
x,y,z
1/2-y,1/2+x,1/2+z
-x,-y,z
1/2+y,1/2-x,1/2+z
1/2+x,1/2-y,1/2-z
1/2-x,1/2+y,1/2-z
y,x,-z
-y,-x,-z
-x,-y,-z
1/2+y,1/2-x,1/2-z
x,y,-z
1/2-y,1/2+x,1/2-z
1/2-x,1/2+y,1/2+z
1/2+x,1/2-y,1/2+z
-y,-x,z
y,x,z
loop_
_atom_site_type_symbol
_atom_site_label
_atom_site_fract_x
_atom_site_fract_y
_atom_site_fract_z
Si Si1 0.445967 0.706755 0.829005
Si Si2 0.373181 0.777161 0.084700
Si Si3 0.787216 0.634513 0.194659
Si Si4 0.923200 0.233878 0.868034
Si Si5 0.130115 0.292327 0.113695
Si Si6 0.396447 0.960835 0.548456
Si Si7 0.650145 0.812796 0.713320
O O1 0.391256 0.608745 0.813983
O O2 0.430153 0.721563 0.878498
O O3 0.559250 0.702366 0.818503
O O4 0.410663 0.802055 0.803869
O O5 0.300896 0.699105 0.062305
O O6 0.309383 0.863290 0.103950
O O7 0.452161 0.818516 0.052357
O O8 0.739212 0.739212 0.200034
O O9 0.865595 0.644226 0.157037
O O10 0.832852 0.605332 0.240188
O O11 0.872013 0.127988 0.870067
O O12 0.929874 0.273265 0.819759
O O13 0.031952 0.228425 0.886220
O O14 0.221484 0.221484 0.108655
O O15 0.133094 0.367005 0.075055
O O16 0.401509 0.927891 0.500000
O O17 0.500000 0.000000 0.564485
O O18 0.732586 0.732586 0.714556
#
# Coordination Sequence:
#
# PCOD8318003 Si02
#       7
#    16  16  16  16  16  16  16
#     4   9  17  31  52  72 100 141 179 218 273 324
#     4   9  17  34  59  83 106 138 181 230 275 326
#     4  10  20  32  48  74 107 143 186 227 268 321
#     4   9  18  35  58  80 110 150 187 226 276 331
#     4  11  23  37  56  83 116 151 185 230 282 334
#     4  11  22  38  61  87 112 142 182 228 281 341
#     4   8  17  32  49  73 103 138 182 231 273 310
#
# _framework density 18.566148999999999
#
# number of rings (size 3 to 8) (size 9 to 14) (size 15 to 20)
#    0.000    2.429    2.857    1.714    2.000    1.143 
#    0.000    0.000    0.000    3.429    0.000    2.000 
#    0.000    0.000    0.000    0.000    0.000    0.000 
#
# Total GULP energy -1388011.483168 kJ/mol
# GULP energy per Si atom -12392.959671 kJ/mol
# Density = 1.852389 g / cm^3
# Si number density = 18.566149 Si / 1000 Ang^3
#
#
#
# Elastic Constant Matrix: (Units=GPa)
#
#
# Indices 1 2 3 4 5 6 
#
# 1 81.1304 31.6992 34.1304 0.0000 0.0000 0.0000
# 2 31.6992 81.1304 34.1304 0.0000 0.0000 0.0000
# 3 34.1304 34.1304 76.5555 0.0000 0.0000 0.0000
# 4 0.0000 0.0000 0.0000 21.6573 0.0000 0.0000
# 5 0.0000 0.0000 0.0000 0.0000 21.6573 0.0000
# 6 0.0000 0.0000 0.0000 0.0000 0.0000 27.7894
#
#
#
# Elastic Compliance Matrix: (Units=1/GPa)
#
#
# Indices 1 2 3 4 5 6 
#
# 1 0.016183 -0.004047 -0.005411 0.000000 0.000000 0.000000
# 2 -0.004047 0.016183 -0.005411 0.000000 0.000000 0.000000
# 3 -0.005411 -0.005411 0.017887 0.000000 0.000000 0.000000
# 4 0.000000 0.000000 0.000000 0.046174 0.000000 0.000000
# 5 0.000000 0.000000 0.000000 0.000000 0.046174 0.000000
# 6 0.000000 0.000000 0.000000 0.000000 0.000000 0.035985
#
#
# Mechanical properties :
#
#
# Convention : Reuss Voigt Hill
#
# Bulk Modulus (GPa) = 48.74056 48.74846 48.74451
# Shear Modulus (GPa) = 23.23835 23.47787 23.35811
#
# Velocity S-wave (km/s) = 3.54171 3.55991 3.55082
# Velocity P-wave (km/s) = 6.56005 6.57350 6.56678
#
# Compressibility (1/GPa) = 0.02051679
#
# Stress axis : x y z
#
# Youngs Moduli (GPa) = 61.79232 61.79232 55.90698
#
# Poissons Ratio (x) = 0.25007 0.30249
# Poissons Ratio (y) = 0.25007 0.30249
# Poissons Ratio (z) = 0.33434 0.33434
#
# Static dielectric constant tensor:
#      x y z
#    x 3.267870 0.000000 0.000000 
#    y 0.000000 3.267870 0.000000 
#    z 0.000000 0.000000 3.412980 
# 
# 
# High freq. dielectric constant tensor:
#      x y z
#    x 1.707250 0.000000 0.000000 
#    y 0.000000 1.707250 0.000000 
#    z 0.000000 0.000000 1.708820 
# 
# From -- ./inp_files/9953.got.cif
#   From: 2010.03.12/outbox.cif.g09.slc.cpg/sg136_5_cif.got.tgz:9953.got - 2010.04.06 18:39:43.
