data_PCOD8318219
_publ_section_title
;
Structure prediction by ZEFSAII (Michael W. Deem and Ramdas Pophale) SiO2 
 PCOD8318219
Probable space group: P 42/M N M
;
_chemical_formula_sum "Si O2"
_cell_formula_units_Z 60
_cell_length_a 17.896467
_cell_length_b 17.896467
_cell_length_c 9.061449
_cell_angle_alpha 90.000000
_cell_angle_beta 90.000000
_cell_angle_gamma 90.000000
_cell_volume 2902.232882
_symmetry_space_group_name_H-M "P 42/M N M"
_symmetry_group_IT_number 136
_symmetry_cell_setting 'tetragonal'
loop_
_space_group_symop_operation_xyz
x,y,z
1/2-y,1/2+x,1/2+z
-x,-y,z
1/2+y,1/2-x,1/2+z
1/2+x,1/2-y,1/2-z
1/2-x,1/2+y,1/2-z
y,x,-z
-y,-x,-z
-x,-y,-z
1/2+y,1/2-x,1/2-z
x,y,-z
1/2-y,1/2+x,1/2-z
1/2-x,1/2+y,1/2+z
1/2+x,1/2-y,1/2+z
-y,-x,z
y,x,z
loop_
_atom_site_type_symbol
_atom_site_label
_atom_site_fract_x
_atom_site_fract_y
_atom_site_fract_z
Si Si1 0.000000 0.500000 0.250000
Si Si2 0.061943 0.938058 0.325425
Si Si3 0.706084 0.495849 0.323964
Si Si4 0.647452 0.076542 0.835405
Si Si5 0.259117 0.141698 0.669896
O O1 0.969847 0.429878 0.156827
O O2 0.071845 0.928156 0.500000
O O3 0.040174 0.860367 0.251747
O O4 0.000000 0.000000 0.287856
O O5 0.697163 0.497531 0.500000
O O6 0.784804 0.530191 0.263799
O O7 0.705566 0.411314 0.265912
O O8 0.639583 0.157610 0.758254
O O9 0.673465 0.094528 0.000000
O O10 0.259228 0.113767 0.500000
O O11 0.225222 0.225222 0.681019
#
# Coordination Sequence:
#
# PCOD8318219 Si02
#       5
#     4   8  16  16  16
#     4  12  18  40  64  86 124 164 214 252 314 368
#     4  11  25  45  67  91 123 167 215 258 313 382
#     4  11  23  40  63  94 127 160 206 261 314 364
#     4  10  22  37  59  90 124 163 205 255 312 370
#     4  10  21  39  62  85 118 162 204 246 307 379
#
# _framework density 20.673738
#
# number of rings (size 3 to 8) (size 9 to 14) (size 15 to 20)
#    0.000    1.467    2.667    2.400    1.867    4.800 
#    0.000    2.667    0.000    0.000    0.000    0.000 
#    0.000    0.000    0.000    0.000    0.000    0.000 
#
# Total GULP energy -743772.191812 kJ/mol
# GULP energy per Si atom -12396.203197 kJ/mol
# Density = 2.062668 g / cm^3
# Si number density = 20.673738 Si / 1000 Ang^3
#
#
#
# Elastic Constant Matrix: (Units=GPa)
#
#
# Indices 1 2 3 4 5 6 
#
# 1 143.2431 66.0155 37.1688 0.0000 0.0000 0.0000
# 2 66.0155 143.2431 37.1688 0.0000 0.0000 0.0000
# 3 37.1688 37.1688 78.6353 0.0000 0.0000 0.0000
# 4 0.0000 0.0000 0.0000 24.7113 0.0000 0.0000
# 5 0.0000 0.0000 0.0000 0.0000 24.7114 0.0000
# 6 0.0000 0.0000 0.0000 0.0000 0.0000 42.1059
#
#
#
# Elastic Compliance Matrix: (Units=1/GPa)
#
#
# Indices 1 2 3 4 5 6 
#
# 1 0.009346 -0.003603 -0.002715 0.000000 0.000000 0.000000
# 2 -0.003603 0.009346 -0.002715 0.000000 0.000000 0.000000
# 3 -0.002715 -0.002715 0.015283 0.000000 0.000000 0.000000
# 4 0.000000 0.000000 0.000000 0.040467 0.000000 0.000000
# 5 0.000000 0.000000 0.000000 0.000000 0.040467 0.000000
# 6 0.000000 0.000000 0.000000 0.000000 0.000000 0.023750
#
#
# Mechanical properties :
#
#
# Convention : Reuss Voigt Hill
#
# Bulk Modulus (GPa) = 62.84978 71.75864 67.30421
# Shear Modulus (GPa) = 30.85906 33.29027 32.07467
#
# Velocity S-wave (km/s) = 3.86770 4.01717 3.94314
# Velocity P-wave (km/s) = 7.10016 7.50348 7.30460
#
# Compressibility (1/GPa) = 0.01591096
#
# Stress axis : x y z
#
# Youngs Moduli (GPa) = 106.99836 106.99841 65.43140
#
# Poissons Ratio (x) = 0.38550 0.17762
# Poissons Ratio (y) = 0.38549 0.17762
# Poissons Ratio (z) = 0.29046 0.29046
#
# Static dielectric constant tensor:
#      x y z
#    x 3.889530 0.000000 0.000000 
#    y 0.000000 3.889530 0.000000 
#    z 0.000000 0.000000 3.446130 
# 
# 
# High freq. dielectric constant tensor:
#      x y z
#    x 1.821590 0.000000 0.000000 
#    y 0.000000 1.821590 0.000000 
#    z 0.000000 0.000000 1.783330 
# 
# From -- ./inp_files/1197.got.cif
#   From: 2010.03.12/outbox.cif.g09.slc.cpg/sg136_1_cif.got.tgz:1197.got - 2010.04.06 18:39:43.
