data_PCOD8318511
_publ_section_title
;
Structure prediction by ZEFSAII (Michael W. Deem and Ramdas Pophale) SiO2 
 PCOD8318511
Probable space group: P 42/N M C
;
_chemical_formula_sum "Si O2"
_cell_formula_units_Z 96
_cell_length_a 14.411847
_cell_length_b 14.411847
_cell_length_c 26.078812
_cell_angle_alpha 90.000000
_cell_angle_beta 90.000000
_cell_angle_gamma 90.000000
_cell_volume 5416.604040
_symmetry_space_group_name_H-M "P 42/N M C"
_symmetry_group_IT_number 137
_space_group.IT_coordinate_system_code '2'
_symmetry_cell_setting 'tetragonal'
loop_
_space_group_symop_operation_xyz
x,y,z
1/2-y,x,1/2+z
1/2-x,1/2-y,z
y,1/2-x,1/2+z
1/2+x,-y,-z
-x,1/2+y,-z
1/2+y,1/2+x,1/2-z
-y,-x,1/2-z
-x,-y,-z
1/2+y,-x,1/2-z
1/2+x,1/2+y,-z
-y,1/2+x,1/2-z
1/2-x,y,z
x,1/2-y,z
1/2-y,1/2-x,1/2+z
y,x,1/2+z
loop_
_atom_site_type_symbol
_atom_site_label
_atom_site_fract_x
_atom_site_fract_y
_atom_site_fract_z
Si Si1 0.356406 0.092329 0.318375
Si Si2 0.094664 0.504559 0.032156
Si Si3 0.354827 0.750000 0.472852
Si Si4 0.358629 0.250000 0.390733
Si Si5 0.638365 0.750000 0.490489
Si Si6 0.972011 0.076263 0.650897
Si Si7 0.750000 0.145766 0.851163
Si Si8 0.144281 0.147172 0.202849
O O1 0.250000 0.062814 0.329531
O O2 0.397066 0.158932 0.362737
O O3 0.365785 0.140975 0.263798
O O4 0.422854 0.005702 0.319570
O O5 0.156271 0.409276 0.032069
O O6 0.064186 0.526495 0.089893
O O7 0.157946 0.588687 0.009641
O O8 0.000000 0.500000 0.000000
O O9 0.250000 0.750000 0.496182
O O10 0.349719 0.750000 0.412101
O O11 0.250000 0.250000 0.381253
O O12 0.385702 0.250000 0.449682
O O13 0.750000 0.750000 0.479616
O O14 0.911585 0.163203 0.669069
O O15 0.076085 0.080438 0.672154
O O16 0.750000 0.250000 0.828276
O O17 0.250000 0.128813 0.186111
O O18 0.113062 0.250000 0.186134
#
# Coordination Sequence:
#
# PCOD8318511 Si02
#       8
#    16  16   8   8   8  16   8  16
#     4  10  19  33  55  79 106 136 178 229 270 321
#     4  10  21  35  51  78 111 141 183 231 275 323
#     4   8  17  33  52  69  97 140 181 217 264 329
#     4   9  17  33  55  80 103 137 184 229 279 313
#     4  10  21  35  54  79 111 146 187 231 276 334
#     4  11  20  33  52  78 106 145 181 213 272 332
#     4   9  17  31  48  74 107 139 171 201 254 326
#     4  10  20  35  53  74 106 142 178 223 266 315
#
# _framework density 17.723282000000001
#
# number of rings (size 3 to 8) (size 9 to 14) (size 15 to 20)
#    0.000    2.167    1.667    2.500    0.000    2.000 
#    0.000    0.000    0.000    0.000    0.000    0.583 
#    0.000    0.000    0.000    0.000    0.000    0.000 
#
# Total GULP energy -1190100.299044 kJ/mol
# GULP energy per Si atom -12396.878115 kJ/mol
# Density = 1.768294 g / cm^3
# Si number density = 17.723282 Si / 1000 Ang^3
#
#
#
# Elastic Constant Matrix: (Units=GPa)
#
#
# Indices 1 2 3 4 5 6 
#
# 1 114.5123 49.1945 12.5568 0.0000 0.0000 0.0000
# 2 49.1945 114.5123 12.5568 0.0000 0.0000 0.0000
# 3 12.5568 12.5568 31.5153 0.0000 0.0000 0.0000
# 4 0.0000 0.0000 0.0000 24.7747 0.0000 0.0000
# 5 0.0000 0.0000 0.0000 0.0000 24.7747 0.0000
# 6 0.0000 0.0000 0.0000 0.0000 0.0000 5.3165
#
#
#
# Elastic Compliance Matrix: (Units=1/GPa)
#
#
# Indices 1 2 3 4 5 6 
#
# 1 0.010908 -0.004402 -0.002592 0.000000 0.000000 0.000000
# 2 -0.004402 0.010908 -0.002592 0.000000 0.000000 0.000000
# 3 -0.002592 -0.002592 0.033796 0.000000 0.000000 0.000000
# 4 0.000000 0.000000 0.000000 0.040364 0.000000 0.000000
# 5 0.000000 0.000000 0.000000 0.000000 0.040364 0.000000
# 6 0.000000 0.000000 0.000000 0.000000 0.000000 0.188093
#
#
# Mechanical properties :
#
#
# Convention : Reuss Voigt Hill
#
# Bulk Modulus (GPa) = 27.44270 45.46175 36.45222
# Shear Modulus (GPa) = 14.05472 23.38862 18.72167
#
# Velocity S-wave (km/s) = 2.81910 3.63665 3.25365
# Velocity P-wave (km/s) = 5.11019 6.58332 5.89297
#
# Compressibility (1/GPa) = 0.03643957
#
# Stress axis : x y z
#
# Youngs Moduli (GPa) = 91.67616 91.67616 29.58900
#
# Poissons Ratio (x) = 0.40354 0.07670
# Poissons Ratio (y) = 0.40354 0.07670
# Poissons Ratio (z) = 0.23765 0.23765
#
# Static dielectric constant tensor:
#      x y z
#    x 3.347880 0.000000 0.000000 
#    y 0.000000 3.347880 0.000000 
#    z 0.000000 0.000000 3.151920 
# 
# 
# High freq. dielectric constant tensor:
#      x y z
#    x 1.680790 0.000000 0.000000 
#    y 0.000000 1.680790 0.000000 
#    z 0.000000 0.000000 1.676140 
# 
# From -- ./inp_files/8906.got.cif
#   From: 2010.03.12/outbox.cif.g09.slc.cpg/sg137_5_cif.got.tgz:8906.got - 2010.04.08 09:34:49.
