data_PCOD8318946
_publ_section_title
;
Structure prediction by ZEFSAII (Michael W. Deem and Ramdas Pophale) SiO2 
 PCOD8318946
Probable space group: P 42/N C M
;
_chemical_formula_sum "Si O2"
_cell_formula_units_Z 60
_cell_length_a 10.432443
_cell_length_b 10.432443
_cell_length_c 25.386033
_cell_angle_alpha 90.000000
_cell_angle_beta 90.000000
_cell_angle_gamma 90.000000
_cell_volume 2762.910910
_symmetry_space_group_name_H-M "P 42/N C M"
_symmetry_group_IT_number 138
_space_group.IT_coordinate_system_code '2'
_symmetry_cell_setting 'tetragonal'
loop_
_space_group_symop_operation_xyz
x,y,z
1/2-y,x,1/2+z
1/2-x,1/2-y,z
y,1/2-x,1/2+z
1/2+x,-y,1/2-z
-x,1/2+y,1/2-z
1/2+y,1/2+x,-z
-y,-x,-z
-x,-y,-z
1/2+y,-x,1/2-z
1/2+x,1/2+y,-z
-y,1/2+x,1/2-z
1/2-x,y,1/2+z
x,1/2-y,1/2+z
1/2-y,1/2-x,z
y,x,z
loop_
_atom_site_type_symbol
_atom_site_label
_atom_site_fract_x
_atom_site_fract_y
_atom_site_fract_z
Si Si1 0.349988 0.150013 0.295826
Si Si2 0.417771 0.417771 0.118225
Si Si3 0.643798 0.643798 0.999911
Si Si4 0.383011 0.797247 0.650548
Si Si5 0.457007 0.671817 0.546767
Si Si6 0.250000 0.250000 0.694559
O O1 0.250000 0.250000 0.323232
O O2 0.493153 0.196580 0.311114
O O3 0.339294 0.160707 0.232343
O O4 0.390452 0.390452 0.058483
O O5 0.562268 0.374774 0.126926
O O6 0.336049 0.336049 0.158302
O O7 0.750000 0.750000 0.996511
O O8 0.694015 0.523460 0.032541
O O9 0.250000 0.750000 0.679428
O O10 0.393780 0.692381 0.603636
O O11 0.356077 0.643924 0.500000
O O12 0.554633 0.554633 0.551557
#
# Coordination Sequence:
#
# PCOD8318946 Si02
#       6
#     8   8   8  16  16   4
#     4   9  22  48  72  92 127 180 226 285 352 415
#     4  11  23  42  65  92 136 170 222 287 353 395
#     4  10  19  34  58  87 124 182 218 254 305 403
#     4  11  23  41  66 105 134 170 225 283 335 413
#     4  10  21  36  60  95 142 185 220 256 328 411
#     4  10  24  52  68  88 120 176 228 290 356 420
#
# _framework density 21.716227
#
# number of rings (size 3 to 8) (size 9 to 14) (size 15 to 20)
#    0.400    1.333    0.667    4.000    0.000    5.867 
#   14.400    0.000    0.000    0.000    0.000    0.000 
#    0.000    0.000    0.000    0.000    0.000    0.000 
#
# Total GULP energy -743518.002811 kJ/mol
# GULP energy per Si atom -12391.966714 kJ/mol
# Density = 2.166680 g / cm^3
# Si number density = 21.716227 Si / 1000 Ang^3
#
#
#
# Elastic Constant Matrix: (Units=GPa)
#
#
# Indices 1 2 3 4 5 6 
#
# 1 83.6519 65.2292 19.3349 0.0000 0.0000 0.0000
# 2 65.2292 83.6431 19.3350 0.0000 0.0000 0.0000
# 3 19.3349 19.3350 119.7758 0.0000 0.0000 0.0000
# 4 0.0000 0.0000 0.0000 -5.9760 0.0000 0.0000
# 5 0.0000 0.0000 0.0000 0.0000 -5.9752 0.0000
# 6 0.0000 0.0000 0.0000 0.0000 0.0000 51.3366
#
#
#
# Elastic Compliance Matrix: (Units=1/GPa)
#
#
# Indices 1 2 3 4 5 6 
#
# 1 0.030651 -0.023641 -0.001131 0.000000 0.000000 0.000000
# 2 -0.023641 0.030654 -0.001132 0.000000 0.000000 0.000000
# 3 -0.001131 -0.001132 0.008714 0.000000 0.000000 0.000000
# 4 0.000000 0.000000 0.000000 -0.167335 0.000000 0.000000
# 5 0.000000 0.000000 0.000000 0.000000 -0.167357 0.000000
# 6 0.000000 0.000000 0.000000 0.000000 0.000000 0.019479
#
#
# Mechanical properties :
#
#
# Convention : Reuss Voigt Hill
#
# Bulk Modulus (GPa) = 54.91730 54.98543 54.95136
# Shear Modulus (GPa) = -26.69300 20.08851 -3.30224
#
# Velocity S-wave (km/s) = -3.50976 3.04476 -1.23448
# Velocity P-wave (km/s) = 2.98646 6.14294 4.82983
#
# Compressibility (1/GPa) = 0.01820920
#
# Stress axis : x y z
#
# Youngs Moduli (GPa) = 32.62576 32.62218 114.75363
#
# Poissons Ratio (x) = 0.77123 0.12984
# Poissons Ratio (y) = 0.77132 0.12991
# Poissons Ratio (z) = 0.03691 0.03693
#
# Static dielectric constant tensor:
#      x y z
#    x 4.106030 0.000000 0.000000 
#    y 0.000000 4.106030 0.000000 
#    z 0.000000 0.000000 3.686040 
# 
# 
# High freq. dielectric constant tensor:
#      x y z
#    x 1.863730 0.000000 0.000000 
#    y 0.000000 1.863730 0.000000 
#    z 0.000000 0.000000 1.839060 
# 
# From -- ./inp_files/6810.got.cif
#   From: 2010.03.12/outbox.cif.g09.slc.cpg/sg138_4_cif.got.tgz:6810.got - 2010.04.08 09:41:05.
