data_PCOD8318818
_publ_section_title
;
Structure prediction by ZEFSAII (Michael W. Deem and Ramdas Pophale) SiO2 
 PCOD8318818
Probable space group: P 42/N M C
;
_chemical_formula_sum "Si O2"
_cell_formula_units_Z 64
_cell_length_a 15.565317
_cell_length_b 15.565317
_cell_length_c 13.082386
_cell_angle_alpha 90.000000
_cell_angle_beta 90.000000
_cell_angle_gamma 90.000000
_cell_volume 3169.588618
_symmetry_space_group_name_H-M "P 42/N M C"
_symmetry_group_IT_number 137
_space_group.IT_coordinate_system_code '2'
_symmetry_cell_setting 'tetragonal'
loop_
_space_group_symop_operation_xyz
x,y,z
1/2-y,x,1/2+z
1/2-x,1/2-y,z
y,1/2-x,1/2+z
1/2+x,-y,-z
-x,1/2+y,-z
1/2+y,1/2+x,1/2-z
-y,-x,1/2-z
-x,-y,-z
1/2+y,-x,1/2-z
1/2+x,1/2+y,-z
-y,1/2+x,1/2-z
1/2-x,y,z
x,1/2-y,z
1/2-y,1/2-x,1/2+z
y,x,1/2+z
loop_
_atom_site_type_symbol
_atom_site_label
_atom_site_fract_x
_atom_site_fract_y
_atom_site_fract_z
Si Si1 0.903495 0.846250 0.711623
Si Si2 0.927102 0.344926 0.159398
Si Si3 0.480308 0.846910 0.525833
Si Si4 0.654189 0.482493 0.792559
O O1 0.862616 0.750000 0.726872
O O2 0.840775 0.925954 0.733454
O O3 0.980512 0.860017 0.791016
O O4 0.934438 0.855339 0.594564
O O5 0.858282 0.358282 0.250000
O O6 0.917235 0.250000 0.114410
O O7 0.913391 0.408600 0.064728
O O8 0.443771 0.750000 0.536162
O O9 0.502875 0.869646 0.409802
O O10 0.584080 0.415921 0.750000
O O11 0.750000 0.442094 0.783056
#
# Coordination Sequence:
#
# PCOD8318818 Si02
#       4
#    16  16  16  16
#     4   9  19  37  60  84 108 137 182 239 292 338
#     4   9  16  27  49  80 108 138 181 233 287 337
#     4   9  19  35  53  77 112 149 184 229 282 331
#     4  11  24  40  58  81 114 156 193 226 270 328
#
# _framework density 20.191894000000001
#
# number of rings (size 3 to 8) (size 9 to 14) (size 15 to 20)
#    0.000    2.500    0.000    4.500    0.000    7.500 
#    0.000    6.250    0.000    4.500    0.000    0.000 
#    0.000    0.000    0.000    0.000    0.000    0.000 
#
# Total GULP energy -793198.646794 kJ/mol
# GULP energy per Si atom -12393.728856 kJ/mol
# Density = 2.014594 g / cm^3
# Si number density = 20.191894 Si / 1000 Ang^3
#
#
#
# Elastic Constant Matrix: (Units=GPa)
#
#
# Indices 1 2 3 4 5 6 
#
# 1 75.4217 32.6404 37.9874 0.0000 0.0000 0.0000
# 2 32.6404 75.4213 37.9853 0.0000 0.0000 0.0000
# 3 37.9874 37.9853 117.5464 0.0000 0.0000 0.0000
# 4 0.0000 0.0000 0.0000 23.7398 0.0000 0.0000
# 5 0.0000 0.0000 0.0000 0.0000 23.7397 0.0000
# 6 0.0000 0.0000 0.0000 0.0000 0.0000 16.1945
#
#
#
# Elastic Compliance Matrix: (Units=1/GPa)
#
#
# Indices 1 2 3 4 5 6 
#
# 1 0.017675 -0.005700 -0.003870 0.000000 0.000000 0.000000
# 2 -0.005700 0.017675 -0.003869 0.000000 0.000000 0.000000
# 3 -0.003870 -0.003869 0.011008 0.000000 0.000000 0.000000
# 4 0.000000 0.000000 0.000000 0.042123 0.000000 0.000000
# 5 0.000000 0.000000 0.000000 0.000000 0.042124 0.000000
# 6 0.000000 0.000000 0.000000 0.000000 0.000000 0.061749
#
#
# Mechanical properties :
#
#
# Convention : Reuss Voigt Hill
#
# Bulk Modulus (GPa) = 51.33829 53.95728 52.64778
# Shear Modulus (GPa) = 22.15075 23.38655 22.76865
#
# Velocity S-wave (km/s) = 3.31571 3.40695 3.36164
# Velocity P-wave (km/s) = 6.33553 6.50051 6.41855
#
# Compressibility (1/GPa) = 0.01947864
#
# Stress axis : x y z
#
# Youngs Moduli (GPa) = 56.57772 56.57860 90.84024
#
# Poissons Ratio (x) = 0.32251 0.35155
# Poissons Ratio (y) = 0.32250 0.35150
# Poissons Ratio (z) = 0.21895 0.21893
#
# Static dielectric constant tensor:
#      x y z
#    x 3.568110 0.000000 0.000000 
#    y 0.000000 3.568110 0.000000 
#    z 0.000000 0.000000 3.622270 
# 
# 
# High freq. dielectric constant tensor:
#      x y z
#    x 1.776390 0.000000 0.000000 
#    y 0.000000 1.776390 0.000000 
#    z 0.000000 0.000000 1.782190 
# 
# From -- ./inp_files/3334.got.cif
#   From: 2010.03.12/outbox.cif.g09.slc.cpg/sg137_2_cif.got.tgz:3334.got - 2010.04.08 09:34:49.
