data_PCOD8318913
_publ_section_title
;
Structure prediction by ZEFSAII (Michael W. Deem and Ramdas Pophale) SiO2 
 PCOD8318913
Probable space group: P 42/N C M
;
_chemical_formula_sum "Si O2"
_cell_formula_units_Z 112
_cell_length_a 13.847515
_cell_length_b 13.847515
_cell_length_c 33.983492
_cell_angle_alpha 90.000000
_cell_angle_beta 90.000000
_cell_angle_gamma 90.000000
_cell_volume 6516.459367
_symmetry_space_group_name_H-M "P 42/N C M"
_symmetry_group_IT_number 138
_space_group.IT_coordinate_system_code '2'
_symmetry_cell_setting 'tetragonal'
loop_
_space_group_symop_operation_xyz
x,y,z
1/2-y,x,1/2+z
1/2-x,1/2-y,z
y,1/2-x,1/2+z
1/2+x,-y,1/2-z
-x,1/2+y,1/2-z
1/2+y,1/2+x,-z
-y,-x,-z
-x,-y,-z
1/2+y,-x,1/2-z
1/2+x,1/2+y,-z
-y,1/2+x,1/2-z
1/2-x,y,1/2+z
x,1/2-y,1/2+z
1/2-y,1/2-x,z
y,x,z
loop_
_atom_site_type_symbol
_atom_site_label
_atom_site_fract_x
_atom_site_fract_y
_atom_site_fract_z
Si Si1 0.884730 0.043362 0.037497
Si Si2 0.214713 0.861246 0.654586
Si Si3 0.996749 0.351198 0.862399
Si Si4 0.436785 0.906278 0.376846
Si Si5 0.746397 0.598053 0.564847
Si Si6 0.973663 0.821215 0.187929
Si Si7 0.804966 0.105615 0.258856
O O1 0.886745 0.093374 0.080195
O O2 0.787597 0.978760 0.033500
O O3 0.883679 0.116322 0.000000
O O4 0.979965 0.979965 0.034720
O O5 0.250000 0.750000 0.661621
O O6 0.117488 0.858781 0.628567
O O7 0.293408 0.932694 0.634998
O O8 0.180564 0.912636 0.694915
O O9 0.042242 0.457758 0.858688
O O10 0.044031 0.293143 0.897688
O O11 0.023751 0.292095 0.822654
O O12 0.544754 0.955247 0.377594
O O13 0.373037 0.961559 0.344998
O O14 0.834669 0.665332 0.579910
O O15 0.663019 0.663019 0.544423
O O16 0.866028 0.866028 0.187651
O O17 0.015384 0.835693 0.231860
O O18 0.692736 0.127652 0.254106
#
# Coordination Sequence:
#
# PCOD8318913 Si02
#       7
#    16  16  16  16  16  16  16
#     4   9  16  28  49  79 109 132 169 219 258 304
#     4  12  19  33  54  74 101 140 181 224 254 306
#     4  11  21  32  51  77 103 133 170 214 261 315
#     4  10  19  32  53  79 104 137 176 216 267 310
#     4   9  16  28  47  73 106 137 160 195 258 323
#     4  11  20  32  50  75 106 138 168 209 268 321
#     4  11  17  31  48  70  99 133 177 221 253 290
#
# _framework density 17.187245999999998
#
# number of rings (size 3 to 8) (size 9 to 14) (size 15 to 20)
#    0.000    1.571    7.143    0.429    0.000    1.429 
#    0.000    0.714    0.000    5.143    0.000    4.000 
#    0.000    0.000    0.000    0.000    0.000    0.000 
#
# Total GULP energy -1387714.435132 kJ/mol
# GULP energy per Si atom -12390.307457 kJ/mol
# Density = 1.714813 g / cm^3
# Si number density = 17.187246 Si / 1000 Ang^3
#
#
#
# Elastic Constant Matrix: (Units=GPa)
#
#
# Indices 1 2 3 4 5 6 
#
# 1 81.7951 39.5150 22.9350 0.0000 0.0000 0.0000
# 2 39.5150 81.7951 22.9350 0.0000 0.0000 0.0000
# 3 22.9350 22.9350 70.2690 0.0000 0.0000 0.0000
# 4 0.0000 0.0000 0.0000 16.4076 0.0000 0.0000
# 5 0.0000 0.0000 0.0000 0.0000 16.4077 0.0000
# 6 0.0000 0.0000 0.0000 0.0000 0.0000 19.1392
#
#
#
# Elastic Compliance Matrix: (Units=1/GPa)
#
#
# Indices 1 2 3 4 5 6 
#
# 1 0.016528 -0.007124 -0.003069 0.000000 0.000000 0.000000
# 2 -0.007124 0.016528 -0.003069 0.000000 0.000000 0.000000
# 3 -0.003069 -0.003069 0.016235 0.000000 0.000000 0.000000
# 4 0.000000 0.000000 0.000000 0.060947 0.000000 0.000000
# 5 0.000000 0.000000 0.000000 0.000000 0.060947 0.000000
# 6 0.000000 0.000000 0.000000 0.000000 0.000000 0.052249
#
#
# Mechanical properties :
#
#
# Convention : Reuss Voigt Hill
#
# Bulk Modulus (GPa) = 43.92684 44.95880 44.44282
# Shear Modulus (GPa) = 19.41392 20.28917 19.85155
#
# Velocity S-wave (km/s) = 3.36453 3.43954 3.40224
# Velocity P-wave (km/s) = 6.38018 6.47988 6.43023
#
# Compressibility (1/GPa) = 0.02276512
#
# Stress axis : x y z
#
# Youngs Moduli (GPa) = 60.50391 60.50388 61.59671
#
# Poissons Ratio (x) = 0.43103 0.18906
# Poissons Ratio (y) = 0.43103 0.18906
# Poissons Ratio (z) = 0.18571 0.18571
#
# Static dielectric constant tensor:
#      x y z
#    x 3.245230 0.000000 0.000000 
#    y 0.000000 3.245230 0.000000 
#    z 0.000000 0.000000 3.330350 
# 
# 
# High freq. dielectric constant tensor:
#      x y z
#    x 1.645130 0.000000 0.000000 
#    y 0.000000 1.645130 0.000000 
#    z 0.000000 0.000000 1.647820 
# 
# From -- ./inp_files/8233.got.cif
#   From: 2010.03.12/outbox.cif.g09.slc.cpg/sg138_5_cif.got.tgz:8233.got - 2010.04.08 09:41:05.
