data_PCOD8318642
_publ_section_title
;
Structure prediction by ZEFSAII (Michael W. Deem and Ramdas Pophale) SiO2 
 PCOD8318642
Probable space group: P 42/N M C
;
_chemical_formula_sum "Si O2"
_cell_formula_units_Z 112
_cell_length_a 14.502951
_cell_length_b 14.502951
_cell_length_c 24.767563
_cell_angle_alpha 90.000000
_cell_angle_beta 90.000000
_cell_angle_gamma 90.000000
_cell_volume 5209.499920
_symmetry_space_group_name_H-M "P 42/N M C"
_symmetry_group_IT_number 137
_space_group.IT_coordinate_system_code '2'
_symmetry_cell_setting 'tetragonal'
loop_
_space_group_symop_operation_xyz
x,y,z
1/2-y,x,1/2+z
1/2-x,1/2-y,z
y,1/2-x,1/2+z
1/2+x,-y,-z
-x,1/2+y,-z
1/2+y,1/2+x,1/2-z
-y,-x,1/2-z
-x,-y,-z
1/2+y,-x,1/2-z
1/2+x,1/2+y,-z
-y,1/2+x,1/2-z
1/2-x,y,z
x,1/2-y,z
1/2-y,1/2-x,1/2+z
y,x,1/2+z
loop_
_atom_site_type_symbol
_atom_site_label
_atom_site_fract_x
_atom_site_fract_y
_atom_site_fract_z
Si Si1 0.855360 0.352707 0.602563
Si Si2 0.851611 0.853864 0.055920
Si Si3 0.911423 0.979043 0.965359
Si Si4 0.964771 0.857367 0.156010
Si Si5 0.857597 0.855908 0.757775
Si Si6 0.142112 0.468330 0.634857
Si Si7 0.148845 0.640660 0.809705
O O1 0.750000 0.368211 0.581721
O O2 0.866966 0.250000 0.626782
O O3 0.877194 0.425506 0.650874
O O4 0.924250 0.364812 0.551926
O O5 0.750000 0.850113 0.081595
O O6 0.883820 0.750000 0.039527
O O7 0.919488 0.897323 0.101079
O O8 0.845806 0.918247 0.003247
O O9 0.931231 0.918766 0.913058
O O10 0.000000 0.000000 0.000000
O O11 0.940404 0.750000 0.158180
O O12 0.920482 0.900766 0.210124
O O13 0.750000 0.875441 0.766819
O O14 0.876049 0.750000 0.741396
O O15 0.907309 0.880862 0.813129
O O16 0.250000 0.463051 0.619862
O O17 0.109149 0.573411 0.646476
O O18 0.112904 0.612904 0.750000
O O19 0.250000 0.597588 0.823154
O O20 0.156722 0.750000 0.810045
#
# Coordination Sequence:
#
# PCOD8318642 Si02
#       7
#    16  16  16  16  16  16  16
#     4  10  22  41  64  87 118 166 216 262 311 362
#     4  10  20  36  62  93 122 154 194 248 316 380
#     4  12  24  40  61  85 121 162 208 262 313 367
#     4   9  17  34  61  91 123 157 198 248 300 364
#     4   9  18  34  59  94 131 161 192 242 313 383
#     4  10  22  38  61  93 124 158 200 248 311 381
#     4   8  15  32  57  84 119 159 193 230 283 353
#
# _framework density 21.499184
#
# number of rings (size 3 to 8) (size 9 to 14) (size 15 to 20)
#    0.000    2.286    1.429    1.714    0.000    4.571 
#    0.000    2.857    0.000    4.286    0.000    4.000 
#    0.000    0.000    0.000    0.000    0.000    0.000 
#
# Total GULP energy -1388340.312858 kJ/mol
# GULP energy per Si atom -12395.895651 kJ/mol
# Density = 2.145025 g / cm^3
# Si number density = 21.499184 Si / 1000 Ang^3
#
#
#
# Elastic Constant Matrix: (Units=GPa)
#
#
# Indices 1 2 3 4 5 6 
#
# 1 104.6074 37.4757 58.1274 0.0000 0.0000 0.0000
# 2 37.4757 104.6074 58.1274 0.0000 0.0000 0.0000
# 3 58.1274 58.1274 128.7773 0.0000 0.0000 0.0000
# 4 0.0000 0.0000 0.0000 29.3553 0.0000 0.0000
# 5 0.0000 0.0000 0.0000 0.0000 29.3553 0.0000
# 6 0.0000 0.0000 0.0000 0.0000 0.0000 17.2611
#
#
#
# Elastic Compliance Matrix: (Units=1/GPa)
#
#
# Indices 1 2 3 4 5 6 
#
# 1 0.013028 -0.001868 -0.005037 0.000000 0.000000 0.000000
# 2 -0.001868 0.013028 -0.005037 0.000000 0.000000 0.000000
# 3 -0.005037 -0.005037 0.012313 0.000000 0.000000 0.000000
# 4 0.000000 0.000000 0.000000 0.034065 0.000000 0.000000
# 5 0.000000 0.000000 0.000000 0.000000 0.034065 0.000000
# 6 0.000000 0.000000 0.000000 0.000000 0.000000 0.057934
#
#
# Mechanical properties :
#
#
# Convention : Reuss Voigt Hill
#
# Bulk Modulus (GPa) = 69.04577 71.71699 70.38138
# Shear Modulus (GPa) = 25.88712 27.47846 26.68279
#
# Velocity S-wave (km/s) = 3.47378 3.57895 3.52676
# Velocity P-wave (km/s) = 6.94800 7.10697 7.02793
#
# Compressibility (1/GPa) = 0.01448315
#
# Stress axis : x y z
#
# Youngs Moduli (GPa) = 76.75837 76.75837 81.21655
#
# Poissons Ratio (x) = 0.14340 0.40911
# Poissons Ratio (y) = 0.14340 0.40911
# Poissons Ratio (z) = 0.38665 0.38665
#
# Static dielectric constant tensor:
#      x y z
#    x 4.204760 0.000000 0.000000 
#    y 0.000000 4.204760 0.000000 
#    z 0.000000 0.000000 4.171570 
# 
# 
# High freq. dielectric constant tensor:
#      x y z
#    x 1.847380 0.000000 0.000000 
#    y 0.000000 1.847380 0.000000 
#    z 0.000000 0.000000 1.820520 
# 
# From -- ./inp_files/8999.got.cif
#   From: 2010.03.12/outbox.cif.g09.slc.cpg/sg137_5_cif.got.tgz:8999.got - 2010.04.08 09:34:49.
