data_PCOD8318909
_publ_section_title
;
Structure prediction by ZEFSAII (Michael W. Deem and Ramdas Pophale) SiO2 
 PCOD8318909
Probable space group: P 42/N C M
;
_chemical_formula_sum "Si O2"
_cell_formula_units_Z 112
_cell_length_a 14.719584
_cell_length_b 14.719584
_cell_length_c 29.081567
_cell_angle_alpha 90.000000
_cell_angle_beta 90.000000
_cell_angle_gamma 90.000000
_cell_volume 6300.991249
_symmetry_space_group_name_H-M "P 42/N C M"
_symmetry_group_IT_number 138
_space_group.IT_coordinate_system_code '2'
_symmetry_cell_setting 'tetragonal'
loop_
_space_group_symop_operation_xyz
x,y,z
1/2-y,x,1/2+z
1/2-x,1/2-y,z
y,1/2-x,1/2+z
1/2+x,-y,1/2-z
-x,1/2+y,1/2-z
1/2+y,1/2+x,-z
-y,-x,-z
-x,-y,-z
1/2+y,-x,1/2-z
1/2+x,1/2+y,-z
-y,1/2+x,1/2-z
1/2-x,y,1/2+z
x,1/2-y,1/2+z
1/2-y,1/2-x,z
y,x,z
loop_
_atom_site_type_symbol
_atom_site_label
_atom_site_fract_x
_atom_site_fract_y
_atom_site_fract_z
Si Si1 0.546989 0.692033 0.533173
Si Si2 0.886181 0.036117 0.043247
Si Si3 0.387082 0.701158 0.697716
Si Si4 0.690749 0.111933 0.298268
Si Si5 0.948413 0.093789 0.386883
Si Si6 0.987755 0.135271 0.115132
Si Si7 0.039554 0.185671 0.572705
O O1 0.650668 0.650668 0.541277
O O2 0.530926 0.798829 0.543603
O O3 0.477601 0.640552 0.565917
O O4 0.518613 0.672254 0.481036
O O5 0.896456 0.100573 0.088452
O O6 0.894021 0.105980 0.000000
O O7 0.973823 0.973823 0.042157
O O8 0.432102 0.677477 0.747377
O O9 0.383508 0.809743 0.692461
O O10 0.288488 0.657090 0.698111
O O11 0.443662 0.664604 0.654711
O O12 0.680051 0.034943 0.336182
O O13 0.853577 0.044377 0.397746
O O14 0.020773 0.020773 0.370231
O O15 0.044832 0.207967 0.084711
O O16 0.051180 0.051180 0.125913
O O17 0.133649 0.133649 0.585273
#
# Coordination Sequence:
#
# PCOD8318909 Si02
#       7
#    16  16  16  16  16  16  16
#     4  10  20  34  53  76 103 137 175 212 259 314
#     4  10  20  34  50  72 102 136 175 216 254 298
#     4   9  17  32  54  74 102 133 166 210 260 316
#     4   9  18  32  51  77 101 131 169 212 260 309
#     4  10  19  32  52  75 102 134 166 210 261 309
#     4  11  21  34  53  75 105 139 174 220 262 302
#     4  10  20  34  51  73 104 139 173 213 260 312
#
# _framework density 17.774982000000001
#
# number of rings (size 3 to 8) (size 9 to 14) (size 15 to 20)
#    0.000    2.143    2.857    2.143    0.000    2.857 
#    0.000    1.429    0.000    0.000    0.000    0.000 
#    0.000    2.286    0.000    0.000    0.000    0.000 
#
# Total GULP energy -1387780.954874 kJ/mol
# GULP energy per Si atom -12390.901383 kJ/mol
# Density = 1.773453 g / cm^3
# Si number density = 17.774982 Si / 1000 Ang^3
#
#
#
# Elastic Constant Matrix: (Units=GPa)
#
#
# Indices 1 2 3 4 5 6 
#
# 1 59.4768 13.1437 29.9746 0.0000 0.0000 0.0000
# 2 13.1437 59.4768 29.9746 0.0000 0.0000 0.0000
# 3 29.9746 29.9746 112.2519 0.0000 0.0000 0.0000
# 4 0.0000 0.0000 0.0000 20.7645 0.0000 0.0000
# 5 0.0000 0.0000 0.0000 0.0000 20.7646 0.0000
# 6 0.0000 0.0000 0.0000 0.0000 0.0000 23.8706
#
#
#
# Elastic Compliance Matrix: (Units=1/GPa)
#
#
# Indices 1 2 3 4 5 6 
#
# 1 0.019623 -0.001959 -0.004717 0.000000 0.000000 0.000000
# 2 -0.001959 0.019623 -0.004717 0.000000 0.000000 0.000000
# 3 -0.004717 -0.004717 0.011428 0.000000 0.000000 0.000000
# 4 0.000000 0.000000 0.000000 0.048159 0.000000 0.000000
# 5 0.000000 0.000000 0.000000 0.000000 0.048159 0.000000
# 6 0.000000 0.000000 0.000000 0.000000 0.000000 0.041893
#
#
# Mechanical properties :
#
#
# Convention : Reuss Voigt Hill
#
# Bulk Modulus (GPa) = 35.85726 41.93236 38.89481
# Shear Modulus (GPa) = 22.62779 23.62078 23.12428
#
# Velocity S-wave (km/s) = 3.57180 3.64933 3.61078
# Velocity P-wave (km/s) = 6.10140 6.43418 6.27000
#
# Compressibility (1/GPa) = 0.02788835
#
# Stress axis : x y z
#
# Youngs Moduli (GPa) = 50.95951 50.95952 87.50745
#
# Poissons Ratio (x) = 0.09985 0.41276
# Poissons Ratio (y) = 0.09985 0.41276
# Poissons Ratio (z) = 0.24037 0.24037
#
# Static dielectric constant tensor:
#      x y z
#    x 3.213490 0.000000 0.000000 
#    y 0.000000 3.213490 0.000000 
#    z 0.000000 0.000000 3.504770 
# 
# 
# High freq. dielectric constant tensor:
#      x y z
#    x 1.669510 0.000000 0.000000 
#    y 0.000000 1.669510 0.000000 
#    z 0.000000 0.000000 1.697920 
# 
# From -- ./inp_files/7588.got.cif
#   From: 2010.03.12/outbox.cif.g09.slc.cpg/sg138_4_cif.got.tgz:7588.got - 2010.04.08 09:41:05.
