data_PCOD8318161
_publ_section_title
;
Structure prediction by ZEFSAII (Michael W. Deem and Ramdas Pophale) SiO2 
 PCOD8318161
Probable space group: P 42/M N M
;
_chemical_formula_sum "Si O2"
_cell_formula_units_Z 96
_cell_length_a 23.927918
_cell_length_b 23.927918
_cell_length_c 8.698983
_cell_angle_alpha 90.000000
_cell_angle_beta 90.000000
_cell_angle_gamma 90.000000
_cell_volume 4980.561482
_symmetry_space_group_name_H-M "P 42/M N M"
_symmetry_group_IT_number 136
_symmetry_cell_setting 'tetragonal'
loop_
_space_group_symop_operation_xyz
x,y,z
1/2-y,1/2+x,1/2+z
-x,-y,z
1/2+y,1/2-x,1/2+z
1/2+x,1/2-y,1/2-z
1/2-x,1/2+y,1/2-z
y,x,-z
-y,-x,-z
-x,-y,-z
1/2+y,1/2-x,1/2-z
x,y,-z
1/2-y,1/2+x,1/2-z
1/2-x,1/2+y,1/2+z
1/2+x,1/2-y,1/2+z
-y,-x,z
y,x,z
loop_
_atom_site_type_symbol
_atom_site_label
_atom_site_fract_x
_atom_site_fract_y
_atom_site_fract_z
Si Si1 0.563654 0.056395 0.817046
Si Si2 0.846975 0.640437 0.819429
Si Si3 0.769252 0.141823 0.823476
Si Si4 0.153944 0.064741 0.324115
Si Si5 0.234042 0.145596 0.180673
Si Si6 0.638246 0.549080 0.326928
O O1 0.504909 0.078103 0.748887
O O2 0.612622 0.098701 0.771016
O O3 0.559051 0.052777 0.000000
O O4 0.782406 0.626991 0.785996
O O5 0.855981 0.703159 0.754458
O O6 0.859322 0.634796 0.000000
O O7 0.800096 0.199905 0.775586
O O8 0.811761 0.091601 0.800697
O O9 0.749367 0.145719 0.000000
O O10 0.170126 0.073936 0.500000
O O11 0.097774 0.097774 0.279186
O O12 0.205545 0.087043 0.223645
O O13 0.143832 0.000110 0.294079
O O14 0.197363 0.197363 0.250328
O O15 0.236756 0.152428 0.000000
O O16 0.639922 0.525077 0.500000
O O17 0.579618 0.579618 0.296470
#
# Coordination Sequence:
#
# PCOD8318161 Si02
#       6
#    16  16  16  16  16  16
#     4  11  23  42  64  85 112 145 181 224 275 326
#     4  11  22  36  58  88 115 144 184 224 268 328
#     4   9  19  36  56  80 112 147 183 228 280 328
#     4  10  21  35  52  77 108 141 179 226 277 323
#     4   9  19  36  56  78 108 145 182 222 267 317
#     4   9  19  36  56  77 104 142 185 225 269 323
#
# _framework density 19.274936
#
# number of rings (size 3 to 8) (size 9 to 14) (size 15 to 20)
#    0.000    2.167    0.000    4.500    0.000    6.000 
#    0.000    6.667    0.000    0.000    0.000    0.000 
#    0.000    0.000    0.000    0.000    0.000    0.000 
#
# Total GULP energy -1190455.912991 kJ/mol
# GULP energy per Si atom -12400.582427 kJ/mol
# Density = 1.923107 g / cm^3
# Si number density = 19.274936 Si / 1000 Ang^3
#
#
#
# Elastic Constant Matrix: (Units=GPa)
#
#
# Indices 1 2 3 4 5 6 
#
# 1 160.4515 -11.2253 34.4727 0.0000 0.0000 0.0000
# 2 -11.2253 160.4515 34.4727 0.0000 0.0000 0.0000
# 3 34.4727 34.4727 71.5148 0.0000 0.0000 0.0000
# 4 0.0000 0.0000 0.0000 27.9061 0.0000 0.0000
# 5 0.0000 0.0000 0.0000 0.0000 27.9061 0.0000
# 6 0.0000 0.0000 0.0000 0.0000 0.0000 23.9645
#
#
#
# Elastic Compliance Matrix: (Units=1/GPa)
#
#
# Indices 1 2 3 4 5 6 
#
# 1 0.007223 0.001398 -0.004156 0.000000 0.000000 0.000000
# 2 0.001398 0.007223 -0.004156 0.000000 0.000000 0.000000
# 3 -0.004156 -0.004156 0.017990 0.000000 0.000000 0.000000
# 4 0.000000 0.000000 0.000000 0.035835 0.000000 0.000000
# 5 0.000000 0.000000 0.000000 0.000000 0.035835 0.000000
# 6 0.000000 0.000000 0.000000 0.000000 0.000000 0.041728
#
#
# Mechanical properties :
#
#
# Convention : Reuss Voigt Hill
#
# Bulk Modulus (GPa) = 53.73719 56.42864 55.08291
# Shear Modulus (GPa) = 30.14537 38.26850 34.20693
#
# Velocity S-wave (km/s) = 3.95899 4.46062 4.21727
# Velocity P-wave (km/s) = 6.98842 7.47454 7.23556
#
# Compressibility (1/GPa) = 0.01860909
#
# Stress axis : x y z
#
# Youngs Moduli (GPa) = 138.44494 138.44494 55.58774
#
# Poissons Ratio (x) = -0.19357 0.23101
# Poissons Ratio (y) = -0.19357 0.23101
# Poissons Ratio (z) = 0.57534 0.57534
#
# Static dielectric constant tensor:
#      x y z
#    x 3.531770 0.000000 0.000000 
#    y 0.000000 3.531770 0.000000 
#    z 0.000000 0.000000 3.462930 
# 
# 
# High freq. dielectric constant tensor:
#      x y z
#    x 1.751530 0.000000 0.000000 
#    y 0.000000 1.751530 0.000000 
#    z 0.000000 0.000000 1.747740 
# 
# From -- ./inp_files/1912.got.cif
#   From: 2010.03.12/outbox.cif.g09.slc.cpg/sg136_1_cif.got.tgz:1912.got - 2010.04.06 18:39:43.
