data_PCOD8318908
_publ_section_title
;
Structure prediction by ZEFSAII (Michael W. Deem and Ramdas Pophale) SiO2 
 PCOD8318908
Probable space group: P 42/N C M
;
_chemical_formula_sum "Si O2"
_cell_formula_units_Z 80
_cell_length_a 29.664484
_cell_length_b 29.664484
_cell_length_c 5.026461
_cell_angle_alpha 90.000000
_cell_angle_beta 90.000000
_cell_angle_gamma 90.000000
_cell_volume 4423.193248
_symmetry_space_group_name_H-M "P 42/N C M"
_symmetry_group_IT_number 138
_space_group.IT_coordinate_system_code '2'
_symmetry_cell_setting 'tetragonal'
loop_
_space_group_symop_operation_xyz
x,y,z
1/2-y,x,1/2+z
1/2-x,1/2-y,z
y,1/2-x,1/2+z
1/2+x,-y,1/2-z
-x,1/2+y,1/2-z
1/2+y,1/2+x,-z
-y,-x,-z
-x,-y,-z
1/2+y,-x,1/2-z
1/2+x,1/2+y,-z
-y,1/2+x,1/2-z
1/2-x,y,1/2+z
x,1/2-y,1/2+z
1/2-y,1/2-x,z
y,x,z
loop_
_atom_site_type_symbol
_atom_site_label
_atom_site_fract_x
_atom_site_fract_y
_atom_site_fract_z
Si Si1 0.719962 0.082386 0.495108
Si Si2 0.980272 0.909887 0.392016
Si Si3 0.084011 0.915990 0.500000
Si Si4 0.373083 0.873083 0.500000
Si Si5 0.479634 0.278792 0.961522
Si Si6 0.560919 0.631551 0.890417
O O1 0.740137 0.091356 0.204310
O O2 0.679559 0.117230 0.555409
O O3 0.702000 0.030694 0.512389
O O4 0.959582 0.959582 0.450140
O O5 0.970817 0.896676 0.088627
O O6 0.032822 0.908008 0.428844
O O7 0.957053 0.874180 0.590640
O O8 0.096578 0.885240 0.748128
O O9 0.472096 0.262960 0.660096
O O10 0.442104 0.316254 0.029210
O O11 0.612294 0.612294 0.912032
#
# Coordination Sequence:
#
# PCOD8318908 Si02
#       6
#    16  16   8   8  16  16
#     4  10  21  37  55  76 102 129 162 208 258 311
#     4  10  20  32  47  68 102 142 172 202 240 287
#     4  12  21  32  50  76 104 129 172 208 238 294
#     4  12  24  36  57  79  98 130 166 214 264 306
#     4  10  19  32  52  75 101 132 168 210 257 300
#     4  10  20  34  50  71 102 139 175 209 248 296
#
# _framework density 18.086480000000002
#
# number of rings (size 3 to 8) (size 9 to 14) (size 15 to 20)
#    0.000    1.600    0.000    6.300    0.000    3.200 
#    0.000    4.000    0.000    1.800    0.000    0.000 
#    0.000    2.400    0.000    0.000    0.000    0.000 
#
# Total GULP energy -992133.779086 kJ/mol
# GULP energy per Si atom -12401.672239 kJ/mol
# Density = 1.804531 g / cm^3
# Si number density = 18.086480 Si / 1000 Ang^3
#
#
#
# Elastic Constant Matrix: (Units=GPa)
#
#
# Indices 1 2 3 4 5 6 
#
# 1 81.2612 25.0094 -2.3738 0.0000 0.0000 0.0000
# 2 25.0094 81.2651 -2.3736 0.0000 0.0000 0.0000
# 3 -2.3738 -2.3736 64.2178 0.0000 0.0000 0.0000
# 4 0.0000 0.0000 0.0000 19.7787 0.0000 0.0000
# 5 0.0000 0.0000 0.0000 0.0000 19.7777 0.0000
# 6 0.0000 0.0000 0.0000 0.0000 0.0000 27.0012
#
#
#
# Elastic Compliance Matrix: (Units=1/GPa)
#
#
# Indices 1 2 3 4 5 6 
#
# 1 0.013601 -0.004176 0.000348 0.000000 0.000000 0.000000
# 2 -0.004176 0.013601 0.000348 0.000000 0.000000 0.000000
# 3 0.000348 0.000348 0.015598 0.000000 0.000000 0.000000
# 4 0.000000 0.000000 0.000000 0.050559 0.000000 0.000000
# 5 0.000000 0.000000 0.000000 0.000000 0.050562 0.000000
# 6 0.000000 0.000000 0.000000 0.000000 0.000000 0.037035
#
#
# Mechanical properties :
#
#
# Convention : Reuss Voigt Hill
#
# Bulk Modulus (GPa) = 27.90022 29.69643 28.79832
# Shear Modulus (GPa) = 25.01734 27.07701 26.04717
#
# Velocity S-wave (km/s) = 3.72318 3.87342 3.79904
# Velocity P-wave (km/s) = 5.82600 6.03815 5.93302
#
# Compressibility (1/GPa) = 0.03584202
#
# Stress axis : x y z
#
# Youngs Moduli (GPa) = 73.52243 73.52606 64.11176
#
# Poissons Ratio (x) = 0.30702 -0.02234
# Poissons Ratio (y) = 0.30700 -0.02233
# Poissons Ratio (z) = -0.02562 -0.02561
#
# Static dielectric constant tensor:
#      x y z
#    x 3.178680 0.000000 0.000000 
#    y 0.000000 3.178650 0.000000 
#    z 0.000000 0.000000 3.587670 
# 
# 
# High freq. dielectric constant tensor:
#      x y z
#    x 1.675980 0.000000 0.000000 
#    y 0.000000 1.675980 0.000000 
#    z 0.000000 0.000000 1.727690 
# 
# From -- ./inp_files/481.got.cif
#   From: 2010.03.12/outbox.cif.g09.slc.cpg/sg138_1_cif.got.tgz:481.got - 2010.04.08 09:41:05.
