data_PCOD8318943
_publ_section_title
;
Structure prediction by ZEFSAII (Michael W. Deem and Ramdas Pophale) SiO2 
 PCOD8318943
Probable space group: P 42/N C M
;
_chemical_formula_sum "Si O2"
_cell_formula_units_Z 80
_cell_length_a 12.404063
_cell_length_b 12.404063
_cell_length_c 27.613064
_cell_angle_alpha 90.000000
_cell_angle_beta 90.000000
_cell_angle_gamma 90.000000
_cell_volume 4248.567535
_symmetry_space_group_name_H-M "P 42/N C M"
_symmetry_group_IT_number 138
_space_group.IT_coordinate_system_code '2'
_symmetry_cell_setting 'tetragonal'
loop_
_space_group_symop_operation_xyz
x,y,z
1/2-y,x,1/2+z
1/2-x,1/2-y,z
y,1/2-x,1/2+z
1/2+x,-y,1/2-z
-x,1/2+y,1/2-z
1/2+y,1/2+x,-z
-y,-x,-z
-x,-y,-z
1/2+y,-x,1/2-z
1/2+x,1/2+y,-z
-y,1/2+x,1/2-z
1/2-x,y,1/2+z
x,1/2-y,1/2+z
1/2-y,1/2-x,z
y,x,z
loop_
_atom_site_type_symbol
_atom_site_label
_atom_site_fract_x
_atom_site_fract_y
_atom_site_fract_z
Si Si1 0.442652 0.880451 0.446555
Si Si2 0.623801 0.252194 0.375686
Si Si3 0.839570 0.480179 0.903477
Si Si4 0.921651 0.744358 0.312460
Si Si5 0.754589 0.417710 0.732574
O O1 0.399583 0.899583 0.500000
O O2 0.345871 0.910238 0.410044
O O3 0.478021 0.754576 0.443891
O O4 0.544739 0.955262 0.434351
O O5 0.750000 0.250000 0.363732
O O6 0.596262 0.366500 0.401786
O O7 0.561135 0.242817 0.324873
O O8 0.775185 0.489681 0.852517
O O9 0.922901 0.577100 0.914298
O O10 0.877057 0.622944 0.321159
O O11 0.824125 0.824125 0.318857
O O12 0.967071 0.755205 0.258415
O O13 0.858836 0.353566 0.750366
#
# Coordination Sequence:
#
# PCOD8318943 Si02
#       5
#    16  16  16  16  16
#     4  10  22  40  60  83 111 146 187 233 286 341
#     4  10  19  34  57  82 113 147 190 231 271 330
#     4  10  20  36  59  86 112 142 184 236 285 330
#     4  10  21  34  50  78 112 145 183 225 273 329
#     4  11  18  31  51  78 110 146 184 219 261 319
#
# _framework density 18.829875999999999
#
# number of rings (size 3 to 8) (size 9 to 14) (size 15 to 20)
#    0.000    1.800    4.000    1.800    0.000    7.200 
#    0.000    2.000    0.000    1.800    0.000    0.000 
#    0.000    0.000    0.000    0.000    0.000    0.000 
#
# Total GULP energy -991913.969039 kJ/mol
# GULP energy per Si atom -12398.924613 kJ/mol
# Density = 1.878702 g / cm^3
# Si number density = 18.829876 Si / 1000 Ang^3
#
#
#
# Elastic Constant Matrix: (Units=GPa)
#
#
# Indices 1 2 3 4 5 6 
#
# 1 71.6900 25.1546 36.2965 0.0000 0.0000 0.0000
# 2 25.1546 71.6900 36.2965 0.0000 0.0000 0.0000
# 3 36.2965 36.2965 95.1288 0.0000 0.0000 0.0000
# 4 0.0000 0.0000 0.0000 26.1716 0.0000 0.0000
# 5 0.0000 0.0000 0.0000 0.0000 26.1716 0.0000
# 6 0.0000 0.0000 0.0000 0.0000 0.0000 15.1128
#
#
#
# Elastic Compliance Matrix: (Units=1/GPa)
#
#
# Indices 1 2 3 4 5 6 
#
# 1 0.017976 -0.003514 -0.005518 0.000000 0.000000 0.000000
# 2 -0.003514 0.017976 -0.005518 0.000000 0.000000 0.000000
# 3 -0.005518 -0.005518 0.014723 0.000000 0.000000 0.000000
# 4 0.000000 0.000000 0.000000 0.038209 0.000000 0.000000
# 5 0.000000 0.000000 0.000000 0.000000 0.038209 0.000000
# 6 0.000000 0.000000 0.000000 0.000000 0.000000 0.066169
#
#
# Mechanical properties :
#
#
# Convention : Reuss Voigt Hill
#
# Bulk Modulus (GPa) = 46.35015 48.22266 47.28641
# Shear Modulus (GPa) = 21.78153 22.87529 22.32841
#
# Velocity S-wave (km/s) = 3.40480 3.48924 3.44728
# Velocity P-wave (km/s) = 6.33447 6.47289 6.40405
#
# Compressibility (1/GPa) = 0.02157490
#
# Stress axis : x y z
#
# Youngs Moduli (GPa) = 55.63119 55.63119 67.92153
#
# Poissons Ratio (x) = 0.19546 0.37479
# Poissons Ratio (y) = 0.19546 0.37479
# Poissons Ratio (z) = 0.30697 0.30697
#
# Static dielectric constant tensor:
#      x y z
#    x 3.572630 0.000000 0.000000 
#    y 0.000000 3.572630 0.000000 
#    z 0.000000 0.000000 3.401980 
# 
# 
# High freq. dielectric constant tensor:
#      x y z
#    x 1.723420 0.000000 0.000000 
#    y 0.000000 1.723420 0.000000 
#    z 0.000000 0.000000 1.724500 
# 
# From -- ./inp_files/7874.got.cif
#   From: 2010.03.12/outbox.cif.g09.slc.cpg/sg138_4_cif.got.tgz:7874.got - 2010.04.08 09:41:05.
