data_PCOD8318748
_publ_section_title
;
Structure prediction by ZEFSAII (Michael W. Deem and Ramdas Pophale) SiO2 
 PCOD8318748
Probable space group: P 42/N M C
;
_chemical_formula_sum "Si O2"
_cell_formula_units_Z 80
_cell_length_a 27.620902
_cell_length_b 27.620902
_cell_length_c 4.899530
_cell_angle_alpha 90.000000
_cell_angle_beta 90.000000
_cell_angle_gamma 90.000000
_cell_volume 3737.921144
_symmetry_space_group_name_H-M "P 42/N M C"
_symmetry_group_IT_number 137
_space_group.IT_coordinate_system_code '2'
_symmetry_cell_setting 'tetragonal'
loop_
_space_group_symop_operation_xyz
x,y,z
1/2-y,x,1/2+z
1/2-x,1/2-y,z
y,1/2-x,1/2+z
1/2+x,-y,-z
-x,1/2+y,-z
1/2+y,1/2+x,1/2-z
-y,-x,1/2-z
-x,-y,-z
1/2+y,-x,1/2-z
1/2+x,1/2+y,-z
-y,1/2+x,1/2-z
1/2-x,y,z
x,1/2-y,z
1/2-y,1/2-x,1/2+z
y,x,1/2+z
loop_
_atom_site_type_symbol
_atom_site_label
_atom_site_fract_x
_atom_site_fract_y
_atom_site_fract_z
Si Si1 0.448482 0.400487 0.838493
Si Si2 0.347580 0.195905 0.460057
Si Si3 0.132001 0.945268 0.340150
Si Si4 0.435899 0.303095 0.101696
Si Si5 0.195283 0.956401 0.821127
O O1 0.437169 0.420391 0.538887
O O2 0.506457 0.400479 0.883560
O O3 0.427966 0.345922 0.882208
O O4 0.329836 0.250000 0.396943
O O5 0.341060 0.185311 0.781544
O O6 0.402681 0.188306 0.366985
O O7 0.097914 0.902087 0.250000
O O8 0.159140 0.928037 0.616766
O O9 0.174534 0.954831 0.124390
O O10 0.425834 0.250000 0.964594
O O11 0.489071 0.304774 0.219908
O O12 0.250000 0.935033 0.820083
#
# Coordination Sequence:
#
# PCOD8318748 Si02
#       5
#    16  16  16  16  16
#     4  11  22  37  56  79 112 155 199 242 291 356
#     4  11  23  37  53  71  95 128 170 225 288 356
#     4  11  23  39  60  90 127 163 199 241 287 342
#     4   9  20  37  57  80 104 137 186 247 305 348
#     4  10  21  39  63  90 121 154 193 242 294 341
#
# _framework density 21.402269
#
# number of rings (size 3 to 8) (size 9 to 14) (size 15 to 20)
#    0.000    1.600    0.000    5.400    0.000    6.000 
#    0.000   13.000    0.000    0.000    0.000    0.000 
#    0.000   28.000    0.000    0.000    0.000    0.000 
#
# Total GULP energy -991981.272587 kJ/mol
# GULP energy per Si atom -12399.765907 kJ/mol
# Density = 2.135356 g / cm^3
# Si number density = 21.402269 Si / 1000 Ang^3
#
#
#
# Elastic Constant Matrix: (Units=GPa)
#
#
# Indices 1 2 3 4 5 6 
#
# 1 60.5751 28.0031 -1.8720 0.0000 0.0000 0.0000
# 2 28.0031 60.5818 -1.8704 0.0000 0.0000 0.0000
# 3 -1.8720 -1.8704 65.3012 0.0000 0.0000 0.0000
# 4 0.0000 0.0000 0.0000 21.3840 0.0000 0.0000
# 5 0.0000 0.0000 0.0000 0.0000 21.3855 0.0000
# 6 0.0000 0.0000 0.0000 0.0000 0.0000 24.2810
#
#
#
# Elastic Compliance Matrix: (Units=1/GPa)
#
#
# Indices 1 2 3 4 5 6 
#
# 1 0.021002 -0.009698 0.000324 0.000000 0.000000 0.000000
# 2 -0.009698 0.020999 0.000323 0.000000 0.000000 0.000000
# 3 0.000324 0.000323 0.015332 0.000000 0.000000 0.000000
# 4 0.000000 0.000000 0.000000 0.046764 0.000000 0.000000
# 5 0.000000 0.000000 0.000000 0.000000 0.046761 0.000000
# 6 0.000000 0.000000 0.000000 0.000000 0.000000 0.041184
#
#
# Mechanical properties :
#
#
# Convention : Reuss Voigt Hill
#
# Bulk Modulus (GPa) = 25.48866 26.10885 25.79875
# Shear Modulus (GPa) = 22.39946 24.22325 23.31136
#
# Velocity S-wave (km/s) = 3.23862 3.36788 3.30388
# Velocity P-wave (km/s) = 5.09117 5.22964 5.16087
#
# Compressibility (1/GPa) = 0.03923314
#
# Stress axis : x y z
#
# Youngs Moduli (GPa) = 47.61555 47.62090 65.22217
#
# Poissons Ratio (x) = 0.46181 -0.02115
# Poissons Ratio (y) = 0.46176 -0.02110
# Poissons Ratio (z) = -0.01544 -0.01540
#
# Static dielectric constant tensor:
#      x y z
#    x 3.892340 0.000000 0.000000 
#    y 0.000000 3.892340 0.000000 
#    z 0.000000 0.000000 3.903980 
# 
# 
# High freq. dielectric constant tensor:
#      x y z
#    x 1.822180 0.000000 0.000000 
#    y 0.000000 1.822180 0.000000 
#    z 0.000000 0.000000 1.850200 
# 
# From -- ./inp_files/571.got.cif
#   From: 2010.03.12/outbox.cif.g09.slc.cpg/sg137_1_cif.got.tgz:571.got - 2010.04.08 09:34:49.
