data_PCOD8318443
_publ_section_title
;
Structure prediction by ZEFSAII (Michael W. Deem and Ramdas Pophale) SiO2 
 PCOD8318443
Probable space group: P 42/N M C
;
_chemical_formula_sum "Si O2"
_cell_formula_units_Z 64
_cell_length_a 14.143550
_cell_length_b 14.143550
_cell_length_c 14.560147
_cell_angle_alpha 90.000000
_cell_angle_beta 90.000000
_cell_angle_gamma 90.000000
_cell_volume 2912.611902
_symmetry_space_group_name_H-M "P 42/N M C"
_symmetry_group_IT_number 137
_space_group.IT_coordinate_system_code '2'
_symmetry_cell_setting 'tetragonal'
loop_
_space_group_symop_operation_xyz
x,y,z
1/2-y,x,1/2+z
1/2-x,1/2-y,z
y,1/2-x,1/2+z
1/2+x,-y,-z
-x,1/2+y,-z
1/2+y,1/2+x,1/2-z
-y,-x,1/2-z
-x,-y,-z
1/2+y,-x,1/2-z
1/2+x,1/2+y,-z
-y,1/2+x,1/2-z
1/2-x,y,z
x,1/2-y,z
1/2-y,1/2-x,1/2+z
y,x,1/2+z
loop_
_atom_site_type_symbol
_atom_site_label
_atom_site_fract_x
_atom_site_fract_y
_atom_site_fract_z
Si Si1 0.506278 0.854385 0.720587
Si Si2 0.142793 0.114980 0.119905
Si Si3 0.034974 0.091335 0.948029
Si Si4 0.607937 0.146494 0.645074
O O1 0.470560 0.750000 0.689857
O O2 0.578717 0.837372 0.803392
O O3 0.563231 0.902994 0.639027
O O4 0.416270 0.916270 0.750000
O O5 0.250000 0.152792 0.126017
O O6 0.138853 0.003777 0.136917
O O7 0.100291 0.147289 0.020679
O O8 0.941609 0.150588 0.913944
O O9 0.000000 0.000000 0.000000
O O10 0.638498 0.138498 0.750000
O O11 0.642252 0.250000 0.608315
#
# Coordination Sequence:
#
# PCOD8318443 Si02
#       4
#    16  16  16  16
#     4  12  23  41  65  92 129 172 215 265 321 386
#     4  10  20  38  65  95 125 167 215 264 319 377
#     4  10  18  38  65  92 123 165 216 257 322 380
#     4  10  18  33  60  89 126 166 208 261 318 377
#
# _framework density 21.973403999999999
#
# number of rings (size 3 to 8) (size 9 to 14) (size 15 to 20)
#    0.000    1.500    7.500    0.750    0.000    2.000 
#    0.000    2.500    0.000    3.000    0.000    0.000 
#    0.000    0.000    0.000    0.000    0.000    0.000 
#
# Total GULP energy -792943.351675 kJ/mol
# GULP energy per Si atom -12389.739870 kJ/mol
# Density = 2.192339 g / cm^3
# Si number density = 21.973404 Si / 1000 Ang^3
#
#
#
# Elastic Constant Matrix: (Units=GPa)
#
#
# Indices 1 2 3 4 5 6 
#
# 1 136.0821 34.3897 47.7880 0.0000 0.0000 0.0000
# 2 34.3897 136.0821 47.7880 0.0000 0.0000 0.0000
# 3 47.7880 47.7880 137.9079 0.0000 0.0000 0.0000
# 4 0.0000 0.0000 0.0000 3.1591 0.0000 0.0000
# 5 0.0000 0.0000 0.0000 0.0000 3.1591 0.0000
# 6 0.0000 0.0000 0.0000 0.0000 0.0000 -9.7062
#
#
#
# Elastic Compliance Matrix: (Units=1/GPa)
#
#
# Indices 1 2 3 4 5 6 
#
# 1 0.008557 -0.001277 -0.002523 0.000000 0.000000 0.000000
# 2 -0.001277 0.008557 -0.002523 0.000000 0.000000 0.000000
# 3 -0.002523 -0.002523 0.009000 0.000000 0.000000 0.000000
# 4 0.000000 0.000000 0.000000 0.316542 0.000000 0.000000
# 5 0.000000 0.000000 0.000000 0.000000 0.316542 0.000000
# 6 0.000000 0.000000 0.000000 0.000000 0.000000 -0.103027
#
#
# Mechanical properties :
#
#
# Convention : Reuss Voigt Hill
#
# Bulk Modulus (GPa) = 74.24295 74.44483 74.34389
# Shear Modulus (GPa) = 8.72137 17.99618 13.35877
#
# Velocity S-wave (km/s) = 1.99441 2.86492 2.46834
# Velocity P-wave (km/s) = 6.25816 6.70050 6.48311
#
# Compressibility (1/GPa) = 0.01346929
#
# Stress axis : x y z
#
# Youngs Moduli (GPa) = 116.86269 116.86269 111.11526
#
# Poissons Ratio (x) = 0.14918 0.28033
# Poissons Ratio (y) = 0.14918 0.28033
# Poissons Ratio (z) = 0.29483 0.29483
#
# Static dielectric constant tensor:
#      x y z
#    x 4.263690 0.000000 0.000000 
#    y 0.000000 4.263690 0.000000 
#    z 0.000000 0.000000 4.189740 
# 
# 
# High freq. dielectric constant tensor:
#      x y z
#    x 1.860120 0.000000 0.000000 
#    y 0.000000 1.860120 0.000000 
#    z 0.000000 0.000000 1.865290 
# 
# From -- ./inp_files/4723.got.cif
#   From: 2010.03.12/outbox.cif.g09.slc.cpg/sg137_3_cif.got.tgz:4723.got - 2010.04.08 09:34:49.
