data_PCOD8318084
_publ_section_title
;
Structure prediction by ZEFSAII (Michael W. Deem and Ramdas Pophale) SiO2 
 PCOD8318084
Probable space group: P 42/M N M
;
_chemical_formula_sum "Si O2"
_cell_formula_units_Z 96
_cell_length_a 24.586315
_cell_length_b 24.586315
_cell_length_c 8.783982
_cell_angle_alpha 90.000000
_cell_angle_beta 90.000000
_cell_angle_gamma 90.000000
_cell_volume 5309.801920
_symmetry_space_group_name_H-M "P 42/M N M"
_symmetry_group_IT_number 136
_symmetry_cell_setting 'tetragonal'
loop_
_space_group_symop_operation_xyz
x,y,z
1/2-y,1/2+x,1/2+z
-x,-y,z
1/2+y,1/2-x,1/2+z
1/2+x,1/2-y,1/2-z
1/2-x,1/2+y,1/2-z
y,x,-z
-y,-x,-z
-x,-y,-z
1/2+y,1/2-x,1/2-z
x,y,-z
1/2-y,1/2+x,1/2-z
1/2-x,1/2+y,1/2+z
1/2+x,1/2-y,1/2+z
-y,-x,z
y,x,z
loop_
_atom_site_type_symbol
_atom_site_label
_atom_site_fract_x
_atom_site_fract_y
_atom_site_fract_z
Si Si1 0.575205 0.424796 0.679204
Si Si2 0.835247 0.835247 0.178867
Si Si3 0.877909 0.033007 0.323274
Si Si4 0.233797 0.982664 0.820314
Si Si5 0.418048 0.874890 0.172771
Si Si6 0.461948 0.155311 0.822369
Si Si7 0.247957 0.597450 0.825285
O O1 0.569334 0.430667 0.500000
O O2 0.619964 0.380037 0.722936
O O3 0.517684 0.407300 0.745547
O O4 0.850929 0.777951 0.253853
O O5 0.828117 0.828117 0.000000
O O6 0.871156 0.019457 0.500000
O O7 0.913503 0.086498 0.295508
O O8 0.819082 0.045616 0.251386
O O9 0.288208 0.951780 0.765561
O O10 0.234647 0.045234 0.771011
O O11 0.229566 0.979041 0.000000
O O12 0.387389 0.915126 0.285601
O O13 0.480668 0.871265 0.225887
O O14 0.390571 0.815952 0.187242
O O15 0.413737 0.896784 0.000000
O O16 0.463114 0.169278 0.000000
O O17 0.265051 0.587681 0.000000
#
# Coordination Sequence:
#
# PCOD8318084 Si02
#       7
#     8   8  16  16  16  16  16
#     4  11  22  34  51  80 113 144 182 232 282 330
#     4  11  21  32  52  83 111 142 185 233 283 329
#     4  11  23  37  54  77 107 145 187 230 277 331
#     4  11  21  35  56  80 107 142 182 225 271 324
#     4   9  20  37  56  84 115 145 183 223 270 327
#     4  10  21  37  59  85 114 148 182 221 272 326
#     4  10  20  35  56  80 109 144 182 226 275 327
#
# _framework density 18.07977
#
# number of rings (size 3 to 8) (size 9 to 14) (size 15 to 20)
#    0.000    1.667    1.667    4.750    0.000    7.333 
#    0.000    1.667    1.833    0.000    0.000    0.000 
#    0.000    0.000    0.000    0.000    0.000    0.000 
#
# Total GULP energy -1190826.064258 kJ/mol
# GULP energy per Si atom -12404.438169 kJ/mol
# Density = 1.803862 g / cm^3
# Si number density = 18.079770 Si / 1000 Ang^3
#
#
#
# Elastic Constant Matrix: (Units=GPa)
#
#
# Indices 1 2 3 4 5 6 
#
# 1 96.6258 57.7864 49.3275 0.0000 0.0000 0.0000
# 2 57.7864 96.6257 49.3277 0.0000 0.0000 0.0000
# 3 49.3275 49.3277 105.5851 0.0000 0.0000 0.0000
# 4 0.0000 0.0000 0.0000 31.8592 0.0000 0.0000
# 5 0.0000 0.0000 0.0000 0.0000 31.8591 0.0000
# 6 0.0000 0.0000 0.0000 0.0000 0.0000 28.9577
#
#
#
# Elastic Compliance Matrix: (Units=1/GPa)
#
#
# Indices 1 2 3 4 5 6 
#
# 1 0.017489 -0.008258 -0.004313 0.000000 0.000000 0.000000
# 2 -0.008258 0.017489 -0.004313 0.000000 0.000000 0.000000
# 3 -0.004313 -0.004313 0.013501 0.000000 0.000000 0.000000
# 4 0.000000 0.000000 0.000000 0.031388 0.000000 0.000000
# 5 0.000000 0.000000 0.000000 0.000000 0.031388 0.000000
# 6 0.000000 0.000000 0.000000 0.000000 0.000000 0.034533
#
#
# Mechanical properties :
#
#
# Convention : Reuss Voigt Hill
#
# Bulk Modulus (GPa) = 67.96855 67.96888 67.96871
# Shear Modulus (GPa) = 27.10611 28.02821 27.56716
#
# Velocity S-wave (km/s) = 3.87622 3.94160 3.90904
# Velocity P-wave (km/s) = 7.59663 7.64136 7.61903
#
# Compressibility (1/GPa) = 0.01471269
#
# Stress axis : x y z
#
# Youngs Moduli (GPa) = 57.17762 57.17737 74.06931
#
# Poissons Ratio (x) = 0.47215 0.31945
# Poissons Ratio (y) = 0.47215 0.31946
# Poissons Ratio (z) = 0.24660 0.24660
#
# Static dielectric constant tensor:
#      x y z
#    x 3.290570 0.000000 0.000000 
#    y 0.000000 3.290570 0.000000 
#    z 0.000000 0.000000 3.423980 
# 
# 
# High freq. dielectric constant tensor:
#      x y z
#    x 1.691360 0.000000 0.000000 
#    y 0.000000 1.691360 0.000000 
#    z 0.000000 0.000000 1.716620 
# 
# From -- ./inp_files/2083.got.cif
#   From: 2010.03.12/outbox.cif.g09.slc.cpg/sg136_2_cif.got.tgz:2083.got - 2010.04.06 18:39:43.
