data_PCOD8318369
_publ_section_title
;
Structure prediction by ZEFSAII (Michael W. Deem and Ramdas Pophale) SiO2 
 PCOD8318369
Probable space group: P 42/N M C
;
_chemical_formula_sum "Si O2"
_cell_formula_units_Z 58
_cell_length_a 16.957085
_cell_length_b 16.957085
_cell_length_c 10.661671
_cell_angle_alpha 90.000000
_cell_angle_beta 90.000000
_cell_angle_gamma 90.000000
_cell_volume 3065.686004
_symmetry_space_group_name_H-M "P 42/N M C"
_symmetry_group_IT_number 137
_space_group.IT_coordinate_system_code '2'
_symmetry_cell_setting 'tetragonal'
loop_
_space_group_symop_operation_xyz
x,y,z
1/2-y,x,1/2+z
1/2-x,1/2-y,z
y,1/2-x,1/2+z
1/2+x,-y,-z
-x,1/2+y,-z
1/2+y,1/2+x,1/2-z
-y,-x,1/2-z
-x,-y,-z
1/2+y,-x,1/2-z
1/2+x,1/2+y,-z
-y,1/2+x,1/2-z
1/2-x,y,z
x,1/2-y,z
1/2-y,1/2-x,1/2+z
y,x,1/2+z
loop_
_atom_site_type_symbol
_atom_site_label
_atom_site_fract_x
_atom_site_fract_y
_atom_site_fract_z
Si Si1 0.341903 0.342347 0.691918
Si Si2 0.574377 0.842993 0.557497
Si Si3 0.156203 0.900330 0.878284
Si Si4 0.337622 0.750000 0.015653
Si Si5 0.750000 0.250000 0.750000
O O1 0.250000 0.360946 0.672634
O O2 0.357630 0.250000 0.708956
O O3 0.386445 0.377183 0.569364
O O4 0.376310 0.384528 0.816351
O O5 0.587714 0.750000 0.557041
O O6 0.482595 0.866594 0.557259
O O7 0.108866 0.891135 0.750000
O O8 0.250000 0.896413 0.853303
O O9 0.122737 0.830852 0.968739
O O10 0.250000 0.750000 0.955151
O O11 0.329873 0.750000 0.166997
#
# Coordination Sequence:
#
# PCOD8318369 Si02
#       5
#    16  16  16   8   2
#     4   9  16  30  51  73  99 134 171 207 254 299
#     4   9  18  29  49  75 102 130 171 213 246 301
#     4  10  17  29  51  75  96 127 169 209 248 297
#     4   8  16  27  50  71  98 128 161 207 255 299
#     4   8  16  28  50  76  96 128 156 214 256 308
#
# _framework density 18.919091999999999
#
# number of rings (size 3 to 8) (size 9 to 14) (size 15 to 20)
#    0.414    2.483    1.379    0.828    0.000    3.310 
#    0.000    1.379    6.069    0.000    0.000    0.000 
#    0.000    0.000    0.000    0.000    0.000    0.000 
#
# Total GULP energy -718731.900733 kJ/mol
# GULP energy per Si atom -12391.929323 kJ/mol
# Density = 1.887603 g / cm^3
# Si number density = 18.919092 Si / 1000 Ang^3
#
#
#
# Elastic Constant Matrix: (Units=GPa)
#
#
# Indices 1 2 3 4 5 6 
#
# 1 67.8918 24.2637 48.1037 0.0000 0.0000 0.0000
# 2 24.2637 67.8911 48.1030 0.0000 0.0000 0.0000
# 3 48.1037 48.1030 172.1703 0.0000 0.0000 0.0000
# 4 0.0000 0.0000 0.0000 8.7272 0.0000 0.0000
# 5 0.0000 0.0000 0.0000 0.0000 8.7279 0.0000
# 6 0.0000 0.0000 0.0000 0.0000 0.0000 9.3453
#
#
#
# Elastic Compliance Matrix: (Units=1/GPa)
#
#
# Indices 1 2 3 4 5 6 
#
# 1 0.019120 -0.003801 -0.004280 0.000000 0.000000 0.000000
# 2 -0.003801 0.019120 -0.004280 0.000000 0.000000 0.000000
# 3 -0.004280 -0.004280 0.008200 0.000000 0.000000 0.000000
# 4 0.000000 0.000000 0.000000 0.114584 0.000000 0.000000
# 5 0.000000 0.000000 0.000000 0.000000 0.114575 0.000000
# 6 0.000000 0.000000 0.000000 0.000000 0.000000 0.107006
#
#
# Mechanical properties :
#
#
# Convention : Reuss Voigt Hill
#
# Bulk Modulus (GPa) = 46.04393 60.98822 53.51607
# Shear Modulus (GPa) = 12.06074 17.85892 14.95983
#
# Velocity S-wave (km/s) = 2.52760 3.07573 2.81504
# Velocity P-wave (km/s) = 5.73659 6.70222 6.23812
#
# Compressibility (1/GPa) = 0.02171839
#
# Stress axis : x y z
#
# Youngs Moduli (GPa) = 52.30021 52.29991 121.95210
#
# Poissons Ratio (x) = 0.19878 0.52199
# Poissons Ratio (y) = 0.19878 0.52198
# Poissons Ratio (z) = 0.22386 0.22385
#
# Static dielectric constant tensor:
#      x y z
#    x 3.187530 0.000000 0.000000 
#    y 0.000000 3.187530 0.000000 
#    z 0.000000 0.000000 3.575800 
# 
# 
# High freq. dielectric constant tensor:
#      x y z
#    x 1.702200 0.000000 0.000000 
#    y 0.000000 1.702200 0.000000 
#    z 0.000000 0.000000 1.741720 
# 
# From -- ./inp_files/1590.got.cif
#   From: 2010.03.12/outbox.cif.g09.slc.cpg/sg137_1_cif.got.tgz:1590.got - 2010.04.08 09:34:49.
