data_PCOD8318260
_publ_section_title
;
Structure prediction by ZEFSAII (Michael W. Deem and Ramdas Pophale) SiO2 
 PCOD8318260
Probable space group: P 42/M N M
;
_chemical_formula_sum "Si O2"
_cell_formula_units_Z 96
_cell_length_a 15.081419
_cell_length_b 15.081419
_cell_length_c 22.190408
_cell_angle_alpha 90.000000
_cell_angle_beta 90.000000
_cell_angle_gamma 90.000000
_cell_volume 5047.190526
_symmetry_space_group_name_H-M "P 42/M N M"
_symmetry_group_IT_number 136
_symmetry_cell_setting 'tetragonal'
loop_
_space_group_symop_operation_xyz
x,y,z
1/2-y,1/2+x,1/2+z
-x,-y,z
1/2+y,1/2-x,1/2+z
1/2+x,1/2-y,1/2-z
1/2-x,1/2+y,1/2-z
y,x,-z
-y,-x,-z
-x,-y,-z
1/2+y,1/2-x,1/2-z
x,y,-z
1/2-y,1/2+x,1/2-z
1/2-x,1/2+y,1/2+z
1/2+x,1/2-y,1/2+z
-y,-x,z
y,x,z
loop_
_atom_site_type_symbol
_atom_site_label
_atom_site_fract_x
_atom_site_fract_y
_atom_site_fract_z
Si Si1 0.574393 0.921760 0.896754
Si Si2 0.303106 0.838495 0.847658
Si Si3 0.047821 0.272653 0.431417
Si Si4 0.569898 0.430103 0.570462
Si Si5 0.929993 0.929993 0.570917
Si Si6 0.988612 0.250955 0.067808
Si Si7 0.106616 0.410327 0.763664
O O1 0.542320 0.830681 0.929052
O O2 0.618445 0.893154 0.833084
O O3 0.500000 0.000000 0.890210
O O4 0.655574 0.960295 0.934748
O O5 0.254528 0.745473 0.846053
O O6 0.392101 0.826648 0.885399
O O7 0.246631 0.910806 0.883267
O O8 0.318074 0.867358 0.778325
O O9 0.085090 0.274216 0.500000
O O10 0.041467 0.170065 0.409457
O O11 0.500000 0.500000 0.600628
O O12 0.559643 0.440358 0.500000
O O13 0.671078 0.448486 0.589412
O O14 0.937082 0.937082 0.500000
O O15 0.000000 0.000000 0.600080
O O16 0.951479 0.234326 0.000000
O O17 0.119284 0.515338 0.766468
#
# Coordination Sequence:
#
# PCOD8318260 Si02
#       7
#    16  16  16   8   8  16  16
#     4  12  21  36  61  90 121 153 195 249 307 363
#     4  12  23  35  58  91 118 151 203 253 298 355
#     4  11  21  34  58  89 122 153 187 244 307 357
#     4   9  20  40  58  77 117 170 204 228 284 365
#     4   9  20  40  58  77 115 166 202 226 282 363
#     4  11  22  37  60  88 123 158 193 247 308 363
#     4  11  18  38  59  75 108 161 193 233 295 352
#
# _framework density 19.020482999999999
#
# number of rings (size 3 to 8) (size 9 to 14) (size 15 to 20)
#    0.000    1.000    7.500    1.500    0.000    2.333 
#    3.000    0.000    0.000    0.000    0.000    2.333 
#    0.000    0.000    0.000    0.000    0.000    0.000 
#
# Total GULP energy -1189740.658619 kJ/mol
# GULP energy per Si atom -12393.131861 kJ/mol
# Density = 1.897719 g / cm^3
# Si number density = 19.020483 Si / 1000 Ang^3
#
#
#
# Elastic Constant Matrix: (Units=GPa)
#
#
# Indices 1 2 3 4 5 6 
#
# 1 86.2768 42.1563 15.1143 0.0000 0.0000 0.0000
# 2 42.1563 86.2767 15.1144 0.0000 0.0000 0.0000
# 3 15.1143 15.1144 80.4952 0.0000 0.0000 0.0000
# 4 0.0000 0.0000 0.0000 13.7715 0.0000 0.0000
# 5 0.0000 0.0000 0.0000 0.0000 13.7715 0.0000
# 6 0.0000 0.0000 0.0000 0.0000 0.0000 32.3216
#
#
#
# Elastic Compliance Matrix: (Units=1/GPa)
#
#
# Indices 1 2 3 4 5 6 
#
# 1 0.015406 -0.007260 -0.001530 0.000000 0.000000 0.000000
# 2 -0.007260 0.015406 -0.001530 0.000000 0.000000 0.000000
# 3 -0.001530 -0.001530 0.012998 0.000000 0.000000 0.000000
# 4 0.000000 0.000000 0.000000 0.072614 0.000000 0.000000
# 5 0.000000 0.000000 0.000000 0.000000 0.072614 0.000000
# 6 0.000000 0.000000 0.000000 0.000000 0.000000 0.030939
#
#
# Mechanical properties :
#
#
# Convention : Reuss Voigt Hill
#
# Bulk Modulus (GPa) = 43.15641 44.20206 43.67924
# Shear Modulus (GPa) = 20.13394 24.01716 22.07555
#
# Velocity S-wave (km/s) = 3.25705 3.55730 3.41048
# Velocity P-wave (km/s) = 6.07315 6.33736 6.20667
#
# Compressibility (1/GPa) = 0.02317153
#
# Stress axis : x y z
#
# Youngs Moduli (GPa) = 64.91105 64.91097 76.93781
#
# Poissons Ratio (x) = 0.47122 0.11768
# Poissons Ratio (y) = 0.47122 0.11768
# Poissons Ratio (z) = 0.09929 0.09929
#
# Static dielectric constant tensor:
#      x y z
#    x 3.509200 0.000000 0.000000 
#    y 0.000000 3.509190 0.000000 
#    z 0.000000 0.000000 4.442860 
# 
# 
# High freq. dielectric constant tensor:
#      x y z
#    x 1.729850 0.000000 0.000000 
#    y 0.000000 1.729850 0.000000 
#    z 0.000000 0.000000 1.727990 
# 
# From -- ./inp_files/8434.got.cif
#   From: 2010.03.12/outbox.cif.g09.slc.cpg/sg136_5_cif.got.tgz:8434.got - 2010.04.06 18:39:43.
