data_PCOD8318151
_publ_section_title
;
Structure prediction by ZEFSAII (Michael W. Deem and Ramdas Pophale) SiO2 
 PCOD8318151
Probable space group: P 42/M N M
;
_chemical_formula_sum "Si O2"
_cell_formula_units_Z 64
_cell_length_a 10.690826
_cell_length_b 10.690826
_cell_length_c 30.462003
_cell_angle_alpha 90.000000
_cell_angle_beta 90.000000
_cell_angle_gamma 90.000000
_cell_volume 3481.616877
_symmetry_space_group_name_H-M "P 42/M N M"
_symmetry_group_IT_number 136
_symmetry_cell_setting 'tetragonal'
loop_
_space_group_symop_operation_xyz
x,y,z
1/2-y,1/2+x,1/2+z
-x,-y,z
1/2+y,1/2-x,1/2+z
1/2+x,1/2-y,1/2-z
1/2-x,1/2+y,1/2-z
y,x,-z
-y,-x,-z
-x,-y,-z
1/2+y,1/2-x,1/2-z
x,y,-z
1/2-y,1/2+x,1/2-z
1/2-x,1/2+y,1/2+z
1/2+x,1/2-y,1/2+z
-y,-x,z
y,x,z
loop_
_atom_site_type_symbol
_atom_site_label
_atom_site_fract_x
_atom_site_fract_y
_atom_site_fract_z
Si Si1 0.353682 0.149783 0.818773
Si Si2 0.500000 0.000000 0.610093
Si Si3 0.000075 0.201739 0.750746
Si Si4 0.294895 0.088620 0.551885
Si Si5 0.397720 0.397720 0.050905
O O1 0.255835 0.255835 0.833744
O O2 0.414967 0.091007 0.861318
O O3 0.463726 0.209693 0.789559
O O4 0.284890 0.040050 0.792007
O O5 0.577369 0.903609 0.579255
O O6 0.115015 0.115015 0.734901
O O7 0.881482 0.118519 0.765602
O O8 0.322826 0.086382 0.500000
O O9 0.206535 0.206535 0.563181
O O10 0.232152 0.956079 0.568549
O O11 0.500000 0.500000 0.061365
O O12 0.379479 0.379479 0.000000
#
# Coordination Sequence:
#
# PCOD8318151 Si02
#       5
#    16   8  16  16   8
#     4  10  21  34  50  78 108 135 176 219 260 314
#     4  12  23  31  52  82 112 140 168 217 281 316
#     4   9  18  35  56  72  97 141 182 215 255 306
#     4   9  19  36  56  77 103 139 181 220 265 321
#     4   7  12  28  54  76  93 123 169 217 260 302
#
# _framework density 18.382262999999998
#
# number of rings (size 3 to 8) (size 9 to 14) (size 15 to 20)
#    0.000    2.625    0.000    3.375    1.750    2.000 
#    0.000    0.000    0.000    0.000    0.000    1.750 
#    0.000    0.000    0.000    0.000    0.000    0.000 
#
# Total GULP energy -793115.681200 kJ/mol
# GULP energy per Si atom -12392.432519 kJ/mol
# Density = 1.834042 g / cm^3
# Si number density = 18.382263 Si / 1000 Ang^3
#
#
#
# Elastic Constant Matrix: (Units=GPa)
#
#
# Indices 1 2 3 4 5 6 
#
# 1 88.0934 40.8449 58.0113 0.0000 0.0000 0.0000
# 2 40.8449 88.0934 58.0113 0.0000 0.0000 0.0000
# 3 58.0113 58.0113 93.8481 0.0000 0.0000 0.0000
# 4 0.0000 0.0000 0.0000 24.2490 0.0000 0.0000
# 5 0.0000 0.0000 0.0000 0.0000 24.2490 0.0000
# 6 0.0000 0.0000 0.0000 0.0000 0.0000 23.3158
#
#
#
# Elastic Compliance Matrix: (Units=1/GPa)
#
#
# Indices 1 2 3 4 5 6 
#
# 1 0.019321 -0.001844 -0.010803 0.000000 0.000000 0.000000
# 2 -0.001844 0.019321 -0.010803 0.000000 0.000000 0.000000
# 3 -0.010803 -0.010803 0.024011 0.000000 0.000000 0.000000
# 4 0.000000 0.000000 0.000000 0.041239 0.000000 0.000000
# 5 0.000000 0.000000 0.000000 0.000000 0.041239 0.000000
# 6 0.000000 0.000000 0.000000 0.000000 0.000000 0.042889
#
#
# Mechanical properties :
#
#
# Convention : Reuss Voigt Hill
#
# Bulk Modulus (GPa) = 63.48312 64.86333 64.17322
# Shear Modulus (GPa) = 20.81862 21.90725 21.36294
#
# Velocity S-wave (km/s) = 3.36897 3.45593 3.41273
# Velocity P-wave (km/s) = 7.05289 7.16150 7.10740
#
# Compressibility (1/GPa) = 0.01575222
#
# Stress axis : x y z
#
# Youngs Moduli (GPa) = 51.75830 51.75830 41.64772
#
# Poissons Ratio (x) = 0.09545 0.44992
# Poissons Ratio (y) = 0.09545 0.44992
# Poissons Ratio (z) = 0.55914 0.55914
#
# Static dielectric constant tensor:
#      x y z
#    x 3.529180 0.000000 0.000000 
#    y 0.000000 3.529180 0.000000 
#    z 0.000000 0.000000 3.104560 
# 
# 
# High freq. dielectric constant tensor:
#      x y z
#    x 1.713450 0.000000 0.000000 
#    y 0.000000 1.713450 0.000000 
#    z 0.000000 0.000000 1.696050 
# 
# From -- ./inp_files/8844.got.cif
#   From: 2010.03.12/outbox.cif.g09.slc.cpg/sg136_5_cif.got.tgz:8844.got - 2010.04.06 18:39:43.
