data_PCOD8318273
_publ_section_title
;
Structure prediction by ZEFSAII (Michael W. Deem and Ramdas Pophale) SiO2 
 PCOD8318273
Probable space group: P 42/M N M
;
_chemical_formula_sum "Si O2"
_cell_formula_units_Z 72
_cell_length_a 25.023707
_cell_length_b 25.023707
_cell_length_c 7.718238
_cell_angle_alpha 90.000000
_cell_angle_beta 90.000000
_cell_angle_gamma 90.000000
_cell_volume 4833.051901
_symmetry_space_group_name_H-M "P 42/M N M"
_symmetry_group_IT_number 136
_symmetry_cell_setting 'tetragonal'
loop_
_space_group_symop_operation_xyz
x,y,z
1/2-y,1/2+x,1/2+z
-x,-y,z
1/2+y,1/2-x,1/2+z
1/2+x,1/2-y,1/2-z
1/2-x,1/2+y,1/2-z
y,x,-z
-y,-x,-z
-x,-y,-z
1/2+y,1/2-x,1/2-z
x,y,-z
1/2-y,1/2+x,1/2-z
1/2-x,1/2+y,1/2+z
1/2+x,1/2-y,1/2+z
-y,-x,z
y,x,z
loop_
_atom_site_type_symbol
_atom_site_label
_atom_site_fract_x
_atom_site_fract_y
_atom_site_fract_z
Si Si1 0.169310 0.079212 0.500000
Si Si2 0.343575 0.495985 0.302876
Si Si3 0.334728 0.755268 0.000000
Si Si4 0.044585 0.955416 0.302668
Si Si5 0.700636 0.615741 0.295959
Si Si6 0.805668 0.283794 0.308912
O O1 0.120092 0.120092 0.500000
O O2 0.226494 0.108217 0.500000
O O3 0.166474 0.044670 0.326121
O O4 0.330338 0.514010 0.500000
O O5 0.404613 0.477486 0.298516
O O6 0.306691 0.446099 0.244321
O O7 0.329914 0.793057 0.169385
O O8 0.289012 0.710989 0.000000
O O9 0.059648 0.940353 0.500000
O O10 0.000000 0.000000 0.299908
O O11 0.703415 0.622806 0.500000
O O12 0.650492 0.650492 0.223518
O O13 0.756786 0.636267 0.217501
O O14 0.802538 0.309655 0.500000
O O15 0.763020 0.236980 0.284213
#
# Coordination Sequence:
#
# PCOD8318273 Si02
#       6
#     8  16   8   8  16  16
#     4  11  24  37  48  61  88 130 171 200 227 267
#     4  11  22  34  47  66  88 121 160 203 243 276
#     4   9  18  34  47  62  87 114 149 194 227 271
#     4  11  21  33  47  60  83 119 166 209 245 274
#     4   9  16  28  45  67  93 112 138 188 247 287
#     4   9  16  26  46  70  86 106 135 181 239 287
#
# _framework density 14.897418999999999
#
# number of rings (size 3 to 8) (size 9 to 14) (size 15 to 20)
#    0.000    2.111    3.333    1.000    1.556    3.111 
#    0.000    2.222    0.000    0.000    0.000    0.000 
#    0.000    0.000    0.000    0.000    0.000    3.333 
#
# Total GULP energy -892632.266131 kJ/mol
# GULP energy per Si atom -12397.670363 kJ/mol
# Density = 1.486351 g / cm^3
# Si number density = 14.897419 Si / 1000 Ang^3
#
#
#
# Elastic Constant Matrix: (Units=GPa)
#
#
# Indices 1 2 3 4 5 6 
#
# 1 53.2601 57.5837 46.8954 0.0000 0.0000 0.0000
# 2 57.5837 53.2605 46.8946 0.0000 0.0000 0.0000
# 3 46.8954 46.8946 101.4639 0.0000 0.0000 0.0000
# 4 0.0000 0.0000 0.0000 13.5274 0.0000 0.0000
# 5 0.0000 0.0000 0.0000 0.0000 13.5282 0.0000
# 6 0.0000 0.0000 0.0000 0.0000 0.0000 28.0410
#
#
#
# Elastic Compliance Matrix: (Units=1/GPa)
#
#
# Indices 1 2 3 4 5 6 
#
# 1 -0.108242 0.123056 -0.006846 0.000000 0.000000 0.000000
# 2 0.123056 -0.108238 -0.006849 0.000000 0.000000 0.000000
# 3 -0.006846 -0.006849 0.016185 0.000000 0.000000 0.000000
# 4 0.000000 0.000000 0.000000 0.073924 0.000000 0.000000
# 5 0.000000 0.000000 0.000000 0.000000 0.073920 0.000000
# 6 0.000000 0.000000 0.000000 0.000000 0.000000 0.035662
#
#
# Mechanical properties :
#
#
# Convention : Reuss Voigt Hill
#
# Bulk Modulus (GPa) = 54.26964 56.74799 55.50882
# Shear Modulus (GPa) = -21.79901 14.79335 -3.50283
#
# Velocity S-wave (km/s) = -3.82943 3.15463 -1.53506
# Velocity P-wave (km/s) = 4.11768 7.17246 5.84805
#
# Compressibility (1/GPa) = 0.01842651
#
# Stress axis : x y z
#
# Youngs Moduli (GPa) = -9.23853 -9.23888 61.78396
#
# Poissons Ratio (x) = 1.13690 0.42296
# Poissons Ratio (y) = 1.13686 0.42319
# Poissons Ratio (z) = -0.06324 -0.06328
#
# Static dielectric constant tensor:
#      x y z
#    x 2.716250 0.000000 0.000000 
#    y 0.000000 2.716260 0.000000 
#    z 0.000000 0.000000 3.067140 
# 
# 
# High freq. dielectric constant tensor:
#      x y z
#    x 1.533220 0.000000 0.000000 
#    y 0.000000 1.533220 0.000000 
#    z 0.000000 0.000000 1.590390 
# 
# From -- ./inp_files/1791.got.cif
#   From: 2010.03.12/outbox.cif.g09.slc.cpg/sg136_1_cif.got.tgz:1791.got - 2010.04.06 18:39:43.
