data_PCOD8318252
_publ_section_title
;
Structure prediction by ZEFSAII (Michael W. Deem and Ramdas Pophale) SiO2 
 PCOD8318252
Probable space group: P 42/M N M
;
_chemical_formula_sum "Si O2"
_cell_formula_units_Z 52
_cell_length_a 11.792305
_cell_length_b 11.792305
_cell_length_c 18.950149
_cell_angle_alpha 90.000000
_cell_angle_beta 90.000000
_cell_angle_gamma 90.000000
_cell_volume 2635.178484
_symmetry_space_group_name_H-M "P 42/M N M"
_symmetry_group_IT_number 136
_symmetry_cell_setting 'tetragonal'
loop_
_space_group_symop_operation_xyz
x,y,z
1/2-y,1/2+x,1/2+z
-x,-y,z
1/2+y,1/2-x,1/2+z
1/2+x,1/2-y,1/2-z
1/2-x,1/2+y,1/2-z
y,x,-z
-y,-x,-z
-x,-y,-z
1/2+y,1/2-x,1/2-z
x,y,-z
1/2-y,1/2+x,1/2-z
1/2-x,1/2+y,1/2+z
1/2+x,1/2-y,1/2+z
-y,-x,z
y,x,z
loop_
_atom_site_type_symbol
_atom_site_label
_atom_site_fract_x
_atom_site_fract_y
_atom_site_fract_z
Si Si1 0.245972 0.064145 0.722276
Si Si2 0.628698 0.039950 0.851405
Si Si3 0.964629 0.632320 0.000000
Si Si4 0.198428 0.801573 0.500000
Si Si5 0.404650 0.404650 0.139448
O O1 0.140387 0.140387 0.743095
O O2 0.328145 0.132903 0.669310
O O3 0.305930 0.035417 0.795107
O O4 0.201917 0.951891 0.683152
O O5 0.500000 0.000000 0.849974
O O6 0.684306 0.020434 0.928794
O O7 0.000000 0.500000 0.000000
O O8 0.831661 0.665622 0.000000
O O9 0.140697 0.859304 0.566321
O O10 0.500000 0.500000 0.125604
#
# Coordination Sequence:
#
# PCOD8318252 Si02
#       5
#    16  16   8   4   8
#     4  11  23  37  65  89 121 165 204 259 310 369
#     4  11  21  39  58  87 122 154 209 257 300 372
#     4  10  24  37  56  91 121 158 211 257 307 384
#     4  12  23  36  72  84 127 168 192 270 332 359
#     4  10  23  40  56  95 124 155 207 254 315 376
#
# _framework density 19.733008000000002
#
# number of rings (size 3 to 8) (size 9 to 14) (size 15 to 20)
#    0.000    1.231    3.077    3.923    4.308    0.000 
#    0.000    2.308    0.000    0.000    0.000    4.308 
#    0.000    0.000    0.000    0.000    0.000    0.000 
#
# Total GULP energy -644672.235206 kJ/mol
# GULP energy per Si atom -12397.542985 kJ/mol
# Density = 1.968809 g / cm^3
# Si number density = 19.733008 Si / 1000 Ang^3
#
#
#
# Elastic Constant Matrix: (Units=GPa)
#
#
# Indices 1 2 3 4 5 6 
#
# 1 87.7794 22.0213 61.2063 0.0000 0.0000 0.0000
# 2 22.0213 87.7788 61.2064 0.0000 0.0000 0.0000
# 3 61.2063 61.2064 215.7798 0.0000 0.0000 0.0000
# 4 0.0000 0.0000 0.0000 -3.0444 0.0000 0.0000
# 5 0.0000 0.0000 0.0000 0.0000 -3.0442 0.0000
# 6 0.0000 0.0000 0.0000 0.0000 0.0000 32.5500
#
#
#
# Elastic Compliance Matrix: (Units=1/GPa)
#
#
# Indices 1 2 3 4 5 6 
#
# 1 0.014263 -0.000944 -0.003778 0.000000 0.000000 0.000000
# 2 -0.000944 0.014263 -0.003778 0.000000 0.000000 0.000000
# 3 -0.003778 -0.003778 0.006778 0.000000 0.000000 0.000000
# 4 0.000000 0.000000 0.000000 -0.328477 0.000000 0.000000
# 5 0.000000 0.000000 0.000000 0.000000 -0.328493 0.000000
# 6 0.000000 0.000000 0.000000 0.000000 0.000000 0.030722
#
#
# Mechanical properties :
#
#
# Convention : Reuss Voigt Hill
#
# Bulk Modulus (GPa) = 54.63201 75.57845 65.10523
# Shear Modulus (GPa) = -8.80527 21.75255 6.47364
#
# Velocity S-wave (km/s) = -2.11468 3.32376 1.81321
# Velocity P-wave (km/s) = 4.66725 7.28790 6.11950
#
# Compressibility (1/GPa) = 0.01830429
#
# Stress axis : x y z
#
# Youngs Moduli (GPa) = 70.10977 70.10908 147.54300
#
# Poissons Ratio (x) = 0.06618 0.55743
# Poissons Ratio (y) = 0.06618 0.55744
# Poissons Ratio (z) = 0.26488 0.26488
#
# Static dielectric constant tensor:
#      x y z
#    x 3.787120 0.000000 0.000000 
#    y 0.000000 3.787130 0.000000 
#    z 0.000000 0.000000 4.316620 
# 
# 
# High freq. dielectric constant tensor:
#      x y z
#    x 1.762700 0.000000 0.000000 
#    y 0.000000 1.762700 0.000000 
#    z 0.000000 0.000000 1.787170 
# 
# From -- ./inp_files/6969.got.cif
#   From: 2010.03.12/outbox.cif.g09.slc.cpg/sg136_4_cif.got.tgz:6969.got - 2010.04.06 18:39:43.
