data_PCOD8318898
_publ_section_title
;
Structure prediction by ZEFSAII (Michael W. Deem and Ramdas Pophale) SiO2 
 PCOD8318898
Probable space group: P 42/N C M
;
_chemical_formula_sum "Si O2"
_cell_formula_units_Z 128
_cell_length_a 17.455580
_cell_length_b 17.455580
_cell_length_c 24.070731
_cell_angle_alpha 90.000000
_cell_angle_beta 90.000000
_cell_angle_gamma 90.000000
_cell_volume 7334.286098
_symmetry_space_group_name_H-M "P 42/N C M"
_symmetry_group_IT_number 138
_space_group.IT_coordinate_system_code '2'
_symmetry_cell_setting 'tetragonal'
loop_
_space_group_symop_operation_xyz
x,y,z
1/2-y,x,1/2+z
1/2-x,1/2-y,z
y,1/2-x,1/2+z
1/2+x,-y,1/2-z
-x,1/2+y,1/2-z
1/2+y,1/2+x,-z
-y,-x,-z
-x,-y,-z
1/2+y,-x,1/2-z
1/2+x,1/2+y,-z
-y,1/2+x,1/2-z
1/2-x,y,1/2+z
x,1/2-y,1/2+z
1/2-y,1/2-x,z
y,x,z
loop_
_atom_site_type_symbol
_atom_site_label
_atom_site_fract_x
_atom_site_fract_y
_atom_site_fract_z
Si Si1 0.958861 0.836168 0.837165
Si Si2 0.052691 0.566476 0.728073
Si Si3 0.930994 0.200814 0.940873
Si Si4 0.166043 0.677220 0.777288
Si Si5 0.331364 0.046348 0.349203
Si Si6 0.250087 0.124301 0.253073
Si Si7 0.313099 0.689983 0.595199
Si Si8 0.073611 0.695022 0.432906
O O1 0.889735 0.889735 0.857506
O O2 0.926110 0.764248 0.802099
O O3 0.014423 0.880703 0.795979
O O4 0.001512 0.809032 0.892309
O O5 0.090135 0.625408 0.771621
O O6 0.987198 0.512803 0.756878
O O7 0.015487 0.612866 0.678026
O O8 0.891037 0.284558 0.935700
O O9 0.872061 0.135033 0.919428
O O10 0.007868 0.203069 0.904257
O O11 0.955684 0.186261 0.004177
O O12 0.146719 0.765581 0.762541
O O13 0.195152 0.671672 0.839527
O O14 0.378187 0.121814 0.367302
O O15 0.264186 0.069601 0.306196
O O16 0.325500 0.174501 0.241247
O O17 0.176541 0.176541 0.266735
O O18 0.250000 0.750000 0.575623
O O19 0.280455 0.608010 0.576282
#
# Coordination Sequence:
#
# PCOD8318898 Si02
#       8
#    16  16  16  16  16  16  16  16
#     4  10  20  34  53  76 104 133 165 208 256 311
#     4  10  21  33  46  72 109 136 158 202 259 311
#     4  10  20  33  50  71 101 139 175 211 250 296
#     4  11  20  29  49  76 100 132 171 211 256 305
#     4  10  20  34  53  76 104 133 165 208 256 311
#     4   9  20  38  58  78 101 134 172 212 259 306
#     4  10  19  32  46  71  99 136 177 210 247 292
#     4  10  20  33  50  71 101 139 175 211 250 296
#
# _framework density 17.452276999999999
#
# number of rings (size 3 to 8) (size 9 to 14) (size 15 to 20)
#    0.000    2.000    2.500    1.875    5.250    2.000 
#    0.000    1.250    0.000    0.750    0.000    3.500 
#    0.000    3.000    0.000    0.000    0.000    0.000 
#
# Total GULP energy -1586918.599190 kJ/mol
# GULP energy per Si atom -12397.801556 kJ/mol
# Density = 1.741256 g / cm^3
# Si number density = 17.452277 Si / 1000 Ang^3
#
#
#
# Elastic Constant Matrix: (Units=GPa)
#
#
# Indices 1 2 3 4 5 6 
#
# 1 76.0474 42.2297 43.5834 0.0000 0.0000 0.0000
# 2 42.2297 76.0474 43.5834 0.0000 0.0000 0.0000
# 3 43.5834 43.5834 95.6654 0.0000 0.0000 0.0000
# 4 0.0000 0.0000 0.0000 15.5880 0.0000 0.0000
# 5 0.0000 0.0000 0.0000 0.0000 15.5880 0.0000
# 6 0.0000 0.0000 0.0000 0.0000 0.0000 25.8589
#
#
#
# Elastic Compliance Matrix: (Units=1/GPa)
#
#
# Indices 1 2 3 4 5 6 
#
# 1 0.021149 -0.008421 -0.005799 0.000000 0.000000 0.000000
# 2 -0.008421 0.021149 -0.005799 0.000000 0.000000 0.000000
# 3 -0.005799 -0.005799 0.015737 0.000000 0.000000 0.000000
# 4 0.000000 0.000000 0.000000 0.064152 0.000000 0.000000
# 5 0.000000 0.000000 0.000000 0.000000 0.064152 0.000000
# 6 0.000000 0.000000 0.000000 0.000000 0.000000 0.038671
#
#
# Mechanical properties :
#
#
# Convention : Reuss Voigt Hill
#
# Bulk Modulus (GPa) = 55.56119 56.28369 55.92244
# Shear Modulus (GPa) = 18.44700 19.29791 18.87245
#
# Velocity S-wave (km/s) = 3.25468 3.32889 3.29199
# Velocity P-wave (km/s) = 6.78447 6.86261 6.82365
#
# Compressibility (1/GPa) = 0.01799817
#
# Stress axis : x y z
#
# Youngs Moduli (GPa) = 47.28298 47.28298 63.54576
#
# Poissons Ratio (x) = 0.39817 0.36849
# Poissons Ratio (y) = 0.39817 0.36849
# Poissons Ratio (z) = 0.27418 0.27418
#
# Static dielectric constant tensor:
#      x y z
#    x 3.295240 0.000000 0.000000 
#    y 0.000000 3.295240 0.000000 
#    z 0.000000 0.000000 3.052130 
# 
# 
# High freq. dielectric constant tensor:
#      x y z
#    x 1.663250 0.000000 0.000000 
#    y 0.000000 1.663250 0.000000 
#    z 0.000000 0.000000 1.658300 
# 
# From -- ./inp_files/7206.got.cif
#   From: 2010.03.12/outbox.cif.g09.slc.cpg/sg138_4_cif.got.tgz:7206.got - 2010.04.08 09:41:05.
