data_PCOD8318887
_publ_section_title
;
Structure prediction by ZEFSAII (Michael W. Deem and Ramdas Pophale) SiO2 
 PCOD8318887
Probable space group: P 42/N C M
;
_chemical_formula_sum "Si O2"
_cell_formula_units_Z 96
_cell_length_a 16.832955
_cell_length_b 16.832955
_cell_length_c 17.733000
_cell_angle_alpha 90.000000
_cell_angle_beta 90.000000
_cell_angle_gamma 90.000000
_cell_volume 5024.616717
_symmetry_space_group_name_H-M "P 42/N C M"
_symmetry_group_IT_number 138
_space_group.IT_coordinate_system_code '2'
_symmetry_cell_setting 'tetragonal'
loop_
_space_group_symop_operation_xyz
x,y,z
1/2-y,x,1/2+z
1/2-x,1/2-y,z
y,1/2-x,1/2+z
1/2+x,-y,1/2-z
-x,1/2+y,1/2-z
1/2+y,1/2+x,-z
-y,-x,-z
-x,-y,-z
1/2+y,-x,1/2-z
1/2+x,1/2+y,-z
-y,1/2+x,1/2-z
1/2-x,y,1/2+z
x,1/2-y,1/2+z
1/2-y,1/2-x,z
y,x,z
loop_
_atom_site_type_symbol
_atom_site_label
_atom_site_fract_x
_atom_site_fract_y
_atom_site_fract_z
Si Si1 0.347989 0.022513 0.532990
Si Si2 0.747261 0.620976 0.700504
Si Si3 0.970996 0.204851 0.877455
Si Si4 0.046941 0.580462 0.319952
Si Si5 0.635047 0.207447 0.771320
Si Si6 0.255448 0.378158 0.632471
O O1 0.408151 0.091850 0.504245
O O2 0.268219 0.058509 0.569715
O O3 0.318868 0.966412 0.465149
O O4 0.391416 0.969381 0.594928
O O5 0.815450 0.684551 0.684058
O O6 0.661484 0.661484 0.692634
O O7 0.749764 0.552852 0.637892
O O8 0.758506 0.583162 0.784137
O O9 0.972457 0.125994 0.825332
O O10 0.896192 0.260247 0.852555
O O11 0.063674 0.655910 0.265958
O O12 0.972692 0.527309 0.289485
O O13 0.655667 0.284485 0.718508
O O14 0.190255 0.309746 0.637527
O O15 0.340493 0.340493 0.610336
#
# Coordination Sequence:
#
# PCOD8318887 Si02
#       6
#    16  16  16  16  16  16
#     4  10  19  30  46  72 104 132 161 203 253 299
#     4   9  17  29  46  71 103 136 171 211 253 299
#     4  11  20  31  50  76 102 130 169 212 251 290
#     4  10  20  35  55  76 100 132 167 204 250 301
#     4   9  20  38  56  74  99 132 170 210 248 291
#     4   8  15  28  44  63  93 134 170 198 241 302
#
# _framework density 19.105934999999999
#
# number of rings (size 3 to 8) (size 9 to 14) (size 15 to 20)
#    0.000    2.500    0.000    4.000    0.000    4.000 
#    0.000    2.500    0.000    4.000    0.000    0.000 
#    0.000   12.000    0.000    0.000    0.000    0.000 
#
# Total GULP energy -1189786.490131 kJ/mol
# GULP energy per Si atom -12393.609272 kJ/mol
# Density = 1.906245 g / cm^3
# Si number density = 19.105935 Si / 1000 Ang^3
#
#
#
# Elastic Constant Matrix: (Units=GPa)
#
#
# Indices 1 2 3 4 5 6 
#
# 1 77.4435 44.5186 25.8178 0.0000 0.0000 0.0000
# 2 44.5186 77.4435 25.8178 0.0000 0.0000 0.0000
# 3 25.8178 25.8178 53.2808 0.0000 0.0000 0.0000
# 4 0.0000 0.0000 0.0000 24.9527 0.0000 0.0000
# 5 0.0000 0.0000 0.0000 0.0000 24.9527 0.0000
# 6 0.0000 0.0000 0.0000 0.0000 0.0000 31.3533
#
#
#
# Elastic Compliance Matrix: (Units=1/GPa)
#
#
# Indices 1 2 3 4 5 6 
#
# 1 0.020344 -0.010028 -0.004998 0.000000 0.000000 0.000000
# 2 -0.010028 0.020344 -0.004998 0.000000 0.000000 0.000000
# 3 -0.004998 -0.004998 0.023613 0.000000 0.000000 0.000000
# 4 0.000000 0.000000 0.000000 0.040076 0.000000 0.000000
# 5 0.000000 0.000000 0.000000 0.000000 0.040076 0.000000
# 6 0.000000 0.000000 0.000000 0.000000 0.000000 0.031895
#
#
# Mechanical properties :
#
#
# Convention : Reuss Voigt Hill
#
# Bulk Modulus (GPa) = 41.23766 44.49734 42.86750
# Shear Modulus (GPa) = 22.27368 23.71934 22.99651
#
# Velocity S-wave (km/s) = 3.41808 3.52726 3.47310
# Velocity P-wave (km/s) = 6.09986 6.31895 6.21037
#
# Compressibility (1/GPa) = 0.02424968
#
# Stress axis : x y z
#
# Youngs Moduli (GPa) = 49.15496 49.15496 42.35025
#
# Poissons Ratio (x) = 0.49294 0.21169
# Poissons Ratio (y) = 0.49294 0.21169
# Poissons Ratio (z) = 0.24570 0.24570
#
# Static dielectric constant tensor:
#      x y z
#    x 3.642490 0.000000 0.000000 
#    y 0.000000 3.642490 0.000000 
#    z 0.000000 0.000000 3.237400 
# 
# 
# High freq. dielectric constant tensor:
#      x y z
#    x 1.737090 0.000000 0.000000 
#    y 0.000000 1.737090 0.000000 
#    z 0.000000 0.000000 1.710900 
# 
# From -- ./inp_files/5196.got.cif
#   From: 2010.03.12/outbox.cif.g09.slc.cpg/sg138_3_cif.got.tgz:5196.got - 2010.04.08 09:41:05.
