data_PCOD8318187
_publ_section_title
;
Structure prediction by ZEFSAII (Michael W. Deem and Ramdas Pophale) SiO2 
 PCOD8318187
Probable space group: P 42/M N M
;
_chemical_formula_sum "Si O2"
_cell_formula_units_Z 96
_cell_length_a 22.786633
_cell_length_b 22.786633
_cell_length_c 8.880669
_cell_angle_alpha 90.000000
_cell_angle_beta 90.000000
_cell_angle_gamma 90.000000
_cell_volume 4611.115479
_symmetry_space_group_name_H-M "P 42/M N M"
_symmetry_group_IT_number 136
_symmetry_cell_setting 'tetragonal'
loop_
_space_group_symop_operation_xyz
x,y,z
1/2-y,1/2+x,1/2+z
-x,-y,z
1/2+y,1/2-x,1/2+z
1/2+x,1/2-y,1/2-z
1/2-x,1/2+y,1/2-z
y,x,-z
-y,-x,-z
-x,-y,-z
1/2+y,1/2-x,1/2-z
x,y,-z
1/2-y,1/2+x,1/2-z
1/2-x,1/2+y,1/2+z
1/2+x,1/2-y,1/2+z
-y,-x,z
y,x,z
loop_
_atom_site_type_symbol
_atom_site_label
_atom_site_fract_x
_atom_site_fract_y
_atom_site_fract_z
Si Si1 0.973505 0.880878 0.323067
Si Si2 0.393580 0.704427 0.665947
Si Si3 0.831117 0.078434 0.826116
Si Si4 0.919293 0.301007 0.176696
Si Si5 0.310865 0.783512 0.174158
Si Si6 0.414759 0.973924 0.681203
O O1 0.975574 0.884568 0.500000
O O2 0.936916 0.936916 0.259448
O O3 0.944087 0.819849 0.273063
O O4 0.038732 0.879266 0.258653
O O5 0.419695 0.716997 0.500000
O O6 0.341213 0.658788 0.657323
O O7 0.368456 0.764067 0.734789
O O8 0.854036 0.145964 0.803293
O O9 0.765105 0.066077 0.767548
O O10 0.833000 0.061753 0.000000
O O11 0.850987 0.304897 0.212474
O O12 0.955682 0.348821 0.271531
O O13 0.932408 0.310175 0.000000
O O14 0.252377 0.747624 0.223428
O O15 0.323360 0.771997 0.000000
O O16 0.420375 0.974652 0.500000
O O17 0.461201 0.928157 0.753266
#
# Coordination Sequence:
#
# PCOD8318187 Si02
#       6
#    16  16  16  16  16  16
#     4  10  21  37  57  81 111 149 193 241 293 346
#     4   9  17  30  50  77 108 141 181 232 285 336
#     4  10  22  40  61  85 115 152 194 241 290 340
#     4  10  21  38  60  87 118 153 194 237 284 342
#     4   9  17  31  53  80 113 154 196 239 290 347
#     4  11  23  42  67  93 122 155 192 235 286 342
#
# _framework density 20.819257
#
# number of rings (size 3 to 8) (size 9 to 14) (size 15 to 20)
#    0.000    2.167    0.000    3.500    0.000    8.333 
#    0.000    1.667    0.000    3.000    0.000    0.000 
#    0.000    0.000    0.000    0.000    0.000    0.000 
#
# Total GULP energy -1189880.831557 kJ/mol
# GULP energy per Si atom -12394.591995 kJ/mol
# Density = 2.077187 g / cm^3
# Si number density = 20.819257 Si / 1000 Ang^3
#
#
#
# Elastic Constant Matrix: (Units=GPa)
#
#
# Indices 1 2 3 4 5 6 
#
# 1 104.1916 57.2799 42.7069 0.0000 0.0000 0.0000
# 2 57.2799 104.1916 42.7069 0.0000 0.0000 0.0000
# 3 42.7069 42.7069 82.9809 0.0000 0.0000 0.0000
# 4 0.0000 0.0000 0.0000 28.7203 0.0000 0.0000
# 5 0.0000 0.0000 0.0000 0.0000 28.7203 0.0000
# 6 0.0000 0.0000 0.0000 0.0000 0.0000 31.8036
#
#
#
# Elastic Compliance Matrix: (Units=1/GPa)
#
#
# Indices 1 2 3 4 5 6 
#
# 1 0.014913 -0.006403 -0.004380 0.000000 0.000000 0.000000
# 2 -0.006403 0.014913 -0.004380 0.000000 0.000000 0.000000
# 3 -0.004380 -0.004380 0.016559 0.000000 0.000000 0.000000
# 4 0.000000 0.000000 0.000000 0.034819 0.000000 0.000000
# 5 0.000000 0.000000 0.000000 0.000000 0.034819 0.000000
# 6 0.000000 0.000000 0.000000 0.000000 0.000000 0.031443
#
#
# Mechanical properties :
#
#
# Convention : Reuss Voigt Hill
#
# Bulk Modulus (GPa) = 62.26653 64.08352 63.17503
# Shear Modulus (GPa) = 27.30090 27.76021 27.53056
#
# Velocity S-wave (km/s) = 3.62516 3.65552 3.64037
# Velocity P-wave (km/s) = 6.89169 6.97602 6.93398
#
# Compressibility (1/GPa) = 0.01605999
#
# Stress axis : x y z
#
# Youngs Moduli (GPa) = 67.05472 67.05472 60.39017
#
# Poissons Ratio (x) = 0.42938 0.26449
# Poissons Ratio (y) = 0.42938 0.26449
# Poissons Ratio (z) = 0.29367 0.29367
#
# Static dielectric constant tensor:
#      x y z
#    x 3.855940 0.000000 0.000000 
#    y 0.000000 3.855940 0.000000 
#    z 0.000000 0.000000 3.737710 
# 
# 
# High freq. dielectric constant tensor:
#      x y z
#    x 1.813980 0.000000 0.000000 
#    y 0.000000 1.813980 0.000000 
#    z 0.000000 0.000000 1.805520 
# 
# From -- ./inp_files/2014.got.cif
#   From: 2010.03.12/outbox.cif.g09.slc.cpg/sg136_2_cif.got.tgz:2014.got - 2010.04.06 18:39:43.
