data_PCOD8318149
_publ_section_title
;
Structure prediction by ZEFSAII (Michael W. Deem and Ramdas Pophale) SiO2 
 PCOD8318149
Probable space group: P 42/M N M
;
_chemical_formula_sum "Si O2"
_cell_formula_units_Z 80
_cell_length_a 19.285316
_cell_length_b 19.285316
_cell_length_c 12.784331
_cell_angle_alpha 90.000000
_cell_angle_beta 90.000000
_cell_angle_gamma 90.000000
_cell_volume 4754.792021
_symmetry_space_group_name_H-M "P 42/M N M"
_symmetry_group_IT_number 136
_symmetry_cell_setting 'tetragonal'
loop_
_space_group_symop_operation_xyz
x,y,z
1/2-y,1/2+x,1/2+z
-x,-y,z
1/2+y,1/2-x,1/2+z
1/2+x,1/2-y,1/2-z
1/2-x,1/2+y,1/2-z
y,x,-z
-y,-x,-z
-x,-y,-z
1/2+y,1/2-x,1/2-z
x,y,-z
1/2-y,1/2+x,1/2-z
1/2-x,1/2+y,1/2+z
1/2+x,1/2-y,1/2+z
-y,-x,z
y,x,z
loop_
_atom_site_type_symbol
_atom_site_label
_atom_site_fract_x
_atom_site_fract_y
_atom_site_fract_z
Si Si1 0.150028 0.737280 0.620142
Si Si2 0.648107 0.542377 0.123572
Si Si3 0.101707 0.352564 0.741104
Si Si4 0.419746 0.986940 0.121253
Si Si5 0.401464 0.709498 0.122440
O O1 0.138992 0.714012 0.500000
O O2 0.223047 0.776954 0.632081
O O3 0.087583 0.785978 0.659146
O O4 0.148192 0.671491 0.693616
O O5 0.577298 0.577298 0.170103
O O6 0.657839 0.463198 0.159622
O O7 0.643090 0.546448 0.000000
O O8 0.038483 0.369326 0.817575
O O9 0.103227 0.409175 0.649100
O O10 0.091716 0.278486 0.688737
O O11 0.500000 0.000000 0.151826
O O12 0.407465 0.000067 0.000000
O O13 0.328771 0.671230 0.144775
O O14 0.409146 0.727586 0.000000
#
# Coordination Sequence:
#
# PCOD8318149 Si02
#       5
#    16  16  16  16  16
#     4   9  18  31  50  76 102 132 170 210 252 298
#     4   8  15  29  48  69  93 123 159 200 247 295
#     4  12  19  35  50  72  98 143 165 209 247 304
#     4  11  23  36  50  75 101 130 174 212 252 300
#     4  10  21  33  48  73 102 133 167 206 255 306
#
# _framework density 16.825130000000001
#
# number of rings (size 3 to 8) (size 9 to 14) (size 15 to 20)
#    0.000    2.000    2.000    4.200    0.000    0.400 
#    0.000    2.000    0.000    0.000    0.000    0.000 
#    0.000    2.400    0.000   16.200    0.000    1.200 
#
# Total GULP energy -991728.330802 kJ/mol
# GULP energy per Si atom -12396.604135 kJ/mol
# Density = 1.678684 g / cm^3
# Si number density = 16.825130 Si / 1000 Ang^3
#
#
#
# Elastic Constant Matrix: (Units=GPa)
#
#
# Indices 1 2 3 4 5 6 
#
# 1 110.8589 36.4117 43.7848 0.0000 0.0000 0.0000
# 2 36.4117 110.8589 43.7848 0.0000 0.0000 0.0000
# 3 43.7848 43.7848 72.6439 0.0000 0.0000 0.0000
# 4 0.0000 0.0000 0.0000 1437.8516 0.0000 0.0000
# 5 0.0000 0.0000 0.0000 0.0000 1437.8516 0.0000
# 6 0.0000 0.0000 0.0000 0.0000 0.0000 20.0576
#
#
#
# Elastic Compliance Matrix: (Units=1/GPa)
#
#
# Indices 1 2 3 4 5 6 
#
# 1 0.012008 -0.001425 -0.006379 0.000000 0.000000 0.000000
# 2 -0.001425 0.012008 -0.006379 0.000000 0.000000 0.000000
# 3 -0.006379 -0.006379 0.021455 0.000000 0.000000 0.000000
# 4 0.000000 0.000000 0.000000 0.000695 0.000000 0.000000
# 5 0.000000 0.000000 0.000000 0.000000 0.000695 0.000000
# 6 0.000000 0.000000 0.000000 0.000000 0.000000 0.049856
#
#
# Mechanical properties :
#
#
# Convention : Reuss Voigt Hill
#
# Bulk Modulus (GPa) = 58.45802 60.25827 59.35815
# Shear Modulus (GPa) = 38.23077 590.51086 314.37082
#
# Velocity S-wave (km/s) = 4.77198 18.75451 13.68399
# Velocity P-wave (km/s) = 8.07355 22.46926 16.88268
#
# Compressibility (1/GPa) = 0.01710629
#
# Stress axis : x y z
#
# Youngs Moduli (GPa) = 83.27953 83.27953 46.60872
#
# Poissons Ratio (x) = 0.11864 0.29731
# Poissons Ratio (y) = 0.11864 0.29731
# Poissons Ratio (z) = 0.53122 0.53122
#
# Static dielectric constant tensor:
#      x y z
#    x 3.417210 0.000000 0.000000 
#    y 0.000000 3.417210 0.000000 
#    z 0.000000 0.000000 2.939580 
# 
# 
# High freq. dielectric constant tensor:
#      x y z
#    x 1.654620 0.000000 0.000000 
#    y 0.000000 1.654620 0.000000 
#    z 0.000000 0.000000 1.621210 
# 
# From -- ./inp_files/4869.got.cif
#   From: 2010.03.12/outbox.cif.g09.slc.cpg/sg136_3_cif.got.tgz:4869.got - 2010.04.06 18:39:43.
