data_PCOD8318467
_publ_section_title
;
Structure prediction by ZEFSAII (Michael W. Deem and Ramdas Pophale) SiO2 
 PCOD8318467
Probable space group: P 42/N M C
;
_chemical_formula_sum "Si O2"
_cell_formula_units_Z 112
_cell_length_a 15.025065
_cell_length_b 15.025065
_cell_length_c 27.359309
_cell_angle_alpha 90.000000
_cell_angle_beta 90.000000
_cell_angle_gamma 90.000000
_cell_volume 6176.434546
_symmetry_space_group_name_H-M "P 42/N M C"
_symmetry_group_IT_number 137
_space_group.IT_coordinate_system_code '2'
_symmetry_cell_setting 'tetragonal'
loop_
_space_group_symop_operation_xyz
x,y,z
1/2-y,x,1/2+z
1/2-x,1/2-y,z
y,1/2-x,1/2+z
1/2+x,-y,-z
-x,1/2+y,-z
1/2+y,1/2+x,1/2-z
-y,-x,1/2-z
-x,-y,-z
1/2+y,-x,1/2-z
1/2+x,1/2+y,-z
-y,1/2+x,1/2-z
1/2-x,y,z
x,1/2-y,z
1/2-y,1/2-x,1/2+z
y,x,1/2+z
loop_
_atom_site_type_symbol
_atom_site_label
_atom_site_fract_x
_atom_site_fract_y
_atom_site_fract_z
Si Si1 0.997713 0.353210 0.824206
Si Si2 0.064191 0.348828 0.569317
Si Si3 0.512972 0.153058 0.465764
Si Si4 0.002287 0.853210 0.324206
Si Si5 0.487028 0.846942 0.965764
Si Si6 0.348828 0.064191 0.430683
Si Si7 0.145783 0.148930 0.250000
O O1 0.974483 0.250000 0.811658
O O2 0.009593 0.367304 0.881755
O O3 0.090032 0.381796 0.797425
O O4 0.916153 0.416153 0.806624
O O5 0.106713 0.250000 0.570257
O O6 0.143421 0.419124 0.562263
O O7 0.996765 0.359394 0.523977
O O8 0.009593 0.367304 0.618245
O O9 0.551340 0.250000 0.453720
O O10 0.581021 0.081021 0.444705
O O11 0.419124 0.143421 0.437737
O O12 0.025517 0.750000 0.311658
O O13 0.909968 0.881796 0.297425
O O14 0.448660 0.750000 0.953720
O O15 0.496765 0.859394 0.023977
O O16 0.250000 0.106713 0.429743
O O17 0.250000 0.163834 0.250000
O O18 0.102482 0.250000 0.250000
#
# Coordination Sequence:
#
# PCOD8318467 Si02
#       7
#    16  16  16  16  16  16  16
#     4  10  19  32  51  74 101 130 159 195 241 296
#     4   9  18  32  50  70  94 126 162 203 250 293
#     4  10  19  31  47  68  97 130 164 203 244 291
#     4  10  19  32  51  74 101 130 159 195 241 296
#     4  10  19  31  47  68  97 130 164 203 244 291
#     4   9  18  32  50  70  94 126 162 203 250 293
#     4   9  19  34  49  67  93 125 161 199 235 272
#
# _framework density 18.13344
#
# number of rings (size 3 to 8) (size 9 to 14) (size 15 to 20)
#    0.000    2.429    0.000    3.857    0.000    2.286 
#    0.000    5.714    0.000    7.714    0.000    0.000 
#    0.000    4.571    0.000    0.000    0.000    0.286 
#
# Total GULP energy -1387971.901220 kJ/mol
# GULP energy per Si atom -12392.606261 kJ/mol
# Density = 1.809217 g / cm^3
# Si number density = 18.133440 Si / 1000 Ang^3
#
#
#
# Elastic Constant Matrix: (Units=GPa)
#
#
# Indices 1 2 3 4 5 6 
#
# 1 114.3086 74.4999 34.4828 0.0000 0.0000 0.0000
# 2 74.4999 114.3086 34.4828 0.0000 0.0000 0.0000
# 3 34.4828 34.4828 60.7586 0.0000 0.0000 0.0000
# 4 0.0000 0.0000 0.0000 15.5811 0.0000 0.0000
# 5 0.0000 0.0000 0.0000 0.0000 15.5811 0.0000
# 6 0.0000 0.0000 0.0000 0.0000 0.0000 16.8254
#
#
#
# Elastic Compliance Matrix: (Units=1/GPa)
#
#
# Indices 1 2 3 4 5 6 
#
# 1 0.015901 -0.009219 -0.003792 0.000000 0.000000 0.000000
# 2 -0.009219 0.015901 -0.003792 0.000000 0.000000 0.000000
# 3 -0.003792 -0.003792 0.020763 0.000000 0.000000 0.000000
# 4 0.000000 0.000000 0.000000 0.064180 0.000000 0.000000
# 5 0.000000 0.000000 0.000000 0.000000 0.064180 0.000000
# 6 0.000000 0.000000 0.000000 0.000000 0.000000 0.059434
#
#
# Mechanical properties :
#
#
# Convention : Reuss Voigt Hill
#
# Bulk Modulus (GPa) = 52.74885 64.03408 58.39147
# Shear Modulus (GPa) = 17.83898 19.32485 18.58192
#
# Velocity S-wave (km/s) = 3.13990 3.26805 3.20462
# Velocity P-wave (km/s) = 6.50367 7.04483 6.77965
#
# Compressibility (1/GPa) = 0.01895776
#
# Stress axis : x y z
#
# Youngs Moduli (GPa) = 62.88994 62.88994 48.16311
#
# Poissons Ratio (x) = 0.57980 0.18263
# Poissons Ratio (y) = 0.57980 0.18263
# Poissons Ratio (z) = 0.23848 0.23848
#
# Static dielectric constant tensor:
#      x y z
#    x 3.280180 0.000000 0.000000 
#    y 0.000000 3.280180 0.000000 
#    z 0.000000 0.000000 3.328920 
# 
# 
# High freq. dielectric constant tensor:
#      x y z
#    x 1.686290 0.000000 0.000000 
#    y 0.000000 1.686290 0.000000 
#    z 0.000000 0.000000 1.696770 
# 
# From -- ./inp_files/9760.got.cif
#   From: 2010.03.12/outbox.cif.g09.slc.cpg/sg137_5_cif.got.tgz:9760.got - 2010.04.08 09:34:49.
