data_PCOD8318932
_publ_section_title
;
Structure prediction by ZEFSAII (Michael W. Deem and Ramdas Pophale) SiO2 
 PCOD8318932
Probable space group: P 42/N C M
;
_chemical_formula_sum "Si O2"
_cell_formula_units_Z 88
_cell_length_a 13.844558
_cell_length_b 13.844558
_cell_length_c 25.774067
_cell_angle_alpha 90.000000
_cell_angle_beta 90.000000
_cell_angle_gamma 90.000000
_cell_volume 4940.161460
_symmetry_space_group_name_H-M "P 42/N C M"
_symmetry_group_IT_number 138
_space_group.IT_coordinate_system_code '2'
_symmetry_cell_setting 'tetragonal'
loop_
_space_group_symop_operation_xyz
x,y,z
1/2-y,x,1/2+z
1/2-x,1/2-y,z
y,1/2-x,1/2+z
1/2+x,-y,1/2-z
-x,1/2+y,1/2-z
1/2+y,1/2+x,-z
-y,-x,-z
-x,-y,-z
1/2+y,-x,1/2-z
1/2+x,1/2+y,-z
-y,1/2+x,1/2-z
1/2-x,y,1/2+z
x,1/2-y,1/2+z
1/2-y,1/2-x,z
y,x,z
loop_
_atom_site_type_symbol
_atom_site_label
_atom_site_fract_x
_atom_site_fract_y
_atom_site_fract_z
Si Si1 0.645010 0.145010 0.000000
Si Si2 0.611226 0.322830 0.757447
Si Si3 0.362611 0.522933 0.867795
Si Si4 0.540273 0.390512 0.653714
Si Si5 0.483126 0.168727 0.915268
Si Si6 0.857731 0.230392 0.096317
O O1 0.547929 0.150502 0.966121
O O2 0.738897 0.146273 0.963569
O O3 0.714289 0.374907 0.763657
O O4 0.553244 0.325525 0.811052
O O5 0.548205 0.380116 0.715407
O O6 0.457081 0.457081 0.863852
O O7 0.280196 0.466718 0.900214
O O8 0.386638 0.618906 0.900541
O O9 0.433988 0.433988 0.640572
O O10 0.621503 0.464480 0.634100
O O11 0.557934 0.288520 0.625766
O O12 0.378968 0.121033 0.925459
O O13 0.750000 0.250000 0.121246
#
# Coordination Sequence:
#
# PCOD8318932 Si02
#       6
#     8  16  16  16  16  16
#     4  10  20  34  66  84 111 143 196 244 282 332
#     4  11  19  33  58  85 112 148 190 239 282 329
#     4  12  24  36  56  88 121 155 188 232 290 346
#     4  10  19  33  57  82 111 143 188 234 281 336
#     4  10  21  37  57  87 115 148 190 236 286 338
#     4  11  19  37  58  87 114 146 185 242 290 330
#
# _framework density 17.813182000000001
#
# number of rings (size 3 to 8) (size 9 to 14) (size 15 to 20)
#    0.000    1.273    7.273    1.091    0.000    1.091 
#    0.000    1.818    0.000    0.545    0.000    0.000 
#    0.000    0.000    0.000    0.000    0.000    0.000 
#
# Total GULP energy -1090945.266489 kJ/mol
# GULP energy per Si atom -12397.105301 kJ/mol
# Density = 1.777264 g / cm^3
# Si number density = 17.813182 Si / 1000 Ang^3
#
#
#
# Elastic Constant Matrix: (Units=GPa)
#
#
# Indices 1 2 3 4 5 6 
#
# 1 96.7290 68.0927 37.2646 0.0000 0.0000 0.0000
# 2 68.0927 96.7290 37.2646 0.0000 0.0000 0.0000
# 3 37.2646 37.2646 105.5194 0.0000 0.0000 0.0000
# 4 0.0000 0.0000 0.0000 17.4734 0.0000 0.0000
# 5 0.0000 0.0000 0.0000 0.0000 17.4734 0.0000
# 6 0.0000 0.0000 0.0000 0.0000 0.0000 35.5410
#
#
#
# Elastic Compliance Matrix: (Units=1/GPa)
#
#
# Indices 1 2 3 4 5 6 
#
# 1 0.021070 -0.013850 -0.002550 0.000000 0.000000 0.000000
# 2 -0.013850 0.021070 -0.002550 0.000000 0.000000 0.000000
# 3 -0.002550 -0.002550 0.011278 0.000000 0.000000 0.000000
# 4 0.000000 0.000000 0.000000 0.057230 0.000000 0.000000
# 5 0.000000 0.000000 0.000000 0.000000 0.057230 0.000000
# 6 0.000000 0.000000 0.000000 0.000000 0.000000 0.028137
#
#
# Mechanical properties :
#
#
# Convention : Reuss Voigt Hill
#
# Bulk Modulus (GPa) = 64.43761 64.91346 64.67553
# Shear Modulus (GPa) = 20.91283 24.52126 22.71705
#
# Velocity S-wave (km/s) = 3.43010 3.71425 3.57500
# Velocity P-wave (km/s) = 7.20695 7.41044 7.30940
#
# Compressibility (1/GPa) = 0.01551889
#
# Stress axis : x y z
#
# Youngs Moduli (GPa) = 47.45991 47.45991 88.66901
#
# Poissons Ratio (x) = 0.65733 0.22609
# Poissons Ratio (y) = 0.65733 0.22609
# Poissons Ratio (z) = 0.12101 0.12101
#
# Static dielectric constant tensor:
#      x y z
#    x 3.258430 0.000000 0.000000 
#    y 0.000000 3.258430 0.000000 
#    z 0.000000 0.000000 3.375110 
# 
# 
# High freq. dielectric constant tensor:
#      x y z
#    x 1.669620 0.000000 0.000000 
#    y 0.000000 1.669620 0.000000 
#    z 0.000000 0.000000 1.701010 
# 
# From -- ./inp_files/7493.got.cif
#   From: 2010.03.12/outbox.cif.g09.slc.cpg/sg138_4_cif.got.tgz:7493.got - 2010.04.08 09:41:05.
