data_PCOD8318622
_publ_section_title
;
Structure prediction by ZEFSAII (Michael W. Deem and Ramdas Pophale) SiO2 
 PCOD8318622
Probable space group: P 42/N M C
;
_chemical_formula_sum "Si O2"
_cell_formula_units_Z 112
_cell_length_a 14.960618
_cell_length_b 14.960618
_cell_length_c 24.449426
_cell_angle_alpha 90.000000
_cell_angle_beta 90.000000
_cell_angle_gamma 90.000000
_cell_volume 5472.272751
_symmetry_space_group_name_H-M "P 42/N M C"
_symmetry_group_IT_number 137
_space_group.IT_coordinate_system_code '2'
_symmetry_cell_setting 'tetragonal'
loop_
_space_group_symop_operation_xyz
x,y,z
1/2-y,x,1/2+z
1/2-x,1/2-y,z
y,1/2-x,1/2+z
1/2+x,-y,-z
-x,1/2+y,-z
1/2+y,1/2+x,1/2-z
-y,-x,1/2-z
-x,-y,-z
1/2+y,-x,1/2-z
1/2+x,1/2+y,-z
-y,1/2+x,1/2-z
1/2-x,y,z
x,1/2-y,z
1/2-y,1/2-x,1/2+z
y,x,1/2+z
loop_
_atom_site_type_symbol
_atom_site_label
_atom_site_fract_x
_atom_site_fract_y
_atom_site_fract_z
Si Si1 0.596862 0.648362 0.363908
Si Si2 0.347850 0.472376 0.935848
Si Si3 0.403824 0.152649 0.022877
Si Si4 0.355500 0.150164 0.253311
Si Si5 0.649357 0.392744 0.491147
Si Si6 0.540795 0.850605 0.143007
Si Si7 0.890458 0.347911 0.613029
O O1 0.631572 0.750000 0.368260
O O2 0.643359 0.591897 0.411709
O O3 0.623604 0.604080 0.305809
O O4 0.492301 0.642347 0.371270
O O5 0.250000 0.461612 0.908521
O O6 0.366392 0.577821 0.944286
O O7 0.423156 0.422739 0.900403
O O8 0.344919 0.424994 0.995482
O O9 0.364282 0.250000 0.007679
O O10 0.502370 0.144521 0.998262
O O11 0.250000 0.147307 0.247312
O O12 0.388100 0.250000 0.269858
O O13 0.384961 0.077392 0.298465
O O14 0.750000 0.364157 0.472728
O O15 0.624656 0.346678 0.548107
O O16 0.577767 0.750000 0.130676
O O17 0.432680 0.843163 0.141917
O O18 0.855367 0.250000 0.634289
#
# Coordination Sequence:
#
# PCOD8318622 Si02
#       7
#    16  16  16  16  16  16  16
#     4  10  20  35  57  86 118 154 200 250 299 355
#     4  12  23  36  57  87 121 156 196 248 304 364
#     4  11  21  34  56  86 120 155 193 244 303 361
#     4   9  19  37  59  83 117 159 197 237 294 366
#     4  11  23  40  58  80 117 163 206 247 301 371
#     4  11  23  39  59  87 122 162 204 248 304 370
#     4  11  22  38  59  83 116 158 205 254 302 354
#
# _framework density 20.466816999999999
#
# number of rings (size 3 to 8) (size 9 to 14) (size 15 to 20)
#    0.000    1.286    2.857    3.857    0.000    5.714 
#    0.000    0.000    0.000    0.857    0.000    8.000 
#    0.000    1.143    0.000    8.857    0.000    0.000 
#
# Total GULP energy -1388198.987788 kJ/mol
# GULP energy per Si atom -12394.633820 kJ/mol
# Density = 2.042023 g / cm^3
# Si number density = 20.466817 Si / 1000 Ang^3
#
#
#
# Elastic Constant Matrix: (Units=GPa)
#
#
# Indices 1 2 3 4 5 6 
#
# 1 114.6172 27.2576 38.3613 0.0000 0.0000 0.0000
# 2 27.2576 114.6172 38.3613 0.0000 0.0000 0.0000
# 3 38.3613 38.3613 102.4117 0.0000 0.0000 0.0000
# 4 0.0000 0.0000 0.0000 26.5620 0.0000 0.0000
# 5 0.0000 0.0000 0.0000 0.0000 26.5620 0.0000
# 6 0.0000 0.0000 0.0000 0.0000 0.0000 19.1557
#
#
#
# Elastic Compliance Matrix: (Units=1/GPa)
#
#
# Indices 1 2 3 4 5 6 
#
# 1 0.010143 -0.001304 -0.003311 0.000000 0.000000 0.000000
# 2 -0.001304 0.010143 -0.003311 0.000000 0.000000 0.000000
# 3 -0.003311 -0.003311 0.012245 0.000000 0.000000 0.000000
# 4 0.000000 0.000000 0.000000 0.037648 0.000000 0.000000
# 5 0.000000 0.000000 0.000000 0.000000 0.037648 0.000000
# 6 0.000000 0.000000 0.000000 0.000000 0.000000 0.052204
#
#
# Mechanical properties :
#
#
# Convention : Reuss Voigt Hill
#
# Bulk Modulus (GPa) = 59.95488 59.95628 59.95558
# Shear Modulus (GPa) = 27.55711 29.63366 28.59538
#
# Velocity S-wave (km/s) = 3.67335 3.80924 3.74191
# Velocity P-wave (km/s) = 6.88104 6.97890 6.93014
#
# Compressibility (1/GPa) = 0.01667921
#
# Stress axis : x y z
#
# Youngs Moduli (GPa) = 98.59087 98.59087 81.66676
#
# Poissons Ratio (x) = 0.12856 0.27039
# Poissons Ratio (y) = 0.12856 0.27039
# Poissons Ratio (z) = 0.32642 0.32642
#
# Static dielectric constant tensor:
#      x y z
#    x 3.769780 0.000000 0.000000 
#    y 0.000000 3.769780 0.000000 
#    z 0.000000 0.000000 3.683320 
# 
# 
# High freq. dielectric constant tensor:
#      x y z
#    x 1.795700 0.000000 0.000000 
#    y 0.000000 1.795700 0.000000 
#    z 0.000000 0.000000 1.777230 
# 
# From -- ./inp_files/8940.got.cif
#   From: 2010.03.12/outbox.cif.g09.slc.cpg/sg137_5_cif.got.tgz:8940.got - 2010.04.08 09:34:49.
