data_PCOD8318547
_publ_section_title
;
Structure prediction by ZEFSAII (Michael W. Deem and Ramdas Pophale) SiO2 
 PCOD8318547
Probable space group: P 42/N M C
;
_chemical_formula_sum "Si O2"
_cell_formula_units_Z 56
_cell_length_a 15.441626
_cell_length_b 15.441626
_cell_length_c 12.137582
_cell_angle_alpha 90.000000
_cell_angle_beta 90.000000
_cell_angle_gamma 90.000000
_cell_volume 2894.131339
_symmetry_space_group_name_H-M "P 42/N M C"
_symmetry_group_IT_number 137
_space_group.IT_coordinate_system_code '2'
_symmetry_cell_setting 'tetragonal'
loop_
_space_group_symop_operation_xyz
x,y,z
1/2-y,x,1/2+z
1/2-x,1/2-y,z
y,1/2-x,1/2+z
1/2+x,-y,-z
-x,1/2+y,-z
1/2+y,1/2+x,1/2-z
-y,-x,1/2-z
-x,-y,-z
1/2+y,-x,1/2-z
1/2+x,1/2+y,-z
-y,1/2+x,1/2-z
1/2-x,y,z
x,1/2-y,z
1/2-y,1/2-x,1/2+z
y,x,1/2+z
loop_
_atom_site_type_symbol
_atom_site_label
_atom_site_fract_x
_atom_site_fract_y
_atom_site_fract_z
Si Si1 0.482198 0.607019 0.417145
Si Si2 0.843007 0.343007 0.750000
Si Si3 0.348670 0.152236 0.201817
Si Si4 0.083922 0.003296 0.845666
O O1 0.418043 0.659943 0.340640
O O2 0.582576 0.630465 0.393290
O O3 0.463146 0.629639 0.545707
O O4 0.460992 0.507975 0.387744
O O5 0.850487 0.250000 0.811366
O O6 0.250000 0.140314 0.244000
O O7 0.361860 0.250000 0.155502
O O8 0.414793 0.138148 0.302853
O O9 0.069324 0.930677 0.750000
#
# Coordination Sequence:
#
# PCOD8318547 Si02
#       4
#    16   8  16  16
#     4  10  19  36  58  79 114 150 188 238 290 330
#     4  11  22  36  60  88 108 144 197 240 290 338
#     4  10  20  33  52  83 119 154 191 230 283 349
#     4   9  19  36  56  79 108 149 192 227 278 347
#
# _framework density 19.349501
#
# number of rings (size 3 to 8) (size 9 to 14) (size 15 to 20)
#    0.000    2.143    4.286    0.857    0.000    3.429 
#    0.000   14.286    0.000    0.000    0.000    2.000 
#    0.000    2.286    0.000    0.000    0.000    0.000 
#
# Total GULP energy -693832.624604 kJ/mol
# GULP energy per Si atom -12389.868296 kJ/mol
# Density = 1.930546 g / cm^3
# Si number density = 19.349501 Si / 1000 Ang^3
#
#
#
# Elastic Constant Matrix: (Units=GPa)
#
#
# Indices 1 2 3 4 5 6 
#
# 1 100.8285 45.3879 43.2833 0.0000 0.0000 0.0000
# 2 45.3879 100.8281 43.2833 0.0000 0.0000 0.0000
# 3 43.2833 43.2833 154.5956 0.0000 0.0000 0.0000
# 4 0.0000 0.0000 0.0000 8.1083 0.0000 0.0000
# 5 0.0000 0.0000 0.0000 0.0000 8.1082 0.0000
# 6 0.0000 0.0000 0.0000 0.0000 0.0000 26.7481
#
#
#
# Elastic Compliance Matrix: (Units=1/GPa)
#
#
# Indices 1 2 3 4 5 6 
#
# 1 0.013118 -0.004920 -0.002295 0.000000 0.000000 0.000000
# 2 -0.004920 0.013118 -0.002295 0.000000 0.000000 0.000000
# 3 -0.002295 -0.002295 0.007754 0.000000 0.000000 0.000000
# 4 0.000000 0.000000 0.000000 0.123331 0.000000 0.000000
# 5 0.000000 0.000000 0.000000 0.000000 0.123332 0.000000
# 6 0.000000 0.000000 0.000000 0.000000 0.000000 0.037386
#
#
# Mechanical properties :
#
#
# Convention : Reuss Voigt Hill
#
# Bulk Modulus (GPa) = 66.80559 68.90680 67.85620
# Shear Modulus (GPa) = 14.61786 23.54610 19.08198
#
# Velocity S-wave (km/s) = 2.75155 3.49217 3.14375
# Velocity P-wave (km/s) = 6.68546 7.20759 6.95143
#
# Compressibility (1/GPa) = 0.01496881
#
# Stress axis : x y z
#
# Youngs Moduli (GPa) = 76.23279 76.23239 128.96991
#
# Poissons Ratio (x) = 0.37504 0.29602
# Poissons Ratio (y) = 0.37504 0.29602
# Poissons Ratio (z) = 0.17497 0.17498
#
# Static dielectric constant tensor:
#      x y z
#    x 3.532330 0.000000 0.000000 
#    y 0.000000 3.532330 0.000000 
#    z 0.000000 0.000000 3.756430 
# 
# 
# High freq. dielectric constant tensor:
#      x y z
#    x 1.747070 0.000000 0.000000 
#    y 0.000000 1.747070 0.000000 
#    z 0.000000 0.000000 1.737430 
# 
# From -- ./inp_files/3116.got.cif
#   From: 2010.03.12/outbox.cif.g09.slc.cpg/sg137_2_cif.got.tgz:3116.got - 2010.04.08 09:34:49.
