data_PCOD8318406
_publ_section_title
;
Structure prediction by ZEFSAII (Michael W. Deem and Ramdas Pophale) SiO2 
 PCOD8318406
Probable space group: P 42/N M C
;
_chemical_formula_sum "Si O2"
_cell_formula_units_Z 128
_cell_length_a 17.967780
_cell_length_b 17.967780
_cell_length_c 25.175507
_cell_angle_alpha 90.000000
_cell_angle_beta 90.000000
_cell_angle_gamma 90.000000
_cell_volume 8127.688829
_symmetry_space_group_name_H-M "P 42/N M C"
_symmetry_group_IT_number 137
_space_group.IT_coordinate_system_code '2'
_symmetry_cell_setting 'tetragonal'
loop_
_space_group_symop_operation_xyz
x,y,z
1/2-y,x,1/2+z
1/2-x,1/2-y,z
y,1/2-x,1/2+z
1/2+x,-y,-z
-x,1/2+y,-z
1/2+y,1/2+x,1/2-z
-y,-x,1/2-z
-x,-y,-z
1/2+y,-x,1/2-z
1/2+x,1/2+y,-z
-y,1/2+x,1/2-z
1/2-x,y,z
x,1/2-y,z
1/2-y,1/2-x,1/2+z
y,x,1/2+z
loop_
_atom_site_type_symbol
_atom_site_label
_atom_site_fract_x
_atom_site_fract_y
_atom_site_fract_z
Si Si1 0.835901 0.332932 0.972560
Si Si2 0.661865 0.543602 0.673971
Si Si3 0.335857 0.164692 0.502217
Si Si4 0.577451 0.093526 0.622626
Si Si5 0.056431 0.061322 0.551142
Si Si6 0.334425 0.550885 0.229376
Si Si7 0.663102 0.918304 0.107142
Si Si8 0.100047 0.548308 0.954503
O O1 0.750000 0.323080 0.963175
O O2 0.871087 0.250000 0.981208
O O3 0.866662 0.370967 0.919931
O O4 0.847219 0.386512 0.023442
O O5 0.750000 0.552162 0.661535
O O6 0.626831 0.475146 0.641828
O O7 0.648248 0.525049 0.736822
O O8 0.617120 0.617918 0.656805
O O9 0.250000 0.143491 0.501257
O O10 0.350523 0.250000 0.516759
O O11 0.373871 0.117634 0.549806
O O12 0.367354 0.146635 0.443924
O O13 0.499509 0.067857 0.599463
O O14 0.545630 0.149042 0.667240
O O15 0.014224 0.079157 0.496901
O O16 0.088750 0.978075 0.557966
O O17 0.380239 0.619762 0.250000
O O18 0.250000 0.572756 0.239300
O O19 0.750000 0.918112 0.122504
O O20 0.638120 0.004010 0.094732
#
# Coordination Sequence:
#
# PCOD8318406 Si02
#       8
#    16  16  16  16  16  16  16  16
#     4  10  20  30  43  67  98 131 162 193 233 281
#     4  10  19  31  46  68  93 117 153 201 247 287
#     4   9  18  29  41  64  94 122 155 194 233 274
#     4  10  18  32  48  65  89 122 162 196 228 278
#     4   9  17  28  46  64  87 119 159 190 225 271
#     4   9  19  32  47  66  90 120 153 193 238 276
#     4  10  18  30  49  68  90 122 153 192 242 291
#     4   9  17  30  43  66  93 121 156 195 230 276
#
# _framework density 15.748633999999999
#
# number of rings (size 3 to 8) (size 9 to 14) (size 15 to 20)
#    0.000    2.500    1.250    1.500    1.750    5.375 
#    0.000    0.000    0.000    0.750    0.000    0.000 
#    0.000    0.000    0.000    0.000    0.000    0.125 
#
# Total GULP energy -1585790.067759 kJ/mol
# GULP energy per Si atom -12388.984904 kJ/mol
# Density = 1.571279 g / cm^3
# Si number density = 15.748634 Si / 1000 Ang^3
#
#
#
# Elastic Constant Matrix: (Units=GPa)
#
#
# Indices 1 2 3 4 5 6 
#
# 1 73.5558 45.6026 27.4830 0.0000 0.0000 0.0000
# 2 45.6026 73.5552 27.4828 0.0000 0.0000 0.0000
# 3 27.4830 27.4828 39.7463 0.0000 0.0000 0.0000
# 4 0.0000 0.0000 0.0000 17.5973 0.0000 0.0000
# 5 0.0000 0.0000 0.0000 0.0000 17.5975 0.0000
# 6 0.0000 0.0000 0.0000 0.0000 0.0000 24.8907
#
#
#
# Elastic Compliance Matrix: (Units=1/GPa)
#
#
# Indices 1 2 3 4 5 6 
#
# 1 0.024048 -0.011726 -0.008521 0.000000 0.000000 0.000000
# 2 -0.011726 0.024049 -0.008520 0.000000 0.000000 0.000000
# 3 -0.008521 -0.008520 0.036943 0.000000 0.000000 0.000000
# 4 0.000000 0.000000 0.000000 0.056827 0.000000 0.000000
# 5 0.000000 0.000000 0.000000 0.000000 0.056826 0.000000
# 6 0.000000 0.000000 0.000000 0.000000 0.000000 0.040176
#
#
# Mechanical properties :
#
#
# Convention : Reuss Voigt Hill
#
# Bulk Modulus (GPa) = 36.35602 43.11046 39.73324
# Shear Modulus (GPa) = 16.36278 17.76968 17.06623
#
# Velocity S-wave (km/s) = 3.22684 3.36271 3.29548
# Velocity P-wave (km/s) = 6.08430 6.52002 6.30592
#
# Compressibility (1/GPa) = 0.02750576
#
# Stress axis : x y z
#
# Youngs Moduli (GPa) = 41.58266 41.58247 27.06885
#
# Poissons Ratio (x) = 0.48759 0.23064
# Poissons Ratio (y) = 0.48759 0.23064
# Poissons Ratio (z) = 0.35431 0.35430
#
# Static dielectric constant tensor:
#      x y z
#    x 3.119790 0.000000 0.000000 
#    y 0.000000 3.119780 0.000000 
#    z 0.000000 0.000000 3.030720 
# 
# 
# High freq. dielectric constant tensor:
#      x y z
#    x 1.606280 0.000000 0.000000 
#    y 0.000000 1.606280 0.000000 
#    z 0.000000 0.000000 1.569150 
# 
# From -- ./inp_files/9192.got.cif
#   From: 2010.03.12/outbox.cif.g09.slc.cpg/sg137_5_cif.got.tgz:9192.got - 2010.04.08 09:34:49.
