data_PCOD8318041
_publ_section_title
;
Structure prediction by ZEFSAII (Michael W. Deem and Ramdas Pophale) SiO2 
 PCOD8318041
Probable space group: P 42/M N M
;
_chemical_formula_sum "Si O2"
_cell_formula_units_Z 80
_cell_length_a 12.044383
_cell_length_b 12.044383
_cell_length_c 27.338184
_cell_angle_alpha 90.000000
_cell_angle_beta 90.000000
_cell_angle_gamma 90.000000
_cell_volume 3965.872763
_symmetry_space_group_name_H-M "P 42/M N M"
_symmetry_group_IT_number 136
_symmetry_cell_setting 'tetragonal'
loop_
_space_group_symop_operation_xyz
x,y,z
1/2-y,1/2+x,1/2+z
-x,-y,z
1/2+y,1/2-x,1/2+z
1/2+x,1/2-y,1/2-z
1/2-x,1/2+y,1/2-z
y,x,-z
-y,-x,-z
-x,-y,-z
1/2+y,1/2-x,1/2-z
x,y,-z
1/2-y,1/2+x,1/2-z
1/2-x,1/2+y,1/2+z
1/2+x,1/2-y,1/2+z
-y,-x,z
y,x,z
loop_
_atom_site_type_symbol
_atom_site_label
_atom_site_fract_x
_atom_site_fract_y
_atom_site_fract_z
Si Si1 0.497253 0.322047 0.769032
Si Si2 0.167585 0.518104 0.851825
Si Si3 0.661166 0.845595 0.444656
Si Si4 0.488791 0.819954 0.321529
Si Si5 0.177609 0.006504 0.089617
O O1 0.588579 0.411422 0.756036
O O2 0.375279 0.375279 0.760313
O O3 0.508122 0.286933 0.825969
O O4 0.519276 0.214144 0.735210
O O5 0.175538 0.546245 0.909818
O O6 0.105538 0.403043 0.840964
O O7 0.107413 0.622818 0.827430
O O8 0.671885 0.888809 0.500000
O O9 0.756883 0.756883 0.431670
O O10 0.539009 0.787251 0.438695
O O11 0.481333 0.707936 0.353301
O O12 0.125619 0.125619 0.071105
O O13 0.082660 0.917340 0.082708
#
# Coordination Sequence:
#
# PCOD8318041 Si02
#       5
#    16  16  16  16  16
#     4  11  23  36  53  79 109 141 176 215 264 324
#     4  10  21  36  53  78 109 140 180 226 266 314
#     4   9  18  34  57  81 106 143 186 225 269 315
#     4  10  20  34  52  78 108 142 178 213 265 325
#     4   9  17  30  50  78 111 143 178 222 270 323
#
# _framework density 20.172105999999999
#
# number of rings (size 3 to 8) (size 9 to 14) (size 15 to 20)
#    0.000    2.200    0.000    3.000    0.000    9.200 
#    0.000   10.000    0.000    0.600    0.000    2.800 
#    0.000    0.000    0.000    0.000    0.000    0.000 
#
# Total GULP energy -991377.469224 kJ/mol
# GULP energy per Si atom -12392.218365 kJ/mol
# Density = 2.012619 g / cm^3
# Si number density = 20.172106 Si / 1000 Ang^3
#
#
#
# Elastic Constant Matrix: (Units=GPa)
#
#
# Indices 1 2 3 4 5 6 
#
# 1 70.5848 23.1726 40.3336 0.0000 0.0000 0.0000
# 2 23.1726 70.5848 40.3336 0.0000 0.0000 0.0000
# 3 40.3336 40.3336 132.7432 0.0000 0.0000 0.0000
# 4 0.0000 0.0000 0.0000 -65.2895 0.0000 0.0000
# 5 0.0000 0.0000 0.0000 0.0000 -65.2895 0.0000
# 6 0.0000 0.0000 0.0000 0.0000 0.0000 17.6224
#
#
#
# Elastic Compliance Matrix: (Units=1/GPa)
#
#
# Indices 1 2 3 4 5 6 
#
# 1 0.017766 -0.003325 -0.004388 0.000000 0.000000 0.000000
# 2 -0.003325 0.017766 -0.004388 0.000000 0.000000 0.000000
# 3 -0.004388 -0.004388 0.010200 0.000000 0.000000 0.000000
# 4 0.000000 0.000000 0.000000 -0.015316 0.000000 0.000000
# 5 0.000000 0.000000 0.000000 0.000000 -0.015316 0.000000
# 6 0.000000 0.000000 0.000000 0.000000 0.000000 0.056746
#
#
# Mechanical properties :
#
#
# Convention : Reuss Voigt Hill
#
# Bulk Modulus (GPa) = 46.44579 53.51029 49.97804
# Shear Modulus (GPa) = 48.43806 -11.25311 18.59248
#
# Velocity S-wave (km/s) = 4.90556 -2.36446 3.03923
# Velocity P-wave (km/s) = 7.42703 4.37381 6.09471
#
# Compressibility (1/GPa) = 0.02153048
#
# Stress axis : x y z
#
# Youngs Moduli (GPa) = 56.28621 56.28621 98.04081
#
# Poissons Ratio (x) = 0.18717 0.43019
# Poissons Ratio (y) = 0.18717 0.43019
# Poissons Ratio (z) = 0.24698 0.24698
#
# Static dielectric constant tensor:
#      x y z
#    x 3.835770 0.000000 0.000000 
#    y 0.000000 3.835770 0.000000 
#    z 0.000000 0.000000 3.656210 
# 
# 
# High freq. dielectric constant tensor:
#      x y z
#    x 1.775240 0.000000 0.000000 
#    y 0.000000 1.775240 0.000000 
#    z 0.000000 0.000000 1.777150 
# 
# From -- ./inp_files/9547.got.cif
#   From: 2010.03.12/outbox.cif.g09.slc.cpg/sg136_5_cif.got.tgz:9547.got - 2010.04.06 18:39:43.
