data_PCOD8318192
_publ_section_title
;
Structure prediction by ZEFSAII (Michael W. Deem and Ramdas Pophale) SiO2 
 PCOD8318192
Probable space group: P 42/M N M
;
_chemical_formula_sum "Si O2"
_cell_formula_units_Z 80
_cell_length_a 12.243254
_cell_length_b 12.243254
_cell_length_c 27.816795
_cell_angle_alpha 90.000000
_cell_angle_beta 90.000000
_cell_angle_gamma 90.000000
_cell_volume 4169.661589
_symmetry_space_group_name_H-M "P 42/M N M"
_symmetry_group_IT_number 136
_symmetry_cell_setting 'tetragonal'
loop_
_space_group_symop_operation_xyz
x,y,z
1/2-y,1/2+x,1/2+z
-x,-y,z
1/2+y,1/2-x,1/2+z
1/2+x,1/2-y,1/2-z
1/2-x,1/2+y,1/2-z
y,x,-z
-y,-x,-z
-x,-y,-z
1/2+y,1/2-x,1/2-z
x,y,-z
1/2-y,1/2+x,1/2-z
1/2-x,1/2+y,1/2+z
1/2+x,1/2-y,1/2+z
-y,-x,z
y,x,z
loop_
_atom_site_type_symbol
_atom_site_label
_atom_site_fract_x
_atom_site_fract_y
_atom_site_fract_z
Si Si1 0.334275 0.152544 0.946634
Si Si2 0.673854 0.509105 0.589313
Si Si3 0.119151 0.446837 0.850453
Si Si4 0.548374 0.270995 0.689383
Si Si5 0.179908 0.998438 0.292574
O O1 0.252824 0.252824 0.935666
O O2 0.269068 0.036972 0.944744
O O3 0.428084 0.149413 0.906542
O O4 0.385636 0.163656 0.000000
O O5 0.580542 0.419459 0.592689
O O6 0.622387 0.622387 0.568999
O O7 0.719509 0.531678 0.643206
O O8 0.120484 0.337029 0.818691
O O9 0.218401 0.517606 0.828755
O O10 0.000000 0.500000 0.845454
O O11 0.625615 0.374386 0.691220
O O12 0.481343 0.269940 0.739044
O O13 0.107116 0.107116 0.295819
O O14 0.107746 0.892255 0.306246
#
# Coordination Sequence:
#
# PCOD8318192 Si02
#       5
#    16  16  16  16  16
#     4   9  18  34  55  76 100 139 187 231 283 341
#     4   8  13  24  44  72 103 129 162 210 261 319
#     4  11  23  36  53  80 114 145 180 229 286 342
#     4   9  18  32  51  75 105 143 181 220 271 331
#     4  10  21  37  58  81 108 149 196 236 272 321
#
# _framework density 19.186209000000002
#
# number of rings (size 3 to 8) (size 9 to 14) (size 15 to 20)
#    0.000    2.600    0.000    3.600    2.800    3.200 
#    0.000    6.000    0.000    0.600    0.000    2.800 
#    0.000    0.000    0.000    0.000    0.000    0.000 
#
# Total GULP energy -991250.546579 kJ/mol
# GULP energy per Si atom -12390.631832 kJ/mol
# Density = 1.914254 g / cm^3
# Si number density = 19.186209 Si / 1000 Ang^3
#
#
#
# Elastic Constant Matrix: (Units=GPa)
#
#
# Indices 1 2 3 4 5 6 
#
# 1 45.5171 6.3175 31.7453 0.0000 0.0000 0.0000
# 2 6.3175 45.5171 31.7453 0.0000 0.0000 0.0000
# 3 31.7453 31.7453 109.2913 0.0000 0.0000 0.0000
# 4 0.0000 0.0000 0.0000 20.5795 0.0000 0.0000
# 5 0.0000 0.0000 0.0000 0.0000 20.5795 0.0000
# 6 0.0000 0.0000 0.0000 0.0000 0.0000 21.0316
#
#
#
# Elastic Compliance Matrix: (Units=1/GPa)
#
#
# Indices 1 2 3 4 5 6 
#
# 1 0.027729 0.002218 -0.008698 0.000000 0.000000 0.000000
# 2 0.002218 0.027729 -0.008698 0.000000 0.000000 0.000000
# 3 -0.008698 -0.008698 0.014203 0.000000 0.000000 0.000000
# 4 0.000000 0.000000 0.000000 0.048592 0.000000 0.000000
# 5 0.000000 0.000000 0.000000 0.000000 0.048592 0.000000
# 6 0.000000 0.000000 0.000000 0.000000 0.000000 0.047548
#
#
# Mechanical properties :
#
#
# Convention : Reuss Voigt Hill
#
# Bulk Modulus (GPa) = 25.44372 37.77132 31.60752
# Shear Modulus (GPa) = 19.39110 21.13927 20.26518
#
# Velocity S-wave (km/s) = 3.18257 3.32293 3.25351
# Velocity P-wave (km/s) = 5.17641 5.86958 5.53386
#
# Compressibility (1/GPa) = 0.03930243
#
# Stress axis : x y z
#
# Youngs Moduli (GPa) = 36.06395 36.06395 70.40739
#
# Poissons Ratio (x) = -0.07999 0.61243
# Poissons Ratio (y) = -0.07999 0.61243
# Poissons Ratio (z) = 0.31370 0.31370
#
# Static dielectric constant tensor:
#      x y z
#    x 3.351070 0.000000 0.000000 
#    y 0.000000 3.351070 0.000000 
#    z 0.000000 0.000000 3.590480 
# 
# 
# High freq. dielectric constant tensor:
#      x y z
#    x 1.720770 0.000000 0.000000 
#    y 0.000000 1.720770 0.000000 
#    z 0.000000 0.000000 1.743950 
# 
# From -- ./inp_files/9524.got.cif
#   From: 2010.03.12/outbox.cif.g09.slc.cpg/sg136_5_cif.got.tgz:9524.got - 2010.04.06 18:39:43.
