data_PCOD8318128
_publ_section_title
;
Structure prediction by ZEFSAII (Michael W. Deem and Ramdas Pophale) SiO2 
 PCOD8318128
Probable space group: P 42/M N M
;
_chemical_formula_sum "Si O2"
_cell_formula_units_Z 96
_cell_length_a 23.158439
_cell_length_b 23.158439
_cell_length_c 8.693455
_cell_angle_alpha 90.000000
_cell_angle_beta 90.000000
_cell_angle_gamma 90.000000
_cell_volume 4662.415513
_symmetry_space_group_name_H-M "P 42/M N M"
_symmetry_group_IT_number 136
_symmetry_cell_setting 'tetragonal'
loop_
_space_group_symop_operation_xyz
x,y,z
1/2-y,1/2+x,1/2+z
-x,-y,z
1/2+y,1/2-x,1/2+z
1/2+x,1/2-y,1/2-z
1/2-x,1/2+y,1/2-z
y,x,-z
-y,-x,-z
-x,-y,-z
1/2+y,1/2-x,1/2-z
x,y,-z
1/2-y,1/2+x,1/2-z
1/2-x,1/2+y,1/2+z
1/2+x,1/2-y,1/2+z
-y,-x,z
y,x,z
loop_
_atom_site_type_symbol
_atom_site_label
_atom_site_fract_x
_atom_site_fract_y
_atom_site_fract_z
Si Si1 0.941976 0.441916 0.175873
Si Si2 0.061844 0.061844 0.170954
Si Si3 0.226965 0.612322 0.181836
Si Si4 0.629648 0.539495 0.178861
Si Si5 0.157979 0.157979 0.825226
Si Si6 0.880418 0.344203 0.681316
Si Si7 0.742510 0.019488 0.682553
O O1 0.923463 0.507386 0.207369
O O2 0.888994 0.402553 0.220264
O O3 0.961220 0.435006 0.000000
O O4 0.109945 0.109945 0.168923
O O5 0.005198 0.084566 0.253538
O O6 0.043965 0.043965 0.000000
O O7 0.290342 0.631304 0.228163
O O8 0.186650 0.660599 0.269853
O O9 0.219754 0.544163 0.233853
O O10 0.217914 0.617847 0.000000
O O11 0.604179 0.604179 0.208157
O O12 0.693673 0.532402 0.251830
O O13 0.634704 0.526157 0.000000
O O14 0.175782 0.175782 0.000000
O O15 0.886540 0.352568 0.500000
O O16 0.926770 0.297200 0.742445
O O17 0.743850 0.022464 0.500000
#
# Coordination Sequence:
#
# PCOD8318128 Si02
#       7
#    16   8  16  16   8  16  16
#     4  11  21  35  55  82 114 152 196 248 308 365
#     4  11  22  36  59  92 128 156 188 242 311 363
#     4  11  22  40  65  89 119 160 207 255 305 366
#     4  10  20  37  62  89 117 157 205 244 291 363
#     4  11  23  40  62  91 120 158 206 255 307 362
#     4  11  22  38  58  86 121 157 200 250 305 365
#     4   9  20  38  60  86 118 159 201 250 303 356
#
# _framework density 20.590185999999999
#
# number of rings (size 3 to 8) (size 9 to 14) (size 15 to 20)
#    0.000    1.500    1.667    4.750    0.000    3.333 
#    1.500    4.167    0.000    0.000    0.000    0.000 
#    0.000    0.000    0.000    0.000    0.000    0.000 
#
# Total GULP energy -1189557.416335 kJ/mol
# GULP energy per Si atom -12391.223087 kJ/mol
# Density = 2.054332 g / cm^3
# Si number density = 20.590186 Si / 1000 Ang^3
#
#
#
# Elastic Constant Matrix: (Units=GPa)
#
#
# Indices 1 2 3 4 5 6 
#
# 1 78.9285 65.4079 30.9214 0.0000 0.0000 0.0000
# 2 65.4079 78.9285 30.9214 0.0000 0.0000 0.0000
# 3 30.9214 30.9214 75.4037 0.0000 0.0000 0.0000
# 4 0.0000 0.0000 0.0000 70.6632 0.0000 0.0000
# 5 0.0000 0.0000 0.0000 0.0000 70.6632 0.0000
# 6 0.0000 0.0000 0.0000 0.0000 0.0000 40.3357
#
#
#
# Elastic Compliance Matrix: (Units=1/GPa)
#
#
# Indices 1 2 3 4 5 6 
#
# 1 0.041183 -0.032778 -0.003447 0.000000 0.000000 0.000000
# 2 -0.032778 0.041183 -0.003447 0.000000 0.000000 0.000000
# 3 -0.003447 -0.003447 0.016089 0.000000 0.000000 0.000000
# 4 0.000000 0.000000 0.000000 0.014152 0.000000 0.000000
# 5 0.000000 0.000000 0.000000 0.000000 0.014152 0.000000
# 6 0.000000 0.000000 0.000000 0.000000 0.000000 0.024792
#
#
# Mechanical properties :
#
#
# Convention : Reuss Voigt Hill
#
# Bulk Modulus (GPa) = 52.32316 54.19581 53.25948
# Shear Modulus (GPa) = 21.07353 43.39973 32.23663
#
# Velocity S-wave (km/s) = 3.20265 4.59605 3.96110
# Velocity P-wave (km/s) = 6.25642 7.38533 6.84419
#
# Compressibility (1/GPa) = 0.01911199
#
# Stress axis : x y z
#
# Youngs Moduli (GPa) = 24.28172 24.28172 62.15505
#
# Poissons Ratio (x) = 0.79591 0.21423
# Poissons Ratio (y) = 0.79591 0.21423
# Poissons Ratio (z) = 0.08369 0.08369
#
# Static dielectric constant tensor:
#      x y z
#    x 3.916750 0.000000 0.000000 
#    y 0.000000 3.916750 0.000000 
#    z 0.000000 0.000000 3.578620 
# 
# 
# High freq. dielectric constant tensor:
#      x y z
#    x 1.808770 0.000000 0.000000 
#    y 0.000000 1.808770 0.000000 
#    z 0.000000 0.000000 1.790910 
# 
# From -- ./inp_files/2032.got.cif
#   From: 2010.03.12/outbox.cif.g09.slc.cpg/sg136_2_cif.got.tgz:2032.got - 2010.04.06 18:39:43.
