data_PCOD8318623
_publ_section_title
;
Structure prediction by ZEFSAII (Michael W. Deem and Ramdas Pophale) SiO2 
 PCOD8318623
Probable space group: P 42/N M C
;
_chemical_formula_sum "Si O2"
_cell_formula_units_Z 112
_cell_length_a 14.259103
_cell_length_b 14.259103
_cell_length_c 29.392603
_cell_angle_alpha 90.000000
_cell_angle_beta 90.000000
_cell_angle_gamma 90.000000
_cell_volume 5976.163367
_symmetry_space_group_name_H-M "P 42/N M C"
_symmetry_group_IT_number 137
_space_group.IT_coordinate_system_code '2'
_symmetry_cell_setting 'tetragonal'
loop_
_space_group_symop_operation_xyz
x,y,z
1/2-y,x,1/2+z
1/2-x,1/2-y,z
y,1/2-x,1/2+z
1/2+x,-y,-z
-x,1/2+y,-z
1/2+y,1/2+x,1/2-z
-y,-x,1/2-z
-x,-y,-z
1/2+y,-x,1/2-z
1/2+x,1/2+y,-z
-y,1/2+x,1/2-z
1/2-x,y,z
x,1/2-y,z
1/2-y,1/2-x,1/2+z
y,x,1/2+z
loop_
_atom_site_type_symbol
_atom_site_label
_atom_site_fract_x
_atom_site_fract_y
_atom_site_fract_z
Si Si1 0.037176 0.358864 0.361399
Si Si2 0.641367 0.507723 0.240841
Si Si3 0.146823 0.994654 0.418512
Si Si4 0.141704 0.356965 0.177809
Si Si5 0.603488 0.985923 0.483612
Si Si6 0.646325 0.143206 0.414432
Si Si7 0.360117 0.471975 0.088742
O O1 0.057965 0.250000 0.370527
O O2 0.112767 0.417402 0.389219
O O3 0.048160 0.384671 0.308618
O O4 0.931580 0.386038 0.377422
O O5 0.588290 0.411711 0.250000
O O6 0.750000 0.482026 0.243321
O O7 0.611813 0.585115 0.277666
O O8 0.250000 0.962888 0.400922
O O9 0.073736 0.908840 0.414550
O O10 0.162163 0.030274 0.470558
O O11 0.250000 0.366681 0.190683
O O12 0.117879 0.250000 0.163424
O O13 0.114690 0.426684 0.137193
O O14 0.601991 0.897518 0.449143
O O15 0.500000 0.000000 0.500000
O O16 0.640185 0.078899 0.458812
O O17 0.750000 0.131603 0.392237
O O18 0.630300 0.250000 0.430754
O O19 0.250000 0.485643 0.081624
#
# Coordination Sequence:
#
# PCOD8318623 Si02
#       7
#    16  16  16  16  16  16  16
#     4  10  21  38  56  82 116 148 187 228 272 332
#     4  10  21  35  55  82 113 147 182 221 272 328
#     4  11  23  39  56  81 113 150 191 229 277 332
#     4   9  19  37  60  83 107 139 183 231 279 332
#     4  10  20  36  54  81 111 146 183 230 275 326
#     4  10  20  35  58  83 110 147 185 225 277 335
#     4  10  21  38  59  84 112 144 184 237 288 327
#
# _framework density 18.741121
#
# number of rings (size 3 to 8) (size 9 to 14) (size 15 to 20)
#    0.000    2.000    2.857    1.286    0.000    5.857 
#    0.000    2.857    0.000    0.000    0.000    0.000 
#    0.000    3.429    0.000    0.000    0.000    0.000 
#
# Total GULP energy -1388495.337048 kJ/mol
# GULP energy per Si atom -12397.279795 kJ/mol
# Density = 1.869847 g / cm^3
# Si number density = 18.741121 Si / 1000 Ang^3
#
#
#
# Elastic Constant Matrix: (Units=GPa)
#
#
# Indices 1 2 3 4 5 6 
#
# 1 101.7130 52.8522 62.3508 0.0000 0.0000 0.0000
# 2 52.8522 101.7150 62.3502 0.0000 0.0000 0.0000
# 3 62.3508 62.3502 148.4829 0.0000 0.0000 0.0000
# 4 0.0000 0.0000 0.0000 21.4109 0.0000 0.0000
# 5 0.0000 0.0000 0.0000 0.0000 21.4105 0.0000
# 6 0.0000 0.0000 0.0000 0.0000 0.0000 26.5733
#
#
#
# Elastic Compliance Matrix: (Units=1/GPa)
#
#
# Indices 1 2 3 4 5 6 
#
# 1 0.015125 -0.005341 -0.004109 0.000000 0.000000 0.000000
# 2 -0.005341 0.015125 -0.004109 0.000000 0.000000 0.000000
# 3 -0.004109 -0.004109 0.010185 0.000000 0.000000 0.000000
# 4 0.000000 0.000000 0.000000 0.046705 0.000000 0.000000
# 5 0.000000 0.000000 0.000000 0.000000 0.046706 0.000000
# 6 0.000000 0.000000 0.000000 0.000000 0.000000 0.037632
#
#
# Mechanical properties :
#
#
# Convention : Reuss Voigt Hill
#
# Bulk Modulus (GPa) = 75.07676 78.55748 76.81712
# Shear Modulus (GPa) = 24.62632 25.50279 25.06455
#
# Velocity S-wave (km/s) = 3.62888 3.69289 3.66103
# Velocity P-wave (km/s) = 7.59640 7.75832 7.67778
#
# Compressibility (1/GPa) = 0.01331970
#
# Stress axis : x y z
#
# Youngs Moduli (GPa) = 66.11366 66.11586 98.17966
#
# Poissons Ratio (x) = 0.35310 0.40340
# Poissons Ratio (y) = 0.35309 0.40338
# Poissons Ratio (z) = 0.27165 0.27164
#
# Static dielectric constant tensor:
#      x y z
#    x 3.521530 0.000000 0.000000 
#    y 0.000000 3.521530 0.000000 
#    z 0.000000 0.000000 3.801410 
# 
# 
# High freq. dielectric constant tensor:
#      x y z
#    x 1.725150 0.000000 0.000000 
#    y 0.000000 1.725150 0.000000 
#    z 0.000000 0.000000 1.731350 
# 
# From -- ./inp_files/9834.got.cif
#   From: 2010.03.12/outbox.cif.g09.slc.cpg/sg137_5_cif.got.tgz:9834.got - 2010.04.08 09:34:49.
