data_PCOD8318401
_publ_section_title
;
Structure prediction by ZEFSAII (Michael W. Deem and Ramdas Pophale) SiO2 
 PCOD8318401
Probable space group: P 42/N M C
;
_chemical_formula_sum "Si O2"
_cell_formula_units_Z 80
_cell_length_a 13.911665
_cell_length_b 13.911665
_cell_length_c 21.062829
_cell_angle_alpha 90.000000
_cell_angle_beta 90.000000
_cell_angle_gamma 90.000000
_cell_volume 4076.382459
_symmetry_space_group_name_H-M "P 42/N M C"
_symmetry_group_IT_number 137
_space_group.IT_coordinate_system_code '2'
_symmetry_cell_setting 'tetragonal'
loop_
_space_group_symop_operation_xyz
x,y,z
1/2-y,x,1/2+z
1/2-x,1/2-y,z
y,1/2-x,1/2+z
1/2+x,-y,-z
-x,1/2+y,-z
1/2+y,1/2+x,1/2-z
-y,-x,1/2-z
-x,-y,-z
1/2+y,-x,1/2-z
1/2+x,1/2+y,-z
-y,1/2+x,1/2-z
1/2-x,y,z
x,1/2-y,z
1/2-y,1/2-x,1/2+z
y,x,1/2+z
loop_
_atom_site_type_symbol
_atom_site_label
_atom_site_fract_x
_atom_site_fract_y
_atom_site_fract_z
Si Si1 0.949783 0.865016 0.870958
Si Si2 0.142892 0.363977 0.000817
Si Si3 0.141952 0.363599 0.862083
Si Si4 0.854087 0.362871 0.179991
Si Si5 0.635815 0.980824 0.755356
O O1 0.934943 0.750000 0.861114
O O2 0.887042 0.920802 0.818797
O O3 0.062344 0.895062 0.867882
O O4 0.920487 0.901822 0.940771
O O5 0.250000 0.405851 0.009089
O O6 0.147062 0.250000 0.003466
O O7 0.101528 0.395502 0.931663
O O8 0.250000 0.402615 0.853555
O O9 0.141865 0.250000 0.856562
O O10 0.077784 0.405868 0.805424
O O11 0.891492 0.391492 0.250000
O O12 0.750000 0.410496 0.162832
O O13 0.840024 0.250000 0.178677
O O14 0.750000 0.998419 0.752023
O O15 0.584011 0.084011 0.750000
#
# Coordination Sequence:
#
# PCOD8318401 Si02
#       5
#    16  16  16  16  16
#     4  10  18  29  52  84 111 133 165 214 265 310
#     4   8  14  26  47  77 110 139 164 199 258 319
#     4   8  15  31  55  79 104 135 168 206 260 324
#     4   8  14  25  41  64 101 146 178 199 237 301
#     4  11  23  37  53  74 100 133 178 225 267 313
#
# _framework density 19.625243999999999
#
# number of rings (size 3 to 8) (size 9 to 14) (size 15 to 20)
#    0.000    3.000    0.000    3.600    0.000    2.200 
#    0.000    2.000    0.000    1.200    0.000    5.600 
#    0.000    0.000    0.000    0.000    0.000    0.000 
#
# Total GULP energy -991156.161298 kJ/mol
# GULP energy per Si atom -12389.452016 kJ/mol
# Density = 1.958058 g / cm^3
# Si number density = 19.625244 Si / 1000 Ang^3
#
#
#
# Elastic Constant Matrix: (Units=GPa)
#
#
# Indices 1 2 3 4 5 6 
#
# 1 80.8123 19.4280 52.9274 0.0000 0.0000 0.0000
# 2 19.4280 80.8123 52.9274 0.0000 0.0000 0.0000
# 3 52.9274 52.9274 162.2230 0.0000 0.0000 0.0000
# 4 0.0000 0.0000 0.0000 18.3878 0.0000 0.0000
# 5 0.0000 0.0000 0.0000 0.0000 18.3878 0.0000
# 6 0.0000 0.0000 0.0000 0.0000 0.0000 14.6313
#
#
#
# Elastic Compliance Matrix: (Units=1/GPa)
#
#
# Indices 1 2 3 4 5 6 
#
# 1 0.015755 -0.000535 -0.004966 0.000000 0.000000 0.000000
# 2 -0.000535 0.015755 -0.004966 0.000000 0.000000 0.000000
# 3 -0.004966 -0.004966 0.009405 0.000000 0.000000 0.000000
# 4 0.000000 0.000000 0.000000 0.054384 0.000000 0.000000
# 5 0.000000 0.000000 0.000000 0.000000 0.054384 0.000000
# 6 0.000000 0.000000 0.000000 0.000000 0.000000 0.068347
#
#
# Mechanical properties :
#
#
# Convention : Reuss Voigt Hill
#
# Bulk Modulus (GPa) = 50.04614 63.82371 56.93492
# Shear Modulus (GPa) = 20.35634 23.51904 21.93769
#
# Velocity S-wave (km/s) = 3.22413 3.46556 3.34702
# Velocity P-wave (km/s) = 6.27824 6.97175 6.63406
#
# Compressibility (1/GPa) = 0.01998156
#
# Stress axis : x y z
#
# Youngs Moduli (GPa) = 63.47061 63.47061 106.33104
#
# Poissons Ratio (x) = 0.03399 0.52801
# Poissons Ratio (y) = 0.03399 0.52801
# Poissons Ratio (z) = 0.31517 0.31517
#
# Static dielectric constant tensor:
#      x y z
#    x 2.939900 0.000000 0.000000 
#    y 0.000000 2.939900 0.000000 
#    z 0.000000 0.000000 4.007250 
# 
# 
# High freq. dielectric constant tensor:
#      x y z
#    x 1.747750 0.000000 0.000000 
#    y 0.000000 1.747750 0.000000 
#    z 0.000000 0.000000 1.765530 
# 
# From -- ./inp_files/7534.got.cif
#   From: 2010.03.12/outbox.cif.g09.slc.cpg/sg137_4_cif.got.tgz:7534.got - 2010.04.08 09:34:49.
