data_PCOD8318379
_publ_section_title
;
Structure prediction by ZEFSAII (Michael W. Deem and Ramdas Pophale) SiO2 
 PCOD8318379
Probable space group: P 42/N M C
;
_chemical_formula_sum "Si O2"
_cell_formula_units_Z 128
_cell_length_a 18.528273
_cell_length_b 18.528273
_cell_length_c 22.178289
_cell_angle_alpha 90.000000
_cell_angle_beta 90.000000
_cell_angle_gamma 90.000000
_cell_volume 7613.737869
_symmetry_space_group_name_H-M "P 42/N M C"
_symmetry_group_IT_number 137
_space_group.IT_coordinate_system_code '2'
_symmetry_cell_setting 'tetragonal'
loop_
_space_group_symop_operation_xyz
x,y,z
1/2-y,x,1/2+z
1/2-x,1/2-y,z
y,1/2-x,1/2+z
1/2+x,-y,-z
-x,1/2+y,-z
1/2+y,1/2+x,1/2-z
-y,-x,1/2-z
-x,-y,-z
1/2+y,-x,1/2-z
1/2+x,1/2+y,-z
-y,1/2+x,1/2-z
1/2-x,y,z
x,1/2-y,z
1/2-y,1/2-x,1/2+z
y,x,1/2+z
loop_
_atom_site_type_symbol
_atom_site_label
_atom_site_fract_x
_atom_site_fract_y
_atom_site_fract_z
Si Si1 0.952347 0.168357 0.930646
Si Si2 0.830313 0.623772 0.565101
Si Si3 0.832172 0.899272 0.694834
Si Si4 0.832550 0.965019 0.996146
Si Si5 0.545802 0.087664 0.812738
Si Si6 0.930646 0.555183 0.884149
Si Si7 0.558084 0.052357 0.469506
Si Si8 0.668721 0.667174 0.820215
O O1 0.925444 0.250000 0.937352
O O2 0.923121 0.138583 0.866161
O O3 0.038001 0.159957 0.934609
O O4 0.923028 0.123162 0.987030
O O5 0.750000 0.646167 0.544837
O O6 0.846744 0.647146 0.634031
O O7 0.882414 0.662872 0.518007
O O8 0.750000 0.931371 0.691764
O O9 0.841109 0.843647 0.749044
O O10 0.888586 0.964371 0.702489
O O11 0.750000 0.988366 0.987908
O O12 0.875443 0.977031 0.933705
O O13 0.872623 0.016170 0.045887
O O14 0.591839 0.091839 0.750000
O O15 0.548821 0.005348 0.835577
O O16 0.891435 0.622610 0.854669
O O17 0.006870 0.584831 0.911571
O O18 0.500000 0.000000 0.500000
O O19 0.750000 0.643161 0.839643
O O20 0.655895 0.750000 0.836299
#
# Coordination Sequence:
#
# PCOD8318379 Si02
#       8
#    16  16  16  16  16  16  16  16
#     4  10  18  32  54  79 101 128 172 219 260 303
#     4   9  17  30  50  76 104 133 171 209 245 304
#     4   9  18  33  51  74 103 137 175 213 258 305
#     4  11  21  33  50  74 104 136 168 210 268 316
#     4  11  18  30  52  77 100 132 175 221 252 292
#     4  11  20  34  52  73 102 134 180 216 256 301
#     4  10  17  34  54  72  99 133 170 219 258 301
#     4  10  21  35  49  72 110 146 171 202 255 324
#
# _framework density 16.811715
#
# number of rings (size 3 to 8) (size 9 to 14) (size 15 to 20)
#    0.000    1.875    6.250    2.250    0.000    1.750 
#    0.000    1.250    0.000    0.375    0.000    0.000 
#    0.000    0.000    0.000    0.250    0.000    0.000 
#
# Total GULP energy -1586183.165375 kJ/mol
# GULP energy per Si atom -12392.055979 kJ/mol
# Density = 1.677345 g / cm^3
# Si number density = 16.811715 Si / 1000 Ang^3
#
#
#
# Elastic Constant Matrix: (Units=GPa)
#
#
# Indices 1 2 3 4 5 6 
#
# 1 85.2882 31.7052 31.0922 0.0000 0.0000 0.0000
# 2 31.7052 85.2882 31.0922 0.0000 0.0000 0.0000
# 3 31.0922 31.0922 66.3319 0.0000 0.0000 0.0000
# 4 0.0000 0.0000 0.0000 23.0938 0.0000 0.0000
# 5 0.0000 0.0000 0.0000 0.0000 23.0938 0.0000
# 6 0.0000 0.0000 0.0000 0.0000 0.0000 22.1004
#
#
#
# Elastic Compliance Matrix: (Units=1/GPa)
#
#
# Indices 1 2 3 4 5 6 
#
# 1 0.015023 -0.003639 -0.005336 0.000000 0.000000 0.000000
# 2 -0.003639 0.015023 -0.005336 0.000000 0.000000 0.000000
# 3 -0.005336 -0.005336 0.020078 0.000000 0.000000 0.000000
# 4 0.000000 0.000000 0.000000 0.043302 0.000000 0.000000
# 5 0.000000 0.000000 0.000000 0.000000 0.043302 0.000000
# 6 0.000000 0.000000 0.000000 0.000000 0.000000 0.045248
#
#
# Mechanical properties :
#
#
# Convention : Reuss Voigt Hill
#
# Bulk Modulus (GPa) = 46.50827 47.18752 46.84790
# Shear Modulus (GPa) = 22.96047 23.19219 23.07633
#
# Velocity S-wave (km/s) = 3.69960 3.71823 3.70893
# Velocity P-wave (km/s) = 6.78039 6.82369 6.80208
#
# Compressibility (1/GPa) = 0.02150155
#
# Stress axis : x y z
#
# Youngs Moduli (GPa) = 66.56397 66.56397 49.80574
#
# Poissons Ratio (x) = 0.24226 0.26576
# Poissons Ratio (y) = 0.24226 0.26576
# Poissons Ratio (z) = 0.35518 0.35518
#
# Static dielectric constant tensor:
#      x y z
#    x 3.145080 0.000000 0.000000 
#    y 0.000000 3.145080 0.000000 
#    z 0.000000 0.000000 3.403600 
# 
# 
# High freq. dielectric constant tensor:
#      x y z
#    x 1.627820 0.000000 0.000000 
#    y 0.000000 1.627820 0.000000 
#    z 0.000000 0.000000 1.647890 
# 
# From -- ./inp_files/9210.got.cif
#   From: 2010.03.12/outbox.cif.g09.slc.cpg/sg137_5_cif.got.tgz:9210.got - 2010.04.08 09:34:49.
