data_PCOD8318920
_publ_section_title
;
Structure prediction by ZEFSAII (Michael W. Deem and Ramdas Pophale) SiO2 
 PCOD8318920
Probable space group: P 42/N C M
;
_chemical_formula_sum "Si O2"
_cell_formula_units_Z 88
_cell_length_a 17.300048
_cell_length_b 17.300048
_cell_length_c 16.340578
_cell_angle_alpha 90.000000
_cell_angle_beta 90.000000
_cell_angle_gamma 90.000000
_cell_volume 4890.598728
_symmetry_space_group_name_H-M "P 42/N C M"
_symmetry_group_IT_number 138
_space_group.IT_coordinate_system_code '2'
_symmetry_cell_setting 'tetragonal'
loop_
_space_group_symop_operation_xyz
x,y,z
1/2-y,x,1/2+z
1/2-x,1/2-y,z
y,1/2-x,1/2+z
1/2+x,-y,1/2-z
-x,1/2+y,1/2-z
1/2+y,1/2+x,-z
-y,-x,-z
-x,-y,-z
1/2+y,-x,1/2-z
1/2+x,1/2+y,-z
-y,1/2+x,1/2-z
1/2-x,y,1/2+z
x,1/2-y,1/2+z
1/2-y,1/2-x,z
y,x,z
loop_
_atom_site_type_symbol
_atom_site_label
_atom_site_fract_x
_atom_site_fract_y
_atom_site_fract_z
Si Si1 0.038428 0.461573 0.149671
Si Si2 0.704487 0.925039 0.424795
Si Si3 0.588236 0.588236 0.651590
Si Si4 0.886247 0.011053 0.044220
Si Si5 0.369933 0.369933 0.527496
Si Si6 0.310900 0.521427 0.238371
Si Si7 0.361727 0.947895 0.272815
O O1 0.069051 0.430950 0.063349
O O2 0.109110 0.496516 0.201148
O O3 0.975013 0.524988 0.127507
O O4 0.641781 0.858220 0.411794
O O5 0.786679 0.886780 0.435804
O O6 0.692562 0.977262 0.506253
O O7 0.700462 0.983700 0.349513
O O8 0.626208 0.626208 0.570951
O O9 0.545931 0.655875 0.702695
O O10 0.884052 0.015835 0.140869
O O11 0.907409 0.092592 0.000000
O O12 0.951042 0.951042 0.016549
O O13 0.230639 0.557313 0.270057
O O14 0.365638 0.596323 0.235001
#
# Coordination Sequence:
#
# PCOD8318920 Si02
#       7
#     8  16   8  16   8  16  16
#     4  10  21  35  61  86 111 149 207 235 280 348
#     4  11  22  37  59  89 121 155 191 243 296 353
#     4  10  23  39  60  86 115 156 192 253 278 350
#     4  10  19  32  60  89 113 142 196 255 286 333
#     4  12  22  40  58  83 125 162 190 227 308 356
#     4  11  22  38  62  86 121 152 202 243 296 346
#     4  11  21  38  58  91 115 155 195 246 296 349
#
# _framework density 17.993707000000001
#
# number of rings (size 3 to 8) (size 9 to 14) (size 15 to 20)
#    0.000    1.273    5.455    1.636    0.000    0.364 
#    0.000    0.000    2.000    0.000    0.000    0.000 
#    0.000    0.000    0.000    0.000    0.000    0.000 
#
# Total GULP energy -1090934.150589 kJ/mol
# GULP energy per Si atom -12396.978984 kJ/mol
# Density = 1.795275 g / cm^3
# Si number density = 17.993707 Si / 1000 Ang^3
#
#
#
# Elastic Constant Matrix: (Units=GPa)
#
#
# Indices 1 2 3 4 5 6 
#
# 1 102.4996 49.9233 26.5478 0.0000 0.0000 0.0000
# 2 49.9233 102.4984 26.5474 0.0000 0.0000 0.0000
# 3 26.5478 26.5474 83.5599 0.0000 0.0000 0.0000
# 4 0.0000 0.0000 0.0000 27.1964 0.0000 0.0000
# 5 0.0000 0.0000 0.0000 0.0000 27.1967 0.0000
# 6 0.0000 0.0000 0.0000 0.0000 0.0000 29.6040
#
#
#
# Elastic Compliance Matrix: (Units=1/GPa)
#
#
# Indices 1 2 3 4 5 6 
#
# 1 0.013199 -0.005822 -0.002344 0.000000 0.000000 0.000000
# 2 -0.005822 0.013199 -0.002344 0.000000 0.000000 0.000000
# 3 -0.002344 -0.002344 0.013457 0.000000 0.000000 0.000000
# 4 0.000000 0.000000 0.000000 0.036770 0.000000 0.000000
# 5 0.000000 0.000000 0.000000 0.000000 0.036769 0.000000
# 6 0.000000 0.000000 0.000000 0.000000 0.000000 0.033779
#
#
# Mechanical properties :
#
#
# Convention : Reuss Voigt Hill
#
# Bulk Modulus (GPa) = 53.09000 54.95499 54.02250
# Shear Modulus (GPa) = 28.65841 29.16871 28.91356
#
# Velocity S-wave (km/s) = 3.99518 4.03060 4.01293
# Velocity P-wave (km/s) = 7.13097 7.22969 7.18050
#
# Compressibility (1/GPa) = 0.01883594
#
# Stress axis : x y z
#
# Youngs Moduli (GPa) = 75.76557 75.76478 74.31228
#
# Poissons Ratio (x) = 0.44107 0.17417
# Poissons Ratio (y) = 0.44107 0.17417
# Poissons Ratio (z) = 0.17758 0.17757
#
# Static dielectric constant tensor:
#      x y z
#    x 3.356460 0.000000 0.000000 
#    y 0.000000 3.356460 0.000000 
#    z 0.000000 0.000000 3.300680 
# 
# 
# High freq. dielectric constant tensor:
#      x y z
#    x 1.693560 0.000000 0.000000 
#    y 0.000000 1.693560 0.000000 
#    z 0.000000 0.000000 1.707260 
# 
# From -- ./inp_files/4251.got.cif
#   From: 2010.03.12/outbox.cif.g09.slc.cpg/sg138_3_cif.got.tgz:4251.got - 2010.04.08 09:41:05.
