data_PCOD8318274
_publ_section_title
;
Structure prediction by ZEFSAII (Michael W. Deem and Ramdas Pophale) SiO2 
 PCOD8318274
Probable space group: P 42/M N M
;
_chemical_formula_sum "Si O2"
_cell_formula_units_Z 80
_cell_length_a 22.443019
_cell_length_b 22.443019
_cell_length_c 10.331907
_cell_angle_alpha 90.000000
_cell_angle_beta 90.000000
_cell_angle_gamma 90.000000
_cell_volume 5204.068957
_symmetry_space_group_name_H-M "P 42/M N M"
_symmetry_group_IT_number 136
_symmetry_cell_setting 'tetragonal'
loop_
_space_group_symop_operation_xyz
x,y,z
1/2-y,1/2+x,1/2+z
-x,-y,z
1/2+y,1/2-x,1/2+z
1/2+x,1/2-y,1/2-z
1/2-x,1/2+y,1/2-z
y,x,-z
-y,-x,-z
-x,-y,-z
1/2+y,1/2-x,1/2-z
x,y,-z
1/2-y,1/2+x,1/2-z
1/2-x,1/2+y,1/2+z
1/2+x,1/2-y,1/2+z
-y,-x,z
y,x,z
loop_
_atom_site_type_symbol
_atom_site_label
_atom_site_fract_x
_atom_site_fract_y
_atom_site_fract_z
Si Si1 0.256875 0.642558 0.000000
Si Si2 0.451470 0.647646 0.000000
Si Si3 0.772649 0.127882 0.645274
Si Si4 0.817043 0.716498 0.237473
Si Si5 0.367801 0.531582 0.500000
Si Si6 0.628107 0.271918 0.500000
Si Si7 0.038862 0.862962 0.263167
O O1 0.214961 0.649299 0.874505
O O2 0.307473 0.692528 0.000000
O O3 0.286475 0.577195 0.000000
O O4 0.488606 0.637715 0.871077
O O5 0.399392 0.600609 0.000000
O O6 0.759683 0.103945 0.500000
O O7 0.817510 0.182491 0.635548
O O8 0.711989 0.151646 0.711336
O O9 0.800682 0.075165 0.731811
O O10 0.766781 0.766781 0.237536
O O11 0.865609 0.730876 0.126852
O O12 0.422142 0.577859 0.500000
O O13 0.304139 0.564363 0.500000
O O14 0.372200 0.489657 0.623876
O O15 0.679180 0.320821 0.500000
O O16 0.082482 0.917519 0.295047
#
# Coordination Sequence:
#
# PCOD8318274 Si02
#       7
#     8   8  16  16   8   8  16
#     4   9  18  28  40  65  90 105 134 180 228 275
#     4  11  21  33  47  62  86 121 161 199 227 260
#     4   9  16  29  47  65  82 105 143 186 227 278
#     4   9  15  26  46  66  84 104 131 175 228 283
#     4  11  23  35  45  62  90 121 161 207 241 264
#     4   9  16  28  46  63  80 111 146 178 226 281
#     4  11  22  34  47  62  85 120 164 205 233 259
#
# _framework density 15.372586
#
# number of rings (size 3 to 8) (size 9 to 14) (size 15 to 20)
#    0.000    2.200    2.000    2.400    0.000    6.400 
#    0.000    3.000    0.000    0.000    0.000    0.000 
#    0.000    0.000    0.000    0.000    0.000   70.000 
#
# Total GULP energy -991849.373445 kJ/mol
# GULP energy per Si atom -12398.117168 kJ/mol
# Density = 1.533760 g / cm^3
# Si number density = 15.372586 Si / 1000 Ang^3
#
#
#
# Elastic Constant Matrix: (Units=GPa)
#
#
# Indices 1 2 3 4 5 6 
#
# 1 48.4099 49.3147 37.5070 0.0000 0.0000 0.0000
# 2 49.3147 48.4120 37.5081 0.0000 0.0000 0.0000
# 3 37.5070 37.5081 134.1038 0.0000 0.0000 0.0000
# 4 0.0000 0.0000 0.0000 19.2482 0.0000 0.0000
# 5 0.0000 0.0000 0.0000 0.0000 19.2443 0.0000
# 6 0.0000 0.0000 0.0000 0.0000 0.0000 27.1801
#
#
#
# Elastic Compliance Matrix: (Units=1/GPa)
#
#
# Indices 1 2 3 4 5 6 
#
# 1 -0.546725 0.559744 -0.003646 0.000000 0.000000 0.000000
# 2 0.559744 -0.546702 -0.003643 0.000000 0.000000 0.000000
# 3 -0.003646 -0.003643 0.009496 0.000000 0.000000 0.000000
# 4 0.000000 0.000000 0.000000 0.051953 0.000000 0.000000
# 5 0.000000 0.000000 0.000000 0.000000 0.051963 0.000000
# 6 0.000000 0.000000 0.000000 0.000000 0.000000 0.036792
#
#
# Mechanical properties :
#
#
# Convention : Reuss Voigt Hill
#
# Bulk Modulus (GPa) = 47.66838 53.28725 50.47781
# Shear Modulus (GPa) = -2.44961 20.24093 8.89566
#
# Velocity S-wave (km/s) = -1.26371 3.63256 2.40817
# Velocity P-wave (km/s) = 5.38022 7.23416 6.37494
#
# Compressibility (1/GPa) = 0.02097827
#
# Stress axis : x y z
#
# Youngs Moduli (GPa) = -1.82907 -1.82915 105.31267
#
# Poissons Ratio (x) = 1.02385 0.38393
# Poissons Ratio (y) = 1.02381 0.38368
# Poissons Ratio (z) = -0.00667 -0.00666
#
# Static dielectric constant tensor:
#      x y z
#    x 2.855790 0.000000 0.000000 
#    y 0.000000 2.855790 0.000000 
#    z 0.000000 0.000000 2.967680 
# 
# 
# High freq. dielectric constant tensor:
#      x y z
#    x 1.557850 0.000000 0.000000 
#    y 0.000000 1.557850 0.000000 
#    z 0.000000 0.000000 1.606720 
# 
# From -- ./inp_files/1884.got.cif
#   From: 2010.03.12/outbox.cif.g09.slc.cpg/sg136_1_cif.got.tgz:1884.got - 2010.04.06 18:39:43.
