data_PCOD8318067
_publ_section_title
;
Structure prediction by ZEFSAII (Michael W. Deem and Ramdas Pophale) SiO2 
 PCOD8318067
Probable space group: P 42/M N M
;
_chemical_formula_sum "Si O2"
_cell_formula_units_Z 80
_cell_length_a 11.672589
_cell_length_b 11.672589
_cell_length_c 28.852633
_cell_angle_alpha 90.000000
_cell_angle_beta 90.000000
_cell_angle_gamma 90.000000
_cell_volume 3931.152029
_symmetry_space_group_name_H-M "P 42/M N M"
_symmetry_group_IT_number 136
_symmetry_cell_setting 'tetragonal'
loop_
_space_group_symop_operation_xyz
x,y,z
1/2-y,1/2+x,1/2+z
-x,-y,z
1/2+y,1/2-x,1/2+z
1/2+x,1/2-y,1/2-z
1/2-x,1/2+y,1/2-z
y,x,-z
-y,-x,-z
-x,-y,-z
1/2+y,1/2-x,1/2-z
x,y,-z
1/2-y,1/2+x,1/2-z
1/2-x,1/2+y,1/2+z
1/2+x,1/2-y,1/2+z
-y,-x,z
y,x,z
loop_
_atom_site_type_symbol
_atom_site_label
_atom_site_fract_x
_atom_site_fract_y
_atom_site_fract_z
Si Si1 0.498305 0.689043 0.644576
Si Si2 0.595429 0.595429 0.214907
Si Si3 0.402948 0.402948 0.888248
Si Si4 0.678816 0.019588 0.765114
Si Si5 0.270029 0.922425 0.051252
Si Si6 0.950095 0.758135 0.551631
O O1 0.386178 0.613823 0.654502
O O2 0.612738 0.612738 0.650505
O O3 0.502218 0.795383 0.680297
O O4 0.489164 0.739234 0.592243
O O5 0.500000 0.500000 0.213360
O O6 0.632024 0.632024 0.163425
O O7 0.543297 0.702428 0.240774
O O8 0.500000 0.500000 0.889630
O O9 0.447679 0.287179 0.912980
O O10 0.593950 0.126087 0.757936
O O11 0.175292 0.824709 0.049047
O O12 0.392966 0.864679 0.062988
O O13 0.274703 0.982301 0.000000
O O14 0.002096 0.757046 0.500000
O O15 0.854273 0.854273 0.555720
#
# Coordination Sequence:
#
# PCOD8318067 Si02
#       6
#    16   8   8  16  16  16
#     4  10  20  34  57  86 116 155 198 249 310 365
#     4  11  24  39  64  92 122 155 202 259 310 368
#     4   9  17  26  43  76 111 148 193 239 297 351
#     4  11  26  44  63  88 120 161 207 254 313 371
#     4   8  15  27  45  75 114 154 196 244 295 351
#     4   8  13  23  40  68 110 154 192 234 292 352
#
# _framework density 20.350269000000001
#
# number of rings (size 3 to 8) (size 9 to 14) (size 15 to 20)
#    0.000    2.600    1.000    2.100    5.600    1.600 
#    0.000    2.000    0.000    0.000    0.000    5.600 
#    0.000    0.000    0.000    0.000    0.000    0.200 
#
# Total GULP energy -991650.978642 kJ/mol
# GULP energy per Si atom -12395.637233 kJ/mol
# Density = 2.030395 g / cm^3
# Si number density = 20.350269 Si / 1000 Ang^3
#
#
#
# Elastic Constant Matrix: (Units=GPa)
#
#
# Indices 1 2 3 4 5 6 
#
# 1 56.9148 34.4567 49.4466 0.0000 0.0000 0.0000
# 2 34.4567 56.9148 49.4466 0.0000 0.0000 0.0000
# 3 49.4466 49.4466 168.7216 0.0000 0.0000 0.0000
# 4 0.0000 0.0000 0.0000 17.2899 0.0000 0.0000
# 5 0.0000 0.0000 0.0000 0.0000 17.2899 0.0000
# 6 0.0000 0.0000 0.0000 0.0000 0.0000 22.7099
#
#
#
# Elastic Compliance Matrix: (Units=1/GPa)
#
#
# Indices 1 2 3 4 5 6 
#
# 1 0.030278 -0.014249 -0.004697 0.000000 0.000000 0.000000
# 2 -0.014249 0.030278 -0.004697 0.000000 0.000000 0.000000
# 3 -0.004697 -0.004697 0.008680 0.000000 0.000000 0.000000
# 4 0.000000 0.000000 0.000000 0.057837 0.000000 0.000000
# 5 0.000000 0.000000 0.000000 0.000000 0.057837 0.000000
# 6 0.000000 0.000000 0.000000 0.000000 0.000000 0.044034
#
#
# Mechanical properties :
#
#
# Convention : Reuss Voigt Hill
#
# Bulk Modulus (GPa) = 45.56331 61.02791 53.29561
# Shear Modulus (GPa) = 17.63367 21.40468 19.51918
#
# Velocity S-wave (km/s) = 2.94684 3.24669 3.10039
# Velocity P-wave (km/s) = 5.83238 6.64142 6.25001
#
# Compressibility (1/GPa) = 0.02194748
#
# Stress axis : x y z
#
# Youngs Moduli (GPa) = 33.02741 33.02741 115.20452
#
# Poissons Ratio (x) = 0.47062 0.54116
# Poissons Ratio (y) = 0.47062 0.54116
# Poissons Ratio (z) = 0.15514 0.15514
#
# Static dielectric constant tensor:
#      x y z
#    x 3.698450 0.000000 0.000000 
#    y 0.000000 3.698450 0.000000 
#    z 0.000000 0.000000 4.133350 
# 
# 
# High freq. dielectric constant tensor:
#      x y z
#    x 1.768830 0.000000 0.000000 
#    y 0.000000 1.768830 0.000000 
#    z 0.000000 0.000000 1.810100 
# 
# From -- ./inp_files/9638.got.cif
#   From: 2010.03.12/outbox.cif.g09.slc.cpg/sg136_5_cif.got.tgz:9638.got - 2010.04.06 18:39:43.
