data_PCOD8318880
_publ_section_title
;
Structure prediction by ZEFSAII (Michael W. Deem and Ramdas Pophale) SiO2 
 PCOD8318880
Probable space group: P 42/N C M
;
_chemical_formula_sum "Si O2"
_cell_formula_units_Z 60
_cell_length_a 11.655248
_cell_length_b 11.655248
_cell_length_c 21.940013
_cell_angle_alpha 90.000000
_cell_angle_beta 90.000000
_cell_angle_gamma 90.000000
_cell_volume 2980.436808
_symmetry_space_group_name_H-M "P 42/N C M"
_symmetry_group_IT_number 138
_space_group.IT_coordinate_system_code '2'
_symmetry_cell_setting 'tetragonal'
loop_
_space_group_symop_operation_xyz
x,y,z
1/2-y,x,1/2+z
1/2-x,1/2-y,z
y,1/2-x,1/2+z
1/2+x,-y,1/2-z
-x,1/2+y,1/2-z
1/2+y,1/2+x,-z
-y,-x,-z
-x,-y,-z
1/2+y,-x,1/2-z
1/2+x,1/2+y,-z
-y,1/2+x,1/2-z
1/2-x,y,1/2+z
x,1/2-y,1/2+z
1/2-y,1/2-x,z
y,x,z
loop_
_atom_site_type_symbol
_atom_site_label
_atom_site_fract_x
_atom_site_fract_y
_atom_site_fract_z
Si Si1 0.769702 0.050539 0.336801
Si Si2 0.258724 0.574678 0.023149
Si Si3 0.409809 0.090192 0.973362
Si Si4 0.250000 0.750000 0.250000
Si Si5 0.038922 0.038922 0.338175
Si Si6 0.660207 0.660207 0.773360
O O1 0.728391 0.073441 0.404709
O O2 0.712567 0.144087 0.292456
O O3 0.905446 0.064071 0.334182
O O4 0.728490 0.926515 0.316395
O O5 0.166493 0.666493 0.000000
O O6 0.385173 0.614828 0.000000
O O7 0.216571 0.449185 0.998093
O O8 0.409659 0.090342 0.900390
O O9 0.500000 0.000000 0.000000
O O10 0.099602 0.099602 0.282413
O O11 0.750000 0.750000 0.745234
#
# Coordination Sequence:
#
# PCOD8318880 Si02
#       6
#    16  16   8   4   8   8
#     4  12  23  40  65  96 126 174 221 273 326 404
#     4  10  19  34  61  95 121 157 218 271 321 393
#     4  10  18  34  62  89 117 164 206 264 321 386
#     4  12  24  36  66  96 120 172 232 262 332 396
#     4  12  22  43  63  88 130 171 221 261 335 402
#     4  12  28  42  64  97 140 174 218 289 332 387
#
# _framework density 20.131277000000001
#
# number of rings (size 3 to 8) (size 9 to 14) (size 15 to 20)
#    0.000    0.800    9.333    1.600    0.000    0.000 
#    0.000    0.667    2.933    0.000    0.000    0.000 
#    0.000    0.000    0.000    0.000    0.000    0.000 
#
# Total GULP energy -743894.856924 kJ/mol
# GULP energy per Si atom -12398.247615 kJ/mol
# Density = 2.008546 g / cm^3
# Si number density = 20.131277 Si / 1000 Ang^3
#
#
#
# Elastic Constant Matrix: (Units=GPa)
#
#
# Indices 1 2 3 4 5 6 
#
# 1 144.9032 -3.6792 52.7741 0.0000 0.0000 0.0000
# 2 -3.6792 144.9056 52.7735 0.0000 0.0000 0.0000
# 3 52.7741 52.7735 182.3344 0.0000 0.0000 0.0000
# 4 0.0000 0.0000 0.0000 12.9753 0.0000 0.0000
# 5 0.0000 0.0000 0.0000 0.0000 12.9751 0.0000
# 6 0.0000 0.0000 0.0000 0.0000 0.0000 41.5670
#
#
#
# Elastic Compliance Matrix: (Units=1/GPa)
#
#
# Indices 1 2 3 4 5 6 
#
# 1 0.007883 0.001153 -0.002615 0.000000 0.000000 0.000000
# 2 0.001153 0.007883 -0.002615 0.000000 0.000000 0.000000
# 3 -0.002615 -0.002615 0.006998 0.000000 0.000000 0.000000
# 4 0.000000 0.000000 0.000000 0.077070 0.000000 0.000000
# 5 0.000000 0.000000 0.000000 0.000000 0.077070 0.000000
# 6 0.000000 0.000000 0.000000 0.000000 0.000000 0.024058
#
#
# Mechanical properties :
#
#
# Convention : Reuss Voigt Hill
#
# Bulk Modulus (GPa) = 68.45370 75.09780 71.77575
# Shear Modulus (GPa) = 23.36597 38.18848 30.77722
#
# Velocity S-wave (km/s) = 3.41057 4.36015 3.91426
# Velocity P-wave (km/s) = 7.04179 7.92041 7.49399
#
# Compressibility (1/GPa) = 0.01460841
#
# Stress axis : x y z
#
# Youngs Moduli (GPa) = 126.85721 126.85992 142.89279
#
# Poissons Ratio (x) = -0.14622 0.37369
# Poissons Ratio (y) = -0.14621 0.37368
# Poissons Ratio (z) = 0.33175 0.33175
#
# Static dielectric constant tensor:
#      x y z
#    x 3.577450 0.000000 0.000000 
#    y 0.000000 3.577030 0.000000 
#    z 0.000000 0.000000 3.774110 
# 
# 
# High freq. dielectric constant tensor:
#      x y z
#    x 1.772670 0.000000 0.000000 
#    y 0.000000 1.772670 0.000000 
#    z 0.000000 0.000000 1.802910 
# 
# From -- ./inp_files/5905.got.cif
#   From: 2010.03.12/outbox.cif.g09.slc.cpg/sg138_3_cif.got.tgz:5905.got - 2010.04.08 09:41:05.
