data_PCOD8318013
_publ_section_title
;
Structure prediction by ZEFSAII (Michael W. Deem and Ramdas Pophale) SiO2 
 PCOD8318013
Probable space group: P 42/M N M
;
_chemical_formula_sum "Si O2"
_cell_formula_units_Z 104
_cell_length_a 26.062236
_cell_length_b 26.062236
_cell_length_c 9.134543
_cell_angle_alpha 90.000000
_cell_angle_beta 90.000000
_cell_angle_gamma 90.000000
_cell_volume 6204.548315
_symmetry_space_group_name_H-M "P 42/M N M"
_symmetry_group_IT_number 136
_symmetry_cell_setting 'tetragonal'
loop_
_space_group_symop_operation_xyz
x,y,z
1/2-y,1/2+x,1/2+z
-x,-y,z
1/2+y,1/2-x,1/2+z
1/2+x,1/2-y,1/2-z
1/2-x,1/2+y,1/2-z
y,x,-z
-y,-x,-z
-x,-y,-z
1/2+y,1/2-x,1/2-z
x,y,-z
1/2-y,1/2+x,1/2-z
1/2-x,1/2+y,1/2+z
1/2+x,1/2-y,1/2+z
-y,-x,z
y,x,z
loop_
_atom_site_type_symbol
_atom_site_label
_atom_site_fract_x
_atom_site_fract_y
_atom_site_fract_z
Si Si1 0.412185 0.221883 0.664334
Si Si2 0.483079 0.656366 0.169193
Si Si3 0.575900 0.876832 0.831001
Si Si4 0.532375 0.243707 0.666233
Si Si5 0.100202 0.817710 0.333568
Si Si6 0.041766 0.041766 0.325835
Si Si7 0.642435 0.956464 0.669820
O O1 0.393109 0.211724 0.500000
O O2 0.397483 0.173234 0.762513
O O3 0.472100 0.233964 0.670126
O O4 0.383192 0.270775 0.730717
O O5 0.453994 0.701373 0.259420
O O6 0.543048 0.663309 0.192057
O O7 0.470221 0.599499 0.229543
O O8 0.466789 0.661950 0.000000
O O9 0.596324 0.926075 0.745507
O O10 0.515307 0.872889 0.808713
O O11 0.591311 0.881024 0.000000
O O12 0.553214 0.244070 0.500000
O O13 0.558113 0.196824 0.755289
O O14 0.108198 0.799763 0.500000
O O15 0.134911 0.865090 0.289215
O O16 0.039366 0.039366 0.500000
O O17 0.000000 0.000000 0.264345
O O18 0.646665 0.941792 0.500000
#
# Coordination Sequence:
#
# PCOD8318013 Si02
#       7
#    16  16  16  16  16   8  16
#     4   9  17  29  45  65  90 119 153 193 232 274
#     4   9  16  27  44  66  93 125 162 200 236 278
#     4  10  20  33  49  70  97 127 157 190 230 276
#     4   9  17  30  47  66  89 119 157 197 234 273
#     4   9  16  26  42  65  92 122 155 193 237 283
#     4   9  16  26  43  69  99 131 165 201 241 285
#     4  10  20  33  50  72  97 125 157 192 230 276
#
# _framework density 16.761897999999999
#
# number of rings (size 3 to 8) (size 9 to 14) (size 15 to 20)
#    0.000    2.692    0.000    2.308    0.000    8.000 
#    0.000    1.923    0.000    1.846    2.000    0.000 
#    0.000    0.000    0.000    0.000    0.000    0.000 
#
# Total GULP energy -1289339.750257 kJ/mol
# GULP energy per Si atom -12397.497599 kJ/mol
# Density = 1.672375 g / cm^3
# Si number density = 16.761898 Si / 1000 Ang^3
#
#
#
# Elastic Constant Matrix: (Units=GPa)
#
#
# Indices 1 2 3 4 5 6 
#
# 1 67.4993 37.9689 51.5896 0.0000 0.0000 0.0000
# 2 37.9689 67.4993 51.5896 0.0000 0.0000 0.0000
# 3 51.5896 51.5896 117.6127 0.0000 0.0000 0.0000
# 4 0.0000 0.0000 0.0000 23.7302 0.0000 0.0000
# 5 0.0000 0.0000 0.0000 0.0000 23.7302 0.0000
# 6 0.0000 0.0000 0.0000 0.0000 0.0000 12.9161
#
#
#
# Elastic Compliance Matrix: (Units=1/GPa)
#
#
# Indices 1 2 3 4 5 6 
#
# 1 0.025236 -0.008627 -0.007285 0.000000 0.000000 0.000000
# 2 -0.008627 0.025236 -0.007285 0.000000 0.000000 0.000000
# 3 -0.007285 -0.007285 0.014894 0.000000 0.000000 0.000000
# 4 0.000000 0.000000 0.000000 0.042140 0.000000 0.000000
# 5 0.000000 0.000000 0.000000 0.000000 0.042140 0.000000
# 6 0.000000 0.000000 0.000000 0.000000 0.000000 0.077423
#
#
# Mechanical properties :
#
#
# Convention : Reuss Voigt Hill
#
# Bulk Modulus (GPa) = 52.71457 59.43414 56.07436
# Shear Modulus (GPa) = 17.87068 19.50619 18.68843
#
# Velocity S-wave (km/s) = 3.26874 3.41504 3.34269
# Velocity P-wave (km/s) = 6.76487 7.14737 6.95875
#
# Compressibility (1/GPa) = 0.01897009
#
# Stress axis : x y z
#
# Youngs Moduli (GPa) = 39.62588 39.62588 67.14280
#
# Poissons Ratio (x) = 0.34187 0.48915
# Poissons Ratio (y) = 0.34187 0.48915
# Poissons Ratio (z) = 0.28868 0.28868
#
# Static dielectric constant tensor:
#      x y z
#    x 3.079110 0.000000 0.000000 
#    y 0.000000 3.079110 0.000000 
#    z 0.000000 0.000000 3.259010 
# 
# 
# High freq. dielectric constant tensor:
#      x y z
#    x 1.626610 0.000000 0.000000 
#    y 0.000000 1.626610 0.000000 
#    z 0.000000 0.000000 1.649530 
# 
# From -- ./inp_files/2232.got.cif
#   From: 2010.03.12/outbox.cif.g09.slc.cpg/sg136_2_cif.got.tgz:2232.got - 2010.04.06 18:39:43.
