data_PCOD8318061
_publ_section_title
;
Structure prediction by ZEFSAII (Michael W. Deem and Ramdas Pophale) SiO2 
 PCOD8318061
Probable space group: P 42/M N M
;
_chemical_formula_sum "Si O2"
_cell_formula_units_Z 72
_cell_length_a 11.163734
_cell_length_b 11.163734
_cell_length_c 29.029648
_cell_angle_alpha 90.000000
_cell_angle_beta 90.000000
_cell_angle_gamma 90.000000
_cell_volume 3617.934747
_symmetry_space_group_name_H-M "P 42/M N M"
_symmetry_group_IT_number 136
_symmetry_cell_setting 'tetragonal'
loop_
_space_group_symop_operation_xyz
x,y,z
1/2-y,1/2+x,1/2+z
-x,-y,z
1/2+y,1/2-x,1/2+z
1/2+x,1/2-y,1/2-z
1/2-x,1/2+y,1/2-z
y,x,-z
-y,-x,-z
-x,-y,-z
1/2+y,1/2-x,1/2-z
x,y,-z
1/2-y,1/2+x,1/2-z
1/2-x,1/2+y,1/2+z
1/2+x,1/2-y,1/2+z
-y,-x,z
y,x,z
loop_
_atom_site_type_symbol
_atom_site_label
_atom_site_fract_x
_atom_site_fract_y
_atom_site_fract_z
Si Si1 0.400222 0.098932 0.142290
Si Si2 0.407999 0.592002 0.945620
Si Si3 0.943010 0.753606 0.298020
Si Si4 0.718698 0.080885 0.449080
Si Si5 0.254803 0.444136 0.298086
O O1 0.448828 0.219742 0.167193
O O2 0.373946 0.123611 0.088490
O O3 0.500000 0.000000 0.146493
O O4 0.278517 0.049251 0.165601
O O5 0.500000 0.500000 0.921164
O O6 0.449044 0.728595 0.933353
O O7 0.420952 0.579049 0.000000
O O8 0.863954 0.863954 0.318505
O O9 0.860164 0.638629 0.288556
O O10 0.997595 0.795043 0.249709
O O11 0.657855 0.073868 0.500000
O O12 0.829422 0.170579 0.451555
O O13 0.365562 0.365562 0.317748
#
# Coordination Sequence:
#
# PCOD8318061 Si02
#       5
#    16   8  16  16  16
#     4  10  21  34  54  80 112 146 176 226 275 323
#     4   7  12  26  48  74 104 136 169 215 273 327
#     4  10  20  34  55  80 107 143 183 223 274 333
#     4   9  18  33  53  77 107 142 180 223 274 329
#     4  10  20  36  56  76 107 147 184 224 276 330
#
# _framework density 19.900856000000001
#
# number of rings (size 3 to 8) (size 9 to 14) (size 15 to 20)
#    0.000    2.556    2.222    1.333    1.556    2.667 
#    0.000    0.000    0.000    0.667    0.000    1.556 
#    0.000    0.000    0.000    0.000    0.000    0.000 
#
# Total GULP energy -892157.831778 kJ/mol
# GULP energy per Si atom -12391.080997 kJ/mol
# Density = 1.985556 g / cm^3
# Si number density = 19.900856 Si / 1000 Ang^3
#
#
#
# Elastic Constant Matrix: (Units=GPa)
#
#
# Indices 1 2 3 4 5 6 
#
# 1 63.1398 42.8897 42.8158 0.0000 0.0000 0.0000
# 2 42.8897 63.1399 42.8158 0.0000 0.0000 0.0000
# 3 42.8158 42.8158 131.2277 0.0000 0.0000 0.0000
# 4 0.0000 0.0000 0.0000 22.1550 0.0000 0.0000
# 5 0.0000 0.0000 0.0000 0.0000 22.1550 0.0000
# 6 0.0000 0.0000 0.0000 0.0000 0.0000 21.0493
#
#
#
# Elastic Compliance Matrix: (Units=1/GPa)
#
#
# Indices 1 2 3 4 5 6 
#
# 1 0.031094 -0.018288 -0.004178 0.000000 0.000000 0.000000
# 2 -0.018288 0.031094 -0.004178 0.000000 0.000000 0.000000
# 3 -0.004178 -0.004178 0.010347 0.000000 0.000000 0.000000
# 4 0.000000 0.000000 0.000000 0.045137 0.000000 0.000000
# 5 0.000000 0.000000 0.000000 0.000000 0.045137 0.000000
# 6 0.000000 0.000000 0.000000 0.000000 0.000000 0.047507
#
#
# Mechanical properties :
#
#
# Convention : Reuss Voigt Hill
#
# Bulk Modulus (GPa) = 51.95991 57.17220 54.56606
# Shear Modulus (GPa) = 18.51718 21.67094 20.09406
#
# Velocity S-wave (km/s) = 3.05367 3.30350 3.18104
# Velocity P-wave (km/s) = 6.21283 6.58344 6.40082
#
# Compressibility (1/GPa) = 0.01924561
#
# Stress axis : x y z
#
# Youngs Moduli (GPa) = 32.16056 32.16061 96.64885
#
# Poissons Ratio (x) = 0.58816 0.40381
# Poissons Ratio (y) = 0.58816 0.40381
# Poissons Ratio (z) = 0.13437 0.13437
#
# Static dielectric constant tensor:
#      x y z
#    x 3.592050 0.000000 0.000000 
#    y 0.000000 3.592050 0.000000 
#    z 0.000000 0.000000 3.809710 
# 
# 
# High freq. dielectric constant tensor:
#      x y z
#    x 1.755390 0.000000 0.000000 
#    y 0.000000 1.755390 0.000000 
#    z 0.000000 0.000000 1.764550 
# 
# From -- ./inp_files/9461.got.cif
#   From: 2010.03.12/outbox.cif.g09.slc.cpg/sg136_5_cif.got.tgz:9461.got - 2010.04.06 18:39:43.
