data_PCOD8318372
_publ_section_title
;
Structure prediction by ZEFSAII (Michael W. Deem and Ramdas Pophale) SiO2 
 PCOD8318372
Probable space group: P 42/N M C
;
_chemical_formula_sum "Si O2"
_cell_formula_units_Z 128
_cell_length_a 17.960824
_cell_length_b 17.960824
_cell_length_c 23.199594
_cell_angle_alpha 90.000000
_cell_angle_beta 90.000000
_cell_angle_gamma 90.000000
_cell_volume 7483.984839
_symmetry_space_group_name_H-M "P 42/N M C"
_symmetry_group_IT_number 137
_space_group.IT_coordinate_system_code '2'
_symmetry_cell_setting 'tetragonal'
loop_
_space_group_symop_operation_xyz
x,y,z
1/2-y,x,1/2+z
1/2-x,1/2-y,z
y,1/2-x,1/2+z
1/2+x,-y,-z
-x,1/2+y,-z
1/2+y,1/2+x,1/2-z
-y,-x,1/2-z
-x,-y,-z
1/2+y,-x,1/2-z
1/2+x,1/2+y,-z
-y,1/2+x,1/2-z
1/2-x,y,z
x,1/2-y,z
1/2-y,1/2-x,1/2+z
y,x,1/2+z
loop_
_atom_site_type_symbol
_atom_site_label
_atom_site_fract_x
_atom_site_fract_y
_atom_site_fract_z
Si Si1 0.661999 0.534570 0.247227
Si Si2 0.052194 0.940731 0.032444
Si Si3 0.910934 0.900939 0.570930
Si Si4 0.665325 0.931387 0.372054
Si Si5 0.437090 0.338490 0.553173
Si Si6 0.161664 0.550405 0.861814
Si Si7 0.162936 0.331838 0.827784
Si Si8 0.416831 0.834682 0.933270
O O1 0.750000 0.535678 0.251615
O O2 0.630676 0.534231 0.312462
O O3 0.639004 0.465459 0.205369
O O4 0.630454 0.609675 0.217825
O O5 0.991382 0.901521 0.073670
O O6 0.118812 0.984401 0.064741
O O7 0.093569 0.881028 0.991748
O O8 0.000000 0.000000 0.000000
O O9 0.902567 0.865370 0.507525
O O10 0.843383 0.871194 0.609086
O O11 0.990585 0.876667 0.596343
O O12 0.750000 0.903863 0.362359
O O13 0.618501 0.861279 0.395060
O O14 0.661772 0.996117 0.419018
O O15 0.449531 0.250000 0.554107
O O16 0.250000 0.545209 0.870054
O O17 0.132200 0.631234 0.880940
O O18 0.250000 0.344599 0.834727
O O19 0.143054 0.250000 0.805085
O O20 0.389815 0.750000 0.942090
#
# Coordination Sequence:
#
# PCOD8318372 Si02
#       8
#    16  16  16  16  16  16  16  16
#     4   8  17  32  49  66  94 137 171 201 250 305
#     4  10  18  34  50  69 100 135 165 199 248 312
#     4  10  17  30  51  70  95 130 169 208 247 300
#     4  10  20  34  48  70 102 134 169 204 250 312
#     4  11  20  31  51  75  98 131 168 207 253 303
#     4  10  18  32  52  73  96 129 175 218 255 299
#     4   9  17  28  45  72 101 130 166 206 248 297
#     4  11  21  33  50  73 102 134 168 213 262 306
#
# _framework density 17.103186999999998
#
# number of rings (size 3 to 8) (size 9 to 14) (size 15 to 20)
#    0.000    2.125    5.000    1.875    0.000    2.500 
#    0.000    1.250    0.000    0.000    0.000    3.500 
#    0.000    0.000    0.000    0.000    0.000    3.375 
#
# Total GULP energy -1586198.083228 kJ/mol
# GULP energy per Si atom -12392.172525 kJ/mol
# Density = 1.706426 g / cm^3
# Si number density = 17.103187 Si / 1000 Ang^3
#
#
#
# Elastic Constant Matrix: (Units=GPa)
#
#
# Indices 1 2 3 4 5 6 
#
# 1 81.9931 29.8509 28.2766 0.0000 0.0000 0.0000
# 2 29.8509 81.9931 28.2766 0.0000 0.0000 0.0000
# 3 28.2766 28.2766 66.2290 0.0000 0.0000 0.0000
# 4 0.0000 0.0000 0.0000 20.6621 0.0000 0.0000
# 5 0.0000 0.0000 0.0000 0.0000 20.6621 0.0000
# 6 0.0000 0.0000 0.0000 0.0000 0.0000 22.4460
#
#
#
# Elastic Compliance Matrix: (Units=1/GPa)
#
#
# Indices 1 2 3 4 5 6 
#
# 1 0.015291 -0.003888 -0.004868 0.000000 0.000000 0.000000
# 2 -0.003888 0.015291 -0.004868 0.000000 0.000000 0.000000
# 3 -0.004868 -0.004868 0.019256 0.000000 0.000000 0.000000
# 4 0.000000 0.000000 0.000000 0.048398 0.000000 0.000000
# 5 0.000000 0.000000 0.000000 0.000000 0.048398 0.000000
# 6 0.000000 0.000000 0.000000 0.000000 0.000000 0.044551
#
#
# Mechanical properties :
#
#
# Convention : Reuss Voigt Hill
#
# Bulk Modulus (GPa) = 44.27117 44.78036 44.52576
# Shear Modulus (GPa) = 22.12752 22.34143 22.23448
#
# Velocity S-wave (km/s) = 3.60080 3.61816 3.60949
# Velocity P-wave (km/s) = 6.57485 6.61015 6.59252
#
# Compressibility (1/GPa) = 0.02258807
#
# Stress axis : x y z
#
# Youngs Moduli (GPa) = 65.39998 65.39998 51.93118
#
# Poissons Ratio (x) = 0.25426 0.25282
# Poissons Ratio (y) = 0.25426 0.25282
# Poissons Ratio (z) = 0.31839 0.31839
#
# Static dielectric constant tensor:
#      x y z
#    x 3.255830 0.000000 0.000000 
#    y 0.000000 3.255830 0.000000 
#    z 0.000000 0.000000 3.380860 
# 
# 
# High freq. dielectric constant tensor:
#      x y z
#    x 1.643750 0.000000 0.000000 
#    y 0.000000 1.643750 0.000000 
#    z 0.000000 0.000000 1.648730 
# 
# From -- ./inp_files/9206.got.cif
#   From: 2010.03.12/outbox.cif.g09.slc.cpg/sg137_5_cif.got.tgz:9206.got - 2010.04.08 09:34:49.
