data_PCOD8318068
_publ_section_title
;
Structure prediction by ZEFSAII (Michael W. Deem and Ramdas Pophale) SiO2 
 PCOD8318068
Probable space group: P 42/M N M
;
_chemical_formula_sum "Si O2"
_cell_formula_units_Z 80
_cell_length_a 11.633201
_cell_length_b 11.633201
_cell_length_c 29.615877
_cell_angle_alpha 90.000000
_cell_angle_beta 90.000000
_cell_angle_gamma 90.000000
_cell_volume 4007.957075
_symmetry_space_group_name_H-M "P 42/M N M"
_symmetry_group_IT_number 136
_symmetry_cell_setting 'tetragonal'
loop_
_space_group_symop_operation_xyz
x,y,z
1/2-y,1/2+x,1/2+z
-x,-y,z
1/2+y,1/2-x,1/2+z
1/2+x,1/2-y,1/2-z
1/2-x,1/2+y,1/2-z
y,x,-z
-y,-x,-z
-x,-y,-z
1/2+y,1/2-x,1/2-z
x,y,-z
1/2-y,1/2+x,1/2-z
1/2-x,1/2+y,1/2+z
1/2+x,1/2-y,1/2+z
-y,-x,z
y,x,z
loop_
_atom_site_type_symbol
_atom_site_label
_atom_site_fract_x
_atom_site_fract_y
_atom_site_fract_z
Si Si1 0.595079 0.404922 0.647052
Si Si2 0.939493 0.246001 0.911996
Si Si3 0.628209 0.975168 0.620970
Si Si4 0.404170 0.595831 0.254106
Si Si5 0.156909 0.655344 0.550254
Si Si6 0.020428 0.336967 0.725652
O O1 0.500000 0.500000 0.653588
O O2 0.536959 0.295718 0.623350
O O3 0.636115 0.363886 0.696301
O O4 0.860979 0.139022 0.929676
O O5 0.852339 0.339083 0.889089
O O6 0.019588 0.304898 0.949879
O O7 0.644049 0.006926 0.673148
O O8 0.500000 0.000000 0.606357
O O9 0.696354 0.060141 0.586826
O O10 0.500000 0.500000 0.254997
O O11 0.296478 0.545558 0.227878
O O12 0.108073 0.679716 0.500000
O O13 0.269660 0.730341 0.560252
O O14 0.129095 0.411664 0.743053
#
# Coordination Sequence:
#
# PCOD8318068 Si02
#       6
#     8  16  16   8  16  16
#     4   9  18  34  53  84 118 156 184 229 294 361
#     4  10  20  34  60  86 119 151 189 237 303 353
#     4  10  21  38  59  86 117 159 201 241 291 357
#     4  11  26  38  58  88 126 162 211 252 306 363
#     4  10  22  39  61  88 117 152 196 245 299 361
#     4  11  23  40  61  89 121 163 208 254 305 357
#
# _framework density 19.960293
#
# number of rings (size 3 to 8) (size 9 to 14) (size 15 to 20)
#    0.000    1.800    3.000    1.200    5.600    4.800 
#    0.000    1.000    0.000    0.000    0.000    1.400 
#    0.000    0.000    0.000    0.000    0.000    0.000 
#
# Total GULP energy -991269.306892 kJ/mol
# GULP energy per Si atom -12390.866336 kJ/mol
# Density = 1.991486 g / cm^3
# Si number density = 19.960293 Si / 1000 Ang^3
#
#
#
# Elastic Constant Matrix: (Units=GPa)
#
#
# Indices 1 2 3 4 5 6 
#
# 1 86.6693 34.8929 38.8250 0.0000 0.0000 0.0000
# 2 34.8929 86.6693 38.8250 0.0000 0.0000 0.0000
# 3 38.8250 38.8250 132.9448 0.0000 0.0000 0.0000
# 4 0.0000 0.0000 0.0000 19.0037 0.0000 0.0000
# 5 0.0000 0.0000 0.0000 0.0000 19.0037 0.0000
# 6 0.0000 0.0000 0.0000 0.0000 0.0000 11.9352
#
#
#
# Elastic Compliance Matrix: (Units=1/GPa)
#
#
# Indices 1 2 3 4 5 6 
#
# 1 0.014713 -0.004601 -0.002953 0.000000 0.000000 0.000000
# 2 -0.004601 0.014713 -0.002953 0.000000 0.000000 0.000000
# 3 -0.002953 -0.002953 0.009247 0.000000 0.000000 0.000000
# 4 0.000000 0.000000 0.000000 0.052621 0.000000 0.000000
# 5 0.000000 0.000000 0.000000 0.000000 0.052621 0.000000
# 6 0.000000 0.000000 0.000000 0.000000 0.000000 0.083786
#
#
# Mechanical properties :
#
#
# Convention : Reuss Voigt Hill
#
# Bulk Modulus (GPa) = 56.62805 59.04103 57.83454
# Shear Modulus (GPa) = 19.63847 22.90457 21.27152
#
# Velocity S-wave (km/s) = 3.14008 3.39116 3.26803
# Velocity P-wave (km/s) = 6.44816 6.70647 6.57858
#
# Compressibility (1/GPa) = 0.01765909
#
# Stress axis : x y z
#
# Youngs Moduli (GPa) = 67.96592 67.96592 108.14472
#
# Poissons Ratio (x) = 0.31268 0.31938
# Poissons Ratio (y) = 0.31268 0.31938
# Poissons Ratio (z) = 0.20072 0.20072
#
# Static dielectric constant tensor:
#      x y z
#    x 3.694080 0.000000 0.000000 
#    y 0.000000 3.694080 0.000000 
#    z 0.000000 0.000000 3.695520 
# 
# 
# High freq. dielectric constant tensor:
#      x y z
#    x 1.765340 0.000000 0.000000 
#    y 0.000000 1.765340 0.000000 
#    z 0.000000 0.000000 1.776290 
# 
# From -- ./inp_files/9630.got.cif
#   From: 2010.03.12/outbox.cif.g09.slc.cpg/sg136_5_cif.got.tgz:9630.got - 2010.04.06 18:39:43.
