data_PCOD8318349
_publ_section_title
;
Structure prediction by ZEFSAII (Michael W. Deem and Ramdas Pophale) SiO2 
 PCOD8318349
Probable space group: P 42/M N M
;
_chemical_formula_sum "Si O2"
_cell_formula_units_Z 96
_cell_length_a 24.499937
_cell_length_b 24.499937
_cell_length_c 9.753728
_cell_angle_alpha 90.000000
_cell_angle_beta 90.000000
_cell_angle_gamma 90.000000
_cell_volume 5854.645122
_symmetry_space_group_name_H-M "P 42/M N M"
_symmetry_group_IT_number 136
_symmetry_cell_setting 'tetragonal'
loop_
_space_group_symop_operation_xyz
x,y,z
1/2-y,1/2+x,1/2+z
-x,-y,z
1/2+y,1/2-x,1/2+z
1/2+x,1/2-y,1/2-z
1/2-x,1/2+y,1/2-z
y,x,-z
-y,-x,-z
-x,-y,-z
1/2+y,1/2-x,1/2-z
x,y,-z
1/2-y,1/2+x,1/2-z
1/2-x,1/2+y,1/2+z
1/2+x,1/2-y,1/2+z
-y,-x,z
y,x,z
loop_
_atom_site_type_symbol
_atom_site_label
_atom_site_fract_x
_atom_site_fract_y
_atom_site_fract_z
Si Si1 0.811089 0.356378 0.837265
Si Si2 0.801571 0.578025 0.660083
Si Si3 0.021680 0.290165 0.344173
Si Si4 0.616826 0.383175 0.836842
Si Si5 0.676574 0.590286 0.654729
Si Si6 0.995935 0.837977 0.345434
Si Si7 0.796285 0.796285 0.663632
O O1 0.870756 0.337156 0.788575
O O2 0.804224 0.418447 0.784596
O O3 0.763517 0.315456 0.781023
O O4 0.806712 0.355904 0.000000
O O5 0.811256 0.564947 0.500000
O O6 0.817706 0.524496 0.747891
O O7 0.739825 0.596030 0.690654
O O8 0.014290 0.311859 0.500000
O O9 0.016357 0.225684 0.339791
O O10 0.630911 0.443573 0.784697
O O11 0.660157 0.339844 0.778207
O O12 0.619782 0.380219 0.000000
O O13 0.668778 0.569320 0.500000
O O14 0.649447 0.649447 0.676396
O O15 0.646426 0.547185 0.752243
O O16 0.008824 0.856808 0.500000
O O17 0.795846 0.795846 0.500000
#
# Coordination Sequence:
#
# PCOD8318349 Si02
#       7
#    16  16  16   8  16  16   8
#     4   9  16  26  45  72  97 117 146 187 227 267
#     4   9  18  30  46  70  94 118 148 184 222 264
#     4   9  16  29  47  67  91 120 150 179 218 271
#     4   9  14  24  42  68  93 110 138 186 233 267
#     4   9  18  31  44  60  87 121 152 181 217 264
#     4   9  16  27  45  66  86 112 147 185 224 265
#     4   9  14  22  42  72  98 115 138 183 235 268
#
# _framework density 16.397235999999999
#
# number of rings (size 3 to 8) (size 9 to 14) (size 15 to 20)
#    0.000    3.000    1.667    0.000    1.167    0.333 
#    0.000    1.667    0.000    3.000    0.000    5.250 
#    0.000    0.000    0.000    0.000    0.000    0.000 
#
# Total GULP energy -1189937.802285 kJ/mol
# GULP energy per Si atom -12395.185440 kJ/mol
# Density = 1.635992 g / cm^3
# Si number density = 16.397236 Si / 1000 Ang^3
#
#
#
# Elastic Constant Matrix: (Units=GPa)
#
#
# Indices 1 2 3 4 5 6 
#
# 1 89.8445 52.1325 31.5357 0.0000 0.0000 0.0000
# 2 52.1325 89.8448 31.5356 0.0000 0.0000 0.0000
# 3 31.5357 31.5356 41.8769 0.0000 0.0000 0.0000
# 4 0.0000 0.0000 0.0000 20.0789 0.0000 0.0000
# 5 0.0000 0.0000 0.0000 0.0000 20.0789 0.0000
# 6 0.0000 0.0000 0.0000 0.0000 0.0000 25.0403
#
#
#
# Elastic Compliance Matrix: (Units=1/GPa)
#
#
# Indices 1 2 3 4 5 6 
#
# 1 0.018550 -0.007966 -0.007971 0.000000 0.000000 0.000000
# 2 -0.007966 0.018550 -0.007970 0.000000 0.000000 0.000000
# 3 -0.007971 -0.007970 0.035884 0.000000 0.000000 0.000000
# 4 0.000000 0.000000 0.000000 0.049804 0.000000 0.000000
# 5 0.000000 0.000000 0.000000 0.000000 0.049803 0.000000
# 6 0.000000 0.000000 0.000000 0.000000 0.000000 0.039936
#
#
# Mechanical properties :
#
#
# Convention : Reuss Voigt Hill
#
# Bulk Modulus (GPa) = 39.72922 50.21931 44.97426
# Shear Modulus (GPa) = 18.60591 20.13046 19.36818
#
# Velocity S-wave (km/s) = 3.37218 3.50762 3.44057
# Velocity P-wave (km/s) = 6.28044 6.86278 6.57806
#
# Compressibility (1/GPa) = 0.02517039
#
# Stress axis : x y z
#
# Youngs Moduli (GPa) = 53.90704 53.90735 27.86759
#
# Poissons Ratio (x) = 0.42944 0.22212
# Poissons Ratio (y) = 0.42944 0.22212
# Poissons Ratio (z) = 0.42967 0.42966
#
# Static dielectric constant tensor:
#      x y z
#    x 3.159150 0.000000 0.000000 
#    y 0.000000 3.159150 0.000000 
#    z 0.000000 0.000000 2.907210 
# 
# 
# High freq. dielectric constant tensor:
#      x y z
#    x 1.624350 0.000000 0.000000 
#    y 0.000000 1.624350 0.000000 
#    z 0.000000 0.000000 1.592720 
# 
# From -- ./inp_files/3939.got.cif
#   From: 2010.03.12/outbox.cif.g09.slc.cpg/sg136_2_cif.got.tgz:3939.got - 2010.04.06 18:39:43.
