data_PCOD8318117
_publ_section_title
;
Structure prediction by ZEFSAII (Michael W. Deem and Ramdas Pophale) SiO2 
 PCOD8318117
Probable space group: P 42/M N M
;
_chemical_formula_sum "Si O2"
_cell_formula_units_Z 72
_cell_length_a 18.739187
_cell_length_b 18.739187
_cell_length_c 11.838476
_cell_angle_alpha 90.000000
_cell_angle_beta 90.000000
_cell_angle_gamma 90.000000
_cell_volume 4157.165249
_symmetry_space_group_name_H-M "P 42/M N M"
_symmetry_group_IT_number 136
_symmetry_cell_setting 'tetragonal'
loop_
_space_group_symop_operation_xyz
x,y,z
1/2-y,1/2+x,1/2+z
-x,-y,z
1/2+y,1/2-x,1/2+z
1/2+x,1/2-y,1/2-z
1/2-x,1/2+y,1/2-z
y,x,-z
-y,-x,-z
-x,-y,-z
1/2+y,1/2-x,1/2-z
x,y,-z
1/2-y,1/2+x,1/2-z
1/2-x,1/2+y,1/2+z
1/2+x,1/2-y,1/2+z
-y,-x,z
y,x,z
loop_
_atom_site_type_symbol
_atom_site_label
_atom_site_fract_x
_atom_site_fract_y
_atom_site_fract_z
Si Si1 0.078658 0.193757 0.000000
Si Si2 0.981956 0.213515 0.633591
Si Si3 0.088256 0.795361 0.000000
Si Si4 0.758703 0.875248 0.239209
Si Si5 0.356389 0.238666 0.270039
Si Si6 0.443427 0.443427 0.134464
O O1 0.103073 0.238954 0.891736
O O2 0.994203 0.183048 0.000000
O O3 0.115880 0.115880 0.000000
O O4 0.984931 0.215825 0.500000
O O5 0.918554 0.264135 0.676608
O O6 0.965654 0.134007 0.680689
O O7 0.056686 0.239817 0.680781
O O8 0.108465 0.747690 0.892518
O O9 0.130592 0.869409 0.000000
O O10 0.824847 0.824847 0.272586
O O11 0.684290 0.836262 0.264304
O O12 0.302609 0.302609 0.239997
O O13 0.500000 0.500000 0.182829
O O14 0.443263 0.443263 0.000000
#
# Coordination Sequence:
#
# PCOD8318117 Si02
#       6
#     8  16   8  16  16   8
#     4  10  20  37  56  83 115 147 186 228 281 337
#     4  11  21  34  55  83 112 145 188 226 279 333
#     4  10  20  37  58  81 113 150 187 225 276 342
#     4  10  22  37  56  82 113 149 187 233 276 329
#     4  10  21  37  57  80 111 149 191 232 276 328
#     4   9  18  32  50  77 115 149 171 217 275 336
#
# _framework density 17.319493999999999
#
# number of rings (size 3 to 8) (size 9 to 14) (size 15 to 20)
#    0.000    1.889    3.333    0.667    3.111    1.556 
#    0.000    0.000    0.000    0.667    0.000    3.111 
#    0.000    0.000    0.000    0.000    0.000    0.000 
#
# Total GULP energy -893081.757858 kJ/mol
# GULP energy per Si atom -12403.913304 kJ/mol
# Density = 1.728007 g / cm^3
# Si number density = 17.319494 Si / 1000 Ang^3
#
#
#
# Elastic Constant Matrix: (Units=GPa)
#
#
# Indices 1 2 3 4 5 6 
#
# 1 121.9551 79.3518 54.7105 0.0000 0.0000 0.0000
# 2 79.3518 121.9542 54.7107 0.0000 0.0000 0.0000
# 3 54.7105 54.7107 106.6608 0.0000 0.0000 0.0000
# 4 0.0000 0.0000 0.0000 22.7823 0.0000 0.0000
# 5 0.0000 0.0000 0.0000 0.0000 22.7821 0.0000
# 6 0.0000 0.0000 0.0000 0.0000 0.0000 25.9003
#
#
#
# Elastic Compliance Matrix: (Units=1/GPa)
#
#
# Indices 1 2 3 4 5 6 
#
# 1 0.015180 -0.008292 -0.003533 0.000000 0.000000 0.000000
# 2 -0.008292 0.015180 -0.003533 0.000000 0.000000 0.000000
# 3 -0.003533 -0.003533 0.013000 0.000000 0.000000 0.000000
# 4 0.000000 0.000000 0.000000 0.043894 0.000000 0.000000
# 5 0.000000 0.000000 0.000000 0.000000 0.043894 0.000000
# 6 0.000000 0.000000 0.000000 0.000000 0.000000 0.038610
#
#
# Mechanical properties :
#
#
# Convention : Reuss Voigt Hill
#
# Bulk Modulus (GPa) = 79.09162 80.90177 79.99670
# Shear Modulus (GPa) = 24.42720 25.07941 24.75331
#
# Velocity S-wave (km/s) = 3.75959 3.80945 3.78460
# Velocity P-wave (km/s) = 8.03812 8.13400 8.08620
#
# Compressibility (1/GPa) = 0.01264356
#
# Stress axis : x y z
#
# Youngs Moduli (GPa) = 65.87519 65.87447 76.92259
#
# Poissons Ratio (x) = 0.54625 0.27177
# Poissons Ratio (y) = 0.54626 0.27178
# Poissons Ratio (z) = 0.23274 0.23275
#
# Static dielectric constant tensor:
#      x y z
#    x 3.191980 0.000000 0.000000 
#    y 0.000000 3.191980 0.000000 
#    z 0.000000 0.000000 3.254760 
# 
# 
# High freq. dielectric constant tensor:
#      x y z
#    x 1.658690 0.000000 0.000000 
#    y 0.000000 1.658690 0.000000 
#    z 0.000000 0.000000 1.677740 
# 
# From -- ./inp_files/3502.got.cif
#   From: 2010.03.12/outbox.cif.g09.slc.cpg/sg136_2_cif.got.tgz:3502.got - 2010.04.06 18:39:43.
