data_PCOD8318437
_publ_section_title
;
Structure prediction by ZEFSAII (Michael W. Deem and Ramdas Pophale) SiO2 
 PCOD8318437
Probable space group: P 42/N M C
;
_chemical_formula_sum "Si O2"
_cell_formula_units_Z 88
_cell_length_a 17.371821
_cell_length_b 17.371821
_cell_length_c 16.542787
_cell_angle_alpha 90.000000
_cell_angle_beta 90.000000
_cell_angle_gamma 90.000000
_cell_volume 4992.284988
_symmetry_space_group_name_H-M "P 42/N M C"
_symmetry_group_IT_number 137
_space_group.IT_coordinate_system_code '2'
_symmetry_cell_setting 'tetragonal'
loop_
_space_group_symop_operation_xyz
x,y,z
1/2-y,x,1/2+z
1/2-x,1/2-y,z
y,1/2-x,1/2+z
1/2+x,-y,-z
-x,1/2+y,-z
1/2+y,1/2+x,1/2-z
-y,-x,1/2-z
-x,-y,-z
1/2+y,-x,1/2-z
1/2+x,1/2+y,-z
-y,1/2+x,1/2-z
1/2-x,y,z
x,1/2-y,z
1/2-y,1/2-x,1/2+z
y,x,1/2+z
loop_
_atom_site_type_symbol
_atom_site_label
_atom_site_fract_x
_atom_site_fract_y
_atom_site_fract_z
Si Si1 0.978120 0.562133 0.681383
Si Si2 0.161738 0.661738 0.250000
Si Si3 0.341203 0.490310 0.966787
Si Si4 0.603069 0.055869 0.876730
Si Si5 0.162496 0.088571 0.210936
Si Si6 0.159709 0.165590 0.047414
O O1 0.012143 0.626115 0.621172
O O2 0.963051 0.486631 0.628460
O O3 0.898906 0.596971 0.717176
O O4 0.041208 0.541208 0.750000
O O5 0.143745 0.750000 0.264252
O O6 0.116810 0.636601 0.168448
O O7 0.250000 0.492953 0.963747
O O8 0.371238 0.554939 0.029841
O O9 0.372954 0.405187 0.993503
O O10 0.655788 0.995550 0.828029
O O11 0.250000 0.100120 0.243370
O O12 0.142362 0.151134 0.142029
O O13 0.250000 0.167415 0.032893
O O14 0.124567 0.250000 0.023762
#
# Coordination Sequence:
#
# PCOD8318437 Si02
#       6
#    16   8  16  16  16  16
#     4  10  20  32  49  73  96 133 173 211 244 303
#     4  11  20  30  52  82 104 124 158 208 263 314
#     4  10  20  33  51  71  97 132 171 212 255 297
#     4  10  18  33  51  70  99 132 160 199 251 314
#     4   9  16  28  47  69  97 133 165 195 241 292
#     4   8  15  28  45  67  97 132 165 198 239 286
#
# _framework density 17.627199999999998
#
# number of rings (size 3 to 8) (size 9 to 14) (size 15 to 20)
#    0.000    2.455    2.727    3.273    0.000    1.455 
#    0.000    0.000    0.000    1.091    0.000    0.000 
#    0.000    0.000    0.000    0.000    0.000    0.000 
#
# Total GULP energy -1090695.774567 kJ/mol
# GULP energy per Si atom -12394.270166 kJ/mol
# Density = 1.758708 g / cm^3
# Si number density = 17.627200 Si / 1000 Ang^3
#
#
#
# Elastic Constant Matrix: (Units=GPa)
#
#
# Indices 1 2 3 4 5 6 
#
# 1 37.0812 12.3213 28.9299 0.0000 0.0000 0.0000
# 2 12.3213 37.0812 28.9299 0.0000 0.0000 0.0000
# 3 28.9299 28.9299 113.5365 0.0000 0.0000 0.0000
# 4 0.0000 0.0000 0.0000 21.9369 0.0000 0.0000
# 5 0.0000 0.0000 0.0000 0.0000 21.9369 0.0000
# 6 0.0000 0.0000 0.0000 0.0000 0.0000 15.8544
#
#
#
# Elastic Compliance Matrix: (Units=1/GPa)
#
#
# Indices 1 2 3 4 5 6 
#
# 1 0.034620 -0.005768 -0.007352 0.000000 0.000000 0.000000
# 2 -0.005768 0.034620 -0.007352 0.000000 0.000000 0.000000
# 3 -0.007352 -0.007352 0.012554 0.000000 0.000000 0.000000
# 4 0.000000 0.000000 0.000000 0.045585 0.000000 0.000000
# 5 0.000000 0.000000 0.000000 0.000000 0.045585 0.000000
# 6 0.000000 0.000000 0.000000 0.000000 0.000000 0.063074
#
#
# Mechanical properties :
#
#
# Convention : Reuss Voigt Hill
#
# Bulk Modulus (GPa) = 24.47882 36.45125 30.46504
# Shear Modulus (GPa) = 17.20584 19.78014 18.49299
#
# Velocity S-wave (km/s) = 3.12764 3.35347 3.24252
# Velocity P-wave (km/s) = 5.19230 5.97647 5.59813
#
# Compressibility (1/GPa) = 0.04085163
#
# Stress axis : x y z
#
# Youngs Moduli (GPa) = 28.88502 28.88502 79.65404
#
# Poissons Ratio (x) = 0.16661 0.58560
# Poissons Ratio (y) = 0.16661 0.58560
# Poissons Ratio (z) = 0.21235 0.21235
#
# Static dielectric constant tensor:
#      x y z
#    x 3.254580 0.000000 0.000000 
#    y 0.000000 3.254580 0.000000 
#    z 0.000000 0.000000 3.237570 
# 
# 
# High freq. dielectric constant tensor:
#      x y z
#    x 1.661800 0.000000 0.000000 
#    y 0.000000 1.661800 0.000000 
#    z 0.000000 0.000000 1.671300 
# 
# From -- ./inp_files/5082.got.cif
#   From: 2010.03.12/outbox.cif.g09.slc.cpg/sg137_3_cif.got.tgz:5082.got - 2010.04.08 09:34:49.
