data_PCOD8318387
_publ_section_title
;
Structure prediction by ZEFSAII (Michael W. Deem and Ramdas Pophale) SiO2 
 PCOD8318387
Probable space group: P 42/N M C
;
_chemical_formula_sum "Si O2"
_cell_formula_units_Z 96
_cell_length_a 14.291325
_cell_length_b 14.291325
_cell_length_c 29.888166
_cell_angle_alpha 90.000000
_cell_angle_beta 90.000000
_cell_angle_gamma 90.000000
_cell_volume 6104.417911
_symmetry_space_group_name_H-M "P 42/N M C"
_symmetry_group_IT_number 137
_space_group.IT_coordinate_system_code '2'
_symmetry_cell_setting 'tetragonal'
loop_
_space_group_symop_operation_xyz
x,y,z
1/2-y,x,1/2+z
1/2-x,1/2-y,z
y,1/2-x,1/2+z
1/2+x,-y,-z
-x,1/2+y,-z
1/2+y,1/2+x,1/2-z
-y,-x,1/2-z
-x,-y,-z
1/2+y,-x,1/2-z
1/2+x,1/2+y,-z
-y,1/2+x,1/2-z
1/2-x,y,z
x,1/2-y,z
1/2-y,1/2-x,1/2+z
y,x,1/2+z
loop_
_atom_site_type_symbol
_atom_site_label
_atom_site_fract_x
_atom_site_fract_y
_atom_site_fract_z
Si Si1 0.361750 0.353123 0.201073
Si Si2 0.513543 0.637892 0.480394
Si Si3 0.492250 0.141125 0.966111
Si Si4 0.963088 0.856470 0.381751
Si Si5 0.357720 0.501804 0.270132
Si Si6 0.853923 0.048366 0.631957
O O1 0.250000 0.350600 0.198684
O O2 0.404372 0.250000 0.205131
O O3 0.406335 0.399565 0.156026
O O4 0.395318 0.409619 0.244828
O O5 0.498414 0.750000 0.485270
O O6 0.413123 0.584756 0.485008
O O7 0.589312 0.601094 0.516075
O O8 0.556496 0.608205 0.432044
O O9 0.496296 0.250000 0.981642
O O10 0.484279 0.135197 0.912170
O O11 0.935631 0.750000 0.379648
O O12 0.072533 0.867338 0.369880
O O13 0.408356 0.591644 0.250000
O O14 0.250000 0.518391 0.258515
O O15 0.373229 0.487488 0.323347
O O16 0.750000 0.092833 0.633618
#
# Coordination Sequence:
#
# PCOD8318387 Si02
#       6
#    16  16  16  16  16  16
#     4   9  17  28  40  57  85 117 148 182 217 255
#     4   9  18  31  48  69  93 121 156 195 234 279
#     4   9  18  32  47  67  95 124 156 194 234 278
#     4   9  16  27  43  64  88 116 148 183 224 269
#     4  10  18  28  43  64  90 120 149 179 215 260
#     4   9  17  28  43  63  90 121 148 179 222 271
#
# _framework density 15.726315
#
# number of rings (size 3 to 8) (size 9 to 14) (size 15 to 20)
#    0.000    2.833    1.667    0.000    0.000    1.833 
#    0.000    7.500    0.000    3.000    0.000    0.000 
#    0.000    0.333    0.000    0.000    0.000    0.000 
#
# Total GULP energy -1189342.267098 kJ/mol
# GULP energy per Si atom -12388.981949 kJ/mol
# Density = 1.569052 g / cm^3
# Si number density = 15.726315 Si / 1000 Ang^3
#
#
#
# Elastic Constant Matrix: (Units=GPa)
#
#
# Indices 1 2 3 4 5 6 
#
# 1 74.7636 29.8081 35.9712 0.0000 0.0000 0.0000
# 2 29.8081 74.7603 35.9708 0.0000 0.0000 0.0000
# 3 35.9712 35.9708 91.3540 0.0000 0.0000 0.0000
# 4 0.0000 0.0000 0.0000 18.6397 0.0000 0.0000
# 5 0.0000 0.0000 0.0000 0.0000 18.6400 0.0000
# 6 0.0000 0.0000 0.0000 0.0000 0.0000 14.9584
#
#
#
# Elastic Compliance Matrix: (Units=1/GPa)
#
#
# Indices 1 2 3 4 5 6 
#
# 1 0.017680 -0.004565 -0.005164 0.000000 0.000000 0.000000
# 2 -0.004565 0.017681 -0.005165 0.000000 0.000000 0.000000
# 3 -0.005164 -0.005165 0.015014 0.000000 0.000000 0.000000
# 4 0.000000 0.000000 0.000000 0.053649 0.000000 0.000000
# 5 0.000000 0.000000 0.000000 0.000000 0.053648 0.000000
# 6 0.000000 0.000000 0.000000 0.000000 0.000000 0.066852
#
#
# Mechanical properties :
#
#
# Convention : Reuss Voigt Hill
#
# Bulk Modulus (GPa) = 48.57292 49.37534 48.97413
# Shear Modulus (GPa) = 19.14438 19.72280 19.43359
#
# Velocity S-wave (km/s) = 3.49284 3.54521 3.51912
# Velocity P-wave (km/s) = 6.87168 6.94426 6.90807
#
# Compressibility (1/GPa) = 0.02058760
#
# Stress axis : x y z
#
# Youngs Moduli (GPa) = 56.56077 56.55800 66.60668
#
# Poissons Ratio (x) = 0.25816 0.34398
# Poissons Ratio (y) = 0.25817 0.34400
# Poissons Ratio (z) = 0.29210 0.29210
#
# Static dielectric constant tensor:
#      x y z
#    x 2.903980 0.000000 0.000000 
#    y 0.000000 2.903990 0.000000 
#    z 0.000000 0.000000 3.364000 
# 
# 
# High freq. dielectric constant tensor:
#      x y z
#    x 1.577190 0.000000 0.000000 
#    y 0.000000 1.577190 0.000000 
#    z 0.000000 0.000000 1.618770 
# 
# From -- ./inp_files/10586.got.cif
#   From: 2010.03.12/outbox.cif.g09.slc.cpg/sg137_6_cif.got.tgz:10586.got - 2010.04.08 09:34:49.
