data_PCOD8318811
_publ_section_title
;
Structure prediction by ZEFSAII (Michael W. Deem and Ramdas Pophale) SiO2 
 PCOD8318811
Probable space group: P 42/N M C
;
_chemical_formula_sum "Si O2"
_cell_formula_units_Z 48
_cell_length_a 18.051875
_cell_length_b 18.051875
_cell_length_c 7.201774
_cell_angle_alpha 90.000000
_cell_angle_beta 90.000000
_cell_angle_gamma 90.000000
_cell_volume 2346.843469
_symmetry_space_group_name_H-M "P 42/N M C"
_symmetry_group_IT_number 137
_space_group.IT_coordinate_system_code '2'
_symmetry_cell_setting 'tetragonal'
loop_
_space_group_symop_operation_xyz
x,y,z
1/2-y,x,1/2+z
1/2-x,1/2-y,z
y,1/2-x,1/2+z
1/2+x,-y,-z
-x,1/2+y,-z
1/2+y,1/2+x,1/2-z
-y,-x,1/2-z
-x,-y,-z
1/2+y,-x,1/2-z
1/2+x,1/2+y,-z
-y,1/2+x,1/2-z
1/2-x,y,z
x,1/2-y,z
1/2-y,1/2-x,1/2+z
y,x,1/2+z
loop_
_atom_site_type_symbol
_atom_site_label
_atom_site_fract_x
_atom_site_fract_y
_atom_site_fract_z
Si Si1 0.168863 0.568923 0.136033
Si Si2 0.946611 0.668340 0.055910
Si Si3 0.902943 0.513892 0.189711
O O1 0.137420 0.637420 0.250000
O O2 0.250000 0.591190 0.064639
O O3 0.173465 0.500438 0.272668
O O4 0.120314 0.547893 0.958085
O O5 0.905956 0.750000 0.041514
O O6 0.896020 0.596100 0.098540
O O7 0.988520 0.653237 0.862400
O O8 0.987228 0.487228 0.250000
#
# Coordination Sequence:
#
# PCOD8318811 Si02
#       3
#    16  16  16
#     4  11  23  40  63  93 126 165 206 257 317 373
#     4  11  23  37  61  93 123 156 205 264 314 363
#     4  12  21  39  67  92 122 164 218 263 304 377
#
# _framework density 20.453005999999998
#
# number of rings (size 3 to 8) (size 9 to 14) (size 15 to 20)
#    0.000    0.667    6.667    3.000    0.000    0.333 
#    0.000    0.000    0.000    8.000    0.000    0.000 
#    0.000    0.000    0.000    0.000    0.000    0.000 
#
# Total GULP energy -594669.395229 kJ/mol
# GULP energy per Si atom -12388.945734 kJ/mol
# Density = 2.040645 g / cm^3
# Si number density = 20.453006 Si / 1000 Ang^3
#
#
#
# Elastic Constant Matrix: (Units=GPa)
#
#
# Indices 1 2 3 4 5 6 
#
# 1 100.0355 30.1404 25.8241 0.0000 0.0000 0.0000
# 2 30.1404 100.0355 25.8241 0.0000 0.0000 0.0000
# 3 25.8241 25.8241 114.7742 0.0000 0.0000 0.0000
# 4 0.0000 0.0000 0.0000 35.8107 0.0000 0.0000
# 5 0.0000 0.0000 0.0000 0.0000 35.8107 0.0000
# 6 0.0000 0.0000 0.0000 0.0000 0.0000 15.7484
#
#
#
# Elastic Compliance Matrix: (Units=1/GPa)
#
#
# Indices 1 2 3 4 5 6 
#
# 1 0.011371 -0.002936 -0.001898 0.000000 0.000000 0.000000
# 2 -0.002936 0.011371 -0.001898 0.000000 0.000000 0.000000
# 3 -0.001898 -0.001898 0.009567 0.000000 0.000000 0.000000
# 4 0.000000 0.000000 0.000000 0.027925 0.000000 0.000000
# 5 0.000000 0.000000 0.000000 0.000000 0.027925 0.000000
# 6 0.000000 0.000000 0.000000 0.000000 0.000000 0.063499
#
#
# Mechanical properties :
#
#
# Convention : Reuss Voigt Hill
#
# Bulk Modulus (GPa) = 53.06390 53.15803 53.11096
# Shear Modulus (GPa) = 29.17117 33.01105 31.09111
#
# Velocity S-wave (km/s) = 3.78067 4.02181 3.90311
# Velocity P-wave (km/s) = 6.71257 6.90025 6.80706
#
# Compressibility (1/GPa) = 0.01884521
#
# Stress axis : x y z
#
# Youngs Moduli (GPa) = 87.94278 87.94278 104.52836
#
# Poissons Ratio (x) = 0.25821 0.19838
# Poissons Ratio (y) = 0.25821 0.19838
# Poissons Ratio (z) = 0.16690 0.16690
#
# Static dielectric constant tensor:
#      x y z
#    x 4.202460 0.000000 0.000000 
#    y 0.000000 4.202460 0.000000 
#    z 0.000000 0.000000 4.031520 
# 
# 
# High freq. dielectric constant tensor:
#      x y z
#    x 1.775010 0.000000 0.000000 
#    y 0.000000 1.775010 0.000000 
#    z 0.000000 0.000000 1.827780 
# 
# From -- ./inp_files/287.got.cif
#   From: 2010.03.12/outbox.cif.g09.slc.cpg/sg137_1_cif.got.tgz:287.got - 2010.04.08 09:34:49.
