data_PCOD8318012
_publ_section_title
;
Structure prediction by ZEFSAII (Michael W. Deem and Ramdas Pophale) SiO2 
 PCOD8318012
Probable space group: P 42/M N M
;
_chemical_formula_sum "Si O2"
_cell_formula_units_Z 96
_cell_length_a 24.189974
_cell_length_b 24.189974
_cell_length_c 8.901043
_cell_angle_alpha 90.000000
_cell_angle_beta 90.000000
_cell_angle_gamma 90.000000
_cell_volume 5208.488411
_symmetry_space_group_name_H-M "P 42/M N M"
_symmetry_group_IT_number 136
_symmetry_cell_setting 'tetragonal'
loop_
_space_group_symop_operation_xyz
x,y,z
1/2-y,1/2+x,1/2+z
-x,-y,z
1/2+y,1/2-x,1/2+z
1/2+x,1/2-y,1/2-z
1/2-x,1/2+y,1/2-z
y,x,-z
-y,-x,-z
-x,-y,-z
1/2+y,1/2-x,1/2-z
x,y,-z
1/2-y,1/2+x,1/2-z
1/2-x,1/2+y,1/2+z
1/2+x,1/2-y,1/2+z
-y,-x,z
y,x,z
loop_
_atom_site_type_symbol
_atom_site_label
_atom_site_fract_x
_atom_site_fract_y
_atom_site_fract_z
Si Si1 0.939648 0.851447 0.177575
Si Si2 0.055416 0.726803 0.175875
Si Si3 0.063608 0.544383 0.328163
Si Si4 0.941417 0.736379 0.327917
Si Si5 0.563279 0.649658 0.677369
Si Si6 0.626937 0.132896 0.170023
O O1 0.897929 0.897929 0.239165
O O2 0.924038 0.792800 0.248151
O O3 0.001670 0.869310 0.224538
O O4 0.934913 0.844892 0.000000
O O5 0.073420 0.787601 0.233297
O O6 0.108703 0.687643 0.209958
O O7 0.997446 0.709263 0.255458
O O8 0.041530 0.727546 0.000000
O O9 0.074037 0.493200 0.217835
O O10 0.062492 0.524717 0.500000
O O11 0.111286 0.587423 0.300181
O O12 0.956297 0.748076 0.500000
O O13 0.885566 0.698360 0.317413
O O14 0.569827 0.647299 0.500000
O O15 0.608229 0.608229 0.752060
O O16 0.611975 0.113026 0.000000
#
# Coordination Sequence:
#
# PCOD8318012 Si02
#       6
#    16  16  16  16  16  16
#     4   9  18  33  53  76 102 133 167 203 248 303
#     4   9  18  33  51  71  98 131 165 205 252 299
#     4  11  21  32  46  65  91 123 160 207 260 306
#     4  10  20  33  50  73 101 133 169 209 252 297
#     4   8  14  27  50  78 102 124 156 200 247 293
#     4  10  20  33  48  69  96 128 169 210 248 296
#
# _framework density 18.431452
#
# number of rings (size 3 to 8) (size 9 to 14) (size 15 to 20)
#    0.000    2.500    0.000    4.500    0.000    5.333 
#    0.000    2.500    0.000   11.000    0.000    4.667 
#    0.000    0.000    0.000    0.000    0.000    0.000 
#
# Total GULP energy -1189317.642396 kJ/mol
# GULP energy per Si atom -12388.725442 kJ/mol
# Density = 1.838950 g / cm^3
# Si number density = 18.431452 Si / 1000 Ang^3
#
#
#
# Elastic Constant Matrix: (Units=GPa)
#
#
# Indices 1 2 3 4 5 6 
#
# 1 113.0486 64.9207 16.8360 0.0000 0.0000 0.0000
# 2 64.9207 113.0486 16.8360 0.0000 0.0000 0.0000
# 3 16.8360 16.8360 44.5208 0.0000 0.0000 0.0000
# 4 0.0000 0.0000 0.0000 20.6768 0.0000 0.0000
# 5 0.0000 0.0000 0.0000 0.0000 20.6768 0.0000
# 6 0.0000 0.0000 0.0000 0.0000 0.0000 40.3269
#
#
#
# Elastic Compliance Matrix: (Units=1/GPa)
#
#
# Indices 1 2 3 4 5 6 
#
# 1 0.013415 -0.007363 -0.002289 0.000000 0.000000 0.000000
# 2 -0.007363 0.013415 -0.002289 0.000000 0.000000 0.000000
# 3 -0.002289 -0.002289 0.024192 0.000000 0.000000 0.000000
# 4 0.000000 0.000000 0.000000 0.048363 0.000000 0.000000
# 5 0.000000 0.000000 0.000000 0.000000 0.048363 0.000000
# 6 0.000000 0.000000 0.000000 0.000000 0.000000 0.024797
#
#
# Mechanical properties :
#
#
# Convention : Reuss Voigt Hill
#
# Bulk Modulus (GPa) = 36.84356 51.97815 44.41085
# Shear Modulus (GPa) = 24.33398 27.80445 26.06922
#
# Velocity S-wave (km/s) = 3.63746 3.88820 3.76491
# Velocity P-wave (km/s) = 6.13794 6.95841 6.56101
#
# Compressibility (1/GPa) = 0.02714179
#
# Stress axis : x y z
#
# Youngs Moduli (GPa) = 74.54360 74.54360 41.33544
#
# Poissons Ratio (x) = 0.54887 0.09460
# Poissons Ratio (y) = 0.54887 0.09460
# Poissons Ratio (z) = 0.17060 0.17060
#
# Static dielectric constant tensor:
#      x y z
#    x 3.530150 0.000000 0.000000 
#    y 0.000000 3.530150 0.000000 
#    z 0.000000 0.000000 3.587370 
# 
# 
# High freq. dielectric constant tensor:
#      x y z
#    x 1.705400 0.000000 0.000000 
#    y 0.000000 1.705400 0.000000 
#    z 0.000000 0.000000 1.697330 
# 
# From -- ./inp_files/1979.got.cif
#   From: 2010.03.12/outbox.cif.g09.slc.cpg/sg136_1_cif.got.tgz:1979.got - 2010.04.06 18:39:43.
