data_PCOD8318272
_publ_section_title
;
Structure prediction by ZEFSAII (Michael W. Deem and Ramdas Pophale) SiO2 
 PCOD8318272
Probable space group: P 42/M N M
;
_chemical_formula_sum "Si O2"
_cell_formula_units_Z 56
_cell_length_a 12.437656
_cell_length_b 12.437656
_cell_length_c 18.357786
_cell_angle_alpha 90.000000
_cell_angle_beta 90.000000
_cell_angle_gamma 90.000000
_cell_volume 2839.862970
_symmetry_space_group_name_H-M "P 42/M N M"
_symmetry_group_IT_number 136
_symmetry_cell_setting 'tetragonal'
loop_
_space_group_symop_operation_xyz
x,y,z
1/2-y,1/2+x,1/2+z
-x,-y,z
1/2+y,1/2-x,1/2+z
1/2+x,1/2-y,1/2-z
1/2-x,1/2+y,1/2-z
y,x,-z
-y,-x,-z
-x,-y,-z
1/2+y,1/2-x,1/2-z
x,y,-z
1/2-y,1/2+x,1/2-z
1/2-x,1/2+y,1/2+z
1/2+x,1/2-y,1/2+z
-y,-x,z
y,x,z
loop_
_atom_site_type_symbol
_atom_site_label
_atom_site_fract_x
_atom_site_fract_y
_atom_site_fract_z
Si Si1 0.886161 0.442062 0.419198
Si Si2 0.218812 0.393982 0.322546
Si Si3 0.220136 0.498606 0.824224
Si Si4 0.088948 0.088948 0.418917
O O1 0.849476 0.405151 0.500000
O O2 0.792670 0.520197 0.387989
O O3 0.000000 0.500000 0.424923
O O4 0.902028 0.340431 0.366290
O O5 0.296892 0.296892 0.347528
O O6 0.098597 0.355453 0.302855
O O7 0.267528 0.450187 0.250500
O O8 0.311507 0.540952 0.876597
O O9 0.125922 0.125922 0.500000
O O10 0.000000 0.000000 0.426422
#
# Coordination Sequence:
#
# PCOD8318272 Si02
#       4
#    16  16  16   8
#     4   9  19  33  54  83 117 154 193 244 302 357
#     4  11  21  35  59  86 117 159 202 252 303 359
#     4  11  20  38  59  85 121 160 205 250 301 368
#     4  11  24  40  60  90 129 164 201 258 319 372
#
# _framework density 19.719263000000002
#
# number of rings (size 3 to 8) (size 9 to 14) (size 15 to 20)
#    0.000    1.571    4.286    1.714    0.000    1.714 
#    0.000    0.000    0.000    0.000    0.000    0.000 
#    0.000    5.714    0.000    0.000    0.000    0.000 
#
# Total GULP energy -694356.389354 kJ/mol
# GULP energy per Si atom -12399.221238 kJ/mol
# Density = 1.967438 g / cm^3
# Si number density = 19.719263 Si / 1000 Ang^3
#
#
#
# Elastic Constant Matrix: (Units=GPa)
#
#
# Indices 1 2 3 4 5 6 
#
# 1 60.6814 45.0992 41.4352 0.0000 0.0000 0.0000
# 2 45.0992 60.6814 41.4352 0.0000 0.0000 0.0000
# 3 41.4352 41.4352 151.1330 0.0000 0.0000 0.0000
# 4 0.0000 0.0000 0.0000 23.0599 0.0000 0.0000
# 5 0.0000 0.0000 0.0000 0.0000 23.0599 0.0000
# 6 0.0000 0.0000 0.0000 0.0000 0.0000 38.6026
#
#
#
# Elastic Compliance Matrix: (Units=1/GPa)
#
#
# Indices 1 2 3 4 5 6 
#
# 1 0.038108 -0.026068 -0.003301 0.000000 0.000000 0.000000
# 2 -0.026068 0.038108 -0.003301 0.000000 0.000000 0.000000
# 3 -0.003301 -0.003301 0.008427 0.000000 0.000000 0.000000
# 4 0.000000 0.000000 0.000000 0.043365 0.000000 0.000000
# 5 0.000000 0.000000 0.000000 0.000000 0.043365 0.000000
# 6 0.000000 0.000000 0.000000 0.000000 0.000000 0.025905
#
#
# Mechanical properties :
#
#
# Convention : Reuss Voigt Hill
#
# Bulk Modulus (GPa) = 51.80720 58.71499 55.26109
# Shear Modulus (GPa) = 18.58380 26.57954 22.58167
#
# Velocity S-wave (km/s) = 3.07321 3.67535 3.38769
# Velocity P-wave (km/s) = 6.23877 6.91745 6.58686
#
# Compressibility (1/GPa) = 0.01930234
#
# Stress axis : x y z
#
# Youngs Moduli (GPa) = 26.24140 26.24140 118.67187
#
# Poissons Ratio (x) = 0.68407 0.39171
# Poissons Ratio (y) = 0.68407 0.39171
# Poissons Ratio (z) = 0.08662 0.08662
#
# Static dielectric constant tensor:
#      x y z
#    x 3.444850 0.000000 0.000000 
#    y 0.000000 3.444850 0.000000 
#    z 0.000000 0.000000 3.857050 
# 
# 
# High freq. dielectric constant tensor:
#      x y z
#    x 1.747720 0.000000 0.000000 
#    y 0.000000 1.747720 0.000000 
#    z 0.000000 0.000000 1.783160 
# 
# From -- ./inp_files/6918.got.cif
#   From: 2010.03.12/outbox.cif.g09.slc.cpg/sg136_4_cif.got.tgz:6918.got - 2010.04.06 18:39:43.
