data_PCOD8318438
_publ_section_title
;
Structure prediction by ZEFSAII (Michael W. Deem and Ramdas Pophale) SiO2 
 PCOD8318438
Probable space group: P 42/N M C
;
_chemical_formula_sum "Si O2"
_cell_formula_units_Z 112
_cell_length_a 18.395071
_cell_length_b 18.395071
_cell_length_c 18.826399
_cell_angle_alpha 90.000000
_cell_angle_beta 90.000000
_cell_angle_gamma 90.000000
_cell_volume 6370.451235
_symmetry_space_group_name_H-M "P 42/N M C"
_symmetry_group_IT_number 137
_space_group.IT_coordinate_system_code '2'
_symmetry_cell_setting 'tetragonal'
loop_
_space_group_symop_operation_xyz
x,y,z
1/2-y,x,1/2+z
1/2-x,1/2-y,z
y,1/2-x,1/2+z
1/2+x,-y,-z
-x,1/2+y,-z
1/2+y,1/2+x,1/2-z
-y,-x,1/2-z
-x,-y,-z
1/2+y,-x,1/2-z
1/2+x,1/2+y,-z
-y,1/2+x,1/2-z
1/2-x,y,z
x,1/2-y,z
1/2-y,1/2-x,1/2+z
y,x,1/2+z
loop_
_atom_site_type_symbol
_atom_site_label
_atom_site_fract_x
_atom_site_fract_y
_atom_site_fract_z
Si Si1 0.525432 0.099745 0.164169
Si Si2 0.168415 0.524949 0.806545
Si Si3 0.425152 0.331444 0.441162
Si Si4 0.670276 0.426955 0.471420
Si Si5 0.944623 0.449355 0.669699
Si Si6 0.040507 0.169885 0.904918
Si Si7 0.055614 0.664817 0.455284
O O1 0.611933 0.088686 0.175521
O O2 0.493011 0.148270 0.228372
O O3 0.519342 0.140531 0.089709
O O4 0.483200 0.024137 0.162152
O O5 0.250000 0.557254 0.806047
O O6 0.162249 0.461598 0.864127
O O7 0.395707 0.250000 0.453319
O O8 0.357706 0.386210 0.443123
O O9 0.480258 0.352202 0.504654
O O10 0.750000 0.396609 0.450618
O O11 0.676258 0.476763 0.539319
O O12 0.618489 0.358959 0.489619
O O13 0.926079 0.426079 0.750000
O O14 0.886986 0.513043 0.653665
O O15 0.939326 0.379632 0.618214
O O16 0.055206 0.250000 0.871600
O O17 0.064477 0.750000 0.438152
#
# Coordination Sequence:
#
# PCOD8318438 Si02
#       7
#    16  16  16  16  16  16  16
#     4  11  18  32  53  75 105 138 172 211 247 301
#     4  10  19  30  49  77 106 134 167 203 247 299
#     4  10  18  33  53  74 102 138 172 210 259 312
#     4  10  20  32  51  75 104 138 171 209 256 307
#     4  11  20  35  55  76 100 134 177 220 271 305
#     4  10  20  34  50  76 105 131 170 220 264 312
#     4  10  21  35  53  75 101 133 176 219 257 310
#
# _framework density 17.581171000000001
#
# number of rings (size 3 to 8) (size 9 to 14) (size 15 to 20)
#    0.000    1.714    4.286    1.286    0.000    3.429 
#    0.000    0.000    0.000    6.857    0.000    2.000 
#    0.000    5.143    0.000    0.000    0.000    0.000 
#
# Total GULP energy -1388308.694463 kJ/mol
# GULP energy per Si atom -12395.613343 kJ/mol
# Density = 1.754116 g / cm^3
# Si number density = 17.581171 Si / 1000 Ang^3
#
#
#
# Elastic Constant Matrix: (Units=GPa)
#
#
# Indices 1 2 3 4 5 6 
#
# 1 85.4628 34.4857 21.5737 0.0000 0.0000 0.0000
# 2 34.4857 85.4628 21.5737 0.0000 0.0000 0.0000
# 3 21.5737 21.5737 93.1199 0.0000 0.0000 0.0000
# 4 0.0000 0.0000 0.0000 20.6956 0.0000 0.0000
# 5 0.0000 0.0000 0.0000 0.0000 20.6956 0.0000
# 6 0.0000 0.0000 0.0000 0.0000 0.0000 15.8193
#
#
#
# Elastic Compliance Matrix: (Units=1/GPa)
#
#
# Indices 1 2 3 4 5 6 
#
# 1 0.014356 -0.005261 -0.002107 0.000000 0.000000 0.000000
# 2 -0.005261 0.014356 -0.002107 0.000000 0.000000 0.000000
# 3 -0.002107 -0.002107 0.011715 0.000000 0.000000 0.000000
# 4 0.000000 0.000000 0.000000 0.048319 0.000000 0.000000
# 5 0.000000 0.000000 0.000000 0.000000 0.048319 0.000000
# 6 0.000000 0.000000 0.000000 0.000000 0.000000 0.063214
#
#
# Mechanical properties :
#
#
# Convention : Reuss Voigt Hill
#
# Bulk Modulus (GPa) = 46.56228 46.59019 46.57624
# Shear Modulus (GPa) = 22.08594 23.86959 22.97776
#
# Velocity S-wave (km/s) = 3.54817 3.68867 3.61910
# Velocity P-wave (km/s) = 6.58238 6.68575 6.63427
#
# Compressibility (1/GPa) = 0.02147661
#
# Stress axis : x y z
#
# Youngs Moduli (GPa) = 69.65844 69.65844 85.35949
#
# Poissons Ratio (x) = 0.36647 0.17986
# Poissons Ratio (y) = 0.36647 0.17986
# Poissons Ratio (z) = 0.14678 0.14678
#
# Static dielectric constant tensor:
#      x y z
#    x 3.384950 0.000000 0.000000 
#    y 0.000000 3.384950 0.000000 
#    z 0.000000 0.000000 3.425760 
# 
# 
# High freq. dielectric constant tensor:
#      x y z
#    x 1.669420 0.000000 0.000000 
#    y 0.000000 1.669420 0.000000 
#    z 0.000000 0.000000 1.684800 
# 
# From -- ./inp_files/8104.got.cif
#   From: 2010.03.12/outbox.cif.g09.slc.cpg/sg137_5_cif.got.tgz:8104.got - 2010.04.08 09:34:49.
