data_PCOD8318263
_publ_section_title
;
Structure prediction by ZEFSAII (Michael W. Deem and Ramdas Pophale) SiO2 
 PCOD8318263
Probable space group: P 42/M N M
;
_chemical_formula_sum "Si O2"
_cell_formula_units_Z 96
_cell_length_a 15.737562
_cell_length_b 15.737562
_cell_length_c 22.350523
_cell_angle_alpha 90.000000
_cell_angle_beta 90.000000
_cell_angle_gamma 90.000000
_cell_volume 5535.573202
_symmetry_space_group_name_H-M "P 42/M N M"
_symmetry_group_IT_number 136
_symmetry_cell_setting 'tetragonal'
loop_
_space_group_symop_operation_xyz
x,y,z
1/2-y,1/2+x,1/2+z
-x,-y,z
1/2+y,1/2-x,1/2+z
1/2+x,1/2-y,1/2-z
1/2-x,1/2+y,1/2-z
y,x,-z
-y,-x,-z
-x,-y,-z
1/2+y,1/2-x,1/2-z
x,y,-z
1/2-y,1/2+x,1/2-z
1/2-x,1/2+y,1/2+z
1/2+x,1/2-y,1/2+z
-y,-x,z
y,x,z
loop_
_atom_site_type_symbol
_atom_site_label
_atom_site_fract_x
_atom_site_fract_y
_atom_site_fract_z
Si Si1 0.374344 0.058192 0.068420
Si Si2 0.559814 0.120348 0.233509
Si Si3 0.135515 0.998986 0.113509
Si Si4 0.568126 0.703627 0.500000
Si Si5 0.620980 0.942715 0.403395
Si Si6 0.755315 0.382667 0.329927
Si Si7 0.289917 0.154427 0.500000
O O1 0.466066 0.102359 0.068356
O O2 0.314580 0.113409 0.111476
O O3 0.383143 0.962011 0.092026
O O4 0.338752 0.055231 0.000000
O O5 0.468270 0.110240 0.264370
O O6 0.549609 0.149534 0.165267
O O7 0.611930 0.191491 0.269019
O O8 0.089577 0.910424 0.132957
O O9 0.187403 0.039215 0.168897
O O10 0.205920 0.987179 0.060848
O O11 0.065281 0.065281 0.090157
O O12 0.610036 0.610036 0.500000
O O13 0.637911 0.775091 0.500000
O O14 0.698794 0.901903 0.440377
O O15 0.707513 0.292488 0.330596
O O16 0.196706 0.196706 0.500000
#
# Coordination Sequence:
#
# PCOD8318263 Si02
#       7
#    16  16  16   8  16  16   8
#     4  11  19  34  58  81 106 140 179 221 270 331
#     4  11  20  37  59  77 101 144 184 220 264 322
#     4   9  18  32  48  68 102 147 181 205 247 314
#     4   9  17  28  44  70 105 138 170 206 251 305
#     4  11  19  34  58  79 101 143 182 217 267 329
#     4  11  23  35  52  83 113 139 183 231 268 317
#     4  11  22  32  47  81 112 130 168 221 271 322
#
# _framework density 17.342376999999999
#
# number of rings (size 3 to 8) (size 9 to 14) (size 15 to 20)
#    0.000    1.500    5.000    2.750    1.167    2.000 
#    0.000    0.833    0.000    0.000    0.000    0.000 
#    0.000    1.333    0.000    0.000    0.000    0.000 
#
# Total GULP energy -1190406.425745 kJ/mol
# GULP energy per Si atom -12400.066935 kJ/mol
# Density = 1.730291 g / cm^3
# Si number density = 17.342377 Si / 1000 Ang^3
#
#
#
# Elastic Constant Matrix: (Units=GPa)
#
#
# Indices 1 2 3 4 5 6 
#
# 1 55.1804 26.2303 16.7667 0.0000 0.0000 0.0000
# 2 26.2303 55.1804 16.7667 0.0000 0.0000 0.0000
# 3 16.7667 16.7667 101.0473 0.0000 0.0000 0.0000
# 4 0.0000 0.0000 0.0000 21.3958 0.0000 0.0000
# 5 0.0000 0.0000 0.0000 0.0000 21.3958 0.0000
# 6 0.0000 0.0000 0.0000 0.0000 0.0000 29.1949
#
#
#
# Elastic Compliance Matrix: (Units=1/GPa)
#
#
# Indices 1 2 3 4 5 6 
#
# 1 0.023863 -0.010679 -0.002188 0.000000 0.000000 0.000000
# 2 -0.010679 0.023863 -0.002188 0.000000 0.000000 0.000000
# 3 -0.002188 -0.002188 0.010622 0.000000 0.000000 0.000000
# 4 0.000000 0.000000 0.000000 0.046738 0.000000 0.000000
# 5 0.000000 0.000000 0.000000 0.000000 0.046738 0.000000
# 6 0.000000 0.000000 0.000000 0.000000 0.000000 0.034253
#
#
# Mechanical properties :
#
#
# Convention : Reuss Voigt Hill
#
# Bulk Modulus (GPa) = 35.41002 36.77063 36.09032
# Shear Modulus (GPa) = 22.16313 24.50694 23.33504
#
# Velocity S-wave (km/s) = 3.57876 3.76323 3.67215
# Velocity P-wave (km/s) = 6.12692 6.33493 6.23180
#
# Compressibility (1/GPa) = 0.02824059
#
# Stress axis : x y z
#
# Youngs Moduli (GPa) = 41.90523 41.90523 94.14103
#
# Poissons Ratio (x) = 0.44750 0.20595
# Poissons Ratio (y) = 0.44750 0.20595
# Poissons Ratio (z) = 0.09168 0.09168
#
# Static dielectric constant tensor:
#      x y z
#    x 3.241130 0.000000 0.000000 
#    y 0.000000 3.241130 0.000000 
#    z 0.000000 0.000000 3.172730 
# 
# 
# High freq. dielectric constant tensor:
#      x y z
#    x 1.656800 0.000000 0.000000 
#    y 0.000000 1.656800 0.000000 
#    z 0.000000 0.000000 1.665430 
# 
# From -- ./inp_files/8419.got.cif
#   From: 2010.03.12/outbox.cif.g09.slc.cpg/sg136_5_cif.got.tgz:8419.got - 2010.04.06 18:39:43.
