data_PCOD8318223
_publ_section_title
;
Structure prediction by ZEFSAII (Michael W. Deem and Ramdas Pophale) SiO2 
 PCOD8318223
Probable space group: P 42/M N M
;
_chemical_formula_sum "Si O2"
_cell_formula_units_Z 72
_cell_length_a 19.952895
_cell_length_b 19.952895
_cell_length_c 8.652002
_cell_angle_alpha 90.000000
_cell_angle_beta 90.000000
_cell_angle_gamma 90.000000
_cell_volume 3444.517896
_symmetry_space_group_name_H-M "P 42/M N M"
_symmetry_group_IT_number 136
_symmetry_cell_setting 'tetragonal'
loop_
_space_group_symop_operation_xyz
x,y,z
1/2-y,1/2+x,1/2+z
-x,-y,z
1/2+y,1/2-x,1/2+z
1/2+x,1/2-y,1/2-z
1/2-x,1/2+y,1/2-z
y,x,-z
-y,-x,-z
-x,-y,-z
1/2+y,1/2-x,1/2-z
x,y,-z
1/2-y,1/2+x,1/2-z
1/2-x,1/2+y,1/2+z
1/2+x,1/2-y,1/2+z
-y,-x,z
y,x,z
loop_
_atom_site_type_symbol
_atom_site_label
_atom_site_fract_x
_atom_site_fract_y
_atom_site_fract_z
Si Si1 0.336917 0.336917 0.816788
Si Si2 0.052762 0.052762 0.818190
Si Si3 0.786938 0.403264 0.179699
Si Si4 0.228486 0.228486 0.815525
Si Si5 0.488029 0.319692 0.821294
Si Si6 0.920773 0.441083 0.679804
O O1 0.283002 0.283002 0.754002
O O2 0.411667 0.317474 0.756567
O O3 0.334923 0.334923 0.000000
O O4 0.033213 0.126456 0.765239
O O5 0.050818 0.050818 0.000000
O O6 0.000000 0.000000 0.746770
O O7 0.742660 0.344260 0.247896
O O8 0.751424 0.475455 0.204151
O O9 0.854969 0.400429 0.276684
O O10 0.801728 0.390940 0.000000
O O11 0.226522 0.226522 0.000000
O O12 0.486454 0.340001 0.000000
O O13 0.910443 0.518799 0.720944
O O14 0.937363 0.432047 0.500000
#
# Coordination Sequence:
#
# PCOD8318223 Si02
#       6
#     8   8  16   8  16  16
#     4   9  20  39  63  91 116 157 214 260 306 368
#     4  11  22  35  54  86 125 156 195 252 309 364
#     4  11  24  41  64  95 128 166 211 263 320 383
#     4  11  24  42  64  90 127 173 215 264 325 388
#     4  10  21  39  64  88 116 159 210 255 301 368
#     4  11  23  42  67  96 127 163 209 262 319 379
#
# _framework density 20.902778999999999
#
# number of rings (size 3 to 8) (size 9 to 14) (size 15 to 20)
#    0.000    1.444    1.111    4.667    3.111    4.889 
#    0.000    2.222    0.000    0.000    0.000    0.000 
#    0.000    0.000    0.000    0.000    0.000    0.000 
#
# Total GULP energy -893020.008809 kJ/mol
# GULP energy per Si atom -12403.055678 kJ/mol
# Density = 2.085520 g / cm^3
# Si number density = 20.902779 Si / 1000 Ang^3
#
#
#
# Elastic Constant Matrix: (Units=GPa)
#
#
# Indices 1 2 3 4 5 6 
#
# 1 78.2863 36.6682 15.2654 0.0000 0.0000 0.0000
# 2 36.6682 78.2863 15.2654 0.0000 0.0000 0.0000
# 3 15.2654 15.2654 69.7298 0.0000 0.0000 0.0000
# 4 0.0000 0.0000 0.0000 30.3135 0.0000 0.0000
# 5 0.0000 0.0000 0.0000 0.0000 30.3135 0.0000
# 6 0.0000 0.0000 0.0000 0.0000 0.0000 40.8358
#
#
#
# Elastic Compliance Matrix: (Units=1/GPa)
#
#
# Indices 1 2 3 4 5 6 
#
# 1 0.016632 -0.007396 -0.002022 0.000000 0.000000 0.000000
# 2 -0.007396 0.016632 -0.002022 0.000000 0.000000 0.000000
# 3 -0.002022 -0.002022 0.015226 0.000000 0.000000 0.000000
# 4 0.000000 0.000000 0.000000 0.032989 0.000000 0.000000
# 5 0.000000 0.000000 0.000000 0.000000 0.032989 0.000000
# 6 0.000000 0.000000 0.000000 0.000000 0.000000 0.024488
#
#
# Mechanical properties :
#
#
# Convention : Reuss Voigt Hill
#
# Bulk Modulus (GPa) = 39.04623 40.07781 39.56202
# Shear Modulus (GPa) = 29.34740 30.89945 30.12343
#
# Velocity S-wave (km/s) = 3.75106 3.84897 3.80033
# Velocity P-wave (km/s) = 6.12218 6.24242 6.18259
#
# Compressibility (1/GPa) = 0.02561067
#
# Stress axis : x y z
#
# Youngs Moduli (GPa) = 60.12479 60.12479 65.67547
#
# Poissons Ratio (x) = 0.44468 0.13279
# Poissons Ratio (y) = 0.44468 0.13279
# Poissons Ratio (z) = 0.12157 0.12157
#
# Static dielectric constant tensor:
#      x y z
#    x 3.891610 0.000000 0.000000 
#    y 0.000000 3.891610 0.000000 
#    z 0.000000 0.000000 3.688780 
# 
# 
# High freq. dielectric constant tensor:
#      x y z
#    x 1.826190 0.000000 0.000000 
#    y 0.000000 1.826190 0.000000 
#    z 0.000000 0.000000 1.808870 
# 
# From -- ./inp_files/1619.got.cif
#   From: 2010.03.12/outbox.cif.g09.slc.cpg/sg136_1_cif.got.tgz:1619.got - 2010.04.06 18:39:43.
