data_PCOD8318707
_publ_section_title
;
Structure prediction by ZEFSAII (Michael W. Deem and Ramdas Pophale) SiO2 
 PCOD8318707
Probable space group: P 42/N M C
;
_chemical_formula_sum "Si O2"
_cell_formula_units_Z 96
_cell_length_a 19.704854
_cell_length_b 19.704854
_cell_length_c 12.594355
_cell_angle_alpha 90.000000
_cell_angle_beta 90.000000
_cell_angle_gamma 90.000000
_cell_volume 4890.152169
_symmetry_space_group_name_H-M "P 42/N M C"
_symmetry_group_IT_number 137
_space_group.IT_coordinate_system_code '2'
_symmetry_cell_setting 'tetragonal'
loop_
_space_group_symop_operation_xyz
x,y,z
1/2-y,x,1/2+z
1/2-x,1/2-y,z
y,1/2-x,1/2+z
1/2+x,-y,-z
-x,1/2+y,-z
1/2+y,1/2+x,1/2-z
-y,-x,1/2-z
-x,-y,-z
1/2+y,-x,1/2-z
1/2+x,1/2+y,-z
-y,1/2+x,1/2-z
1/2-x,y,z
x,1/2-y,z
1/2-y,1/2-x,1/2+z
y,x,1/2+z
loop_
_atom_site_type_symbol
_atom_site_label
_atom_site_fract_x
_atom_site_fract_y
_atom_site_fract_z
Si Si1 0.330701 0.072116 0.828689
Si Si2 0.669207 0.438131 0.780439
Si Si3 0.857736 0.326840 0.133030
Si Si4 0.670200 0.510024 0.389158
Si Si5 0.825356 0.042815 0.014240
Si Si6 0.830066 0.555616 0.615518
O O1 0.250000 0.084062 0.839654
O O2 0.352044 0.057836 0.707276
O O3 0.370664 0.139921 0.858388
O O4 0.358338 0.009608 0.901591
O O5 0.631396 0.368604 0.750000
O O6 0.750000 0.423786 0.778641
O O7 0.648851 0.498380 0.700346
O O8 0.641302 0.459119 0.897399
O O9 0.826249 0.326249 0.250000
O O10 0.851039 0.250000 0.086658
O O11 0.820243 0.380071 0.057420
O O12 0.934486 0.353608 0.137924
O O13 0.750000 0.509836 0.400256
O O14 0.639313 0.534157 0.501056
O O15 0.750000 0.015302 0.998416
O O16 0.750000 0.565160 0.613112
#
# Coordination Sequence:
#
# PCOD8318707 Si02
#       6
#    16  16  16  16  16  16
#     4  10  21  39  61  85 119 155 190 242 308 358
#     4  10  22  41  61  85 120 158 199 243 292 351
#     4  11  20  34  57  84 119 157 197 244 292 345
#     4   9  19  37  58  82 115 153 188 235 299 350
#     4  10  21  37  56  82 117 155 192 241 298 348
#     4  10  22  40  63  88 116 153 200 247 291 354
#
# _framework density 19.631291000000001
#
# number of rings (size 3 to 8) (size 9 to 14) (size 15 to 20)
#    0.000    2.000    1.667    1.500    2.333    3.667 
#    3.000    3.333    0.000    3.000    0.000    0.000 
#    0.000    0.000    0.000    0.000    0.000    0.000 
#
# Total GULP energy -1189945.703318 kJ/mol
# GULP energy per Si atom -12395.267743 kJ/mol
# Density = 1.958661 g / cm^3
# Si number density = 19.631291 Si / 1000 Ang^3
#
#
#
# Elastic Constant Matrix: (Units=GPa)
#
#
# Indices 1 2 3 4 5 6 
#
# 1 73.8396 43.0707 42.7216 0.0000 0.0000 0.0000
# 2 43.0707 73.8396 42.7216 0.0000 0.0000 0.0000
# 3 42.7216 42.7216 170.3748 0.0000 0.0000 0.0000
# 4 0.0000 0.0000 0.0000 20.8638 0.0000 0.0000
# 5 0.0000 0.0000 0.0000 0.0000 20.8638 0.0000
# 6 0.0000 0.0000 0.0000 0.0000 0.0000 30.7734
#
#
#
# Elastic Compliance Matrix: (Units=1/GPa)
#
#
# Indices 1 2 3 4 5 6 
#
# 1 0.021487 -0.011014 -0.002626 0.000000 0.000000 0.000000
# 2 -0.011014 0.021487 -0.002626 0.000000 0.000000 0.000000
# 3 -0.002626 -0.002626 0.007186 0.000000 0.000000 0.000000
# 4 0.000000 0.000000 0.000000 0.047930 0.000000 0.000000
# 5 0.000000 0.000000 0.000000 0.000000 0.047930 0.000000
# 6 0.000000 0.000000 0.000000 0.000000 0.000000 0.032496
#
#
# Mechanical properties :
#
#
# Convention : Reuss Voigt Hill
#
# Bulk Modulus (GPa) = 56.72875 63.89800 60.31337
# Shear Modulus (GPa) = 23.04965 27.13617 25.09291
#
# Velocity S-wave (km/s) = 3.43027 3.72195 3.57908
# Velocity P-wave (km/s) = 6.68198 7.14775 6.91878
#
# Compressibility (1/GPa) = 0.01762775
#
# Stress axis : x y z
#
# Youngs Moduli (GPa) = 46.54064 46.54064 139.15186
#
# Poissons Ratio (x) = 0.51259 0.36542
# Poissons Ratio (y) = 0.51259 0.36542
# Poissons Ratio (z) = 0.12222 0.12222
#
# Static dielectric constant tensor:
#      x y z
#    x 3.393550 0.000000 0.000000 
#    y 0.000000 3.393550 0.000000 
#    z 0.000000 0.000000 4.025900 
# 
# 
# High freq. dielectric constant tensor:
#      x y z
#    x 1.747650 0.000000 0.000000 
#    y 0.000000 1.747650 0.000000 
#    z 0.000000 0.000000 1.781490 
# 
# From -- ./inp_files/3737.got.cif
#   From: 2010.03.12/outbox.cif.g09.slc.cpg/sg137_2_cif.got.tgz:3737.got - 2010.04.08 09:34:49.
