data_PCOD8318249
_publ_section_title
;
Structure prediction by ZEFSAII (Michael W. Deem and Ramdas Pophale) SiO2 
 PCOD8318249
Probable space group: P 42/M N M
;
_chemical_formula_sum "Si O2"
_cell_formula_units_Z 80
_cell_length_a 11.599170
_cell_length_b 11.599170
_cell_length_c 29.834696
_cell_angle_alpha 90.000000
_cell_angle_beta 90.000000
_cell_angle_gamma 90.000000
_cell_volume 4013.982217
_symmetry_space_group_name_H-M "P 42/M N M"
_symmetry_group_IT_number 136
_symmetry_cell_setting 'tetragonal'
loop_
_space_group_symop_operation_xyz
x,y,z
1/2-y,1/2+x,1/2+z
-x,-y,z
1/2+y,1/2-x,1/2+z
1/2+x,1/2-y,1/2-z
1/2-x,1/2+y,1/2-z
y,x,-z
-y,-x,-z
-x,-y,-z
1/2+y,1/2-x,1/2-z
x,y,-z
1/2-y,1/2+x,1/2-z
1/2-x,1/2+y,1/2+z
1/2+x,1/2-y,1/2+z
-y,-x,z
y,x,z
loop_
_atom_site_type_symbol
_atom_site_label
_atom_site_fract_x
_atom_site_fract_y
_atom_site_fract_z
Si Si1 0.594506 0.405495 0.142103
Si Si2 0.181568 0.999365 0.115200
Si Si3 0.176330 0.176330 0.550804
Si Si4 0.311872 0.025313 0.301150
Si Si5 0.553873 0.875764 0.449229
Si Si6 0.815696 0.467506 0.299794
O O1 0.500000 0.500000 0.153605
O O2 0.605987 0.394014 0.088298
O O3 0.714954 0.445137 0.163042
O O4 0.087547 0.087547 0.096598
O O5 0.209941 0.032856 0.166223
O O6 0.291861 0.012911 0.083974
O O7 0.130167 0.869834 0.113239
O O8 0.140186 0.140186 0.500000
O O9 0.141617 0.309790 0.558153
O O10 0.264570 0.037134 0.250422
O O11 0.416967 0.112112 0.307978
O O12 0.356138 0.895436 0.308933
O O13 0.522166 0.842837 0.500000
O O14 0.500000 0.000000 0.437484
#
# Coordination Sequence:
#
# PCOD8318249 Si02
#       6
#     8  16   8  16  16  16
#     4  12  26  39  58  95 131 164 203 251 312 370
#     4  11  24  37  58  93 128 160 194 254 324 372
#     4  10  22  43  67  92 122 163 215 261 313 374
#     4   9  21  40  63  86 115 165 211 257 300 357
#     4  10  22  42  68  93 118 159 212 259 307 375
#     4   9  20  41  63  86 117 158 215 256 301 362
#
# _framework density 19.930330000000001
#
# number of rings (size 3 to 8) (size 9 to 14) (size 15 to 20)
#    0.000    2.000    1.000    2.400    8.400    2.200 
#    3.600    1.000    0.000    3.600    0.000    0.000 
#    0.000    0.000    0.000    0.000    0.000    0.000 
#
# Total GULP energy -991837.162924 kJ/mol
# GULP energy per Si atom -12397.964537 kJ/mol
# Density = 1.988497 g / cm^3
# Si number density = 19.930330 Si / 1000 Ang^3
#
#
#
# Elastic Constant Matrix: (Units=GPa)
#
#
# Indices 1 2 3 4 5 6 
#
# 1 88.7412 44.7489 53.4554 0.0000 0.0000 0.0000
# 2 44.7489 88.7412 53.4554 0.0000 0.0000 0.0000
# 3 53.4554 53.4554 127.9632 0.0000 0.0000 0.0000
# 4 0.0000 0.0000 0.0000 23.4555 0.0000 0.0000
# 5 0.0000 0.0000 0.0000 0.0000 23.4555 0.0000
# 6 0.0000 0.0000 0.0000 0.0000 0.0000 26.7856
#
#
#
# Elastic Compliance Matrix: (Units=1/GPa)
#
#
# Indices 1 2 3 4 5 6 
#
# 1 0.016994 -0.005737 -0.004703 0.000000 0.000000 0.000000
# 2 -0.005737 0.016994 -0.004703 0.000000 0.000000 0.000000
# 3 -0.004703 -0.004703 0.011744 0.000000 0.000000 0.000000
# 4 0.000000 0.000000 0.000000 0.042634 0.000000 0.000000
# 5 0.000000 0.000000 0.000000 0.000000 0.042634 0.000000
# 6 0.000000 0.000000 0.000000 0.000000 0.000000 0.037334
#
#
# Mechanical properties :
#
#
# Convention : Reuss Voigt Hill
#
# Bulk Modulus (GPa) = 64.73344 67.64057 66.18700
# Shear Modulus (GPa) = 24.53768 24.99168 24.76468
#
# Velocity S-wave (km/s) = 3.51261 3.54496 3.52882
# Velocity P-wave (km/s) = 7.00012 7.12516 7.06291
#
# Compressibility (1/GPa) = 0.01544797
#
# Stress axis : x y z
#
# Youngs Moduli (GPa) = 58.84282 58.84282 85.15125
#
# Poissons Ratio (x) = 0.33757 0.40044
# Poissons Ratio (y) = 0.33757 0.40044
# Poissons Ratio (z) = 0.27672 0.27672
#
# Static dielectric constant tensor:
#      x y z
#    x 3.536850 0.000000 0.000000 
#    y 0.000000 3.536850 0.000000 
#    z 0.000000 0.000000 3.792320 
# 
# 
# High freq. dielectric constant tensor:
#      x y z
#    x 1.769520 0.000000 0.000000 
#    y 0.000000 1.769520 0.000000 
#    z 0.000000 0.000000 1.789720 
# 
# From -- ./inp_files/9631.got.cif
#   From: 2010.03.12/outbox.cif.g09.slc.cpg/sg136_5_cif.got.tgz:9631.got - 2010.04.06 18:39:43.
