data_PCOD8318363
_publ_section_title
;
Structure prediction by ZEFSAII (Michael W. Deem and Ramdas Pophale) SiO2 
 PCOD8318363
Probable space group: P 42/N M C
;
_chemical_formula_sum "Si O2"
_cell_formula_units_Z 96
_cell_length_a 19.294970
_cell_length_b 19.294970
_cell_length_c 16.375711
_cell_angle_alpha 90.000000
_cell_angle_beta 90.000000
_cell_angle_gamma 90.000000
_cell_volume 6096.609529
_symmetry_space_group_name_H-M "P 42/N M C"
_symmetry_group_IT_number 137
_space_group.IT_coordinate_system_code '2'
_symmetry_cell_setting 'tetragonal'
loop_
_space_group_symop_operation_xyz
x,y,z
1/2-y,x,1/2+z
1/2-x,1/2-y,z
y,1/2-x,1/2+z
1/2+x,-y,-z
-x,1/2+y,-z
1/2+y,1/2+x,1/2-z
-y,-x,1/2-z
-x,-y,-z
1/2+y,-x,1/2-z
1/2+x,1/2+y,-z
-y,1/2+x,1/2-z
1/2-x,y,z
x,1/2-y,z
1/2-y,1/2-x,1/2+z
y,x,1/2+z
loop_
_atom_site_type_symbol
_atom_site_label
_atom_site_fract_x
_atom_site_fract_y
_atom_site_fract_z
Si Si1 0.941635 0.827351 0.871889
Si Si2 0.171789 0.934228 0.501609
Si Si3 0.067214 0.001034 0.396740
Si Si4 0.328437 0.943517 0.944336
Si Si5 0.541163 0.597260 0.449979
Si Si6 0.397512 0.004196 0.785358
O O1 0.908562 0.750000 0.873549
O O2 0.887060 0.884119 0.908046
O O3 0.961721 0.846251 0.779777
O O4 0.010025 0.829539 0.926430
O O5 0.250000 0.908582 0.484720
O O6 0.141850 0.966143 0.416213
O O7 0.124293 0.871418 0.531055
O O8 0.007834 0.942221 0.384240
O O9 0.047906 0.046279 0.474402
O O10 0.065047 0.050181 0.317204
O O11 0.250000 0.919095 0.938070
O O12 0.351338 0.974336 0.858106
O O13 0.334679 0.002650 0.015279
O O14 0.440078 0.940078 0.750000
#
# Coordination Sequence:
#
# PCOD8318363 Si02
#       6
#    16  16  16  16  16  16
#     4  10  17  26  44  69  94 120 147 183 228 272
#     4   9  17  29  44  64  89 119 157 191 222 263
#     4   8  14  25  43  61  83 115 151 197 233 253
#     4  10  19  29  43  63  94 129 157 184 221 271
#     4   8  14  27  41  59  84 116 159 195 221 250
#     4  11  16  26  43  69  97 122 145 184 229 273
#
# _framework density 15.746456999999999
#
# number of rings (size 3 to 8) (size 9 to 14) (size 15 to 20)
#    0.000    2.667    3.333    2.500    0.000    0.333 
#    0.000    0.000    0.000    1.500    0.000    0.000 
#    0.000    4.000    0.000    0.000    0.000    0.000 
#
# Total GULP energy -1189293.851175 kJ/mol
# GULP energy per Si atom -12388.477616 kJ/mol
# Density = 1.571062 g / cm^3
# Si number density = 15.746457 Si / 1000 Ang^3
#
#
#
# Elastic Constant Matrix: (Units=GPa)
#
#
# Indices 1 2 3 4 5 6 
#
# 1 76.7512 24.9458 35.4950 0.0000 0.0000 0.0000
# 2 24.9458 76.7512 35.4950 0.0000 0.0000 0.0000
# 3 35.4950 35.4950 44.5213 0.0000 0.0000 0.0000
# 4 0.0000 0.0000 0.0000 17.8955 0.0000 0.0000
# 5 0.0000 0.0000 0.0000 0.0000 17.8955 0.0000
# 6 0.0000 0.0000 0.0000 0.0000 0.0000 12.1178
#
#
#
# Elastic Compliance Matrix: (Units=1/GPa)
#
#
# Indices 1 2 3 4 5 6 
#
# 1 0.020738 0.001435 -0.017678 0.000000 0.000000 0.000000
# 2 0.001435 0.020738 -0.017678 0.000000 0.000000 0.000000
# 3 -0.017678 -0.017678 0.050649 0.000000 0.000000 0.000000
# 4 0.000000 0.000000 0.000000 0.055880 0.000000 0.000000
# 5 0.000000 0.000000 0.000000 0.000000 0.055880 0.000000
# 6 0.000000 0.000000 0.000000 0.000000 0.000000 0.082523
#
#
# Mechanical properties :
#
#
# Convention : Reuss Voigt Hill
#
# Bulk Modulus (GPa) = 41.17943 43.32170 42.25057
# Shear Modulus (GPa) = 13.79907 16.38764 15.09335
#
# Velocity S-wave (km/s) = 2.96350 3.22952 3.09936
# Velocity P-wave (km/s) = 6.15777 6.44035 6.30064
#
# Compressibility (1/GPa) = 0.02428397
#
# Stress axis : x y z
#
# Youngs Moduli (GPa) = 48.22049 48.22049 19.74387
#
# Poissons Ratio (x) = -0.06920 0.34903
# Poissons Ratio (y) = -0.06920 0.34903
# Poissons Ratio (z) = 0.85243 0.85243
#
# Static dielectric constant tensor:
#      x y z
#    x 3.015650 0.000000 0.000000 
#    y 0.000000 3.015650 0.000000 
#    z 0.000000 0.000000 3.050260 
# 
# 
# High freq. dielectric constant tensor:
#      x y z
#    x 1.581900 0.000000 0.000000 
#    y 0.000000 1.581900 0.000000 
#    z 0.000000 0.000000 1.596110 
# 
# From -- ./inp_files/5272.got.cif
#   From: 2010.03.12/outbox.cif.g09.slc.cpg/sg137_3_cif.got.tgz:5272.got - 2010.04.08 09:34:49.
