data_PCOD8318380
_publ_section_title
;
Structure prediction by ZEFSAII (Michael W. Deem and Ramdas Pophale) SiO2 
 PCOD8318380
Probable space group: P 42/N M C
;
_chemical_formula_sum "Si O2"
_cell_formula_units_Z 112
_cell_length_a 15.342181
_cell_length_b 15.342181
_cell_length_c 24.225029
_cell_angle_alpha 90.000000
_cell_angle_beta 90.000000
_cell_angle_gamma 90.000000
_cell_volume 5702.148321
_symmetry_space_group_name_H-M "P 42/N M C"
_symmetry_group_IT_number 137
_space_group.IT_coordinate_system_code '2'
_symmetry_cell_setting 'tetragonal'
loop_
_space_group_symop_operation_xyz
x,y,z
1/2-y,x,1/2+z
1/2-x,1/2-y,z
y,1/2-x,1/2+z
1/2+x,-y,-z
-x,1/2+y,-z
1/2+y,1/2+x,1/2-z
-y,-x,1/2-z
-x,-y,-z
1/2+y,-x,1/2-z
1/2+x,1/2+y,-z
-y,1/2+x,1/2-z
1/2-x,y,z
x,1/2-y,z
1/2-y,1/2-x,1/2+z
y,x,1/2+z
loop_
_atom_site_type_symbol
_atom_site_label
_atom_site_fract_x
_atom_site_fract_y
_atom_site_fract_z
Si Si1 0.618744 0.153803 0.451853
Si Si2 0.527819 0.656166 0.997452
Si Si3 0.523789 0.081862 0.890905
Si Si4 0.072988 0.918803 0.659587
Si Si5 0.347821 0.460364 0.746185
Si Si6 0.349516 0.985567 0.274026
Si Si7 0.015830 0.347113 0.542008
O O1 0.661357 0.250000 0.463538
O O2 0.618776 0.142023 0.385717
O O3 0.523087 0.153554 0.480005
O O4 0.669305 0.072348 0.478123
O O5 0.573480 0.750000 0.994877
O O6 0.532226 0.623521 0.060090
O O7 0.583233 0.594173 0.957235
O O8 0.525585 0.149244 0.840221
O O9 0.478973 0.994168 0.872108
O O10 0.620375 0.056653 0.913693
O O11 0.026019 0.855473 0.702682
O O12 0.139438 0.984227 0.690239
O O13 0.250000 0.419938 0.745647
O O14 0.420852 0.385067 0.752772
O O15 0.408857 0.908857 0.250000
O O16 0.250000 0.975953 0.253694
O O17 0.047132 0.250000 0.558858
#
# Coordination Sequence:
#
# PCOD8318380 Si02
#       7
#    16  16  16  16  16  16  16
#     4  10  19  34  58  82 106 146 196 233 277 338
#     4  11  21  34  54  83 121 151 187 241 293 351
#     4  10  18  39  59  83 111 154 196 239 295 348
#     4  10  17  36  61  85 112 156 193 239 288 349
#     4  10  21  37  61  91 120 153 193 240 303 361
#     4  11  23  41  64  90 119 155 201 250 302 356
#     4  10  20  35  58  82 112 153 193 236 292 348
#
# _framework density 19.641718999999998
#
# number of rings (size 3 to 8) (size 9 to 14) (size 15 to 20)
#    0.000    1.714    5.714    1.714    0.000    2.143 
#    0.000    0.000    0.000   11.143    0.000    0.000 
#    0.000    0.000    0.000    0.000    0.000    0.000 
#
# Total GULP energy -1387817.156578 kJ/mol
# GULP energy per Si atom -12391.224612 kJ/mol
# Density = 1.959701 g / cm^3
# Si number density = 19.641719 Si / 1000 Ang^3
#
#
#
# Elastic Constant Matrix: (Units=GPa)
#
#
# Indices 1 2 3 4 5 6 
#
# 1 124.4947 43.9424 24.9379 0.0000 0.0000 0.0000
# 2 43.9424 124.4947 24.9379 0.0000 0.0000 0.0000
# 3 24.9379 24.9379 79.2702 0.0000 0.0000 0.0000
# 4 0.0000 0.0000 0.0000 18.5022 0.0000 0.0000
# 5 0.0000 0.0000 0.0000 0.0000 18.5022 0.0000
# 6 0.0000 0.0000 0.0000 0.0000 0.0000 2.4658
#
#
#
# Elastic Compliance Matrix: (Units=1/GPa)
#
#
# Indices 1 2 3 4 5 6 
#
# 1 0.009481 -0.002934 -0.002060 0.000000 0.000000 0.000000
# 2 -0.002934 0.009481 -0.002060 0.000000 0.000000 0.000000
# 3 -0.002060 -0.002060 0.013911 0.000000 0.000000 0.000000
# 4 0.000000 0.000000 0.000000 0.054048 0.000000 0.000000
# 5 0.000000 0.000000 0.000000 0.000000 0.054048 0.000000
# 6 0.000000 0.000000 0.000000 0.000000 0.000000 0.405545
#
#
# Mechanical properties :
#
#
# Convention : Reuss Voigt Hill
#
# Bulk Modulus (GPa) = 53.28727 57.32179 55.30453
# Shear Modulus (GPa) = 8.82032 23.52348 16.17190
#
# Velocity S-wave (km/s) = 2.12140 3.46443 2.87251
# Velocity P-wave (km/s) = 5.76099 6.72682 6.26255
#
# Compressibility (1/GPa) = 0.01876621
#
# Stress axis : x y z
#
# Youngs Moduli (GPa) = 105.47913 105.47913 71.88580
#
# Poissons Ratio (x) = 0.30945 0.14805
# Poissons Ratio (y) = 0.30945 0.14805
# Poissons Ratio (z) = 0.21724 0.21724
#
# Static dielectric constant tensor:
#      x y z
#    x 3.420400 0.000000 0.000000 
#    y 0.000000 3.420400 0.000000 
#    z 0.000000 0.000000 4.080910 
# 
# 
# High freq. dielectric constant tensor:
#      x y z
#    x 1.749390 0.000000 0.000000 
#    y 0.000000 1.749390 0.000000 
#    z 0.000000 0.000000 1.772230 
# 
# From -- ./inp_files/8938.got.cif
#   From: 2010.03.12/outbox.cif.g09.slc.cpg/sg137_5_cif.got.tgz:8938.got - 2010.04.08 09:34:49.
