data_PCOD8318788
_publ_section_title
;
Structure prediction by ZEFSAII (Michael W. Deem and Ramdas Pophale) SiO2 
 PCOD8318788
Probable space group: P 42/N M C
;
_chemical_formula_sum "Si O2"
_cell_formula_units_Z 72
_cell_length_a 16.726069
_cell_length_b 16.726069
_cell_length_c 16.045946
_cell_angle_alpha 90.000000
_cell_angle_beta 90.000000
_cell_angle_gamma 90.000000
_cell_volume 4489.036064
_symmetry_space_group_name_H-M "P 42/N M C"
_symmetry_group_IT_number 137
_space_group.IT_coordinate_system_code '2'
_symmetry_cell_setting 'tetragonal'
loop_
_space_group_symop_operation_xyz
x,y,z
1/2-y,x,1/2+z
1/2-x,1/2-y,z
y,1/2-x,1/2+z
1/2+x,-y,-z
-x,1/2+y,-z
1/2+y,1/2+x,1/2-z
-y,-x,1/2-z
-x,-y,-z
1/2+y,-x,1/2-z
1/2+x,1/2+y,-z
-y,1/2+x,1/2-z
1/2-x,y,z
x,1/2-y,z
1/2-y,1/2-x,1/2+z
y,x,1/2+z
loop_
_atom_site_type_symbol
_atom_site_label
_atom_site_fract_x
_atom_site_fract_y
_atom_site_fract_z
Si Si1 0.590682 0.070462 0.895741
Si Si2 0.156782 0.018837 0.518194
Si Si3 0.338435 0.838435 0.250000
Si Si4 0.156980 0.040882 0.969142
Si Si5 0.453354 0.955842 0.845467
O O1 0.649041 0.103583 0.826750
O O2 0.529835 0.012298 0.849396
O O3 0.540987 0.139889 0.941861
O O4 0.648000 0.025258 0.959743
O O5 0.250000 0.033169 0.530288
O O6 0.117467 0.104836 0.497188
O O7 0.122760 0.977221 0.601872
O O8 0.352041 0.750000 0.215287
O O9 0.250000 0.064931 0.957431
O O10 0.123137 0.002148 0.883801
O O11 0.433160 0.933160 0.750000
#
# Coordination Sequence:
#
# PCOD8318788 Si02
#       5
#    16  16   8  16  16
#     4   9  17  32  47  64  92 124 160 191 231 281
#     4   9  18  31  49  71  95 126 161 198 239 285
#     4  11  20  26  42  70  92 114 146 191 246 288
#     4   9  18  31  49  71  95 126 161 198 239 285
#     4   9  17  31  51  70  90 125 166 198 232 282
#
# _framework density 16.039076999999999
#
# number of rings (size 3 to 8) (size 9 to 14) (size 15 to 20)
#    0.000    2.778    1.111    4.000    0.000    1.333 
#    0.000    0.000    0.000    6.000    0.000   12.444 
#    0.000    0.000    0.000    0.000    0.000    0.000 
#
# Total GULP energy -892425.776691 kJ/mol
# GULP energy per Si atom -12394.802454 kJ/mol
# Density = 1.600257 g / cm^3
# Si number density = 16.039077 Si / 1000 Ang^3
#
#
#
# Elastic Constant Matrix: (Units=GPa)
#
#
# Indices 1 2 3 4 5 6 
#
# 1 85.4291 32.0163 21.2453 0.0000 0.0000 0.0000
# 2 32.0163 85.4291 21.2453 0.0000 0.0000 0.0000
# 3 21.2453 21.2453 90.6579 0.0000 0.0000 0.0000
# 4 0.0000 0.0000 0.0000 17.7846 0.0000 0.0000
# 5 0.0000 0.0000 0.0000 0.0000 17.7846 0.0000
# 6 0.0000 0.0000 0.0000 0.0000 0.0000 15.7922
#
#
#
# Elastic Compliance Matrix: (Units=1/GPa)
#
#
# Indices 1 2 3 4 5 6 
#
# 1 0.014013 -0.004709 -0.002180 0.000000 0.000000 0.000000
# 2 -0.004709 0.014013 -0.002180 0.000000 0.000000 0.000000
# 3 -0.002180 -0.002180 0.012052 0.000000 0.000000 0.000000
# 4 0.000000 0.000000 0.000000 0.056228 0.000000 0.000000
# 5 0.000000 0.000000 0.000000 0.000000 0.056228 0.000000
# 6 0.000000 0.000000 0.000000 0.000000 0.000000 0.063323
#
#
# Mechanical properties :
#
#
# Convention : Reuss Voigt Hill
#
# Bulk Modulus (GPa) = 45.58253 45.61446 45.59849
# Shear Modulus (GPa) = 20.72028 22.73955 21.72992
#
# Velocity S-wave (km/s) = 3.59815 3.76940 3.68477
# Velocity P-wave (km/s) = 6.76340 6.88809 6.82603
#
# Compressibility (1/GPa) = 0.02193823
#
# Stress axis : x y z
#
# Youngs Moduli (GPa) = 71.36363 71.36363 82.97156
#
# Poissons Ratio (x) = 0.33608 0.18090
# Poissons Ratio (y) = 0.33608 0.18090
# Poissons Ratio (z) = 0.15559 0.15559
#
# Static dielectric constant tensor:
#      x y z
#    x 2.897050 0.000000 0.000000 
#    y 0.000000 2.897050 0.000000 
#    z 0.000000 0.000000 3.034640 
# 
# 
# High freq. dielectric constant tensor:
#      x y z
#    x 1.607010 0.000000 0.000000 
#    y 0.000000 1.607010 0.000000 
#    z 0.000000 0.000000 1.618590 
# 
# From -- ./inp_files/6187.got.cif
#   From: 2010.03.12/outbox.cif.g09.slc.cpg/sg137_4_cif.got.tgz:6187.got - 2010.04.08 09:34:49.
