data_PCOD8318424
_publ_section_title
;
Structure prediction by ZEFSAII (Michael W. Deem and Ramdas Pophale) SiO2 
 PCOD8318424
Probable space group: P 42/N M C
;
_chemical_formula_sum "Si O2"
_cell_formula_units_Z 96
_cell_length_a 19.644119
_cell_length_b 19.644119
_cell_length_c 14.467243
_cell_angle_alpha 90.000000
_cell_angle_beta 90.000000
_cell_angle_gamma 90.000000
_cell_volume 5582.784819
_symmetry_space_group_name_H-M "P 42/N M C"
_symmetry_group_IT_number 137
_space_group.IT_coordinate_system_code '2'
_symmetry_cell_setting 'tetragonal'
loop_
_space_group_symop_operation_xyz
x,y,z
1/2-y,x,1/2+z
1/2-x,1/2-y,z
y,1/2-x,1/2+z
1/2+x,-y,-z
-x,1/2+y,-z
1/2+y,1/2+x,1/2-z
-y,-x,1/2-z
-x,-y,-z
1/2+y,-x,1/2-z
1/2+x,1/2+y,-z
-y,1/2+x,1/2-z
1/2-x,y,z
x,1/2-y,z
1/2-y,1/2-x,1/2+z
y,x,1/2+z
loop_
_atom_site_type_symbol
_atom_site_label
_atom_site_fract_x
_atom_site_fract_y
_atom_site_fract_z
Si Si1 0.460470 0.174166 0.059166
Si Si2 0.826859 0.922535 0.245353
Si Si3 0.485172 0.550468 0.145675
Si Si4 0.427170 0.327215 0.859466
Si Si5 0.428453 0.557789 0.960054
Si Si6 0.829786 0.075089 0.189492
O O1 0.493568 0.250000 0.070405
O O2 0.410840 0.159859 0.145726
O O3 0.519915 0.119482 0.055328
O O4 0.412516 0.172323 0.969155
O O5 0.750000 0.911388 0.214452
O O6 0.866570 0.865092 0.191069
O O7 0.848565 0.000430 0.227307
O O8 0.474280 0.525721 0.250000
O O9 0.503641 0.630153 0.156943
O O10 0.546195 0.508865 0.096323
O O11 0.422442 0.543331 0.071507
O O12 0.435707 0.250000 0.822158
O O13 0.355603 0.578536 0.917299
O O14 0.869017 0.130984 0.250000
O O15 0.750000 0.091259 0.192341
#
# Coordination Sequence:
#
# PCOD8318424 Si02
#       6
#    16  16  16  16  16  16
#     4   9  18  32  53  76 101 135 178 217 260 316
#     4  10  19  33  52  72 101 143 179 212 264 326
#     4  10  19  32  53  77 103 140 185 223 270 318
#     4  10  20  34  51  76 103 132 178 228 264 308
#     4  10  18  31  53  76 104 140 181 224 267 323
#     4  11  21  34  53  81 113 143 176 221 277 336
#
# _framework density 17.195717999999999
#
# number of rings (size 3 to 8) (size 9 to 14) (size 15 to 20)
#    0.000    2.000    3.333    1.500    0.000    0.500 
#    0.000    1.667    0.000    3.000    0.000    0.000 
#    0.000    1.667    0.000    0.167    0.000    0.000 
#
# Total GULP energy -1189252.594766 kJ/mol
# GULP energy per Si atom -12388.047862 kJ/mol
# Density = 1.715658 g / cm^3
# Si number density = 17.195718 Si / 1000 Ang^3
#
#
#
# Elastic Constant Matrix: (Units=GPa)
#
#
# Indices 1 2 3 4 5 6 
#
# 1 85.4613 32.4722 38.0250 0.0000 0.0000 0.0000
# 2 32.4722 85.4611 38.0252 0.0000 0.0000 0.0000
# 3 38.0250 38.0252 125.8478 0.0000 0.0000 0.0000
# 4 0.0000 0.0000 0.0000 23.6545 0.0000 0.0000
# 5 0.0000 0.0000 0.0000 0.0000 23.6543 0.0000
# 6 0.0000 0.0000 0.0000 0.0000 0.0000 23.1137
#
#
#
# Elastic Compliance Matrix: (Units=1/GPa)
#
#
# Indices 1 2 3 4 5 6 
#
# 1 0.014702 -0.004170 -0.003182 0.000000 0.000000 0.000000
# 2 -0.004170 0.014702 -0.003182 0.000000 0.000000 0.000000
# 3 -0.003182 -0.003182 0.009869 0.000000 0.000000 0.000000
# 4 0.000000 0.000000 0.000000 0.042275 0.000000 0.000000
# 5 0.000000 0.000000 0.000000 0.000000 0.042276 0.000000
# 6 0.000000 0.000000 0.000000 0.000000 0.000000 0.043264
#
#
# Mechanical properties :
#
#
# Convention : Reuss Voigt Hill
#
# Bulk Modulus (GPa) = 54.93457 57.09054 56.01256
# Shear Modulus (GPa) = 25.74346 26.63435 26.18891
#
# Velocity S-wave (km/s) = 3.87342 3.93987 3.90678
# Velocity P-wave (km/s) = 7.21252 7.34638 7.27976
#
# Compressibility (1/GPa) = 0.01820347
#
# Stress axis : x y z
#
# Youngs Moduli (GPa) = 68.02005 68.01973 101.32710
#
# Poissons Ratio (x) = 0.28366 0.32243
# Poissons Ratio (y) = 0.28366 0.32243
# Poissons Ratio (z) = 0.21644 0.21644
#
# Static dielectric constant tensor:
#      x y z
#    x 3.149220 0.000000 0.000000 
#    y 0.000000 3.149220 0.000000 
#    z 0.000000 0.000000 3.617430 
# 
# 
# High freq. dielectric constant tensor:
#      x y z
#    x 1.644630 0.000000 0.000000 
#    y 0.000000 1.644630 0.000000 
#    z 0.000000 0.000000 1.678240 
# 
# From -- ./inp_files/5274.got.cif
#   From: 2010.03.12/outbox.cif.g09.slc.cpg/sg137_3_cif.got.tgz:5274.got - 2010.04.08 09:34:49.
