data_PCOD8318891
_publ_section_title
;
Structure prediction by ZEFSAII (Michael W. Deem and Ramdas Pophale) SiO2 
 PCOD8318891
Probable space group: P 42/N C M
;
_chemical_formula_sum "Si O2"
_cell_formula_units_Z 80
_cell_length_a 29.639810
_cell_length_b 29.639810
_cell_length_c 5.058717
_cell_angle_alpha 90.000000
_cell_angle_beta 90.000000
_cell_angle_gamma 90.000000
_cell_volume 4444.175645
_symmetry_space_group_name_H-M "P 42/N C M"
_symmetry_group_IT_number 138
_space_group.IT_coordinate_system_code '2'
_symmetry_cell_setting 'tetragonal'
loop_
_space_group_symop_operation_xyz
x,y,z
1/2-y,x,1/2+z
1/2-x,1/2-y,z
y,1/2-x,1/2+z
1/2+x,-y,1/2-z
-x,1/2+y,1/2-z
1/2+y,1/2+x,-z
-y,-x,-z
-x,-y,-z
1/2+y,-x,1/2-z
1/2+x,1/2+y,-z
-y,1/2+x,1/2-z
1/2-x,y,1/2+z
x,1/2-y,1/2+z
1/2-y,1/2-x,z
y,x,z
loop_
_atom_site_type_symbol
_atom_site_label
_atom_site_fract_x
_atom_site_fract_y
_atom_site_fract_z
Si Si1 0.368748 0.438556 0.907936
Si Si2 0.090537 0.018519 0.423300
Si Si3 0.078306 0.880794 0.738132
Si Si4 0.445218 0.777804 0.357580
Si Si5 0.448143 0.274548 0.107223
O O1 0.392617 0.392617 0.814100
O O2 0.389684 0.456182 0.175325
O O3 0.317504 0.426005 0.968745
O O4 0.376049 0.475033 0.674740
O O5 0.040314 0.040314 0.482017
O O6 0.091324 0.965726 0.359054
O O7 0.114506 0.885495 0.500000
O O8 0.072140 0.828074 0.800508
O O9 0.095157 0.904844 0.000000
O O10 0.427642 0.756529 0.631698
O O11 0.498583 0.781456 0.384894
O O12 0.432893 0.265952 0.408649
#
# Coordination Sequence:
#
# PCOD8318891 Si02
#       5
#    16  16  16  16  16
#     4  10  19  33  51  71 103 139 178 217 259 305
#     4  10  21  35  51  71 106 150 185 214 247 290
#     4  12  24  36  55  79 109 139 182 223 249 303
#     4  10  21  36  55  76 104 136 168 211 270 315
#     4  10  19  30  52  76  98 129 175 219 262 316
#
# _framework density 18.001090000000001
#
# number of rings (size 3 to 8) (size 9 to 14) (size 15 to 20)
#    0.000    1.600    2.000    3.600    5.600    0.800 
#    0.000    0.000    0.000    0.000    0.000    0.000 
#    0.000   30.400    0.000    0.000    0.000    0.000 
#
# Total GULP energy -991315.778356 kJ/mol
# GULP energy per Si atom -12391.447229 kJ/mol
# Density = 1.796012 g / cm^3
# Si number density = 18.001090 Si / 1000 Ang^3
#
#
#
# Elastic Constant Matrix: (Units=GPa)
#
#
# Indices 1 2 3 4 5 6 
#
# 1 63.4758 49.6218 33.3594 0.0000 0.0000 0.0000
# 2 49.6218 63.4741 33.3573 0.0000 0.0000 0.0000
# 3 33.3594 33.3573 116.9404 0.0000 0.0000 0.0000
# 4 0.0000 0.0000 0.0000 26.9541 0.0000 0.0000
# 5 0.0000 0.0000 0.0000 0.0000 26.9557 0.0000
# 6 0.0000 0.0000 0.0000 0.0000 0.0000 11.4707
#
#
#
# Elastic Compliance Matrix: (Units=1/GPa)
#
#
# Indices 1 2 3 4 5 6 
#
# 1 0.041408 -0.030778 -0.003033 0.000000 0.000000 0.000000
# 2 -0.030778 0.041409 -0.003032 0.000000 0.000000 0.000000
# 3 -0.003033 -0.003032 0.010282 0.000000 0.000000 0.000000
# 4 0.000000 0.000000 0.000000 0.037100 0.000000 0.000000
# 5 0.000000 0.000000 0.000000 0.000000 0.037098 0.000000
# 6 0.000000 0.000000 0.000000 0.000000 0.000000 0.087179
#
#
# Mechanical properties :
#
#
# Convention : Reuss Voigt Hill
#
# Bulk Modulus (GPa) = 51.51169 52.95191 52.23180
# Shear Modulus (GPa) = 14.94180 21.57954 18.26067
#
# Velocity S-wave (km/s) = 2.88418 3.46611 3.18845
# Velocity P-wave (km/s) = 6.30629 6.74525 6.52946
#
# Compressibility (1/GPa) = 0.01941307
#
# Stress axis : x y z
#
# Youngs Moduli (GPa) = 24.14976 24.14953 97.26204
#
# Poissons Ratio (x) = 0.74326 0.29501
# Poissons Ratio (y) = 0.74327 0.29490
# Poissons Ratio (z) = 0.07325 0.07322
#
# Static dielectric constant tensor:
#      x y z
#    x 3.299760 0.000000 0.000000 
#    y 0.000000 3.299750 0.000000 
#    z 0.000000 0.000000 3.718990 
# 
# 
# High freq. dielectric constant tensor:
#      x y z
#    x 1.666090 0.000000 0.000000 
#    y 0.000000 1.666090 0.000000 
#    z 0.000000 0.000000 1.731710 
# 
# From -- ./inp_files/465.got.cif
#   From: 2010.03.12/outbox.cif.g09.slc.cpg/sg138_1_cif.got.tgz:465.got - 2010.04.08 09:41:05.
