data_PCOD8318761
_publ_section_title
;
Structure prediction by ZEFSAII (Michael W. Deem and Ramdas Pophale) SiO2 
 PCOD8318761
Probable space group: P 42/N M C
;
_chemical_formula_sum "Si O2"
_cell_formula_units_Z 96
_cell_length_a 25.584575
_cell_length_b 25.584575
_cell_length_c 7.972401
_cell_angle_alpha 90.000000
_cell_angle_beta 90.000000
_cell_angle_gamma 90.000000
_cell_volume 5218.498333
_symmetry_space_group_name_H-M "P 42/N M C"
_symmetry_group_IT_number 137
_space_group.IT_coordinate_system_code '2'
_symmetry_cell_setting 'tetragonal'
loop_
_space_group_symop_operation_xyz
x,y,z
1/2-y,x,1/2+z
1/2-x,1/2-y,z
y,1/2-x,1/2+z
1/2+x,-y,-z
-x,1/2+y,-z
1/2+y,1/2+x,1/2-z
-y,-x,1/2-z
-x,-y,-z
1/2+y,-x,1/2-z
1/2+x,1/2+y,-z
-y,1/2+x,1/2-z
1/2-x,y,z
x,1/2-y,z
1/2-y,1/2-x,1/2+z
y,x,1/2+z
loop_
_atom_site_type_symbol
_atom_site_label
_atom_site_fract_x
_atom_site_fract_y
_atom_site_fract_z
Si Si1 0.389154 0.191849 0.423884
Si Si2 0.809611 0.894063 0.458235
Si Si3 0.507545 0.188997 0.921717
Si Si4 0.118543 0.965788 0.728155
Si Si5 0.477296 0.036177 0.638397
Si Si6 0.347432 0.490551 0.065449
O O1 0.365818 0.250000 0.438731
O O2 0.344092 0.153214 0.478627
O O3 0.440399 0.189314 0.540026
O O4 0.407020 0.178803 0.235289
O O5 0.750000 0.877001 0.486333
O O6 0.822886 0.945978 0.561933
O O7 0.520777 0.250000 0.949720
O O8 0.522503 0.171592 0.730910
O O9 0.537846 0.155514 0.063410
O O10 0.089352 0.910649 0.750000
O O11 0.076659 0.013011 0.713203
O O12 0.152975 0.973841 0.897706
O O13 0.466543 0.095108 0.590765
O O14 0.529633 0.029633 0.750000
O O15 0.500000 0.000000 0.500000
#
# Coordination Sequence:
#
# PCOD8318761 Si02
#       6
#    16  16  16  16  16  16
#     4  11  23  38  56  77 102 145 197 249 310 357
#     4  10  22  39  55  75 105 140 192 259 310 354
#     4  11  24  40  59  83 116 157 199 241 292 354
#     4  11  23  38  58  86 118 154 192 245 291 353
#     4  11  20  34  52  83 118 149 192 240 295 351
#     4  12  23  35  58  79 115 152 194 237 297 355
#
# _framework density 18.396096
#
# number of rings (size 3 to 8) (size 9 to 14) (size 15 to 20)
#    0.000    1.000    5.000    3.500    2.333    3.000 
#    0.000    1.667    0.000    0.000    0.000    0.000 
#    0.000    0.333    0.000    0.333    0.000    0.000 
#
# Total GULP energy -1189615.260581 kJ/mol
# GULP energy per Si atom -12391.825631 kJ/mol
# Density = 1.835423 g / cm^3
# Si number density = 18.396096 Si / 1000 Ang^3
#
#
#
# Elastic Constant Matrix: (Units=GPa)
#
#
# Indices 1 2 3 4 5 6 
#
# 1 56.8333 40.7573 32.9818 0.0000 0.0000 0.0000
# 2 40.7573 56.8342 32.9817 0.0000 0.0000 0.0000
# 3 32.9818 32.9817 132.9391 0.0000 0.0000 0.0000
# 4 0.0000 0.0000 0.0000 29.0039 0.0000 0.0000
# 5 0.0000 0.0000 0.0000 0.0000 29.0036 0.0000
# 6 0.0000 0.0000 0.0000 0.0000 0.0000 23.9223
#
#
#
# Elastic Compliance Matrix: (Units=1/GPa)
#
#
# Indices 1 2 3 4 5 6 
#
# 1 0.037257 -0.024946 -0.003055 0.000000 0.000000 0.000000
# 2 -0.024946 0.037257 -0.003054 0.000000 0.000000 0.000000
# 3 -0.003055 -0.003054 0.009038 0.000000 0.000000 0.000000
# 4 0.000000 0.000000 0.000000 0.034478 0.000000 0.000000
# 5 0.000000 0.000000 0.000000 0.000000 0.034478 0.000000
# 6 0.000000 0.000000 0.000000 0.000000 0.000000 0.041802
#
#
# Mechanical properties :
#
#
# Convention : Reuss Voigt Hill
#
# Bulk Modulus (GPa) = 46.63541 51.11644 48.87593
# Shear Modulus (GPa) = 18.97050 25.71169 22.34109
#
# Velocity S-wave (km/s) = 3.21475 3.74260 3.48867
# Velocity P-wave (km/s) = 6.25981 6.82077 6.54630
#
# Compressibility (1/GPa) = 0.02144293
#
# Stress axis : x y z
#
# Youngs Moduli (GPa) = 26.84027 26.84082 110.64616
#
# Poissons Ratio (x) = 0.66956 0.33797
# Poissons Ratio (y) = 0.66955 0.33794
# Poissons Ratio (z) = 0.08198 0.08198
#
# Static dielectric constant tensor:
#      x y z
#    x 3.222130 0.000000 0.000000 
#    y 0.000000 3.222130 0.000000 
#    z 0.000000 0.000000 3.788020 
# 
# 
# High freq. dielectric constant tensor:
#      x y z
#    x 1.682730 0.000000 0.000000 
#    y 0.000000 1.682730 0.000000 
#    z 0.000000 0.000000 1.746140 
# 
# From -- ./inp_files/2126.got.cif
#   From: 2010.03.12/outbox.cif.g09.slc.cpg/sg137_2_cif.got.tgz:2126.got - 2010.04.08 09:34:49.
