data_PCOD8318367
_publ_section_title
;
Structure prediction by ZEFSAII (Michael W. Deem and Ramdas Pophale) SiO2 
 PCOD8318367
Probable space group: P 42/N M C
;
_chemical_formula_sum "Si O2"
_cell_formula_units_Z 112
_cell_length_a 18.795599
_cell_length_b 18.795599
_cell_length_c 19.471855
_cell_angle_alpha 90.000000
_cell_angle_beta 90.000000
_cell_angle_gamma 90.000000
_cell_volume 6878.910653
_symmetry_space_group_name_H-M "P 42/N M C"
_symmetry_group_IT_number 137
_space_group.IT_coordinate_system_code '2'
_symmetry_cell_setting 'tetragonal'
loop_
_space_group_symop_operation_xyz
x,y,z
1/2-y,x,1/2+z
1/2-x,1/2-y,z
y,1/2-x,1/2+z
1/2+x,-y,-z
-x,1/2+y,-z
1/2+y,1/2+x,1/2-z
-y,-x,1/2-z
-x,-y,-z
1/2+y,-x,1/2-z
1/2+x,1/2+y,-z
-y,1/2+x,1/2-z
1/2-x,y,z
x,1/2-y,z
1/2-y,1/2-x,1/2+z
y,x,1/2+z
loop_
_atom_site_type_symbol
_atom_site_label
_atom_site_fract_x
_atom_site_fract_y
_atom_site_fract_z
Si Si1 0.953752 0.571672 0.758640
Si Si2 0.463864 0.331135 0.005865
Si Si3 0.073341 0.037095 0.096972
Si Si4 0.976087 0.169605 0.483255
Si Si5 0.071344 0.669283 0.794017
Si Si6 0.561434 0.935085 0.606057
Si Si7 0.883232 0.328488 0.051528
O O1 0.904161 0.546328 0.822540
O O2 0.914359 0.575286 0.685360
O O3 0.018019 0.518019 0.750000
O O4 0.990250 0.646337 0.778427
O O5 0.433960 0.250000 0.016079
O O6 0.437906 0.383979 0.066113
O O7 0.548901 0.328570 0.001763
O O8 0.438542 0.363853 0.933601
O O9 0.002534 0.989158 0.091049
O O10 0.134780 0.996221 0.056244
O O11 0.002833 0.250000 0.485244
O O12 0.890641 0.169522 0.472531
O O13 0.015396 0.131804 0.419760
O O14 0.128737 0.628737 0.750000
O O15 0.078563 0.750000 0.772355
O O16 0.087410 0.655141 0.873121
O O17 0.845999 0.250000 0.048521
#
# Coordination Sequence:
#
# PCOD8318367 Si02
#       7
#    16  16  16  16  16  16  16
#     4   9  17  28  47  68  89 119 158 206 246 282
#     4  10  17  29  50  71  92 123 163 201 236 280
#     4  10  17  33  50  70  95 124 162 204 249 289
#     4  11  20  31  48  72 103 133 161 201 247 289
#     4  10  19  29  42  66  99 135 166 195 233 287
#     4  10  18  32  50  71  94 126 161 204 247 291
#     4  10  18  30  47  69  98 134 170 195 226 284
#
# _framework density 16.281647
#
# number of rings (size 3 to 8) (size 9 to 14) (size 15 to 20)
#    0.000    2.000    4.286    2.571    0.000    2.714 
#    0.000    2.143    0.000    6.857    0.000    0.000 
#    0.000   10.286    0.000    0.000    0.000    0.000 
#
# Total GULP energy -1387939.028708 kJ/mol
# GULP energy per Si atom -12392.312756 kJ/mol
# Density = 1.624459 g / cm^3
# Si number density = 16.281647 Si / 1000 Ang^3
#
#
#
# Elastic Constant Matrix: (Units=GPa)
#
#
# Indices 1 2 3 4 5 6 
#
# 1 76.8190 16.7325 31.1874 0.0000 0.0000 0.0000
# 2 16.7325 76.8190 31.1874 0.0000 0.0000 0.0000
# 3 31.1874 31.1874 115.0189 0.0000 0.0000 0.0000
# 4 0.0000 0.0000 0.0000 10.9688 0.0000 0.0000
# 5 0.0000 0.0000 0.0000 0.0000 10.9688 0.0000
# 6 0.0000 0.0000 0.0000 0.0000 0.0000 12.7006
#
#
#
# Elastic Compliance Matrix: (Units=1/GPa)
#
#
# Indices 1 2 3 4 5 6 
#
# 1 0.014845 -0.001797 -0.003538 0.000000 0.000000 0.000000
# 2 -0.001797 0.014845 -0.003538 0.000000 0.000000 0.000000
# 3 -0.003538 -0.003538 0.010613 0.000000 0.000000 0.000000
# 4 0.000000 0.000000 0.000000 0.091168 0.000000 0.000000
# 5 0.000000 0.000000 0.000000 0.000000 0.091168 0.000000
# 6 0.000000 0.000000 0.000000 0.000000 0.000000 0.078737
#
#
# Mechanical properties :
#
#
# Convention : Reuss Voigt Hill
#
# Bulk Modulus (GPa) = 44.33160 47.43016 45.88088
# Shear Modulus (GPa) = 15.30726 19.56425 17.43576
#
# Velocity S-wave (km/s) = 3.06952 3.47019 3.27599
# Velocity P-wave (km/s) = 6.31266 6.72686 6.52305
#
# Compressibility (1/GPa) = 0.02255727
#
# Stress axis : x y z
#
# Youngs Moduli (GPa) = 67.36058 67.36058 94.22495
#
# Poissons Ratio (x) = 0.12106 0.33337
# Poissons Ratio (y) = 0.12106 0.33337
# Poissons Ratio (z) = 0.23832 0.23832
#
# Static dielectric constant tensor:
#      x y z
#    x 2.936290 0.000000 0.000000 
#    y 0.000000 2.936290 0.000000 
#    z 0.000000 0.000000 3.309680 
# 
# 
# High freq. dielectric constant tensor:
#      x y z
#    x 1.602810 0.000000 0.000000 
#    y 0.000000 1.602810 0.000000 
#    z 0.000000 0.000000 1.631470 
# 
# From -- ./inp_files/8139.got.cif
#   From: 2010.03.12/outbox.cif.g09.slc.cpg/sg137_5_cif.got.tgz:8139.got - 2010.04.08 09:34:49.
