data_PCOD8318329
_publ_section_title
;
Structure prediction by ZEFSAII (Michael W. Deem and Ramdas Pophale) SiO2 
 PCOD8318329
Probable space group: P 42/M N M
;
_chemical_formula_sum "Si O2"
_cell_formula_units_Z 112
_cell_length_a 25.739809
_cell_length_b 25.739809
_cell_length_c 10.252502
_cell_angle_alpha 90.000000
_cell_angle_beta 90.000000
_cell_angle_gamma 90.000000
_cell_volume 6792.669785
_symmetry_space_group_name_H-M "P 42/M N M"
_symmetry_group_IT_number 136
_symmetry_cell_setting 'tetragonal'
loop_
_space_group_symop_operation_xyz
x,y,z
1/2-y,1/2+x,1/2+z
-x,-y,z
1/2+y,1/2-x,1/2+z
1/2+x,1/2-y,1/2-z
1/2-x,1/2+y,1/2-z
y,x,-z
-y,-x,-z
-x,-y,-z
1/2+y,1/2-x,1/2-z
x,y,-z
1/2-y,1/2+x,1/2-z
1/2-x,1/2+y,1/2+z
1/2+x,1/2-y,1/2+z
-y,-x,z
y,x,z
loop_
_atom_site_type_symbol
_atom_site_label
_atom_site_fract_x
_atom_site_fract_y
_atom_site_fract_z
Si Si1 0.273476 0.644599 0.229024
Si Si2 0.296942 0.001692 0.850370
Si Si3 0.696482 0.780081 0.853674
Si Si4 0.685434 0.456754 0.649938
Si Si5 0.584319 0.178847 0.858564
Si Si6 0.418569 0.497685 0.345245
Si Si7 0.883731 0.316057 0.149530
O O1 0.311963 0.688038 0.163270
O O2 0.237589 0.672819 0.337157
O O3 0.309657 0.600416 0.290254
O O4 0.233108 0.616718 0.131816
O O5 0.235736 0.007970 0.828988
O O6 0.325651 0.042207 0.755813
O O7 0.311994 0.943704 0.810159
O O8 0.312738 0.014103 0.000000
O O9 0.725229 0.725229 0.834491
O O10 0.650472 0.781266 0.747440
O O11 0.673476 0.784753 0.000000
O O12 0.673019 0.446996 0.500000
O O13 0.638105 0.489462 0.714595
O O14 0.623844 0.131601 0.835106
O O15 0.556956 0.172712 0.000000
O O16 0.415215 0.494270 0.500000
O O17 0.456094 0.543907 0.301222
O O18 0.442855 0.442855 0.292912
O O19 0.875054 0.296804 0.000000
#
# Coordination Sequence:
#
# PCOD8318329 Si02
#       7
#    16  16  16  16  16  16  16
#     4   9  16  25  40  63  91 119 145 178 221 265
#     4   9  18  32  48  67  90 114 144 184 225 267
#     4   9  17  28  43  66  93 119 152 190 222 261
#     4   9  15  23  37  57  82 111 143 180 221 259
#     4   9  18  31  47  68  92 118 148 181 219 268
#     4   8  13  20  30  47  74 108 143 177 213 251
#     4   9  18  32  48  66  91 122 151 181 225 278
#
# _framework density 16.488361999999999
#
# number of rings (size 3 to 8) (size 9 to 14) (size 15 to 20)
#    0.000    3.143    0.000    1.286    0.000    6.000 
#    0.000    3.571    0.000    3.000    0.000    3.000 
#    0.000    5.143    0.000   31.429    0.000   11.429 
#
# Total GULP energy -1387668.469681 kJ/mol
# GULP energy per Si atom -12389.897051 kJ/mol
# Density = 1.645083 g / cm^3
# Si number density = 16.488362 Si / 1000 Ang^3
#
#
#
# Elastic Constant Matrix: (Units=GPa)
#
#
# Indices 1 2 3 4 5 6 
#
# 1 85.7534 43.0716 37.2813 0.0000 0.0000 0.0000
# 2 43.0716 85.7534 37.2813 0.0000 0.0000 0.0000
# 3 37.2813 37.2813 84.1703 0.0000 0.0000 0.0000
# 4 0.0000 0.0000 0.0000 18.3562 0.0000 0.0000
# 5 0.0000 0.0000 0.0000 0.0000 18.3562 0.0000
# 6 0.0000 0.0000 0.0000 0.0000 0.0000 25.0549
#
#
#
# Elastic Compliance Matrix: (Units=1/GPa)
#
#
# Indices 1 2 3 4 5 6 
#
# 1 0.016934 -0.006495 -0.004623 0.000000 0.000000 0.000000
# 2 -0.006495 0.016934 -0.004623 0.000000 0.000000 0.000000
# 3 -0.004623 -0.004623 0.015976 0.000000 0.000000 0.000000
# 4 0.000000 0.000000 0.000000 0.054478 0.000000 0.000000
# 5 0.000000 0.000000 0.000000 0.000000 0.054478 0.000000
# 6 0.000000 0.000000 0.000000 0.000000 0.000000 0.039912
#
#
# Mechanical properties :
#
#
# Convention : Reuss Voigt Hill
#
# Bulk Modulus (GPa) = 54.46788 54.54949 54.50868
# Shear Modulus (GPa) = 21.15809 21.55630 21.35719
#
# Velocity S-wave (km/s) = 3.58608 3.61967 3.60292
# Velocity P-wave (km/s) = 7.08890 7.11511 7.10202
#
# Compressibility (1/GPa) = 0.01835945
#
# Stress axis : x y z
#
# Youngs Moduli (GPa) = 59.05337 59.05337 62.59225
#
# Poissons Ratio (x) = 0.38357 0.28939
# Poissons Ratio (y) = 0.38357 0.28939
# Poissons Ratio (z) = 0.27303 0.27303
#
# Static dielectric constant tensor:
#      x y z
#    x 3.152110 0.000000 0.000000 
#    y 0.000000 3.152110 0.000000 
#    z 0.000000 0.000000 2.915820 
# 
# 
# High freq. dielectric constant tensor:
#      x y z
#    x 1.624040 0.000000 0.000000 
#    y 0.000000 1.624040 0.000000 
#    z 0.000000 0.000000 1.609140 
# 
# From -- ./inp_files/4029.got.cif
#   From: 2010.03.12/outbox.cif.g09.slc.cpg/sg136_3_cif.got.tgz:4029.got - 2010.04.06 18:39:43.
