data_PCOD8318042
_publ_section_title
;
Structure prediction by ZEFSAII (Michael W. Deem and Ramdas Pophale) SiO2 
 PCOD8318042
Probable space group: P 42/M N M
;
_chemical_formula_sum "Si O2"
_cell_formula_units_Z 104
_cell_length_a 18.274395
_cell_length_b 18.274395
_cell_length_c 17.756731
_cell_angle_alpha 90.000000
_cell_angle_beta 90.000000
_cell_angle_gamma 90.000000
_cell_volume 5929.922690
_symmetry_space_group_name_H-M "P 42/M N M"
_symmetry_group_IT_number 136
_symmetry_cell_setting 'tetragonal'
loop_
_space_group_symop_operation_xyz
x,y,z
1/2-y,1/2+x,1/2+z
-x,-y,z
1/2+y,1/2-x,1/2+z
1/2+x,1/2-y,1/2-z
1/2-x,1/2+y,1/2-z
y,x,-z
-y,-x,-z
-x,-y,-z
1/2+y,1/2-x,1/2-z
x,y,-z
1/2-y,1/2+x,1/2-z
1/2-x,1/2+y,1/2+z
1/2+x,1/2-y,1/2+z
-y,-x,z
y,x,z
loop_
_atom_site_type_symbol
_atom_site_label
_atom_site_fract_x
_atom_site_fract_y
_atom_site_fract_z
Si Si1 0.501278 0.382660 0.702314
Si Si2 0.662506 0.970727 0.322383
Si Si3 0.939989 0.562622 0.917375
Si Si4 0.087080 0.793028 0.911807
Si Si5 0.618027 0.503926 0.000000
Si Si6 0.680886 0.438911 0.145507
Si Si7 0.154453 0.453106 0.672432
O O1 0.570521 0.429480 0.674092
O O2 0.434378 0.434378 0.725393
O O3 0.479792 0.331587 0.632056
O O4 0.520669 0.339036 0.777432
O O5 0.731782 0.926238 0.355302
O O6 0.597761 0.913853 0.305089
O O7 0.633829 0.032037 0.380051
O O8 0.688532 0.014825 0.248623
O O9 0.000000 0.500000 0.922260
O O10 0.975102 0.630622 0.873716
O O11 0.918046 0.590500 0.000000
O O12 0.162929 0.837072 0.899917
O O13 0.094691 0.712308 0.875836
O O14 0.067395 0.788170 0.000000
O O15 0.664704 0.491825 0.075347
O O16 0.586583 0.586583 0.000000
O O17 0.551280 0.448721 0.000000
O O18 0.638569 0.361432 0.137578
#
# Coordination Sequence:
#
# PCOD8318042 Si02
#       7
#    16  16  16  16   8  16  16
#     4   9  17  31  53  77 101 130 170 221 267 308
#     4  11  21  33  56  79 108 138 180 225 269 318
#     4   9  19  33  53  78 102 132 173 223 269 309
#     4  10  21  36  54  79 110 143 180 219 271 333
#     4   9  18  34  56  80 107 140 182 228 267 314
#     4  10  20  34  52  78 109 142 177 215 271 331
#     4  11  20  36  55  78 107 142 177 225 272 322
#
# _framework density 17.538170999999998
#
# number of rings (size 3 to 8) (size 9 to 14) (size 15 to 20)
#    0.000    2.077    3.077    0.923    1.077    3.385 
#    0.000    1.538    0.000    0.000    0.000    0.000 
#    0.000    0.000    0.000    0.000    0.000    0.000 
#
# Total GULP energy -1289300.107506 kJ/mol
# GULP energy per Si atom -12397.116418 kJ/mol
# Density = 1.749825 g / cm^3
# Si number density = 17.538171 Si / 1000 Ang^3
#
#
#
# Elastic Constant Matrix: (Units=GPa)
#
#
# Indices 1 2 3 4 5 6 
#
# 1 83.3159 27.2223 39.0297 0.0000 0.0000 0.0000
# 2 27.2223 83.3159 39.0296 0.0000 0.0000 0.0000
# 3 39.0297 39.0296 120.5978 0.0000 0.0000 0.0000
# 4 0.0000 0.0000 0.0000 23.2842 0.0000 0.0000
# 5 0.0000 0.0000 0.0000 0.0000 23.2847 0.0000
# 6 0.0000 0.0000 0.0000 0.0000 0.0000 21.7891
#
#
#
# Elastic Compliance Matrix: (Units=1/GPa)
#
#
# Indices 1 2 3 4 5 6 
#
# 1 0.014777 -0.003050 -0.003795 0.000000 0.000000 0.000000
# 2 -0.003050 0.014777 -0.003795 0.000000 0.000000 0.000000
# 3 -0.003795 -0.003795 0.010749 0.000000 0.000000 0.000000
# 4 0.000000 0.000000 0.000000 0.042948 0.000000 0.000000
# 5 0.000000 0.000000 0.000000 0.000000 0.042947 0.000000
# 6 0.000000 0.000000 0.000000 0.000000 0.000000 0.045895
#
#
# Mechanical properties :
#
#
# Convention : Reuss Voigt Hill
#
# Bulk Modulus (GPa) = 52.57280 55.31032 53.94156
# Shear Modulus (GPa) = 25.03591 25.80146 25.41868
#
# Velocity S-wave (km/s) = 3.78234 3.83973 3.81114
# Velocity P-wave (km/s) = 7.00829 7.15986 7.08448
#
# Compressibility (1/GPa) = 0.01902124
#
# Stress axis : x y z
#
# Youngs Moduli (GPa) = 67.67263 67.67264 93.03609
#
# Poissons Ratio (x) = 0.20642 0.35309
# Poissons Ratio (y) = 0.20642 0.35309
# Poissons Ratio (z) = 0.25683 0.25683
#
# Static dielectric constant tensor:
#      x y z
#    x 3.123890 0.000000 0.000000 
#    y 0.000000 3.123890 0.000000 
#    z 0.000000 0.000000 3.431310 
# 
# 
# High freq. dielectric constant tensor:
#      x y z
#    x 1.662370 0.000000 0.000000 
#    y 0.000000 1.662370 0.000000 
#    z 0.000000 0.000000 1.691470 
# 
# From -- ./inp_files/6414.got.cif
#   From: 2010.03.12/outbox.cif.g09.slc.cpg/sg136_4_cif.got.tgz:6414.got - 2010.04.06 18:39:43.
