data_PCOD8318563
_publ_section_title
;
Structure prediction by ZEFSAII (Michael W. Deem and Ramdas Pophale) SiO2 
 PCOD8318563
Probable space group: P 42/N M C
;
_chemical_formula_sum "Si O2"
_cell_formula_units_Z 112
_cell_length_a 14.510313
_cell_length_b 14.510313
_cell_length_c 24.772915
_cell_angle_alpha 90.000000
_cell_angle_beta 90.000000
_cell_angle_gamma 90.000000
_cell_volume 5215.917023
_symmetry_space_group_name_H-M "P 42/N M C"
_symmetry_group_IT_number 137
_space_group.IT_coordinate_system_code '2'
_symmetry_cell_setting 'tetragonal'
loop_
_space_group_symop_operation_xyz
x,y,z
1/2-y,x,1/2+z
1/2-x,1/2-y,z
y,1/2-x,1/2+z
1/2+x,-y,-z
-x,1/2+y,-z
1/2+y,1/2+x,1/2-z
-y,-x,1/2-z
-x,-y,-z
1/2+y,-x,1/2-z
1/2+x,1/2+y,-z
-y,1/2+x,1/2-z
1/2-x,y,z
x,1/2-y,z
1/2-y,1/2-x,1/2+z
y,x,1/2+z
loop_
_atom_site_type_symbol
_atom_site_label
_atom_site_fract_x
_atom_site_fract_y
_atom_site_fract_z
Si Si1 0.351407 0.588450 0.303966
Si Si2 0.148074 0.852380 0.416225
Si Si3 0.021125 0.359729 0.107517
Si Si4 0.353765 0.383254 0.324004
Si Si5 0.145046 0.148514 0.702398
Si Si6 0.467168 0.141352 0.528152
Si Si7 0.009062 0.648346 0.592139
O O1 0.413713 0.586288 0.250000
O O2 0.250000 0.614476 0.282359
O O3 0.381127 0.654986 0.352774
O O4 0.353000 0.491284 0.333652
O O5 0.250000 0.900896 0.422771
O O6 0.157376 0.750000 0.439217
O O7 0.065529 0.899290 0.449909
O O8 0.003114 0.250000 0.108076
O O9 0.075117 0.398126 0.160673
O O10 0.083326 0.385288 0.055718
O O11 0.923174 0.411471 0.108369
O O12 0.250000 0.342541 0.332687
O O13 0.388257 0.361684 0.263376
O O14 0.426284 0.341294 0.365254
O O15 0.250000 0.159802 0.684682
O O16 0.096361 0.250000 0.698247
O O17 0.454651 0.250000 0.541795
O O18 0.463289 0.120776 0.464761
O O19 0.055196 0.750000 0.587464
#
# Coordination Sequence:
#
# PCOD8318563 Si02
#       7
#    16  16  16  16  16  16  16
#     4  10  20  31  49  83 122 159 195 234 291 371
#     4   9  18  33  54  82 121 165 200 239 301 376
#     4  11  24  41  63  91 124 163 207 262 322 378
#     4  10  22  38  60  89 119 156 201 255 320 381
#     4   9  19  37  61  89 117 147 190 246 312 380
#     4  10  22  40  64  93 124 160 208 263 319 382
#     4  11  25  43  63  90 123 166 218 266 312 370
#
# _framework density 21.472733999999999
#
# number of rings (size 3 to 8) (size 9 to 14) (size 15 to 20)
#    0.000    2.000    0.000    2.571    4.000    3.857 
#    0.000    4.286    0.000    0.000    0.000    2.000 
#    0.000    0.000    0.000    0.000    0.000    0.000 
#
# Total GULP energy -1388015.229087 kJ/mol
# GULP energy per Si atom -12392.993117 kJ/mol
# Density = 2.142386 g / cm^3
# Si number density = 21.472734 Si / 1000 Ang^3
#
#
#
# Elastic Constant Matrix: (Units=GPa)
#
#
# Indices 1 2 3 4 5 6 
#
# 1 98.4270 32.8714 48.3449 0.0000 0.0000 0.0000
# 2 32.8714 98.4274 48.3450 0.0000 0.0000 0.0000
# 3 48.3449 48.3450 148.3805 0.0000 0.0000 0.0000
# 4 0.0000 0.0000 0.0000 30.0704 0.0000 0.0000
# 5 0.0000 0.0000 0.0000 0.0000 30.0703 0.0000
# 6 0.0000 0.0000 0.0000 0.0000 0.0000 15.3860
#
#
#
# Elastic Compliance Matrix: (Units=1/GPa)
#
#
# Indices 1 2 3 4 5 6 
#
# 1 0.012637 -0.002617 -0.003265 0.000000 0.000000 0.000000
# 2 -0.002617 0.012637 -0.003265 0.000000 0.000000 0.000000
# 3 -0.003265 -0.003265 0.008867 0.000000 0.000000 0.000000
# 4 0.000000 0.000000 0.000000 0.033255 0.000000 0.000000
# 5 0.000000 0.000000 0.000000 0.000000 0.033255 0.000000
# 6 0.000000 0.000000 0.000000 0.000000 0.000000 0.064994
#
#
# Mechanical properties :
#
#
# Convention : Reuss Voigt Hill
#
# Bulk Modulus (GPa) = 63.09738 67.15082 65.12410
# Shear Modulus (GPa) = 26.42392 29.48357 27.95374
#
# Velocity S-wave (km/s) = 3.51177 3.70952 3.61200
# Velocity P-wave (km/s) = 6.77437 7.04896 6.91303
#
# Compressibility (1/GPa) = 0.01584852
#
# Stress axis : x y z
#
# Youngs Moduli (GPa) = 79.13042 79.13073 112.77868
#
# Poissons Ratio (x) = 0.20707 0.36821
# Poissons Ratio (y) = 0.20707 0.36821
# Poissons Ratio (z) = 0.25835 0.25835
#
# Static dielectric constant tensor:
#      x y z
#    x 3.871090 0.000000 0.000000 
#    y 0.000000 3.871090 0.000000 
#    z 0.000000 0.000000 3.795010 
# 
# 
# High freq. dielectric constant tensor:
#      x y z
#    x 1.834290 0.000000 0.000000 
#    y 0.000000 1.834290 0.000000 
#    z 0.000000 0.000000 1.843700 
# 
# From -- ./inp_files/8974.got.cif
#   From: 2010.03.12/outbox.cif.g09.slc.cpg/sg137_5_cif.got.tgz:8974.got - 2010.04.08 09:34:49.
