data_PCOD8318985
_publ_section_title
;
Structure prediction by ZEFSAII (Michael W. Deem and Ramdas Pophale) SiO2 
 PCOD8318985
Probable space group: P 42/N C M
;
_chemical_formula_sum "Si O2"
_cell_formula_units_Z 96
_cell_length_a 21.061889
_cell_length_b 21.061889
_cell_length_c 12.261371
_cell_angle_alpha 90.000000
_cell_angle_beta 90.000000
_cell_angle_gamma 90.000000
_cell_volume 5439.183023
_symmetry_space_group_name_H-M "P 42/N C M"
_symmetry_group_IT_number 138
_space_group.IT_coordinate_system_code '2'
_symmetry_cell_setting 'tetragonal'
loop_
_space_group_symop_operation_xyz
x,y,z
1/2-y,x,1/2+z
1/2-x,1/2-y,z
y,1/2-x,1/2+z
1/2+x,-y,1/2-z
-x,1/2+y,1/2-z
1/2+y,1/2+x,-z
-y,-x,-z
-x,-y,-z
1/2+y,-x,1/2-z
1/2+x,1/2+y,-z
-y,1/2+x,1/2-z
1/2-x,y,1/2+z
x,1/2-y,1/2+z
1/2-y,1/2-x,z
y,x,z
loop_
_atom_site_type_symbol
_atom_site_label
_atom_site_fract_x
_atom_site_fract_y
_atom_site_fract_z
Si Si1 0.060326 0.334610 0.135546
Si Si2 0.356088 0.041346 0.480030
Si Si3 0.349492 0.252815 0.249908
Si Si4 0.380615 0.486991 0.227384
Si Si5 0.213903 0.448028 0.903660
Si Si6 0.017490 0.914796 0.217315
O O1 0.112968 0.387033 0.156609
O O2 0.090639 0.267305 0.174934
O O3 0.997696 0.353676 0.205062
O O4 0.043277 0.329649 0.009401
O O5 0.388310 0.111691 0.465543
O O6 0.354812 0.021511 0.605275
O O7 0.286421 0.034035 0.428315
O O8 0.397798 0.991527 0.410040
O O9 0.306902 0.193099 0.282162
O O10 0.306953 0.306953 0.189391
O O11 0.375354 0.283500 0.361849
O O12 0.429650 0.429650 0.255669
O O13 0.320842 0.488972 0.309435
O O14 0.412486 0.556755 0.236293
O O15 0.970102 0.970102 0.253043
#
# Coordination Sequence:
#
# PCOD8318985 Si02
#       6
#    16  16  16  16  16  16
#     4  10  20  33  48  68 100 143 181 219 265 309
#     4  10  20  35  55  75 102 141 181 221 264 310
#     4  10  20  33  47  67 101 147 192 222 247 295
#     4  10  21  35  54  78 101 137 186 228 265 314
#     4  12  21  31  48  75 108 138 170 217 267 321
#     4   9  18  36  56  73  98 137 185 226 269 315
#
# _framework density 17.649709999999999
#
# number of rings (size 3 to 8) (size 9 to 14) (size 15 to 20)
#    0.000    1.833    1.667    3.500    0.000    5.333 
#    0.000    4.167    0.000    0.000    0.000    0.000 
#    0.000    0.667    1.000    0.000    0.000    0.000 
#
# Total GULP energy -1189367.722873 kJ/mol
# GULP energy per Si atom -12389.247113 kJ/mol
# Density = 1.760954 g / cm^3
# Si number density = 17.649710 Si / 1000 Ang^3
#
#
#
# Elastic Constant Matrix: (Units=GPa)
#
#
# Indices 1 2 3 4 5 6 
#
# 1 80.7251 55.9176 50.1706 0.0000 0.0000 0.0000
# 2 55.9176 80.7251 50.1706 0.0000 0.0000 0.0000
# 3 50.1706 50.1706 133.4219 0.0000 0.0000 0.0000
# 4 0.0000 0.0000 0.0000 21.7927 0.0000 0.0000
# 5 0.0000 0.0000 0.0000 0.0000 21.7927 0.0000
# 6 0.0000 0.0000 0.0000 0.0000 0.0000 31.0416
#
#
#
# Elastic Compliance Matrix: (Units=1/GPa)
#
#
# Indices 1 2 3 4 5 6 
#
# 1 0.025210 -0.015100 -0.003802 0.000000 0.000000 0.000000
# 2 -0.015100 0.025210 -0.003802 0.000000 0.000000 0.000000
# 3 -0.003802 -0.003802 0.010354 0.000000 0.000000 0.000000
# 4 0.000000 0.000000 0.000000 0.045887 0.000000 0.000000
# 5 0.000000 0.000000 0.000000 0.000000 0.045887 0.000000
# 6 0.000000 0.000000 0.000000 0.000000 0.000000 0.032215
#
#
# Mechanical properties :
#
#
# Convention : Reuss Voigt Hill
#
# Bulk Modulus (GPa) = 65.07240 67.48775 66.28008
# Shear Modulus (GPa) = 21.25013 24.16630 22.70821
#
# Velocity S-wave (km/s) = 3.47362 3.70431 3.59082
# Velocity P-wave (km/s) = 7.28265 7.52437 7.40450
#
# Compressibility (1/GPa) = 0.01536750
#
# Stress axis : x y z
#
# Youngs Moduli (GPa) = 39.66641 39.66641 96.57988
#
# Poissons Ratio (x) = 0.59897 0.36717
# Poissons Ratio (y) = 0.59897 0.36717
# Poissons Ratio (z) = 0.15080 0.15080
#
# Static dielectric constant tensor:
#      x y z
#    x 3.244560 0.000000 0.000000 
#    y 0.000000 3.244560 0.000000 
#    z 0.000000 0.000000 3.382350 
# 
# 
# High freq. dielectric constant tensor:
#      x y z
#    x 1.653230 0.000000 0.000000 
#    y 0.000000 1.653230 0.000000 
#    z 0.000000 0.000000 1.692270 
# 
# From -- ./inp_files/3115.got.cif
#   From: 2010.03.12/outbox.cif.g09.slc.cpg/sg138_2_cif.got.tgz:3115.got - 2010.04.08 09:41:05.
