data_PCOD8318853
_publ_section_title
;
Structure prediction by ZEFSAII (Michael W. Deem and Ramdas Pophale) SiO2 
 PCOD8318853
Probable space group: P 42/N C M
;
_chemical_formula_sum "Si O2"
_cell_formula_units_Z 80
_cell_length_a 15.424541
_cell_length_b 15.424541
_cell_length_c 19.875613
_cell_angle_alpha 90.000000
_cell_angle_beta 90.000000
_cell_angle_gamma 90.000000
_cell_volume 4728.735586
_symmetry_space_group_name_H-M "P 42/N C M"
_symmetry_group_IT_number 138
_space_group.IT_coordinate_system_code '2'
_symmetry_cell_setting 'tetragonal'
loop_
_space_group_symop_operation_xyz
x,y,z
1/2-y,x,1/2+z
1/2-x,1/2-y,z
y,1/2-x,1/2+z
1/2+x,-y,1/2-z
-x,1/2+y,1/2-z
1/2+y,1/2+x,-z
-y,-x,-z
-x,-y,-z
1/2+y,-x,1/2-z
1/2+x,1/2+y,-z
-y,1/2+x,1/2-z
1/2-x,y,1/2+z
x,1/2-y,1/2+z
1/2-y,1/2-x,z
y,x,z
loop_
_atom_site_type_symbol
_atom_site_label
_atom_site_fract_x
_atom_site_fract_y
_atom_site_fract_z
Si Si1 0.024631 0.619495 0.656756
Si Si2 0.483972 0.160531 0.620542
Si Si3 0.322153 0.177848 0.797053
Si Si4 0.189844 0.454738 0.472916
Si Si5 0.176991 0.176991 0.445671
Si Si6 0.298507 0.443270 0.721583
O O1 0.113072 0.565441 0.654640
O O2 0.942747 0.557254 0.651748
O O3 0.017972 0.684934 0.592497
O O4 0.019654 0.667409 0.729211
O O5 0.394827 0.105174 0.629215
O O6 0.506469 0.171106 0.541560
O O7 0.478025 0.257241 0.652137
O O8 0.250000 0.250000 0.803759
O O9 0.350973 0.149028 0.870830
O O10 0.284696 0.096020 0.758658
O O11 0.119066 0.380934 0.462072
O O12 0.284641 0.409393 0.480671
O O13 0.250000 0.250000 0.445210
O O14 0.372916 0.372916 0.705083
#
# Coordination Sequence:
#
# PCOD8318853 Si02
#       6
#    16  16   8  16   8  16
#     4   9  17  30  43  58  89 130 157 182 227 286
#     4  10  19  27  41  66  92 119 155 195 235 272
#     4   9  14  24  40  58  84 119 155 180 220 275
#     4   9  16  25  39  61  93 126 155 184 224 277
#     4   9  14  22  38  60  87 125 157 181 218 277
#     4  10  18  28  43  63  91 122 152 191 235 277
#
# _framework density 16.917842
#
# number of rings (size 3 to 8) (size 9 to 14) (size 15 to 20)
#    0.000    2.600    3.000    0.600    1.400    2.400 
#    0.000    0.000    0.000    0.600    0.000    1.400 
#    0.000    9.600    0.000    0.000    0.000    0.000 
#
# Total GULP energy -991199.761283 kJ/mol
# GULP energy per Si atom -12389.997016 kJ/mol
# Density = 1.687934 g / cm^3
# Si number density = 16.917842 Si / 1000 Ang^3
#
#
#
# Elastic Constant Matrix: (Units=GPa)
#
#
# Indices 1 2 3 4 5 6 
#
# 1 38.8309 23.9264 29.0686 0.0000 0.0000 0.0000
# 2 23.9264 38.8309 29.0686 0.0000 0.0000 0.0000
# 3 29.0686 29.0686 81.2725 0.0000 0.0000 0.0000
# 4 0.0000 0.0000 0.0000 18.4555 0.0000 0.0000
# 5 0.0000 0.0000 0.0000 0.0000 18.4555 0.0000
# 6 0.0000 0.0000 0.0000 0.0000 0.0000 22.0227
#
#
#
# Elastic Compliance Matrix: (Units=1/GPa)
#
#
# Indices 1 2 3 4 5 6 
#
# 1 0.045462 -0.021632 -0.008523 0.000000 0.000000 0.000000
# 2 -0.021632 0.045462 -0.008523 0.000000 0.000000 0.000000
# 3 -0.008523 -0.008523 0.018401 0.000000 0.000000 0.000000
# 4 0.000000 0.000000 0.000000 0.054184 0.000000 0.000000
# 5 0.000000 0.000000 0.000000 0.000000 0.054184 0.000000
# 6 0.000000 0.000000 0.000000 0.000000 0.000000 0.045408
#
#
# Mechanical properties :
#
#
# Convention : Reuss Voigt Hill
#
# Bulk Modulus (GPa) = 31.28076 35.89570 33.58823
# Shear Modulus (GPa) = 14.24033 16.91144 15.57589
#
# Velocity S-wave (km/s) = 2.90441 3.16511 3.03756
# Velocity P-wave (km/s) = 5.45687 5.88396 5.67443
#
# Compressibility (1/GPa) = 0.03196853
#
# Stress axis : x y z
#
# Youngs Moduli (GPa) = 21.99632 21.99632 54.34394
#
# Poissons Ratio (x) = 0.47582 0.46319
# Poissons Ratio (y) = 0.47582 0.46319
# Poissons Ratio (z) = 0.18748 0.18748
#
# Static dielectric constant tensor:
#      x y z
#    x 2.803200 0.000000 0.000000 
#    y 0.000000 2.803200 0.000000 
#    z 0.000000 0.000000 3.323370 
# 
# 
# High freq. dielectric constant tensor:
#      x y z
#    x 1.605380 0.000000 0.000000 
#    y 0.000000 1.605380 0.000000 
#    z 0.000000 0.000000 1.662950 
# 
# From -- ./inp_files/5137.got.cif
#   From: 2010.03.12/outbox.cif.g09.slc.cpg/sg138_3_cif.got.tgz:5137.got - 2010.04.08 09:41:05.
