data_PCOD8318776
_publ_section_title
;
Structure prediction by ZEFSAII (Michael W. Deem and Ramdas Pophale) SiO2 
 PCOD8318776
Probable space group: P 42/N M C
;
_chemical_formula_sum "Si O2"
_cell_formula_units_Z 64
_cell_length_a 15.195560
_cell_length_b 15.195560
_cell_length_c 13.773392
_cell_angle_alpha 90.000000
_cell_angle_beta 90.000000
_cell_angle_gamma 90.000000
_cell_volume 3180.345682
_symmetry_space_group_name_H-M "P 42/N M C"
_symmetry_group_IT_number 137
_space_group.IT_coordinate_system_code '2'
_symmetry_cell_setting 'tetragonal'
loop_
_space_group_symop_operation_xyz
x,y,z
1/2-y,x,1/2+z
1/2-x,1/2-y,z
y,1/2-x,1/2+z
1/2+x,-y,-z
-x,1/2+y,-z
1/2+y,1/2+x,1/2-z
-y,-x,1/2-z
-x,-y,-z
1/2+y,-x,1/2-z
1/2+x,1/2+y,-z
-y,1/2+x,1/2-z
1/2-x,y,z
x,1/2-y,z
1/2-y,1/2-x,1/2+z
y,x,1/2+z
loop_
_atom_site_type_symbol
_atom_site_label
_atom_site_fract_x
_atom_site_fract_y
_atom_site_fract_z
Si Si1 0.650988 0.850923 0.346986
Si Si2 0.603103 0.501519 0.494155
Si Si3 0.510288 0.150405 0.786091
Si Si4 0.647199 0.153371 0.354296
O O1 0.750000 0.865037 0.306101
O O2 0.637279 0.750000 0.380201
O O3 0.637515 0.912074 0.440222
O O4 0.581867 0.877596 0.263485
O O5 0.500000 0.500000 0.500000
O O6 0.646047 0.502253 0.599321
O O7 0.628656 0.411988 0.441223
O O8 0.587665 0.087665 0.750000
O O9 0.535598 0.250000 0.756841
O O10 0.613769 0.113769 0.250000
O O11 0.750000 0.164998 0.340859
O O12 0.605366 0.250000 0.377711
#
# Coordination Sequence:
#
# PCOD8318776 Si02
#       4
#    16  16  16  16
#     4  10  23  44  67  92 126 168 214 262 311 368
#     4  12  24  39  65  93 130 164 206 261 313 370
#     4  11  24  43  64  94 130 167 213 258 310 380
#     4   9  20  39  63  93 124 157 204 255 307 372
#
# _framework density 20.123598999999999
#
# number of rings (size 3 to 8) (size 9 to 14) (size 15 to 20)
#    0.000    1.500    2.500    3.000    3.500    3.250 
#    0.000    2.500    0.000    0.000    0.000    0.000 
#    0.000    0.000    0.000    0.000    0.000    0.000 
#
# Total GULP energy -793533.721419 kJ/mol
# GULP energy per Si atom -12398.964397 kJ/mol
# Density = 2.007780 g / cm^3
# Si number density = 20.123599 Si / 1000 Ang^3
#
#
#
# Elastic Constant Matrix: (Units=GPa)
#
#
# Indices 1 2 3 4 5 6 
#
# 1 124.2055 59.6628 61.8974 0.0000 0.0000 0.0000
# 2 59.6628 124.2055 61.8974 0.0000 0.0000 0.0000
# 3 61.8974 61.8974 159.5122 0.0000 0.0000 0.0000
# 4 0.0000 0.0000 0.0000 28.7801 0.0000 0.0000
# 5 0.0000 0.0000 0.0000 0.0000 28.7801 0.0000
# 6 0.0000 0.0000 0.0000 0.0000 0.0000 32.0883
#
#
#
# Elastic Compliance Matrix: (Units=1/GPa)
#
#
# Indices 1 2 3 4 5 6 
#
# 1 0.011428 -0.004066 -0.002857 0.000000 0.000000 0.000000
# 2 -0.004066 0.011428 -0.002857 0.000000 0.000000 0.000000
# 3 -0.002857 -0.002857 0.008486 0.000000 0.000000 0.000000
# 4 0.000000 0.000000 0.000000 0.034746 0.000000 0.000000
# 5 0.000000 0.000000 0.000000 0.000000 0.034746 0.000000
# 6 0.000000 0.000000 0.000000 0.000000 0.000000 0.031164
#
#
# Mechanical properties :
#
#
# Convention : Reuss Voigt Hill
#
# Bulk Modulus (GPa) = 84.86645 86.09318 85.47981
# Shear Modulus (GPa) = 32.15745 32.89406 32.52575
#
# Velocity S-wave (km/s) = 4.00183 4.04741 4.02468
# Velocity P-wave (km/s) = 7.97603 8.04469 8.01043
#
# Compressibility (1/GPa) = 0.01178322
#
# Stress axis : x y z
#
# Youngs Moduli (GPa) = 87.50541 87.50541 117.83785
#
# Poissons Ratio (x) = 0.35578 0.33664
# Poissons Ratio (y) = 0.35578 0.33664
# Poissons Ratio (z) = 0.24999 0.24999
#
# Static dielectric constant tensor:
#      x y z
#    x 3.759490 0.000000 0.000000 
#    y 0.000000 3.759490 0.000000 
#    z 0.000000 0.000000 3.022160 
# 
# 
# High freq. dielectric constant tensor:
#      x y z
#    x 1.796220 0.000000 0.000000 
#    y 0.000000 1.796220 0.000000 
#    z 0.000000 0.000000 1.783760 
# 
# From -- ./inp_files/4719.got.cif
#   From: 2010.03.12/outbox.cif.g09.slc.cpg/sg137_3_cif.got.tgz:4719.got - 2010.04.08 09:34:49.
