data_PCOD8318716
_publ_section_title
;
Structure prediction by ZEFSAII (Michael W. Deem and Ramdas Pophale) SiO2 
 PCOD8318716
Probable space group: P 42/N M C
;
_chemical_formula_sum "Si O2"
_cell_formula_units_Z 64
_cell_length_a 14.133544
_cell_length_b 14.133544
_cell_length_c 15.317848
_cell_angle_alpha 90.000000
_cell_angle_beta 90.000000
_cell_angle_gamma 90.000000
_cell_volume 3059.848374
_symmetry_space_group_name_H-M "P 42/N M C"
_symmetry_group_IT_number 137
_space_group.IT_coordinate_system_code '2'
_symmetry_cell_setting 'tetragonal'
loop_
_space_group_symop_operation_xyz
x,y,z
1/2-y,x,1/2+z
1/2-x,1/2-y,z
y,1/2-x,1/2+z
1/2+x,-y,-z
-x,1/2+y,-z
1/2+y,1/2+x,1/2-z
-y,-x,1/2-z
-x,-y,-z
1/2+y,-x,1/2-z
1/2+x,1/2+y,-z
-y,1/2+x,1/2-z
1/2-x,y,z
x,1/2-y,z
1/2-y,1/2-x,1/2+z
y,x,1/2+z
loop_
_atom_site_type_symbol
_atom_site_label
_atom_site_fract_x
_atom_site_fract_y
_atom_site_fract_z
Si Si1 0.959281 0.545821 0.604445
Si Si2 0.858884 0.958199 0.933616
Si Si3 0.355215 0.142088 0.743466
Si Si4 0.142676 0.644495 0.853026
O O1 0.911489 0.606142 0.525449
O O2 0.913994 0.570515 0.697155
O O3 0.955274 0.432053 0.588825
O O4 0.070441 0.573270 0.601407
O O5 0.750000 0.994755 0.940127
O O6 0.867468 0.880254 0.857977
O O7 0.250000 0.099771 0.757033
O O8 0.358541 0.250000 0.773889
O O9 0.133725 0.633725 0.750000
O O10 0.250000 0.623649 0.882713
O O11 0.112568 0.750000 0.881995
#
# Coordination Sequence:
#
# PCOD8318716 Si02
#       4
#    16  16  16  16
#     4  11  21  36  60  81 109 156 195 231 286 350
#     4  10  22  37  54  82 116 149 191 241 288 336
#     4  10  21  37  59  87 117 149 187 233 285 343
#     4   9  17  29  49  80 113 144 185 237 287 337
#
# _framework density 20.916067999999999
#
# number of rings (size 3 to 8) (size 9 to 14) (size 15 to 20)
#    0.000    2.000    0.000    5.250    0.000    4.000 
#    0.000    6.250    0.000    3.750    0.000    7.000 
#    0.000    0.000    0.000    0.000    0.000    0.000 
#
# Total GULP energy -793216.057533 kJ/mol
# GULP energy per Si atom -12394.000899 kJ/mol
# Density = 2.086846 g / cm^3
# Si number density = 20.916068 Si / 1000 Ang^3
#
#
#
# Elastic Constant Matrix: (Units=GPa)
#
#
# Indices 1 2 3 4 5 6 
#
# 1 110.1497 31.1224 34.9404 0.0000 0.0000 0.0000
# 2 31.1224 110.1497 34.9404 0.0000 0.0000 0.0000
# 3 34.9404 34.9404 84.3646 0.0000 0.0000 0.0000
# 4 0.0000 0.0000 0.0000 27.2559 0.0000 0.0000
# 5 0.0000 0.0000 0.0000 0.0000 27.2559 0.0000
# 6 0.0000 0.0000 0.0000 0.0000 0.0000 16.9962
#
#
#
# Elastic Compliance Matrix: (Units=1/GPa)
#
#
# Indices 1 2 3 4 5 6 
#
# 1 0.010778 -0.001876 -0.003687 0.000000 0.000000 0.000000
# 2 -0.001876 0.010778 -0.003687 0.000000 0.000000 0.000000
# 3 -0.003687 -0.003687 0.014907 0.000000 0.000000 0.000000
# 4 0.000000 0.000000 0.000000 0.036689 0.000000 0.000000
# 5 0.000000 0.000000 0.000000 0.000000 0.036689 0.000000
# 6 0.000000 0.000000 0.000000 0.000000 0.000000 0.058837
#
#
# Mechanical properties :
#
#
# Convention : Reuss Voigt Hill
#
# Bulk Modulus (GPa) = 55.66681 56.29672 55.98177
# Shear Modulus (GPa) = 25.88445 27.87899 26.88172
#
# Velocity S-wave (km/s) = 3.52168 3.65485 3.58888
# Velocity P-wave (km/s) = 6.57332 6.69212 6.63299
#
# Compressibility (1/GPa) = 0.01796402
#
# Stress axis : x y z
#
# Youngs Moduli (GPa) = 92.78089 92.78089 67.08118
#
# Poissons Ratio (x) = 0.17404 0.24733
# Poissons Ratio (y) = 0.17404 0.24733
# Poissons Ratio (z) = 0.34208 0.34208
#
# Static dielectric constant tensor:
#      x y z
#    x 3.851250 0.000000 0.000000 
#    y 0.000000 3.851250 0.000000 
#    z 0.000000 0.000000 3.803980 
# 
# 
# High freq. dielectric constant tensor:
#      x y z
#    x 1.806600 0.000000 0.000000 
#    y 0.000000 1.806600 0.000000 
#    z 0.000000 0.000000 1.825210 
# 
# From -- ./inp_files/4713.got.cif
#   From: 2010.03.12/outbox.cif.g09.slc.cpg/sg137_3_cif.got.tgz:4713.got - 2010.04.08 09:34:49.
