data_PCOD8318276
_publ_section_title
;
Structure prediction by ZEFSAII (Michael W. Deem and Ramdas Pophale) SiO2 
 PCOD8318276
Probable space group: P 42/M N M
;
_chemical_formula_sum "Si O2"
_cell_formula_units_Z 40
_cell_length_a 16.461626
_cell_length_b 16.461626
_cell_length_c 8.643466
_cell_angle_alpha 90.000000
_cell_angle_beta 90.000000
_cell_angle_gamma 90.000000
_cell_volume 2342.250763
_symmetry_space_group_name_H-M "P 42/M N M"
_symmetry_group_IT_number 136
_symmetry_cell_setting 'tetragonal'
loop_
_space_group_symop_operation_xyz
x,y,z
1/2-y,1/2+x,1/2+z
-x,-y,z
1/2+y,1/2-x,1/2+z
1/2+x,1/2-y,1/2-z
1/2-x,1/2+y,1/2-z
y,x,-z
-y,-x,-z
-x,-y,-z
1/2+y,1/2-x,1/2-z
x,y,-z
1/2-y,1/2+x,1/2-z
1/2-x,1/2+y,1/2+z
1/2+x,1/2-y,1/2+z
-y,-x,z
y,x,z
loop_
_atom_site_type_symbol
_atom_site_label
_atom_site_fract_x
_atom_site_fract_y
_atom_site_fract_z
Si Si1 0.225000 0.901973 0.824884
Si Si2 0.449928 0.110862 0.818561
Si Si3 0.065316 0.934685 0.316569
O O1 0.191004 0.808997 0.822023
O O2 0.305818 0.905516 0.723808
O O3 0.154463 0.959365 0.750320
O O4 0.242826 0.930520 0.000000
O O5 0.536939 0.107079 0.734736
O O6 0.464496 0.105208 0.000000
O O7 0.068970 0.931031 0.500000
O O8 0.000000 0.000000 0.257634
#
# Coordination Sequence:
#
# PCOD8318276 Si02
#       3
#    16  16   8
#     4   9  19  34  54  77 107 140 176 220 268 317
#     4  11  21  35  56  79 109 142 182 222 269 322
#     4   9  17  31  53  79 107 141 178 215 266 319
#
# _framework density 17.077591999999999
#
# number of rings (size 3 to 8) (size 9 to 14) (size 15 to 20)
#    1.200    1.000    0.000    6.000    0.000    1.600 
#    0.000    2.000    0.000   12.000    0.000    0.000 
#    0.000    0.000    0.000    0.000    0.000    0.000 
#
# Total GULP energy -495746.737962 kJ/mol
# GULP energy per Si atom -12393.668449 kJ/mol
# Density = 1.703872 g / cm^3
# Si number density = 17.077592 Si / 1000 Ang^3
#
#
#
# Elastic Constant Matrix: (Units=GPa)
#
#
# Indices 1 2 3 4 5 6 
#
# 1 86.0902 34.6919 22.8995 0.0000 0.0000 0.0000
# 2 34.6919 86.0902 22.8995 0.0000 0.0000 0.0000
# 3 22.8995 22.8995 85.6096 0.0000 0.0000 0.0000
# 4 0.0000 0.0000 0.0000 29.0138 0.0000 0.0000
# 5 0.0000 0.0000 0.0000 0.0000 29.0139 0.0000
# 6 0.0000 0.0000 0.0000 0.0000 0.0000 17.0702
#
#
#
# Elastic Compliance Matrix: (Units=1/GPa)
#
#
# Indices 1 2 3 4 5 6 
#
# 1 0.014335 -0.005121 -0.002465 0.000000 0.000000 0.000000
# 2 -0.005121 0.014335 -0.002465 0.000000 0.000000 0.000000
# 3 -0.002465 -0.002465 0.012999 0.000000 0.000000 0.000000
# 4 0.000000 0.000000 0.000000 0.034466 0.000000 0.000000
# 5 0.000000 0.000000 0.000000 0.000000 0.034466 0.000000
# 6 0.000000 0.000000 0.000000 0.000000 0.000000 0.058581
#
#
# Mechanical properties :
#
#
# Convention : Reuss Voigt Hill
#
# Bulk Modulus (GPa) = 46.36318 46.53021 46.44669
# Shear Modulus (GPa) = 25.44875 26.83954 26.14414
#
# Velocity S-wave (km/s) = 3.86448 3.96867 3.91692
# Velocity P-wave (km/s) = 6.86438 6.95025 6.90745
#
# Compressibility (1/GPa) = 0.02156884
#
# Stress axis : x y z
#
# Youngs Moduli (GPa) = 69.75976 69.75982 76.92637
#
# Poissons Ratio (x) = 0.35724 0.18959
# Poissons Ratio (y) = 0.35724 0.18959
# Poissons Ratio (z) = 0.17193 0.17193
#
# Static dielectric constant tensor:
#      x y z
#    x 3.021610 0.000000 0.000000 
#    y 0.000000 3.021610 0.000000 
#    z 0.000000 0.000000 3.286140 
# 
# 
# High freq. dielectric constant tensor:
#      x y z
#    x 1.640770 0.000000 0.000000 
#    y 0.000000 1.640770 0.000000 
#    z 0.000000 0.000000 1.682880 
# 
# From -- ./inp_files/738.got.cif
#   From: 2010.03.12/outbox.cif.g09.slc.cpg/sg136_1_cif.got.tgz:738.got - 2010.04.06 18:39:43.
