data_PCOD8318373
_publ_section_title
;
Structure prediction by ZEFSAII (Michael W. Deem and Ramdas Pophale) SiO2 
 PCOD8318373
Probable space group: P 42/N M C
;
_chemical_formula_sum "Si O2"
_cell_formula_units_Z 112
_cell_length_a 15.399266
_cell_length_b 15.399266
_cell_length_c 25.881356
_cell_angle_alpha 90.000000
_cell_angle_beta 90.000000
_cell_angle_gamma 90.000000
_cell_volume 6137.437298
_symmetry_space_group_name_H-M "P 42/N M C"
_symmetry_group_IT_number 137
_space_group.IT_coordinate_system_code '2'
_symmetry_cell_setting 'tetragonal'
loop_
_space_group_symop_operation_xyz
x,y,z
1/2-y,x,1/2+z
1/2-x,1/2-y,z
y,1/2-x,1/2+z
1/2+x,-y,-z
-x,1/2+y,-z
1/2+y,1/2+x,1/2-z
-y,-x,1/2-z
-x,-y,-z
1/2+y,-x,1/2-z
1/2+x,1/2+y,-z
-y,1/2+x,1/2-z
1/2-x,y,z
x,1/2-y,z
1/2-y,1/2-x,1/2+z
y,x,1/2+z
loop_
_atom_site_type_symbol
_atom_site_label
_atom_site_fract_x
_atom_site_fract_y
_atom_site_fract_z
Si Si1 0.844974 0.853176 0.231893
Si Si2 0.074133 0.003220 0.541732
Si Si3 0.151202 0.850029 0.012232
Si Si4 0.091112 0.148351 0.876073
Si Si5 0.056649 0.577968 0.388713
Si Si6 0.655510 0.851032 0.016000
Si Si7 0.977271 0.149555 0.719378
O O1 0.750000 0.886720 0.251814
O O2 0.844977 0.750000 0.231030
O O3 0.858490 0.889447 0.173593
O O4 0.925114 0.884586 0.267505
O O5 0.134016 0.086291 0.529084
O O6 0.030270 0.021406 0.597304
O O7 0.127328 0.912845 0.536063
O O8 0.000000 0.000000 0.500000
O O9 0.250000 0.866458 0.994076
O O10 0.136466 0.750000 0.027994
O O11 0.132158 0.909536 0.062106
O O12 0.105125 0.250000 0.878427
O O13 0.125828 0.105423 0.929467
O O14 0.988915 0.129925 0.869941
O O15 0.035408 0.642585 0.342088
O O16 0.750000 0.890009 0.000367
O O17 0.664300 0.750000 0.025326
O O18 0.906929 0.093072 0.750000
O O19 0.965215 0.250000 0.735742
#
# Coordination Sequence:
#
# PCOD8318373 Si02
#       7
#    16  16  16  16  16  16  16
#     4   9  18  34  55  77 102 137 180 228 278 323
#     4  10  20  33  49  73 105 139 174 220 264 313
#     4  10  20  35  55  76 106 150 189 220 263 327
#     4  10  17  30  53  77 103 133 172 222 274 323
#     4  11  21  35  51  79 110 146 178 222 277 323
#     4  10  19  31  50  75 102 133 173 222 271 319
#     4  11  23  38  57  81 117 152 186 230 275 336
#
# _framework density 18.248657999999999
#
# number of rings (size 3 to 8) (size 9 to 14) (size 15 to 20)
#    0.000    1.857    4.286    1.714    0.000    5.286 
#    0.000    1.429    0.000    1.714    0.000    0.000 
#    0.000    0.286    0.000    0.143    0.000    0.000 
#
# Total GULP energy -1387911.198236 kJ/mol
# GULP energy per Si atom -12392.064270 kJ/mol
# Density = 1.820712 g / cm^3
# Si number density = 18.248658 Si / 1000 Ang^3
#
#
#
# Elastic Constant Matrix: (Units=GPa)
#
#
# Indices 1 2 3 4 5 6 
#
# 1 96.6138 30.3885 23.3008 0.0000 0.0000 0.0000
# 2 30.3885 96.6137 23.3012 0.0000 0.0000 0.0000
# 3 23.3008 23.3012 57.8509 0.0000 0.0000 0.0000
# 4 0.0000 0.0000 0.0000 19.2015 0.0000 0.0000
# 5 0.0000 0.0000 0.0000 0.0000 19.2016 0.0000
# 6 0.0000 0.0000 0.0000 0.0000 0.0000 20.1744
#
#
#
# Elastic Compliance Matrix: (Units=1/GPa)
#
#
# Indices 1 2 3 4 5 6 
#
# 1 0.012170 -0.002930 -0.003721 0.000000 0.000000 0.000000
# 2 -0.002930 0.012170 -0.003721 0.000000 0.000000 0.000000
# 3 -0.003721 -0.003721 0.020284 0.000000 0.000000 0.000000
# 4 0.000000 0.000000 0.000000 0.052079 0.000000 0.000000
# 5 0.000000 0.000000 0.000000 0.000000 0.052079 0.000000
# 6 0.000000 0.000000 0.000000 0.000000 0.000000 0.049568
#
#
# Mechanical properties :
#
#
# Convention : Reuss Voigt Hill
#
# Bulk Modulus (GPa) = 41.88171 45.00658 43.44415
# Shear Modulus (GPa) = 22.02119 23.32137 22.67128
#
# Velocity S-wave (km/s) = 3.47757 3.57876 3.52853
# Velocity P-wave (km/s) = 6.25500 6.46477 6.36075
#
# Compressibility (1/GPa) = 0.02387677
#
# Stress axis : x y z
#
# Youngs Moduli (GPa) = 82.17159 82.17115 49.30086
#
# Poissons Ratio (x) = 0.24078 0.18347
# Poissons Ratio (y) = 0.24079 0.18347
# Poissons Ratio (z) = 0.30579 0.30580
#
# Static dielectric constant tensor:
#      x y z
#    x 3.741350 0.000000 0.000000 
#    y 0.000000 3.741350 0.000000 
#    z 0.000000 0.000000 3.473890 
# 
# 
# High freq. dielectric constant tensor:
#      x y z
#    x 1.700420 0.000000 0.000000 
#    y 0.000000 1.700420 0.000000 
#    z 0.000000 0.000000 1.678900 
# 
# From -- ./inp_files/9824.got.cif
#   From: 2010.03.12/outbox.cif.g09.slc.cpg/sg137_5_cif.got.tgz:9824.got - 2010.04.08 09:34:49.
