data_PCOD8318314
_publ_section_title
;
Structure prediction by ZEFSAII (Michael W. Deem and Ramdas Pophale) SiO2 
 PCOD8318314
Probable space group: P 42/M N M
;
_chemical_formula_sum "Si O2"
_cell_formula_units_Z 52
_cell_length_a 11.184609
_cell_length_b 11.184609
_cell_length_c 19.529192
_cell_angle_alpha 90.000000
_cell_angle_beta 90.000000
_cell_angle_gamma 90.000000
_cell_volume 2443.013618
_symmetry_space_group_name_H-M "P 42/M N M"
_symmetry_group_IT_number 136
_symmetry_cell_setting 'tetragonal'
loop_
_space_group_symop_operation_xyz
x,y,z
1/2-y,1/2+x,1/2+z
-x,-y,z
1/2+y,1/2-x,1/2+z
1/2+x,1/2-y,1/2-z
1/2-x,1/2+y,1/2-z
y,x,-z
-y,-x,-z
-x,-y,-z
1/2+y,1/2-x,1/2-z
x,y,-z
1/2-y,1/2+x,1/2-z
1/2-x,1/2+y,1/2+z
1/2+x,1/2-y,1/2+z
-y,-x,z
y,x,z
loop_
_atom_site_type_symbol
_atom_site_label
_atom_site_fract_x
_atom_site_fract_y
_atom_site_fract_z
Si Si1 0.309896 0.500589 0.611695
Si Si2 0.665937 0.334064 0.000000
Si Si3 0.598739 0.401262 0.850738
Si Si4 0.305152 0.029302 0.253378
Si Si5 0.947111 0.370005 0.000000
O O1 0.397029 0.602972 0.583113
O O2 0.371738 0.371738 0.602965
O O3 0.285326 0.525886 0.690603
O O4 0.189788 0.500091 0.568116
O O5 0.607766 0.392235 0.067423
O O6 0.635531 0.194727 0.000000
O O7 0.500000 0.500000 0.831186
O O8 0.559963 0.271813 0.820840
O O9 0.401477 0.132230 0.238217
O O10 0.000000 0.500000 0.000000
#
# Coordination Sequence:
#
# PCOD8318314 Si02
#       5
#    16   4   8  16   8
#     4  11  23  44  71 102 135 182 237 300 357 411
#     4  12  27  50  71 102 152 192 236 291 364 440
#     4  12  27  48  74 105 144 192 236 293 359 431
#     4  11  26  44  71 105 143 185 238 292 353 424
#     4  12  27  45  72 102 143 187 237 293 360 432
#
# _framework density 21.285184000000001
#
# number of rings (size 3 to 8) (size 9 to 14) (size 15 to 20)
#    0.000    0.615    3.077    3.462   12.923    1.231 
#    0.000    1.538    0.000    0.000    0.000    0.000 
#    0.000    0.000    0.000    0.000    0.000    0.000 
#
# Total GULP energy -645120.866780 kJ/mol
# GULP energy per Si atom -12406.170515 kJ/mol
# Density = 2.123674 g / cm^3
# Si number density = 21.285184 Si / 1000 Ang^3
#
#
#
# Elastic Constant Matrix: (Units=GPa)
#
#
# Indices 1 2 3 4 5 6 
#
# 1 142.0578 70.1376 44.0434 0.0000 0.0000 0.0000
# 2 70.1376 142.0573 44.0434 0.0000 0.0000 0.0000
# 3 44.0434 44.0434 131.6113 0.0000 0.0000 0.0000
# 4 0.0000 0.0000 0.0000 37.6855 0.0000 0.0000
# 5 0.0000 0.0000 0.0000 0.0000 37.6856 0.0000
# 6 0.0000 0.0000 0.0000 0.0000 0.0000 33.0027
#
#
#
# Elastic Compliance Matrix: (Units=1/GPa)
#
#
# Indices 1 2 3 4 5 6 
#
# 1 0.009689 -0.004216 -0.001831 0.000000 0.000000 0.000000
# 2 -0.004216 0.009689 -0.001832 0.000000 0.000000 0.000000
# 3 -0.001831 -0.001832 0.008824 0.000000 0.000000 0.000000
# 4 0.000000 0.000000 0.000000 0.026535 0.000000 0.000000
# 5 0.000000 0.000000 0.000000 0.000000 0.026535 0.000000
# 6 0.000000 0.000000 0.000000 0.000000 0.000000 0.030301
#
#
# Mechanical properties :
#
#
# Convention : Reuss Voigt Hill
#
# Bulk Modulus (GPa) = 80.36126 81.35280 80.85703
# Shear Modulus (GPa) = 38.02920 38.84156 38.43538
#
# Velocity S-wave (km/s) = 4.23147 4.27642 4.25400
# Velocity P-wave (km/s) = 7.85559 7.91752 7.88661
#
# Compressibility (1/GPa) = 0.01244381
#
# Stress axis : x y z
#
# Youngs Moduli (GPa) = 103.21385 103.21344 113.32800
#
# Poissons Ratio (x) = 0.43512 0.20756
# Poissons Ratio (y) = 0.43512 0.20756
# Poissons Ratio (z) = 0.18904 0.18904
#
# Static dielectric constant tensor:
#      x y z
#    x 3.877530 0.000000 0.000000 
#    y 0.000000 3.877530 0.000000 
#    z 0.000000 0.000000 3.861080 
# 
# 
# High freq. dielectric constant tensor:
#      x y z
#    x 1.843490 0.000000 0.000000 
#    y 0.000000 1.843490 0.000000 
#    z 0.000000 0.000000 1.844400 
# 
# From -- ./inp_files/6965.got.cif
#   From: 2010.03.12/outbox.cif.g09.slc.cpg/sg136_4_cif.got.tgz:6965.got - 2010.04.06 18:39:43.
