data_PCOD8318860
_publ_section_title
;
Structure prediction by ZEFSAII (Michael W. Deem and Ramdas Pophale) SiO2 
 PCOD8318860
Probable space group: P 42/N C M
;
_chemical_formula_sum "Si O2"
_cell_formula_units_Z 96
_cell_length_a 13.844200
_cell_length_b 13.844200
_cell_length_c 29.849058
_cell_angle_alpha 90.000000
_cell_angle_beta 90.000000
_cell_angle_gamma 90.000000
_cell_volume 5720.926383
_symmetry_space_group_name_H-M "P 42/N C M"
_symmetry_group_IT_number 138
_space_group.IT_coordinate_system_code '2'
_symmetry_cell_setting 'tetragonal'
loop_
_space_group_symop_operation_xyz
x,y,z
1/2-y,x,1/2+z
1/2-x,1/2-y,z
y,1/2-x,1/2+z
1/2+x,-y,1/2-z
-x,1/2+y,1/2-z
1/2+y,1/2+x,-z
-y,-x,-z
-x,-y,-z
1/2+y,-x,1/2-z
1/2+x,1/2+y,-z
-y,1/2+x,1/2-z
1/2-x,y,1/2+z
x,1/2-y,1/2+z
1/2-y,1/2-x,z
y,x,z
loop_
_atom_site_type_symbol
_atom_site_label
_atom_site_fract_x
_atom_site_fract_y
_atom_site_fract_z
Si Si1 0.647273 0.008168 0.719080
Si Si2 0.892536 0.043520 0.951629
Si Si3 0.633112 0.475943 0.719891
Si Si4 0.509925 0.662138 0.117382
Si Si5 0.032776 0.875392 0.617594
Si Si6 0.799112 0.145893 0.451831
O O1 0.758355 0.993908 0.731863
O O2 0.606743 0.099710 0.745988
O O3 0.637122 0.030628 0.666527
O O4 0.588747 0.911254 0.732515
O O5 0.932233 0.121283 0.916808
O O6 0.776952 0.056249 0.950877
O O7 0.928936 0.071065 0.000000
O O8 0.935201 0.935201 0.940336
O O9 0.572913 0.572913 0.726929
O O10 0.619522 0.435454 0.669535
O O11 0.614496 0.614496 0.109511
O O12 0.524447 0.775647 0.109520
O O13 0.127253 0.879737 0.587303
O O14 0.962900 0.962900 0.604161
O O15 0.750000 0.250000 0.443016
O O16 0.852219 0.147782 0.500000
#
# Coordination Sequence:
#
# PCOD8318860 Si02
#       6
#    16  16  16  16  16  16
#     4   9  18  32  48  69  98 128 162 203 245 296
#     4  10  18  30  49  72  99 130 163 204 249 289
#     4   9  19  34  49  71 100 127 162 206 248 296
#     4   9  17  30  49  73  98 126 162 200 249 303
#     4  10  20  33  50  72 101 133 162 203 255 296
#     4  11  19  33  51  75 102 130 168 209 244 298
#
# _framework density 16.780498000000001
#
# number of rings (size 3 to 8) (size 9 to 14) (size 15 to 20)
#    0.000    2.333    3.333    0.000    0.000    2.667 
#    0.000    3.333    0.000    0.500    0.000    2.333 
#    0.000    0.000    0.000    0.333    0.000    0.167 
#
# Total GULP energy -1190037.661859 kJ/mol
# GULP energy per Si atom -12396.225644 kJ/mol
# Density = 1.674230 g / cm^3
# Si number density = 16.780498 Si / 1000 Ang^3
#
#
#
# Elastic Constant Matrix: (Units=GPa)
#
#
# Indices 1 2 3 4 5 6 
#
# 1 98.9010 45.0639 47.5146 0.0000 0.0000 0.0000
# 2 45.0639 98.9009 47.5146 0.0000 0.0000 0.0000
# 3 47.5146 47.5146 78.9761 0.0000 0.0000 0.0000
# 4 0.0000 0.0000 0.0000 25.8906 0.0000 0.0000
# 5 0.0000 0.0000 0.0000 0.0000 25.8895 0.0000
# 6 0.0000 0.0000 0.0000 0.0000 0.0000 22.8877
#
#
#
# Elastic Compliance Matrix: (Units=1/GPa)
#
#
# Indices 1 2 3 4 5 6 
#
# 1 0.015048 -0.003526 -0.006932 0.000000 0.000000 0.000000
# 2 -0.003526 0.015048 -0.006932 0.000000 0.000000 0.000000
# 3 -0.006932 -0.006932 0.021003 0.000000 0.000000 0.000000
# 4 0.000000 0.000000 0.000000 0.038624 0.000000 0.000000
# 5 0.000000 0.000000 0.000000 0.000000 0.038626 0.000000
# 6 0.000000 0.000000 0.000000 0.000000 0.000000 0.043692
#
#
# Mechanical properties :
#
#
# Convention : Reuss Voigt Hill
#
# Bulk Modulus (GPa) = 61.27832 61.88493 61.58163
# Shear Modulus (GPa) = 23.55596 24.04590 23.80093
#
# Velocity S-wave (km/s) = 3.75076 3.78956 3.77021
# Velocity P-wave (km/s) = 7.44006 7.49045 7.46530
#
# Compressibility (1/GPa) = 0.01631898
#
# Stress axis : x y z
#
# Youngs Moduli (GPa) = 66.45334 66.45324 47.61236
#
# Poissons Ratio (x) = 0.23434 0.33004
# Poissons Ratio (y) = 0.23434 0.33004
# Poissons Ratio (z) = 0.46065 0.46065
#
# Static dielectric constant tensor:
#      x y z
#    x 3.208180 0.000000 0.000000 
#    y 0.000000 3.208190 0.000000 
#    z 0.000000 0.000000 3.285970 
# 
# 
# High freq. dielectric constant tensor:
#      x y z
#    x 1.635060 0.000000 0.000000 
#    y 0.000000 1.635060 0.000000 
#    z 0.000000 0.000000 1.656640 
# 
# From -- ./inp_files/8202.got.cif
#   From: 2010.03.12/outbox.cif.g09.slc.cpg/sg138_5_cif.got.tgz:8202.got - 2010.04.08 09:41:05.
