data_PCOD8318950
_publ_section_title
;
Structure prediction by ZEFSAII (Michael W. Deem and Ramdas Pophale) SiO2 
 PCOD8318950
Probable space group: P 42/N C M
;
_chemical_formula_sum "Si O2"
_cell_formula_units_Z 64
_cell_length_a 11.290956
_cell_length_b 11.290956
_cell_length_c 24.034931
_cell_angle_alpha 90.000000
_cell_angle_beta 90.000000
_cell_angle_gamma 90.000000
_cell_volume 3064.109700
_symmetry_space_group_name_H-M "P 42/N C M"
_symmetry_group_IT_number 138
_space_group.IT_coordinate_system_code '2'
_symmetry_cell_setting 'tetragonal'
loop_
_space_group_symop_operation_xyz
x,y,z
1/2-y,x,1/2+z
1/2-x,1/2-y,z
y,1/2-x,1/2+z
1/2+x,-y,1/2-z
-x,1/2+y,1/2-z
1/2+y,1/2+x,-z
-y,-x,-z
-x,-y,-z
1/2+y,-x,1/2-z
1/2+x,1/2+y,-z
-y,1/2+x,1/2-z
1/2-x,y,1/2+z
x,1/2-y,1/2+z
1/2-y,1/2-x,z
y,x,z
loop_
_atom_site_type_symbol
_atom_site_label
_atom_site_fract_x
_atom_site_fract_y
_atom_site_fract_z
Si Si1 0.508536 0.191358 0.016372
Si Si2 0.739688 0.437754 0.255227
Si Si3 0.650697 0.650697 0.181149
Si Si4 0.059589 0.247601 0.632509
Si Si5 0.849740 0.650261 0.553813
O O1 0.406543 0.093458 0.014433
O O2 0.526081 0.236815 0.079397
O O3 0.468881 0.299972 0.976190
O O4 0.635043 0.135043 0.000000
O O5 0.850293 0.367885 0.229184
O O6 0.699908 0.534937 0.211177
O O7 0.787248 0.490278 0.312942
O O8 0.750000 0.750000 0.184695
O O9 0.618559 0.618559 0.117556
O O10 0.155848 0.344153 0.615796
O O11 0.122587 0.122587 0.646097
O O12 0.750000 0.750000 0.551638
#
# Coordination Sequence:
#
# PCOD8318950 Si02
#       5
#    16  16   8  16   8
#     4   9  17  30  52  87 122 162 203 253 311 367
#     4  11  26  43  61  90 125 168 209 261 321 379
#     4  11  24  40  67  94 125 163 208 263 320 374
#     4  10  19  34  60  89 122 159 210 260 306 376
#     4   9  18  34  53  87 128 153 202 264 308 371
#
# _framework density 20.886980999999999
#
# number of rings (size 3 to 8) (size 9 to 14) (size 15 to 20)
#    0.000    2.000    2.500    0.750    7.000    0.000 
#    0.000    0.000    0.000    3.000    0.000    0.000 
#    0.000    0.000    0.000    0.000    0.000    0.000 
#
# Total GULP energy -793602.737965 kJ/mol
# GULP energy per Si atom -12400.042781 kJ/mol
# Density = 2.083944 g / cm^3
# Si number density = 20.886981 Si / 1000 Ang^3
#
#
#
# Elastic Constant Matrix: (Units=GPa)
#
#
# Indices 1 2 3 4 5 6 
#
# 1 71.3976 34.0226 37.8430 0.0000 0.0000 0.0000
# 2 34.0226 71.3976 37.8430 0.0000 0.0000 0.0000
# 3 37.8430 37.8430 148.4425 0.0000 0.0000 0.0000
# 4 0.0000 0.0000 0.0000 20.4213 0.0000 0.0000
# 5 0.0000 0.0000 0.0000 0.0000 20.4213 0.0000
# 6 0.0000 0.0000 0.0000 0.0000 0.0000 32.9537
#
#
#
# Elastic Compliance Matrix: (Units=1/GPa)
#
#
# Indices 1 2 3 4 5 6 
#
# 1 0.019183 -0.007572 -0.002960 0.000000 0.000000 0.000000
# 2 -0.007572 0.019183 -0.002960 0.000000 0.000000 0.000000
# 3 -0.002960 -0.002960 0.008246 0.000000 0.000000 0.000000
# 4 0.000000 0.000000 0.000000 0.048969 0.000000 0.000000
# 5 0.000000 0.000000 0.000000 0.000000 0.048969 0.000000
# 6 0.000000 0.000000 0.000000 0.000000 0.000000 0.030346
#
#
# Mechanical properties :
#
#
# Convention : Reuss Voigt Hill
#
# Bulk Modulus (GPa) = 50.94843 56.73943 53.84393
# Shear Modulus (GPa) = 23.98968 26.86119 25.42543
#
# Velocity S-wave (km/s) = 3.39270 3.59001 3.49275
# Velocity P-wave (km/s) = 6.30814 6.66395 6.48848
#
# Compressibility (1/GPa) = 0.01962769
#
# Stress axis : x y z
#
# Youngs Moduli (GPa) = 52.12835 52.12835 121.27333
#
# Poissons Ratio (x) = 0.39474 0.35897
# Poissons Ratio (y) = 0.39474 0.35897
# Poissons Ratio (z) = 0.15430 0.15430
#
# Static dielectric constant tensor:
#      x y z
#    x 3.689600 0.000000 0.000000 
#    y 0.000000 3.689600 0.000000 
#    z 0.000000 0.000000 3.841520 
# 
# 
# High freq. dielectric constant tensor:
#      x y z
#    x 1.804440 0.000000 0.000000 
#    y 0.000000 1.804440 0.000000 
#    z 0.000000 0.000000 1.827290 
# 
# From -- ./inp_files/6788.got.cif
#   From: 2010.03.12/outbox.cif.g09.slc.cpg/sg138_4_cif.got.tgz:6788.got - 2010.04.08 09:41:05.
