data_PCOD8318203
_publ_section_title
;
Structure prediction by ZEFSAII (Michael W. Deem and Ramdas Pophale) SiO2 
 PCOD8318203
Probable space group: P 42/M N M
;
_chemical_formula_sum "Si O2"
_cell_formula_units_Z 40
_cell_length_a 13.207154
_cell_length_b 13.207154
_cell_length_c 13.221034
_cell_angle_alpha 90.000000
_cell_angle_beta 90.000000
_cell_angle_gamma 90.000000
_cell_volume 2306.130639
_symmetry_space_group_name_H-M "P 42/M N M"
_symmetry_group_IT_number 136
_symmetry_cell_setting 'tetragonal'
loop_
_space_group_symop_operation_xyz
x,y,z
1/2-y,1/2+x,1/2+z
-x,-y,z
1/2+y,1/2-x,1/2+z
1/2+x,1/2-y,1/2-z
1/2-x,1/2+y,1/2-z
y,x,-z
-y,-x,-z
-x,-y,-z
1/2+y,1/2-x,1/2-z
x,y,-z
1/2-y,1/2+x,1/2-z
1/2-x,1/2+y,1/2+z
1/2+x,1/2-y,1/2+z
-y,-x,z
y,x,z
loop_
_atom_site_type_symbol
_atom_site_label
_atom_site_fract_x
_atom_site_fract_y
_atom_site_fract_z
Si Si1 0.118249 0.276128 0.274007
Si Si2 0.979871 0.383253 0.882756
Si Si3 0.581850 0.418151 0.880030
O O1 0.223960 0.223960 0.239329
O O2 0.144718 0.366908 0.349815
O O3 0.060016 0.313944 0.175430
O O4 0.051260 0.192602 0.335455
O O5 0.000000 0.500000 0.856185
O O6 0.994399 0.359731 0.000000
O O7 0.500000 0.500000 0.843224
O O8 0.587455 0.412546 0.000000
#
# Coordination Sequence:
#
# PCOD8318203 Si02
#       3
#    16  16   8
#     4  10  21  37  59  87 117 154 193 238 294 347
#     4  11  21  39  62  85 116 155 199 245 291 351
#     4   9  20  38  59  87 118 148 190 237 289 347
#
# _framework density 17.345071999999998
#
# number of rings (size 3 to 8) (size 9 to 14) (size 15 to 20)
#    1.200    0.600    4.000    1.200    0.000    2.400 
#    0.000    0.000    0.000    1.200    0.000    0.000 
#    0.000    0.000    0.000    0.000    0.000    0.000 
#
# Total GULP energy -495836.582616 kJ/mol
# GULP energy per Si atom -12395.914565 kJ/mol
# Density = 1.730559 g / cm^3
# Si number density = 17.345072 Si / 1000 Ang^3
#
#
#
# Elastic Constant Matrix: (Units=GPa)
#
#
# Indices 1 2 3 4 5 6 
#
# 1 120.3870 62.4539 63.6234 0.0000 0.0000 0.0000
# 2 62.4539 120.3867 63.6231 0.0000 0.0000 0.0000
# 3 63.6234 63.6231 131.8838 0.0000 0.0000 0.0000
# 4 0.0000 0.0000 0.0000 26.2698 0.0000 0.0000
# 5 0.0000 0.0000 0.0000 0.0000 26.2697 0.0000
# 6 0.0000 0.0000 0.0000 0.0000 0.0000 43.2979
#
#
#
# Elastic Compliance Matrix: (Units=1/GPa)
#
#
# Indices 1 2 3 4 5 6 
#
# 1 0.012747 -0.004514 -0.003972 0.000000 0.000000 0.000000
# 2 -0.004514 0.012747 -0.003972 0.000000 0.000000 0.000000
# 3 -0.003972 -0.003972 0.011415 0.000000 0.000000 0.000000
# 4 0.000000 0.000000 0.000000 0.038067 0.000000 0.000000
# 5 0.000000 0.000000 0.000000 0.000000 0.038067 0.000000
# 6 0.000000 0.000000 0.000000 0.000000 0.000000 0.023096
#
#
# Mechanical properties :
#
#
# Convention : Reuss Voigt Hill
#
# Bulk Modulus (GPa) = 83.37646 83.56204 83.46925
# Shear Modulus (GPa) = 30.29339 31.36460 30.82899
#
# Velocity S-wave (km/s) = 4.18366 4.25699 4.22049
# Velocity P-wave (km/s) = 8.45642 8.51137 8.48394
#
# Compressibility (1/GPa) = 0.01199379
#
# Stress axis : x y z
#
# Youngs Moduli (GPa) = 78.44722 78.44717 87.60564
#
# Poissons Ratio (x) = 0.35410 0.34797
# Poissons Ratio (y) = 0.35410 0.34797
# Poissons Ratio (z) = 0.31159 0.31159
#
# Static dielectric constant tensor:
#      x y z
#    x 3.235490 0.000000 0.000000 
#    y 0.000000 3.235500 0.000000 
#    z 0.000000 0.000000 3.152310 
# 
# 
# High freq. dielectric constant tensor:
#      x y z
#    x 1.665630 0.000000 0.000000 
#    y 0.000000 1.665630 0.000000 
#    z 0.000000 0.000000 1.676070 
# 
# From -- ./inp_files/4374.got.cif
#   From: 2010.03.12/outbox.cif.g09.slc.cpg/sg136_3_cif.got.tgz:4374.got - 2010.04.06 18:39:43.
