data_PCOD8318817
_publ_section_title
;
Structure prediction by ZEFSAII (Michael W. Deem and Ramdas Pophale) SiO2 
 PCOD8318817
Probable space group: P 42/N M C
;
_chemical_formula_sum "Si O2"
_cell_formula_units_Z 20
_cell_length_a 9.713155
_cell_length_b 9.713155
_cell_length_c 8.807543
_cell_angle_alpha 90.000000
_cell_angle_beta 90.000000
_cell_angle_gamma 90.000000
_cell_volume 830.950992
_symmetry_space_group_name_H-M "P 42/N M C"
_symmetry_group_IT_number 137
_space_group.IT_coordinate_system_code '2'
_symmetry_cell_setting 'tetragonal'
loop_
_space_group_symop_operation_xyz
x,y,z
1/2-y,x,1/2+z
1/2-x,1/2-y,z
y,1/2-x,1/2+z
1/2+x,-y,-z
-x,1/2+y,-z
1/2+y,1/2+x,1/2-z
-y,-x,1/2-z
-x,-y,-z
1/2+y,-x,1/2-z
1/2+x,1/2+y,-z
-y,1/2+x,1/2-z
1/2-x,y,z
x,1/2-y,z
1/2-y,1/2-x,1/2+z
y,x,1/2+z
loop_
_atom_site_type_symbol
_atom_site_label
_atom_site_fract_x
_atom_site_fract_y
_atom_site_fract_z
Si Si1 0.750000 0.953119 0.824021
Si Si2 0.250000 0.750000 0.042510
Si Si3 0.250000 0.452848 0.531958
O O1 0.750000 0.923070 0.646442
O O2 0.750000 0.115504 0.850604
O O3 0.886625 0.886621 0.896104
O O4 0.384024 0.750000 0.934509
#
# Coordination Sequence:
#
# PCOD8318817 Si02
#       3
#     8   4   8
#     4  11  23  43  64  90 124 163 203 251 304 362
#     4  12  25  40  65  94 125 160 205 254 305 360
#     4  11  23  43  64  90 124 163 203 251 304 362
#
# _framework density 24.068808000000001
#
# number of rings (size 3 to 8) (size 9 to 14) (size 15 to 20)
#    0.000    0.800    0.000   10.800    0.000    0.000 
#    0.000   20.000    0.000    0.000    0.000    0.000 
#    0.000    0.000    0.000    0.000    0.000    0.000 
#
# Total GULP energy -248090.132134 kJ/mol
# GULP energy per Si atom -12404.506607 kJ/mol
# Density = 2.401403 g / cm^3
# Si number density = 24.068808 Si / 1000 Ang^3
#
#
#
# Elastic Constant Matrix: (Units=GPa)
#
#
# Indices 1 2 3 4 5 6 
#
# 1 220.1181 73.2903 70.0452 0.0000 0.0000 0.0000
# 2 73.2903 220.1181 70.0452 0.0000 0.0000 0.0000
# 3 70.0452 70.0452 125.6194 0.0000 0.0000 0.0000
# 4 0.0000 0.0000 0.0000 23.5220 0.0000 0.0000
# 5 0.0000 0.0000 0.0000 0.0000 23.5220 0.0000
# 6 0.0000 0.0000 0.0000 0.0000 0.0000 24.3469
#
#
#
# Elastic Compliance Matrix: (Units=1/GPa)
#
#
# Indices 1 2 3 4 5 6 
#
# 1 0.005728 -0.001083 -0.002590 0.000000 0.000000 0.000000
# 2 -0.001083 0.005728 -0.002590 0.000000 0.000000 0.000000
# 3 -0.002590 -0.002590 0.010849 0.000000 0.000000 0.000000
# 4 0.000000 0.000000 0.000000 0.042513 0.000000 0.000000
# 5 0.000000 0.000000 0.000000 0.000000 0.042513 0.000000
# 6 0.000000 0.000000 0.000000 0.000000 0.000000 0.041073
#
#
# Mechanical properties :
#
#
# Convention : Reuss Voigt Hill
#
# Bulk Modulus (GPa) = 102.26302 110.29079 106.27690
# Shear Modulus (GPa) = 30.45265 37.77651 34.11458
#
# Velocity S-wave (km/s) = 3.56087 3.96602 3.76889
# Velocity P-wave (km/s) = 7.71274 8.17894 7.94926
#
# Compressibility (1/GPa) = 0.00977871
#
# Stress axis : x y z
#
# Youngs Moduli (GPa) = 174.58850 174.58850 92.17568
#
# Poissons Ratio (x) = 0.18907 0.23873
# Poissons Ratio (y) = 0.18907 0.23873
# Poissons Ratio (z) = 0.45217 0.45217
#
# Static dielectric constant tensor:
#      x y z
#    x 4.692950 0.000000 0.000000 
#    y 0.000000 4.692950 0.000000 
#    z 0.000000 0.000000 4.084010 
# 
# 
# High freq. dielectric constant tensor:
#      x y z
#    x 1.972720 0.000000 0.000000 
#    y 0.000000 1.972720 0.000000 
#    z 0.000000 0.000000 1.952650 
# 
# From -- ./inp_files/729.got.cif
#   From: 2010.03.12/outbox.cif.g09.slc.cpg/sg137_1_cif.got.tgz:729.got - 2010.04.08 09:34:49.
