data_PCOD8318596
_publ_section_title
;
Structure prediction by ZEFSAII (Michael W. Deem and Ramdas Pophale) SiO2 
 PCOD8318596
Probable space group: P 42/N M C
;
_chemical_formula_sum "Si O2"
_cell_formula_units_Z 64
_cell_length_a 12.607924
_cell_length_b 12.607924
_cell_length_c 22.313469
_cell_angle_alpha 90.000000
_cell_angle_beta 90.000000
_cell_angle_gamma 90.000000
_cell_volume 3546.943400
_symmetry_space_group_name_H-M "P 42/N M C"
_symmetry_group_IT_number 137
_space_group.IT_coordinate_system_code '2'
_symmetry_cell_setting 'tetragonal'
loop_
_space_group_symop_operation_xyz
x,y,z
1/2-y,x,1/2+z
1/2-x,1/2-y,z
y,1/2-x,1/2+z
1/2+x,-y,-z
-x,1/2+y,-z
1/2+y,1/2+x,1/2-z
-y,-x,1/2-z
-x,-y,-z
1/2+y,-x,1/2-z
1/2+x,1/2+y,-z
-y,1/2+x,1/2-z
1/2-x,y,z
x,1/2-y,z
1/2-y,1/2-x,1/2+z
y,x,1/2+z
loop_
_atom_site_type_symbol
_atom_site_label
_atom_site_fract_x
_atom_site_fract_y
_atom_site_fract_z
Si Si1 0.977901 0.873266 0.210620
Si Si2 0.628171 0.028250 0.572315
Si Si3 0.130180 0.430991 0.026878
Si Si4 0.623748 0.750000 0.887251
Si Si5 0.750000 0.624388 0.253671
O O1 0.989602 0.750000 0.229656
O O2 0.857028 0.913873 0.220270
O O3 0.006556 0.889586 0.141796
O O4 0.059117 0.940884 0.250000
O O5 0.750000 0.057953 0.558519
O O6 0.552294 0.123038 0.549855
O O7 0.589746 0.925327 0.536326
O O8 0.250000 0.400148 0.014614
O O9 0.081846 0.354098 0.078006
O O10 0.750000 0.750000 0.882960
O O11 0.575311 0.750000 0.820630
O O12 0.750000 0.750000 0.255979
#
# Coordination Sequence:
#
# PCOD8318596 Si02
#       5
#    16  16  16   8   8
#     4  10  21  36  55  82 112 146 182 226 273 328
#     4  10  21  35  53  80 111 140 180 223 275 322
#     4  10  20  34  54  79 107 143 179 226 271 322
#     4   9  16  30  52  76 102 138 182 221 260 315
#     4   9  18  32  52  79 107 145 183 219 267 319
#
# _framework density 18.043706
#
# number of rings (size 3 to 8) (size 9 to 14) (size 15 to 20)
#    0.000    2.250    1.250    1.500    1.750    3.750 
#    0.000    2.500    0.000    0.375    0.000    0.000 
#    0.000    0.000    0.000    0.000    0.000    0.000 
#
# Total GULP energy -793420.530952 kJ/mol
# GULP energy per Si atom -12397.195796 kJ/mol
# Density = 1.800264 g / cm^3
# Si number density = 18.043706 Si / 1000 Ang^3
#
#
#
# Elastic Constant Matrix: (Units=GPa)
#
#
# Indices 1 2 3 4 5 6 
#
# 1 84.5255 25.6580 28.5174 0.0000 0.0000 0.0000
# 2 25.6580 84.5283 28.5163 0.0000 0.0000 0.0000
# 3 28.5174 28.5163 87.8152 0.0000 0.0000 0.0000
# 4 0.0000 0.0000 0.0000 17.1298 0.0000 0.0000
# 5 0.0000 0.0000 0.0000 0.0000 17.1301 0.0000
# 6 0.0000 0.0000 0.0000 0.0000 0.0000 15.3539
#
#
#
# Elastic Compliance Matrix: (Units=1/GPa)
#
#
# Indices 1 2 3 4 5 6 
#
# 1 0.013948 -0.003039 -0.003543 0.000000 0.000000 0.000000
# 2 -0.003039 0.013948 -0.003542 0.000000 0.000000 0.000000
# 3 -0.003543 -0.003542 0.013688 0.000000 0.000000 0.000000
# 4 0.000000 0.000000 0.000000 0.058378 0.000000 0.000000
# 5 0.000000 0.000000 0.000000 0.000000 0.058377 0.000000
# 6 0.000000 0.000000 0.000000 0.000000 0.000000 0.065130
#
#
# Mechanical properties :
#
#
# Convention : Reuss Voigt Hill
#
# Bulk Modulus (GPa) = 46.86804 46.91693 46.89249
# Shear Modulus (GPa) = 19.93384 21.53458 20.73421
#
# Velocity S-wave (km/s) = 3.32739 3.45841 3.39353
# Velocity P-wave (km/s) = 6.38695 6.48118 6.43424
#
# Compressibility (1/GPa) = 0.02133650
#
# Stress axis : x y z
#
# Youngs Moduli (GPa) = 71.69243 71.69577 73.05439
#
# Poissons Ratio (x) = 0.21786 0.25882
# Poissons Ratio (y) = 0.21785 0.25879
# Poissons Ratio (z) = 0.25400 0.25398
#
# Static dielectric constant tensor:
#      x y z
#    x 3.329350 0.000000 0.000000 
#    y 0.000000 3.329350 0.000000 
#    z 0.000000 0.000000 3.477760 
# 
# 
# High freq. dielectric constant tensor:
#      x y z
#    x 1.686550 0.000000 0.000000 
#    y 0.000000 1.686550 0.000000 
#    z 0.000000 0.000000 1.711410 
# 
# From -- ./inp_files/8588.got.cif
#   From: 2010.03.12/outbox.cif.g09.slc.cpg/sg137_5_cif.got.tgz:8588.got - 2010.04.08 09:34:49.
