data_PCOD8318487
_publ_section_title
;
Structure prediction by ZEFSAII (Michael W. Deem and Ramdas Pophale) SiO2 
 PCOD8318487
Probable space group: P 42/N M C
;
_chemical_formula_sum "Si O2"
_cell_formula_units_Z 96
_cell_length_a 21.080931
_cell_length_b 21.080931
_cell_length_c 12.916284
_cell_angle_alpha 90.000000
_cell_angle_beta 90.000000
_cell_angle_gamma 90.000000
_cell_volume 5740.069610
_symmetry_space_group_name_H-M "P 42/N M C"
_symmetry_group_IT_number 137
_space_group.IT_coordinate_system_code '2'
_symmetry_cell_setting 'tetragonal'
loop_
_space_group_symop_operation_xyz
x,y,z
1/2-y,x,1/2+z
1/2-x,1/2-y,z
y,1/2-x,1/2+z
1/2+x,-y,-z
-x,1/2+y,-z
1/2+y,1/2+x,1/2-z
-y,-x,1/2-z
-x,-y,-z
1/2+y,-x,1/2-z
1/2+x,1/2+y,-z
-y,1/2+x,1/2-z
1/2-x,y,z
x,1/2-y,z
1/2-y,1/2-x,1/2+z
y,x,1/2+z
loop_
_atom_site_type_symbol
_atom_site_label
_atom_site_fract_x
_atom_site_fract_y
_atom_site_fract_z
Si Si1 0.678454 0.954970 0.393772
Si Si2 0.678923 0.417313 0.517907
Si Si3 0.584180 0.941475 0.006194
Si Si4 0.556219 0.045231 0.628325
Si Si5 0.010843 0.323992 0.336231
Si Si6 0.869091 0.176926 0.356376
O O1 0.750000 0.927873 0.410466
O O2 0.626475 0.911093 0.449339
O O3 0.660026 0.958137 0.273812
O O4 0.673367 0.025516 0.437391
O O5 0.750000 0.415252 0.567633
O O6 0.625146 0.423282 0.606276
O O7 0.667899 0.354596 0.451193
O O8 0.525489 0.945646 0.084452
O O9 0.646982 0.945462 0.074712
O O10 0.584352 0.999184 0.924391
O O11 0.544218 0.044218 0.750000
O O12 0.008197 0.250000 0.354791
O O13 0.939699 0.352578 0.343560
O O14 0.831316 0.168685 0.250000
O O15 0.873106 0.250000 0.384986
#
# Coordination Sequence:
#
# PCOD8318487 Si02
#       6
#    16  16  16  16  16  16
#     4   9  18  32  52  75 101 129 157 200 258 309
#     4  10  19  33  47  66 100 136 170 210 250 290
#     4  10  19  32  53  76  99 131 162 208 257 311
#     4  10  20  32  49  74  98 129 175 215 253 296
#     4  10  19  32  51  78 107 131 162 208 256 300
#     4  11  20  30  48  73 103 137 173 211 253 299
#
# _framework density 16.724537000000002
#
# number of rings (size 3 to 8) (size 9 to 14) (size 15 to 20)
#    0.000    2.000    3.333    1.500    0.000    1.833 
#    0.000    1.667    0.000    3.500    0.000    2.333 
#    0.000    0.000    0.000    0.000    0.000    0.000 
#
# Total GULP energy -1190375.966712 kJ/mol
# GULP energy per Si atom -12399.749653 kJ/mol
# Density = 1.668647 g / cm^3
# Si number density = 16.724537 Si / 1000 Ang^3
#
#
#
# Elastic Constant Matrix: (Units=GPa)
#
#
# Indices 1 2 3 4 5 6 
#
# 1 56.7986 35.7522 39.4084 0.0000 0.0000 0.0000
# 2 35.7522 56.7969 39.4081 0.0000 0.0000 0.0000
# 3 39.4084 39.4081 105.6568 0.0000 0.0000 0.0000
# 4 0.0000 0.0000 0.0000 26.1543 0.0000 0.0000
# 5 0.0000 0.0000 0.0000 0.0000 26.1544 0.0000
# 6 0.0000 0.0000 0.0000 0.0000 0.0000 21.0614
#
#
#
# Elastic Compliance Matrix: (Units=1/GPa)
#
#
# Indices 1 2 3 4 5 6 
#
# 1 0.031675 -0.015841 -0.005906 0.000000 0.000000 0.000000
# 2 -0.015841 0.031676 -0.005906 0.000000 0.000000 0.000000
# 3 -0.005906 -0.005906 0.013870 0.000000 0.000000 0.000000
# 4 0.000000 0.000000 0.000000 0.038235 0.000000 0.000000
# 5 0.000000 0.000000 0.000000 0.000000 0.038235 0.000000
# 6 0.000000 0.000000 0.000000 0.000000 0.000000 0.047480
#
#
# Mechanical properties :
#
#
# Convention : Reuss Voigt Hill
#
# Bulk Modulus (GPa) = 45.63009 49.82110 47.72559
# Shear Modulus (GPa) = 18.95509 21.65291 20.30400
#
# Velocity S-wave (km/s) = 3.37021 3.60207 3.48807
# Velocity P-wave (km/s) = 6.51820 6.86686 6.69480
#
# Compressibility (1/GPa) = 0.02191536
#
# Stress axis : x y z
#
# Youngs Moduli (GPa) = 31.57082 31.56969 72.09623
#
# Poissons Ratio (x) = 0.50009 0.42580
# Poissons Ratio (y) = 0.50010 0.42582
# Poissons Ratio (z) = 0.18645 0.18646
#
# Static dielectric constant tensor:
#      x y z
#    x 3.131470 0.000000 0.000000 
#    y 0.000000 3.131470 0.000000 
#    z 0.000000 0.000000 3.022010 
# 
# 
# High freq. dielectric constant tensor:
#      x y z
#    x 1.633910 0.000000 0.000000 
#    y 0.000000 1.633910 0.000000 
#    z 0.000000 0.000000 1.634530 
# 
# From -- ./inp_files/3744.got.cif
#   From: 2010.03.12/outbox.cif.g09.slc.cpg/sg137_2_cif.got.tgz:3744.got - 2010.04.08 09:34:49.
