data_PCOD8318299
_publ_section_title
;
Structure prediction by ZEFSAII (Michael W. Deem and Ramdas Pophale) SiO2 
 PCOD8318299
Probable space group: P 42/M N M
;
_chemical_formula_sum "Si O2"
_cell_formula_units_Z 96
_cell_length_a 14.569256
_cell_length_b 14.569256
_cell_length_c 21.113011
_cell_angle_alpha 90.000000
_cell_angle_beta 90.000000
_cell_angle_gamma 90.000000
_cell_volume 4481.515707
_symmetry_space_group_name_H-M "P 42/M N M"
_symmetry_group_IT_number 136
_symmetry_cell_setting 'tetragonal'
loop_
_space_group_symop_operation_xyz
x,y,z
1/2-y,1/2+x,1/2+z
-x,-y,z
1/2+y,1/2-x,1/2+z
1/2+x,1/2-y,1/2-z
1/2-x,1/2+y,1/2-z
y,x,-z
-y,-x,-z
-x,-y,-z
1/2+y,1/2-x,1/2-z
x,y,-z
1/2-y,1/2+x,1/2-z
1/2-x,1/2+y,1/2+z
1/2+x,1/2-y,1/2+z
-y,-x,z
y,x,z
loop_
_atom_site_type_symbol
_atom_site_label
_atom_site_fract_x
_atom_site_fract_y
_atom_site_fract_z
Si Si1 0.430219 0.279687 0.500000
Si Si2 0.575604 0.424397 0.718151
Si Si3 0.060915 0.406962 0.500000
Si Si4 0.076976 0.076976 0.633267
Si Si5 0.823599 0.673737 0.695414
Si Si6 0.501135 0.263558 0.367449
Si Si7 0.327387 0.178328 0.841050
Si Si8 0.482680 0.773385 0.113460
O O1 0.331051 0.331051 0.500000
O O2 0.424591 0.169621 0.500000
O O3 0.486602 0.309422 0.436797
O O4 0.500000 0.500000 0.709243
O O5 0.595427 0.404574 0.791828
O O6 0.666760 0.460963 0.684933
O O7 0.038231 0.345565 0.440364
O O8 0.000000 0.500000 0.500000
O O9 0.169404 0.046037 0.597531
O O10 0.000000 0.000000 0.624397
O O11 0.766238 0.766238 0.683539
O O12 0.777599 0.594990 0.653735
O O13 0.825642 0.644804 0.767903
O O14 0.928005 0.691405 0.675062
O O15 0.577182 0.183181 0.371273
O O16 0.233503 0.233503 0.851962
O O17 0.409118 0.230450 0.875439
#
# Coordination Sequence:
#
# PCOD8318299 Si02
#       8
#     8   8   8   8  16  16  16  16
#     4  12  26  45  71 100 139 185 241 292 345 422
#     4  11  22  41  69 101 147 189 224 292 366 424
#     4  12  28  50  70 101 145 190 241 300 357 422
#     4  11  24  45  71 109 145 179 233 297 366 436
#     4  11  22  40  69 104 137 174 236 294 350 417
#     4  12  24  42  66 102 142 184 238 290 352 426
#     4  11  24  43  66  99 143 186 225 286 359 431
#     4  12  25  43  72 100 137 187 236 290 358 416
#
# _framework density 21.421325
#
# number of rings (size 3 to 8) (size 9 to 14) (size 15 to 20)
#    0.000    0.500    3.333    6.000    1.167    3.000 
#    0.000    5.417    0.000    0.000    0.000    0.000 
#    0.000    0.000    0.000    0.000    0.000    0.000 
#
# Total GULP energy -1190586.972818 kJ/mol
# GULP energy per Si atom -12401.947634 kJ/mol
# Density = 2.137257 g / cm^3
# Si number density = 21.421325 Si / 1000 Ang^3
#
#
#
# Elastic Constant Matrix: (Units=GPa)
#
#
# Indices 1 2 3 4 5 6 
#
# 1 123.0775 30.0342 33.9445 0.0000 0.0000 0.0000
# 2 30.0342 123.0775 33.9445 0.0000 0.0000 0.0000
# 3 33.9445 33.9445 70.9681 0.0000 0.0000 0.0000
# 4 0.0000 0.0000 0.0000 36.1601 0.0000 0.0000
# 5 0.0000 0.0000 0.0000 0.0000 36.1601 0.0000
# 6 0.0000 0.0000 0.0000 0.0000 0.0000 40.6837
#
#
#
# Elastic Compliance Matrix: (Units=1/GPa)
#
#
# Indices 1 2 3 4 5 6 
#
# 1 0.009518 -0.001229 -0.003965 0.000000 0.000000 0.000000
# 2 -0.001229 0.009518 -0.003965 0.000000 0.000000 0.000000
# 3 -0.003965 -0.003965 0.017884 0.000000 0.000000 0.000000
# 4 0.000000 0.000000 0.000000 0.027655 0.000000 0.000000
# 5 0.000000 0.000000 0.000000 0.000000 0.027655 0.000000
# 6 0.000000 0.000000 0.000000 0.000000 0.000000 0.024580
#
#
# Mechanical properties :
#
#
# Convention : Reuss Voigt Hill
#
# Bulk Modulus (GPa) = 53.75524 56.99663 55.37593
# Shear Modulus (GPa) = 35.37861 37.21410 36.29635
#
# Velocity S-wave (km/s) = 4.06835 4.17255 4.12078
# Velocity P-wave (km/s) = 6.87149 7.06249 6.96764
#
# Compressibility (1/GPa) = 0.01860284
#
# Stress axis : x y z
#
# Youngs Moduli (GPa) = 105.05963 105.05963 55.91728
#
# Poissons Ratio (x) = 0.12915 0.22170
# Poissons Ratio (y) = 0.12915 0.22170
# Poissons Ratio (z) = 0.41653 0.41653
#
# Static dielectric constant tensor:
#      x y z
#    x 4.030340 0.000000 0.000000 
#    y 0.000000 4.030340 0.000000 
#    z 0.000000 0.000000 3.814590 
# 
# 
# High freq. dielectric constant tensor:
#      x y z
#    x 1.851980 0.000000 0.000000 
#    y 0.000000 1.851980 0.000000 
#    z 0.000000 0.000000 1.836680 
# 
# From -- ./inp_files/7568.got.cif
#   From: 2010.03.12/outbox.cif.g09.slc.cpg/sg136_4_cif.got.tgz:7568.got - 2010.04.06 18:39:43.
