data_PCOD8318952
_publ_section_title
;
Structure prediction by ZEFSAII (Michael W. Deem and Ramdas Pophale) SiO2 
 PCOD8318952
Probable space group: P 42/N C M
;
_chemical_formula_sum "Si O2"
_cell_formula_units_Z 112
_cell_length_a 16.604508
_cell_length_b 16.604508
_cell_length_c 21.940908
_cell_angle_alpha 90.000000
_cell_angle_beta 90.000000
_cell_angle_gamma 90.000000
_cell_volume 6049.320854
_symmetry_space_group_name_H-M "P 42/N C M"
_symmetry_group_IT_number 138
_space_group.IT_coordinate_system_code '2'
_symmetry_cell_setting 'tetragonal'
loop_
_space_group_symop_operation_xyz
x,y,z
1/2-y,x,1/2+z
1/2-x,1/2-y,z
y,1/2-x,1/2+z
1/2+x,-y,1/2-z
-x,1/2+y,1/2-z
1/2+y,1/2+x,-z
-y,-x,-z
-x,-y,-z
1/2+y,-x,1/2-z
1/2+x,1/2+y,-z
-y,1/2+x,1/2-z
1/2-x,y,1/2+z
x,1/2-y,1/2+z
1/2-y,1/2-x,z
y,x,z
loop_
_atom_site_type_symbol
_atom_site_label
_atom_site_fract_x
_atom_site_fract_y
_atom_site_fract_z
Si Si1 0.374433 0.802570 0.247820
Si Si2 0.645700 0.198163 0.442329
Si Si3 0.503184 0.869885 0.911935
Si Si4 0.202138 0.945192 0.127975
Si Si5 0.070027 0.302456 0.968328
Si Si6 0.438286 0.838739 0.117811
Si Si7 0.358213 0.485049 0.008077
O O1 0.354664 0.707348 0.248919
O O2 0.437718 0.825648 0.301890
O O3 0.426258 0.826853 0.189258
O O4 0.704969 0.204969 0.500000
O O5 0.696233 0.148046 0.392782
O O6 0.629429 0.286063 0.416486
O O7 0.563404 0.152830 0.465380
O O8 0.482888 0.791479 0.871961
O O9 0.430543 0.931876 0.903348
O O10 0.585559 0.914442 0.889758
O O11 0.511267 0.846605 0.982945
O O12 0.147267 0.996099 0.080891
O O13 0.158212 0.341789 0.965691
O O14 0.027063 0.308948 0.902338
O O15 0.079575 0.210471 0.989685
O O16 0.444600 0.444600 0.995188
#
# Coordination Sequence:
#
# PCOD8318952 Si02
#       7
#    16  16  16  16  16  16  16
#     4  11  21  34  52  75 109 150 186 222 262 322
#     4   9  19  32  50  77 106 135 176 219 276 331
#     4  10  20  34  52  76 107 139 173 220 272 323
#     4  10  19  35  53  76 107 144 182 221 265 324
#     4   9  19  34  53  79 108 138 178 224 275 329
#     4  11  19  32  52  76 110 145 180 217 271 324
#     4   9  19  35  56  80 108 140 174 227 287 334
#
# _framework density 18.514475000000001
#
# number of rings (size 3 to 8) (size 9 to 14) (size 15 to 20)
#    0.000    2.143    2.857    1.714    0.000    4.571 
#    0.000    5.000    0.000    3.429    0.000    0.000 
#    0.000    6.857    0.000    0.000    0.000    0.000 
#
# Total GULP energy -1387609.681467 kJ/mol
# GULP energy per Si atom -12389.372156 kJ/mol
# Density = 1.847234 g / cm^3
# Si number density = 18.514475 Si / 1000 Ang^3
#
#
#
# Elastic Constant Matrix: (Units=GPa)
#
#
# Indices 1 2 3 4 5 6 
#
# 1 58.2333 43.7810 25.7764 0.0000 0.0000 0.0000
# 2 43.7810 58.2333 25.7764 0.0000 0.0000 0.0000
# 3 25.7764 25.7764 103.0279 0.0000 0.0000 0.0000
# 4 0.0000 0.0000 0.0000 13.4372 0.0000 0.0000
# 5 0.0000 0.0000 0.0000 0.0000 13.4372 0.0000
# 6 0.0000 0.0000 0.0000 0.0000 0.0000 40.6141
#
#
#
# Elastic Compliance Matrix: (Units=1/GPa)
#
#
# Indices 1 2 3 4 5 6 
#
# 1 0.040207 -0.028986 -0.002807 0.000000 0.000000 0.000000
# 2 -0.028986 0.040207 -0.002807 0.000000 0.000000 0.000000
# 3 -0.002807 -0.002807 0.011111 0.000000 0.000000 0.000000
# 4 0.000000 0.000000 0.000000 0.074420 0.000000 0.000000
# 5 0.000000 0.000000 0.000000 0.000000 0.074420 0.000000
# 6 0.000000 0.000000 0.000000 0.000000 0.000000 0.024622
#
#
# Mechanical properties :
#
#
# Convention : Reuss Voigt Hill
#
# Bulk Modulus (GPa) = 44.79543 45.57356 45.18449
# Shear Modulus (GPa) = 14.63572 21.77509 18.20540
#
# Velocity S-wave (km/s) = 2.81464 3.43317 3.13917
# Velocity P-wave (km/s) = 5.90002 6.35485 6.13165
#
# Compressibility (1/GPa) = 0.02232371
#
# Stress axis : x y z
#
# Youngs Moduli (GPa) = 24.87123 24.87123 90.00180
#
# Poissons Ratio (x) = 0.72091 0.25267
# Poissons Ratio (y) = 0.72091 0.25267
# Poissons Ratio (z) = 0.06982 0.06982
#
# Static dielectric constant tensor:
#      x y z
#    x 3.323080 0.000000 0.000000 
#    y 0.000000 3.323080 0.000000 
#    z 0.000000 0.000000 3.400500 
# 
# 
# High freq. dielectric constant tensor:
#      x y z
#    x 1.705300 0.000000 0.000000 
#    y 0.000000 1.705300 0.000000 
#    z 0.000000 0.000000 1.703460 
# 
# From -- ./inp_files/7170.got.cif
#   From: 2010.03.12/outbox.cif.g09.slc.cpg/sg138_4_cif.got.tgz:7170.got - 2010.04.08 09:41:05.
