data_PCOD8318484
_publ_section_title
;
Structure prediction by ZEFSAII (Michael W. Deem and Ramdas Pophale) SiO2 
 PCOD8318484
Probable space group: P 42/N M C
;
_chemical_formula_sum "Si O2"
_cell_formula_units_Z 112
_cell_length_a 17.677266
_cell_length_b 17.677266
_cell_length_c 21.276251
_cell_angle_alpha 90.000000
_cell_angle_beta 90.000000
_cell_angle_gamma 90.000000
_cell_volume 6648.524894
_symmetry_space_group_name_H-M "P 42/N M C"
_symmetry_group_IT_number 137
_space_group.IT_coordinate_system_code '2'
_symmetry_cell_setting 'tetragonal'
loop_
_space_group_symop_operation_xyz
x,y,z
1/2-y,x,1/2+z
1/2-x,1/2-y,z
y,1/2-x,1/2+z
1/2+x,-y,-z
-x,1/2+y,-z
1/2+y,1/2+x,1/2-z
-y,-x,1/2-z
-x,-y,-z
1/2+y,-x,1/2-z
1/2+x,1/2+y,-z
-y,1/2+x,1/2-z
1/2-x,y,z
x,1/2-y,z
1/2-y,1/2-x,1/2+z
y,x,1/2+z
loop_
_atom_site_type_symbol
_atom_site_label
_atom_site_fract_x
_atom_site_fract_y
_atom_site_fract_z
Si Si1 0.979563 0.538262 0.065767
Si Si2 0.462480 0.460484 0.690002
Si Si3 0.596291 0.337293 0.920912
Si Si4 0.168544 0.838643 0.556333
Si Si5 0.922949 0.337971 0.694921
Si Si6 0.834918 0.485702 0.111506
Si Si7 0.039074 0.663887 0.753393
O O1 0.888448 0.544365 0.073492
O O2 0.005885 0.485978 0.123293
O O3 0.015143 0.621545 0.072115
O O4 0.000000 0.500000 0.000000
O O5 0.496353 0.503648 0.750000
O O6 0.492306 0.374044 0.692715
O O7 0.372636 0.476408 0.698684
O O8 0.581591 0.250000 0.903154
O O9 0.647424 0.377679 0.868890
O O10 0.642324 0.347601 0.984327
O O11 0.250000 0.874611 0.577193
O O12 0.174572 0.750000 0.563536
O O13 0.099660 0.867436 0.599259
O O14 0.874323 0.374323 0.750000
O O15 0.933536 0.250000 0.707391
O O16 0.750000 0.495128 0.084497
O O17 0.837188 0.500770 0.185310
O O18 0.118509 0.618509 0.750000
O O19 0.056294 0.750000 0.774340
#
# Coordination Sequence:
#
# PCOD8318484 Si02
#       7
#    16  16  16  16  16  16  16
#     4  11  19  33  52  75 100 135 181 217 252 314
#     4   9  18  35  51  69 101 138 174 213 255 309
#     4  10  20  31  48  72 101 134 166 206 260 316
#     4   9  17  29  44  68 105 136 158 196 253 312
#     4  10  20  32  49  72  99 131 166 208 257 313
#     4  10  19  32  50  73 100 136 173 212 259 306
#     4  10  19  33  53  75 104 139 174 216 265 312
#
# _framework density 16.845841
#
# number of rings (size 3 to 8) (size 9 to 14) (size 15 to 20)
#    0.000    2.143    4.286    0.857    0.000    2.286 
#    0.000    2.143    0.000    0.857    0.000    2.000 
#    0.000    2.571    0.000    0.000    0.000    0.000 
#
# Total GULP energy -1387750.331281 kJ/mol
# GULP energy per Si atom -12390.627958 kJ/mol
# Density = 1.680750 g / cm^3
# Si number density = 16.845841 Si / 1000 Ang^3
#
#
#
# Elastic Constant Matrix: (Units=GPa)
#
#
# Indices 1 2 3 4 5 6 
#
# 1 63.2965 55.8272 12.9679 0.0000 0.0000 0.0000
# 2 55.8272 63.2967 12.9682 0.0000 0.0000 0.0000
# 3 12.9679 12.9682 74.1553 0.0000 0.0000 0.0000
# 4 0.0000 0.0000 0.0000 25.2289 0.0000 0.0000
# 5 0.0000 0.0000 0.0000 0.0000 25.2290 0.0000
# 6 0.0000 0.0000 0.0000 0.0000 0.0000 20.9601
#
#
#
# Elastic Compliance Matrix: (Units=1/GPa)
#
#
# Indices 1 2 3 4 5 6 
#
# 1 0.071303 -0.062576 -0.001526 0.000000 0.000000 0.000000
# 2 -0.062576 0.071303 -0.001526 0.000000 0.000000 0.000000
# 3 -0.001526 -0.001526 0.014019 0.000000 0.000000 0.000000
# 4 0.000000 0.000000 0.000000 0.039637 0.000000 0.000000
# 5 0.000000 0.000000 0.000000 0.000000 0.039637 0.000000
# 6 0.000000 0.000000 0.000000 0.000000 0.000000 0.047710
#
#
# Mechanical properties :
#
#
# Convention : Reuss Voigt Hill
#
# Bulk Modulus (GPa) = 39.41933 40.47500 39.94716
# Shear Modulus (GPa) = 11.81133 22.21595 17.01364
#
# Velocity S-wave (km/s) = 2.65078 3.63544 3.18144
# Velocity P-wave (km/s) = 5.72885 6.45761 6.10412
#
# Compressibility (1/GPa) = 0.02536827
#
# Stress axis : x y z
#
# Youngs Moduli (GPa) = 14.02460 14.02464 71.33180
#
# Poissons Ratio (x) = 0.87761 0.10884
# Poissons Ratio (y) = 0.87761 0.10888
# Poissons Ratio (z) = 0.02140 0.02141
#
# Static dielectric constant tensor:
#      x y z
#    x 3.341120 0.000000 0.000000 
#    y 0.000000 3.341120 0.000000 
#    z 0.000000 0.000000 3.254760 
# 
# 
# High freq. dielectric constant tensor:
#      x y z
#    x 1.631390 0.000000 0.000000 
#    y 0.000000 1.631390 0.000000 
#    z 0.000000 0.000000 1.662730 
# 
# From -- ./inp_files/8075.got.cif
#   From: 2010.03.12/outbox.cif.g09.slc.cpg/sg137_5_cif.got.tgz:8075.got - 2010.04.08 09:34:49.
