data_PCOD8318544
_publ_section_title
;
Structure prediction by ZEFSAII (Michael W. Deem and Ramdas Pophale) SiO2 
 PCOD8318544
Probable space group: P 42/N M C
;
_chemical_formula_sum "Si O2"
_cell_formula_units_Z 96
_cell_length_a 23.646927
_cell_length_b 23.646927
_cell_length_c 10.093807
_cell_angle_alpha 90.000000
_cell_angle_beta 90.000000
_cell_angle_gamma 90.000000
_cell_volume 5644.226297
_symmetry_space_group_name_H-M "P 42/N M C"
_symmetry_group_IT_number 137
_space_group.IT_coordinate_system_code '2'
_symmetry_cell_setting 'tetragonal'
loop_
_space_group_symop_operation_xyz
x,y,z
1/2-y,x,1/2+z
1/2-x,1/2-y,z
y,1/2-x,1/2+z
1/2+x,-y,-z
-x,1/2+y,-z
1/2+y,1/2+x,1/2-z
-y,-x,1/2-z
-x,-y,-z
1/2+y,-x,1/2-z
1/2+x,1/2+y,-z
-y,1/2+x,1/2-z
1/2-x,y,z
x,1/2-y,z
1/2-y,1/2-x,1/2+z
y,x,1/2+z
loop_
_atom_site_type_symbol
_atom_site_label
_atom_site_fract_x
_atom_site_fract_y
_atom_site_fract_z
Si Si1 0.472657 0.927220 0.382275
Si Si2 0.150372 0.364524 0.126006
Si Si3 0.510449 0.428049 0.132287
Si Si4 0.811394 0.811923 0.129686
Si Si5 0.815636 0.965412 0.272187
Si Si6 0.185629 0.483626 0.040413
O O1 0.437771 0.937771 0.250000
O O2 0.437959 0.959983 0.493509
O O3 0.469523 0.860321 0.416393
O O4 0.537902 0.950226 0.371019
O O5 0.196465 0.336871 0.223493
O O6 0.094535 0.343723 0.200057
O O7 0.164734 0.430241 0.125229
O O8 0.149137 0.344639 0.973955
O O9 0.547816 0.452185 0.250000
O O10 0.506656 0.359932 0.152894
O O11 0.750000 0.843304 0.134833
O O12 0.803104 0.750000 0.069778
O O13 0.750000 0.971826 0.322872
O O14 0.818026 0.974322 0.115905
O O15 0.250000 0.500702 0.079849
#
# Coordination Sequence:
#
# PCOD8318544 Si02
#       6
#    16  16  16  16  16  16
#     4  10  21  35  58  84 110 143 184 233 286 339
#     4  12  22  35  51  71 102 143 183 227 281 323
#     4  10  19  35  58  79 109 145 189 231 279 338
#     4  11  22  34  46  62  89 134 190 238 276 315
#     4  11  22  36  56  82 111 146 191 237 283 329
#     4  11  22  37  56  81 113 148 187 233 288 335
#
# _framework density 17.008531000000001
#
# number of rings (size 3 to 8) (size 9 to 14) (size 15 to 20)
#    0.000    1.167    5.000    3.000    0.000    2.667 
#    0.000    2.500    0.000    0.000    0.000    0.000 
#    0.000    4.000    0.000    0.000    0.000    0.000 
#
# Total GULP energy -1189261.185043 kJ/mol
# GULP energy per Si atom -12388.137344 kJ/mol
# Density = 1.696982 g / cm^3
# Si number density = 17.008531 Si / 1000 Ang^3
#
#
#
# Elastic Constant Matrix: (Units=GPa)
#
#
# Indices 1 2 3 4 5 6 
#
# 1 91.0666 39.8130 29.5503 0.0000 0.0000 0.0000
# 2 39.8130 91.0669 29.5507 0.0000 0.0000 0.0000
# 3 29.5503 29.5507 98.0564 0.0000 0.0000 0.0000
# 4 0.0000 0.0000 0.0000 24.4237 0.0000 0.0000
# 5 0.0000 0.0000 0.0000 0.0000 24.4237 0.0000
# 6 0.0000 0.0000 0.0000 0.0000 0.0000 18.1497
#
#
#
# Elastic Compliance Matrix: (Units=1/GPa)
#
#
# Indices 1 2 3 4 5 6 
#
# 1 0.014177 -0.005333 -0.002665 0.000000 0.000000 0.000000
# 2 -0.005333 0.014177 -0.002665 0.000000 0.000000 0.000000
# 3 -0.002665 -0.002665 0.011805 0.000000 0.000000 0.000000
# 4 0.000000 0.000000 0.000000 0.040944 0.000000 0.000000
# 5 0.000000 0.000000 0.000000 0.000000 0.040944 0.000000
# 6 0.000000 0.000000 0.000000 0.000000 0.000000 0.055097
#
#
# Mechanical properties :
#
#
# Convention : Reuss Voigt Hill
#
# Bulk Modulus (GPa) = 53.10170 53.11310 53.10740
# Shear Modulus (GPa) = 24.42005 25.48447 24.95226
#
# Velocity S-wave (km/s) = 3.79324 3.87503 3.83436
# Velocity P-wave (km/s) = 7.10446 7.16354 7.13406
#
# Compressibility (1/GPa) = 0.01883179
#
# Stress axis : x y z
#
# Youngs Moduli (GPa) = 70.53448 70.53451 84.71239
#
# Poissons Ratio (x) = 0.37618 0.22578
# Poissons Ratio (y) = 0.37618 0.22579
# Poissons Ratio (z) = 0.18799 0.18800
#
# Static dielectric constant tensor:
#      x y z
#    x 3.181050 0.000000 0.000000 
#    y 0.000000 3.181060 0.000000 
#    z 0.000000 0.000000 2.715460 
# 
# 
# High freq. dielectric constant tensor:
#      x y z
#    x 1.632890 0.000000 0.000000 
#    y 0.000000 1.632890 0.000000 
#    z 0.000000 0.000000 1.668750 
# 
# From -- ./inp_files/2131.got.cif
#   From: 2010.03.12/outbox.cif.g09.slc.cpg/sg137_2_cif.got.tgz:2131.got - 2010.04.08 09:34:49.
