data_PCOD8318954
_publ_section_title
;
Structure prediction by ZEFSAII (Michael W. Deem and Ramdas Pophale) SiO2 
 PCOD8318954
Probable space group: P 42/N C M
;
_chemical_formula_sum "Si O2"
_cell_formula_units_Z 60
_cell_length_a 19.559675
_cell_length_b 19.559675
_cell_length_c 8.753517
_cell_angle_alpha 90.000000
_cell_angle_beta 90.000000
_cell_angle_gamma 90.000000
_cell_volume 3348.928290
_symmetry_space_group_name_H-M "P 42/N C M"
_symmetry_group_IT_number 138
_space_group.IT_coordinate_system_code '2'
_symmetry_cell_setting 'tetragonal'
loop_
_space_group_symop_operation_xyz
x,y,z
1/2-y,x,1/2+z
1/2-x,1/2-y,z
y,1/2-x,1/2+z
1/2+x,-y,1/2-z
-x,1/2+y,1/2-z
1/2+y,1/2+x,-z
-y,-x,-z
-x,-y,-z
1/2+y,-x,1/2-z
1/2+x,1/2+y,-z
-y,1/2+x,1/2-z
1/2-x,y,1/2+z
x,1/2-y,1/2+z
1/2-y,1/2-x,z
y,x,z
loop_
_atom_site_type_symbol
_atom_site_label
_atom_site_fract_x
_atom_site_fract_y
_atom_site_fract_z
Si Si1 0.250000 0.250000 0.884619
Si Si2 0.435632 0.711729 0.669483
Si Si3 0.597053 0.140593 0.343706
Si Si4 0.810397 0.990787 0.364098
Si Si5 0.330630 0.330630 0.634631
O O1 0.298319 0.298319 0.785324
O O2 0.201874 0.298127 0.984551
O O3 0.382558 0.656599 0.730471
O O4 0.392425 0.778783 0.615247
O O5 0.488895 0.734442 0.803106
O O6 0.478849 0.678779 0.532329
O O7 0.596579 0.096579 0.500000
O O8 0.524777 0.133596 0.252270
O O9 0.817187 0.910497 0.366097
#
# Coordination Sequence:
#
# PCOD8318954 Si02
#       5
#     4  16  16  16   8
#     4  10  24  38  72  86 118 136 208 244 310 358
#     4  10  19  35  55  84 117 163 195 247 284 338
#     4  10  19  35  55  84 121 160 205 236 292 344
#     4  10  21  34  61  80 122 150 195 249 301 346
#     4  11  22  44  60 100 110 152 189 256 303 363
#
# _framework density 17.916177999999999
#
# number of rings (size 3 to 8) (size 9 to 14) (size 15 to 20)
#    1.600    0.267    2.667    2.400    0.000    0.533 
#    0.000    4.667    0.000    0.000    0.000    0.000 
#    0.000    0.000    0.000    0.000    0.000    0.000 
#
# Total GULP energy -743409.293581 kJ/mol
# GULP energy per Si atom -12390.154893 kJ/mol
# Density = 1.787540 g / cm^3
# Si number density = 17.916178 Si / 1000 Ang^3
#
#
#
# Elastic Constant Matrix: (Units=GPa)
#
#
# Indices 1 2 3 4 5 6 
#
# 1 101.0987 72.8101 51.5699 0.0000 0.0000 0.0000
# 2 72.8101 101.0987 51.5699 0.0000 0.0000 0.0000
# 3 51.5699 51.5699 119.7813 0.0000 0.0000 0.0000
# 4 0.0000 0.0000 0.0000 55.7828 0.0000 0.0000
# 5 0.0000 0.0000 0.0000 0.0000 55.7828 0.0000
# 6 0.0000 0.0000 0.0000 0.0000 0.0000 14.8953
#
#
#
# Elastic Compliance Matrix: (Units=1/GPa)
#
#
# Indices 1 2 3 4 5 6 
#
# 1 0.021536 -0.013814 -0.003324 0.000000 0.000000 0.000000
# 2 -0.013814 0.021536 -0.003324 0.000000 0.000000 0.000000
# 3 -0.003324 -0.003324 0.011211 0.000000 0.000000 0.000000
# 4 0.000000 0.000000 0.000000 0.017927 0.000000 0.000000
# 5 0.000000 0.000000 0.000000 0.000000 0.017927 0.000000
# 6 0.000000 0.000000 0.000000 0.000000 0.000000 0.067135
#
#
# Mechanical properties :
#
#
# Convention : Reuss Voigt Hill
#
# Bulk Modulus (GPa) = 74.86839 74.87541 74.87190
# Shear Modulus (GPa) = 24.67307 35.02740 29.85023
#
# Velocity S-wave (km/s) = 3.71501 4.42642 4.08622
# Velocity P-wave (km/s) = 7.76406 8.24664 8.00898
#
# Compressibility (1/GPa) = 0.01335677
#
# Stress axis : x y z
#
# Youngs Moduli (GPa) = 46.43411 46.43411 89.19679
#
# Poissons Ratio (x) = 0.64145 0.29653
# Poissons Ratio (y) = 0.64145 0.29653
# Poissons Ratio (z) = 0.15437 0.15437
#
# Static dielectric constant tensor:
#      x y z
#    x 3.086400 0.000000 0.000000 
#    y 0.000000 3.086400 0.000000 
#    z 0.000000 0.000000 3.446080 
# 
# 
# High freq. dielectric constant tensor:
#      x y z
#    x 1.673570 0.000000 0.000000 
#    y 0.000000 1.673570 0.000000 
#    z 0.000000 0.000000 1.712820 
# 
# From -- ./inp_files/1223.got.cif
#   From: 2010.03.12/outbox.cif.g09.slc.cpg/sg138_1_cif.got.tgz:1223.got - 2010.04.08 09:41:05.
