data_PCOD8318411
_publ_section_title
;
Structure prediction by ZEFSAII (Michael W. Deem and Ramdas Pophale) SiO2 
 PCOD8318411
Probable space group: P 42/N M C
;
_chemical_formula_sum "Si O2"
_cell_formula_units_Z 128
_cell_length_a 19.866619
_cell_length_b 19.866619
_cell_length_c 19.183495
_cell_angle_alpha 90.000000
_cell_angle_beta 90.000000
_cell_angle_gamma 90.000000
_cell_volume 7571.390734
_symmetry_space_group_name_H-M "P 42/N M C"
_symmetry_group_IT_number 137
_space_group.IT_coordinate_system_code '2'
_symmetry_cell_setting 'tetragonal'
loop_
_space_group_symop_operation_xyz
x,y,z
1/2-y,x,1/2+z
1/2-x,1/2-y,z
y,1/2-x,1/2+z
1/2+x,-y,-z
-x,1/2+y,-z
1/2+y,1/2+x,1/2-z
-y,-x,1/2-z
-x,-y,-z
1/2+y,-x,1/2-z
1/2+x,1/2+y,-z
-y,1/2+x,1/2-z
1/2-x,y,z
x,1/2-y,z
1/2-y,1/2-x,1/2+z
y,x,1/2+z
loop_
_atom_site_type_symbol
_atom_site_label
_atom_site_fract_x
_atom_site_fract_y
_atom_site_fract_z
Si Si1 0.170509 0.945293 0.053943
Si Si2 0.410916 0.499589 0.935498
Si Si3 0.477697 0.877602 0.222053
Si Si4 0.509217 0.590654 0.722243
Si Si5 0.329188 0.076296 0.661389
Si Si6 0.327985 0.575734 0.419587
Si Si7 0.981446 0.603865 0.973479
Si Si8 0.675863 0.554426 0.841647
O O1 0.250000 0.941363 0.060301
O O2 0.142166 0.874370 0.081618
O O3 0.139831 0.007786 0.099428
O O4 0.147513 0.959834 0.975413
O O5 0.382641 0.493699 0.857090
O O6 0.480205 0.542198 0.935586
O O7 0.426609 0.427361 0.972263
O O8 0.406545 0.906545 0.250000
O O9 0.531114 0.937294 0.220538
O O10 0.468898 0.842387 0.148165
O O11 0.508004 0.821297 0.272974
O O12 0.438228 0.561773 0.750000
O O13 0.526891 0.651653 0.774760
O O14 0.250000 0.092606 0.664398
O O15 0.348571 0.049533 0.585321
O O16 0.373621 0.142715 0.672097
O O17 0.250000 0.597402 0.422963
O O18 0.347127 0.531809 0.486247
O O19 0.750000 0.571478 0.867398
#
# Coordination Sequence:
#
# PCOD8318411 Si02
#       8
#    16  16  16  16  16  16  16  16
#     4  10  21  35  53  76 102 139 183 220 256 317
#     4  10  18  32  57  78 105 135 177 216 274 322
#     4  10  18  30  51  78 108 135 175 220 259 314
#     4  10  19  32  54  81 107 139 168 220 277 323
#     4  11  22  35  54  82 110 136 177 227 272 317
#     4  11  21  33  52  77 108 143 171 215 272 320
#     4  10  19  32  52  83 107 133 169 226 270 320
#     4  10  20  35  53  74 104 144 183 216 259 317
#
# _framework density 16.905745
#
# number of rings (size 3 to 8) (size 9 to 14) (size 15 to 20)
#    0.000    1.750    5.000    0.750    0.000    1.000 
#    0.000    0.000    0.000    0.000    0.000    0.000 
#    0.000    0.250    0.000    0.000    0.000    0.000 
#
# Total GULP energy -1586641.712708 kJ/mol
# GULP energy per Si atom -12395.638381 kJ/mol
# Density = 1.686727 g / cm^3
# Si number density = 16.905745 Si / 1000 Ang^3
#
#
#
# Elastic Constant Matrix: (Units=GPa)
#
#
# Indices 1 2 3 4 5 6 
#
# 1 87.3048 34.7767 28.9819 0.0000 0.0000 0.0000
# 2 34.7767 87.3044 28.9818 0.0000 0.0000 0.0000
# 3 28.9819 28.9818 111.6864 0.0000 0.0000 0.0000
# 4 0.0000 0.0000 0.0000 19.6661 0.0000 0.0000
# 5 0.0000 0.0000 0.0000 0.0000 19.6660 0.0000
# 6 0.0000 0.0000 0.0000 0.0000 0.0000 12.0643
#
#
#
# Elastic Compliance Matrix: (Units=1/GPa)
#
#
# Indices 1 2 3 4 5 6 
#
# 1 0.014190 -0.004848 -0.002424 0.000000 0.000000 0.000000
# 2 -0.004848 0.014190 -0.002424 0.000000 0.000000 0.000000
# 3 -0.002424 -0.002424 0.010212 0.000000 0.000000 0.000000
# 4 0.000000 0.000000 0.000000 0.050849 0.000000 0.000000
# 5 0.000000 0.000000 0.000000 0.000000 0.050849 0.000000
# 6 0.000000 0.000000 0.000000 0.000000 0.000000 0.082889
#
#
# Mechanical properties :
#
#
# Convention : Reuss Voigt Hill
#
# Bulk Modulus (GPa) = 52.08514 52.41962 52.25238
# Shear Modulus (GPa) = 20.08262 23.18293 21.63278
#
# Velocity S-wave (km/s) = 3.45036 3.70713 3.58105
# Velocity P-wave (km/s) = 6.83735 7.02838 6.93352
#
# Compressibility (1/GPa) = 0.01919934
#
# Stress axis : x y z
#
# Youngs Moduli (GPa) = 70.47285 70.47257 97.92588
#
# Poissons Ratio (x) = 0.34162 0.23740
# Poissons Ratio (y) = 0.34162 0.23740
# Poissons Ratio (z) = 0.17085 0.17084
#
# Static dielectric constant tensor:
#      x y z
#    x 2.975480 0.000000 0.000000 
#    y 0.000000 2.975480 0.000000 
#    z 0.000000 0.000000 3.347650 
# 
# 
# High freq. dielectric constant tensor:
#      x y z
#    x 1.631510 0.000000 0.000000 
#    y 0.000000 1.631510 0.000000 
#    z 0.000000 0.000000 1.666190 
# 
# From -- ./inp_files/6844.got.cif
#   From: 2010.03.12/outbox.cif.g09.slc.cpg/sg137_4_cif.got.tgz:6844.got - 2010.04.08 09:34:49.
