data_PCOD8318664
_publ_section_title
;
Structure prediction by ZEFSAII (Michael W. Deem and Ramdas Pophale) SiO2 
 PCOD8318664
Probable space group: P 42/N M C
;
_chemical_formula_sum "Si O2"
_cell_formula_units_Z 48
_cell_length_a 9.722286
_cell_length_b 9.722286
_cell_length_c 27.354372
_cell_angle_alpha 90.000000
_cell_angle_beta 90.000000
_cell_angle_gamma 90.000000
_cell_volume 2585.613066
_symmetry_space_group_name_H-M "P 42/N M C"
_symmetry_group_IT_number 137
_space_group.IT_coordinate_system_code '2'
_symmetry_cell_setting 'tetragonal'
loop_
_space_group_symop_operation_xyz
x,y,z
1/2-y,x,1/2+z
1/2-x,1/2-y,z
y,1/2-x,1/2+z
1/2+x,-y,-z
-x,1/2+y,-z
1/2+y,1/2+x,1/2-z
-y,-x,1/2-z
-x,-y,-z
1/2+y,-x,1/2-z
1/2+x,1/2+y,-z
-y,1/2+x,1/2-z
1/2-x,y,z
x,1/2-y,z
1/2-y,1/2-x,1/2+z
y,x,1/2+z
loop_
_atom_site_type_symbol
_atom_site_label
_atom_site_fract_x
_atom_site_fract_y
_atom_site_fract_z
Si Si1 0.090754 0.750000 0.435494
Si Si2 0.906042 0.592644 0.716538
Si Si3 0.416694 0.750000 0.545594
Si Si4 0.088426 0.461830 0.394895
O O1 0.250000 0.750000 0.445816
O O2 0.027930 0.750000 0.489849
O O3 0.048765 0.619784 0.403212
O O4 0.750000 0.542072 0.724041
O O5 0.923547 0.750000 0.732534
O O6 0.948089 0.577088 0.660254
O O7 0.002609 0.502609 0.750000
O O8 0.250000 0.750000 0.551472
O O9 0.484731 0.617615 0.570070
O O10 0.250000 0.429627 0.406384
#
# Coordination Sequence:
#
# PCOD8318664 Si02
#       4
#     8  16   8  16
#     4   9  20  35  59  89 117 149 195 243 280 331
#     4  10  22  39  60  86 112 147 193 237 288 347
#     4  11  21  35  57  89 121 153 193 231 282 349
#     4  10  20  39  61  82 114 154 194 237 287 340
#
# _framework density 18.564263
#
# number of rings (size 3 to 8) (size 9 to 14) (size 15 to 20)
#    0.000    2.000    1.667    1.500    2.333    2.000 
#    0.000    2.500    0.000    0.000    0.000    0.000 
#    0.000    0.000    0.000    0.000    0.000    0.000 
#
# Total GULP energy -595084.975133 kJ/mol
# GULP energy per Si atom -12397.603649 kJ/mol
# Density = 1.852201 g / cm^3
# Si number density = 18.564263 Si / 1000 Ang^3
#
#
#
# Elastic Constant Matrix: (Units=GPa)
#
#
# Indices 1 2 3 4 5 6 
#
# 1 85.4889 33.4710 28.7687 0.0000 0.0000 0.0000
# 2 33.4710 85.4889 28.7687 0.0000 0.0000 0.0000
# 3 28.7687 28.7687 71.1814 0.0000 0.0000 0.0000
# 4 0.0000 0.0000 0.0000 36.0118 0.0000 0.0000
# 5 0.0000 0.0000 0.0000 0.0000 36.0118 0.0000
# 6 0.0000 0.0000 0.0000 0.0000 0.0000 35.4820
#
#
#
# Elastic Compliance Matrix: (Units=1/GPa)
#
#
# Indices 1 2 3 4 5 6 
#
# 1 0.014836 -0.004388 -0.004223 0.000000 0.000000 0.000000
# 2 -0.004388 0.014836 -0.004223 0.000000 0.000000 0.000000
# 3 -0.004223 -0.004223 0.017462 0.000000 0.000000 0.000000
# 4 0.000000 0.000000 0.000000 0.027769 0.000000 0.000000
# 5 0.000000 0.000000 0.000000 0.000000 0.027769 0.000000
# 6 0.000000 0.000000 0.000000 0.000000 0.000000 0.028183
#
#
# Mechanical properties :
#
#
# Convention : Reuss Voigt Hill
#
# Bulk Modulus (GPa) = 46.58153 47.13063 46.85608
# Shear Modulus (GPa) = 30.54764 31.57785 31.06274
#
# Velocity S-wave (km/s) = 4.06089 4.12879 4.09498
# Velocity P-wave (km/s) = 6.86544 6.94062 6.90313
#
# Compressibility (1/GPa) = 0.02146774
#
# Stress axis : x y z
#
# Youngs Moduli (GPa) = 67.40167 67.40167 57.26681
#
# Poissons Ratio (x) = 0.29574 0.24184
# Poissons Ratio (y) = 0.29574 0.24184
# Poissons Ratio (z) = 0.28463 0.28463
#
# Static dielectric constant tensor:
#      x y z
#    x 3.265240 0.000000 0.000000 
#    y 0.000000 3.265240 0.000000 
#    z 0.000000 0.000000 3.430220 
# 
# 
# High freq. dielectric constant tensor:
#      x y z
#    x 1.719810 0.000000 0.000000 
#    y 0.000000 1.719810 0.000000 
#    z 0.000000 0.000000 1.727160 
# 
# From -- ./inp_files/10015.got.cif
#   From: 2010.03.12/outbox.cif.g09.slc.cpg/sg137_6_cif.got.tgz:10015.got - 2010.04.08 09:34:49.
