data_PCOD8318073
_publ_section_title
;
Structure prediction by ZEFSAII (Michael W. Deem and Ramdas Pophale) SiO2 
 PCOD8318073
Probable space group: P 42/M N M
;
_chemical_formula_sum "Si O2"
_cell_formula_units_Z 96
_cell_length_a 24.141930
_cell_length_b 24.141930
_cell_length_c 8.519311
_cell_angle_alpha 90.000000
_cell_angle_beta 90.000000
_cell_angle_gamma 90.000000
_cell_volume 4965.333749
_symmetry_space_group_name_H-M "P 42/M N M"
_symmetry_group_IT_number 136
_symmetry_cell_setting 'tetragonal'
loop_
_space_group_symop_operation_xyz
x,y,z
1/2-y,1/2+x,1/2+z
-x,-y,z
1/2+y,1/2-x,1/2+z
1/2+x,1/2-y,1/2-z
1/2-x,1/2+y,1/2-z
y,x,-z
-y,-x,-z
-x,-y,-z
1/2+y,1/2-x,1/2-z
x,y,-z
1/2-y,1/2+x,1/2-z
1/2-x,1/2+y,1/2+z
1/2+x,1/2-y,1/2+z
-y,-x,z
y,x,z
loop_
_atom_site_type_symbol
_atom_site_label
_atom_site_fract_x
_atom_site_fract_y
_atom_site_fract_z
Si Si1 0.518183 0.290667 0.187206
Si Si2 0.000396 0.912640 0.686783
Si Si3 0.567148 0.800164 0.812831
Si Si4 0.468618 0.078495 0.814233
Si Si5 0.774728 0.688133 0.815822
Si Si6 0.769414 0.858962 0.319193
O O1 0.500155 0.350510 0.255646
O O2 0.477187 0.243746 0.253043
O O3 0.579487 0.276662 0.247564
O O4 0.517261 0.292303 0.000000
O O5 0.998933 0.910732 0.500000
O O6 0.946679 0.946679 0.746934
O O7 0.056323 0.943678 0.743718
O O8 0.551406 0.861523 0.753256
O O9 0.626702 0.781019 0.744228
O O10 0.567640 0.799958 0.000000
O O11 0.532649 0.069988 0.767670
O O12 0.462547 0.072551 0.000000
O O13 0.721600 0.721600 0.743858
O O14 0.830659 0.721352 0.781007
O O15 0.766653 0.683429 0.000000
O O16 0.750728 0.858945 0.500000
O O17 0.827620 0.827620 0.297937
#
# Coordination Sequence:
#
# PCOD8318073 Si02
#       6
#    16  16  16  16  16  16
#     4   9  16  26  41  64  94 123 151 187 230 273
#     4   8  13  21  35  58  90 126 157 185 223 271
#     4   9  19  31  45  68  94 123 157 194 234 280
#     4  10  20  35  53  72  95 123 158 200 244 290
#     4   9  18  33  50  67  92 125 157 191 232 276
#     4   9  17  29  48  72  94 120 155 193 231 272
#
# _framework density 19.334047999999999
#
# number of rings (size 3 to 8) (size 9 to 14) (size 15 to 20)
#    0.000    3.000    0.000    2.000    2.333    2.667 
#    0.000    4.167    0.000    1.000    0.000    0.000 
#    0.000    0.667    0.000    6.167    0.000    7.333 
#
# Total GULP energy -1190043.073066 kJ/mol
# GULP energy per Si atom -12396.282011 kJ/mol
# Density = 1.929004 g / cm^3
# Si number density = 19.334048 Si / 1000 Ang^3
#
#
#
# Elastic Constant Matrix: (Units=GPa)
#
#
# Indices 1 2 3 4 5 6 
#
# 1 168.4315 95.0865 3.2950 0.0000 0.0000 0.0000
# 2 95.0865 168.4315 3.2950 0.0000 0.0000 0.0000
# 3 3.2950 3.2950 8.0654 0.0000 0.0000 0.0000
# 4 0.0000 0.0000 0.0000 14.8837 0.0000 0.0000
# 5 0.0000 0.0000 0.0000 0.0000 14.8837 0.0000
# 6 0.0000 0.0000 0.0000 0.0000 0.0000 24.3988
#
#
#
# Elastic Compliance Matrix: (Units=1/GPa)
#
#
# Indices 1 2 3 4 5 6 
#
# 1 0.008734 -0.004900 -0.001566 0.000000 0.000000 0.000000
# 2 -0.004900 0.008734 -0.001566 0.000000 0.000000 0.000000
# 3 -0.001566 -0.001566 0.125266 0.000000 0.000000 0.000000
# 4 0.000000 0.000000 0.000000 0.067187 0.000000 0.000000
# 5 0.000000 0.000000 0.000000 0.000000 0.067187 0.000000
# 6 0.000000 0.000000 0.000000 0.000000 0.000000 0.040986
#
#
# Mechanical properties :
#
#
# Convention : Reuss Voigt Hill
#
# Bulk Modulus (GPa) = 7.89458 60.92016 34.40737
# Shear Modulus (GPa) = 13.28432 27.05006 20.16719
#
# Velocity S-wave (km/s) = 2.62409 3.74450 3.23320
# Velocity P-wave (km/s) = 3.64325 7.09032 5.63675
#
# Compressibility (1/GPa) = 0.12666919
#
# Stress axis : x y z
#
# Youngs Moduli (GPa) = 114.49393 114.49393 7.98298
#
# Poissons Ratio (x) = 0.56103 0.01250
# Poissons Ratio (y) = 0.56103 0.01250
# Poissons Ratio (z) = 0.17933 0.17933
#
# Static dielectric constant tensor:
#      x y z
#    x 3.790410 0.000000 0.000000 
#    y 0.000000 3.790410 0.000000 
#    z 0.000000 0.000000 2.928200 
# 
# 
# High freq. dielectric constant tensor:
#      x y z
#    x 1.760400 0.000000 0.000000 
#    y 0.000000 1.760400 0.000000 
#    z 0.000000 0.000000 1.692580 
# 
# From -- ./inp_files/2009.got.cif
#   From: 2010.03.12/outbox.cif.g09.slc.cpg/sg136_2_cif.got.tgz:2009.got - 2010.04.06 18:39:43.
