data_PCOD8318528
_publ_section_title
;
Structure prediction by ZEFSAII (Michael W. Deem and Ramdas Pophale) SiO2 
 PCOD8318528
Probable space group: P 42/N M C
;
_chemical_formula_sum "Si O2"
_cell_formula_units_Z 96
_cell_length_a 17.119686
_cell_length_b 17.119686
_cell_length_c 16.589216
_cell_angle_alpha 90.000000
_cell_angle_beta 90.000000
_cell_angle_gamma 90.000000
_cell_volume 4862.027955
_symmetry_space_group_name_H-M "P 42/N M C"
_symmetry_group_IT_number 137
_space_group.IT_coordinate_system_code '2'
_symmetry_cell_setting 'tetragonal'
loop_
_space_group_symop_operation_xyz
x,y,z
1/2-y,x,1/2+z
1/2-x,1/2-y,z
y,1/2-x,1/2+z
1/2+x,-y,-z
-x,1/2+y,-z
1/2+y,1/2+x,1/2-z
-y,-x,1/2-z
-x,-y,-z
1/2+y,-x,1/2-z
1/2+x,1/2+y,-z
-y,1/2+x,1/2-z
1/2-x,y,z
x,1/2-y,z
1/2-y,1/2-x,1/2+z
y,x,1/2+z
loop_
_atom_site_type_symbol
_atom_site_label
_atom_site_fract_x
_atom_site_fract_y
_atom_site_fract_z
Si Si1 0.658800 0.456839 0.797177
Si Si2 0.988685 0.658795 0.959131
Si Si3 0.959787 0.158735 0.212885
Si Si4 0.904550 0.912381 0.692039
Si Si5 0.335247 0.341227 0.962284
Si Si6 0.036548 0.547777 0.075172
O O1 0.612671 0.387330 0.750000
O O2 0.750000 0.434080 0.805793
O O3 0.652790 0.539674 0.750999
O O4 0.621542 0.470421 0.887069
O O5 0.986770 0.750000 0.952483
O O6 0.023147 0.624083 0.876545
O O7 0.041199 0.635151 0.036727
O O8 0.900152 0.625439 0.975132
O O9 0.886504 0.113496 0.250000
O O10 0.937936 0.250000 0.211342
O O11 0.039309 0.147225 0.261816
O O12 0.854751 0.861904 0.629496
O O13 0.959844 0.975662 0.648287
O O14 0.250000 0.380353 0.978055
O O15 0.327951 0.250000 0.975893
O O16 0.000000 0.500000 0.000000
#
# Coordination Sequence:
#
# PCOD8318528 Si02
#       6
#    16  16  16  16  16  16
#     4  10  21  36  57  84 116 154 195 239 286 336
#     4   9  19  35  54  75 105 147 186 224 277 335
#     4  11  22  38  59  80 105 139 181 230 283 340
#     4  10  19  34  55  80 109 143 182 225 276 332
#     4   9  17  31  52  79 111 145 181 222 270 325
#     4  10  19  34  55  77 107 143 186 231 275 331
#
# _framework density 19.744845999999999
#
# number of rings (size 3 to 8) (size 9 to 14) (size 15 to 20)
#    0.000    2.167    0.000    4.500    0.000    4.333 
#    0.000   11.667    0.000    5.000    0.000    0.000 
#    0.000    0.000    0.000    0.000    0.000    0.000 
#
# Total GULP energy -1189310.699696 kJ/mol
# GULP energy per Si atom -12388.653122 kJ/mol
# Density = 1.969991 g / cm^3
# Si number density = 19.744846 Si / 1000 Ang^3
#
#
#
# Elastic Constant Matrix: (Units=GPa)
#
#
# Indices 1 2 3 4 5 6 
#
# 1 89.3234 38.2562 46.0933 0.0000 0.0000 0.0000
# 2 38.2562 89.3236 46.0935 0.0000 0.0000 0.0000
# 3 46.0933 46.0935 122.5615 0.0000 0.0000 0.0000
# 4 0.0000 0.0000 0.0000 30.5460 0.0000 0.0000
# 5 0.0000 0.0000 0.0000 0.0000 30.5459 0.0000
# 6 0.0000 0.0000 0.0000 0.0000 0.0000 24.9153
#
#
#
# Elastic Compliance Matrix: (Units=1/GPa)
#
#
# Indices 1 2 3 4 5 6 
#
# 1 0.015173 -0.004409 -0.004048 0.000000 0.000000 0.000000
# 2 -0.004409 0.015173 -0.004048 0.000000 0.000000 0.000000
# 3 -0.004048 -0.004048 0.011204 0.000000 0.000000 0.000000
# 4 0.000000 0.000000 0.000000 0.032738 0.000000 0.000000
# 5 0.000000 0.000000 0.000000 0.000000 0.032738 0.000000
# 6 0.000000 0.000000 0.000000 0.000000 0.000000 0.040136
#
#
# Mechanical properties :
#
#
# Convention : Reuss Voigt Hill
#
# Bulk Modulus (GPa) = 60.46416 62.45497 61.45956
# Shear Modulus (GPa) = 28.13996 28.58580 28.36288
#
# Velocity S-wave (km/s) = 3.77925 3.80907 3.79419
# Velocity P-wave (km/s) = 7.05215 7.14458 7.09852
#
# Compressibility (1/GPa) = 0.01653872
#
# Stress axis : x y z
#
# Youngs Moduli (GPa) = 65.90836 65.90837 89.25522
#
# Poissons Ratio (x) = 0.29062 0.36129
# Poissons Ratio (y) = 0.29062 0.36129
# Poissons Ratio (z) = 0.26679 0.26679
#
# Static dielectric constant tensor:
#      x y z
#    x 3.808170 0.000000 0.000000 
#    y 0.000000 3.808170 0.000000 
#    z 0.000000 0.000000 4.645700 
# 
# 
# High freq. dielectric constant tensor:
#      x y z
#    x 1.759960 0.000000 0.000000 
#    y 0.000000 1.759950 0.000000 
#    z 0.000000 0.000000 1.779030 
# 
# From -- ./inp_files/6470.got.cif
#   From: 2010.03.12/outbox.cif.g09.slc.cpg/sg137_4_cif.got.tgz:6470.got - 2010.04.08 09:34:49.
