data_PCOD8318214
_publ_section_title
;
Structure prediction by ZEFSAII (Michael W. Deem and Ramdas Pophale) SiO2 
 PCOD8318214
Probable space group: P 42/M N M
;
_chemical_formula_sum "Si O2"
_cell_formula_units_Z 120
_cell_length_a 25.834912
_cell_length_b 25.834912
_cell_length_c 9.202644
_cell_angle_alpha 90.000000
_cell_angle_beta 90.000000
_cell_angle_gamma 90.000000
_cell_volume 6142.237356
_symmetry_space_group_name_H-M "P 42/M N M"
_symmetry_group_IT_number 136
_symmetry_cell_setting 'tetragonal'
loop_
_space_group_symop_operation_xyz
x,y,z
1/2-y,1/2+x,1/2+z
-x,-y,z
1/2+y,1/2-x,1/2+z
1/2+x,1/2-y,1/2-z
1/2-x,1/2+y,1/2-z
y,x,-z
-y,-x,-z
-x,-y,-z
1/2+y,1/2-x,1/2-z
x,y,-z
1/2-y,1/2+x,1/2-z
1/2-x,1/2+y,1/2+z
1/2+x,1/2-y,1/2+z
-y,-x,z
y,x,z
loop_
_atom_site_type_symbol
_atom_site_label
_atom_site_fract_x
_atom_site_fract_y
_atom_site_fract_z
Si Si1 0.542784 0.457217 0.327489
Si Si2 0.371875 0.939788 0.165530
Si Si3 0.184440 0.269019 0.167275
Si Si4 0.956533 0.643312 0.671105
Si Si5 0.254079 0.585399 0.169839
Si Si6 0.632784 0.779919 0.333763
Si Si7 0.317351 0.401941 0.836638
Si Si8 0.514549 0.351947 0.830480
O O1 0.500000 0.500000 0.282075
O O2 0.547079 0.452922 0.500000
O O3 0.598315 0.472333 0.264289
O O4 0.410960 0.895288 0.220935
O O5 0.313308 0.919307 0.179920
O O6 0.377766 0.990803 0.260445
O O7 0.384846 0.954316 0.000000
O O8 0.237053 0.237053 0.184335
O O9 0.137985 0.237842 0.241581
O O10 0.190506 0.323313 0.246134
O O11 0.170915 0.278944 0.000000
O O12 0.963901 0.642826 0.500000
O O13 0.943710 0.701813 0.723305
O O14 0.304958 0.552716 0.204899
O O15 0.249300 0.598449 0.000000
O O16 0.650895 0.774821 0.500000
O O17 0.623314 0.723488 0.270754
O O18 0.369457 0.369457 0.832589
O O19 0.331869 0.458627 0.782491
O O20 0.293924 0.403339 0.000000
O O21 0.516281 0.367418 0.000000
#
# Coordination Sequence:
#
# PCOD8318214 Si02
#       8
#     8  16  16  16  16  16  16  16
#     4  11  25  43  63  89 127 169 209 261 319 367
#     4  10  22  39  59  85 117 153 198 245 294 349
#     4  11  24  39  58  87 122 158 198 244 297 357
#     4  10  21  40  62  86 119 155 195 244 293 351
#     4  10  21  40  63  88 119 155 199 246 299 360
#     4  11  22  39  61  87 121 159 198 244 297 358
#     4  10  21  38  61  90 123 155 195 247 299 359
#     4  10  22  40  65  92 118 160 209 253 304 366
#
# _framework density 19.536854999999999
#
# number of rings (size 3 to 8) (size 9 to 14) (size 15 to 20)
#    0.000    1.667    1.333    2.600    0.933    8.533 
#    0.000    1.333    0.000    0.000    0.000    0.000 
#    0.000    0.000    0.000    0.000    0.000    0.000 
#
# Total GULP energy -1488522.570396 kJ/mol
# GULP energy per Si atom -12404.354753 kJ/mol
# Density = 1.949239 g / cm^3
# Si number density = 19.536855 Si / 1000 Ang^3
#
#
#
# Elastic Constant Matrix: (Units=GPa)
#
#
# Indices 1 2 3 4 5 6 
#
# 1 112.5124 21.8663 47.7013 0.0000 0.0000 0.0000
# 2 21.8663 112.5122 47.7007 0.0000 0.0000 0.0000
# 3 47.7013 47.7007 77.9851 0.0000 0.0000 0.0000
# 4 0.0000 0.0000 0.0000 33.5134 0.0000 0.0000
# 5 0.0000 0.0000 0.0000 0.0000 33.5134 0.0000
# 6 0.0000 0.0000 0.0000 0.0000 0.0000 23.6889
#
#
#
# Elastic Compliance Matrix: (Units=1/GPa)
#
#
# Indices 1 2 3 4 5 6 
#
# 1 0.012093 0.001061 -0.008046 0.000000 0.000000 0.000000
# 2 0.001061 0.012093 -0.008046 0.000000 0.000000 0.000000
# 3 -0.008046 -0.008046 0.022666 0.000000 0.000000 0.000000
# 4 0.000000 0.000000 0.000000 0.029839 0.000000 0.000000
# 5 0.000000 0.000000 0.000000 0.000000 0.029839 0.000000
# 6 0.000000 0.000000 0.000000 0.000000 0.000000 0.042214
#
#
# Mechanical properties :
#
#
# Convention : Reuss Voigt Hill
#
# Bulk Modulus (GPa) = 59.55869 59.72737 59.64303
# Shear Modulus (GPa) = 27.11489 30.52589 28.82039
#
# Velocity S-wave (km/s) = 3.72947 3.95711 3.84497
# Velocity P-wave (km/s) = 7.00691 7.17748 7.09271
#
# Compressibility (1/GPa) = 0.01679016
#
# Stress axis : x y z
#
# Youngs Moduli (GPa) = 82.69350 82.69401 44.11980
#
# Poissons Ratio (x) = -0.08773 0.35498
# Poissons Ratio (y) = -0.08773 0.35497
# Poissons Ratio (z) = 0.66533 0.66533
#
# Static dielectric constant tensor:
#      x y z
#    x 3.670110 0.000000 0.000000 
#    y 0.000000 3.670100 0.000000 
#    z 0.000000 0.000000 3.540400 
# 
# 
# High freq. dielectric constant tensor:
#      x y z
#    x 1.769570 0.000000 0.000000 
#    y 0.000000 1.769570 0.000000 
#    z 0.000000 0.000000 1.757280 
# 
# From -- ./inp_files/2341.got.cif
#   From: 2010.03.12/outbox.cif.g09.slc.cpg/sg136_2_cif.got.tgz:2341.got - 2010.04.06 18:39:43.
