data_PCOD8318454
_publ_section_title
;
Structure prediction by ZEFSAII (Michael W. Deem and Ramdas Pophale) SiO2 
 PCOD8318454
Probable space group: P 42/N M C
;
_chemical_formula_sum "Si O2"
_cell_formula_units_Z 96
_cell_length_a 13.691879
_cell_length_b 13.691879
_cell_length_c 32.219169
_cell_angle_alpha 90.000000
_cell_angle_beta 90.000000
_cell_angle_gamma 90.000000
_cell_volume 6040.048693
_symmetry_space_group_name_H-M "P 42/N M C"
_symmetry_group_IT_number 137
_space_group.IT_coordinate_system_code '2'
_symmetry_cell_setting 'tetragonal'
loop_
_space_group_symop_operation_xyz
x,y,z
1/2-y,x,1/2+z
1/2-x,1/2-y,z
y,1/2-x,1/2+z
1/2+x,-y,-z
-x,1/2+y,-z
1/2+y,1/2+x,1/2-z
-y,-x,1/2-z
-x,-y,-z
1/2+y,-x,1/2-z
1/2+x,1/2+y,-z
-y,1/2+x,1/2-z
1/2-x,y,z
x,1/2-y,z
1/2-y,1/2-x,1/2+z
y,x,1/2+z
loop_
_atom_site_type_symbol
_atom_site_label
_atom_site_fract_x
_atom_site_fract_y
_atom_site_fract_z
Si Si1 0.138032 0.638032 0.540653
Si Si2 0.138258 0.861742 0.443579
Si Si3 0.365123 0.015351 0.827398
Si Si4 0.991538 0.008462 0.099683
Si Si5 0.515352 0.865123 0.827398
Si Si6 0.634180 0.641803 0.250000
O O1 0.250000 0.614196 0.552854
O O2 0.114195 0.750000 0.552854
O O3 0.121554 0.621554 0.492120
O O4 0.065373 0.565373 0.563738
O O5 0.250000 0.886106 0.431804
O O6 0.113893 0.750000 0.431805
O O7 0.067558 0.932442 0.418571
O O8 0.250000 0.009922 0.831560
O O9 0.401414 0.088077 0.791504
O O10 0.412929 0.049502 0.871261
O O11 0.406933 0.906932 0.816706
O O12 0.049502 0.087071 0.128739
O O13 0.509922 0.750000 0.831560
O O14 0.588077 0.901414 0.791504
O O15 0.750000 0.645500 0.250000
O O16 0.588807 0.750000 0.250000
#
# Coordination Sequence:
#
# PCOD8318454 Si02
#       6
#    16  16  16  16  16  16
#     4   9  17  31  52  76 102 134 166 197 247 313
#     4   9  19  35  52  70  96 133 173 210 252 299
#     4   9  19  31  47  74 102 128 163 203 249 300
#     4  10  19  29  50  76 103 122 166 209 255 295
#     4   9  19  31  47  74 102 128 163 203 249 300
#     4   9  17  32  49  63  91 133 167 193 231 288
#
# _framework density 15.893912
#
# number of rings (size 3 to 8) (size 9 to 14) (size 15 to 20)
#    1.000    1.833    0.000    3.000    0.000    1.667 
#    0.000    0.000    0.000    6.000    0.000    9.333 
#    0.000    5.333    0.000    0.000    0.000    0.000 
#
# Total GULP energy -1189424.364211 kJ/mol
# GULP energy per Si atom -12389.837127 kJ/mol
# Density = 1.585774 g / cm^3
# Si number density = 15.893912 Si / 1000 Ang^3
#
#
#
# Elastic Constant Matrix: (Units=GPa)
#
#
# Indices 1 2 3 4 5 6 
#
# 1 106.4267 64.3684 69.1451 0.0000 0.0000 0.0000
# 2 64.3684 106.4267 69.1451 0.0000 0.0000 0.0000
# 3 69.1451 69.1451 103.6933 0.0000 0.0000 0.0000
# 4 0.0000 0.0000 0.0000 26.5581 0.0000 0.0000
# 5 0.0000 0.0000 0.0000 0.0000 26.5581 0.0000
# 6 0.0000 0.0000 0.0000 0.0000 0.0000 30.4844
#
#
#
# Elastic Compliance Matrix: (Units=1/GPa)
#
#
# Indices 1 2 3 4 5 6 
#
# 1 0.018251 -0.005525 -0.008486 0.000000 0.000000 0.000000
# 2 -0.005525 0.018251 -0.008486 0.000000 0.000000 0.000000
# 3 -0.008486 -0.008486 0.020961 0.000000 0.000000 0.000000
# 4 0.000000 0.000000 0.000000 0.037653 0.000000 0.000000
# 5 0.000000 0.000000 0.000000 0.000000 0.037653 0.000000
# 6 0.000000 0.000000 0.000000 0.000000 0.000000 0.032804
#
#
# Mechanical properties :
#
#
# Convention : Reuss Voigt Hill
#
# Bulk Modulus (GPa) = 80.19794 80.20707 80.20250
# Shear Modulus (GPa) = 23.28568 24.31267 23.79918
#
# Velocity S-wave (km/s) = 3.83177 3.91536 3.87379
# Velocity P-wave (km/s) = 8.37523 8.42696 8.40113
#
# Compressibility (1/GPa) = 0.01246915
#
# Stress axis : x y z
#
# Youngs Moduli (GPa) = 54.79096 54.79096 47.70761
#
# Poissons Ratio (x) = 0.30274 0.40484
# Poissons Ratio (y) = 0.30274 0.40484
# Poissons Ratio (z) = 0.46495 0.46495
#
# Static dielectric constant tensor:
#      x y z
#    x 2.879990 0.000000 0.000000 
#    y 0.000000 2.879990 0.000000 
#    z 0.000000 0.000000 3.106080 
# 
# 
# High freq. dielectric constant tensor:
#      x y z
#    x 1.595580 0.000000 0.000000 
#    y 0.000000 1.595580 0.000000 
#    z 0.000000 0.000000 1.620350 
# 
# From -- ./inp_files/10607.got.cif
#   From: 2010.03.12/outbox.cif.g09.slc.cpg/sg137_6_cif.got.tgz:10607.got - 2010.04.08 09:34:49.
