data_PCOD8318750
_publ_section_title
;
Structure prediction by ZEFSAII (Michael W. Deem and Ramdas Pophale) SiO2 
 PCOD8318750
Probable space group: P 42/N M C
;
_chemical_formula_sum "Si O2"
_cell_formula_units_Z 42
_cell_length_a 7.958782
_cell_length_b 7.958782
_cell_length_c 31.667387
_cell_angle_alpha 90.000000
_cell_angle_beta 90.000000
_cell_angle_gamma 90.000000
_cell_volume 2005.882307
_symmetry_space_group_name_H-M "P 42/N M C"
_symmetry_group_IT_number 137
_space_group.IT_coordinate_system_code '2'
_symmetry_cell_setting 'tetragonal'
loop_
_space_group_symop_operation_xyz
x,y,z
1/2-y,x,1/2+z
1/2-x,1/2-y,z
y,1/2-x,1/2+z
1/2+x,-y,-z
-x,1/2+y,-z
1/2+y,1/2+x,1/2-z
-y,-x,1/2-z
-x,-y,-z
1/2+y,-x,1/2-z
1/2+x,1/2+y,-z
-y,1/2+x,1/2-z
1/2-x,y,z
x,1/2-y,z
1/2-y,1/2-x,1/2+z
y,x,1/2+z
loop_
_atom_site_type_symbol
_atom_site_label
_atom_site_fract_x
_atom_site_fract_y
_atom_site_fract_z
Si Si1 0.560599 0.053100 0.545615
Si Si2 0.250000 0.750000 0.250000
Si Si3 0.931328 0.443612 0.368291
Si Si4 0.750000 0.545595 0.684493
O O1 0.750000 0.990673 0.551537
O O2 0.542949 0.250000 0.551203
O O3 0.500000 0.000000 0.500000
O O4 0.451072 0.965738 0.581566
O O5 0.428258 0.750000 0.225501
O O6 0.750000 0.524603 0.355085
O O7 0.924004 0.250000 0.357449
O O8 0.087354 0.516944 0.342016
O O9 0.750000 0.750000 0.693861
#
# Coordination Sequence:
#
# PCOD8318750 Si02
#       4
#    16   2  16   8
#     4  11  23  36  54  84 125 168 218 269 317 380
#     4  12  28  44  76 104 132 164 236 268 332 432
#     4  10  21  39  64  91 124 169 215 259 326 394
#     4  10  24  46  68  98 136 170 208 280 338 386
#
# _framework density 20.938417999999999
#
# number of rings (size 3 to 8) (size 9 to 14) (size 15 to 20)
#    0.000    1.524    1.905    2.286    2.667    9.143 
#    0.000    0.000    0.000    0.000    0.000    0.000 
#    0.000    0.000    0.000    0.000    0.000    0.000 
#
# Total GULP energy -520516.930053 kJ/mol
# GULP energy per Si atom -12393.260239 kJ/mol
# Density = 2.089076 g / cm^3
# Si number density = 20.938418 Si / 1000 Ang^3
#
#
#
# Elastic Constant Matrix: (Units=GPa)
#
#
# Indices 1 2 3 4 5 6 
#
# 1 117.3493 35.5443 47.0041 0.0000 0.0000 0.0000
# 2 35.5443 117.3493 47.0041 0.0000 0.0000 0.0000
# 3 47.0041 47.0041 123.4120 0.0000 0.0000 0.0000
# 4 0.0000 0.0000 0.0000 38.2237 0.0000 0.0000
# 5 0.0000 0.0000 0.0000 0.0000 38.2237 0.0000
# 6 0.0000 0.0000 0.0000 0.0000 0.0000 18.7184
#
#
#
# Elastic Compliance Matrix: (Units=1/GPa)
#
#
# Indices 1 2 3 4 5 6 
#
# 1 0.010382 -0.001842 -0.003253 0.000000 0.000000 0.000000
# 2 -0.001842 0.010382 -0.003253 0.000000 0.000000 0.000000
# 3 -0.003253 -0.003253 0.010581 0.000000 0.000000 0.000000
# 4 0.000000 0.000000 0.000000 0.026162 0.000000 0.000000
# 5 0.000000 0.000000 0.000000 0.000000 0.026162 0.000000
# 6 0.000000 0.000000 0.000000 0.000000 0.000000 0.053423
#
#
# Mechanical properties :
#
#
# Convention : Reuss Voigt Hill
#
# Bulk Modulus (GPa) = 68.25721 68.57951 68.41836
# Shear Modulus (GPa) = 31.51172 34.27034 32.89103
#
# Velocity S-wave (km/s) = 3.88360 4.05003 3.96769
# Velocity P-wave (km/s) = 7.26496 7.39556 7.33055
#
# Compressibility (1/GPa) = 0.01465047
#
# Stress axis : x y z
#
# Youngs Moduli (GPa) = 96.31713 96.31713 94.51097
#
# Poissons Ratio (x) = 0.17740 0.30743
# Poissons Ratio (y) = 0.17740 0.30743
# Poissons Ratio (z) = 0.31331 0.31331
#
# Static dielectric constant tensor:
#      x y z
#    x 4.109590 0.000000 0.000000 
#    y 0.000000 4.109590 0.000000 
#    z 0.000000 0.000000 3.621520 
# 
# 
# High freq. dielectric constant tensor:
#      x y z
#    x 1.830140 0.000000 0.000000 
#    y 0.000000 1.830140 0.000000 
#    z 0.000000 0.000000 1.801920 
# 
# From -- ./inp_files/9319.got.cif
#   From: 2010.03.12/outbox.cif.g09.slc.cpg/sg137_5_cif.got.tgz:9319.got - 2010.04.08 09:34:49.
