data_PCOD8318116
_publ_section_title
;
Structure prediction by ZEFSAII (Michael W. Deem and Ramdas Pophale) SiO2 
 PCOD8318116
Probable space group: P 42/M N M
;
_chemical_formula_sum "Si O2"
_cell_formula_units_Z 112
_cell_length_a 13.515734
_cell_length_b 13.515734
_cell_length_c 32.514154
_cell_angle_alpha 90.000000
_cell_angle_beta 90.000000
_cell_angle_gamma 90.000000
_cell_volume 5939.525214
_symmetry_space_group_name_H-M "P 42/M N M"
_symmetry_group_IT_number 136
_symmetry_cell_setting 'tetragonal'
loop_
_space_group_symop_operation_xyz
x,y,z
1/2-y,1/2+x,1/2+z
-x,-y,z
1/2+y,1/2-x,1/2+z
1/2+x,1/2-y,1/2-z
1/2-x,1/2+y,1/2-z
y,x,-z
-y,-x,-z
-x,-y,-z
1/2+y,1/2-x,1/2-z
x,y,-z
1/2-y,1/2+x,1/2-z
1/2-x,1/2+y,1/2+z
1/2+x,1/2-y,1/2+z
-y,-x,z
y,x,z
loop_
_atom_site_type_symbol
_atom_site_label
_atom_site_fract_x
_atom_site_fract_y
_atom_site_fract_z
Si Si1 0.840031 0.520973 0.246723
Si Si2 0.622713 0.783247 0.165043
Si Si3 0.275512 0.126432 0.953977
Si Si4 0.613851 0.023668 0.591092
Si Si5 0.785555 0.944868 0.180785
Si Si6 0.325176 0.168406 0.452466
Si Si7 0.533846 0.687439 0.404386
O O1 0.897295 0.418433 0.237085
O O2 0.782616 0.559578 0.206756
O O3 0.754382 0.504919 0.280121
O O4 0.676180 0.676180 0.158318
O O5 0.546952 0.814025 0.129192
O O6 0.705218 0.866949 0.165554
O O7 0.242275 0.242275 0.951774
O O8 0.384821 0.107732 0.939259
O O9 0.194696 0.071592 0.925828
O O10 0.267303 0.084978 0.000000
O O11 0.500000 0.000000 0.604881
O O12 0.671309 0.941891 0.564742
O O13 0.887829 0.887829 0.191709
O O14 0.800670 0.024156 0.144706
O O15 0.360621 0.171415 0.500000
O O16 0.214881 0.214881 0.448860
O O17 0.398476 0.227338 0.423098
O O18 0.580583 0.580583 0.413656
#
# Coordination Sequence:
#
# PCOD8318116 Si02
#       7
#    16  16  16  16  16  16  16
#     4   9  20  34  59  84 112 147 196 240 284 341
#     4  10  21  37  58  86 119 149 183 242 301 345
#     4  11  23  37  55  84 120 154 193 241 291 347
#     4  12  22  35  65  88 113 150 203 242 291 345
#     4  10  20  37  56  82 120 158 192 234 289 349
#     4  10  22  39  58  85 120 153 193 250 304 346
#     4  11  22  36  56  82 117 158 197 234 285 352
#
# _framework density 18.856725000000001
#
# number of rings (size 3 to 8) (size 9 to 14) (size 15 to 20)
#    0.000    1.571    2.857    1.714    6.000    3.143 
#    0.000    1.429    0.000    2.571    0.000    5.000 
#    0.000    0.000    0.000    0.000    0.000    0.000 
#
# Total GULP energy -1388278.407987 kJ/mol
# GULP energy per Si atom -12395.342928 kJ/mol
# Density = 1.881381 g / cm^3
# Si number density = 18.856725 Si / 1000 Ang^3
#
#
#
# Elastic Constant Matrix: (Units=GPa)
#
#
# Indices 1 2 3 4 5 6 
#
# 1 84.6553 69.5844 64.2173 0.0000 0.0000 0.0000
# 2 69.5844 84.6553 64.2173 0.0000 0.0000 0.0000
# 3 64.2173 64.2173 128.8532 0.0000 0.0000 0.0000
# 4 0.0000 0.0000 0.0000 26.2990 0.0000 0.0000
# 5 0.0000 0.0000 0.0000 0.0000 26.2990 0.0000
# 6 0.0000 0.0000 0.0000 0.0000 0.0000 27.7478
#
#
#
# Elastic Compliance Matrix: (Units=1/GPa)
#
#
# Indices 1 2 3 4 5 6 
#
# 1 0.038718 -0.027635 -0.005523 0.000000 0.000000 0.000000
# 2 -0.027635 0.038718 -0.005523 0.000000 0.000000 0.000000
# 3 -0.005523 -0.005523 0.013266 0.000000 0.000000 0.000000
# 4 0.000000 0.000000 0.000000 0.038024 0.000000 0.000000
# 5 0.000000 0.000000 0.000000 0.000000 0.038024 0.000000
# 6 0.000000 0.000000 0.000000 0.000000 0.000000 0.036039
#
#
# Mechanical properties :
#
#
# Convention : Reuss Voigt Hill
#
# Bulk Modulus (GPa) = 74.97285 77.13355 76.05320
# Shear Modulus (GPa) = 17.56859 22.74548 20.15704
#
# Velocity S-wave (km/s) = 3.05567 3.47685 3.27304
# Velocity P-wave (km/s) = 7.23153 7.55723 7.39617
#
# Compressibility (1/GPa) = 0.01333816
#
# Stress axis : x y z
#
# Youngs Moduli (GPa) = 25.82791 25.82791 75.37974
#
# Poissons Ratio (x) = 0.71376 0.41635
# Poissons Ratio (y) = 0.71376 0.41635
# Poissons Ratio (z) = 0.14266 0.14266
#
# Static dielectric constant tensor:
#      x y z
#    x 3.520640 0.000000 0.000000 
#    y 0.000000 3.520640 0.000000 
#    z 0.000000 0.000000 3.529630 
# 
# 
# High freq. dielectric constant tensor:
#      x y z
#    x 1.723460 0.000000 0.000000 
#    y 0.000000 1.723460 0.000000 
#    z 0.000000 0.000000 1.740820 
# 
# From -- ./inp_files/9977.got.cif
#   From: 2010.03.12/outbox.cif.g09.slc.cpg/sg136_5_cif.got.tgz:9977.got - 2010.04.06 18:39:43.
