data_PCOD8318032
_publ_section_title
;
Structure prediction by ZEFSAII (Michael W. Deem and Ramdas Pophale) SiO2 
 PCOD8318032
Probable space group: P 42/M N M
;
_chemical_formula_sum "Si O2"
_cell_formula_units_Z 64
_cell_length_a 11.676785
_cell_length_b 11.676785
_cell_length_c 24.609009
_cell_angle_alpha 90.000000
_cell_angle_beta 90.000000
_cell_angle_gamma 90.000000
_cell_volume 3355.372128
_symmetry_space_group_name_H-M "P 42/M N M"
_symmetry_group_IT_number 136
_symmetry_cell_setting 'tetragonal'
loop_
_space_group_symop_operation_xyz
x,y,z
1/2-y,1/2+x,1/2+z
-x,-y,z
1/2+y,1/2-x,1/2+z
1/2+x,1/2-y,1/2-z
1/2-x,1/2+y,1/2-z
y,x,-z
-y,-x,-z
-x,-y,-z
1/2+y,1/2-x,1/2-z
x,y,-z
1/2-y,1/2+x,1/2-z
1/2-x,1/2+y,1/2+z
1/2+x,1/2-y,1/2+z
-y,-x,z
y,x,z
loop_
_atom_site_type_symbol
_atom_site_label
_atom_site_fract_x
_atom_site_fract_y
_atom_site_fract_z
Si Si1 0.634008 0.032033 0.440780
Si Si2 0.757647 0.059630 0.770044
Si Si3 0.545101 0.129371 0.828119
Si Si4 0.403766 0.596235 0.336712
Si Si5 0.796793 0.796793 0.060750
O O1 0.685505 0.994750 0.500000
O O2 0.668775 0.164070 0.430619
O O3 0.500000 0.000000 0.442084
O O4 0.684466 0.963472 0.388769
O O5 0.869978 0.130023 0.755479
O O6 0.675591 0.134197 0.808757
O O7 0.699741 0.032737 0.713037
O O8 0.793028 0.946765 0.803556
O O9 0.500000 0.000000 0.827234
O O10 0.500000 0.500000 0.342088
O O11 0.370263 0.629738 0.397456
O O12 0.833216 0.833216 0.000000
#
# Coordination Sequence:
#
# PCOD8318032 Si02
#       5
#    16  16  16   8   8
#     4   9  19  33  51  78 107 138 184 236 278 329
#     4  11  23  35  54  83 112 147 182 227 283 334
#     4  11  20  34  54  80 105 141 186 226 275 333
#     4  10  22  37  50  76 117 144 178 229 277 336
#     4  10  20  33  58  82 105 149 185 226 294 335
#
# _framework density 19.073891
#
# number of rings (size 3 to 8) (size 9 to 14) (size 15 to 20)
#    0.000    1.750    2.500    3.000    3.500    0.250 
#    0.000    0.000    0.000    2.250    0.000    0.000 
#    0.000    6.000    0.000    0.000    0.000    0.000 
#
# Total GULP energy -792946.219095 kJ/mol
# GULP energy per Si atom -12389.784673 kJ/mol
# Density = 1.903048 g / cm^3
# Si number density = 19.073891 Si / 1000 Ang^3
#
#
#
# Elastic Constant Matrix: (Units=GPa)
#
#
# Indices 1 2 3 4 5 6 
#
# 1 69.4894 26.3200 47.3535 0.0000 0.0000 0.0000
# 2 26.3200 69.4894 47.3535 0.0000 0.0000 0.0000
# 3 47.3535 47.3535 221.1265 0.0000 0.0000 0.0000
# 4 0.0000 0.0000 0.0000 6.0060 0.0000 0.0000
# 5 0.0000 0.0000 0.0000 0.0000 6.0060 0.0000
# 6 0.0000 0.0000 0.0000 0.0000 0.0000 32.6810
#
#
#
# Elastic Compliance Matrix: (Units=1/GPa)
#
#
# Indices 1 2 3 4 5 6 
#
# 1 0.018202 -0.004962 -0.002835 0.000000 0.000000 0.000000
# 2 -0.004962 0.018202 -0.002835 0.000000 0.000000 0.000000
# 3 -0.002835 -0.002835 0.005737 0.000000 0.000000 0.000000
# 4 0.000000 0.000000 0.000000 0.166500 0.000000 0.000000
# 5 0.000000 0.000000 0.000000 0.000000 0.166500 0.000000
# 6 0.000000 0.000000 0.000000 0.000000 0.000000 0.030599
#
#
# Mechanical properties :
#
#
# Convention : Reuss Voigt Hill
#
# Bulk Modulus (GPa) = 47.90299 66.90661 57.40480
# Shear Modulus (GPa) = 11.52169 24.87717 18.19943
#
# Velocity S-wave (km/s) = 2.46042 3.61536 3.09229
# Velocity P-wave (km/s) = 5.76546 7.25131 6.55065
#
# Compressibility (1/GPa) = 0.02087552
#
# Stress axis : x y z
#
# Youngs Moduli (GPa) = 54.93805 54.93805 174.31787
#
# Poissons Ratio (x) = 0.27262 0.49425
# Poissons Ratio (y) = 0.27262 0.49425
# Poissons Ratio (z) = 0.15577 0.15577
#
# Static dielectric constant tensor:
#      x y z
#    x 3.444540 0.000000 0.000000 
#    y 0.000000 3.444540 0.000000 
#    z 0.000000 0.000000 4.254110 
# 
# 
# High freq. dielectric constant tensor:
#      x y z
#    x 1.723320 0.000000 0.000000 
#    y 0.000000 1.723320 0.000000 
#    z 0.000000 0.000000 1.767620 
# 
# From -- ./inp_files/8149.got.cif
#   From: 2010.03.12/outbox.cif.g09.slc.cpg/sg136_5_cif.got.tgz:8149.got - 2010.04.06 18:39:43.
