data_PCOD8318316
_publ_section_title
;
Structure prediction by ZEFSAII (Michael W. Deem and Ramdas Pophale) SiO2 
 PCOD8318316
Probable space group: P 42/M N M
;
_chemical_formula_sum "Si O2"
_cell_formula_units_Z 88
_cell_length_a 12.091326
_cell_length_b 12.091326
_cell_length_c 28.462929
_cell_angle_alpha 90.000000
_cell_angle_beta 90.000000
_cell_angle_gamma 90.000000
_cell_volume 4161.284900
_symmetry_space_group_name_H-M "P 42/M N M"
_symmetry_group_IT_number 136
_symmetry_cell_setting 'tetragonal'
loop_
_space_group_symop_operation_xyz
x,y,z
1/2-y,1/2+x,1/2+z
-x,-y,z
1/2+y,1/2-x,1/2+z
1/2+x,1/2-y,1/2-z
1/2-x,1/2+y,1/2-z
y,x,-z
-y,-x,-z
-x,-y,-z
1/2+y,1/2-x,1/2-z
x,y,-z
1/2-y,1/2+x,1/2-z
1/2-x,1/2+y,1/2+z
1/2+x,1/2-y,1/2+z
-y,-x,z
y,x,z
loop_
_atom_site_type_symbol
_atom_site_label
_atom_site_fract_x
_atom_site_fract_y
_atom_site_fract_z
Si Si1 0.194580 0.624233 0.554391
Si Si2 0.060911 0.241003 0.792287
Si Si3 0.746847 0.071739 0.884913
Si Si4 0.913013 0.913013 0.555091
Si Si5 0.022400 0.304466 0.395064
Si Si6 0.922245 0.256274 0.700904
O O1 0.170935 0.598458 0.500000
O O2 0.261898 0.738103 0.560354
O O3 0.265751 0.524435 0.576650
O O4 0.081080 0.631789 0.582887
O O5 0.127193 0.127193 0.784399
O O6 0.142468 0.339104 0.806803
O O7 0.971460 0.224250 0.833037
O O8 0.001280 0.277173 0.744744
O O9 0.827190 0.172811 0.897504
O O10 0.620038 0.109030 0.887008
O O11 0.920693 0.920693 0.500000
O O12 0.941629 0.789288 0.569101
O O13 0.000000 0.000000 0.577591
O O14 0.995494 0.246801 0.345600
O O15 0.857564 0.142437 0.709260
#
# Coordination Sequence:
#
# PCOD8318316 Si02
#       6
#    16  16  16   8  16  16
#     4  11  25  46  73 102 136 183 237 289 349 415
#     4  11  25  44  67  98 138 184 228 282 348 415
#     4  12  26  45  67 101 142 185 232 287 346 414
#     4  11  24  42  68 102 143 185 225 285 357 419
#     4  12  24  44  70 102 140 179 230 290 348 413
#     4  11  24  41  67  98 131 174 229 281 336 407
#
# _framework density 21.147316
#
# number of rings (size 3 to 8) (size 9 to 14) (size 15 to 20)
#    0.000    0.636    2.727    4.909    1.273    9.818 
#    0.000    0.909    0.000    0.000    0.000    0.000 
#    0.000    0.000    0.000    0.000    0.000    0.000 
#
# Total GULP energy -1091934.719531 kJ/mol
# GULP energy per Si atom -12408.349086 kJ/mol
# Density = 2.109918 g / cm^3
# Si number density = 21.147316 Si / 1000 Ang^3
#
#
#
# Elastic Constant Matrix: (Units=GPa)
#
#
# Indices 1 2 3 4 5 6 
#
# 1 91.0336 32.2504 30.5842 0.0000 0.0000 0.0000
# 2 32.2504 91.0336 30.5842 0.0000 0.0000 0.0000
# 3 30.5842 30.5842 127.9719 0.0000 0.0000 0.0000
# 4 0.0000 0.0000 0.0000 31.2906 0.0000 0.0000
# 5 0.0000 0.0000 0.0000 0.0000 31.2906 0.0000
# 6 0.0000 0.0000 0.0000 0.0000 0.0000 25.6414
#
#
#
# Elastic Compliance Matrix: (Units=1/GPa)
#
#
# Indices 1 2 3 4 5 6 
#
# 1 0.013107 -0.003905 -0.002199 0.000000 0.000000 0.000000
# 2 -0.003905 0.013107 -0.002199 0.000000 0.000000 0.000000
# 3 -0.002199 -0.002199 0.008865 0.000000 0.000000 0.000000
# 4 0.000000 0.000000 0.000000 0.031959 0.000000 0.000000
# 5 0.000000 0.000000 0.000000 0.000000 0.031959 0.000000
# 6 0.000000 0.000000 0.000000 0.000000 0.000000 0.038999
#
#
# Mechanical properties :
#
#
# Convention : Reuss Voigt Hill
#
# Bulk Modulus (GPa) = 54.13229 55.20851 54.67040
# Shear Modulus (GPa) = 31.10222 32.08588 31.59405
#
# Velocity S-wave (km/s) = 3.83918 3.89942 3.86942
# Velocity P-wave (km/s) = 6.73095 6.81449 6.77285
#
# Compressibility (1/GPa) = 0.01847326
#
# Stress axis : x y z
#
# Youngs Moduli (GPa) = 76.29448 76.29448 112.79733
#
# Poissons Ratio (x) = 0.29789 0.24808
# Poissons Ratio (y) = 0.29789 0.24808
# Poissons Ratio (z) = 0.16780 0.16780
#
# Static dielectric constant tensor:
#      x y z
#    x 4.014420 0.000000 0.000000 
#    y 0.000000 4.014420 0.000000 
#    z 0.000000 0.000000 3.826890 
# 
# 
# High freq. dielectric constant tensor:
#      x y z
#    x 1.836770 0.000000 0.000000 
#    y 0.000000 1.836770 0.000000 
#    z 0.000000 0.000000 1.840510 
# 
# From -- ./inp_files/9697.got.cif
#   From: 2010.03.12/outbox.cif.g09.slc.cpg/sg136_5_cif.got.tgz:9697.got - 2010.04.06 18:39:43.
