data_PCOD8318322
_publ_section_title
;
Structure prediction by ZEFSAII (Michael W. Deem and Ramdas Pophale) SiO2 
 PCOD8318322
Probable space group: P 42/M N M
;
_chemical_formula_sum "Si O2"
_cell_formula_units_Z 52
_cell_length_a 14.871683
_cell_length_b 14.871683
_cell_length_c 10.492289
_cell_angle_alpha 90.000000
_cell_angle_beta 90.000000
_cell_angle_gamma 90.000000
_cell_volume 2320.547612
_symmetry_space_group_name_H-M "P 42/M N M"
_symmetry_group_IT_number 136
_symmetry_cell_setting 'tetragonal'
loop_
_space_group_symop_operation_xyz
x,y,z
1/2-y,1/2+x,1/2+z
-x,-y,z
1/2+y,1/2-x,1/2+z
1/2+x,1/2-y,1/2-z
1/2-x,1/2+y,1/2-z
y,x,-z
-y,-x,-z
-x,-y,-z
1/2+y,1/2-x,1/2-z
x,y,-z
1/2-y,1/2+x,1/2-z
1/2-x,1/2+y,1/2+z
1/2+x,1/2-y,1/2+z
-y,-x,z
y,x,z
loop_
_atom_site_type_symbol
_atom_site_label
_atom_site_fract_x
_atom_site_fract_y
_atom_site_fract_z
Si Si1 0.797272 0.797272 0.713648
Si Si2 0.795324 0.532152 0.500000
Si Si3 0.505258 0.233268 0.775394
Si Si4 0.895204 0.476784 0.000000
Si Si5 0.676642 0.676642 0.852009
Si Si6 0.693131 0.693131 0.500000
O O1 0.754893 0.754893 0.843917
O O2 0.737110 0.737110 0.622296
O O3 0.903192 0.784520 0.689577
O O4 0.803900 0.476330 0.368703
O O5 0.869263 0.612008 0.500000
O O6 0.701838 0.585355 0.500000
O O7 0.417542 0.296023 0.783958
O O8 0.485758 0.151505 0.872581
O O9 0.000000 0.500000 0.000000
O O10 0.658102 0.658102 0.000000
#
# Coordination Sequence:
#
# PCOD8318322 Si02
#       6
#     8   8  16   8   8   4
#     4  12  26  47  76 101 146 191 243 301 366 447
#     4  12  26  43  72 102 144 189 234 305 361 442
#     4  12  26  48  72 108 142 195 247 304 374 433
#     4  12  28  41  68 105 148 188 242 297 369 446
#     4  12  26  47  72 108 151 190 250 310 362 445
#     4  12  20  48  68  94 140 192 230 286 364 430
#
# _framework density 22.408505000000002
#
# number of rings (size 3 to 8) (size 9 to 14) (size 15 to 20)
#    0.000    0.000    7.692    0.000   10.769    0.615 
#    0.000    0.769    0.000    2.769    0.000    0.000 
#    0.000    0.000    0.000    0.000    0.000    0.000 
#
# Total GULP energy -644376.466070 kJ/mol
# GULP energy per Si atom -12391.855117 kJ/mol
# Density = 2.235750 g / cm^3
# Si number density = 22.408505 Si / 1000 Ang^3
#
#
#
# Elastic Constant Matrix: (Units=GPa)
#
#
# Indices 1 2 3 4 5 6 
#
# 1 118.6193 46.7724 24.5760 0.0000 0.0000 0.0000
# 2 46.7724 118.6193 24.5760 0.0000 0.0000 0.0000
# 3 24.5760 24.5760 184.2233 0.0000 0.0000 0.0000
# 4 0.0000 0.0000 0.0000 22.0108 0.0000 0.0000
# 5 0.0000 0.0000 0.0000 0.0000 22.0108 0.0000
# 6 0.0000 0.0000 0.0000 0.0000 0.0000 39.2910
#
#
#
# Elastic Compliance Matrix: (Units=1/GPa)
#
#
# Indices 1 2 3 4 5 6 
#
# 1 0.010107 -0.003811 -0.000840 0.000000 0.000000 0.000000
# 2 -0.003811 0.010107 -0.000840 0.000000 0.000000 0.000000
# 3 -0.000840 -0.000840 0.005652 0.000000 0.000000 0.000000
# 4 0.000000 0.000000 0.000000 0.045432 0.000000 0.000000
# 5 0.000000 0.000000 0.000000 0.000000 0.045432 0.000000
# 6 0.000000 0.000000 0.000000 0.000000 0.000000 0.025451
#
#
# Mechanical properties :
#
#
# Convention : Reuss Voigt Hill
#
# Bulk Modulus (GPa) = 67.18425 68.14564 67.66495
# Shear Modulus (GPa) = 31.62040 38.36504 34.99272
#
# Velocity S-wave (km/s) = 3.76052 4.14221 3.95597
# Velocity P-wave (km/s) = 6.99300 7.30437 7.15038
#
# Compressibility (1/GPa) = 0.01488444
#
# Stress axis : x y z
#
# Youngs Moduli (GPa) = 98.93970 98.93970 176.91965
#
# Poissons Ratio (x) = 0.37709 0.14859
# Poissons Ratio (y) = 0.37709 0.14859
# Poissons Ratio (z) = 0.08310 0.08310
#
# Static dielectric constant tensor:
#      x y z
#    x 4.108870 0.000000 0.000000 
#    y 0.000000 4.108870 0.000000 
#    z 0.000000 0.000000 4.683790 
# 
# 
# High freq. dielectric constant tensor:
#      x y z
#    x 1.875150 0.000000 0.000000 
#    y 0.000000 1.875150 0.000000 
#    z 0.000000 0.000000 1.907650 
# 
# From -- ./inp_files/3158.got.cif
#   From: 2010.03.12/outbox.cif.g09.slc.cpg/sg136_2_cif.got.tgz:3158.got - 2010.04.06 18:39:43.
