data_PCOD8318521
_publ_section_title
;
Structure prediction by ZEFSAII (Michael W. Deem and Ramdas Pophale) SiO2 
 PCOD8318521
Probable space group: P 42/N M C
;
_chemical_formula_sum "Si O2"
_cell_formula_units_Z 72
_cell_length_a 13.828307
_cell_length_b 13.828307
_cell_length_c 19.353560
_cell_angle_alpha 90.000000
_cell_angle_beta 90.000000
_cell_angle_gamma 90.000000
_cell_volume 3700.827892
_symmetry_space_group_name_H-M "P 42/N M C"
_symmetry_group_IT_number 137
_space_group.IT_coordinate_system_code '2'
_symmetry_cell_setting 'tetragonal'
loop_
_space_group_symop_operation_xyz
x,y,z
1/2-y,x,1/2+z
1/2-x,1/2-y,z
y,1/2-x,1/2+z
1/2+x,-y,-z
-x,1/2+y,-z
1/2+y,1/2+x,1/2-z
-y,-x,1/2-z
-x,-y,-z
1/2+y,-x,1/2-z
1/2+x,1/2+y,-z
-y,1/2+x,1/2-z
1/2-x,y,z
x,1/2-y,z
1/2-y,1/2-x,1/2+z
y,x,1/2+z
loop_
_atom_site_type_symbol
_atom_site_label
_atom_site_fract_x
_atom_site_fract_y
_atom_site_fract_z
Si Si1 0.363360 0.357637 0.457307
Si Si2 0.636146 0.136146 0.750000
Si Si3 0.356708 0.355767 0.738732
Si Si4 0.141582 0.446251 0.599878
Si Si5 0.046686 0.483345 0.340043
O O1 0.250000 0.346440 0.464208
O O2 0.409085 0.250000 0.446747
O O3 0.401211 0.404101 0.528851
O O4 0.385772 0.429504 0.394989
O O5 0.614416 0.250000 0.748286
O O6 0.587767 0.090313 0.679775
O O7 0.250000 0.367708 0.770992
O O8 0.398177 0.250000 0.759079
O O9 0.351596 0.360861 0.655929
O O10 0.423792 0.441793 0.768020
O O11 0.250000 0.493193 0.591043
O O12 0.062228 0.521541 0.629822
#
# Coordination Sequence:
#
# PCOD8318521 Si02
#       5
#    16   8  16  16  16
#     4  10  21  37  59  87 115 143 186 245 297 337
#     4  11  24  38  54  82 120 155 186 226 284 355
#     4  10  19  33  57  86 113 144 190 246 295 338
#     4  10  21  36  54  81 117 154 190 235 292 341
#     4  12  21  36  58  84 113 152 192 231 283 343
#
# _framework density 19.455107000000002
#
# number of rings (size 3 to 8) (size 9 to 14) (size 15 to 20)
#    0.000    1.444    2.222    4.000    0.000    5.333 
#    0.000    0.000    0.000    2.667    0.000    9.333 
#    0.000    0.000    0.000    0.000    0.000    0.000 
#
# Total GULP energy -892089.115572 kJ/mol
# GULP energy per Si atom -12390.126605 kJ/mol
# Density = 1.941083 g / cm^3
# Si number density = 19.455107 Si / 1000 Ang^3
#
#
#
# Elastic Constant Matrix: (Units=GPa)
#
#
# Indices 1 2 3 4 5 6 
#
# 1 80.3011 20.1790 19.9084 0.0000 0.0000 0.0000
# 2 20.1790 80.3011 19.9084 0.0000 0.0000 0.0000
# 3 19.9084 19.9084 100.5187 0.0000 0.0000 0.0000
# 4 0.0000 0.0000 0.0000 28.6671 0.0000 0.0000
# 5 0.0000 0.0000 0.0000 0.0000 28.6671 0.0000
# 6 0.0000 0.0000 0.0000 0.0000 0.0000 20.6151
#
#
#
# Elastic Compliance Matrix: (Units=1/GPa)
#
#
# Indices 1 2 3 4 5 6 
#
# 1 0.013716 -0.002916 -0.002139 0.000000 0.000000 0.000000
# 2 -0.002916 0.013716 -0.002139 0.000000 0.000000 0.000000
# 3 -0.002139 -0.002139 0.010796 0.000000 0.000000 0.000000
# 4 0.000000 0.000000 0.000000 0.034883 0.000000 0.000000
# 5 0.000000 0.000000 0.000000 0.000000 0.034883 0.000000
# 6 0.000000 0.000000 0.000000 0.000000 0.000000 0.048508
#
#
# Mechanical properties :
#
#
# Convention : Reuss Voigt Hill
#
# Bulk Modulus (GPa) = 41.94737 42.34586 42.14662
# Shear Modulus (GPa) = 27.95822 28.99819 28.47821
#
# Velocity S-wave (km/s) = 3.79497 3.86491 3.83010
# Velocity P-wave (km/s) = 6.38830 6.45987 6.42418
#
# Compressibility (1/GPa) = 0.02383939
#
# Stress axis : x y z
#
# Youngs Moduli (GPa) = 72.90585 72.90585 92.62966
#
# Poissons Ratio (x) = 0.21263 0.19813
# Poissons Ratio (y) = 0.21263 0.19813
# Poissons Ratio (z) = 0.15594 0.15594
#
# Static dielectric constant tensor:
#      x y z
#    x 3.579900 0.000000 0.000000 
#    y 0.000000 3.579900 0.000000 
#    z 0.000000 0.000000 3.733990 
# 
# 
# High freq. dielectric constant tensor:
#      x y z
#    x 1.744930 0.000000 0.000000 
#    y 0.000000 1.744930 0.000000 
#    z 0.000000 0.000000 1.770350 
# 
# From -- ./inp_files/6179.got.cif
#   From: 2010.03.12/outbox.cif.g09.slc.cpg/sg137_4_cif.got.tgz:6179.got - 2010.04.08 09:34:49.
