data_PCOD8318665
_publ_section_title
;
Structure prediction by ZEFSAII (Michael W. Deem and Ramdas Pophale) SiO2 
 PCOD8318665
Probable space group: P 42/N M C
;
_chemical_formula_sum "Si O2"
_cell_formula_units_Z 96
_cell_length_a 22.097124
_cell_length_b 22.097124
_cell_length_c 9.213329
_cell_angle_alpha 90.000000
_cell_angle_beta 90.000000
_cell_angle_gamma 90.000000
_cell_volume 4498.710902
_symmetry_space_group_name_H-M "P 42/N M C"
_symmetry_group_IT_number 137
_space_group.IT_coordinate_system_code '2'
_symmetry_cell_setting 'tetragonal'
loop_
_space_group_symop_operation_xyz
x,y,z
1/2-y,x,1/2+z
1/2-x,1/2-y,z
y,1/2-x,1/2+z
1/2+x,-y,-z
-x,1/2+y,-z
1/2+y,1/2+x,1/2-z
-y,-x,1/2-z
-x,-y,-z
1/2+y,-x,1/2-z
1/2+x,1/2+y,-z
-y,1/2+x,1/2-z
1/2-x,y,z
x,1/2-y,z
1/2-y,1/2-x,1/2+z
y,x,1/2+z
loop_
_atom_site_type_symbol
_atom_site_label
_atom_site_fract_x
_atom_site_fract_y
_atom_site_fract_z
Si Si1 0.179967 0.380672 0.265335
Si Si2 0.011327 0.181124 0.550309
Si Si3 0.680096 0.583421 0.406474
Si Si4 0.815415 0.127908 0.366086
Si Si5 0.480490 0.881219 0.740352
Si Si6 0.879446 0.318209 0.618417
O O1 0.250000 0.362264 0.252800
O O2 0.162936 0.436609 0.161574
O O3 0.162992 0.396017 0.430856
O O4 0.139684 0.325157 0.206025
O O5 0.020114 0.250000 0.491004
O O6 0.009071 0.133339 0.417716
O O7 0.950691 0.177447 0.648200
O O8 0.750000 0.560259 0.400935
O O9 0.630647 0.532551 0.360498
O O10 0.816998 0.183003 0.250000
O O11 0.750000 0.123028 0.440267
O O12 0.830213 0.069181 0.271185
O O13 0.865778 0.136030 0.487926
O O14 0.448690 0.948690 0.750000
O O15 0.839185 0.339185 0.750000
O O16 0.859797 0.250000 0.578094
#
# Coordination Sequence:
#
# PCOD8318665 Si02
#       6
#    16  16  16  16  16  16
#     4  10  24  44  71 104 135 172 217 268 333 407
#     4  10  20  39  61  84 121 167 216 267 325 390
#     4  11  24  44  71 103 137 174 216 268 332 398
#     4  11  21  34  54  80 114 159 217 276 335 394
#     4  11  22  39  62  92 127 171 226 268 324 382
#     4  11  23  36  52  79 116 165 216 275 342 400
#
# _framework density 21.339445999999999
#
# number of rings (size 3 to 8) (size 9 to 14) (size 15 to 20)
#    0.000    1.333    3.333    3.500    2.333    4.333 
#    0.000    5.833    0.000    0.000    0.000    0.000 
#    0.000    0.000    0.000    0.000    0.000    0.000 
#
# Total GULP energy -1189812.736649 kJ/mol
# GULP energy per Si atom -12393.882673 kJ/mol
# Density = 2.129088 g / cm^3
# Si number density = 21.339446 Si / 1000 Ang^3
#
#
#
# Elastic Constant Matrix: (Units=GPa)
#
#
# Indices 1 2 3 4 5 6 
#
# 1 71.3718 25.8590 35.1907 0.0000 0.0000 0.0000
# 2 25.8590 71.3709 35.1907 0.0000 0.0000 0.0000
# 3 35.1907 35.1907 124.2409 0.0000 0.0000 0.0000
# 4 0.0000 0.0000 0.0000 37.5013 0.0000 0.0000
# 5 0.0000 0.0000 0.0000 0.0000 37.5015 0.0000
# 6 0.0000 0.0000 0.0000 0.0000 0.0000 27.3211
#
#
#
# Elastic Compliance Matrix: (Units=1/GPa)
#
#
# Indices 1 2 3 4 5 6 
#
# 1 0.017455 -0.004517 -0.003664 0.000000 0.000000 0.000000
# 2 -0.004517 0.017455 -0.003665 0.000000 0.000000 0.000000
# 3 -0.003664 -0.003665 0.010125 0.000000 0.000000 0.000000
# 4 0.000000 0.000000 0.000000 0.026666 0.000000 0.000000
# 5 0.000000 0.000000 0.000000 0.000000 0.026666 0.000000
# 6 0.000000 0.000000 0.000000 0.000000 0.000000 0.036602
#
#
# Mechanical properties :
#
#
# Convention : Reuss Voigt Hill
#
# Bulk Modulus (GPa) = 46.85655 51.05162 48.95408
# Shear Modulus (GPa) = 30.16158 31.84766 31.00462
#
# Velocity S-wave (km/s) = 3.76363 3.86739 3.81586
# Velocity P-wave (km/s) = 6.39468 6.62705 6.51190
#
# Compressibility (1/GPa) = 0.02134173
#
# Stress axis : x y z
#
# Youngs Moduli (GPa) = 57.29142 57.29057 98.76771
#
# Poissons Ratio (x) = 0.25880 0.36193
# Poissons Ratio (y) = 0.25880 0.36194
# Poissons Ratio (z) = 0.20994 0.20994
#
# Static dielectric constant tensor:
#      x y z
#    x 3.819500 0.000000 0.000000 
#    y 0.000000 3.819500 0.000000 
#    z 0.000000 0.000000 3.560420 
# 
# 
# High freq. dielectric constant tensor:
#      x y z
#    x 1.828380 0.000000 0.000000 
#    y 0.000000 1.828380 0.000000 
#    z 0.000000 0.000000 1.842520 
# 
# From -- ./inp_files/2191.got.cif
#   From: 2010.03.12/outbox.cif.g09.slc.cpg/sg137_2_cif.got.tgz:2191.got - 2010.04.08 09:34:49.
