data_PCOD8318745
_publ_section_title
;
Structure prediction by ZEFSAII (Michael W. Deem and Ramdas Pophale) SiO2 
 PCOD8318745
Probable space group: P 42/N M C
;
_chemical_formula_sum "Si O2"
_cell_formula_units_Z 60
_cell_length_a 14.422539
_cell_length_b 14.422539
_cell_length_c 14.551663
_cell_angle_alpha 90.000000
_cell_angle_beta 90.000000
_cell_angle_gamma 90.000000
_cell_volume 3026.886054
_symmetry_space_group_name_H-M "P 42/N M C"
_symmetry_group_IT_number 137
_space_group.IT_coordinate_system_code '2'
_symmetry_cell_setting 'tetragonal'
loop_
_space_group_symop_operation_xyz
x,y,z
1/2-y,x,1/2+z
1/2-x,1/2-y,z
y,1/2-x,1/2+z
1/2+x,-y,-z
-x,1/2+y,-z
1/2+y,1/2+x,1/2-z
-y,-x,1/2-z
-x,-y,-z
1/2+y,-x,1/2-z
1/2+x,1/2+y,-z
-y,1/2+x,1/2-z
1/2-x,y,z
x,1/2-y,z
1/2-y,1/2-x,1/2+z
y,x,1/2+z
loop_
_atom_site_type_symbol
_atom_site_label
_atom_site_fract_x
_atom_site_fract_y
_atom_site_fract_z
Si Si1 0.615748 0.750000 0.127843
Si Si2 0.750000 0.250000 0.250000
Si Si3 0.250000 0.750000 0.250000
Si Si4 0.383788 0.250000 0.279274
Si Si5 0.090179 0.560735 0.526860
Si Si6 0.084714 0.750000 0.114634
Si Si7 0.750000 0.563947 0.417089
Si Si8 0.750000 0.069642 0.130465
O O1 0.661702 0.841420 0.169334
O O2 0.512742 0.750000 0.166688
O O3 0.617608 0.750000 0.015605
O O4 0.750000 0.166039 0.180776
O O5 0.160476 0.750000 0.190083
O O6 0.364448 0.250000 0.168972
O O7 0.493352 0.250000 0.290135
O O8 0.154672 0.591648 0.442144
O O9 0.156877 0.498751 0.592126
O O10 0.056588 0.656521 0.571751
O O11 0.000000 0.500000 0.500000
#
# Coordination Sequence:
#
# PCOD8318745 Si02
#       8
#     8   2   2   8  16   8   8   8
#     4   9  22  42  59  82 119 157 195 243 299 361
#     4  12  24  34  56  88 120 150 176 240 300 342
#     4  12  24  38  60  88 124 162 208 256 292 366
#     4  11  22  37  63  90 115 154 201 247 299 357
#     4  10  21  39  62  84 117 159 196 244 301 355
#     4  10  22  41  56  84 120 157 200 248 300 356
#     4  10  22  40  57  86 125 152 194 254 292 346
#     4  12  20  35  58  88 114 147 196 238 294 360
#
# _framework density 19.82235
#
# number of rings (size 3 to 8) (size 9 to 14) (size 15 to 20)
#    0.000    1.867    0.000    7.200    0.000    4.267 
#    0.000    8.000    0.000    0.000    0.000    0.000 
#    0.000    0.000    0.000    0.000    0.000    0.000 
#
# Total GULP energy -743502.531213 kJ/mol
# GULP energy per Si atom -12391.708854 kJ/mol
# Density = 1.977723 g / cm^3
# Si number density = 19.822350 Si / 1000 Ang^3
#
#
#
# Elastic Constant Matrix: (Units=GPa)
#
#
# Indices 1 2 3 4 5 6 
#
# 1 140.2138 47.9105 70.6095 0.0000 0.0000 0.0000
# 2 47.9105 140.2138 70.6095 0.0000 0.0000 0.0000
# 3 70.6095 70.6095 139.4441 0.0000 0.0000 0.0000
# 4 0.0000 0.0000 0.0000 21.2340 0.0000 0.0000
# 5 0.0000 0.0000 0.0000 0.0000 21.2340 0.0000
# 6 0.0000 0.0000 0.0000 0.0000 0.0000 33.8607
#
#
#
# Elastic Compliance Matrix: (Units=1/GPa)
#
#
# Indices 1 2 3 4 5 6 
#
# 1 0.009705 -0.001129 -0.004342 0.000000 0.000000 0.000000
# 2 -0.001129 0.009705 -0.004342 0.000000 0.000000 0.000000
# 3 -0.004342 -0.004342 0.011569 0.000000 0.000000 0.000000
# 4 0.000000 0.000000 0.000000 0.047094 0.000000 0.000000
# 5 0.000000 0.000000 0.000000 0.000000 0.047094 0.000000
# 6 0.000000 0.000000 0.000000 0.000000 0.000000 0.029533
#
#
# Mechanical properties :
#
#
# Convention : Reuss Voigt Hill
#
# Bulk Modulus (GPa) = 88.10220 88.68119 88.39170
# Shear Modulus (GPa) = 28.07259 30.64856 29.36058
#
# Velocity S-wave (km/s) = 3.76734 3.93639 3.85279
# Velocity P-wave (km/s) = 7.96656 8.09292 8.02999
#
# Compressibility (1/GPa) = 0.01135045
#
# Stress axis : x y z
#
# Youngs Moduli (GPa) = 103.04495 103.04495 86.43973
#
# Poissons Ratio (x) = 0.11637 0.37533
# Poissons Ratio (y) = 0.11637 0.37533
# Poissons Ratio (z) = 0.44744 0.44744
#
# Static dielectric constant tensor:
#      x y z
#    x 3.738480 0.000000 0.000000 
#    y 0.000000 3.738480 0.000000 
#    z 0.000000 0.000000 3.581210 
# 
# 
# High freq. dielectric constant tensor:
#      x y z
#    x 1.785580 0.000000 0.000000 
#    y 0.000000 1.785580 0.000000 
#    z 0.000000 0.000000 1.764060 
# 
# From -- ./inp_files/4832.got.cif
#   From: 2010.03.12/outbox.cif.g09.slc.cpg/sg137_3_cif.got.tgz:4832.got - 2010.04.08 09:34:49.
