data_PCOD8318955
_publ_section_title
;
Structure prediction by ZEFSAII (Michael W. Deem and Ramdas Pophale) SiO2 
 PCOD8318955
Probable space group: P 42/N C M
;
_chemical_formula_sum "Si O2"
_cell_formula_units_Z 92
_cell_length_a 14.726514
_cell_length_b 14.726514
_cell_length_c 17.699836
_cell_angle_alpha 90.000000
_cell_angle_beta 90.000000
_cell_angle_gamma 90.000000
_cell_volume 3838.567232
_symmetry_space_group_name_H-M "P 42/N C M"
_symmetry_group_IT_number 138
_space_group.IT_coordinate_system_code '2'
_symmetry_cell_setting 'tetragonal'
loop_
_space_group_symop_operation_xyz
x,y,z
1/2-y,x,1/2+z
1/2-x,1/2-y,z
y,1/2-x,1/2+z
1/2+x,-y,1/2-z
-x,1/2+y,1/2-z
1/2+y,1/2+x,-z
-y,-x,-z
-x,-y,-z
1/2+y,-x,1/2-z
1/2+x,1/2+y,-z
-y,1/2+x,1/2-z
1/2-x,y,1/2+z
x,1/2-y,1/2+z
1/2-y,1/2-x,z
y,x,z
loop_
_atom_site_type_symbol
_atom_site_label
_atom_site_fract_x
_atom_site_fract_y
_atom_site_fract_z
Si Si1 0.354746 0.654743 0.087806
Si Si2 0.415692 0.937624 0.273241
Si Si3 0.362978 0.851908 0.911131
Si Si4 0.476250 0.229524 0.747395
Si Si5 0.508896 0.991105 0.088131
Si Si6 0.250000 0.250000 0.996970
Si Si7 0.848748 0.848748 0.634689
Si Si8 0.178264 0.178264 0.143186
O O1 0.425842 0.596414 0.136389
O O2 0.377252 0.759050 0.110725
O O3 0.253020 0.624010 0.112228
O O4 0.367112 0.632889 0.000000
O O5 0.440512 0.840288 0.236358
O O6 0.500235 0.999766 0.253900
O O7 0.327046 0.980087 0.235954
O O8 0.446822 0.914612 0.876491
O O9 0.366457 0.866457 0.000000
O O10 0.401295 0.226489 0.814760
O O11 0.423851 0.202646 0.669795
O O12 0.582497 0.917504 0.101144
O O13 0.500000 0.000000 0.000000
O O14 0.186498 0.186498 0.051394
O O15 0.309631 0.190370 0.941885
O O16 0.250000 0.250000 0.179940
#
# Coordination Sequence:
#
# PCOD8318955 Si02
#       8
#    16  16  16  16   8   4   8   8
#     4   9  19  39  65  96 144 189 233 303 375 450
#     4  12  26  47  72 108 137 202 258 300 383 456
#     4   8  16  34  58  92 140 190 228 291 388 435
#     4  11  26  49  77 104 159 198 251 315 377 464
#     4  10  19  35  58 102 143 174 240 313 365 440
#     4  10  26  46  82 110 138 206 258 300 386 448
#     4  11  24  48  69 113 147 191 254 310 365 460
#     4   9  21  52  75 107 147 197 249 314 371 435
#
# _framework density 23.967275000000001
#
# number of rings (size 3 to 8) (size 9 to 14) (size 15 to 20)
#    0.261    1.739    1.739    2.609    3.652    4.870 
#   15.652    0.000    0.000    0.000    0.000    0.000 
#    0.000    0.000    0.000    0.000    0.000    0.000 
#
# Total GULP energy -1139942.925467 kJ/mol
# GULP energy per Si atom -12390.683972 kJ/mol
# Density = 2.391272 g / cm^3
# Si number density = 23.967275 Si / 1000 Ang^3
#
#
#
# Elastic Constant Matrix: (Units=GPa)
#
#
# Indices 1 2 3 4 5 6 
#
# 1 98.6836 76.6787 37.0981 0.0000 0.0000 0.0000
# 2 76.6787 98.6836 37.0982 0.0000 0.0000 0.0000
# 3 37.0981 37.0982 109.8328 0.0000 0.0000 0.0000
# 4 0.0000 0.0000 0.0000 42.1623 0.0000 0.0000
# 5 0.0000 0.0000 0.0000 0.0000 42.1622 0.0000
# 6 0.0000 0.0000 0.0000 0.0000 0.0000 52.7735
#
#
#
# Elastic Compliance Matrix: (Units=1/GPa)
#
#
# Indices 1 2 3 4 5 6 
#
# 1 0.026049 -0.019396 -0.002247 0.000000 0.000000 0.000000
# 2 -0.019396 0.026049 -0.002247 0.000000 0.000000 0.000000
# 3 -0.002247 -0.002247 0.010623 0.000000 0.000000 0.000000
# 4 0.000000 0.000000 0.000000 0.023718 0.000000 0.000000
# 5 0.000000 0.000000 0.000000 0.000000 0.023718 0.000000
# 6 0.000000 0.000000 0.000000 0.000000 0.000000 0.018949
#
#
# Mechanical properties :
#
#
# Convention : Reuss Voigt Hill
#
# Bulk Modulus (GPa) = 66.93278 67.66111 67.29694
# Shear Modulus (GPa) = 27.49282 37.84128 32.66705
#
# Velocity S-wave (km/s) = 3.39056 3.97781 3.69587
# Velocity P-wave (km/s) = 6.58143 7.02775 6.80825
#
# Compressibility (1/GPa) = 0.01494036
#
# Stress axis : x y z
#
# Youngs Moduli (GPa) = 38.38942 38.38937 94.13652
#
# Poissons Ratio (x) = 0.74458 0.21155
# Poissons Ratio (y) = 0.74458 0.21155
# Poissons Ratio (z) = 0.08627 0.08627
#
# Static dielectric constant tensor:
#      x y z
#    x 4.743400 0.000000 0.000000 
#    y 0.000000 4.743410 0.000000 
#    z 0.000000 0.000000 4.323020 
# 
# 
# High freq. dielectric constant tensor:
#      x y z
#    x 1.946290 0.000000 0.000000 
#    y 0.000000 1.946290 0.000000 
#    z 0.000000 0.000000 1.968720 
# 
# From -- ./inp_files/6333.got.cif
#   From: 2010.03.12/outbox.cif.g09.slc.cpg/sg138_4_cif.got.tgz:6333.got - 2010.04.08 09:41:05.
