data_PCOD8318743
_publ_section_title
;
Structure prediction by ZEFSAII (Michael W. Deem and Ramdas Pophale) SiO2 
 PCOD8318743
Probable space group: P 42/N M C
;
_chemical_formula_sum "Si O2"
_cell_formula_units_Z 88
_cell_length_a 17.097270
_cell_length_b 17.097270
_cell_length_c 15.396183
_cell_angle_alpha 90.000000
_cell_angle_beta 90.000000
_cell_angle_gamma 90.000000
_cell_volume 4500.560506
_symmetry_space_group_name_H-M "P 42/N M C"
_symmetry_group_IT_number 137
_space_group.IT_coordinate_system_code '2'
_symmetry_cell_setting 'tetragonal'
loop_
_space_group_symop_operation_xyz
x,y,z
1/2-y,x,1/2+z
1/2-x,1/2-y,z
y,1/2-x,1/2+z
1/2+x,-y,-z
-x,1/2+y,-z
1/2+y,1/2+x,1/2-z
-y,-x,1/2-z
-x,-y,-z
1/2+y,-x,1/2-z
1/2+x,1/2+y,-z
-y,1/2+x,1/2-z
1/2-x,y,z
x,1/2-y,z
1/2-y,1/2-x,1/2+z
y,x,1/2+z
loop_
_atom_site_type_symbol
_atom_site_label
_atom_site_fract_x
_atom_site_fract_y
_atom_site_fract_z
Si Si1 0.049431 0.841683 0.506705
Si Si2 0.959045 0.446468 0.850682
Si Si3 0.611841 0.880963 0.073896
Si Si4 0.750000 0.954503 0.321694
Si Si5 0.250000 0.334845 0.811697
Si Si6 0.250000 0.157209 0.540294
Si Si7 0.944464 0.399100 0.155326
O O1 0.067975 0.750000 0.493908
O O2 0.062847 0.884447 0.413954
O O3 0.106025 0.878292 0.580580
O O4 0.963066 0.853787 0.543237
O O5 0.933241 0.433241 0.750000
O O6 0.027465 0.386286 0.878953
O O7 0.994646 0.532020 0.863931
O O8 0.670568 0.833210 0.134319
O O9 0.609006 0.826144 0.990235
O O10 0.750000 0.924531 0.223927
O O11 0.750000 0.864893 0.358848
O O12 0.677644 0.005451 0.348662
O O13 0.250000 0.250000 0.760846
O O14 0.250000 0.250000 0.521640
O O15 0.905734 0.405734 0.250000
#
# Coordination Sequence:
#
# PCOD8318743 Si02
#       7
#    16  16  16   8   8   8  16
#     4  11  21  38  64  87 116 159 209 259 312 361
#     4  10  21  39  57  87 121 159 208 259 299 366
#     4  11  20  36  59  81 126 162 192 246 308 363
#     4  12  23  36  61  84 120 161 200 243 302 367
#     4  12  21  36  54  93 129 165 191 238 301 383
#     4  12  21  36  52  89 123 162 193 231 292 379
#     4  10  22  38  61  89 120 156 202 253 311 367
#
# _framework density 19.553118999999999
#
# number of rings (size 3 to 8) (size 9 to 14) (size 15 to 20)
#    0.000    1.091    2.727    7.909    1.273    0.000 
#    1.636    3.182    0.000    0.000    0.000    0.000 
#    0.000    0.000    0.000    0.000    0.000    0.000 
#
# Total GULP energy -1090223.874355 kJ/mol
# GULP energy per Si atom -12388.907663 kJ/mol
# Density = 1.950862 g / cm^3
# Si number density = 19.553119 Si / 1000 Ang^3
#
#
#
# Elastic Constant Matrix: (Units=GPa)
#
#
# Indices 1 2 3 4 5 6 
#
# 1 108.9942 51.2310 48.5181 0.0000 0.0000 0.0000
# 2 51.2310 108.9942 48.5181 0.0000 0.0000 0.0000
# 3 48.5181 48.5181 115.5302 0.0000 0.0000 0.0000
# 4 0.0000 0.0000 0.0000 21.6634 0.0000 0.0000
# 5 0.0000 0.0000 0.0000 0.0000 21.6634 0.0000
# 6 0.0000 0.0000 0.0000 0.0000 0.0000 24.1186
#
#
#
# Elastic Compliance Matrix: (Units=1/GPa)
#
#
# Indices 1 2 3 4 5 6 
#
# 1 0.012841 -0.004471 -0.003515 0.000000 0.000000 0.000000
# 2 -0.004471 0.012841 -0.003515 0.000000 0.000000 0.000000
# 3 -0.003515 -0.003515 0.011608 0.000000 0.000000 0.000000
# 4 0.000000 0.000000 0.000000 0.046161 0.000000 0.000000
# 5 0.000000 0.000000 0.000000 0.000000 0.046161 0.000000
# 6 0.000000 0.000000 0.000000 0.000000 0.000000 0.041462
#
#
# Mechanical properties :
#
#
# Convention : Reuss Voigt Hill
#
# Bulk Modulus (GPa) = 69.98944 70.00591 69.99767
# Shear Modulus (GPa) = 25.14602 25.83917 25.49260
#
# Velocity S-wave (km/s) = 3.59003 3.63917 3.61468
# Velocity P-wave (km/s) = 7.28400 7.31702 7.30052
#
# Compressibility (1/GPa) = 0.01428787
#
# Stress axis : x y z
#
# Youngs Moduli (GPa) = 77.87531 77.87531 86.14650
#
# Poissons Ratio (x) = 0.34818 0.30281
# Poissons Ratio (y) = 0.34818 0.30281
# Poissons Ratio (z) = 0.27374 0.27374
#
# Static dielectric constant tensor:
#      x y z
#    x 2.837810 0.000000 0.000000 
#    y 0.000000 2.837810 0.000000 
#    z 0.000000 0.000000 3.849930 
# 
# 
# High freq. dielectric constant tensor:
#      x y z
#    x 1.751570 0.000000 0.000000 
#    y 0.000000 1.751570 0.000000 
#    z 0.000000 0.000000 1.774050 
# 
# From -- ./inp_files/5147.got.cif
#   From: 2010.03.12/outbox.cif.g09.slc.cpg/sg137_3_cif.got.tgz:5147.got - 2010.04.08 09:34:49.
