data_PCOD8318404
_publ_section_title
;
Structure prediction by ZEFSAII (Michael W. Deem and Ramdas Pophale) SiO2 
 PCOD8318404
Probable space group: P 42/N M C
;
_chemical_formula_sum "Si O2"
_cell_formula_units_Z 80
_cell_length_a 14.270772
_cell_length_b 14.270772
_cell_length_c 24.969906
_cell_angle_alpha 90.000000
_cell_angle_beta 90.000000
_cell_angle_gamma 90.000000
_cell_volume 5085.244545
_symmetry_space_group_name_H-M "P 42/N M C"
_symmetry_group_IT_number 137
_space_group.IT_coordinate_system_code '2'
_symmetry_cell_setting 'tetragonal'
loop_
_space_group_symop_operation_xyz
x,y,z
1/2-y,x,1/2+z
1/2-x,1/2-y,z
y,1/2-x,1/2+z
1/2+x,-y,-z
-x,1/2+y,-z
1/2+y,1/2+x,1/2-z
-y,-x,1/2-z
-x,-y,-z
1/2+y,-x,1/2-z
1/2+x,1/2+y,-z
-y,1/2+x,1/2-z
1/2-x,y,z
x,1/2-y,z
1/2-y,1/2-x,1/2+z
y,x,1/2+z
loop_
_atom_site_type_symbol
_atom_site_label
_atom_site_fract_x
_atom_site_fract_y
_atom_site_fract_z
Si Si1 0.857153 0.857242 0.482075
Si Si2 0.358521 0.497975 0.228286
Si Si3 0.857646 0.491457 0.894563
Si Si4 0.360614 0.024686 0.415322
Si Si5 0.639091 0.645764 0.684262
O O1 0.750000 0.877415 0.466417
O O2 0.870097 0.750000 0.501039
O O3 0.890175 0.923484 0.530283
O O4 0.917596 0.880048 0.429853
O O5 0.411391 0.588610 0.250000
O O6 0.250000 0.519019 0.238979
O O7 0.379885 0.479556 0.166249
O O8 0.390894 0.405875 0.260921
O O9 0.750000 0.458832 0.901146
O O10 0.922165 0.406136 0.913696
O O11 0.250000 0.010552 0.411244
O O12 0.399330 0.087045 0.366211
O O13 0.750000 0.653871 0.679606
O O14 0.594619 0.750000 0.684187
#
# Coordination Sequence:
#
# PCOD8318404 Si02
#       5
#    16  16  16  16  16
#     4   9  18  32  49  69  92 121 156 194 238 277
#     4  10  19  31  45  65  95 127 154 184 222 271
#     4  10  20  31  46  68  96 127 156 188 229 278
#     4  10  18  30  48  68  94 124 154 191 230 275
#     4   9  17  29  46  67  89 117 154 193 230 266
#
# _framework density 15.731788999999999
#
# number of rings (size 3 to 8) (size 9 to 14) (size 15 to 20)
#    0.000    2.400    2.000    1.200    0.000    3.800 
#    0.000    6.000    0.000    0.000    0.000    0.000 
#    0.000    2.000    0.000    0.000    0.000    0.000 
#
# Total GULP energy -992017.191885 kJ/mol
# GULP energy per Si atom -12400.214899 kJ/mol
# Density = 1.569598 g / cm^3
# Si number density = 15.731789 Si / 1000 Ang^3
#
#
#
# Elastic Constant Matrix: (Units=GPa)
#
#
# Indices 1 2 3 4 5 6 
#
# 1 76.8927 48.8085 58.7191 0.0000 0.0000 0.0000
# 2 48.8085 76.8899 58.7194 0.0000 0.0000 0.0000
# 3 58.7191 58.7194 139.8961 0.0000 0.0000 0.0000
# 4 0.0000 0.0000 0.0000 24.8073 0.0000 0.0000
# 5 0.0000 0.0000 0.0000 0.0000 24.8080 0.0000
# 6 0.0000 0.0000 0.0000 0.0000 0.0000 20.5483
#
#
#
# Elastic Compliance Matrix: (Units=1/GPa)
#
#
# Indices 1 2 3 4 5 6 
#
# 1 0.024348 -0.011261 -0.005493 0.000000 0.000000 0.000000
# 2 -0.011261 0.024349 -0.005494 0.000000 0.000000 0.000000
# 3 -0.005493 -0.005494 0.011760 0.000000 0.000000 0.000000
# 4 0.000000 0.000000 0.000000 0.040311 0.000000 0.000000
# 5 0.000000 0.000000 0.000000 0.000000 0.040310 0.000000
# 6 0.000000 0.000000 0.000000 0.000000 0.000000 0.048666
#
#
# Mechanical properties :
#
#
# Convention : Reuss Voigt Hill
#
# Bulk Modulus (GPa) = 62.64992 69.57477 66.11234
# Shear Modulus (GPa) = 20.87177 22.52817 21.69997
#
# Velocity S-wave (km/s) = 3.64638 3.78830 3.71802
# Velocity P-wave (km/s) = 7.59199 7.96596 7.78122
#
# Compressibility (1/GPa) = 0.01596171
#
# Stress axis : x y z
#
# Youngs Moduli (GPa) = 41.07157 41.06922 85.03594
#
# Poissons Ratio (x) = 0.46246 0.46711
# Poissons Ratio (y) = 0.46249 0.46717
# Poissons Ratio (z) = 0.22561 0.22562
#
# Static dielectric constant tensor:
#      x y z
#    x 2.927740 0.000000 0.000000 
#    y 0.000000 2.927740 0.000000 
#    z 0.000000 0.000000 3.170490 
# 
# 
# High freq. dielectric constant tensor:
#      x y z
#    x 1.588300 0.000000 0.000000 
#    y 0.000000 1.588300 0.000000 
#    z 0.000000 0.000000 1.617910 
# 
# From -- ./inp_files/7546.got.cif
#   From: 2010.03.12/outbox.cif.g09.slc.cpg/sg137_4_cif.got.tgz:7546.got - 2010.04.08 09:34:49.
