data_PCOD8318687
_publ_section_title
;
Structure prediction by ZEFSAII (Michael W. Deem and Ramdas Pophale) SiO2 
 PCOD8318687
Probable space group: P 42/N M C
;
_chemical_formula_sum "Si O2"
_cell_formula_units_Z 80
_cell_length_a 14.380102
_cell_length_b 14.380102
_cell_length_c 20.172733
_cell_angle_alpha 90.000000
_cell_angle_beta 90.000000
_cell_angle_gamma 90.000000
_cell_volume 4171.465667
_symmetry_space_group_name_H-M "P 42/N M C"
_symmetry_group_IT_number 137
_space_group.IT_coordinate_system_code '2'
_symmetry_cell_setting 'tetragonal'
loop_
_space_group_symop_operation_xyz
x,y,z
1/2-y,x,1/2+z
1/2-x,1/2-y,z
y,1/2-x,1/2+z
1/2+x,-y,-z
-x,1/2+y,-z
1/2+y,1/2+x,1/2-z
-y,-x,1/2-z
-x,-y,-z
1/2+y,-x,1/2-z
1/2+x,1/2+y,-z
-y,1/2+x,1/2-z
1/2-x,y,z
x,1/2-y,z
1/2-y,1/2-x,1/2+z
y,x,1/2+z
loop_
_atom_site_type_symbol
_atom_site_label
_atom_site_fract_x
_atom_site_fract_y
_atom_site_fract_z
Si Si1 0.531443 0.954655 0.615277
Si Si2 0.142076 0.856556 0.827074
Si Si3 0.038861 0.147585 0.618416
Si Si4 0.856021 0.852011 0.007906
Si Si5 0.355914 0.006573 0.263057
O O1 0.426491 0.919593 0.628902
O O2 0.569971 0.908790 0.549212
O O3 0.533682 0.065557 0.602006
O O4 0.596890 0.932838 0.678583
O O5 0.122937 0.877064 0.750000
O O6 0.250000 0.873689 0.843611
O O7 0.114873 0.750000 0.844364
O O8 0.992447 0.250000 0.606722
O O9 0.127487 0.136438 0.570576
O O10 0.068788 0.139117 0.695846
O O11 0.750000 0.853667 0.031665
O O12 0.899317 0.750000 0.020413
O O13 0.409817 0.909817 0.250000
O O14 0.250000 0.983117 0.282633
#
# Coordination Sequence:
#
# PCOD8318687 Si02
#       5
#    16  16  16  16  16
#     4  11  19  33  56  81 105 135 176 226 269 307
#     4   9  18  32  50  75 106 137 171 214 269 330
#     4   9  19  35  52  72 102 139 174 209 255 313
#     4  10  21  36  53  75 105 140 176 216 266 319
#     4   9  18  32  52  78 106 137 175 217 259 310
#
# _framework density 19.177910000000001
#
# number of rings (size 3 to 8) (size 9 to 14) (size 15 to 20)
#    0.000    2.400    0.000    4.200    0.000    1.000 
#    0.000    2.000    0.000    7.800    0.000   11.200 
#    0.000    0.000    0.000    0.000    0.000    0.000 
#
# Total GULP energy -991506.179885 kJ/mol
# GULP energy per Si atom -12393.827249 kJ/mol
# Density = 1.913426 g / cm^3
# Si number density = 19.177910 Si / 1000 Ang^3
#
#
#
# Elastic Constant Matrix: (Units=GPa)
#
#
# Indices 1 2 3 4 5 6 
#
# 1 97.9627 46.0874 50.4421 0.0000 0.0000 0.0000
# 2 46.0874 97.9628 50.4422 0.0000 0.0000 0.0000
# 3 50.4421 50.4422 92.9333 0.0000 0.0000 0.0000
# 4 0.0000 0.0000 0.0000 25.3286 0.0000 0.0000
# 5 0.0000 0.0000 0.0000 0.0000 25.3286 0.0000
# 6 0.0000 0.0000 0.0000 0.0000 0.0000 18.9388
#
#
#
# Elastic Compliance Matrix: (Units=1/GPa)
#
#
# Indices 1 2 3 4 5 6 
#
# 1 0.015238 -0.004039 -0.006079 0.000000 0.000000 0.000000
# 2 -0.004039 0.015238 -0.006079 0.000000 0.000000 0.000000
# 3 -0.006079 -0.006079 0.017359 0.000000 0.000000 0.000000
# 4 0.000000 0.000000 0.000000 0.039481 0.000000 0.000000
# 5 0.000000 0.000000 0.000000 0.000000 0.039481 0.000000
# 6 0.000000 0.000000 0.000000 0.000000 0.000000 0.052802
#
#
# Mechanical properties :
#
#
# Convention : Reuss Voigt Hill
#
# Bulk Modulus (GPa) = 64.75499 64.75578 64.75539
# Shear Modulus (GPa) = 23.02670 23.37833 23.20252
#
# Velocity S-wave (km/s) = 3.46885 3.49524 3.48207
# Velocity P-wave (km/s) = 7.06276 7.08012 7.07145
#
# Compressibility (1/GPa) = 0.01544282
#
# Stress axis : x y z
#
# Youngs Moduli (GPa) = 65.62507 65.62511 57.60657
#
# Poissons Ratio (x) = 0.26505 0.35017
# Poissons Ratio (y) = 0.26505 0.35017
# Poissons Ratio (z) = 0.39891 0.39891
#
# Static dielectric constant tensor:
#      x y z
#    x 3.464470 0.000000 0.000000 
#    y 0.000000 3.464470 0.000000 
#    z 0.000000 0.000000 3.554210 
# 
# 
# High freq. dielectric constant tensor:
#      x y z
#    x 1.733990 0.000000 0.000000 
#    y 0.000000 1.733990 0.000000 
#    z 0.000000 0.000000 1.747540 
# 
# From -- ./inp_files/7611.got.cif
#   From: 2010.03.12/outbox.cif.g09.slc.cpg/sg137_4_cif.got.tgz:7611.got - 2010.04.08 09:34:49.
