data_PCOD8318997
_publ_section_title
;
Structure prediction by ZEFSAII (Michael W. Deem and Ramdas Pophale) SiO2 
 PCOD8318997
Probable space group: P 42/N C M
;
_chemical_formula_sum "Si O2"
_cell_formula_units_Z 80
_cell_length_a 12.205169
_cell_length_b 12.205169
_cell_length_c 27.241474
_cell_angle_alpha 90.000000
_cell_angle_beta 90.000000
_cell_angle_gamma 90.000000
_cell_volume 4058.057511
_symmetry_space_group_name_H-M "P 42/N C M"
_symmetry_group_IT_number 138
_space_group.IT_coordinate_system_code '2'
_symmetry_cell_setting 'tetragonal'
loop_
_space_group_symop_operation_xyz
x,y,z
1/2-y,x,1/2+z
1/2-x,1/2-y,z
y,1/2-x,1/2+z
1/2+x,-y,1/2-z
-x,1/2+y,1/2-z
1/2+y,1/2+x,-z
-y,-x,-z
-x,-y,-z
1/2+y,-x,1/2-z
1/2+x,1/2+y,-z
-y,1/2+x,1/2-z
1/2-x,y,1/2+z
x,1/2-y,1/2+z
1/2-y,1/2-x,z
y,x,z
loop_
_atom_site_type_symbol
_atom_site_label
_atom_site_fract_x
_atom_site_fract_y
_atom_site_fract_z
Si Si1 0.423041 0.255800 0.100226
Si Si2 0.402470 0.585708 0.555992
Si Si3 0.913247 0.220630 0.350933
Si Si4 0.266833 0.924548 0.683176
Si Si5 0.927074 0.751164 0.227851
O O1 0.340991 0.159009 0.113022
O O2 0.357236 0.357236 0.074744
O O3 0.521574 0.210463 0.067289
O O4 0.469013 0.298475 0.151915
O O5 0.381895 0.618106 0.500000
O O6 0.509713 0.509713 0.562766
O O7 0.416576 0.695088 0.590153
O O8 0.857074 0.112810 0.327990
O O9 0.847978 0.328347 0.333725
O O10 0.035022 0.234456 0.328766
O O11 0.267085 0.962379 0.739877
O O12 0.839327 0.660674 0.242249
O O13 0.871544 0.871544 0.234281
#
# Coordination Sequence:
#
# PCOD8318997 Si02
#       5
#    16  16  16  16  16
#     4   9  17  31  53  80 105 131 175 232 279 327
#     4   9  18  35  59  82 107 144 185 226 282 346
#     4  10  21  36  53  78 109 141 181 227 273 329
#     4  10  20  34  53  78 106 140 178 219 275 336
#     4  11  23  36  52  77 109 147 189 231 277 332
#
# _framework density 19.713864000000001
#
# number of rings (size 3 to 8) (size 9 to 14) (size 15 to 20)
#    0.000    2.200    0.000    3.000    0.000    8.800 
#    0.000    9.000    0.000    4.800    0.000    0.000 
#    0.000    0.000    0.000    0.000    0.000    0.000 
#
# Total GULP energy -991131.515982 kJ/mol
# GULP energy per Si atom -12389.143950 kJ/mol
# Density = 1.966899 g / cm^3
# Si number density = 19.713864 Si / 1000 Ang^3
#
#
#
# Elastic Constant Matrix: (Units=GPa)
#
#
# Indices 1 2 3 4 5 6 
#
# 1 83.5786 33.8188 49.3888 0.0000 0.0000 0.0000
# 2 33.8188 83.5787 49.3888 0.0000 0.0000 0.0000
# 3 49.3888 49.3888 143.3094 0.0000 0.0000 0.0000
# 4 0.0000 0.0000 0.0000 27.0039 0.0000 0.0000
# 5 0.0000 0.0000 0.0000 0.0000 27.0038 0.0000
# 6 0.0000 0.0000 0.0000 0.0000 0.0000 24.3371
#
#
#
# Elastic Compliance Matrix: (Units=1/GPa)
#
#
# Indices 1 2 3 4 5 6 
#
# 1 0.016047 -0.004050 -0.004134 0.000000 0.000000 0.000000
# 2 -0.004050 0.016047 -0.004134 0.000000 0.000000 0.000000
# 3 -0.004134 -0.004134 0.009828 0.000000 0.000000 0.000000
# 4 0.000000 0.000000 0.000000 0.037032 0.000000 0.000000
# 5 0.000000 0.000000 0.000000 0.000000 0.037032 0.000000
# 6 0.000000 0.000000 0.000000 0.000000 0.000000 0.041090
#
#
# Mechanical properties :
#
#
# Convention : Reuss Voigt Hill
#
# Bulk Modulus (GPa) = 57.85910 63.96216 60.91063
# Shear Modulus (GPa) = 26.67056 27.52698 27.09877
#
# Velocity S-wave (km/s) = 3.68215 3.74080 3.71159
# Velocity P-wave (km/s) = 6.89135 7.15359 7.02369
#
# Compressibility (1/GPa) = 0.01728337
#
# Stress axis : x y z
#
# Youngs Moduli (GPa) = 62.31833 62.31837 101.75395
#
# Poissons Ratio (x) = 0.25238 0.42070
# Poissons Ratio (y) = 0.25238 0.42070
# Poissons Ratio (z) = 0.25765 0.25765
#
# Static dielectric constant tensor:
#      x y z
#    x 3.657480 0.000000 0.000000 
#    y 0.000000 3.657480 0.000000 
#    z 0.000000 0.000000 3.580320 
# 
# 
# High freq. dielectric constant tensor:
#      x y z
#    x 1.764200 0.000000 0.000000 
#    y 0.000000 1.764200 0.000000 
#    z 0.000000 0.000000 1.750860 
# 
# From -- ./inp_files/7891.got.cif
#   From: 2010.03.12/outbox.cif.g09.slc.cpg/sg138_4_cif.got.tgz:7891.got - 2010.04.08 09:41:05.
