data_PCOD8318433
_publ_section_title
;
Structure prediction by ZEFSAII (Michael W. Deem and Ramdas Pophale) SiO2 
 PCOD8318433
Probable space group: P 42/N M C
;
_chemical_formula_sum "Si O2"
_cell_formula_units_Z 56
_cell_length_a 10.004006
_cell_length_b 10.004006
_cell_length_c 32.972856
_cell_angle_alpha 90.000000
_cell_angle_beta 90.000000
_cell_angle_gamma 90.000000
_cell_volume 3299.927914
_symmetry_space_group_name_H-M "P 42/N M C"
_symmetry_group_IT_number 137
_space_group.IT_coordinate_system_code '2'
_symmetry_cell_setting 'tetragonal'
loop_
_space_group_symop_operation_xyz
x,y,z
1/2-y,x,1/2+z
1/2-x,1/2-y,z
y,1/2-x,1/2+z
1/2+x,-y,-z
-x,1/2+y,-z
1/2+y,1/2+x,1/2-z
-y,-x,1/2-z
-x,-y,-z
1/2+y,-x,1/2-z
1/2+x,1/2+y,-z
-y,1/2+x,1/2-z
1/2-x,y,z
x,1/2-y,z
1/2-y,1/2-x,1/2+z
y,x,1/2+z
loop_
_atom_site_type_symbol
_atom_site_label
_atom_site_fract_x
_atom_site_fract_y
_atom_site_fract_z
Si Si1 0.589948 0.750000 0.033077
Si Si2 0.517255 0.905058 0.590576
Si Si3 0.905243 0.405243 0.750000
Si Si4 0.098275 0.092468 0.822607
Si Si5 0.250000 0.594998 0.544754
O O1 0.750000 0.750000 0.024128
O O2 0.538285 0.622890 0.058351
O O3 0.508469 0.750000 0.991660
O O4 0.549484 0.750000 0.595158
O O5 0.530726 0.963639 0.635944
O O6 0.372974 0.937100 0.573587
O O7 0.929634 0.250000 0.738666
O O8 0.951290 0.498079 0.712868
O O9 0.250000 0.041411 0.813362
O O10 0.099429 0.250000 0.828157
O O11 0.250000 0.750000 0.529606
#
# Coordination Sequence:
#
# PCOD8318433 Si02
#       5
#     8  16   8  16   8
#     4  10  18  32  52  70  92 128 172 196 224 284
#     4   9  17  31  51  70  92 129 164 194 232 286
#     4   9  18  32  50  73  98 120 148 199 246 280
#     4   9  16  31  53  71  90 125 166 189 225 290
#     4  10  20  32  46  72 102 126 152 204 252 270
#
# _framework density 16.970067
#
# number of rings (size 3 to 8) (size 9 to 14) (size 15 to 20)
#    0.000    2.714    1.429    0.857    0.000    0.000 
#    2.571    2.857    0.000    0.000    0.000    0.000 
#    0.000    0.000    0.000    0.000    0.000    0.000 
#
# Total GULP energy -694151.358624 kJ/mol
# GULP energy per Si atom -12395.559975 kJ/mol
# Density = 1.693144 g / cm^3
# Si number density = 16.970067 Si / 1000 Ang^3
#
#
#
# Elastic Constant Matrix: (Units=GPa)
#
#
# Indices 1 2 3 4 5 6 
#
# 1 77.6350 30.7611 63.9406 0.0000 0.0000 0.0000
# 2 30.7611 77.6350 63.9406 0.0000 0.0000 0.0000
# 3 63.9406 63.9406 168.9789 0.0000 0.0000 0.0000
# 4 0.0000 0.0000 0.0000 28.6371 0.0000 0.0000
# 5 0.0000 0.0000 0.0000 0.0000 28.6371 0.0000
# 6 0.0000 0.0000 0.0000 0.0000 0.0000 -27.1944
#
#
#
# Elastic Compliance Matrix: (Units=1/GPa)
#
#
# Indices 1 2 3 4 5 6 
#
# 1 0.018999 -0.002334 -0.006306 0.000000 0.000000 0.000000
# 2 -0.002334 0.018999 -0.006306 0.000000 0.000000 0.000000
# 3 -0.006306 -0.006306 0.010690 0.000000 0.000000 0.000000
# 4 0.000000 0.000000 0.000000 0.034920 0.000000 0.000000
# 5 0.000000 0.000000 0.000000 0.000000 0.034920 0.000000
# 6 0.000000 0.000000 0.000000 0.000000 0.000000 -0.036772
#
#
# Mechanical properties :
#
#
# Convention : Reuss Voigt Hill
#
# Bulk Modulus (GPa) = 53.20203 71.28152 62.24178
# Shear Modulus (GPa) = 42.40383 17.05640 29.73012
#
# Velocity S-wave (km/s) = 5.00417 3.17375 4.19013
# Velocity P-wave (km/s) = 8.05031 7.45156 7.75671
#
# Compressibility (1/GPa) = 0.01879628
#
# Stress axis : x y z
#
# Youngs Moduli (GPa) = 52.63344 52.63344 93.54435
#
# Poissons Ratio (x) = 0.12287 0.58988
# Poissons Ratio (y) = 0.12287 0.58988
# Poissons Ratio (z) = 0.33190 0.33190
#
# Static dielectric constant tensor:
#      x y z
#    x 3.063820 0.000000 0.000000 
#    y 0.000000 3.063820 0.000000 
#    z 0.000000 0.000000 3.311600 
# 
# 
# High freq. dielectric constant tensor:
#      x y z
#    x 1.638230 0.000000 0.000000 
#    y 0.000000 1.638230 0.000000 
#    z 0.000000 0.000000 1.664420 
# 
# From -- ./inp_files/8470.got.cif
#   From: 2010.03.12/outbox.cif.g09.slc.cpg/sg137_5_cif.got.tgz:8470.got - 2010.04.08 09:34:49.
