data_PCOD8318892
_publ_section_title
;
Structure prediction by ZEFSAII (Michael W. Deem and Ramdas Pophale) SiO2 
 PCOD8318892
Probable space group: P 42/N C M
;
_chemical_formula_sum "Si O2"
_cell_formula_units_Z 68
_cell_length_a 16.172541
_cell_length_b 16.172541
_cell_length_c 9.204919
_cell_angle_alpha 90.000000
_cell_angle_beta 90.000000
_cell_angle_gamma 90.000000
_cell_volume 2407.556528
_symmetry_space_group_name_H-M "P 42/N C M"
_symmetry_group_IT_number 138
_space_group.IT_coordinate_system_code '2'
_symmetry_cell_setting 'tetragonal'
loop_
_space_group_symop_operation_xyz
x,y,z
1/2-y,x,1/2+z
1/2-x,1/2-y,z
y,1/2-x,1/2+z
1/2+x,-y,1/2-z
-x,1/2+y,1/2-z
1/2+y,1/2+x,-z
-y,-x,-z
-x,-y,-z
1/2+y,-x,1/2-z
1/2+x,1/2+y,-z
-y,1/2+x,1/2-z
1/2-x,y,1/2+z
x,1/2-y,1/2+z
1/2-y,1/2-x,z
y,x,z
loop_
_atom_site_type_symbol
_atom_site_label
_atom_site_fract_x
_atom_site_fract_y
_atom_site_fract_z
Si Si1 0.118629 0.381372 0.289809
Si Si2 0.346563 0.934525 0.286218
Si Si3 0.879050 0.011165 0.608381
Si Si4 0.750000 0.750000 0.803299
Si Si5 0.125521 0.125521 0.112183
Si Si6 0.029314 0.778004 0.924193
O O1 0.143981 0.470285 0.223963
O O2 0.189097 0.310904 0.286301
O O3 0.096829 0.403172 0.454711
O O4 0.426756 0.877599 0.251416
O O5 0.335938 0.924036 0.459167
O O6 0.266758 0.907518 0.188701
O O7 0.937366 0.062635 0.500000
O O8 0.790513 0.990298 0.538067
O O9 0.923357 0.923357 0.651644
O O10 0.694674 0.694674 0.906484
O O11 0.172342 0.042357 0.173300
#
# Coordination Sequence:
#
# PCOD8318892 Si02
#       6
#     8  16  16   4   8  16
#     4  10  19  31  45  71 109 155 185 220 279 336
#     4  10  19  37  55  78 111 148 194 241 279 340
#     4   9  18  33  58  80 107 154 209 240 271 341
#     4  12  18  28  42  68 112 150 190 214 288 336
#     4  10  21  29  45  71 114 147 179 226 278 344
#     4  10  21  35  54  82 111 150 188 237 290 336
#
# _framework density 28.244402999999998
#
# number of rings (size 3 to 8) (size 9 to 14) (size 15 to 20)
#    0.000    2.118    3.529    0.353    3.294    0.000 
#    4.235    1.176    0.000    2.118    0.000    4.941 
#    0.000    0.000    0.000    0.000    0.000    0.000 
#
# Total GULP energy -842415.978587 kJ/mol
# GULP energy per Si atom -12388.470273 kJ/mol
# Density = 2.818012 g / cm^3
# Si number density = 28.244403 Si / 1000 Ang^3
#
#
#
# Elastic Constant Matrix: (Units=GPa)
#
#
# Indices 1 2 3 4 5 6 
#
# 1 152.3972 81.2551 34.2084 0.0000 0.0000 0.0000
# 2 81.2551 152.3969 34.2079 0.0000 0.0000 0.0000
# 3 34.2084 34.2079 37.2670 0.0000 0.0000 0.0000
# 4 0.0000 0.0000 0.0000 45.3653 0.0000 0.0000
# 5 0.0000 0.0000 0.0000 0.0000 45.3653 0.0000
# 6 0.0000 0.0000 0.0000 0.0000 0.0000 51.7474
#
#
#
# Elastic Compliance Matrix: (Units=1/GPa)
#
#
# Indices 1 2 3 4 5 6 
#
# 1 0.009955 -0.004102 -0.005373 0.000000 0.000000 0.000000
# 2 -0.004102 0.009955 -0.005373 0.000000 0.000000 0.000000
# 3 -0.005373 -0.005373 0.036697 0.000000 0.000000 0.000000
# 4 0.000000 0.000000 0.000000 0.022043 0.000000 0.000000
# 5 0.000000 0.000000 0.000000 0.000000 0.022043 0.000000
# 6 0.000000 0.000000 0.000000 0.000000 0.000000 0.019325
#
#
# Mechanical properties :
#
#
# Convention : Reuss Voigt Hill
#
# Bulk Modulus (GPa) = 37.15778 71.26710 54.21244
# Shear Modulus (GPa) = 31.50957 41.32159 36.41558
#
# Velocity S-wave (km/s) = 3.34369 3.82907 3.59458
# Velocity P-wave (km/s) = 5.30013 6.69598 6.03852
#
# Compressibility (1/GPa) = 0.02691227
#
# Stress axis : x y z
#
# Youngs Moduli (GPa) = 100.45461 100.45515 27.25041
#
# Poissons Ratio (x) = 0.41203 0.14641
# Poissons Ratio (y) = 0.41203 0.14640
# Poissons Ratio (z) = 0.53972 0.53970
#
# Static dielectric constant tensor:
#      x y z
#    x 5.365850 0.000000 0.000000 
#    y 0.000000 5.365860 0.000000 
#    z 0.000000 0.000000 5.476480 
# 
# 
# High freq. dielectric constant tensor:
#      x y z
#    x 2.144040 0.000000 0.000000 
#    y 0.000000 2.144040 0.000000 
#    z 0.000000 0.000000 2.187070 
# 
# From -- ./inp_files/2865.got.cif
#   From: 2010.03.12/outbox.cif.g09.slc.cpg/sg138_2_cif.got.tgz:2865.got - 2010.04.08 09:41:05.
