data_PCOD8318888
_publ_section_title
;
Structure prediction by ZEFSAII (Michael W. Deem and Ramdas Pophale) SiO2 
 PCOD8318888
Probable space group: P 42/N C M
;
_chemical_formula_sum "Si O2"
_cell_formula_units_Z 112
_cell_length_a 24.203565
_cell_length_b 24.203565
_cell_length_c 12.842646
_cell_angle_alpha 90.000000
_cell_angle_beta 90.000000
_cell_angle_gamma 90.000000
_cell_volume 7523.383314
_symmetry_space_group_name_H-M "P 42/N C M"
_symmetry_group_IT_number 138
_space_group.IT_coordinate_system_code '2'
_symmetry_cell_setting 'tetragonal'
loop_
_space_group_symop_operation_xyz
x,y,z
1/2-y,x,1/2+z
1/2-x,1/2-y,z
y,1/2-x,1/2+z
1/2+x,-y,1/2-z
-x,1/2+y,1/2-z
1/2+y,1/2+x,-z
-y,-x,-z
-x,-y,-z
1/2+y,-x,1/2-z
1/2+x,1/2+y,-z
-y,1/2+x,1/2-z
1/2-x,y,1/2+z
x,1/2-y,1/2+z
1/2-y,1/2-x,z
y,x,z
loop_
_atom_site_type_symbol
_atom_site_label
_atom_site_fract_x
_atom_site_fract_y
_atom_site_fract_z
Si Si1 0.006640 0.914189 0.049962
Si Si2 0.795161 0.795161 0.287977
Si Si3 0.356672 0.448973 0.130107
Si Si4 0.546691 0.639684 0.466546
Si Si5 0.392634 0.247984 0.082121
Si Si6 0.002169 0.405106 0.829129
Si Si7 0.704950 0.795051 0.544508
Si Si8 0.509019 0.416046 0.716696
O O1 0.016395 0.891098 0.166910
O O2 0.063899 0.936102 0.000000
O O3 0.965129 0.965129 0.055783
O O4 0.981940 0.866278 0.977395
O O5 0.750000 0.750000 0.323359
O O6 0.855179 0.778980 0.328885
O O7 0.799498 0.799498 0.166258
O O8 0.395049 0.395049 0.136544
O O9 0.293126 0.431445 0.135893
O O10 0.367438 0.489051 0.227519
O O11 0.597664 0.597664 0.469498
O O12 0.569941 0.701555 0.471733
O O13 0.507193 0.631118 0.566336
O O14 0.510200 0.631865 0.362214
O O15 0.354977 0.277412 0.995624
O O16 0.047455 0.452546 0.831034
O O17 0.941707 0.432950 0.822830
O O18 0.750000 0.750000 0.508964
O O19 0.463779 0.463779 0.717554
#
# Coordination Sequence:
#
# PCOD8318888 Si02
#       8
#    16   8  16  16  16  16   8  16
#     4   9  15  27  46  66  86 106 136 182 232 278
#     4  11  22  36  52  58  80 124 172 214 248 268
#     4  10  19  30  47  66  85 117 152 193 236 280
#     4  10  20  31  45  65  88 117 150 195 236 279
#     4  12  21  37  45  66  91 117 168 203 239 277
#     4   9  17  30  48  66  85 108 144 188 240 286
#     4  11  22  36  50  58  78 123 164 218 251 270
#     4   9  16  29  48  67  87 108 139 186 237 287
#
# _framework density 14.886919000000001
#
# number of rings (size 3 to 8) (size 9 to 14) (size 15 to 20)
#    0.000    2.000    4.286    0.429    2.000    2.857 
#    0.000    0.000    0.000    0.000    0.000    0.000 
#    0.000    0.000    0.000    0.000    0.000    9.286 
#
# Total GULP energy -1388738.234297 kJ/mol
# GULP energy per Si atom -12399.448521 kJ/mol
# Density = 1.485304 g / cm^3
# Si number density = 14.886919 Si / 1000 Ang^3
#
#
#
# Elastic Constant Matrix: (Units=GPa)
#
#
# Indices 1 2 3 4 5 6 
#
# 1 49.3015 39.8915 33.2325 0.0000 0.0000 0.0000
# 2 39.8915 49.3023 33.2327 0.0000 0.0000 0.0000
# 3 33.2325 33.2327 121.9901 0.0000 0.0000 0.0000
# 4 0.0000 0.0000 0.0000 10.0939 0.0000 0.0000
# 5 0.0000 0.0000 0.0000 0.0000 10.0937 0.0000
# 6 0.0000 0.0000 0.0000 0.0000 0.0000 15.3688
#
#
#
# Elastic Compliance Matrix: (Units=1/GPa)
#
#
# Indices 1 2 3 4 5 6 
#
# 1 0.060167 -0.046099 -0.003832 0.000000 0.000000 0.000000
# 2 -0.046099 0.060166 -0.003832 0.000000 0.000000 0.000000
# 3 -0.003832 -0.003832 0.010285 0.000000 0.000000 0.000000
# 4 0.000000 0.000000 0.000000 0.099069 0.000000 0.000000
# 5 0.000000 0.000000 0.000000 0.000000 0.099072 0.000000
# 6 0.000000 0.000000 0.000000 0.000000 0.000000 0.065067
#
#
# Mechanical properties :
#
#
# Convention : Reuss Voigt Hill
#
# Bulk Modulus (GPa) = 43.30684 48.14525 45.72605
# Shear Modulus (GPa) = 9.82221 14.72709 12.27465
#
# Velocity S-wave (km/s) = 2.57142 3.14867 2.87457
# Velocity P-wave (km/s) = 6.16198 6.75497 6.46528
#
# Compressibility (1/GPa) = 0.02309104
#
# Stress axis : x y z
#
# Youngs Moduli (GPa) = 16.62045 16.62070 97.22579
#
# Poissons Ratio (x) = 0.76620 0.37259
# Poissons Ratio (y) = 0.76619 0.37259
# Poissons Ratio (z) = 0.06369 0.06369
#
# Static dielectric constant tensor:
#      x y z
#    x 2.662320 0.000000 0.000000 
#    y 0.000000 2.662320 0.000000 
#    z 0.000000 0.000000 3.136650 
# 
# 
# High freq. dielectric constant tensor:
#      x y z
#    x 1.530980 0.000000 0.000000 
#    y 0.000000 1.530980 0.000000 
#    z 0.000000 0.000000 1.591400 
# 
# From -- ./inp_files/3312.got.cif
#   From: 2010.03.12/outbox.cif.g09.slc.cpg/sg138_2_cif.got.tgz:3312.got - 2010.04.08 09:41:05.
