data_PCOD8318333
_publ_section_title
;
Structure prediction by ZEFSAII (Michael W. Deem and Ramdas Pophale) SiO2 
 PCOD8318333
Probable space group: P 42/M N M
;
_chemical_formula_sum "Si O2"
_cell_formula_units_Z 112
_cell_length_a 20.332698
_cell_length_b 20.332698
_cell_length_c 23.319749
_cell_angle_alpha 90.000000
_cell_angle_beta 90.000000
_cell_angle_gamma 90.000000
_cell_volume 9640.818170
_symmetry_space_group_name_H-M "P 42/M N M"
_symmetry_group_IT_number 136
_symmetry_cell_setting 'tetragonal'
loop_
_space_group_symop_operation_xyz
x,y,z
1/2-y,1/2+x,1/2+z
-x,-y,z
1/2+y,1/2-x,1/2+z
1/2+x,1/2-y,1/2-z
1/2-x,1/2+y,1/2-z
y,x,-z
-y,-x,-z
-x,-y,-z
1/2+y,1/2-x,1/2-z
x,y,-z
1/2-y,1/2+x,1/2-z
1/2-x,1/2+y,1/2+z
1/2+x,1/2-y,1/2+z
-y,-x,z
y,x,z
loop_
_atom_site_type_symbol
_atom_site_label
_atom_site_fract_x
_atom_site_fract_y
_atom_site_fract_z
Si Si1 0.374384 0.090251 0.871288
Si Si2 0.178098 0.712732 0.432791
Si Si3 0.478399 0.858574 0.130225
Si Si4 0.898371 0.998778 0.567754
Si Si5 0.400058 0.040344 0.248660
Si Si6 0.426028 0.973381 0.064708
Si Si7 0.242485 0.968292 0.432906
O O1 0.322466 0.144706 0.895567
O O2 0.448532 0.114058 0.877019
O O3 0.360935 0.073265 0.804463
O O4 0.372190 0.023644 0.908945
O O5 0.183802 0.694675 0.500000
O O6 0.238531 0.761470 0.414937
O O7 0.109012 0.748374 0.419943
O O8 0.458881 0.851452 0.196916
O O9 0.424919 0.905157 0.099563
O O10 0.480253 0.788728 0.099718
O O11 0.895079 0.008768 0.500000
O O12 0.947122 0.052879 0.594327
O O13 0.827050 0.010565 0.593489
O O14 0.926114 0.926114 0.582969
O O15 0.465640 0.080070 0.266607
O O16 0.500000 0.000000 0.067715
O O17 0.404180 0.959453 0.000000
O O18 0.250982 0.981814 0.500000
#
# Coordination Sequence:
#
# PCOD8318333 Si02
#       7
#    16  16  16  16  16  16  16
#     4   9  15  22  32  45  59  84 108 135 162 193
#     4   9  16  24  33  46  64  84 107 135 168 204
#     4   9  15  21  30  46  63  84 104 130 161 196
#     4   8  13  21  33  47  61  79 103 129 158 192
#     4   9  14  22  33  44  61  80 110 139 163 189
#     4   9  14  20  29  44  64  82 101 128 163 198
#     4   9  15  22  32  47  66  84 103 130 166 200
#
# _framework density 11.617272
#
# number of rings (size 3 to 8) (size 9 to 14) (size 15 to 20)
#    0.000    3.143    1.429    1.714    0.000    5.143 
#    0.000    0.000    0.000    0.857    0.000    0.000 
#    0.000    0.000    0.000    0.000    0.000    0.000 
#
# Total GULP energy -1387543.630458 kJ/mol
# GULP energy per Si atom -12388.782415 kJ/mol
# Density = 1.159083 g / cm^3
# Si number density = 11.617272 Si / 1000 Ang^3
#
#
#
# Elastic Constant Matrix: (Units=GPa)
#
#
# Indices 1 2 3 4 5 6 
#
# 1 57.2206 29.8289 32.3898 0.0000 0.0000 0.0000
# 2 29.8289 57.2206 32.3898 0.0000 0.0000 0.0000
# 3 32.3898 32.3898 62.6578 0.0000 0.0000 0.0000
# 4 0.0000 0.0000 0.0000 9.0447 0.0000 0.0000
# 5 0.0000 0.0000 0.0000 0.0000 9.0447 0.0000
# 6 0.0000 0.0000 0.0000 0.0000 0.0000 14.8827
#
#
#
# Elastic Compliance Matrix: (Units=1/GPa)
#
#
# Indices 1 2 3 4 5 6 
#
# 1 0.027589 -0.008919 -0.009651 0.000000 0.000000 0.000000
# 2 -0.008919 0.027589 -0.009651 0.000000 0.000000 0.000000
# 3 -0.009651 -0.009651 0.025937 0.000000 0.000000 0.000000
# 4 0.000000 0.000000 0.000000 0.110563 0.000000 0.000000
# 5 0.000000 0.000000 0.000000 0.000000 0.110563 0.000000
# 6 0.000000 0.000000 0.000000 0.000000 0.000000 0.067192
#
#
# Mechanical properties :
#
#
# Convention : Reuss Voigt Hill
#
# Bulk Modulus (GPa) = 40.53010 40.70177 40.61594
# Shear Modulus (GPa) = 11.51815 12.09377 11.80596
#
# Velocity S-wave (km/s) = 3.15217 3.22998 3.19131
# Velocity P-wave (km/s) = 6.94347 7.00157 6.97258
#
# Compressibility (1/GPa) = 0.02467302
#
# Stress axis : x y z
#
# Youngs Moduli (GPa) = 36.24691 36.24691 38.55435
#
# Poissons Ratio (x) = 0.32328 0.37208
# Poissons Ratio (y) = 0.32328 0.37208
# Poissons Ratio (z) = 0.34982 0.34982
#
# Static dielectric constant tensor:
#      x y z
#    x 2.358840 0.000000 0.000000 
#    y 0.000000 2.358840 0.000000 
#    z 0.000000 0.000000 2.394990 
# 
# 
# High freq. dielectric constant tensor:
#      x y z
#    x 1.410880 0.000000 0.000000 
#    y 0.000000 1.410880 0.000000 
#    z 0.000000 0.000000 1.429540 
# 
# From -- ./inp_files/7826.got.cif
#   From: 2010.03.12/outbox.cif.g09.slc.cpg/sg136_4_cif.got.tgz:7826.got - 2010.04.06 18:39:43.
