data_PCOD8318331
_publ_section_title
;
Structure prediction by ZEFSAII (Michael W. Deem and Ramdas Pophale) SiO2 
 PCOD8318331
Probable space group: P 42/M N M
;
_chemical_formula_sum "Si O2"
_cell_formula_units_Z 72
_cell_length_a 16.216181
_cell_length_b 16.216181
_cell_length_c 19.556745
_cell_angle_alpha 90.000000
_cell_angle_beta 90.000000
_cell_angle_gamma 90.000000
_cell_volume 5142.730183
_symmetry_space_group_name_H-M "P 42/M N M"
_symmetry_group_IT_number 136
_symmetry_cell_setting 'tetragonal'
loop_
_space_group_symop_operation_xyz
x,y,z
1/2-y,1/2+x,1/2+z
-x,-y,z
1/2+y,1/2-x,1/2+z
1/2+x,1/2-y,1/2-z
1/2-x,1/2+y,1/2-z
y,x,-z
-y,-x,-z
-x,-y,-z
1/2+y,1/2-x,1/2-z
x,y,-z
1/2-y,1/2+x,1/2-z
1/2-x,1/2+y,1/2+z
1/2+x,1/2-y,1/2+z
-y,-x,z
y,x,z
loop_
_atom_site_type_symbol
_atom_site_label
_atom_site_fract_x
_atom_site_fract_y
_atom_site_fract_z
Si Si1 0.721625 0.582990 0.423818
Si Si2 0.820762 0.959465 0.660783
Si Si3 0.069595 0.930406 0.422884
Si Si4 0.498409 0.635840 0.693086
Si Si5 0.212827 0.648554 0.923349
O O1 0.728781 0.544207 0.500000
O O2 0.650436 0.650436 0.424153
O O3 0.698796 0.512193 0.369615
O O4 0.808120 0.626380 0.402994
O O5 0.891639 0.891639 0.657132
O O6 0.734980 0.923848 0.630352
O O7 0.848708 0.037339 0.615366
O O8 0.808611 0.986623 0.739261
O O9 0.093553 0.906448 0.500000
O O10 0.000000 0.000000 0.422073
O O11 0.417344 0.582657 0.676194
O O12 0.575925 0.575925 0.705434
O O13 0.284025 0.715976 0.922041
O O14 0.206843 0.611397 0.000000
#
# Coordination Sequence:
#
# PCOD8318331 Si02
#       5
#    16  16   8  16  16
#     4   8  14  23  33  45  63  91 124 152 177 207
#     4   9  14  20  29  44  67  93 117 142 173 209
#     4   9  14  18  26  42  65  93 119 137 162 207
#     4   9  15  22  31  45  69  97 119 143 178 214
#     4   8  13  21  32  45  63  90 121 149 173 203
#
# _framework density 14.000346
#
# number of rings (size 3 to 8) (size 9 to 14) (size 15 to 20)
#    0.000    3.444    1.111    2.000    0.000    3.111 
#    0.000    2.222    0.000    0.000    0.000    0.000 
#    0.000    4.444    0.444    4.889    0.000    2.667 
#
# Total GULP energy -892179.298586 kJ/mol
# GULP energy per Si atom -12391.379147 kJ/mol
# Density = 1.396848 g / cm^3
# Si number density = 14.000346 Si / 1000 Ang^3
#
#
#
# Elastic Constant Matrix: (Units=GPa)
#
#
# Indices 1 2 3 4 5 6 
#
# 1 37.5442 31.4905 51.9132 0.0000 0.0000 0.0000
# 2 31.4905 37.5442 51.9132 0.0000 0.0000 0.0000
# 3 51.9132 51.9132 139.8836 0.0000 0.0000 0.0000
# 4 0.0000 0.0000 0.0000 10.1585 0.0000 0.0000
# 5 0.0000 0.0000 0.0000 0.0000 10.1585 0.0000
# 6 0.0000 0.0000 0.0000 0.0000 0.0000 16.2563
#
#
#
# Elastic Compliance Matrix: (Units=1/GPa)
#
#
# Indices 1 2 3 4 5 6 
#
# 1 0.098987 -0.066203 -0.012167 0.000000 0.000000 0.000000
# 2 -0.066203 0.098986 -0.012167 0.000000 0.000000 0.000000
# 3 -0.012167 -0.012167 0.016179 0.000000 0.000000 0.000000
# 4 0.000000 0.000000 0.000000 0.098440 0.000000 0.000000
# 5 0.000000 0.000000 0.000000 0.000000 0.098440 0.000000
# 6 0.000000 0.000000 0.000000 0.000000 0.000000 0.061515
#
#
# Mechanical properties :
#
#
# Convention : Reuss Voigt Hill
#
# Bulk Modulus (GPa) = 30.22950 53.95620 42.09285
# Shear Modulus (GPa) = 7.52281 12.62499 10.07390
#
# Velocity S-wave (km/s) = 2.32055 3.00619 2.68535
# Velocity P-wave (km/s) = 5.36831 7.11846 6.30441
#
# Compressibility (1/GPa) = 0.03308027
#
# Stress axis : x y z
#
# Youngs Moduli (GPa) = 10.10238 10.10239 61.80754
#
# Poissons Ratio (x) = 0.66881 0.75199
# Poissons Ratio (y) = 0.66881 0.75198
# Poissons Ratio (z) = 0.12291 0.12291
#
# Static dielectric constant tensor:
#      x y z
#    x 2.520370 0.000000 0.000000 
#    y 0.000000 2.520370 0.000000 
#    z 0.000000 0.000000 3.025740 
# 
# 
# High freq. dielectric constant tensor:
#      x y z
#    x 1.485770 0.000000 0.000000 
#    y 0.000000 1.485770 0.000000 
#    z 0.000000 0.000000 1.546450 
# 
# From -- ./inp_files/6173.got.cif
#   From: 2010.03.12/outbox.cif.g09.slc.cpg/sg136_4_cif.got.tgz:6173.got - 2010.04.06 18:39:43.
