data_PCOD8318599
_publ_section_title
;
Structure prediction by ZEFSAII (Michael W. Deem and Ramdas Pophale) SiO2 
 PCOD8318599
Probable space group: P 42/N M C
;
_chemical_formula_sum "Si O2"
_cell_formula_units_Z 96
_cell_length_a 13.776024
_cell_length_b 13.776024
_cell_length_c 27.185213
_cell_angle_alpha 90.000000
_cell_angle_beta 90.000000
_cell_angle_gamma 90.000000
_cell_volume 5159.178113
_symmetry_space_group_name_H-M "P 42/N M C"
_symmetry_group_IT_number 137
_space_group.IT_coordinate_system_code '2'
_symmetry_cell_setting 'tetragonal'
loop_
_space_group_symop_operation_xyz
x,y,z
1/2-y,x,1/2+z
1/2-x,1/2-y,z
y,1/2-x,1/2+z
1/2+x,-y,-z
-x,1/2+y,-z
1/2+y,1/2+x,1/2-z
-y,-x,1/2-z
-x,-y,-z
1/2+y,-x,1/2-z
1/2+x,1/2+y,-z
-y,1/2+x,1/2-z
1/2-x,y,z
x,1/2-y,z
1/2-y,1/2-x,1/2+z
y,x,1/2+z
loop_
_atom_site_type_symbol
_atom_site_label
_atom_site_fract_x
_atom_site_fract_y
_atom_site_fract_z
Si Si1 0.644184 0.142646 0.465184
Si Si2 0.361153 0.641409 0.167866
Si Si3 0.861585 0.449043 0.565060
Si Si4 0.750000 0.861040 0.162398
Si Si5 0.048164 0.468950 0.701969
Si Si6 0.094386 0.004328 0.885704
Si Si7 0.250000 0.360061 0.721351
O O1 0.750000 0.099140 0.449956
O O2 0.659531 0.250000 0.485005
O O3 0.600730 0.087851 0.512371
O O4 0.574813 0.149050 0.418074
O O5 0.250000 0.639541 0.182705
O O6 0.404091 0.750000 0.181566
O O7 0.371565 0.625217 0.109231
O O8 0.409269 0.553312 0.198130
O O9 0.750000 0.482515 0.561371
O O10 0.930782 0.538076 0.575537
O O11 0.750000 0.750000 0.142473
O O12 0.657391 0.919083 0.144210
O O13 0.750000 0.860732 0.220494
O O14 0.148977 0.408933 0.703409
O O15 0.037622 0.537622 0.750000
O O16 0.057247 0.531945 0.652844
O O17 0.250000 0.250000 0.701035
#
# Coordination Sequence:
#
# PCOD8318599 Si02
#       7
#    16  16  16   8  16  16   8
#     4  10  20  34  55  82 109 144 186 230 282 349
#     4   9  18  33  55  84 116 146 180 236 300 356
#     4   9  18  33  55  82 111 142 181 230 287 352
#     4  11  22  38  61  85 115 155 200 252 306 361
#     4  11  23  38  57  83 114 153 202 248 297 361
#     4  11  21  37  56  83 113 148 194 244 295 348
#     4  11  24  42  62  84 118 164 206 252 310 379
#
# _framework density 18.607614000000002
#
# number of rings (size 3 to 8) (size 9 to 14) (size 15 to 20)
#    0.000    1.833    2.500    2.000    1.167    4.000 
#    0.000    0.833    0.000    1.250    0.000    0.000 
#    0.000    0.000    0.000    0.000    0.000    0.000 
#
# Total GULP energy -1189347.341560 kJ/mol
# GULP energy per Si atom -12389.034808 kJ/mol
# Density = 1.856526 g / cm^3
# Si number density = 18.607614 Si / 1000 Ang^3
#
#
#
# Elastic Constant Matrix: (Units=GPa)
#
#
# Indices 1 2 3 4 5 6 
#
# 1 106.2205 48.1301 40.5601 0.0000 0.0000 0.0000
# 2 48.1301 106.2205 40.5601 0.0000 0.0000 0.0000
# 3 40.5601 40.5601 85.2812 0.0000 0.0000 0.0000
# 4 0.0000 0.0000 0.0000 25.3676 0.0000 0.0000
# 5 0.0000 0.0000 0.0000 0.0000 25.3676 0.0000
# 6 0.0000 0.0000 0.0000 0.0000 0.0000 41.6185
#
#
#
# Elastic Compliance Matrix: (Units=1/GPa)
#
#
# Indices 1 2 3 4 5 6 
#
# 1 0.012926 -0.004288 -0.004108 0.000000 0.000000 0.000000
# 2 -0.004288 0.012926 -0.004108 0.000000 0.000000 0.000000
# 3 -0.004108 -0.004108 0.015634 0.000000 0.000000 0.000000
# 4 0.000000 0.000000 0.000000 0.039420 0.000000 0.000000
# 5 0.000000 0.000000 0.000000 0.000000 0.039420 0.000000
# 6 0.000000 0.000000 0.000000 0.000000 0.000000 0.024028
#
#
# Mechanical properties :
#
#
# Convention : Reuss Voigt Hill
#
# Bulk Modulus (GPa) = 60.69224 61.80255 61.24740
# Shear Modulus (GPa) = 28.59492 29.70220 29.14856
#
# Velocity S-wave (km/s) = 3.92437 3.99963 3.96218
# Velocity P-wave (km/s) = 7.29534 7.39020 7.34292
#
# Compressibility (1/GPa) = 0.01647657
#
# Stress axis : x y z
#
# Youngs Moduli (GPa) = 77.36221 77.36221 63.96452
#
# Poissons Ratio (x) = 0.33176 0.26278
# Poissons Ratio (y) = 0.33176 0.26278
# Poissons Ratio (z) = 0.31782 0.31782
#
# Static dielectric constant tensor:
#      x y z
#    x 3.481860 0.000000 0.000000 
#    y 0.000000 3.481860 0.000000 
#    z 0.000000 0.000000 3.362810 
# 
# 
# High freq. dielectric constant tensor:
#      x y z
#    x 1.719690 0.000000 0.000000 
#    y 0.000000 1.719690 0.000000 
#    z 0.000000 0.000000 1.726830 
# 
# From -- ./inp_files/8893.got.cif
#   From: 2010.03.12/outbox.cif.g09.slc.cpg/sg137_5_cif.got.tgz:8893.got - 2010.04.08 09:34:49.
