data_PCOD8318194
_publ_section_title
;
Structure prediction by ZEFSAII (Michael W. Deem and Ramdas Pophale) SiO2 
 PCOD8318194
Probable space group: P 42/M N M
;
_chemical_formula_sum "Si O2"
_cell_formula_units_Z 96
_cell_length_a 23.798765
_cell_length_b 23.798765
_cell_length_c 8.893280
_cell_angle_alpha 90.000000
_cell_angle_beta 90.000000
_cell_angle_gamma 90.000000
_cell_volume 5036.986736
_symmetry_space_group_name_H-M "P 42/M N M"
_symmetry_group_IT_number 136
_symmetry_cell_setting 'tetragonal'
loop_
_space_group_symop_operation_xyz
x,y,z
1/2-y,1/2+x,1/2+z
-x,-y,z
1/2+y,1/2-x,1/2+z
1/2+x,1/2-y,1/2-z
1/2-x,1/2+y,1/2-z
y,x,-z
-y,-x,-z
-x,-y,-z
1/2+y,1/2-x,1/2-z
x,y,-z
1/2-y,1/2+x,1/2-z
1/2-x,1/2+y,1/2+z
1/2+x,1/2-y,1/2+z
-y,-x,z
y,x,z
loop_
_atom_site_type_symbol
_atom_site_label
_atom_site_fract_x
_atom_site_fract_y
_atom_site_fract_z
Si Si1 0.136535 0.227883 0.173242
Si Si2 0.019428 0.212186 0.677272
Si Si3 0.191177 0.719005 0.172231
Si Si4 0.588617 0.500511 0.821116
Si Si5 0.422955 0.968581 0.822170
Si Si6 0.436118 0.202850 0.325958
O O1 0.171052 0.171052 0.204083
O O2 0.081581 0.227385 0.272924
O O3 0.173106 0.281437 0.219798
O O4 0.119799 0.234132 0.000000
O O5 0.018144 0.209383 0.500000
O O6 0.001339 0.151571 0.745835
O O7 0.977912 0.260331 0.729286
O O8 0.220346 0.779655 0.197448
O O9 0.126134 0.723738 0.215064
O O10 0.198513 0.698936 0.000000
O O11 0.553871 0.446130 0.763425
O O12 0.557288 0.557288 0.765226
O O13 0.590160 0.499639 0.000000
O O14 0.468959 0.927894 0.746424
O O15 0.362306 0.943330 0.782591
O O16 0.433650 0.971170 0.000000
O O17 0.450180 0.212367 0.500000
#
# Coordination Sequence:
#
# PCOD8318194 Si02
#       6
#    16  16  16  16  16  16
#     4  10  21  37  58  84 114 147 184 233 287 332
#     4  11  22  34  54  84 114 147 188 231 275 333
#     4   9  19  38  61  82 109 149 193 232 275 334
#     4   8  15  30  52  78 109 144 183 229 276 319
#     4  10  21  38  59  82 109 141 182 230 281 339
#     4  10  23  39  55  82 116 150 185 230 282 332
#
# _framework density 19.059014999999999
#
# number of rings (size 3 to 8) (size 9 to 14) (size 15 to 20)
#    0.000    2.333    0.000    3.000    2.333    4.333 
#    0.000    0.000    0.000    1.500    0.000    5.833 
#    0.000    0.000    0.000    0.000    0.000    0.000 
#
# Total GULP energy -1190509.258027 kJ/mol
# GULP energy per Si atom -12401.138104 kJ/mol
# Density = 1.901564 g / cm^3
# Si number density = 19.059015 Si / 1000 Ang^3
#
#
#
# Elastic Constant Matrix: (Units=GPa)
#
#
# Indices 1 2 3 4 5 6 
#
# 1 89.1968 83.2623 40.8510 0.0000 0.0000 0.0000
# 2 83.2623 89.1968 40.8510 0.0000 0.0000 0.0000
# 3 40.8510 40.8510 58.0716 0.0000 0.0000 0.0000
# 4 0.0000 0.0000 0.0000 19.9273 0.0000 0.0000
# 5 0.0000 0.0000 0.0000 0.0000 19.9273 0.0000
# 6 0.0000 0.0000 0.0000 0.0000 0.0000 21.0912
#
#
#
# Elastic Compliance Matrix: (Units=1/GPa)
#
#
# Indices 1 2 3 4 5 6 
#
# 1 0.088600 -0.079904 -0.006118 0.000000 0.000000 0.000000
# 2 -0.079904 0.088600 -0.006118 0.000000 0.000000 0.000000
# 3 -0.006118 -0.006118 0.025827 0.000000 0.000000 0.000000
# 4 0.000000 0.000000 0.000000 0.050182 0.000000 0.000000
# 5 0.000000 0.000000 0.000000 0.000000 0.050182 0.000000
# 6 0.000000 0.000000 0.000000 0.000000 0.000000 0.047413
#
#
# Mechanical properties :
#
#
# Convention : Reuss Voigt Hill
#
# Bulk Modulus (GPa) = 53.33433 62.93266 58.13349
# Shear Modulus (GPa) = 9.23643 16.95590 13.09617
#
# Velocity S-wave (km/s) = 2.20380 2.98594 2.62417
# Velocity P-wave (km/s) = 5.87539 6.70667 6.30474
#
# Compressibility (1/GPa) = 0.01874965
#
# Stress axis : x y z
#
# Youngs Moduli (GPa) = 11.28663 11.28663 38.71851
#
# Poissons Ratio (x) = 0.90184 0.23687
# Poissons Ratio (y) = 0.90184 0.23687
# Poissons Ratio (z) = 0.06905 0.06905
#
# Static dielectric constant tensor:
#      x y z
#    x 3.657580 0.000000 0.000000 
#    y 0.000000 3.657580 0.000000 
#    z 0.000000 0.000000 3.364220 
# 
# 
# High freq. dielectric constant tensor:
#      x y z
#    x 1.746000 0.000000 0.000000 
#    y 0.000000 1.746000 0.000000 
#    z 0.000000 0.000000 1.727850 
# 
# From -- ./inp_files/1976.got.cif
#   From: 2010.03.12/outbox.cif.g09.slc.cpg/sg136_1_cif.got.tgz:1976.got - 2010.04.06 18:39:43.
