data_PCOD8318540
_publ_section_title
;
Structure prediction by ZEFSAII (Michael W. Deem and Ramdas Pophale) SiO2 
 PCOD8318540
Probable space group: P 42/N M C
;
_chemical_formula_sum "Si O2"
_cell_formula_units_Z 80
_cell_length_a 17.700867
_cell_length_b 17.700867
_cell_length_c 14.707388
_cell_angle_alpha 90.000000
_cell_angle_beta 90.000000
_cell_angle_gamma 90.000000
_cell_volume 4608.128994
_symmetry_space_group_name_H-M "P 42/N M C"
_symmetry_group_IT_number 137
_space_group.IT_coordinate_system_code '2'
_symmetry_cell_setting 'tetragonal'
loop_
_space_group_symop_operation_xyz
x,y,z
1/2-y,x,1/2+z
1/2-x,1/2-y,z
y,1/2-x,1/2+z
1/2+x,-y,-z
-x,1/2+y,-z
1/2+y,1/2+x,1/2-z
-y,-x,1/2-z
-x,-y,-z
1/2+y,-x,1/2-z
1/2+x,1/2+y,-z
-y,1/2+x,1/2-z
1/2-x,y,z
x,1/2-y,z
1/2-y,1/2-x,1/2+z
y,x,1/2+z
loop_
_atom_site_type_symbol
_atom_site_label
_atom_site_fract_x
_atom_site_fract_y
_atom_site_fract_z
Si Si1 0.513585 0.975955 0.102982
Si Si2 0.049053 0.662794 0.209122
Si Si3 0.831943 0.664910 0.486339
Si Si4 0.425037 0.166111 0.341599
Si Si5 0.892547 0.923340 0.826213
O O1 0.483460 0.890247 0.126307
O O2 0.602694 0.984044 0.124895
O O3 0.472907 0.034401 0.170324
O O4 0.500000 0.000000 0.000000
O O5 0.126261 0.626261 0.250000
O O6 0.064563 0.750000 0.177319
O O7 0.984795 0.666778 0.287782
O O8 0.750000 0.625597 0.474669
O O9 0.827007 0.750000 0.450771
O O10 0.852849 0.661903 0.592195
O O11 0.896557 0.625148 0.427687
O O12 0.461773 0.250000 0.344753
O O13 0.396851 0.149100 0.239628
#
# Coordination Sequence:
#
# PCOD8318540 Si02
#       5
#    16  16  16  16  16
#     4  10  19  36  54  76 106 138 179 225 265 318
#     4   9  19  33  53  76 102 138 179 225 276 324
#     4  10  20  31  46  73 107 139 171 210 256 309
#     4  10  20  33  50  73 104 136 171 215 264 311
#     4  10  19  35  53  72 102 139 180 215 261 319
#
# _framework density 17.360624999999999
#
# number of rings (size 3 to 8) (size 9 to 14) (size 15 to 20)
#    0.000    2.200    2.000    3.000    0.000    4.200 
#    0.000    2.000    0.000    0.000    0.000    0.000 
#    0.000   20.000    0.000    0.000    0.000    0.000 
#
# Total GULP energy -991168.084104 kJ/mol
# GULP energy per Si atom -12389.601051 kJ/mol
# Density = 1.732111 g / cm^3
# Si number density = 17.360625 Si / 1000 Ang^3
#
#
#
# Elastic Constant Matrix: (Units=GPa)
#
#
# Indices 1 2 3 4 5 6 
#
# 1 111.4496 41.4391 33.0445 0.0000 0.0000 0.0000
# 2 41.4391 111.4496 33.0445 0.0000 0.0000 0.0000
# 3 33.0445 33.0445 78.1230 0.0000 0.0000 0.0000
# 4 0.0000 0.0000 0.0000 23.1447 0.0000 0.0000
# 5 0.0000 0.0000 0.0000 0.0000 23.1447 0.0000
# 6 0.0000 0.0000 0.0000 0.0000 0.0000 17.2432
#
#
#
# Elastic Compliance Matrix: (Units=1/GPa)
#
#
# Indices 1 2 3 4 5 6 
#
# 1 0.011144 -0.003140 -0.003386 0.000000 0.000000 0.000000
# 2 -0.003140 0.011144 -0.003386 0.000000 0.000000 0.000000
# 3 -0.003386 -0.003386 0.015664 0.000000 0.000000 0.000000
# 4 0.000000 0.000000 0.000000 0.043207 0.000000 0.000000
# 5 0.000000 0.000000 0.000000 0.000000 0.043207 0.000000
# 6 0.000000 0.000000 0.000000 0.000000 0.000000 0.057994
#
#
# Mechanical properties :
#
#
# Convention : Reuss Voigt Hill
#
# Bulk Modulus (GPa) = 55.15614 57.34205 56.24909
# Shear Modulus (GPa) = 24.01257 25.60611 24.80934
#
# Velocity S-wave (km/s) = 3.72312 3.84468 3.78439
# Velocity P-wave (km/s) = 7.09380 7.26708 7.18096
#
# Compressibility (1/GPa) = 0.01813035
#
# Stress axis : x y z
#
# Youngs Moduli (GPa) = 89.73523 89.73523 63.83893
#
# Poissons Ratio (x) = 0.28174 0.21613
# Poissons Ratio (y) = 0.28174 0.21613
# Poissons Ratio (z) = 0.30381 0.30381
#
# Static dielectric constant tensor:
#      x y z
#    x 3.250370 0.000000 0.000000 
#    y 0.000000 3.250370 0.000000 
#    z 0.000000 0.000000 3.281020 
# 
# 
# High freq. dielectric constant tensor:
#      x y z
#    x 1.655690 0.000000 0.000000 
#    y 0.000000 1.655690 0.000000 
#    z 0.000000 0.000000 1.677600 
# 
# From -- ./inp_files/4951.got.cif
#   From: 2010.03.12/outbox.cif.g09.slc.cpg/sg137_3_cif.got.tgz:4951.got - 2010.04.08 09:34:49.
