data_PCOD8318790
_publ_section_title
;
Structure prediction by ZEFSAII (Michael W. Deem and Ramdas Pophale) SiO2 
 PCOD8318790
Probable space group: P 42/N M C
;
_chemical_formula_sum "Si O2"
_cell_formula_units_Z 72
_cell_length_a 13.809990
_cell_length_b 13.809990
_cell_length_c 21.119498
_cell_angle_alpha 90.000000
_cell_angle_beta 90.000000
_cell_angle_gamma 90.000000
_cell_volume 4027.822459
_symmetry_space_group_name_H-M "P 42/N M C"
_symmetry_group_IT_number 137
_space_group.IT_coordinate_system_code '2'
_symmetry_cell_setting 'tetragonal'
loop_
_space_group_symop_operation_xyz
x,y,z
1/2-y,x,1/2+z
1/2-x,1/2-y,z
y,1/2-x,1/2+z
1/2+x,-y,-z
-x,1/2+y,-z
1/2+y,1/2+x,1/2-z
-y,-x,1/2-z
-x,-y,-z
1/2+y,-x,1/2-z
1/2+x,1/2+y,-z
-y,1/2+x,1/2-z
1/2-x,y,z
x,1/2-y,z
1/2-y,1/2-x,1/2+z
y,x,1/2+z
loop_
_atom_site_type_symbol
_atom_site_label
_atom_site_fract_x
_atom_site_fract_y
_atom_site_fract_z
Si Si1 0.550887 0.040516 0.373017
Si Si2 0.859638 0.539065 0.569289
Si Si3 0.639849 0.356725 0.488935
Si Si4 0.638955 0.863123 0.938203
Si Si5 0.363554 0.863554 0.750000
O O1 0.433357 0.051877 0.371837
O O2 0.580573 0.112712 0.428196
O O3 0.598969 0.074035 0.308528
O O4 0.581286 0.930043 0.388731
O O5 0.750000 0.558876 0.592695
O O6 0.874965 0.428402 0.547440
O O7 0.887048 0.609021 0.510475
O O8 0.750000 0.358261 0.466022
O O9 0.607115 0.250000 0.511418
O O10 0.750000 0.894887 0.927288
O O11 0.623863 0.750000 0.925793
O O12 0.383275 0.750000 0.738868
#
# Coordination Sequence:
#
# PCOD8318790 Si02
#       5
#    16  16  16  16   8
#     4  11  20  32  51  71  98 135 170 202 241 291
#     4   9  19  32  47  73 104 131 162 201 245 292
#     4   9  16  28  50  79 105 127 157 201 250 296
#     4   9  17  30  50  77 106 131 158 198 249 302
#     4  11  24  40  56  74  96 123 160 206 248 287
#
# _framework density 17.875664
#
# number of rings (size 3 to 8) (size 9 to 14) (size 15 to 20)
#    0.000    2.333    0.000    6.667    0.000    6.222 
#    0.000    1.111    0.000    1.333    0.000    0.000 
#    0.000    1.778    0.000    0.000    0.000    0.000 
#
# Total GULP energy -892431.217034 kJ/mol
# GULP energy per Si atom -12394.878014 kJ/mol
# Density = 1.783498 g / cm^3
# Si number density = 17.875664 Si / 1000 Ang^3
#
#
#
# Elastic Constant Matrix: (Units=GPa)
#
#
# Indices 1 2 3 4 5 6 
#
# 1 69.3128 82.3266 38.7816 0.0000 0.0000 0.0000
# 2 82.3266 69.3128 38.7816 0.0000 0.0000 0.0000
# 3 38.7816 38.7816 34.9678 0.0000 0.0000 0.0000
# 4 0.0000 0.0000 0.0000 14.1272 0.0000 0.0000
# 5 0.0000 0.0000 0.0000 0.0000 14.1272 0.0000
# 6 0.0000 0.0000 0.0000 0.0000 0.0000 16.3531
#
#
#
# Elastic Compliance Matrix: (Units=1/GPa)
#
#
# Indices 1 2 3 4 5 6 
#
# 1 -0.030801 0.046041 -0.016902 0.000000 0.000000 0.000000
# 2 0.046041 -0.030801 -0.016902 0.000000 0.000000 0.000000
# 3 -0.016902 -0.016902 0.066089 0.000000 0.000000 0.000000
# 4 0.000000 0.000000 0.000000 0.070786 0.000000 0.000000
# 5 0.000000 0.000000 0.000000 0.000000 0.070786 0.000000
# 6 0.000000 0.000000 0.000000 0.000000 0.000000 0.061151
#
#
# Mechanical properties :
#
#
# Convention : Reuss Voigt Hill
#
# Bulk Modulus (GPa) = 34.53005 54.81921 44.67463
# Shear Modulus (GPa) = 25.98884 9.83505 17.91195
#
# Velocity S-wave (km/s) = 3.81710 2.34816 3.16892
# Velocity P-wave (km/s) = 6.22782 6.17133 6.19964
#
# Compressibility (1/GPa) = 0.02896029
#
# Stress axis : x y z
#
# Youngs Moduli (GPa) = -32.46689 -32.46689 15.13114
#
# Poissons Ratio (x) = 1.49480 0.25575
# Poissons Ratio (y) = 1.49480 0.25575
# Poissons Ratio (z) = -0.54876 -0.54876
#
# Static dielectric constant tensor:
#      x y z
#    x 3.517760 0.000000 0.000000 
#    y 0.000000 3.517760 0.000000 
#    z 0.000000 0.000000 3.496510 
# 
# 
# High freq. dielectric constant tensor:
#      x y z
#    x 1.708320 0.000000 0.000000 
#    y 0.000000 1.708320 0.000000 
#    z 0.000000 0.000000 1.626890 
# 
# From -- ./inp_files/6191.got.cif
#   From: 2010.03.12/outbox.cif.g09.slc.cpg/sg137_4_cif.got.tgz:6191.got - 2010.04.08 09:34:49.
