data_PCOD8318718
_publ_section_title
;
Structure prediction by ZEFSAII (Michael W. Deem and Ramdas Pophale) SiO2 
 PCOD8318718
Probable space group: P 42/N M C
;
_chemical_formula_sum "Si O2"
_cell_formula_units_Z 72
_cell_length_a 18.104184
_cell_length_b 18.104184
_cell_length_c 10.846791
_cell_angle_alpha 90.000000
_cell_angle_beta 90.000000
_cell_angle_gamma 90.000000
_cell_volume 3555.160253
_symmetry_space_group_name_H-M "P 42/N M C"
_symmetry_group_IT_number 137
_space_group.IT_coordinate_system_code '2'
_symmetry_cell_setting 'tetragonal'
loop_
_space_group_symop_operation_xyz
x,y,z
1/2-y,x,1/2+z
1/2-x,1/2-y,z
y,1/2-x,1/2+z
1/2+x,-y,-z
-x,1/2+y,-z
1/2+y,1/2+x,1/2-z
-y,-x,1/2-z
-x,-y,-z
1/2+y,-x,1/2-z
1/2+x,1/2+y,-z
-y,1/2+x,1/2-z
1/2-x,y,z
x,1/2-y,z
1/2-y,1/2-x,1/2+z
y,x,1/2+z
loop_
_atom_site_type_symbol
_atom_site_label
_atom_site_fract_x
_atom_site_fract_y
_atom_site_fract_z
Si Si1 0.833387 0.460360 0.129350
Si Si2 0.445264 0.334433 0.142266
Si Si3 0.166434 0.586195 0.504510
Si Si4 0.164949 0.460393 0.128254
Si Si5 0.404810 0.595191 0.250000
O O1 0.750000 0.437646 0.160144
O O2 0.865731 0.507576 0.242399
O O3 0.877432 0.384624 0.108938
O O4 0.838488 0.511136 0.009754
O O5 0.421617 0.250000 0.164750
O O6 0.369221 0.378789 0.128398
O O7 0.497138 0.342132 0.020102
O O8 0.250000 0.610701 0.531705
O O9 0.145680 0.614728 0.367935
O O10 0.250000 0.459327 0.176580
O O11 0.112319 0.510622 0.214811
#
# Coordination Sequence:
#
# PCOD8318718 Si02
#       5
#    16  16  16  16   8
#     4   9  20  38  57  85 119 153 199 248 295 353
#     4  10  22  38  59  86 120 158 202 252 298 355
#     4  10  21  37  59  88 120 156 198 245 299 359
#     4  10  22  38  59  85 117 158 201 248 303 363
#     4  10  22  36  60  87 122 150 197 250 300 360
#
# _framework density 20.252251000000001
#
# number of rings (size 3 to 8) (size 9 to 14) (size 15 to 20)
#    0.000    2.222    0.000    1.333    6.222    3.556 
#    0.000    0.000    0.000   12.333    0.000    0.000 
#    0.000    0.000    0.000    0.000    0.000    0.000 
#
# Total GULP energy -892587.243877 kJ/mol
# GULP energy per Si atom -12397.045054 kJ/mol
# Density = 2.020616 g / cm^3
# Si number density = 20.252251 Si / 1000 Ang^3
#
#
#
# Elastic Constant Matrix: (Units=GPa)
#
#
# Indices 1 2 3 4 5 6 
#
# 1 113.4138 75.1367 26.4849 0.0000 0.0000 0.0000
# 2 75.1367 113.4131 26.4850 0.0000 0.0000 0.0000
# 3 26.4849 26.4850 72.3774 0.0000 0.0000 0.0000
# 4 0.0000 0.0000 0.0000 21.1651 0.0000 0.0000
# 5 0.0000 0.0000 0.0000 0.0000 21.1654 0.0000
# 6 0.0000 0.0000 0.0000 0.0000 0.0000 29.7941
#
#
#
# Elastic Compliance Matrix: (Units=1/GPa)
#
#
# Indices 1 2 3 4 5 6 
#
# 1 0.016018 -0.010107 -0.002163 0.000000 0.000000 0.000000
# 2 -0.010107 0.016018 -0.002163 0.000000 0.000000 0.000000
# 3 -0.002163 -0.002163 0.015400 0.000000 0.000000 0.000000
# 4 0.000000 0.000000 0.000000 0.047248 0.000000 0.000000
# 5 0.000000 0.000000 0.000000 0.000000 0.047247 0.000000
# 6 0.000000 0.000000 0.000000 0.000000 0.000000 0.033564
#
#
# Mechanical properties :
#
#
# Convention : Reuss Voigt Hill
#
# Bulk Modulus (GPa) = 53.85110 61.71306 57.78208
# Shear Modulus (GPa) = 23.74717 25.83141 24.78929
#
# Velocity S-wave (km/s) = 3.42800 3.57527 3.50240
# Velocity P-wave (km/s) = 6.50508 6.89795 6.70439
#
# Compressibility (1/GPa) = 0.01856972
#
# Stress axis : x y z
#
# Youngs Moduli (GPa) = 62.42828 62.42782 64.93688
#
# Poissons Ratio (x) = 0.63097 0.14046
# Poissons Ratio (y) = 0.63097 0.14047
# Poissons Ratio (z) = 0.13504 0.13504
#
# Static dielectric constant tensor:
#      x y z
#    x 3.555990 0.000000 0.000000 
#    y 0.000000 3.556000 0.000000 
#    z 0.000000 0.000000 3.771940 
# 
# 
# High freq. dielectric constant tensor:
#      x y z
#    x 1.779670 0.000000 0.000000 
#    y 0.000000 1.779670 0.000000 
#    z 0.000000 0.000000 1.800950 
# 
# From -- ./inp_files/3481.got.cif
#   From: 2010.03.12/outbox.cif.g09.slc.cpg/sg137_2_cif.got.tgz:3481.got - 2010.04.08 09:34:49.
