data_PCOD8318144
_publ_section_title
;
Structure prediction by ZEFSAII (Michael W. Deem and Ramdas Pophale) SiO2 
 PCOD8318144
Probable space group: P 42/M N M
;
_chemical_formula_sum "Si O2"
_cell_formula_units_Z 72
_cell_length_a 19.969655
_cell_length_b 19.969655
_cell_length_c 8.764554
_cell_angle_alpha 90.000000
_cell_angle_beta 90.000000
_cell_angle_gamma 90.000000
_cell_volume 3495.191255
_symmetry_space_group_name_H-M "P 42/M N M"
_symmetry_group_IT_number 136
_symmetry_cell_setting 'tetragonal'
loop_
_space_group_symop_operation_xyz
x,y,z
1/2-y,1/2+x,1/2+z
-x,-y,z
1/2+y,1/2-x,1/2+z
1/2+x,1/2-y,1/2-z
1/2-x,1/2+y,1/2-z
y,x,-z
-y,-x,-z
-x,-y,-z
1/2+y,1/2-x,1/2-z
x,y,-z
1/2-y,1/2+x,1/2-z
1/2-x,1/2+y,1/2+z
1/2+x,1/2-y,1/2+z
-y,-x,z
y,x,z
loop_
_atom_site_type_symbol
_atom_site_label
_atom_site_fract_x
_atom_site_fract_y
_atom_site_fract_z
Si Si1 0.684550 0.518135 0.678413
Si Si2 0.552396 0.447605 0.680953
Si Si3 0.837668 0.162333 0.319728
Si Si4 0.399358 0.776854 0.325405
Si Si5 0.051508 0.418627 0.174918
Si Si6 0.734226 0.265775 0.822700
O O1 0.676426 0.534531 0.500000
O O2 0.625053 0.470062 0.739574
O O3 0.684675 0.589031 0.763128
O O4 0.750621 0.474389 0.713827
O O5 0.500000 0.500000 0.749304
O O6 0.551907 0.448094 0.500000
O O7 0.838874 0.161127 0.500000
O O8 0.783253 0.216748 0.268619
O O9 0.381835 0.757407 0.500000
O O10 0.399383 0.856357 0.300105
O O11 0.343119 0.747206 0.216223
O O12 0.091194 0.484581 0.225722
O O13 0.029270 0.424880 0.000000
O O14 0.746635 0.253366 0.000000
#
# Coordination Sequence:
#
# PCOD8318144 Si02
#       6
#    16   8   8  16  16   8
#     4  10  20  39  65  93 125 167 214 254 310 383
#     4   9  15  28  56  87 117 154 204 253 292 351
#     4  12  26  42  62  94 135 171 213 268 319 366
#     4  10  23  42  66  94 126 164 207 261 321 379
#     4  10  21  38  61  91 123 159 206 258 314 372
#     4  12  27  45  66  91 127 172 216 261 320 392
#
# _framework density 20.599730000000001
#
# number of rings (size 3 to 8) (size 9 to 14) (size 15 to 20)
#    0.000    1.667    1.111    4.000    3.111    4.444 
#    0.000    1.111    0.000    0.000    0.000    0.000 
#    0.000    0.000    0.000    0.000    0.000    0.000 
#
# Total GULP energy -892788.298591 kJ/mol
# GULP energy per Si atom -12399.837480 kJ/mol
# Density = 2.055284 g / cm^3
# Si number density = 20.599730 Si / 1000 Ang^3
#
#
#
# Elastic Constant Matrix: (Units=GPa)
#
#
# Indices 1 2 3 4 5 6 
#
# 1 96.2787 35.0736 43.2139 0.0000 0.0000 0.0000
# 2 35.0736 96.2786 43.2138 0.0000 0.0000 0.0000
# 3 43.2139 43.2138 90.6663 0.0000 0.0000 0.0000
# 4 0.0000 0.0000 0.0000 24.9705 0.0000 0.0000
# 5 0.0000 0.0000 0.0000 0.0000 24.9705 0.0000
# 6 0.0000 0.0000 0.0000 0.0000 0.0000 33.9521
#
#
#
# Elastic Compliance Matrix: (Units=1/GPa)
#
#
# Indices 1 2 3 4 5 6 
#
# 1 0.013715 -0.002623 -0.005287 0.000000 0.000000 0.000000
# 2 -0.002623 0.013715 -0.005287 0.000000 0.000000 0.000000
# 3 -0.005287 -0.005287 0.016069 0.000000 0.000000 0.000000
# 4 0.000000 0.000000 0.000000 0.040047 0.000000 0.000000
# 5 0.000000 0.000000 0.000000 0.000000 0.040047 0.000000
# 6 0.000000 0.000000 0.000000 0.000000 0.000000 0.029453
#
#
# Mechanical properties :
#
#
# Convention : Reuss Voigt Hill
#
# Bulk Modulus (GPa) = 58.45942 58.46957 58.46449
# Shear Modulus (GPa) = 27.00635 27.56012 27.28324
#
# Velocity S-wave (km/s) = 3.62471 3.66168 3.64324
# Velocity P-wave (km/s) = 6.77926 6.80606 6.79267
#
# Compressibility (1/GPa) = 0.01710588
#
# Stress axis : x y z
#
# Youngs Moduli (GPa) = 72.91269 72.91264 62.23228
#
# Poissons Ratio (x) = 0.19128 0.32899
# Poissons Ratio (y) = 0.19128 0.32899
# Poissons Ratio (z) = 0.38545 0.38545
#
# Static dielectric constant tensor:
#      x y z
#    x 3.783790 0.000000 0.000000 
#    y 0.000000 3.783780 0.000000 
#    z 0.000000 0.000000 3.574340 
# 
# 
# High freq. dielectric constant tensor:
#      x y z
#    x 1.813380 0.000000 0.000000 
#    y 0.000000 1.813380 0.000000 
#    z 0.000000 0.000000 1.785950 
# 
# From -- ./inp_files/1657.got.cif
#   From: 2010.03.12/outbox.cif.g09.slc.cpg/sg136_1_cif.got.tgz:1657.got - 2010.04.06 18:39:43.
