data_PCOD8318721
_publ_section_title
;
Structure prediction by ZEFSAII (Michael W. Deem and Ramdas Pophale) SiO2 
 PCOD8318721
Probable space group: P 42/N M C
;
_chemical_formula_sum "Si O2"
_cell_formula_units_Z 112
_cell_length_a 14.832350
_cell_length_b 14.832350
_cell_length_c 23.367541
_cell_angle_alpha 90.000000
_cell_angle_beta 90.000000
_cell_angle_gamma 90.000000
_cell_volume 5140.826458
_symmetry_space_group_name_H-M "P 42/N M C"
_symmetry_group_IT_number 137
_space_group.IT_coordinate_system_code '2'
_symmetry_cell_setting 'tetragonal'
loop_
_space_group_symop_operation_xyz
x,y,z
1/2-y,x,1/2+z
1/2-x,1/2-y,z
y,1/2-x,1/2+z
1/2+x,-y,-z
-x,1/2+y,-z
1/2+y,1/2+x,1/2-z
-y,-x,1/2-z
-x,-y,-z
1/2+y,-x,1/2-z
1/2+x,1/2+y,-z
-y,1/2+x,1/2-z
1/2-x,y,z
x,1/2-y,z
1/2-y,1/2-x,1/2+z
y,x,1/2+z
loop_
_atom_site_type_symbol
_atom_site_label
_atom_site_fract_x
_atom_site_fract_y
_atom_site_fract_z
Si Si1 0.354924 0.032172 0.465633
Si Si2 0.848218 0.350173 0.682666
Si Si3 0.352153 0.849131 0.521349
Si Si4 0.541694 0.920402 0.333700
Si Si5 0.148553 0.505717 0.760954
Si Si6 0.099139 0.508271 0.885968
Si Si7 0.650909 0.851441 0.929385
O O1 0.250000 0.052694 0.452999
O O2 0.374362 0.925031 0.473533
O O3 0.413588 0.073028 0.414948
O O4 0.387593 0.079627 0.524313
O O5 0.843494 0.343494 0.750000
O O6 0.750000 0.388912 0.660541
O O7 0.862276 0.250000 0.657169
O O8 0.933268 0.411226 0.666406
O O9 0.250000 0.866113 0.544845
O O10 0.357952 0.750000 0.492144
O O11 0.424344 0.847587 0.572599
O O12 0.589014 0.844066 0.371562
O O13 0.586621 0.928792 0.270503
O O14 0.564334 0.011906 0.366963
O O15 0.103565 0.603565 0.750000
O O16 0.250000 0.505481 0.736006
O O17 0.154539 0.483916 0.828611
O O18 0.750000 0.855759 0.957681
O O19 0.625385 0.750000 0.911430
#
# Coordination Sequence:
#
# PCOD8318721 Si02
#       7
#    16  16  16  16  16  16  16
#     4  10  22  42  63  89 124 162 210 266 320 384
#     4   9  18  34  56  82 113 152 203 259 311 368
#     4  10  21  38  63  93 124 161 205 259 321 380
#     4  11  21  37  60  86 125 164 210 255 312 373
#     4  10  23  40  61  92 129 171 215 261 314 379
#     4  11  22  38  61  91 124 164 206 255 318 377
#     4  10  21  37  60  88 117 157 207 259 317 383
#
# _framework density 21.786379
#
# number of rings (size 3 to 8) (size 9 to 14) (size 15 to 20)
#    0.000    1.857    1.429    3.429    0.000    4.143 
#    0.000    2.143    0.000    4.286    0.000    2.000 
#    0.000    0.000    0.000    0.000    0.000    0.000 
#
# Total GULP energy -1388038.051339 kJ/mol
# GULP energy per Si atom -12393.196887 kJ/mol
# Density = 2.173679 g / cm^3
# Si number density = 21.786379 Si / 1000 Ang^3
#
#
#
# Elastic Constant Matrix: (Units=GPa)
#
#
# Indices 1 2 3 4 5 6 
#
# 1 116.6567 43.4072 38.4076 0.0000 0.0000 0.0000
# 2 43.4072 116.6567 38.4076 0.0000 0.0000 0.0000
# 3 38.4076 38.4076 79.2205 0.0000 0.0000 0.0000
# 4 0.0000 0.0000 0.0000 21.5565 0.0000 0.0000
# 5 0.0000 0.0000 0.0000 0.0000 21.5565 0.0000
# 6 0.0000 0.0000 0.0000 0.0000 0.0000 28.1479
#
#
#
# Elastic Compliance Matrix: (Units=1/GPa)
#
#
# Indices 1 2 3 4 5 6 
#
# 1 0.010897 -0.002755 -0.003947 0.000000 0.000000 0.000000
# 2 -0.002755 0.010897 -0.003947 0.000000 0.000000 0.000000
# 3 -0.003947 -0.003947 0.016450 0.000000 0.000000 0.000000
# 4 0.000000 0.000000 0.000000 0.046390 0.000000 0.000000
# 5 0.000000 0.000000 0.000000 0.000000 0.046390 0.000000
# 6 0.000000 0.000000 0.000000 0.000000 0.000000 0.035527
#
#
# Mechanical properties :
#
#
# Convention : Reuss Voigt Hill
#
# Bulk Modulus (GPa) = 59.01493 61.44209 60.22851
# Shear Modulus (GPa) = 25.84004 27.07294 26.45649
#
# Velocity S-wave (km/s) = 3.44766 3.52895 3.48855
# Velocity P-wave (km/s) = 6.55708 6.69836 6.62810
#
# Compressibility (1/GPa) = 0.01694486
#
# Stress axis : x y z
#
# Youngs Moduli (GPa) = 91.76924 91.76924 60.78850
#
# Poissons Ratio (x) = 0.25283 0.23995
# Poissons Ratio (y) = 0.25283 0.23995
# Poissons Ratio (z) = 0.36224 0.36224
#
# Static dielectric constant tensor:
#      x y z
#    x 3.967790 0.000000 0.000000 
#    y 0.000000 3.967790 0.000000 
#    z 0.000000 0.000000 3.829290 
# 
# 
# High freq. dielectric constant tensor:
#      x y z
#    x 1.854980 0.000000 0.000000 
#    y 0.000000 1.854980 0.000000 
#    z 0.000000 0.000000 1.842000 
# 
# From -- ./inp_files/8994.got.cif
#   From: 2010.03.12/outbox.cif.g09.slc.cpg/sg137_5_cif.got.tgz:8994.got - 2010.04.08 09:34:49.
