data_PCOD8318998
_publ_section_title
;
Structure prediction by ZEFSAII (Michael W. Deem and Ramdas Pophale) SiO2 
 PCOD8318998
Probable space group: P 42/N C M
;
_chemical_formula_sum "Si O2"
_cell_formula_units_Z 112
_cell_length_a 16.801752
_cell_length_b 16.801752
_cell_length_c 20.072285
_cell_angle_alpha 90.000000
_cell_angle_beta 90.000000
_cell_angle_gamma 90.000000
_cell_volume 5666.383379
_symmetry_space_group_name_H-M "P 42/N C M"
_symmetry_group_IT_number 138
_space_group.IT_coordinate_system_code '2'
_symmetry_cell_setting 'tetragonal'
loop_
_space_group_symop_operation_xyz
x,y,z
1/2-y,x,1/2+z
1/2-x,1/2-y,z
y,1/2-x,1/2+z
1/2+x,-y,1/2-z
-x,1/2+y,1/2-z
1/2+y,1/2+x,-z
-y,-x,-z
-x,-y,-z
1/2+y,-x,1/2-z
1/2+x,1/2+y,-z
-y,1/2+x,1/2-z
1/2-x,y,1/2+z
x,1/2-y,1/2+z
1/2-y,1/2-x,z
y,x,z
loop_
_atom_site_type_symbol
_atom_site_label
_atom_site_fract_x
_atom_site_fract_y
_atom_site_fract_z
Si Si1 0.817838 0.419047 0.949203
Si Si2 0.043805 0.919389 0.641286
Si Si3 0.261137 0.918511 0.789902
Si Si4 0.558800 0.682394 0.139190
Si Si5 0.817736 0.941545 0.541330
Si Si6 0.694199 0.365019 0.850014
Si Si7 0.935081 0.440769 0.574061
O O1 0.878676 0.455089 0.894589
O O2 0.752419 0.363055 0.913404
O O3 0.860023 0.360023 0.000000
O O4 0.782312 0.498266 0.985241
O O5 0.072708 0.854972 0.695560
O O6 0.993149 0.877669 0.584614
O O7 0.991099 0.991099 0.673976
O O8 0.254446 0.894599 0.712957
O O9 0.220602 0.848290 0.835032
O O10 0.217268 0.002944 0.801950
O O11 0.633237 0.633237 0.170684
O O12 0.592586 0.750542 0.090526
O O13 0.509252 0.626442 0.091202
O O14 0.866426 0.866426 0.510506
O O15 0.627420 0.429707 0.870009
O O16 0.911073 0.411073 0.500000
O O17 0.025102 0.474899 0.574571
#
# Coordination Sequence:
#
# PCOD8318998 Si02
#       7
#    16  16  16  16  16  16  16
#     4  10  20  34  53  78 109 145 181 224 280 344
#     4   9  18  34  54  75 103 139 180 226 274 332
#     4  10  22  37  54  79 111 149 189 232 285 343
#     4   9  18  34  54  77 106 141 184 227 269 328
#     4   9  17  31  52  79 107 135 174 224 276 325
#     4  11  22  37  53  77 113 147 182 230 284 335
#     4   9  18  34  56  78 101 133 176 225 277 336
#
# _framework density 19.765695000000001
#
# number of rings (size 3 to 8) (size 9 to 14) (size 15 to 20)
#    0.000    2.429    0.000    2.143    0.000    5.714 
#    0.000    9.286    0.000    0.000    0.000    0.000 
#    0.000    4.571    0.000    0.000    0.000    0.000 
#
# Total GULP energy -1387805.533813 kJ/mol
# GULP energy per Si atom -12391.120838 kJ/mol
# Density = 1.972071 g / cm^3
# Si number density = 19.765695 Si / 1000 Ang^3
#
#
#
# Elastic Constant Matrix: (Units=GPa)
#
#
# Indices 1 2 3 4 5 6 
#
# 1 71.9198 52.5635 31.5857 0.0000 0.0000 0.0000
# 2 52.5635 71.9198 31.5857 0.0000 0.0000 0.0000
# 3 31.5857 31.5857 70.3027 0.0000 0.0000 0.0000
# 4 0.0000 0.0000 0.0000 27.4320 0.0000 0.0000
# 5 0.0000 0.0000 0.0000 0.0000 27.4320 0.0000
# 6 0.0000 0.0000 0.0000 0.0000 0.0000 30.9478
#
#
#
# Elastic Compliance Matrix: (Units=1/GPa)
#
#
# Indices 1 2 3 4 5 6 
#
# 1 0.031034 -0.020629 -0.004675 0.000000 0.000000 0.000000
# 2 -0.020629 0.031034 -0.004675 0.000000 0.000000 0.000000
# 3 -0.004675 -0.004675 0.018425 0.000000 0.000000 0.000000
# 4 0.000000 0.000000 0.000000 0.036454 0.000000 0.000000
# 5 0.000000 0.000000 0.000000 0.000000 0.036454 0.000000
# 6 0.000000 0.000000 0.000000 0.000000 0.000000 0.032313
#
#
# Mechanical properties :
#
#
# Convention : Reuss Voigt Hill
#
# Bulk Modulus (GPa) = 48.69477 49.51245 49.10361
# Shear Modulus (GPa) = 19.80067 23.72282 21.76175
#
# Velocity S-wave (km/s) = 3.16851 3.46815 3.32171
# Velocity P-wave (km/s) = 6.17053 6.41416 6.29352
#
# Compressibility (1/GPa) = 0.02053609
#
# Stress axis : x y z
#
# Youngs Moduli (GPa) = 32.22241 32.22241 54.27399
#
# Poissons Ratio (x) = 0.66470 0.25373
# Poissons Ratio (y) = 0.66470 0.25373
# Poissons Ratio (z) = 0.15064 0.15064
#
# Static dielectric constant tensor:
#      x y z
#    x 3.798880 0.000000 0.000000 
#    y 0.000000 3.798880 0.000000 
#    z 0.000000 0.000000 3.443220 
# 
# 
# High freq. dielectric constant tensor:
#      x y z
#    x 1.761840 0.000000 0.000000 
#    y 0.000000 1.761840 0.000000 
#    z 0.000000 0.000000 1.750920 
# 
# From -- ./inp_files/6442.got.cif
#   From: 2010.03.12/outbox.cif.g09.slc.cpg/sg138_4_cif.got.tgz:6442.got - 2010.04.08 09:41:05.
