data_PCOD8318261
_publ_section_title
;
Structure prediction by ZEFSAII (Michael W. Deem and Ramdas Pophale) SiO2 
 PCOD8318261
Probable space group: P 42/M N M
;
_chemical_formula_sum "Si O2"
_cell_formula_units_Z 88
_cell_length_a 16.058581
_cell_length_b 16.058581
_cell_length_c 21.430191
_cell_angle_alpha 90.000000
_cell_angle_beta 90.000000
_cell_angle_gamma 90.000000
_cell_volume 5526.375303
_symmetry_space_group_name_H-M "P 42/M N M"
_symmetry_group_IT_number 136
_symmetry_cell_setting 'tetragonal'
loop_
_space_group_symop_operation_xyz
x,y,z
1/2-y,1/2+x,1/2+z
-x,-y,z
1/2+y,1/2-x,1/2+z
1/2+x,1/2-y,1/2-z
1/2-x,1/2+y,1/2-z
y,x,-z
-y,-x,-z
-x,-y,-z
1/2+y,1/2-x,1/2-z
x,y,-z
1/2-y,1/2+x,1/2-z
1/2-x,1/2+y,1/2+z
1/2+x,1/2-y,1/2+z
-y,-x,z
y,x,z
loop_
_atom_site_type_symbol
_atom_site_label
_atom_site_fract_x
_atom_site_fract_y
_atom_site_fract_z
Si Si1 0.240599 0.896226 0.707543
Si Si2 0.934283 0.065718 0.073936
Si Si3 0.584687 0.281091 0.210654
Si Si4 0.790873 0.656090 0.341637
Si Si5 0.227002 0.637266 0.345570
Si Si6 0.750824 0.517869 0.573810
O O1 0.159626 0.840375 0.697805
O O2 0.270693 0.893872 0.778698
O O3 0.315425 0.861123 0.664131
O O4 0.214968 0.989408 0.688878
O O5 0.961925 0.156859 0.097048
O O6 0.936458 0.063543 0.000000
O O7 0.000000 0.000000 0.102354
O O8 0.629426 0.370575 0.201288
O O9 0.627944 0.212506 0.166935
O O10 0.591330 0.253659 0.282301
O O11 0.713281 0.713281 0.360972
O O12 0.808569 0.590085 0.396739
O O13 0.296478 0.703523 0.365441
O O14 0.218906 0.571229 0.401210
O O15 0.760209 0.518626 0.500000
#
# Coordination Sequence:
#
# PCOD8318261 Si02
#       6
#    16   8  16  16  16  16
#     4   9  17  31  50  69  93 125 162 207 248 284
#     4   9  18  28  40  66 102 136 167 191 214 262
#     4   9  17  30  50  71  93 123 162 209 248 282
#     4   9  17  30  46  67  98 132 164 195 235 286
#     4   9  18  31  46  67  98 133 165 194 236 290
#     4  11  19  29  47  70 100 135 164 192 229 281
#
# _framework density 15.923639
#
# number of rings (size 3 to 8) (size 9 to 14) (size 15 to 20)
#    0.000    2.636    2.727    2.727    0.000    1.455 
#    0.000    0.909    0.000    2.182    0.000    0.000 
#    0.000    0.000    0.000    8.000    0.000    0.000 
#
# Total GULP energy -1090964.256202 kJ/mol
# GULP energy per Si atom -12397.321093 kJ/mol
# Density = 1.588740 g / cm^3
# Si number density = 15.923639 Si / 1000 Ang^3
#
#
#
# Elastic Constant Matrix: (Units=GPa)
#
#
# Indices 1 2 3 4 5 6 
#
# 1 112.3024 50.5846 42.8136 0.0000 0.0000 0.0000
# 2 50.5846 112.3024 42.8136 0.0000 0.0000 0.0000
# 3 42.8136 42.8136 73.8868 0.0000 0.0000 0.0000
# 4 0.0000 0.0000 0.0000 21.9398 0.0000 0.0000
# 5 0.0000 0.0000 0.0000 0.0000 21.9398 0.0000
# 6 0.0000 0.0000 0.0000 0.0000 0.0000 15.7223
#
#
#
# Elastic Compliance Matrix: (Units=1/GPa)
#
#
# Indices 1 2 3 4 5 6 
#
# 1 0.012516 -0.003687 -0.005116 0.000000 0.000000 0.000000
# 2 -0.003687 0.012516 -0.005116 0.000000 0.000000 0.000000
# 3 -0.005116 -0.005116 0.019463 0.000000 0.000000 0.000000
# 4 0.000000 0.000000 0.000000 0.045579 0.000000 0.000000
# 5 0.000000 0.000000 0.000000 0.000000 0.045579 0.000000
# 6 0.000000 0.000000 0.000000 0.000000 0.000000 0.063604
#
#
# Mechanical properties :
#
#
# Convention : Reuss Voigt Hill
#
# Bulk Modulus (GPa) = 60.03457 63.43503 61.73480
# Shear Modulus (GPa) = 21.49191 22.73903 22.11547
#
# Velocity S-wave (km/s) = 3.67779 3.78299 3.73076
# Velocity P-wave (km/s) = 7.47116 7.68146 7.57704
#
# Compressibility (1/GPa) = 0.01665707
#
# Stress axis : x y z
#
# Youngs Moduli (GPa) = 79.90025 79.90032 51.38037
#
# Poissons Ratio (x) = 0.29461 0.26284
# Poissons Ratio (y) = 0.29461 0.26284
# Poissons Ratio (z) = 0.40874 0.40874
#
# Static dielectric constant tensor:
#      x y z
#    x 2.992670 0.000000 0.000000 
#    y 0.000000 2.992670 0.000000 
#    z 0.000000 0.000000 2.717470 
# 
# 
# High freq. dielectric constant tensor:
#      x y z
#    x 1.606140 0.000000 0.000000 
#    y 0.000000 1.606140 0.000000 
#    z 0.000000 0.000000 1.578550 
# 
# From -- ./inp_files/8297.got.cif
#   From: 2010.03.12/outbox.cif.g09.slc.cpg/sg136_5_cif.got.tgz:8297.got - 2010.04.06 18:39:43.
