data_PCOD8318984
_publ_section_title
;
Structure prediction by ZEFSAII (Michael W. Deem and Ramdas Pophale) SiO2 
 PCOD8318984
Probable space group: P 42/N C M
;
_chemical_formula_sum "Si O2"
_cell_formula_units_Z 112
_cell_length_a 24.548743
_cell_length_b 24.548743
_cell_length_c 12.827362
_cell_angle_alpha 90.000000
_cell_angle_beta 90.000000
_cell_angle_gamma 90.000000
_cell_volume 7730.291478
_symmetry_space_group_name_H-M "P 42/N C M"
_symmetry_group_IT_number 138
_space_group.IT_coordinate_system_code '2'
_symmetry_cell_setting 'tetragonal'
loop_
_space_group_symop_operation_xyz
x,y,z
1/2-y,x,1/2+z
1/2-x,1/2-y,z
y,1/2-x,1/2+z
1/2+x,-y,1/2-z
-x,1/2+y,1/2-z
1/2+y,1/2+x,-z
-y,-x,-z
-x,-y,-z
1/2+y,-x,1/2-z
1/2+x,1/2+y,-z
-y,1/2+x,1/2-z
1/2-x,y,1/2+z
x,1/2-y,1/2+z
1/2-y,1/2-x,z
y,x,z
loop_
_atom_site_type_symbol
_atom_site_label
_atom_site_fract_x
_atom_site_fract_y
_atom_site_fract_z
Si Si1 0.966393 0.874896 0.357518
Si Si2 0.871673 0.537065 0.088968
Si Si3 0.094798 0.186364 0.812977
Si Si4 0.924511 0.016467 0.915055
Si Si5 0.694036 0.896445 0.245691
Si Si6 0.432105 0.341652 0.036458
Si Si7 0.051304 0.959533 0.309875
O O1 0.922306 0.922306 0.350214
O O2 0.964813 0.846963 0.472059
O O3 0.952742 0.830532 0.268640
O O4 0.026410 0.900990 0.341497
O O5 0.918066 0.581935 0.097468
O O6 0.825769 0.553086 0.173434
O O7 0.899663 0.478636 0.114055
O O8 0.144338 0.144338 0.808950
O O9 0.119512 0.244824 0.784108
O O10 0.068572 0.191337 0.928158
O O11 0.922938 0.046075 0.804339
O O12 0.938161 0.061840 0.000000
O O13 0.969031 0.969031 0.913824
O O14 0.865282 0.992173 0.941787
O O15 0.656269 0.843732 0.228095
O O16 0.695375 0.914182 0.366464
O O17 0.392115 0.392115 0.023892
O O18 0.003637 0.003637 0.312048
#
# Coordination Sequence:
#
# PCOD8318984 Si02
#       7
#    16  16  16  16  16  16  16
#     4   9  17  27  41  62  85 103 126 164 209 254
#     4   9  16  27  42  60  80 104 131 163 205 255
#     4  10  21  33  45  60  79 105 142 188 228 254
#     4   9  14  21  38  60  83 105 124 151 197 256
#     4  10  20  33  47  58  75 106 145 186 224 258
#     4   9  17  31  44  59  79 101 132 173 217 257
#     4   9  14  23  39  62  85 104 124 152 198 255
#
# _framework density 14.488458
#
# number of rings (size 3 to 8) (size 9 to 14) (size 15 to 20)
#    0.000    2.714    1.429    1.286    2.000    5.429 
#    0.000    0.000    0.000    2.571    0.000    0.000 
#    0.000    0.000    0.000    0.000    0.000    0.714 
#
# Total GULP energy -1388148.695145 kJ/mol
# GULP energy per Si atom -12394.184778 kJ/mol
# Density = 1.445548 g / cm^3
# Si number density = 14.488458 Si / 1000 Ang^3
#
#
#
# Elastic Constant Matrix: (Units=GPa)
#
#
# Indices 1 2 3 4 5 6 
#
# 1 34.6987 32.3135 30.3673 0.0000 0.0000 0.0000
# 2 32.3135 34.6985 30.3673 0.0000 0.0000 0.0000
# 3 30.3673 30.3673 130.0215 0.0000 0.0000 0.0000
# 4 0.0000 0.0000 0.0000 16.7222 0.0000 0.0000
# 5 0.0000 0.0000 0.0000 0.0000 16.7222 0.0000
# 6 0.0000 0.0000 0.0000 0.0000 0.0000 10.2811
#
#
#
# Elastic Compliance Matrix: (Units=1/GPa)
#
#
# Indices 1 2 3 4 5 6 
#
# 1 0.219105 -0.200176 -0.004421 0.000000 0.000000 0.000000
# 2 -0.200176 0.219106 -0.004421 0.000000 0.000000 0.000000
# 3 -0.004421 -0.004421 0.009756 0.000000 0.000000 0.000000
# 4 0.000000 0.000000 0.000000 0.059801 0.000000 0.000000
# 5 0.000000 0.000000 0.000000 0.000000 0.059801 0.000000
# 6 0.000000 0.000000 0.000000 0.000000 0.000000 0.097266
#
#
# Mechanical properties :
#
#
# Convention : Reuss Voigt Hill
#
# Bulk Modulus (GPa) = 33.41021 42.83498 38.12260
# Shear Modulus (GPa) = 4.57520 15.83646 10.20583
#
# Velocity S-wave (km/s) = 1.77895 3.30970 2.65695
# Velocity P-wave (km/s) = 5.22776 6.65091 5.98181
#
# Compressibility (1/GPa) = 0.02993097
#
# Stress axis : x y z
#
# Youngs Moduli (GPa) = 4.56403 4.56399 102.49888
#
# Poissons Ratio (x) = 0.91360 0.45315
# Poissons Ratio (y) = 0.91361 0.45318
# Poissons Ratio (z) = 0.02018 0.02018
#
# Static dielectric constant tensor:
#      x y z
#    x 2.535420 0.000000 0.000000 
#    y 0.000000 2.535420 0.000000 
#    z 0.000000 0.000000 3.164880 
# 
# 
# High freq. dielectric constant tensor:
#      x y z
#    x 1.508580 0.000000 0.000000 
#    y 0.000000 1.508580 0.000000 
#    z 0.000000 0.000000 1.580450 
# 
# From -- ./inp_files/3276.got.cif
#   From: 2010.03.12/outbox.cif.g09.slc.cpg/sg138_2_cif.got.tgz:3276.got - 2010.04.08 09:41:05.
