data_PCOD8318889
_publ_section_title
;
Structure prediction by ZEFSAII (Michael W. Deem and Ramdas Pophale) SiO2 
 PCOD8318889
Probable space group: P 42/N C M
;
_chemical_formula_sum "Si O2"
_cell_formula_units_Z 128
_cell_length_a 17.455587
_cell_length_b 17.455587
_cell_length_c 24.800488
_cell_angle_alpha 90.000000
_cell_angle_beta 90.000000
_cell_angle_gamma 90.000000
_cell_volume 7556.647127
_symmetry_space_group_name_H-M "P 42/N C M"
_symmetry_group_IT_number 138
_space_group.IT_coordinate_system_code '2'
_symmetry_cell_setting 'tetragonal'
loop_
_space_group_symop_operation_xyz
x,y,z
1/2-y,x,1/2+z
1/2-x,1/2-y,z
y,1/2-x,1/2+z
1/2+x,-y,1/2-z
-x,1/2+y,1/2-z
1/2+y,1/2+x,-z
-y,-x,-z
-x,-y,-z
1/2+y,-x,1/2-z
1/2+x,1/2+y,-z
-y,1/2+x,1/2-z
1/2-x,y,1/2+z
x,1/2-y,1/2+z
1/2-y,1/2-x,z
y,x,z
loop_
_atom_site_type_symbol
_atom_site_label
_atom_site_fract_x
_atom_site_fract_y
_atom_site_fract_z
Si Si1 0.025555 0.808895 0.989646
Si Si2 0.252051 0.372337 0.546104
Si Si3 0.946057 0.427015 0.418738
Si Si4 0.458319 0.161857 0.130794
Si Si5 0.415177 0.847774 0.952304
Si Si6 0.721202 0.413842 0.292768
Si Si7 0.887645 0.144584 0.816216
Si Si8 0.213328 0.672959 0.871862
O O1 0.044757 0.848389 0.046789
O O2 0.029564 0.870766 0.941075
O O3 0.083634 0.740042 0.974201
O O4 0.940958 0.771520 0.993879
O O5 0.179256 0.320745 0.556289
O O6 0.323093 0.323093 0.521094
O O7 0.274674 0.402808 0.605336
O O8 0.937288 0.412572 0.354092
O O9 0.020402 0.479599 0.428052
O O10 0.409399 0.090602 0.154723
O O11 0.510966 0.130238 0.082272
O O12 0.508961 0.202921 0.175369
O O13 0.338449 0.862712 0.918106
O O14 0.409398 0.909398 0.000000
O O15 0.681933 0.429786 0.235079
O O16 0.812472 0.399402 0.293910
O O17 0.684977 0.337675 0.318265
O O18 0.878457 0.215090 0.856861
O O19 0.250000 0.750000 0.894630
#
# Coordination Sequence:
#
# PCOD8318889 Si02
#       8
#    16  16  16  16  16  16  16  16
#     4  10  19  34  48  72 106 134 162 201 247 302
#     4   9  16  29  52  76  96 125 169 214 250 286
#     4  11  22  33  49  71 104 141 163 193 247 310
#     4   9  19  33  47  69  99 128 160 201 247 292
#     4  10  19  30  47  72  97 129 163 198 243 291
#     4  10  19  31  50  71  94 125 158 203 249 282
#     4  11  19  32  50  74  95 125 169 202 243 290
#     4   9  17  28  44  69  95 120 153 197 242 279
#
# _framework density 16.938728999999999
#
# number of rings (size 3 to 8) (size 9 to 14) (size 15 to 20)
#    0.000    2.125    1.250    5.250    0.000    2.000 
#    0.000    0.000    0.000    0.000    0.000    0.875 
#    0.000    2.000    0.000    0.000    0.000    0.000 
#
# Total GULP energy -1586026.297474 kJ/mol
# GULP energy per Si atom -12390.830449 kJ/mol
# Density = 1.690018 g / cm^3
# Si number density = 16.938729 Si / 1000 Ang^3
#
#
#
# Elastic Constant Matrix: (Units=GPa)
#
#
# Indices 1 2 3 4 5 6 
#
# 1 58.1739 23.4208 21.1465 0.0000 0.0000 0.0000
# 2 23.4208 58.1739 21.1465 0.0000 0.0000 0.0000
# 3 21.1465 21.1465 80.9682 0.0000 0.0000 0.0000
# 4 0.0000 0.0000 0.0000 25.0282 0.0000 0.0000
# 5 0.0000 0.0000 0.0000 0.0000 25.0282 0.0000
# 6 0.0000 0.0000 0.0000 0.0000 0.0000 25.2390
#
#
#
# Elastic Compliance Matrix: (Units=1/GPa)
#
#
# Indices 1 2 3 4 5 6 
#
# 1 0.021474 -0.007300 -0.003702 0.000000 0.000000 0.000000
# 2 -0.007300 0.021474 -0.003702 0.000000 0.000000 0.000000
# 3 -0.003702 -0.003702 0.014284 0.000000 0.000000 0.000000
# 4 0.000000 0.000000 0.000000 0.039955 0.000000 0.000000
# 5 0.000000 0.000000 0.000000 0.000000 0.039955 0.000000
# 6 0.000000 0.000000 0.000000 0.000000 0.000000 0.039621
#
#
# Mechanical properties :
#
#
# Convention : Reuss Voigt Hill
#
# Bulk Modulus (GPa) = 35.93835 36.52705 36.23270
# Shear Modulus (GPa) = 23.20757 23.83258 23.52007
#
# Velocity S-wave (km/s) = 3.70549 3.75505 3.73035
# Velocity P-wave (km/s) = 6.29049 6.35701 6.32384
#
# Compressibility (1/GPa) = 0.02782543
#
# Stress axis : x y z
#
# Youngs Moduli (GPa) = 46.56696 46.56696 70.00741
#
# Poissons Ratio (x) = 0.33994 0.25916
# Poissons Ratio (y) = 0.33994 0.25916
# Poissons Ratio (z) = 0.17239 0.17239
#
# Static dielectric constant tensor:
#      x y z
#    x 3.147170 0.000000 0.000000 
#    y 0.000000 3.147170 0.000000 
#    z 0.000000 0.000000 3.054400 
# 
# 
# High freq. dielectric constant tensor:
#      x y z
#    x 1.646060 0.000000 0.000000 
#    y 0.000000 1.646060 0.000000 
#    z 0.000000 0.000000 1.637620 
# 
# From -- ./inp_files/7200.got.cif
#   From: 2010.03.12/outbox.cif.g09.slc.cpg/sg138_4_cif.got.tgz:7200.got - 2010.04.08 09:41:05.
