data_PCOD8318457
_publ_section_title
;
Structure prediction by ZEFSAII (Michael W. Deem and Ramdas Pophale) SiO2 
 PCOD8318457
Probable space group: P 42/N M C
;
_chemical_formula_sum "Si O2"
_cell_formula_units_Z 64
_cell_length_a 13.363767
_cell_length_b 13.363767
_cell_length_c 21.598419
_cell_angle_alpha 90.000000
_cell_angle_beta 90.000000
_cell_angle_gamma 90.000000
_cell_volume 3857.267447
_symmetry_space_group_name_H-M "P 42/N M C"
_symmetry_group_IT_number 137
_space_group.IT_coordinate_system_code '2'
_symmetry_cell_setting 'tetragonal'
loop_
_space_group_symop_operation_xyz
x,y,z
1/2-y,x,1/2+z
1/2-x,1/2-y,z
y,1/2-x,1/2+z
1/2+x,-y,-z
-x,1/2+y,-z
1/2+y,1/2+x,1/2-z
-y,-x,1/2-z
-x,-y,-z
1/2+y,-x,1/2-z
1/2+x,1/2+y,-z
-y,1/2+x,1/2-z
1/2-x,y,z
x,1/2-y,z
1/2-y,1/2-x,1/2+z
y,x,1/2+z
loop_
_atom_site_type_symbol
_atom_site_label
_atom_site_fract_x
_atom_site_fract_y
_atom_site_fract_z
Si Si1 0.451374 0.364394 0.998886
Si Si2 0.131903 0.561827 0.316184
Si Si3 0.632348 0.858590 0.631425
Si Si4 0.954740 0.134956 0.560336
O O1 0.435448 0.250000 0.018338
O O2 0.408803 0.432407 0.054369
O O3 0.389018 0.395937 0.938201
O O4 0.568859 0.383323 0.984436
O O5 0.103792 0.603792 0.250000
O O6 0.250000 0.571048 0.327854
O O7 0.096142 0.445729 0.321709
O O8 0.077317 0.627739 0.368131
O O9 0.750000 0.848652 0.636768
O O10 0.583285 0.750000 0.647432
O O11 0.948551 0.250000 0.539144
#
# Coordination Sequence:
#
# PCOD8318457 Si02
#       4
#    16  16  16  16
#     4   9  18  31  47  70  98 124 152 190 238 286
#     4  10  20  32  46  66  92 122 156 192 231 276
#     4   8  14  27  47  66  85 114 149 183 224 275
#     4  10  19  30  47  71  96 124 159 194 230 279
#
# _framework density 16.592055999999999
#
# number of rings (size 3 to 8) (size 9 to 14) (size 15 to 20)
#    0.000    2.750    0.000    3.750    0.000    4.750 
#    0.000    1.250    0.000    3.000    0.000    0.000 
#    0.000    2.500    0.000    0.000    0.000    0.000 
#
# Total GULP energy -793191.268240 kJ/mol
# GULP energy per Si atom -12393.613566 kJ/mol
# Density = 1.655429 g / cm^3
# Si number density = 16.592056 Si / 1000 Ang^3
#
#
#
# Elastic Constant Matrix: (Units=GPa)
#
#
# Indices 1 2 3 4 5 6 
#
# 1 98.9703 22.8381 33.2877 0.0000 0.0000 0.0000
# 2 22.8381 98.9703 33.2877 0.0000 0.0000 0.0000
# 3 33.2877 33.2877 66.2565 0.0000 0.0000 0.0000
# 4 0.0000 0.0000 0.0000 18.1541 0.0000 0.0000
# 5 0.0000 0.0000 0.0000 0.0000 18.1541 0.0000
# 6 0.0000 0.0000 0.0000 0.0000 0.0000 16.2740
#
#
#
# Elastic Compliance Matrix: (Units=1/GPa)
#
#
# Indices 1 2 3 4 5 6 
#
# 1 0.012226 -0.000909 -0.005686 0.000000 0.000000 0.000000
# 2 -0.000909 0.012226 -0.005686 0.000000 0.000000 0.000000
# 3 -0.005686 -0.005686 0.020806 0.000000 0.000000 0.000000
# 4 0.000000 0.000000 0.000000 0.055084 0.000000 0.000000
# 5 0.000000 0.000000 0.000000 0.000000 0.055084 0.000000
# 6 0.000000 0.000000 0.000000 0.000000 0.000000 0.061448
#
#
# Mechanical properties :
#
#
# Convention : Reuss Voigt Hill
#
# Bulk Modulus (GPa) = 48.31580 49.22489 48.77035
# Shear Modulus (GPa) = 20.13413 22.16868 21.15141
#
# Velocity S-wave (km/s) = 3.48728 3.65924 3.57430
# Velocity P-wave (km/s) = 6.73780 6.89823 6.81848
#
# Compressibility (1/GPa) = 0.02069716
#
# Stress axis : x y z
#
# Youngs Moduli (GPa) = 81.79185 81.79185 48.06286
#
# Poissons Ratio (x) = 0.07434 0.27328
# Poissons Ratio (y) = 0.07434 0.27328
# Poissons Ratio (z) = 0.46506 0.46506
#
# Static dielectric constant tensor:
#      x y z
#    x 3.273190 0.000000 0.000000 
#    y 0.000000 3.273190 0.000000 
#    z 0.000000 0.000000 2.850730 
# 
# 
# High freq. dielectric constant tensor:
#      x y z
#    x 1.638130 0.000000 0.000000 
#    y 0.000000 1.638130 0.000000 
#    z 0.000000 0.000000 1.606300 
# 
# From -- ./inp_files/6057.got.cif
#   From: 2010.03.12/outbox.cif.g09.slc.cpg/sg137_4_cif.got.tgz:6057.got - 2010.04.08 09:34:49.
