data_PCOD8318675
_publ_section_title
;
Structure prediction by ZEFSAII (Michael W. Deem and Ramdas Pophale) SiO2 
 PCOD8318675
Probable space group: P 42/N M C
;
_chemical_formula_sum "Si O2"
_cell_formula_units_Z 96
_cell_length_a 14.369677
_cell_length_b 14.369677
_cell_length_c 22.728941
_cell_angle_alpha 90.000000
_cell_angle_beta 90.000000
_cell_angle_gamma 90.000000
_cell_volume 4693.244866
_symmetry_space_group_name_H-M "P 42/N M C"
_symmetry_group_IT_number 137
_space_group.IT_coordinate_system_code '2'
_symmetry_cell_setting 'tetragonal'
loop_
_space_group_symop_operation_xyz
x,y,z
1/2-y,x,1/2+z
1/2-x,1/2-y,z
y,1/2-x,1/2+z
1/2+x,-y,-z
-x,1/2+y,-z
1/2+y,1/2+x,1/2-z
-y,-x,1/2-z
-x,-y,-z
1/2+y,-x,1/2-z
1/2+x,1/2+y,-z
-y,1/2+x,1/2-z
1/2-x,y,z
x,1/2-y,z
1/2-y,1/2-x,1/2+z
y,x,1/2+z
loop_
_atom_site_type_symbol
_atom_site_label
_atom_site_fract_x
_atom_site_fract_y
_atom_site_fract_z
Si Si1 0.146499 0.103212 0.490581
Si Si2 0.982099 0.351837 0.411615
Si Si3 0.397365 0.646610 0.012292
Si Si4 0.501636 0.638185 0.275952
Si Si5 0.852238 0.981853 0.908678
Si Si6 0.138129 0.501413 0.779461
O O1 0.250000 0.148913 0.496308
O O2 0.080841 0.158255 0.445553
O O3 0.095402 0.092730 0.553891
O O4 0.157508 0.001148 0.463671
O O5 0.940078 0.250000 0.403484
O O6 0.996668 0.394865 0.347411
O O7 0.904258 0.405768 0.448945
O O8 0.351275 0.750000 0.007467
O O9 0.343931 0.581537 0.058364
O O10 0.407248 0.592752 0.250000
O O11 0.499758 0.750000 0.266820
O O12 0.504418 0.606359 0.344055
O O13 0.593731 0.593346 0.246646
O O14 0.750000 0.939901 0.902477
O O15 0.250000 0.499934 0.770827
O O16 0.093611 0.593611 0.750000
#
# Coordination Sequence:
#
# PCOD8318675 Si02
#       6
#    16  16  16  16  16  16
#     4  10  21  34  57  89 118 150 187 235 294 357
#     4  10  21  38  57  82 117 153 193 240 293 356
#     4  10  21  34  57  89 118 150 187 235 294 357
#     4  10  24  42  64  90 121 164 210 259 307 359
#     4  10  21  38  57  82 117 153 193 240 293 356
#     4  10  24  42  64  90 121 164 210 259 307 359
#
# _framework density 20.454931999999999
#
# number of rings (size 3 to 8) (size 9 to 14) (size 15 to 20)
#    0.000    2.000    0.000    4.000    9.333    6.000 
#    0.000    6.667    0.000    0.000    0.000    0.000 
#    0.000    0.000    0.000    0.000    0.000    0.000 
#
# Total GULP energy -1189388.920658 kJ/mol
# GULP energy per Si atom -12389.467924 kJ/mol
# Density = 2.040838 g / cm^3
# Si number density = 20.454932 Si / 1000 Ang^3
#
#
#
# Elastic Constant Matrix: (Units=GPa)
#
#
# Indices 1 2 3 4 5 6 
#
# 1 131.1484 19.2026 36.4165 0.0000 0.0000 0.0000
# 2 19.2026 131.1478 36.4168 0.0000 0.0000 0.0000
# 3 36.4165 36.4168 154.4255 0.0000 0.0000 0.0000
# 4 0.0000 0.0000 0.0000 24.7903 0.0000 0.0000
# 5 0.0000 0.0000 0.0000 0.0000 24.7898 0.0000
# 6 0.0000 0.0000 0.0000 0.0000 0.000026000.8572
#
#
#
# Elastic Compliance Matrix: (Units=1/GPa)
#
#
# Indices 1 2 3 4 5 6 
#
# 1 0.008221 -0.000712 -0.001771 0.000000 0.000000 0.000000
# 2 -0.000712 0.008221 -0.001771 0.000000 0.000000 0.000000
# 3 -0.001771 -0.001771 0.007311 0.000000 0.000000 0.000000
# 4 0.000000 0.000000 0.000000 0.040338 0.000000 0.000000
# 5 0.000000 0.000000 0.000000 0.000000 0.040339 0.000000
# 6 0.000000 0.000000 0.000000 0.000000 0.000000 0.000038
#
#
# Mechanical properties :
#
#
# Convention : Reuss Voigt Hill
#
# Bulk Modulus (GPa) = 65.59279 66.75485 66.17382
# Shear Modulus (GPa) = 42.35226 5231.73317 2637.04272
#
# Velocity S-wave (km/s) = 4.55523 50.62845 35.94434
# Velocity P-wave (km/s) = 7.73327 58.73976 41.89369
#
# Compressibility (1/GPa) = 0.01524558
#
# Stress axis : x y z
#
# Youngs Moduli (GPa) = 121.64134 121.64063 136.78441
#
# Poissons Ratio (x) = 0.08661 0.24221
# Poissons Ratio (y) = 0.08661 0.24221
# Poissons Ratio (z) = 0.21540 0.21540
#
# Static dielectric constant tensor:
#      x y z
#    x 3.708480 0.000000 0.000000 
#    y 0.000000 3.708480 0.000000 
#    z 0.000000 0.000000 3.835480 
# 
# 
# High freq. dielectric constant tensor:
#      x y z
#    x 1.801640 0.000000 0.000000 
#    y 0.000000 1.801640 0.000000 
#    z 0.000000 0.000000 1.796370 
# 
# From -- ./inp_files/7806.got.cif
#   From: 2010.03.12/outbox.cif.g09.slc.cpg/sg137_4_cif.got.tgz:7806.got - 2010.04.08 09:34:49.
