data_PCOD8318907
_publ_section_title
;
Structure prediction by ZEFSAII (Michael W. Deem and Ramdas Pophale) SiO2 
 PCOD8318907
Probable space group: P 42/N C M
;
_chemical_formula_sum "Si O2"
_cell_formula_units_Z 96
_cell_length_a 16.065934
_cell_length_b 16.065934
_cell_length_c 18.581980
_cell_angle_alpha 90.000000
_cell_angle_beta 90.000000
_cell_angle_gamma 90.000000
_cell_volume 4796.273558
_symmetry_space_group_name_H-M "P 42/N C M"
_symmetry_group_IT_number 138
_space_group.IT_coordinate_system_code '2'
_symmetry_cell_setting 'tetragonal'
loop_
_space_group_symop_operation_xyz
x,y,z
1/2-y,x,1/2+z
1/2-x,1/2-y,z
y,1/2-x,1/2+z
1/2+x,-y,1/2-z
-x,1/2+y,1/2-z
1/2+y,1/2+x,-z
-y,-x,-z
-x,-y,-z
1/2+y,-x,1/2-z
1/2+x,1/2+y,-z
-y,1/2+x,1/2-z
1/2-x,y,1/2+z
x,1/2-y,1/2+z
1/2-y,1/2-x,z
y,x,z
loop_
_atom_site_type_symbol
_atom_site_label
_atom_site_fract_x
_atom_site_fract_y
_atom_site_fract_z
Si Si1 0.330216 0.873589 0.419935
Si Si2 0.350200 0.793123 0.205375
Si Si3 0.514840 0.852170 0.375689
Si Si4 0.379618 0.245640 0.036908
Si Si5 0.468538 0.163012 0.787024
Si Si6 0.562471 0.695801 0.107038
O O1 0.332338 0.832338 0.500000
O O2 0.255641 0.835310 0.370740
O O3 0.416405 0.862995 0.377511
O O4 0.319910 0.972303 0.427090
O O5 0.354213 0.726263 0.272759
O O6 0.432958 0.848695 0.197932
O O7 0.563938 0.936063 0.402655
O O8 0.534995 0.770937 0.424229
O O9 0.546633 0.829598 0.296991
O O10 0.347771 0.152230 0.055970
O O11 0.311221 0.311221 0.064644
O O12 0.387372 0.250641 0.951043
O O13 0.416105 0.083896 0.817842
O O14 0.439428 0.250290 0.820515
O O15 0.608302 0.608302 0.123565
#
# Coordination Sequence:
#
# PCOD8318907 Si02
#       6
#    16  16  16  16  16  16
#     4  11  20  34  59  90 116 152 205 256 313 370
#     4  10  21  40  62  86 122 158 197 253 308 360
#     4  10  19  32  51  79 115 152 199 252 299 360
#     4   9  17  29  46  71 109 156 195 237 293 346
#     4  10  21  36  56  82 115 158 201 245 303 369
#     4  10  20  32  52  83 120 157 200 255 306 365
#
# _framework density 20.015539
#
# number of rings (size 3 to 8) (size 9 to 14) (size 15 to 20)
#    0.000    2.000    3.333    1.000    0.000    2.333 
#    0.000    3.333    0.000    0.000    0.000    0.000 
#    0.000   14.667    0.000    0.000    0.000    0.000 
#
# Total GULP energy -1189379.236231 kJ/mol
# GULP energy per Si atom -12389.367044 kJ/mol
# Density = 1.996998 g / cm^3
# Si number density = 20.015539 Si / 1000 Ang^3
#
#
#
# Elastic Constant Matrix: (Units=GPa)
#
#
# Indices 1 2 3 4 5 6 
#
# 1 74.9659 35.3259 24.2858 0.0000 0.0000 0.0000
# 2 35.3259 74.9659 24.2858 0.0000 0.0000 0.0000
# 3 24.2858 24.2858 92.9609 0.0000 0.0000 0.0000
# 4 0.0000 0.0000 0.0000 26.6606 0.0000 0.0000
# 5 0.0000 0.0000 0.0000 0.0000 26.6606 0.0000
# 6 0.0000 0.0000 0.0000 0.0000 0.0000 34.3416
#
#
#
# Elastic Compliance Matrix: (Units=1/GPa)
#
#
# Indices 1 2 3 4 5 6 
#
# 1 0.017736 -0.007491 -0.002677 0.000000 0.000000 0.000000
# 2 -0.007491 0.017736 -0.002677 0.000000 0.000000 0.000000
# 3 -0.002677 -0.002677 0.012156 0.000000 0.000000 0.000000
# 4 0.000000 0.000000 0.000000 0.037508 0.000000 0.000000
# 5 0.000000 0.000000 0.000000 0.000000 0.037508 0.000000
# 6 0.000000 0.000000 0.000000 0.000000 0.000000 0.029119
#
#
# Mechanical properties :
#
#
# Convention : Reuss Voigt Hill
#
# Bulk Modulus (GPa) = 45.57796 45.63196 45.60496
# Shear Modulus (GPa) = 27.06127 28.13227 27.59677
#
# Velocity S-wave (km/s) = 3.68096 3.75310 3.71720
# Velocity P-wave (km/s) = 6.39427 6.45203 6.42322
#
# Compressibility (1/GPa) = 0.02194043
#
# Stress axis : x y z
#
# Youngs Moduli (GPa) = 56.38149 56.38149 82.26560
#
# Poissons Ratio (x) = 0.42234 0.22020
# Poissons Ratio (y) = 0.42234 0.22020
# Poissons Ratio (z) = 0.15091 0.15091
#
# Static dielectric constant tensor:
#      x y z
#    x 3.628030 0.000000 0.000000 
#    y 0.000000 3.628030 0.000000 
#    z 0.000000 0.000000 3.604140 
# 
# 
# High freq. dielectric constant tensor:
#      x y z
#    x 1.767450 0.000000 0.000000 
#    y 0.000000 1.767450 0.000000 
#    z 0.000000 0.000000 1.779790 
# 
# From -- ./inp_files/5220.got.cif
#   From: 2010.03.12/outbox.cif.g09.slc.cpg/sg138_3_cif.got.tgz:5220.got - 2010.04.08 09:41:05.
