data_PCOD8318791
_publ_section_title
;
Structure prediction by ZEFSAII (Michael W. Deem and Ramdas Pophale) SiO2 
 PCOD8318791
Probable space group: P 42/N M C
;
_chemical_formula_sum "Si O2"
_cell_formula_units_Z 96
_cell_length_a 23.719232
_cell_length_b 23.719232
_cell_length_c 9.838094
_cell_angle_alpha 90.000000
_cell_angle_beta 90.000000
_cell_angle_gamma 90.000000
_cell_volume 5534.931033
_symmetry_space_group_name_H-M "P 42/N M C"
_symmetry_group_IT_number 137
_space_group.IT_coordinate_system_code '2'
_symmetry_cell_setting 'tetragonal'
loop_
_space_group_symop_operation_xyz
x,y,z
1/2-y,x,1/2+z
1/2-x,1/2-y,z
y,1/2-x,1/2+z
1/2+x,-y,-z
-x,1/2+y,-z
1/2+y,1/2+x,1/2-z
-y,-x,1/2-z
-x,-y,-z
1/2+y,-x,1/2-z
1/2+x,1/2+y,-z
-y,1/2+x,1/2-z
1/2-x,y,z
x,1/2-y,z
1/2-y,1/2-x,1/2+z
y,x,1/2+z
loop_
_atom_site_type_symbol
_atom_site_label
_atom_site_fract_x
_atom_site_fract_y
_atom_site_fract_z
Si Si1 0.464817 0.687996 0.929699
Si Si2 0.491737 0.081772 0.204413
Si Si3 0.184164 0.903574 0.303677
Si Si4 0.189761 0.081612 0.415191
Si Si5 0.186333 0.016349 0.152736
Si Si6 0.902821 0.929399 0.023586
O O1 0.452324 0.750000 0.863263
O O2 0.472634 0.639698 0.816039
O O3 0.414837 0.672109 0.035975
O O4 0.521298 0.693275 0.015244
O O5 0.445064 0.085983 0.320890
O O6 0.534232 0.034232 0.250000
O O7 0.459517 0.063699 0.066257
O O8 0.149821 0.850180 0.250000
O O9 0.250000 0.891141 0.280994
O O10 0.164793 0.958228 0.218444
O O11 0.250000 0.113565 0.439703
O O12 0.181700 0.068948 0.255793
O O13 0.136781 0.116340 0.474830
O O14 0.250000 0.009492 0.099477
O O15 0.146962 0.030564 0.025811
#
# Coordination Sequence:
#
# PCOD8318791 Si02
#       6
#    16  16  16  16  16  16
#     4   8  17  34  52  70  97 138 179 210 252 311
#     4  11  23  33  48  77 110 138 171 215 269 319
#     4   9  18  32  54  79 105 140 179 223 273 317
#     4   8  15  32  52  70  97 133 169 205 251 307
#     4   9  18  32  50  75 104 135 172 213 258 315
#     4  11  20  34  51  77 103 138 175 213 266 323
#
# _framework density 17.344389
#
# number of rings (size 3 to 8) (size 9 to 14) (size 15 to 20)
#    0.000    2.667    1.667    2.500    2.333    1.500 
#    0.000    0.000    0.000    0.500    0.000    2.333 
#    0.000    0.000    0.000    0.000    0.000    0.000 
#
# Total GULP energy -1189600.728935 kJ/mol
# GULP energy per Si atom -12391.674260 kJ/mol
# Density = 1.730491 g / cm^3
# Si number density = 17.344389 Si / 1000 Ang^3
#
#
#
# Elastic Constant Matrix: (Units=GPa)
#
#
# Indices 1 2 3 4 5 6 
#
# 1 82.3849 50.1695 34.1456 0.0000 0.0000 0.0000
# 2 50.1695 82.3896 34.1456 0.0000 0.0000 0.0000
# 3 34.1456 34.1456 66.5275 0.0000 0.0000 0.0000
# 4 0.0000 0.0000 0.0000 23.6148 0.0000 0.0000
# 5 0.0000 0.0000 0.0000 0.0000 23.6142 0.0000
# 6 0.0000 0.0000 0.0000 0.0000 0.0000 21.6331
#
#
#
# Elastic Compliance Matrix: (Units=1/GPa)
#
#
# Indices 1 2 3 4 5 6 
#
# 1 0.020648 -0.010392 -0.005264 0.000000 0.000000 0.000000
# 2 -0.010392 0.020647 -0.005263 0.000000 0.000000 0.000000
# 3 -0.005264 -0.005263 0.020435 0.000000 0.000000 0.000000
# 4 0.000000 0.000000 0.000000 0.042346 0.000000 0.000000
# 5 0.000000 0.000000 0.000000 0.000000 0.042347 0.000000
# 6 0.000000 0.000000 0.000000 0.000000 0.000000 0.046225
#
#
# Mechanical properties :
#
#
# Convention : Reuss Voigt Hill
#
# Bulk Modulus (GPa) = 50.27402 52.02481 51.14942
# Shear Modulus (GPa) = 20.73681 21.29518 21.01599
#
# Velocity S-wave (km/s) = 3.46148 3.50778 3.48471
# Velocity P-wave (km/s) = 6.71003 6.81662 6.76353
#
# Compressibility (1/GPa) = 0.01989099
#
# Stress axis : x y z
#
# Youngs Moduli (GPa) = 48.43075 48.43425 48.93629
#
# Poissons Ratio (x) = 0.50331 0.25761
# Poissons Ratio (y) = 0.50327 0.25757
# Poissons Ratio (z) = 0.25495 0.25493
#
# Static dielectric constant tensor:
#      x y z
#    x 3.285490 0.000000 0.000000 
#    y 0.000000 3.285490 0.000000 
#    z 0.000000 0.000000 3.162020 
# 
# 
# High freq. dielectric constant tensor:
#      x y z
#    x 1.654330 0.000000 0.000000 
#    y 0.000000 1.654330 0.000000 
#    z 0.000000 0.000000 1.657520 
# 
# From -- ./inp_files/2138.got.cif
#   From: 2010.03.12/outbox.cif.g09.slc.cpg/sg137_2_cif.got.tgz:2138.got - 2010.04.08 09:34:49.
