data_PCOD8318712
_publ_section_title
;
Structure prediction by ZEFSAII (Michael W. Deem and Ramdas Pophale) SiO2 
 PCOD8318712
Probable space group: P 42/N M C
;
_chemical_formula_sum "Si O2"
_cell_formula_units_Z 112
_cell_length_a 14.210111
_cell_length_b 14.210111
_cell_length_c 27.270866
_cell_angle_alpha 90.000000
_cell_angle_beta 90.000000
_cell_angle_gamma 90.000000
_cell_volume 5506.731103
_symmetry_space_group_name_H-M "P 42/N M C"
_symmetry_group_IT_number 137
_space_group.IT_coordinate_system_code '2'
_symmetry_cell_setting 'tetragonal'
loop_
_space_group_symop_operation_xyz
x,y,z
1/2-y,x,1/2+z
1/2-x,1/2-y,z
y,1/2-x,1/2+z
1/2+x,-y,-z
-x,1/2+y,-z
1/2+y,1/2+x,1/2-z
-y,-x,1/2-z
-x,-y,-z
1/2+y,-x,1/2-z
1/2+x,1/2+y,-z
-y,1/2+x,1/2-z
1/2-x,y,z
x,1/2-y,z
1/2-y,1/2-x,1/2+z
y,x,1/2+z
loop_
_atom_site_type_symbol
_atom_site_label
_atom_site_fract_x
_atom_site_fract_y
_atom_site_fract_z
Si Si1 0.860430 0.014050 0.786214
Si Si2 0.853843 0.145638 0.410706
Si Si3 0.358142 0.519508 0.099701
Si Si4 0.854136 0.541658 0.139305
Si Si5 0.643066 0.952364 0.456192
Si Si6 0.515490 0.639992 0.063290
Si Si7 0.140761 0.488053 0.750524
O O1 0.910269 0.089731 0.750000
O O2 0.750000 0.006300 0.772370
O O3 0.872733 0.043024 0.842904
O O4 0.912383 0.912945 0.783362
O O5 0.750000 0.136548 0.386524
O O6 0.866395 0.250000 0.434501
O O7 0.930160 0.128850 0.368284
O O8 0.867501 0.065574 0.451496
O O9 0.250000 0.523932 0.084915
O O10 0.397731 0.417247 0.084286
O O11 0.411911 0.596296 0.067236
O O12 0.750000 0.571038 0.122313
O O13 0.924874 0.604573 0.108957
O O14 0.868434 0.559829 0.196308
O O15 0.750000 0.919405 0.447705
O O16 0.610572 0.933220 0.512335
O O17 0.503069 0.750000 0.065939
O O18 0.250000 0.499854 0.734655
O O19 0.089843 0.589843 0.750000
#
# Coordination Sequence:
#
# PCOD8318712 Si02
#       7
#    16  16  16  16  16  16  16
#     4  10  23  42  63  89 118 153 200 251 306 361
#     4   9  18  33  56  85 116 150 186 229 286 351
#     4  11  24  41  61  88 121 157 199 246 298 351
#     4  10  21  37  58  86 117 152 195 240 293 354
#     4  10  22  39  61  89 120 156 197 238 289 351
#     4  11  23  40  60  86 120 157 200 245 292 344
#     4  10  22  38  58  87 120 154 195 243 296 358
#
# _framework density 20.338746
#
# number of rings (size 3 to 8) (size 9 to 14) (size 15 to 20)
#    0.000    1.857    1.429    2.143    0.000    6.000 
#    0.000    8.571    0.000    0.000    0.000    0.000 
#    0.000    0.000    0.000    0.000    0.000    0.000 
#
# Total GULP energy -1388322.126771 kJ/mol
# GULP energy per Si atom -12395.733275 kJ/mol
# Density = 2.029245 g / cm^3
# Si number density = 20.338746 Si / 1000 Ang^3
#
#
#
# Elastic Constant Matrix: (Units=GPa)
#
#
# Indices 1 2 3 4 5 6 
#
# 1 108.7776 48.5582 28.8517 0.0000 0.0000 0.0000
# 2 48.5582 108.7776 28.8518 0.0000 0.0000 0.0000
# 3 28.8517 28.8518 64.7051 0.0000 0.0000 0.0000
# 4 0.0000 0.0000 0.0000 23.0894 0.0000 0.0000
# 5 0.0000 0.0000 0.0000 0.0000 23.0895 0.0000
# 6 0.0000 0.0000 0.0000 0.0000 0.0000 13.9235
#
#
#
# Elastic Compliance Matrix: (Units=1/GPa)
#
#
# Indices 1 2 3 4 5 6 
#
# 1 0.012102 -0.004504 -0.003388 0.000000 0.000000 0.000000
# 2 -0.004504 0.012102 -0.003388 0.000000 0.000000 0.000000
# 3 -0.003388 -0.003388 0.018476 0.000000 0.000000 0.000000
# 4 0.000000 0.000000 0.000000 0.043310 0.000000 0.000000
# 5 0.000000 0.000000 0.000000 0.000000 0.043310 0.000000
# 6 0.000000 0.000000 0.000000 0.000000 0.000000 0.071821
#
#
# Mechanical properties :
#
#
# Convention : Reuss Voigt Hill
#
# Bulk Modulus (GPa) = 49.70019 54.97598 52.33809
# Shear Modulus (GPa) = 21.70250 23.75372 22.72811
#
# Velocity S-wave (km/s) = 3.27012 3.42117 3.34650
# Velocity P-wave (km/s) = 6.22475 6.53412 6.38131
#
# Compressibility (1/GPa) = 0.02012065
#
# Stress axis : x y z
#
# Youngs Moduli (GPa) = 82.62965 82.62963 54.12357
#
# Poissons Ratio (x) = 0.37214 0.18338
# Poissons Ratio (y) = 0.37214 0.18338
# Poissons Ratio (z) = 0.27996 0.27996
#
# Static dielectric constant tensor:
#      x y z
#    x 3.785840 0.000000 0.000000 
#    y 0.000000 3.785840 0.000000 
#    z 0.000000 0.000000 3.688070 
# 
# 
# High freq. dielectric constant tensor:
#      x y z
#    x 1.796470 0.000000 0.000000 
#    y 0.000000 1.796470 0.000000 
#    z 0.000000 0.000000 1.790180 
# 
# From -- ./inp_files/9798.got.cif
#   From: 2010.03.12/outbox.cif.g09.slc.cpg/sg137_5_cif.got.tgz:9798.got - 2010.04.08 09:34:49.
