data_PCOD8318845
_publ_section_title
;
Structure prediction by ZEFSAII (Michael W. Deem and Ramdas Pophale) SiO2 
 PCOD8318845
Probable space group: P 42/N C M
;
_chemical_formula_sum "Si O2"
_cell_formula_units_Z 72
_cell_length_a 14.168581
_cell_length_b 14.168581
_cell_length_c 18.995847
_cell_angle_alpha 90.000000
_cell_angle_beta 90.000000
_cell_angle_gamma 90.000000
_cell_volume 3813.391354
_symmetry_space_group_name_H-M "P 42/N C M"
_symmetry_group_IT_number 138
_space_group.IT_coordinate_system_code '2'
_symmetry_cell_setting 'tetragonal'
loop_
_space_group_symop_operation_xyz
x,y,z
1/2-y,x,1/2+z
1/2-x,1/2-y,z
y,1/2-x,1/2+z
1/2+x,-y,1/2-z
-x,1/2+y,1/2-z
1/2+y,1/2+x,-z
-y,-x,-z
-x,-y,-z
1/2+y,-x,1/2-z
1/2+x,1/2+y,-z
-y,1/2+x,1/2-z
1/2-x,y,1/2+z
x,1/2-y,1/2+z
1/2-y,1/2-x,z
y,x,z
loop_
_atom_site_type_symbol
_atom_site_label
_atom_site_fract_x
_atom_site_fract_y
_atom_site_fract_z
Si Si1 0.347024 0.501383 0.476438
Si Si2 0.932598 0.211793 0.326910
Si Si3 0.750000 0.250000 0.892510
Si Si4 0.580813 0.431277 0.803215
Si Si5 0.565785 0.166862 0.552584
O O1 0.407853 0.592148 0.500000
O O2 0.405463 0.405463 0.491087
O O3 0.320260 0.505568 0.394110
O O4 0.250802 0.500088 0.522440
O O5 0.822548 0.192879 0.343137
O O6 0.958961 0.149279 0.260445
O O7 0.945997 0.321907 0.309886
O O8 0.696272 0.324566 0.940091
O O9 0.482238 0.482238 0.790417
O O10 0.632452 0.473253 0.872515
O O11 0.576259 0.076259 0.500000
#
# Coordination Sequence:
#
# PCOD8318845 Si02
#       5
#    16  16   8  16  16
#     4  11  21  34  57  89 123 156 190 242 310 368
#     4  11  21  37  56  87 120 150 191 251 297 361
#     4  10  17  31  58  84 114 144 178 240 312 356
#     4  11  24  38  60  88 116 156 199 243 300 359
#     4  11  18  35  56  83 117 148 195 249 299 350
#
# _framework density 18.88083
#
# number of rings (size 3 to 8) (size 9 to 14) (size 15 to 20)
#    0.000    1.111    6.667    3.667    0.000    1.333 
#    0.000    0.000    0.000    6.000    0.000    0.000 
#    0.000    0.000    0.000    0.000    0.000    0.000 
#
# Total GULP energy -892480.577293 kJ/mol
# GULP energy per Si atom -12395.563574 kJ/mol
# Density = 1.883786 g / cm^3
# Si number density = 18.880830 Si / 1000 Ang^3
#
#
#
# Elastic Constant Matrix: (Units=GPa)
#
#
# Indices 1 2 3 4 5 6 
#
# 1 64.0893 50.9275 40.2858 0.0000 0.0000 0.0000
# 2 50.9275 64.0892 40.2864 0.0000 0.0000 0.0000
# 3 40.2858 40.2864 142.4902 0.0000 0.0000 0.0000
# 4 0.0000 0.0000 0.0000 13.4856 0.0000 0.0000
# 5 0.0000 0.0000 0.0000 0.0000 13.4854 0.0000
# 6 0.0000 0.0000 0.0000 0.0000 0.0000 36.2770
#
#
#
# Elastic Compliance Matrix: (Units=1/GPa)
#
#
# Indices 1 2 3 4 5 6 
#
# 1 0.043410 -0.032568 -0.003065 0.000000 0.000000 0.000000
# 2 -0.032568 0.043410 -0.003065 0.000000 0.000000 0.000000
# 3 -0.003065 -0.003065 0.008751 0.000000 0.000000 0.000000
# 4 0.000000 0.000000 0.000000 0.074153 0.000000 0.000000
# 5 0.000000 0.000000 0.000000 0.000000 0.074154 0.000000
# 6 0.000000 0.000000 0.000000 0.000000 0.000000 0.027566
#
#
# Mechanical properties :
#
#
# Convention : Reuss Voigt Hill
#
# Bulk Modulus (GPa) = 55.02477 59.29643 57.16060
# Shear Modulus (GPa) = 14.08851 21.92754 18.00802
#
# Velocity S-wave (km/s) = 2.73459 3.41158 3.09167
# Velocity P-wave (km/s) = 6.25916 6.85509 6.56389
#
# Compressibility (1/GPa) = 0.01817363
#
# Stress axis : x y z
#
# Youngs Moduli (GPa) = 23.03634 23.03614 114.26879
#
# Poissons Ratio (x) = 0.75025 0.35024
# Poissons Ratio (y) = 0.75025 0.35029
# Poissons Ratio (z) = 0.07061 0.07062
#
# Static dielectric constant tensor:
#      x y z
#    x 3.280170 0.000000 0.000000 
#    y 0.000000 3.280170 0.000000 
#    z 0.000000 0.000000 3.783520 
# 
# 
# High freq. dielectric constant tensor:
#      x y z
#    x 1.707720 0.000000 0.000000 
#    y 0.000000 1.707720 0.000000 
#    z 0.000000 0.000000 1.759000 
# 
# From -- ./inp_files/5005.got.cif
#   From: 2010.03.12/outbox.cif.g09.slc.cpg/sg138_3_cif.got.tgz:5005.got - 2010.04.08 09:41:05.
