data_PCOD8318756
_publ_section_title
;
Structure prediction by ZEFSAII (Michael W. Deem and Ramdas Pophale) SiO2 
 PCOD8318756
Probable space group: P 42/N M C
;
_chemical_formula_sum "Si O2"
_cell_formula_units_Z 96
_cell_length_a 22.938736
_cell_length_b 22.938736
_cell_length_c 9.752024
_cell_angle_alpha 90.000000
_cell_angle_beta 90.000000
_cell_angle_gamma 90.000000
_cell_volume 5131.374690
_symmetry_space_group_name_H-M "P 42/N M C"
_symmetry_group_IT_number 137
_space_group.IT_coordinate_system_code '2'
_symmetry_cell_setting 'tetragonal'
loop_
_space_group_symop_operation_xyz
x,y,z
1/2-y,x,1/2+z
1/2-x,1/2-y,z
y,1/2-x,1/2+z
1/2+x,-y,-z
-x,1/2+y,-z
1/2+y,1/2+x,1/2-z
-y,-x,1/2-z
-x,-y,-z
1/2+y,-x,1/2-z
1/2+x,1/2+y,-z
-y,1/2+x,1/2-z
1/2-x,y,z
x,1/2-y,z
1/2-y,1/2-x,1/2+z
y,x,1/2+z
loop_
_atom_site_type_symbol
_atom_site_label
_atom_site_fract_x
_atom_site_fract_y
_atom_site_fract_z
Si Si1 0.591837 0.638315 0.885217
Si Si2 0.488141 0.039031 0.628326
Si Si3 0.181600 0.093940 0.909787
Si Si4 0.461468 0.818440 0.612579
Si Si5 0.183099 0.530540 0.576489
Si Si6 0.101486 0.890635 0.398355
O O1 0.568685 0.573740 0.861609
O O2 0.614020 0.666767 0.744317
O O3 0.539052 0.677216 0.945216
O O4 0.646134 0.636385 0.989051
O O5 0.537298 0.087811 0.640119
O O6 0.492545 0.992545 0.750000
O O7 0.500000 0.000000 0.500000
O O8 0.250000 0.101739 0.938534
O O9 0.161250 0.026560 0.932063
O O10 0.458923 0.750000 0.606208
O O11 0.451191 0.838151 0.770493
O O12 0.409975 0.840721 0.512136
O O13 0.250000 0.548736 0.551852
O O14 0.143275 0.561248 0.463795
O O15 0.129353 0.870648 0.250000
#
# Coordination Sequence:
#
# PCOD8318756 Si02
#       6
#    16  16  16  16  16  16
#     4  11  20  36  60  81 117 152 188 241 289 345
#     4  11  21  30  49  85 118 148 179 226 289 348
#     4  10  22  38  59  85 113 151 195 239 293 349
#     4   9  19  37  57  81 114 155 196 234 282 343
#     4  10  22  37  57  82 112 154 198 237 285 345
#     4  11  22  33  52  85 122 150 186 232 294 350
#
# _framework density 18.708438000000001
#
# number of rings (size 3 to 8) (size 9 to 14) (size 15 to 20)
#    0.000    1.667    3.333    3.000    4.667    0.667 
#    0.000    3.333    0.000    4.500    0.000    3.500 
#    0.000    0.000    0.000    0.000    0.000    0.000 
#
# Total GULP energy -1189866.580472 kJ/mol
# GULP energy per Si atom -12394.443547 kJ/mol
# Density = 1.866586 g / cm^3
# Si number density = 18.708438 Si / 1000 Ang^3
#
#
#
# Elastic Constant Matrix: (Units=GPa)
#
#
# Indices 1 2 3 4 5 6 
#
# 1 50.5872 16.4662 37.0688 0.0000 0.0000 0.0000
# 2 16.4662 50.5877 37.0690 0.0000 0.0000 0.0000
# 3 37.0688 37.0690 136.0295 0.0000 0.0000 0.0000
# 4 0.0000 0.0000 0.0000 28.0901 0.0000 0.0000
# 5 0.0000 0.0000 0.0000 0.0000 28.0899 0.0000
# 6 0.0000 0.0000 0.0000 0.0000 0.0000 12.2978
#
#
#
# Elastic Compliance Matrix: (Units=1/GPa)
#
#
# Indices 1 2 3 4 5 6 
#
# 1 0.025326 -0.003981 -0.005817 0.000000 0.000000 0.000000
# 2 -0.003981 0.025326 -0.005816 0.000000 0.000000 0.000000
# 3 -0.005817 -0.005816 0.010521 0.000000 0.000000 0.000000
# 4 0.000000 0.000000 0.000000 0.035600 0.000000 0.000000
# 5 0.000000 0.000000 0.000000 0.000000 0.035600 0.000000
# 6 0.000000 0.000000 0.000000 0.000000 0.000000 0.081316
#
#
# Mechanical properties :
#
#
# Convention : Reuss Voigt Hill
#
# Bulk Modulus (GPa) = 33.39531 46.49026 39.94278
# Shear Modulus (GPa) = 19.61563 23.46890 21.54226
#
# Velocity S-wave (km/s) = 3.24155 3.54567 3.39702
# Velocity P-wave (km/s) = 5.64795 6.45494 6.06488
#
# Compressibility (1/GPa) = 0.02994433
#
# Stress axis : x y z
#
# Youngs Moduli (GPa) = 39.48519 39.48551 95.04423
#
# Poissons Ratio (x) = 0.15721 0.55283
# Poissons Ratio (y) = 0.15721 0.55282
# Poissons Ratio (z) = 0.22967 0.22967
#
# Static dielectric constant tensor:
#      x y z
#    x 3.209290 0.000000 0.000000 
#    y 0.000000 3.209290 0.000000 
#    z 0.000000 0.000000 3.841570 
# 
# 
# High freq. dielectric constant tensor:
#      x y z
#    x 1.705930 0.000000 0.000000 
#    y 0.000000 1.705930 0.000000 
#    z 0.000000 0.000000 1.740390 
# 
# From -- ./inp_files/2156.got.cif
#   From: 2010.03.12/outbox.cif.g09.slc.cpg/sg137_2_cif.got.tgz:2156.got - 2010.04.08 09:34:49.
