data_PCOD8318075
_publ_section_title
;
Structure prediction by ZEFSAII (Michael W. Deem and Ramdas Pophale) SiO2 
 PCOD8318075
Probable space group: P 42/M N M
;
_chemical_formula_sum "Si O2"
_cell_formula_units_Z 120
_cell_length_a 13.514831
_cell_length_b 13.514831
_cell_length_c 34.337949
_cell_angle_alpha 90.000000
_cell_angle_beta 90.000000
_cell_angle_gamma 90.000000
_cell_volume 6271.848943
_symmetry_space_group_name_H-M "P 42/M N M"
_symmetry_group_IT_number 136
_symmetry_cell_setting 'tetragonal'
loop_
_space_group_symop_operation_xyz
x,y,z
1/2-y,1/2+x,1/2+z
-x,-y,z
1/2+y,1/2-x,1/2+z
1/2+x,1/2-y,1/2-z
1/2-x,1/2+y,1/2-z
y,x,-z
-y,-x,-z
-x,-y,-z
1/2+y,1/2-x,1/2-z
x,y,-z
1/2-y,1/2+x,1/2-z
1/2-x,1/2+y,1/2+z
1/2+x,1/2-y,1/2+z
-y,-x,z
y,x,z
loop_
_atom_site_type_symbol
_atom_site_label
_atom_site_fract_x
_atom_site_fract_y
_atom_site_fract_z
Si Si1 0.459225 0.838818 0.457287
Si Si2 0.082541 0.917460 0.543329
Si Si3 0.002364 0.837713 0.898720
Si Si4 0.970801 0.649681 0.542945
Si Si5 0.417604 0.744514 0.677262
Si Si6 0.594178 0.757971 0.173024
Si Si7 0.961196 0.798234 0.601545
Si Si8 0.160438 0.492898 0.750420
O O1 0.434095 0.794560 0.500000
O O2 0.480784 0.747797 0.429311
O O3 0.552329 0.908369 0.461076
O O4 0.371598 0.914246 0.444043
O O5 0.116739 0.883261 0.500000
O O6 0.041669 0.827883 0.568907
O O7 0.000000 0.000000 0.539008
O O8 0.919050 0.919050 0.904938
O O9 0.993118 0.789601 0.856057
O O10 0.110670 0.889331 0.903383
O O11 0.970093 0.702505 0.500000
O O12 0.912284 0.708805 0.577342
O O13 0.342276 0.657725 0.688885
O O14 0.355461 0.840978 0.663334
O O15 0.484407 0.768114 0.714466
O O16 0.661356 0.661356 0.176432
O O17 0.511982 0.740380 0.140416
O O18 0.536667 0.771559 0.213385
O O19 0.884389 0.884389 0.612600
O O20 0.096947 0.589123 0.762042
#
# Coordination Sequence:
#
# PCOD8318075 Si02
#       8
#    16   8  16  16  16  16  16  16
#     4   9  19  37  57  77 105 139 179 228 280 328
#     4   9  18  32  48  68 104 148 181 215 257 307
#     4  10  21  36  55  80 110 143 181 226 275 329
#     4   9  19  36  56  77 104 142 184 226 271 323
#     4   9  19  36  56  77 104 141 179 218 266 330
#     4  10  20  35  54  77 107 143 178 221 272 326
#     4  11  21  33  51  78 111 144 182 221 266 320
#     4   9  19  36  57  80 105 135 176 224 276 330
#
# _framework density 19.133113999999999
#
# number of rings (size 3 to 8) (size 9 to 14) (size 15 to 20)
#    0.000    2.467    0.667    2.000    0.000    4.000 
#    1.200    4.667    0.000    0.000    0.000    0.000 
#    0.000    0.000    0.000    0.000    0.000    0.000 
#
# Total GULP energy -1487073.404850 kJ/mol
# GULP energy per Si atom -12392.278374 kJ/mol
# Density = 1.908957 g / cm^3
# Si number density = 19.133114 Si / 1000 Ang^3
#
#
#
# Elastic Constant Matrix: (Units=GPa)
#
#
# Indices 1 2 3 4 5 6 
#
# 1 65.9553 16.8881 46.4086 0.0000 0.0000 0.0000
# 2 16.8881 65.9553 46.4086 0.0000 0.0000 0.0000
# 3 46.4086 46.4086 113.5315 0.0000 0.0000 0.0000
# 4 0.0000 0.0000 0.0000 43.8440 0.0000 0.0000
# 5 0.0000 0.0000 0.0000 0.0000 43.8427 0.0000
# 6 0.0000 0.0000 0.0000 0.0000 0.0000 16.5205
#
#
#
# Elastic Compliance Matrix: (Units=1/GPa)
#
#
# Indices 1 2 3 4 5 6 
#
# 1 0.021325 0.000945 -0.009104 0.000000 0.000000 0.000000
# 2 0.000945 0.021325 -0.009104 0.000000 0.000000 0.000000
# 3 -0.009104 -0.009104 0.016251 0.000000 0.000000 0.000000
# 4 0.000000 0.000000 0.000000 0.022808 0.000000 0.000000
# 5 0.000000 0.000000 0.000000 0.000000 0.022809 0.000000
# 6 0.000000 0.000000 0.000000 0.000000 0.000000 0.060531
#
#
# Mechanical properties :
#
#
# Convention : Reuss Voigt Hill
#
# Bulk Modulus (GPa) = 41.02143 51.65029 46.33586
# Shear Modulus (GPa) = 24.07326 29.89057 26.98191
#
# Velocity S-wave (km/s) = 3.55096 3.95681 3.75936
# Velocity P-wave (km/s) = 6.18862 6.92307 6.56612
#
# Compressibility (1/GPa) = 0.02437750
#
# Stress axis : x y z
#
# Youngs Moduli (GPa) = 46.89241 46.89240 61.53555
#
# Poissons Ratio (x) = -0.04432 0.56020
# Poissons Ratio (y) = -0.04432 0.56020
# Poissons Ratio (z) = 0.42689 0.42689
#
# Static dielectric constant tensor:
#      x y z
#    x 3.553340 0.000000 0.000000 
#    y 0.000000 3.553340 0.000000 
#    z 0.000000 0.000000 3.566280 
# 
# 
# High freq. dielectric constant tensor:
#      x y z
#    x 1.738620 0.000000 0.000000 
#    y 0.000000 1.738620 0.000000 
#    z 0.000000 0.000000 1.748090 
# 
# From -- ./inp_files/10017.got.cif
#   From: 2010.03.12/outbox.cif.g09.slc.cpg/sg136_6_cif.got.tgz:10017.got - 2010.04.06 18:39:43.
