data_PCOD8318397
_publ_section_title
;
Structure prediction by ZEFSAII (Michael W. Deem and Ramdas Pophale) SiO2 
 PCOD8318397
Probable space group: P 42/N M C
;
_chemical_formula_sum "Si O2"
_cell_formula_units_Z 88
_cell_length_a 14.259886
_cell_length_b 14.259886
_cell_length_c 24.863287
_cell_angle_alpha 90.000000
_cell_angle_beta 90.000000
_cell_angle_gamma 90.000000
_cell_volume 5055.808902
_symmetry_space_group_name_H-M "P 42/N M C"
_symmetry_group_IT_number 137
_space_group.IT_coordinate_system_code '2'
_symmetry_cell_setting 'tetragonal'
loop_
_space_group_symop_operation_xyz
x,y,z
1/2-y,x,1/2+z
1/2-x,1/2-y,z
y,1/2-x,1/2+z
1/2+x,-y,-z
-x,1/2+y,-z
1/2+y,1/2+x,1/2-z
-y,-x,1/2-z
-x,-y,-z
1/2+y,-x,1/2-z
1/2+x,1/2+y,-z
-y,1/2+x,1/2-z
1/2-x,y,z
x,1/2-y,z
1/2-y,1/2-x,1/2+z
y,x,1/2+z
loop_
_atom_site_type_symbol
_atom_site_label
_atom_site_fract_x
_atom_site_fract_y
_atom_site_fract_z
Si Si1 0.354466 0.512624 0.652023
Si Si2 0.359441 0.640560 0.750000
Si Si3 0.386574 0.645237 0.553774
Si Si4 0.146826 0.094325 0.978668
Si Si5 0.529484 0.859555 0.400544
Si Si6 0.349495 0.948681 0.442108
O O1 0.250000 0.479211 0.665932
O O2 0.393806 0.577047 0.700181
O O3 0.350856 0.575630 0.598983
O O4 0.413258 0.416927 0.644389
O O5 0.250000 0.623720 0.763855
O O6 0.346823 0.750000 0.563910
O O7 0.498044 0.647362 0.553647
O O8 0.350805 0.608859 0.497014
O O9 0.250000 0.142968 0.970906
O O10 0.060357 0.150653 0.954206
O O11 0.129287 0.079586 0.042049
O O12 0.519989 0.750000 0.384321
O O13 0.429026 0.910838 0.402493
O O14 0.250000 0.929019 0.413494
#
# Coordination Sequence:
#
# PCOD8318397 Si02
#       6
#    16   8  16  16  16  16
#     4  11  20  33  53  75 100 132 167 205 257 308
#     4   9  20  36  54  80 106 123 152 206 264 317
#     4  10  18  29  47  70  99 136 173 207 245 297
#     4   9  17  30  46  68 103 140 174 210 246 290
#     4  10  20  34  50  72 103 133 171 215 250 293
#     4  11  19  30  47  71 106 142 175 209 247 290
#
# _framework density 17.405721
#
# number of rings (size 3 to 8) (size 9 to 14) (size 15 to 20)
#    0.000    1.909    3.636    3.818    0.000    4.000 
#    0.000    1.818    0.000    1.091    0.000    0.000 
#    0.000    0.000    0.000    0.000    0.000    0.000 
#
# Total GULP energy -1090569.156883 kJ/mol
# GULP energy per Si atom -12392.831328 kJ/mol
# Density = 1.736610 g / cm^3
# Si number density = 17.405721 Si / 1000 Ang^3
#
#
#
# Elastic Constant Matrix: (Units=GPa)
#
#
# Indices 1 2 3 4 5 6 
#
# 1 110.7913 44.7426 22.8429 0.0000 0.0000 0.0000
# 2 44.7426 110.7918 22.8428 0.0000 0.0000 0.0000
# 3 22.8429 22.8428 43.6340 0.0000 0.0000 0.0000
# 4 0.0000 0.0000 0.0000 12.9948 0.0000 0.0000
# 5 0.0000 0.0000 0.0000 0.0000 12.9964 0.0000
# 6 0.0000 0.0000 0.0000 0.0000 0.0000 0.1060
#
#
#
# Elastic Compliance Matrix: (Units=1/GPa)
#
#
# Indices 1 2 3 4 5 6 
#
# 1 0.011369 -0.003771 -0.003978 0.000000 0.000000 0.000000
# 2 -0.003771 0.011369 -0.003977 0.000000 0.000000 0.000000
# 3 -0.003978 -0.003977 0.027082 0.000000 0.000000 0.000000
# 4 0.000000 0.000000 0.000000 0.076954 0.000000 0.000000
# 5 0.000000 0.000000 0.000000 0.000000 0.076945 0.000000
# 6 0.000000 0.000000 0.000000 0.000000 0.000000 9.435032
#
#
# Mechanical properties :
#
#
# Convention : Reuss Voigt Hill
#
# Bulk Modulus (GPa) = 37.92484 49.56375 43.74430
# Shear Modulus (GPa) = 0.51701 16.87202 8.69451
#
# Velocity S-wave (km/s) = 0.54560 3.11680 2.23742
# Velocity P-wave (km/s) = 4.71518 6.44127 5.64459
#
# Compressibility (1/GPa) = 0.02636794
#
# Stress axis : x y z
#
# Youngs Moduli (GPa) = 87.95788 87.95851 36.92429
#
# Poissons Ratio (x) = 0.33171 0.14687
# Poissons Ratio (y) = 0.33171 0.14687
# Poissons Ratio (z) = 0.34986 0.34985
#
# Static dielectric constant tensor:
#      x y z
#    x 3.399440 0.000000 0.000000 
#    y 0.000000 3.399440 0.000000 
#    z 0.000000 0.000000 2.806790 
# 
# 
# High freq. dielectric constant tensor:
#      x y z
#    x 1.681260 0.000000 0.000000 
#    y 0.000000 1.681260 0.000000 
#    z 0.000000 0.000000 1.609800 
# 
# From -- ./inp_files/8754.got.cif
#   From: 2010.03.12/outbox.cif.g09.slc.cpg/sg137_5_cif.got.tgz:8754.got - 2010.04.08 09:34:49.
