data_PCOD8318598
_publ_section_title
;
Structure prediction by ZEFSAII (Michael W. Deem and Ramdas Pophale) SiO2 
 PCOD8318598
Probable space group: P 42/N M C
;
_chemical_formula_sum "Si O2"
_cell_formula_units_Z 96
_cell_length_a 23.048694
_cell_length_b 23.048694
_cell_length_c 9.796406
_cell_angle_alpha 90.000000
_cell_angle_beta 90.000000
_cell_angle_gamma 90.000000
_cell_volume 5204.265207
_symmetry_space_group_name_H-M "P 42/N M C"
_symmetry_group_IT_number 137
_space_group.IT_coordinate_system_code '2'
_symmetry_cell_setting 'tetragonal'
loop_
_space_group_symop_operation_xyz
x,y,z
1/2-y,x,1/2+z
1/2-x,1/2-y,z
y,1/2-x,1/2+z
1/2+x,-y,-z
-x,1/2+y,-z
1/2+y,1/2+x,1/2-z
-y,-x,1/2-z
-x,-y,-z
1/2+y,-x,1/2-z
1/2+x,1/2+y,-z
-y,1/2+x,1/2-z
1/2-x,y,z
x,1/2-y,z
1/2-y,1/2-x,1/2+z
y,x,1/2+z
loop_
_atom_site_type_symbol
_atom_site_label
_atom_site_fract_x
_atom_site_fract_y
_atom_site_fract_z
Si Si1 0.591297 0.183406 0.764524
Si Si2 0.685902 0.474284 0.999246
Si Si3 0.896247 0.492135 0.235167
Si Si4 0.124824 0.099249 0.330092
Si Si5 0.813923 0.891074 0.947704
Si Si6 0.681705 0.496870 0.506144
O O1 0.652042 0.152042 0.750000
O O2 0.604648 0.250000 0.741142
O O3 0.550091 0.160411 0.642586
O O4 0.563445 0.173199 0.913417
O O5 0.750000 0.448647 0.032746
O O6 0.642650 0.459142 0.122651
O O7 0.691434 0.542094 0.981639
O O8 0.955127 0.455127 0.250000
O O9 0.914917 0.556147 0.183942
O O10 0.858337 0.496697 0.372667
O O11 0.138982 0.153130 0.427870
O O12 0.148677 0.119578 0.186022
O O13 0.160073 0.045022 0.387888
O O14 0.750000 0.863447 0.931349
O O15 0.750000 0.506866 0.469384
#
# Coordination Sequence:
#
# PCOD8318598 Si02
#       6
#    16  16  16  16  16  16
#     4  10  20  34  55  81 110 147 187 230 279 330
#     4   9  18  35  56  77 106 147 188 223 269 333
#     4  11  23  36  55  86 119 145 179 232 289 337
#     4  11  21  38  57  86 111 149 186 230 284 332
#     4  10  20  38  59  81 110 145 187 230 276 330
#     4  11  22  38  60  83 111 152 194 229 274 340
#
# _framework density 18.446408999999999
#
# number of rings (size 3 to 8) (size 9 to 14) (size 15 to 20)
#    0.000    1.667    3.333    2.000    0.000    2.167 
#    0.000    0.000    0.000    4.000    0.000    0.000 
#    0.000   12.000    0.000    0.000    0.000    0.000 
#
# Total GULP energy -1190164.322708 kJ/mol
# GULP energy per Si atom -12397.545028 kJ/mol
# Density = 1.840442 g / cm^3
# Si number density = 18.446409 Si / 1000 Ang^3
#
#
#
# Elastic Constant Matrix: (Units=GPa)
#
#
# Indices 1 2 3 4 5 6 
#
# 1 57.0830 44.5539 23.2649 0.0000 0.0000 0.0000
# 2 44.5539 57.0830 23.2649 0.0000 0.0000 0.0000
# 3 23.2649 23.2649 93.2046 0.0000 0.0000 0.0000
# 4 0.0000 0.0000 0.0000 16.7037 0.0000 0.0000
# 5 0.0000 0.0000 0.0000 0.0000 16.7037 0.0000
# 6 0.0000 0.0000 0.0000 0.0000 0.0000 22.0036
#
#
#
# Elastic Compliance Matrix: (Units=1/GPa)
#
#
# Indices 1 2 3 4 5 6 
#
# 1 0.045461 -0.034353 -0.002773 0.000000 0.000000 0.000000
# 2 -0.034353 0.045461 -0.002773 0.000000 0.000000 0.000000
# 3 -0.002773 -0.002773 0.012113 0.000000 0.000000 0.000000
# 4 0.000000 0.000000 0.000000 0.059867 0.000000 0.000000
# 5 0.000000 0.000000 0.000000 0.000000 0.059867 0.000000
# 6 0.000000 0.000000 0.000000 0.000000 0.000000 0.045447
#
#
# Mechanical properties :
#
#
# Convention : Reuss Voigt Hill
#
# Bulk Modulus (GPa) = 43.03128 43.28202 43.15665
# Shear Modulus (GPa) = 14.05438 18.83463 16.44450
#
# Velocity S-wave (km/s) = 2.76325 3.19885 2.98900
# Velocity P-wave (km/s) = 5.79302 6.09574 5.94631
#
# Compressibility (1/GPa) = 0.02323891
#
# Stress axis : x y z
#
# Youngs Moduli (GPa) = 21.99667 21.99667 82.55376
#
# Poissons Ratio (x) = 0.75565 0.22890
# Poissons Ratio (y) = 0.75565 0.22890
# Poissons Ratio (z) = 0.06099 0.06099
#
# Static dielectric constant tensor:
#      x y z
#    x 3.473520 0.000000 0.000000 
#    y 0.000000 3.473520 0.000000 
#    z 0.000000 0.000000 3.729330 
# 
# 
# High freq. dielectric constant tensor:
#      x y z
#    x 1.704590 0.000000 0.000000 
#    y 0.000000 1.704590 0.000000 
#    z 0.000000 0.000000 1.732650 
# 
# From -- ./inp_files/2175.got.cif
#   From: 2010.03.12/outbox.cif.g09.slc.cpg/sg137_2_cif.got.tgz:2175.got - 2010.04.08 09:34:49.
