data_PCOD8318141
_publ_section_title
;
Structure prediction by ZEFSAII (Michael W. Deem and Ramdas Pophale) SiO2 
 PCOD8318141
Probable space group: P 42/M N M
;
_chemical_formula_sum "Si O2"
_cell_formula_units_Z 40
_cell_length_a 14.757659
_cell_length_b 14.757659
_cell_length_c 10.247566
_cell_angle_alpha 90.000000
_cell_angle_beta 90.000000
_cell_angle_gamma 90.000000
_cell_volume 2231.802019
_symmetry_space_group_name_H-M "P 42/M N M"
_symmetry_group_IT_number 136
_symmetry_cell_setting 'tetragonal'
loop_
_space_group_symop_operation_xyz
x,y,z
1/2-y,1/2+x,1/2+z
-x,-y,z
1/2+y,1/2-x,1/2+z
1/2+x,1/2-y,1/2-z
1/2-x,1/2+y,1/2-z
y,x,-z
-y,-x,-z
-x,-y,-z
1/2+y,1/2-x,1/2-z
x,y,-z
1/2-y,1/2+x,1/2-z
1/2-x,1/2+y,1/2+z
1/2+x,1/2-y,1/2+z
-y,-x,z
y,x,z
loop_
_atom_site_type_symbol
_atom_site_label
_atom_site_fract_x
_atom_site_fract_y
_atom_site_fract_z
Si Si1 0.384895 0.242445 0.757518
Si Si2 0.074538 0.632208 0.000000
Si Si3 0.064927 0.628045 0.500000
Si Si4 0.927402 0.072599 0.655846
O O1 0.282227 0.282227 0.749982
O O2 0.410125 0.194846 0.624028
O O3 0.452999 0.327096 0.789116
O O4 0.390887 0.170530 0.872359
O O5 0.140648 0.544521 0.000000
O O6 0.975163 0.592833 0.000000
O O7 0.924390 0.075611 0.500000
O O8 0.000000 0.000000 0.707650
#
# Coordination Sequence:
#
# PCOD8318141 Si02
#       4
#    16   8   8   8
#     4  10  20  39  60  84 119 154 191 259 282 341
#     4  11  23  36  61  88 121 153 199 236 306 344
#     4  11  21  40  59  84 119 167 191 232 296 368
#     4   9  18  37  65  83 115 165 190 228 307 346
#
# _framework density 17.922736
#
# number of rings (size 3 to 8) (size 9 to 14) (size 15 to 20)
#    1.200    0.600    2.000    3.600    0.000    3.200 
#    0.000   14.000    0.000    0.000    0.000    0.000 
#    0.000    0.000    0.000    0.000    0.000    0.000 
#
# Total GULP energy -495701.828705 kJ/mol
# GULP energy per Si atom -12392.545718 kJ/mol
# Density = 1.788194 g / cm^3
# Si number density = 17.922736 Si / 1000 Ang^3
#
#
#
# Elastic Constant Matrix: (Units=GPa)
#
#
# Indices 1 2 3 4 5 6 
#
# 1 92.5830 45.9656 54.1991 0.0000 0.0000 0.0000
# 2 45.9656 92.5835 54.1994 0.0000 0.0000 0.0000
# 3 54.1991 54.1994 164.9144 0.0000 0.0000 0.0000
# 4 0.0000 0.0000 0.0000 22.3248 0.0000 0.0000
# 5 0.0000 0.0000 0.0000 0.0000 22.3246 0.0000
# 6 0.0000 0.0000 0.0000 0.0000 0.0000 35.6461
#
#
#
# Elastic Compliance Matrix: (Units=1/GPa)
#
#
# Indices 1 2 3 4 5 6 
#
# 1 0.015584 -0.005868 -0.003193 0.000000 0.000000 0.000000
# 2 -0.005868 0.015584 -0.003193 0.000000 0.000000 0.000000
# 3 -0.003193 -0.003193 0.008163 0.000000 0.000000 0.000000
# 4 0.000000 0.000000 0.000000 0.044793 0.000000 0.000000
# 5 0.000000 0.000000 0.000000 0.000000 0.044794 0.000000
# 6 0.000000 0.000000 0.000000 0.000000 0.000000 0.028054
#
#
# Mechanical properties :
#
#
# Convention : Reuss Voigt Hill
#
# Bulk Modulus (GPa) = 67.46776 73.20101 70.33438
# Shear Modulus (GPa) = 26.82136 29.10687 27.96412
#
# Velocity S-wave (km/s) = 3.87266 4.03428 3.95430
# Velocity P-wave (km/s) = 7.59750 7.91403 7.75738
#
# Compressibility (1/GPa) = 0.01482189
#
# Stress axis : x y z
#
# Youngs Moduli (GPa) = 64.17013 64.17043 122.50970
#
# Poissons Ratio (x) = 0.37653 0.39119
# Poissons Ratio (y) = 0.37652 0.39119
# Poissons Ratio (z) = 0.20490 0.20491
#
# Static dielectric constant tensor:
#      x y z
#    x 3.403580 0.000000 0.000000 
#    y 0.000000 3.403590 0.000000 
#    z 0.000000 0.000000 3.131410 
# 
# 
# High freq. dielectric constant tensor:
#      x y z
#    x 1.689370 0.000000 0.000000 
#    y 0.000000 1.689370 0.000000 
#    z 0.000000 0.000000 1.705810 
# 
# From -- ./inp_files/694.got.cif
#   From: 2010.03.12/outbox.cif.g09.slc.cpg/sg136_1_cif.got.tgz:694.got - 2010.04.06 18:39:43.
