data_PCOD8318636
_publ_section_title
;
Structure prediction by ZEFSAII (Michael W. Deem and Ramdas Pophale) SiO2 
 PCOD8318636
Probable space group: P 42/N M C
;
_chemical_formula_sum "Si O2"
_cell_formula_units_Z 56
_cell_length_a 14.342916
_cell_length_b 14.342916
_cell_length_c 12.705624
_cell_angle_alpha 90.000000
_cell_angle_beta 90.000000
_cell_angle_gamma 90.000000
_cell_volume 2613.791305
_symmetry_space_group_name_H-M "P 42/N M C"
_symmetry_group_IT_number 137
_space_group.IT_coordinate_system_code '2'
_symmetry_cell_setting 'tetragonal'
loop_
_space_group_symop_operation_xyz
x,y,z
1/2-y,x,1/2+z
1/2-x,1/2-y,z
y,1/2-x,1/2+z
1/2+x,-y,-z
-x,1/2+y,-z
1/2+y,1/2+x,1/2-z
-y,-x,1/2-z
-x,-y,-z
1/2+y,-x,1/2-z
1/2+x,1/2+y,-z
-y,1/2+x,1/2-z
1/2-x,y,z
x,1/2-y,z
1/2-y,1/2-x,1/2+z
y,x,1/2+z
loop_
_atom_site_type_symbol
_atom_site_label
_atom_site_fract_x
_atom_site_fract_y
_atom_site_fract_z
Si Si1 0.044737 0.853657 0.839827
Si Si2 0.142736 0.642736 0.250000
Si Si3 0.352829 0.351734 0.078218
Si Si4 0.644005 0.445256 0.970250
O O1 0.079408 0.920592 0.750000
O O2 0.084662 0.750000 0.821611
O O3 0.932476 0.853485 0.832850
O O4 0.075423 0.889633 0.954068
O O5 0.126343 0.750000 0.216846
O O6 0.077751 0.615943 0.349529
O O7 0.250000 0.359077 0.131506
O O8 0.360651 0.250000 0.018145
O O9 0.366276 0.443561 0.005483
O O10 0.750000 0.412396 0.991981
#
# Coordination Sequence:
#
# PCOD8318636 Si02
#       4
#    16   8  16  16
#     4  11  23  38  60  90 123 157 191 235 295 358
#     4   9  18  32  54  86 118 150 191 238 290 344
#     4   9  20  40  61  83 115 155 202 247 285 337
#     4  10  20  36  60  87 117 153 193 242 294 344
#
# _framework density 21.424817000000001
#
# number of rings (size 3 to 8) (size 9 to 14) (size 15 to 20)
#    0.000    2.143    0.000    2.571    2.000    3.143 
#    0.000    1.429    0.000    6.857    0.000    0.000 
#    0.000    0.000    0.000    0.000    0.000    0.000 
#
# Total GULP energy -693827.716273 kJ/mol
# GULP energy per Si atom -12389.780648 kJ/mol
# Density = 2.137605 g / cm^3
# Si number density = 21.424817 Si / 1000 Ang^3
#
#
#
# Elastic Constant Matrix: (Units=GPa)
#
#
# Indices 1 2 3 4 5 6 
#
# 1 108.0720 33.3873 26.7650 0.0000 0.0000 0.0000
# 2 33.3873 108.0705 26.7664 0.0000 0.0000 0.0000
# 3 26.7650 26.7664 77.4215 0.0000 0.0000 0.0000
# 4 0.0000 0.0000 0.0000 16.0262 0.0000 0.0000
# 5 0.0000 0.0000 0.0000 0.0000 16.0268 0.0000
# 6 0.0000 0.0000 0.0000 0.0000 0.0000 27.7609
#
#
#
# Elastic Compliance Matrix: (Units=1/GPa)
#
#
# Indices 1 2 3 4 5 6 
#
# 1 0.010761 -0.002628 -0.002812 0.000000 0.000000 0.000000
# 2 -0.002628 0.010762 -0.002812 0.000000 0.000000 0.000000
# 3 -0.002812 -0.002812 0.014860 0.000000 0.000000 0.000000
# 4 0.000000 0.000000 0.000000 0.062398 0.000000 0.000000
# 5 0.000000 0.000000 0.000000 0.000000 0.062396 0.000000
# 6 0.000000 0.000000 0.000000 0.000000 0.000000 0.036022
#
#
# Mechanical properties :
#
#
# Convention : Reuss Voigt Hill
#
# Bulk Modulus (GPa) = 50.30222 51.93348 51.11785
# Shear Modulus (GPa) = 22.69335 25.73914 24.21624
#
# Velocity S-wave (km/s) = 3.25808 3.46984 3.36562
# Velocity P-wave (km/s) = 6.13864 6.35181 6.24614
#
# Compressibility (1/GPa) = 0.01987984
#
# Stress axis : x y z
#
# Youngs Moduli (GPa) = 92.92492 92.92260 67.29273
#
# Poissons Ratio (x) = 0.24422 0.18920
# Poissons Ratio (y) = 0.24423 0.18922
# Poissons Ratio (z) = 0.26127 0.26129
#
# Static dielectric constant tensor:
#      x y z
#    x 4.278240 0.000000 0.000000 
#    y 0.000000 4.278250 0.000000 
#    z 0.000000 0.000000 3.283970 
# 
# 
# High freq. dielectric constant tensor:
#      x y z
#    x 1.864570 0.000000 0.000000 
#    y 0.000000 1.864570 0.000000 
#    z 0.000000 0.000000 1.774860 
# 
# From -- ./inp_files/3133.got.cif
#   From: 2010.03.12/outbox.cif.g09.slc.cpg/sg137_2_cif.got.tgz:3133.got - 2010.04.08 09:34:49.
