data_PCOD8318181
_publ_section_title
;
Structure prediction by ZEFSAII (Michael W. Deem and Ramdas Pophale) SiO2 
 PCOD8318181
Probable space group: P 42/M N M
;
_chemical_formula_sum "Si O2"
_cell_formula_units_Z 56
_cell_length_a 13.990027
_cell_length_b 13.990027
_cell_length_c 14.203530
_cell_angle_alpha 90.000000
_cell_angle_beta 90.000000
_cell_angle_gamma 90.000000
_cell_volume 2779.927042
_symmetry_space_group_name_H-M "P 42/M N M"
_symmetry_group_IT_number 136
_symmetry_cell_setting 'tetragonal'
loop_
_space_group_symop_operation_xyz
x,y,z
1/2-y,1/2+x,1/2+z
-x,-y,z
1/2+y,1/2-x,1/2+z
1/2+x,1/2-y,1/2-z
1/2-x,1/2+y,1/2-z
y,x,-z
-y,-x,-z
-x,-y,-z
1/2+y,1/2-x,1/2-z
x,y,-z
1/2-y,1/2+x,1/2-z
1/2-x,1/2+y,1/2+z
1/2+x,1/2-y,1/2+z
-y,-x,z
y,x,z
loop_
_atom_site_type_symbol
_atom_site_label
_atom_site_fract_x
_atom_site_fract_y
_atom_site_fract_z
Si Si1 0.878513 0.274147 0.603831
Si Si2 0.940591 0.215337 0.795711
Si Si3 0.008007 0.393167 0.891535
Si Si4 0.579650 0.420351 0.394069
O O1 0.926101 0.260451 0.500000
O O2 0.774880 0.225121 0.607677
O O3 0.947438 0.226392 0.682257
O O4 0.857633 0.384392 0.624281
O O5 0.846813 0.153188 0.824046
O O6 0.934269 0.321723 0.839570
O O7 0.036943 0.167785 0.835381
O O8 0.000000 0.500000 0.849260
O O9 0.977182 0.393776 0.000000
O O10 0.500000 0.500000 0.404160
O O11 0.611534 0.388467 0.500000
#
# Coordination Sequence:
#
# PCOD8318181 Si02
#       4
#    16  16  16   8
#     4   9  20  38  57  80 114 156 200 240 286 353
#     4  10  21  36  59  89 118 155 195 241 303 362
#     4  10  22  37  57  84 115 152 196 246 298 354
#     4   9  18  34  57  89 123 149 185 241 303 360
#
# _framework density 20.144414999999999
#
# number of rings (size 3 to 8) (size 9 to 14) (size 15 to 20)
#    0.000    2.429    0.000    0.857    6.000    1.714 
#    0.000    0.714    0.000    4.286    0.000    0.000 
#    0.000    0.000    0.000    0.000    0.000    0.000 
#
# Total GULP energy -694131.772568 kJ/mol
# GULP energy per Si atom -12395.210224 kJ/mol
# Density = 2.009857 g / cm^3
# Si number density = 20.144415 Si / 1000 Ang^3
#
#
#
# Elastic Constant Matrix: (Units=GPa)
#
#
# Indices 1 2 3 4 5 6 
#
# 1 106.8183 52.4818 61.0416 0.0000 0.0000 0.0000
# 2 52.4818 106.8185 61.0416 0.0000 0.0000 0.0000
# 3 61.0416 61.0416 137.5223 0.0000 0.0000 0.0000
# 4 0.0000 0.0000 0.0000 27.9274 0.0000 0.0000
# 5 0.0000 0.0000 0.0000 0.0000 27.9274 0.0000
# 6 0.0000 0.0000 0.0000 0.0000 0.0000 27.1616
#
#
#
# Elastic Compliance Matrix: (Units=1/GPa)
#
#
# Indices 1 2 3 4 5 6 
#
# 1 0.013959 -0.004445 -0.004223 0.000000 0.000000 0.000000
# 2 -0.004445 0.013959 -0.004223 0.000000 0.000000 0.000000
# 3 -0.004223 -0.004223 0.011020 0.000000 0.000000 0.000000
# 4 0.000000 0.000000 0.000000 0.035807 0.000000 0.000000
# 5 0.000000 0.000000 0.000000 0.000000 0.035807 0.000000
# 6 0.000000 0.000000 0.000000 0.000000 0.000000 0.036817
#
#
# Mechanical properties :
#
#
# Convention : Reuss Voigt Hill
#
# Bulk Modulus (GPa) = 76.00850 77.80988 76.90919
# Shear Modulus (GPa) = 28.16337 28.37622 28.26979
#
# Velocity S-wave (km/s) = 3.74314 3.75726 3.75020
# Velocity P-wave (km/s) = 7.51633 7.58502 7.55075
#
# Compressibility (1/GPa) = 0.01315642
#
# Stress axis : x y z
#
# Youngs Moduli (GPa) = 71.63959 71.63971 90.74176
#
# Poissons Ratio (x) = 0.31844 0.38319
# Poissons Ratio (y) = 0.31844 0.38319
# Poissons Ratio (z) = 0.30252 0.30252
#
# Static dielectric constant tensor:
#      x y z
#    x 3.564510 0.000000 0.000000 
#    y 0.000000 3.564510 0.000000 
#    z 0.000000 0.000000 3.901600 
# 
# 
# High freq. dielectric constant tensor:
#      x y z
#    x 1.772430 0.000000 0.000000 
#    y 0.000000 1.772430 0.000000 
#    z 0.000000 0.000000 1.796890 
# 
# From -- ./inp_files/3100.got.cif
#   From: 2010.03.12/outbox.cif.g09.slc.cpg/sg136_2_cif.got.tgz:3100.got - 2010.04.06 18:39:43.
