data_PCOD8318254
_publ_section_title
;
Structure prediction by ZEFSAII (Michael W. Deem and Ramdas Pophale) SiO2 
 PCOD8318254
Probable space group: P 42/M N M
;
_chemical_formula_sum "Si O2"
_cell_formula_units_Z 88
_cell_length_a 14.012074
_cell_length_b 14.012074
_cell_length_c 22.442004
_cell_angle_alpha 90.000000
_cell_angle_beta 90.000000
_cell_angle_gamma 90.000000
_cell_volume 4406.223069
_symmetry_space_group_name_H-M "P 42/M N M"
_symmetry_group_IT_number 136
_symmetry_cell_setting 'tetragonal'
loop_
_space_group_symop_operation_xyz
x,y,z
1/2-y,1/2+x,1/2+z
-x,-y,z
1/2+y,1/2-x,1/2+z
1/2+x,1/2-y,1/2-z
1/2-x,1/2+y,1/2-z
y,x,-z
-y,-x,-z
-x,-y,-z
1/2+y,1/2-x,1/2-z
x,y,-z
1/2-y,1/2+x,1/2-z
1/2-x,1/2+y,1/2+z
1/2+x,1/2-y,1/2+z
-y,-x,z
y,x,z
loop_
_atom_site_type_symbol
_atom_site_label
_atom_site_fract_x
_atom_site_fract_y
_atom_site_fract_z
Si Si1 0.924008 0.924008 0.570983
Si Si2 0.361963 0.927380 0.250909
Si Si3 0.947825 0.797153 0.931031
Si Si4 0.805119 0.652406 0.124693
Si Si5 0.221728 0.374487 0.629815
Si Si6 0.044463 0.288634 0.569340
O O1 0.927664 0.927664 0.500000
O O2 0.948205 0.818716 0.594846
O O3 0.000000 0.000000 0.597574
O O4 0.461509 0.876681 0.234802
O O5 0.312074 0.877982 0.306841
O O6 0.290775 0.916978 0.195551
O O7 0.903928 0.903928 0.922576
O O8 0.889274 0.724244 0.890583
O O9 0.056297 0.790209 0.908722
O O10 0.941277 0.767023 0.000000
O O11 0.702691 0.702691 0.113235
O O12 0.821746 0.562864 0.081530
O O13 0.272025 0.272025 0.632674
O O14 0.118189 0.360808 0.600234
O O15 0.067918 0.291595 0.500000
#
# Coordination Sequence:
#
# PCOD8318254 Si02
#       6
#     8  16  16  16  16  16
#     4   9  18  34  54  82 125 167 197 231 285 361
#     4  11  22  41  65  89 119 160 207 259 316 366
#     4  10  23  42  64  93 127 164 208 260 318 377
#     4  11  22  40  64  89 123 163 207 256 310 372
#     4  12  24  41  65  91 125 166 211 261 312 373
#     4  11  22  36  59  93 127 161 200 246 307 373
#
# _framework density 19.971753
#
# number of rings (size 3 to 8) (size 9 to 14) (size 15 to 20)
#    0.000    1.182    4.545    2.182    0.000    4.000 
#    0.000    2.727    2.000    0.000    0.000    0.000 
#    0.000    0.000    0.000    0.000    0.000    0.000 
#
# Total GULP energy -1091498.601583 kJ/mol
# GULP energy per Si atom -12403.393200 kJ/mol
# Density = 1.992630 g / cm^3
# Si number density = 19.971753 Si / 1000 Ang^3
#
#
#
# Elastic Constant Matrix: (Units=GPa)
#
#
# Indices 1 2 3 4 5 6 
#
# 1 83.7293 22.1711 17.7319 0.0000 0.0000 0.0000
# 2 22.1711 83.7293 17.7319 0.0000 0.0000 0.0000
# 3 17.7319 17.7319 88.2341 0.0000 0.0000 0.0000
# 4 0.0000 0.0000 0.0000 28.5559 0.0000 0.0000
# 5 0.0000 0.0000 0.0000 0.0000 28.5559 0.0000
# 6 0.0000 0.0000 0.0000 0.0000 0.0000 32.5565
#
#
#
# Elastic Compliance Matrix: (Units=1/GPa)
#
#
# Indices 1 2 3 4 5 6 
#
# 1 0.013184 -0.003060 -0.002035 0.000000 0.000000 0.000000
# 2 -0.003060 0.013184 -0.002035 0.000000 0.000000 0.000000
# 3 -0.002035 -0.002035 0.012151 0.000000 0.000000 0.000000
# 4 0.000000 0.000000 0.000000 0.035019 0.000000 0.000000
# 5 0.000000 0.000000 0.000000 0.000000 0.035019 0.000000
# 6 0.000000 0.000000 0.000000 0.000000 0.000000 0.030716
#
#
# Mechanical properties :
#
#
# Convention : Reuss Voigt Hill
#
# Bulk Modulus (GPa) = 41.21806 41.21806 41.21806
# Shear Modulus (GPa) = 30.93672 31.13751 31.03711
#
# Velocity S-wave (km/s) = 3.94003 3.95280 3.94642
# Velocity P-wave (km/s) = 6.43284 6.44328 6.43806
#
# Compressibility (1/GPa) = 0.02426121
#
# Stress axis : x y z
#
# Youngs Moduli (GPa) = 75.84665 75.84665 82.29609
#
# Poissons Ratio (x) = 0.23211 0.16744
# Poissons Ratio (y) = 0.23211 0.16744
# Poissons Ratio (z) = 0.15432 0.15432
#
# Static dielectric constant tensor:
#      x y z
#    x 3.636750 0.000000 0.000000 
#    y 0.000000 3.636750 0.000000 
#    z 0.000000 0.000000 3.461590 
# 
# 
# High freq. dielectric constant tensor:
#      x y z
#    x 1.780340 0.000000 0.000000 
#    y 0.000000 1.780340 0.000000 
#    z 0.000000 0.000000 1.774760 
# 
# From -- ./inp_files/7380.got.cif
#   From: 2010.03.12/outbox.cif.g09.slc.cpg/sg136_4_cif.got.tgz:7380.got - 2010.04.06 18:39:43.
