data_PCOD8318885
_publ_section_title
;
Structure prediction by ZEFSAII (Michael W. Deem and Ramdas Pophale) SiO2 
 PCOD8318885
Probable space group: P 42/N C M
;
_chemical_formula_sum "Si O2"
_cell_formula_units_Z 72
_cell_length_a 19.052276
_cell_length_b 19.052276
_cell_length_c 9.828276
_cell_angle_alpha 90.000000
_cell_angle_beta 90.000000
_cell_angle_gamma 90.000000
_cell_volume 3567.558247
_symmetry_space_group_name_H-M "P 42/N C M"
_symmetry_group_IT_number 138
_space_group.IT_coordinate_system_code '2'
_symmetry_cell_setting 'tetragonal'
loop_
_space_group_symop_operation_xyz
x,y,z
1/2-y,x,1/2+z
1/2-x,1/2-y,z
y,1/2-x,1/2+z
1/2+x,-y,1/2-z
-x,1/2+y,1/2-z
1/2+y,1/2+x,-z
-y,-x,-z
-x,-y,-z
1/2+y,-x,1/2-z
1/2+x,1/2+y,-z
-y,1/2+x,1/2-z
1/2-x,y,1/2+z
x,1/2-y,1/2+z
1/2-y,1/2-x,z
y,x,z
loop_
_atom_site_type_symbol
_atom_site_label
_atom_site_fract_x
_atom_site_fract_y
_atom_site_fract_z
Si Si1 0.890535 0.108744 0.837497
Si Si2 0.620735 0.620735 0.875204
Si Si3 0.458322 0.754947 0.747683
Si Si4 0.488777 0.488777 0.158499
Si Si5 0.689952 0.689952 0.619360
Si Si6 0.552662 0.748648 0.992164
O O1 0.900152 0.184524 0.768404
O O2 0.816270 0.078918 0.791149
O O3 0.957199 0.061847 0.783993
O O4 0.888245 0.111756 0.000000
O O5 0.568986 0.568986 0.796721
O O6 0.667656 0.667656 0.772060
O O7 0.571644 0.667175 0.972176
O O8 0.519587 0.778350 0.852407
O O9 0.493638 0.741956 0.603616
O O10 0.500000 0.500000 0.000000
O O11 0.750000 0.750000 0.628974
O O12 0.713771 0.623938 0.532470
#
# Coordination Sequence:
#
# PCOD8318885 Si02
#       6
#    16   8  16   8   8  16
#     4  11  23  44  72 102 139 184 236 288 355 420
#     4  12  22  41  65  96 142 186 231 285 348 414
#     4  12  25  45  70 103 137 180 237 296 352 413
#     4  10  18  39  69  93 126 184 235 276 341 421
#     4  12  26  38  64 102 145 187 232 280 349 434
#     4  12  24  42  67  99 141 181 230 287 349 417
#
# _framework density 20.181871000000001
#
# number of rings (size 3 to 8) (size 9 to 14) (size 15 to 20)
#    0.000    0.444    7.778    1.333    1.556    3.111 
#    0.000    1.111    0.000    4.000    0.000    0.000 
#    0.000    0.000    0.000    0.000    0.000    0.000 
#
# Total GULP energy -892503.282138 kJ/mol
# GULP energy per Si atom -12395.878919 kJ/mol
# Density = 2.013594 g / cm^3
# Si number density = 20.181871 Si / 1000 Ang^3
#
#
#
# Elastic Constant Matrix: (Units=GPa)
#
#
# Indices 1 2 3 4 5 6 
#
# 1 111.4944 64.4546 32.2967 0.0000 0.0000 0.0000
# 2 64.4546 111.4941 32.2968 0.0000 0.0000 0.0000
# 3 32.2967 32.2968 55.7179 0.0000 0.0000 0.0000
# 4 0.0000 0.0000 0.0000 25.7065 0.0000 0.0000
# 5 0.0000 0.0000 0.0000 0.0000 25.7073 0.0000
# 6 0.0000 0.0000 0.0000 0.0000 0.0000 45.8932
#
#
#
# Elastic Compliance Matrix: (Units=1/GPa)
#
#
# Indices 1 2 3 4 5 6 
#
# 1 0.014239 -0.007019 -0.004185 0.000000 0.000000 0.000000
# 2 -0.007019 0.014239 -0.004185 0.000000 0.000000 0.000000
# 3 -0.004185 -0.004185 0.022799 0.000000 0.000000 0.000000
# 4 0.000000 0.000000 0.000000 0.038901 0.000000 0.000000
# 5 0.000000 0.000000 0.000000 0.000000 0.038899 0.000000
# 6 0.000000 0.000000 0.000000 0.000000 0.000000 0.021790
#
#
# Mechanical properties :
#
#
# Convention : Reuss Voigt Hill
#
# Bulk Modulus (GPa) = 48.78290 59.64472 54.21381
# Shear Modulus (GPa) = 26.52815 29.43863 27.98339
#
# Velocity S-wave (km/s) = 3.62947 3.82339 3.72769
# Velocity P-wave (km/s) = 6.46438 7.00777 6.74155
#
# Compressibility (1/GPa) = 0.02049899
#
# Stress axis : x y z
#
# Youngs Moduli (GPa) = 70.22855 70.22822 43.86133
#
# Poissons Ratio (x) = 0.49296 0.18356
# Poissons Ratio (y) = 0.49296 0.18356
# Poissons Ratio (z) = 0.29390 0.29390
#
# Static dielectric constant tensor:
#      x y z
#    x 3.936550 0.000000 0.000000 
#    y 0.000000 3.936550 0.000000 
#    z 0.000000 0.000000 3.638840 
# 
# 
# High freq. dielectric constant tensor:
#      x y z
#    x 1.797990 0.000000 0.000000 
#    y 0.000000 1.797990 0.000000 
#    z 0.000000 0.000000 1.775680 
# 
# From -- ./inp_files/1555.got.cif
#   From: 2010.03.12/outbox.cif.g09.slc.cpg/sg138_1_cif.got.tgz:1555.got - 2010.04.08 09:41:05.
