data_PCOD8318318
_publ_section_title
;
Structure prediction by ZEFSAII (Michael W. Deem and Ramdas Pophale) SiO2 
 PCOD8318318
Probable space group: P 42/M N M
;
_chemical_formula_sum "Si O2"
_cell_formula_units_Z 48
_cell_length_a 13.613247
_cell_length_b 13.613247
_cell_length_c 10.292138
_cell_angle_alpha 90.000000
_cell_angle_beta 90.000000
_cell_angle_gamma 90.000000
_cell_volume 1907.344097
_symmetry_space_group_name_H-M "P 42/M N M"
_symmetry_group_IT_number 136
_symmetry_cell_setting 'tetragonal'
loop_
_space_group_symop_operation_xyz
x,y,z
1/2-y,1/2+x,1/2+z
-x,-y,z
1/2+y,1/2-x,1/2+z
1/2+x,1/2-y,1/2-z
1/2-x,1/2+y,1/2-z
y,x,-z
-y,-x,-z
-x,-y,-z
1/2+y,1/2-x,1/2-z
x,y,-z
1/2-y,1/2+x,1/2-z
1/2-x,1/2+y,1/2+z
1/2+x,1/2-y,1/2+z
-y,-x,z
y,x,z
loop_
_atom_site_type_symbol
_atom_site_label
_atom_site_fract_x
_atom_site_fract_y
_atom_site_fract_z
Si Si1 0.118452 0.516604 0.500000
Si Si2 0.270778 0.729223 0.848823
Si Si3 0.770952 0.605340 0.000000
Si Si4 0.480601 0.759476 0.745766
Si Si5 0.606060 0.606060 0.353875
O O1 0.163043 0.626952 0.500000
O O2 0.166951 0.474760 0.366871
O O3 0.000000 0.500000 0.500000
O O4 0.365265 0.769713 0.771913
O O5 0.188906 0.811095 0.833358
O O6 0.294607 0.705394 0.000000
O O7 0.780941 0.535513 0.877759
O O8 0.676531 0.676531 0.000000
O O9 0.505978 0.646184 0.709643
O O10 0.581717 0.581717 0.500000
#
# Coordination Sequence:
#
# PCOD8318318 Si02
#       5
#     8   8   8  16   8
#     4  12  32  47  77 118 159 209 266 324 399 477
#     4  11  26  48  77 110 156 207 256 317 403 472
#     4  12  28  49  78 115 157 205 261 331 393 479
#     4  12  26  49  76 111 153 201 260 326 391 470
#     4  11  24  48  71 104 154 199 250 317 389 472
#
# _framework density 25.165884999999999
#
# number of rings (size 3 to 8) (size 9 to 14) (size 15 to 20)
#    0.000    0.333    5.000    2.000   11.667    0.667 
#    0.000    2.500    0.000    0.000    0.000    0.000 
#    0.000    0.000    0.000    0.000    0.000    0.000 
#
# Total GULP energy -594839.815033 kJ/mol
# GULP energy per Si atom -12392.496147 kJ/mol
# Density = 2.510861 g / cm^3
# Si number density = 25.165885 Si / 1000 Ang^3
#
#
#
# Elastic Constant Matrix: (Units=GPa)
#
#
# Indices 1 2 3 4 5 6 
#
# 1 72.9466 39.1130 34.5551 0.0000 0.0000 0.0000
# 2 39.1130 72.9470 34.5550 0.0000 0.0000 0.0000
# 3 34.5551 34.5550 195.6814 0.0000 0.0000 0.0000
# 4 0.0000 0.0000 0.0000 37.9700 0.0000 0.0000
# 5 0.0000 0.0000 0.0000 0.0000 37.9667 0.0000
# 6 0.0000 0.0000 0.0000 0.0000 0.0000 34.0912
#
#
#
# Elastic Compliance Matrix: (Units=1/GPa)
#
#
# Indices 1 2 3 4 5 6 
#
# 1 0.019785 -0.009771 -0.001768 0.000000 0.000000 0.000000
# 2 -0.009771 0.019785 -0.001768 0.000000 0.000000 0.000000
# 3 -0.001768 -0.001768 0.005735 0.000000 0.000000 0.000000
# 4 0.000000 0.000000 0.000000 0.026337 0.000000 0.000000
# 5 0.000000 0.000000 0.000000 0.000000 0.026339 0.000000
# 6 0.000000 0.000000 0.000000 0.000000 0.000000 0.029333
#
#
# Mechanical properties :
#
#
# Convention : Reuss Voigt Hill
#
# Bulk Modulus (GPa) = 53.50432 62.00233 57.75332
# Shear Modulus (GPa) = 31.21887 37.56241 34.39064
#
# Velocity S-wave (km/s) = 3.52593 3.86760 3.70071
# Velocity P-wave (km/s) = 6.15492 6.68097 6.42333
#
# Compressibility (1/GPa) = 0.01869008
#
# Stress axis : x y z
#
# Youngs Moduli (GPa) = 50.54232 50.54269 174.37050
#
# Poissons Ratio (x) = 0.49385 0.30837
# Poissons Ratio (y) = 0.49384 0.30836
# Poissons Ratio (z) = 0.08938 0.08938
#
# Static dielectric constant tensor:
#      x y z
#    x 4.780300 0.000000 0.000000 
#    y 0.000000 4.780300 0.000000 
#    z 0.000000 0.000000 2.592120 
# 
# 
# High freq. dielectric constant tensor:
#      x y z
#    x 2.000890 0.000000 0.000000 
#    y 0.000000 2.000890 0.000000 
#    z 0.000000 0.000000 2.033460 
# 
# From -- ./inp_files/3039.got.cif
#   From: 2010.03.12/outbox.cif.g09.slc.cpg/sg136_2_cif.got.tgz:3039.got - 2010.04.06 18:39:43.
