data_PCOD8318914
_publ_section_title
;
Structure prediction by ZEFSAII (Michael W. Deem and Ramdas Pophale) SiO2 
 PCOD8318914
Probable space group: P 42/N C M
;
_chemical_formula_sum "Si O2"
_cell_formula_units_Z 96
_cell_length_a 15.014777
_cell_length_b 15.014777
_cell_length_c 23.241468
_cell_angle_alpha 90.000000
_cell_angle_beta 90.000000
_cell_angle_gamma 90.000000
_cell_volume 5239.638550
_symmetry_space_group_name_H-M "P 42/N C M"
_symmetry_group_IT_number 138
_space_group.IT_coordinate_system_code '2'
_symmetry_cell_setting 'tetragonal'
loop_
_space_group_symop_operation_xyz
x,y,z
1/2-y,x,1/2+z
1/2-x,1/2-y,z
y,1/2-x,1/2+z
1/2+x,-y,1/2-z
-x,1/2+y,1/2-z
1/2+y,1/2+x,-z
-y,-x,-z
-x,-y,-z
1/2+y,-x,1/2-z
1/2+x,1/2+y,-z
-y,1/2+x,1/2-z
1/2-x,y,1/2+z
x,1/2-y,1/2+z
1/2-y,1/2-x,z
y,x,z
loop_
_atom_site_type_symbol
_atom_site_label
_atom_site_fract_x
_atom_site_fract_y
_atom_site_fract_z
Si Si1 0.878857 0.187181 0.743822
Si Si2 0.554073 0.800297 0.689355
Si Si3 0.409826 0.555165 0.630257
Si Si4 0.806514 0.952094 0.580842
Si Si5 0.825114 0.825114 0.886022
Si Si6 0.202742 0.053285 0.548001
Si Si7 0.824837 0.675163 0.256024
O O1 0.791050 0.139743 0.768745
O O2 0.909679 0.140857 0.685579
O O3 0.954593 0.176103 0.791812
O O4 0.615722 0.884279 0.703354
O O5 0.556407 0.779528 0.621492
O O6 0.587711 0.712277 0.723804
O O7 0.469355 0.469355 0.647363
O O8 0.468847 0.632057 0.603262
O O9 0.336884 0.530130 0.582366
O O10 0.858665 0.858665 0.581684
O O11 0.772294 0.975445 0.516820
O O12 0.750000 0.750000 0.884507
O O13 0.790262 0.912217 0.919034
O O14 0.851269 0.851269 0.820931
O O15 0.129795 0.129795 0.544529
O O16 0.750000 0.750000 0.254607
#
# Coordination Sequence:
#
# PCOD8318914 Si02
#       7
#    16  16  16  16   8  16   8
#     4  11  23  39  57  80 110 147 193 235 278 330
#     4  11  21  35  56  85 117 150 179 232 289 343
#     4  10  19  36  58  82 111 145 188 235 281 337
#     4  10  19  32  53  85 119 145 184 226 287 343
#     4   9  16  28  44  72 111 154 190 222 268 337
#     4   9  18  30  50  80 113 150 182 230 280 334
#     4   9  18  32  52  82 118 150 184 219 279 339
#
# _framework density 18.321874999999999
#
# number of rings (size 3 to 8) (size 9 to 14) (size 15 to 20)
#    0.000    2.000    2.500    2.000    1.167    4.667 
#    1.500    0.000    0.000    1.000    0.000    1.167 
#    0.000    0.000    0.000    0.000    0.000    0.000 
#
# Total GULP energy -1190558.997024 kJ/mol
# GULP energy per Si atom -12401.656219 kJ/mol
# Density = 1.828017 g / cm^3
# Si number density = 18.321875 Si / 1000 Ang^3
#
#
#
# Elastic Constant Matrix: (Units=GPa)
#
#
# Indices 1 2 3 4 5 6 
#
# 1 67.4091 27.3951 27.9976 0.0000 0.0000 0.0000
# 2 27.3951 67.4091 27.9976 0.0000 0.0000 0.0000
# 3 27.9976 27.9976 128.9121 0.0000 0.0000 0.0000
# 4 0.0000 0.0000 0.0000 7.5960 0.0000 0.0000
# 5 0.0000 0.0000 0.0000 0.0000 7.5960 0.0000
# 6 0.0000 0.0000 0.0000 0.0000 0.0000 19.2004
#
#
#
# Elastic Compliance Matrix: (Units=1/GPa)
#
#
# Indices 1 2 3 4 5 6 
#
# 1 0.018546 -0.006445 -0.002628 0.000000 0.000000 0.000000
# 2 -0.006445 0.018546 -0.002628 0.000000 0.000000 0.000000
# 3 -0.002628 -0.002628 0.008899 0.000000 0.000000 0.000000
# 4 0.000000 0.000000 0.000000 0.131649 0.000000 0.000000
# 5 0.000000 0.000000 0.000000 0.000000 0.131649 0.000000
# 6 0.000000 0.000000 0.000000 0.000000 0.000000 0.052082
#
#
# Mechanical properties :
#
#
# Convention : Reuss Voigt Hill
#
# Bulk Modulus (GPa) = 44.27264 47.83454 46.05359
# Shear Modulus (GPa) = 12.74528 18.90115 15.82321
#
# Velocity S-wave (km/s) = 2.64034 3.21536 2.94194
# Velocity P-wave (km/s) = 5.78891 6.32055 6.06056
#
# Compressibility (1/GPa) = 0.02258732
#
# Stress axis : x y z
#
# Youngs Moduli (GPa) = 53.92076 53.92076 112.37561
#
# Poissons Ratio (x) = 0.34755 0.29532
# Poissons Ratio (y) = 0.34755 0.29532
# Poissons Ratio (z) = 0.14170 0.14170
#
# Static dielectric constant tensor:
#      x y z
#    x 3.287090 0.000000 0.000000 
#    y 0.000000 3.287090 0.000000 
#    z 0.000000 0.000000 3.572550 
# 
# 
# High freq. dielectric constant tensor:
#      x y z
#    x 1.691290 0.000000 0.000000 
#    y 0.000000 1.691290 0.000000 
#    z 0.000000 0.000000 1.719460 
# 
# From -- ./inp_files/6288.got.cif
#   From: 2010.03.12/outbox.cif.g09.slc.cpg/sg138_4_cif.got.tgz:6288.got - 2010.04.08 09:41:05.
