data_PCOD8318584
_publ_section_title
;
Structure prediction by ZEFSAII (Michael W. Deem and Ramdas Pophale) SiO2 
 PCOD8318584
Probable space group: P 42/N M C
;
_chemical_formula_sum "Si O2"
_cell_formula_units_Z 112
_cell_length_a 14.921167
_cell_length_b 14.921167
_cell_length_c 24.637925
_cell_angle_alpha 90.000000
_cell_angle_beta 90.000000
_cell_angle_gamma 90.000000
_cell_volume 5485.417795
_symmetry_space_group_name_H-M "P 42/N M C"
_symmetry_group_IT_number 137
_space_group.IT_coordinate_system_code '2'
_symmetry_cell_setting 'tetragonal'
loop_
_space_group_symop_operation_xyz
x,y,z
1/2-y,x,1/2+z
1/2-x,1/2-y,z
y,1/2-x,1/2+z
1/2+x,-y,-z
-x,1/2+y,-z
1/2+y,1/2+x,1/2-z
-y,-x,1/2-z
-x,-y,-z
1/2+y,-x,1/2-z
1/2+x,1/2+y,-z
-y,1/2+x,1/2-z
1/2-x,y,z
x,1/2-y,z
1/2-y,1/2-x,1/2+z
y,x,1/2+z
loop_
_atom_site_type_symbol
_atom_site_label
_atom_site_fract_x
_atom_site_fract_y
_atom_site_fract_z
Si Si1 0.013048 0.352299 0.301465
Si Si2 0.350368 0.462540 0.370614
Si Si3 0.352478 0.973225 0.680368
Si Si4 0.405201 0.352519 0.470287
Si Si5 0.348200 0.854668 0.089956
Si Si6 0.152648 0.604836 0.968833
Si Si7 0.348541 0.037164 0.568192
O O1 0.024141 0.250000 0.320521
O O2 0.089355 0.412344 0.327454
O O3 0.914800 0.385159 0.319964
O O4 0.026062 0.362383 0.236779
O O5 0.250000 0.462640 0.347446
O O6 0.347220 0.411962 0.428813
O O7 0.385706 0.565787 0.374845
O O8 0.250000 0.940708 0.671886
O O9 0.381306 0.040152 0.631037
O O10 0.368757 0.250000 0.475938
O O11 0.504375 0.352029 0.445114
O O12 0.409310 0.402804 0.528781
O O13 0.250000 0.873343 0.118008
O O14 0.358824 0.750000 0.076590
O O15 0.352321 0.906402 0.033463
O O16 0.250000 0.648013 0.952833
O O17 0.068471 0.659029 0.946677
O O18 0.250000 0.079006 0.562820
#
# Coordination Sequence:
#
# PCOD8318584 Si02
#       7
#    16  16  16  16  16  16  16
#     4  10  21  39  61  85 115 151 190 242 299 351
#     4  11  22  36  59  87 116 157 201 243 289 344
#     4   9  21  39  60  84 110 146 193 244 302 351
#     4  11  23  35  50  78 115 154 192 229 280 344
#     4   9  18  33  53  82 118 152 189 235 290 345
#     4  10  20  33  52  80 113 149 187 231 282 342
#     4  11  21  34  53  77 109 147 183 228 282 343
#
# _framework density 20.417770999999998
#
# number of rings (size 3 to 8) (size 9 to 14) (size 15 to 20)
#    0.000    1.857    1.429    2.571    2.000    4.857 
#    0.000    3.571    0.000    6.000    0.000    0.000 
#    0.000    0.000    0.000    0.000    0.000    0.143 
#
# Total GULP energy -1388113.228109 kJ/mol
# GULP energy per Si atom -12393.868108 kJ/mol
# Density = 2.037130 g / cm^3
# Si number density = 20.417771 Si / 1000 Ang^3
#
#
#
# Elastic Constant Matrix: (Units=GPa)
#
#
# Indices 1 2 3 4 5 6 
#
# 1 106.9648 37.3504 39.7903 0.0000 0.0000 0.0000
# 2 37.3504 106.9648 39.7903 0.0000 0.0000 0.0000
# 3 39.7903 39.7903 91.8873 0.0000 0.0000 0.0000
# 4 0.0000 0.0000 0.0000 27.2488 0.0000 0.0000
# 5 0.0000 0.0000 0.0000 0.0000 27.2488 0.0000
# 6 0.0000 0.0000 0.0000 0.0000 0.0000 26.1127
#
#
#
# Elastic Compliance Matrix: (Units=1/GPa)
#
#
# Indices 1 2 3 4 5 6 
#
# 1 0.011734 -0.002631 -0.003942 0.000000 0.000000 0.000000
# 2 -0.002631 0.011734 -0.003942 0.000000 0.000000 0.000000
# 3 -0.003942 -0.003942 0.014297 0.000000 0.000000 0.000000
# 4 0.000000 0.000000 0.000000 0.036699 0.000000 0.000000
# 5 0.000000 0.000000 0.000000 0.000000 0.036699 0.000000
# 6 0.000000 0.000000 0.000000 0.000000 0.000000 0.038296
#
#
# Mechanical properties :
#
#
# Convention : Reuss Voigt Hill
#
# Bulk Modulus (GPa) = 59.75426 59.96435 59.85930
# Shear Modulus (GPa) = 28.39846 28.71444 28.55645
#
# Velocity S-wave (km/s) = 3.73348 3.75420 3.74385
# Velocity P-wave (km/s) = 6.92203 6.94438 6.93322
#
# Compressibility (1/GPa) = 0.01673521
#
# Stress axis : x y z
#
# Youngs Moduli (GPa) = 85.22302 85.22302 69.94548
#
# Poissons Ratio (x) = 0.22422 0.27572
# Poissons Ratio (y) = 0.22422 0.27572
# Poissons Ratio (z) = 0.33594 0.33594
#
# Static dielectric constant tensor:
#      x y z
#    x 3.675370 0.000000 0.000000 
#    y 0.000000 3.675370 0.000000 
#    z 0.000000 0.000000 3.610810 
# 
# 
# High freq. dielectric constant tensor:
#      x y z
#    x 1.795080 0.000000 0.000000 
#    y 0.000000 1.795080 0.000000 
#    z 0.000000 0.000000 1.776910 
# 
# From -- ./inp_files/9771.got.cif
#   From: 2010.03.12/outbox.cif.g09.slc.cpg/sg137_5_cif.got.tgz:9771.got - 2010.04.08 09:34:49.
