data_PCOD8318838
_publ_section_title
;
Structure prediction by ZEFSAII (Michael W. Deem and Ramdas Pophale) SiO2 
 PCOD8318838
Probable space group: P 42/N C M
;
_chemical_formula_sum "Si O2"
_cell_formula_units_Z 64
_cell_length_a 11.792578
_cell_length_b 11.792578
_cell_length_c 26.217350
_cell_angle_alpha 90.000000
_cell_angle_beta 90.000000
_cell_angle_gamma 90.000000
_cell_volume 3645.913048
_symmetry_space_group_name_H-M "P 42/N C M"
_symmetry_group_IT_number 138
_space_group.IT_coordinate_system_code '2'
_symmetry_cell_setting 'tetragonal'
loop_
_space_group_symop_operation_xyz
x,y,z
1/2-y,x,1/2+z
1/2-x,1/2-y,z
y,1/2-x,1/2+z
1/2+x,-y,1/2-z
-x,1/2+y,1/2-z
1/2+y,1/2+x,-z
-y,-x,-z
-x,-y,-z
1/2+y,-x,1/2-z
1/2+x,1/2+y,-z
-y,1/2+x,1/2-z
1/2-x,y,1/2+z
x,1/2-y,1/2+z
1/2-y,1/2-x,z
y,x,z
loop_
_atom_site_type_symbol
_atom_site_label
_atom_site_fract_x
_atom_site_fract_y
_atom_site_fract_z
Si Si1 0.158757 0.158757 0.977513
Si Si2 0.406875 0.724567 0.778217
Si Si3 0.836831 0.407289 0.553616
Si Si4 0.750000 0.250000 0.869087
Si Si5 0.409720 0.409720 0.084610
Si Si6 0.844268 0.655733 0.303555
O O1 0.250000 0.250000 0.959207
O O2 0.037615 0.194394 0.955118
O O3 0.154041 0.154041 0.038689
O O4 0.333946 0.617090 0.757546
O O5 0.363808 0.752783 0.835211
O O6 0.539098 0.695685 0.777292
O O7 0.839995 0.339995 0.500000
O O8 0.744466 0.358230 0.592936
O O9 0.956848 0.389498 0.581103
O O10 0.360143 0.360143 0.136484
O O11 0.750000 0.750000 0.292619
#
# Coordination Sequence:
#
# PCOD8318838 Si02
#       6
#     8  16  16   8   8   8
#     4   9  18  32  49  76 119 144 179 223 274 314
#     4   9  22  40  59  79 109 145 180 237 294 334
#     4   9  17  29  54  79 103 147 187 218 266 328
#     4  10  16  34  58  74 104 144 180 228 268 328
#     4   9  17  33  52  80 107 145 187 229 253 326
#     4  12  22  35  64  87 107 142 191 227 281 337
#
# _framework density 17.553901
#
# number of rings (size 3 to 8) (size 9 to 14) (size 15 to 20)
#    0.000    2.750    2.500    2.250    1.750    0.000 
#    0.000    1.250    2.750    3.000    0.000    0.000 
#    0.000    0.000    0.000    0.000    0.000    0.000 
#
# Total GULP energy -793258.519897 kJ/mol
# GULP energy per Si atom -12394.664373 kJ/mol
# Density = 1.751395 g / cm^3
# Si number density = 17.553901 Si / 1000 Ang^3
#
#
#
# Elastic Constant Matrix: (Units=GPa)
#
#
# Indices 1 2 3 4 5 6 
#
# 1 115.8463 68.7452 54.7226 0.0000 0.0000 0.0000
# 2 68.7452 115.8463 54.7226 0.0000 0.0000 0.0000
# 3 54.7226 54.7226 106.5441 0.0000 0.0000 0.0000
# 4 0.0000 0.0000 0.0000 22.0808 0.0000 0.0000
# 5 0.0000 0.0000 0.0000 0.0000 22.0808 0.0000
# 6 0.0000 0.0000 0.0000 0.0000 0.0000 26.9299
#
#
#
# Elastic Compliance Matrix: (Units=1/GPa)
#
#
# Indices 1 2 3 4 5 6 
#
# 1 0.014510 -0.006721 -0.004001 0.000000 0.000000 0.000000
# 2 -0.006721 0.014510 -0.004001 0.000000 0.000000 0.000000
# 3 -0.004001 -0.004001 0.013495 0.000000 0.000000 0.000000
# 4 0.000000 0.000000 0.000000 0.045288 0.000000 0.000000
# 5 0.000000 0.000000 0.000000 0.000000 0.045288 0.000000
# 6 0.000000 0.000000 0.000000 0.000000 0.000000 0.037133
#
#
# Mechanical properties :
#
#
# Convention : Reuss Voigt Hill
#
# Bulk Modulus (GPa) = 76.50350 77.17971 76.84161
# Shear Modulus (GPa) = 24.50651 24.88806 24.69729
#
# Velocity S-wave (km/s) = 3.74046 3.76946 3.75499
# Velocity P-wave (km/s) = 7.89502 7.93775 7.91641
#
# Compressibility (1/GPa) = 0.01307130
#
# Stress axis : x y z
#
# Youngs Moduli (GPa) = 68.91718 68.91718 74.09883
#
# Poissons Ratio (x) = 0.46317 0.29645
# Poissons Ratio (y) = 0.46317 0.29645
# Poissons Ratio (z) = 0.27572 0.27572
#
# Static dielectric constant tensor:
#      x y z
#    x 3.083050 0.000000 0.000000 
#    y 0.000000 3.083050 0.000000 
#    z 0.000000 0.000000 3.342380 
# 
# 
# High freq. dielectric constant tensor:
#      x y z
#    x 1.662370 0.000000 0.000000 
#    y 0.000000 1.662370 0.000000 
#    z 0.000000 0.000000 1.688640 
# 
# From -- ./inp_files/7352.got.cif
#   From: 2010.03.12/outbox.cif.g09.slc.cpg/sg138_4_cif.got.tgz:7352.got - 2010.04.08 09:41:05.
