data_PCOD8318450
_publ_section_title
;
Structure prediction by ZEFSAII (Michael W. Deem and Ramdas Pophale) SiO2 
 PCOD8318450
Probable space group: P 42/N M C
;
_chemical_formula_sum "Si O2"
_cell_formula_units_Z 80
_cell_length_a 13.684229
_cell_length_b 13.684229
_cell_length_c 26.756139
_cell_angle_alpha 90.000000
_cell_angle_beta 90.000000
_cell_angle_gamma 90.000000
_cell_volume 5010.304377
_symmetry_space_group_name_H-M "P 42/N M C"
_symmetry_group_IT_number 137
_space_group.IT_coordinate_system_code '2'
_symmetry_cell_setting 'tetragonal'
loop_
_space_group_symop_operation_xyz
x,y,z
1/2-y,x,1/2+z
1/2-x,1/2-y,z
y,1/2-x,1/2+z
1/2+x,-y,-z
-x,1/2+y,-z
1/2+y,1/2+x,1/2-z
-y,-x,1/2-z
-x,-y,-z
1/2+y,-x,1/2-z
1/2+x,1/2+y,-z
-y,1/2+x,1/2-z
1/2-x,y,z
x,1/2-y,z
1/2-y,1/2-x,1/2+z
y,x,1/2+z
loop_
_atom_site_type_symbol
_atom_site_label
_atom_site_fract_x
_atom_site_fract_y
_atom_site_fract_z
Si Si1 0.359533 0.137957 0.948566
Si Si2 0.138826 0.553100 0.399186
Si Si3 0.634845 0.537668 0.951314
Si Si4 0.134772 0.142591 0.146137
Si Si5 0.134262 0.951002 0.200092
O O1 0.250000 0.105169 0.931917
O O2 0.357182 0.250000 0.966554
O O3 0.435031 0.123519 0.902703
O O4 0.401251 0.074320 0.994810
O O5 0.250000 0.581140 0.411264
O O6 0.113674 0.590434 0.344270
O O7 0.074185 0.604736 0.441831
O O8 0.750000 0.546705 0.949693
O O9 0.590148 0.603926 0.906394
O O10 0.250000 0.150420 0.140162
O O11 0.090810 0.250000 0.158905
O O12 0.110401 0.065325 0.190094
O O13 0.080236 0.919765 0.250000
O O14 0.250000 0.931789 0.203989
#
# Coordination Sequence:
#
# PCOD8318450 Si02
#       5
#    16  16  16  16  16
#     4   9  17  29  44  62  86 116 146 177 216 257
#     4  10  19  29  42  62  88 116 147 180 211 251
#     4   9  16  26  43  65  88 114 141 171 210 257
#     4   8  14  26  44  65  86 107 136 175 212 245
#     4  10  20  32  46  64  87 115 144 175 213 258
#
# _framework density 15.967093999999999
#
# number of rings (size 3 to 8) (size 9 to 14) (size 15 to 20)
#    0.000    2.800    0.000    3.600    0.000    5.000 
#    0.000    1.000    0.000    4.800    0.000    0.000 
#    0.000    6.800    0.000    0.000    0.000    0.000 
#
# Total GULP energy -991419.677924 kJ/mol
# GULP energy per Si atom -12392.745974 kJ/mol
# Density = 1.593075 g / cm^3
# Si number density = 15.967094 Si / 1000 Ang^3
#
#
#
# Elastic Constant Matrix: (Units=GPa)
#
#
# Indices 1 2 3 4 5 6 
#
# 1 72.8038 22.8856 39.1505 0.0000 0.0000 0.0000
# 2 22.8856 72.8028 39.1487 0.0000 0.0000 0.0000
# 3 39.1505 39.1487 54.6149 0.0000 0.0000 0.0000
# 4 0.0000 0.0000 0.0000 20.1041 0.0000 0.0000
# 5 0.0000 0.0000 0.0000 0.0000 20.1047 0.0000
# 6 0.0000 0.0000 0.0000 0.0000 0.0000 16.6309
#
#
#
# Elastic Compliance Matrix: (Units=1/GPa)
#
#
# Indices 1 2 3 4 5 6 
#
# 1 0.022655 0.002622 -0.018120 0.000000 0.000000 0.000000
# 2 0.002622 0.022655 -0.018119 0.000000 0.000000 0.000000
# 3 -0.018120 -0.018119 0.044287 0.000000 0.000000 0.000000
# 4 0.000000 0.000000 0.000000 0.049741 0.000000 0.000000
# 5 0.000000 0.000000 0.000000 0.000000 0.049740 0.000000
# 6 0.000000 0.000000 0.000000 0.000000 0.000000 0.060129
#
#
# Mechanical properties :
#
#
# Convention : Reuss Voigt Hill
#
# Bulk Modulus (GPa) = 44.71531 44.73234 44.72383
# Shear Modulus (GPa) = 15.43715 17.97040 16.70377
#
# Velocity S-wave (km/s) = 3.11273 3.35843 3.23791
# Velocity P-wave (km/s) = 6.40189 6.56620 6.48457
#
# Compressibility (1/GPa) = 0.02236370
#
# Stress axis : x y z
#
# Youngs Moduli (GPa) = 44.13962 44.14128 22.58006
#
# Poissons Ratio (x) = -0.11574 0.40915
# Poissons Ratio (y) = -0.11573 0.40912
# Poissons Ratio (z) = 0.79981 0.79978
#
# Static dielectric constant tensor:
#      x y z
#    x 3.125340 0.000000 0.000000 
#    y 0.000000 3.125340 0.000000 
#    z 0.000000 0.000000 2.937670 
# 
# 
# High freq. dielectric constant tensor:
#      x y z
#    x 1.606090 0.000000 0.000000 
#    y 0.000000 1.606090 0.000000 
#    z 0.000000 0.000000 1.594220 
# 
# From -- ./inp_files/8693.got.cif
#   From: 2010.03.12/outbox.cif.g09.slc.cpg/sg137_5_cif.got.tgz:8693.got - 2010.04.08 09:34:49.
