data_PCOD8318625
_publ_section_title
;
Structure prediction by ZEFSAII (Michael W. Deem and Ramdas Pophale) SiO2 
 PCOD8318625
Probable space group: P 42/N M C
;
_chemical_formula_sum "Si O2"
_cell_formula_units_Z 112
_cell_length_a 14.827480
_cell_length_b 14.827480
_cell_length_c 23.645097
_cell_angle_alpha 90.000000
_cell_angle_beta 90.000000
_cell_angle_gamma 90.000000
_cell_volume 5198.473014
_symmetry_space_group_name_H-M "P 42/N M C"
_symmetry_group_IT_number 137
_space_group.IT_coordinate_system_code '2'
_symmetry_cell_setting 'tetragonal'
loop_
_space_group_symop_operation_xyz
x,y,z
1/2-y,x,1/2+z
1/2-x,1/2-y,z
y,1/2-x,1/2+z
1/2+x,-y,-z
-x,1/2+y,-z
1/2+y,1/2+x,1/2-z
-y,-x,1/2-z
-x,-y,-z
1/2+y,-x,1/2-z
1/2+x,1/2+y,-z
-y,1/2+x,1/2-z
1/2-x,y,z
x,1/2-y,z
1/2-y,1/2-x,1/2+z
y,x,1/2+z
loop_
_atom_site_type_symbol
_atom_site_label
_atom_site_fract_x
_atom_site_fract_y
_atom_site_fract_z
Si Si1 0.645151 0.465871 0.531001
Si Si2 0.481976 0.846213 0.274321
Si Si3 0.850704 0.650922 0.580607
Si Si4 0.393291 0.351683 0.293234
Si Si5 0.851622 0.498785 0.904122
Si Si6 0.600492 0.149074 0.311276
Si Si7 0.350871 0.501760 0.595349
O O1 0.750000 0.457866 0.550820
O O2 0.604920 0.566342 0.547156
O O3 0.584836 0.390506 0.560549
O O4 0.635765 0.448031 0.464381
O O5 0.428770 0.928770 0.250000
O O6 0.446593 0.750000 0.250659
O O7 0.586512 0.855455 0.256803
O O8 0.466638 0.847063 0.340372
O O9 0.750000 0.660014 0.557208
O O10 0.899354 0.750000 0.571147
O O11 0.846101 0.627867 0.647061
O O12 0.375067 0.250000 0.273105
O O13 0.497059 0.372666 0.302333
O O14 0.750000 0.522137 0.926027
O O15 0.915098 0.585654 0.904800
O O16 0.647177 0.147177 0.250000
O O17 0.615843 0.250000 0.336466
O O18 0.635952 0.073878 0.354516
O O19 0.250000 0.463328 0.600582
#
# Coordination Sequence:
#
# PCOD8318625 Si02
#       7
#    16  16  16  16  16  16  16
#     4  10  22  41  65  91 121 159 205 258 310 366
#     4  11  23  38  58  85 120 163 210 258 306 359
#     4   9  17  31  55  88 122 157 202 255 308 360
#     4  10  20  35  59  89 121 159 201 250 309 370
#     4  11  25  42  61  88 123 164 208 255 309 366
#     4  11  23  39  62  91 123 157 194 244 308 379
#     4  11  24  42  65  92 123 162 206 250 303 369
#
# _framework density 21.544789000000002
#
# number of rings (size 3 to 8) (size 9 to 14) (size 15 to 20)
#    0.000    1.571    0.000    5.143    0.000    7.143 
#    0.000    7.143    0.000    0.000    0.000    0.000 
#    0.000    0.000    0.000    0.000    0.000    0.143 
#
# Total GULP energy -1388209.253665 kJ/mol
# GULP energy per Si atom -12394.725479 kJ/mol
# Density = 2.149575 g / cm^3
# Si number density = 21.544789 Si / 1000 Ang^3
#
#
#
# Elastic Constant Matrix: (Units=GPa)
#
#
# Indices 1 2 3 4 5 6 
#
# 1 124.9770 66.0708 48.6887 0.0000 0.0000 0.0000
# 2 66.0708 124.9770 48.6887 0.0000 0.0000 0.0000
# 3 48.6887 48.6887 106.6195 0.0000 0.0000 0.0000
# 4 0.0000 0.0000 0.0000 19.4601 0.0000 0.0000
# 5 0.0000 0.0000 0.0000 0.0000 19.4601 0.0000
# 6 0.0000 0.0000 0.0000 0.0000 0.0000 0.0954
#
#
#
# Elastic Compliance Matrix: (Units=1/GPa)
#
#
# Indices 1 2 3 4 5 6 
#
# 1 0.011899 -0.005077 -0.003115 0.000000 0.000000 0.000000
# 2 -0.005077 0.011899 -0.003115 0.000000 0.000000 0.000000
# 3 -0.003115 -0.003115 0.012225 0.000000 0.000000 0.000000
# 4 0.000000 0.000000 0.000000 0.051387 0.000000 0.000000
# 5 0.000000 0.000000 0.000000 0.000000 0.051387 0.000000
# 6 0.000000 0.000000 0.000000 0.000000 0.000000 10.487135
#
#
# Mechanical properties :
#
#
# Convention : Reuss Voigt Hill
#
# Bulk Modulus (GPa) = 74.58640 75.94108 75.26374
# Shear Modulus (GPa) = 0.46935 20.67816 10.57375
#
# Velocity S-wave (km/s) = 0.46725 3.10138 2.21776
# Velocity P-wave (km/s) = 5.91485 6.93897 6.44728
#
# Compressibility (1/GPa) = 0.01340727
#
# Stress axis : x y z
#
# Youngs Moduli (GPa) = 84.03940 84.03940 81.80285
#
# Poissons Ratio (x) = 0.42666 0.25485
# Poissons Ratio (y) = 0.42666 0.25485
# Poissons Ratio (z) = 0.26182 0.26182
#
# Static dielectric constant tensor:
#      x y z
#    x 4.108320 0.000000 0.000000 
#    y 0.000000 4.108320 0.000000 
#    z 0.000000 0.000000 4.003600 
# 
# 
# High freq. dielectric constant tensor:
#      x y z
#    x 1.848170 0.000000 0.000000 
#    y 0.000000 1.848170 0.000000 
#    z 0.000000 0.000000 1.843720 
# 
# From -- ./inp_files/8949.got.cif
#   From: 2010.03.12/outbox.cif.g09.slc.cpg/sg137_5_cif.got.tgz:8949.got - 2010.04.08 09:34:49.
