data_PCOD8318388
_publ_section_title
;
Structure prediction by ZEFSAII (Michael W. Deem and Ramdas Pophale) SiO2 
 PCOD8318388
Probable space group: P 42/N M C
;
_chemical_formula_sum "Si O2"
_cell_formula_units_Z 96
_cell_length_a 14.308037
_cell_length_b 14.308037
_cell_length_c 30.350045
_cell_angle_alpha 90.000000
_cell_angle_beta 90.000000
_cell_angle_gamma 90.000000
_cell_volume 6213.258869
_symmetry_space_group_name_H-M "P 42/N M C"
_symmetry_group_IT_number 137
_space_group.IT_coordinate_system_code '2'
_symmetry_cell_setting 'tetragonal'
loop_
_space_group_symop_operation_xyz
x,y,z
1/2-y,x,1/2+z
1/2-x,1/2-y,z
y,1/2-x,1/2+z
1/2+x,-y,-z
-x,1/2+y,-z
1/2+y,1/2+x,1/2-z
-y,-x,1/2-z
-x,-y,-z
1/2+y,-x,1/2-z
1/2+x,1/2+y,-z
-y,1/2+x,1/2-z
1/2-x,y,z
x,1/2-y,z
1/2-y,1/2-x,1/2+z
y,x,1/2+z
loop_
_atom_site_type_symbol
_atom_site_label
_atom_site_fract_x
_atom_site_fract_y
_atom_site_fract_z
Si Si1 0.860824 0.853198 0.436216
Si Si2 0.642267 0.501847 0.267491
Si Si3 0.361002 0.354181 0.966572
Si Si4 0.853941 0.860525 0.696142
Si Si5 0.639132 0.976001 0.114269
Si Si6 0.858689 0.009102 0.369067
O O1 0.750000 0.845648 0.435202
O O2 0.903622 0.750000 0.427034
O O3 0.890690 0.890219 0.484783
O O4 0.895934 0.923547 0.398734
O O5 0.587746 0.412255 0.250000
O O6 0.750000 0.479723 0.257422
O O7 0.609639 0.594349 0.241229
O O8 0.624789 0.520766 0.318756
O O9 0.250000 0.347903 0.963911
O O10 0.401983 0.250000 0.957362
O O11 0.398433 0.426893 0.930261
O O12 0.750000 0.905122 0.695876
O O13 0.845260 0.750000 0.692618
O O14 0.913069 0.897951 0.654704
O O15 0.750000 0.985833 0.114657
O O16 0.599192 0.080438 0.118402
O O17 0.750000 0.033053 0.378180
#
# Coordination Sequence:
#
# PCOD8318388 Si02
#       6
#    16  16  16  16  16  16
#     4   8  15  29  46  64  87 113 144 184 226 264
#     4  10  19  31  44  61  87 119 151 178 207 251
#     4   8  14  26  45  66  87 113 145 182 225 266
#     4   9  17  29  45  64  85 109 140 182 226 257
#     4  10  18  28  43  64  91 120 147 177 213 256
#     4  10  20  30  43  63  89 121 152 179 210 257
#
# _framework density 15.450829000000001
#
# number of rings (size 3 to 8) (size 9 to 14) (size 15 to 20)
#    0.000    2.833    1.667    1.500    0.000    3.833 
#    0.000    5.000    0.000    0.000    0.000    0.000 
#    0.000    4.333    0.000    0.000    0.000    0.000 
#
# Total GULP energy -1189963.402959 kJ/mol
# GULP energy per Si atom -12395.452114 kJ/mol
# Density = 1.541566 g / cm^3
# Si number density = 15.450829 Si / 1000 Ang^3
#
#
#
# Elastic Constant Matrix: (Units=GPa)
#
#
# Indices 1 2 3 4 5 6 
#
# 1 64.6172 37.4268 48.5077 0.0000 0.0000 0.0000
# 2 37.4268 64.6189 48.5072 0.0000 0.0000 0.0000
# 3 48.5077 48.5072 134.3968 0.0000 0.0000 0.0000
# 4 0.0000 0.0000 0.0000 21.5076 0.0000 0.0000
# 5 0.0000 0.0000 0.0000 0.0000 21.5077 0.0000
# 6 0.0000 0.0000 0.0000 0.0000 0.0000 11.9552
#
#
#
# Elastic Compliance Matrix: (Units=1/GPa)
#
#
# Indices 1 2 3 4 5 6 
#
# 1 0.025848 -0.010929 -0.005385 0.000000 0.000000 0.000000
# 2 -0.010929 0.025847 -0.005384 0.000000 0.000000 0.000000
# 3 -0.005385 -0.005384 0.011328 0.000000 0.000000 0.000000
# 4 0.000000 0.000000 0.000000 0.046495 0.000000 0.000000
# 5 0.000000 0.000000 0.000000 0.000000 0.046495 0.000000
# 6 0.000000 0.000000 0.000000 0.000000 0.000000 0.083646
#
#
# Mechanical properties :
#
#
# Convention : Reuss Voigt Hill
#
# Bulk Modulus (GPa) = 50.95087 59.16847 55.05967
# Shear Modulus (GPa) = 17.26538 19.60685 18.43611
#
# Velocity S-wave (km/s) = 3.34644 3.56614 3.45804
# Velocity P-wave (km/s) = 6.92671 7.43871 7.18727
#
# Compressibility (1/GPa) = 0.01962675
#
# Stress axis : x y z
#
# Youngs Moduli (GPa) = 38.68733 38.68913 88.28035
#
# Poissons Ratio (x) = 0.42283 0.47538
# Poissons Ratio (y) = 0.42281 0.47533
# Poissons Ratio (z) = 0.20833 0.20831
#
# Static dielectric constant tensor:
#      x y z
#    x 2.827090 0.000000 0.000000 
#    y 0.000000 2.827090 0.000000 
#    z 0.000000 0.000000 3.323660 
# 
# 
# High freq. dielectric constant tensor:
#      x y z
#    x 1.561760 0.000000 0.000000 
#    y 0.000000 1.561760 0.000000 
#    z 0.000000 0.000000 1.611730 
# 
# From -- ./inp_files/10572.got.cif
#   From: 2010.03.12/outbox.cif.g09.slc.cpg/sg137_6_cif.got.tgz:10572.got - 2010.04.08 09:34:49.
