data_PCOD8318245
_publ_section_title
;
Structure prediction by ZEFSAII (Michael W. Deem and Ramdas Pophale) SiO2 
 PCOD8318245
Probable space group: P 42/M N M
;
_chemical_formula_sum "Si O2"
_cell_formula_units_Z 72
_cell_length_a 14.299386
_cell_length_b 14.299386
_cell_length_c 17.566426
_cell_angle_alpha 90.000000
_cell_angle_beta 90.000000
_cell_angle_gamma 90.000000
_cell_volume 3591.849986
_symmetry_space_group_name_H-M "P 42/M N M"
_symmetry_group_IT_number 136
_symmetry_cell_setting 'tetragonal'
loop_
_space_group_symop_operation_xyz
x,y,z
1/2-y,1/2+x,1/2+z
-x,-y,z
1/2+y,1/2-x,1/2+z
1/2+x,1/2-y,1/2-z
1/2-x,1/2+y,1/2-z
y,x,-z
-y,-x,-z
-x,-y,-z
1/2+y,1/2-x,1/2-z
x,y,-z
1/2-y,1/2+x,1/2-z
1/2-x,1/2+y,1/2+z
1/2+x,1/2-y,1/2+z
-y,-x,z
y,x,z
loop_
_atom_site_type_symbol
_atom_site_label
_atom_site_fract_x
_atom_site_fract_y
_atom_site_fract_z
Si Si1 0.926496 0.073505 0.417982
Si Si2 0.314054 0.838001 0.588607
Si Si3 0.785368 0.785368 0.587707
Si Si4 0.129239 0.870762 0.087907
Si Si5 0.745228 0.482972 0.841600
Si Si6 0.550384 0.296996 0.674300
O O1 0.885478 0.114523 0.500000
O O2 0.979318 0.145707 0.365613
O O3 0.000000 0.000000 0.446462
O O4 0.333976 0.845927 0.500000
O O5 0.213151 0.786850 0.605284
O O6 0.397623 0.778368 0.622890
O O7 0.319060 0.942151 0.624446
O O8 0.808192 0.808192 0.500000
O O9 0.707435 0.707435 0.597333
O O10 0.742871 0.878200 0.626569
O O11 0.035302 0.836575 0.127074
O O12 0.107830 0.892171 0.000000
O O13 0.754220 0.483869 0.750661
O O14 0.618659 0.381342 0.697752
#
# Coordination Sequence:
#
# PCOD8318245 Si02
#       6
#     8  16   8   8  16  16
#     4  11  19  30  54  92 131 162 200 253 318 388
#     4  10  22  40  65  96 130 169 213 265 325 390
#     4  11  24  41  63  93 129 172 214 261 326 389
#     4  11  26  45  67  89 126 174 226 274 314 374
#     4  12  22  36  63  96 135 164 206 264 326 390
#     4  11  24  41  67  97 127 168 218 271 326 380
#
# _framework density 20.045382
#
# number of rings (size 3 to 8) (size 9 to 14) (size 15 to 20)
#    0.000    1.000    3.333    3.667    3.111    1.778 
#    0.000    1.111    0.000    4.000    0.000    0.000 
#    0.000    0.000    0.000    0.000    0.000    0.000 
#
# Total GULP energy -892757.060808 kJ/mol
# GULP energy per Si atom -12399.403622 kJ/mol
# Density = 1.999976 g / cm^3
# Si number density = 20.045382 Si / 1000 Ang^3
#
#
#
# Elastic Constant Matrix: (Units=GPa)
#
#
# Indices 1 2 3 4 5 6 
#
# 1 159.4469 -19.6338 55.3663 0.0000 0.0000 0.0000
# 2 -19.6338 159.4413 55.3714 0.0000 0.0000 0.0000
# 3 55.3663 55.3714 171.8203 0.0000 0.0000 0.0000
# 4 0.0000 0.0000 0.0000 35.7502 0.0000 0.0000
# 5 0.0000 0.0000 0.0000 0.0000 35.7502 0.0000
# 6 0.0000 0.0000 0.0000 0.0000 0.0000 30.3196
#
#
#
# Elastic Compliance Matrix: (Units=1/GPa)
#
#
# Indices 1 2 3 4 5 6 
#
# 1 0.007594 0.002010 -0.003095 0.000000 0.000000 0.000000
# 2 0.002010 0.007594 -0.003095 0.000000 0.000000 0.000000
# 3 -0.003095 -0.003095 0.007815 0.000000 0.000000 0.000000
# 4 0.000000 0.000000 0.000000 0.027972 0.000000 0.000000
# 5 0.000000 0.000000 0.000000 0.000000 0.027972 0.000000
# 6 0.000000 0.000000 0.000000 0.000000 0.000000 0.032982
#
#
# Mechanical properties :
#
#
# Convention : Reuss Voigt Hill
#
# Bulk Modulus (GPa) = 68.29200 74.76849 71.53025
# Shear Modulus (GPa) = 39.94600 47.00430 43.47515
#
# Velocity S-wave (km/s) = 4.46890 4.84766 4.66213
# Velocity P-wave (km/s) = 7.79556 8.28937 8.04625
#
# Compressibility (1/GPa) = 0.01464300
#
# Stress axis : x y z
#
# Youngs Moduli (GPa) = 131.68721 131.67888 127.96495
#
# Poissons Ratio (x) = -0.26465 0.39601
# Poissons Ratio (y) = -0.26467 0.39605
# Poissons Ratio (z) = 0.40753 0.40754
#
# Static dielectric constant tensor:
#      x y z
#    x 3.665430 0.000000 0.000000 
#    y 0.000000 3.665430 0.000000 
#    z 0.000000 0.000000 3.804120 
# 
# 
# High freq. dielectric constant tensor:
#      x y z
#    x 1.778250 0.000000 0.000000 
#    y 0.000000 1.778250 0.000000 
#    z 0.000000 0.000000 1.803650 
# 
# From -- ./inp_files/6145.got.cif
#   From: 2010.03.12/outbox.cif.g09.slc.cpg/sg136_4_cif.got.tgz:6145.got - 2010.04.06 18:39:43.
