data_PCOD8318420
_publ_section_title
;
Structure prediction by ZEFSAII (Michael W. Deem and Ramdas Pophale) SiO2 
 PCOD8318420
Probable space group: P 42/N M C
;
_chemical_formula_sum "Si O2"
_cell_formula_units_Z 128
_cell_length_a 22.697562
_cell_length_b 22.697562
_cell_length_c 15.420986
_cell_angle_alpha 90.000000
_cell_angle_beta 90.000000
_cell_angle_gamma 90.000000
_cell_volume 7944.573093
_symmetry_space_group_name_H-M "P 42/N M C"
_symmetry_group_IT_number 137
_space_group.IT_coordinate_system_code '2'
_symmetry_cell_setting 'tetragonal'
loop_
_space_group_symop_operation_xyz
x,y,z
1/2-y,x,1/2+z
1/2-x,1/2-y,z
y,1/2-x,1/2+z
1/2+x,-y,-z
-x,1/2+y,-z
1/2+y,1/2+x,1/2-z
-y,-x,1/2-z
-x,-y,-z
1/2+y,-x,1/2-z
1/2+x,1/2+y,-z
-y,1/2+x,1/2-z
1/2-x,y,z
x,1/2-y,z
1/2-y,1/2-x,1/2+z
y,x,1/2+z
loop_
_atom_site_type_symbol
_atom_site_label
_atom_site_fract_x
_atom_site_fract_y
_atom_site_fract_z
Si Si1 0.567650 0.490434 0.490371
Si Si2 0.685139 0.814608 0.509390
Si Si3 0.966606 0.683659 0.617861
Si Si4 0.180397 0.062560 0.221940
Si Si5 0.621277 0.582813 0.949885
Si Si6 0.183798 0.344501 0.800385
Si Si7 0.496758 0.577692 0.183410
Si Si8 0.580455 0.035287 0.164538
O O1 0.500000 0.500000 0.500000
O O2 0.591361 0.551274 0.450010
O O3 0.592024 0.471964 0.585892
O O4 0.575361 0.439916 0.417624
O O5 0.750000 0.812618 0.470879
O O6 0.654626 0.750000 0.507668
O O7 0.649886 0.856834 0.446139
O O8 0.685593 0.835217 0.608990
O O9 0.984287 0.750000 0.591463
O O10 0.948311 0.645132 0.535319
O O11 0.914919 0.683869 0.688973
O O12 0.022776 0.650110 0.657167
O O13 0.250000 0.043671 0.224113
O O14 0.148456 0.047401 0.130952
O O15 0.176029 0.133338 0.234227
O O16 0.140441 0.025477 0.289327
O O17 0.250000 0.323572 0.771694
O O18 0.445447 0.554554 0.250000
O O19 0.546257 0.527227 0.174493
O O20 0.573639 0.073639 0.250000
#
# Coordination Sequence:
#
# PCOD8318420 Si02
#       8
#    16  16  16  16  16  16  16  16
#     4  10  18  31  50  69  92 120 163 205 241 300
#     4   9  17  30  44  56  78 120 168 207 243 282
#     4  10  18  31  49  67  95 126 157 197 248 292
#     4  12  22  30  44  67  94 127 169 209 245 290
#     4  11  19  31  43  65  93 121 162 206 248 284
#     4   9  18  31  43  59  86 124 166 204 241 282
#     4  10  19  33  50  68  94 127 160 205 251 297
#     4  10  18  31  53  75  92 124 163 200 243 296
#
# _framework density 16.111626999999999
#
# number of rings (size 3 to 8) (size 9 to 14) (size 15 to 20)
#    0.000    1.875    3.750    5.250    0.000    1.250 
#    0.000    0.000    0.000    0.750    0.000    0.000 
#    0.000    0.500    0.000    0.000    0.000    0.250 
#
# Total GULP energy -1585774.556423 kJ/mol
# GULP energy per Si atom -12388.863722 kJ/mol
# Density = 1.607496 g / cm^3
# Si number density = 16.111627 Si / 1000 Ang^3
#
#
#
# Elastic Constant Matrix: (Units=GPa)
#
#
# Indices 1 2 3 4 5 6 
#
# 1 58.8216 35.3024 21.9062 0.0000 0.0000 0.0000
# 2 35.3024 58.8216 21.9059 0.0000 0.0000 0.0000
# 3 21.9062 21.9059 77.2833 0.0000 0.0000 0.0000
# 4 0.0000 0.0000 0.0000 12.9850 0.0000 0.0000
# 5 0.0000 0.0000 0.0000 0.0000 12.9850 0.0000
# 6 0.0000 0.0000 0.0000 0.0000 0.0000 24.2341
#
#
#
# Elastic Compliance Matrix: (Units=1/GPa)
#
#
# Indices 1 2 3 4 5 6 
#
# 1 0.027379 -0.015140 -0.003469 0.000000 0.000000 0.000000
# 2 -0.015140 0.027379 -0.003469 0.000000 0.000000 0.000000
# 3 -0.003469 -0.003469 0.014906 0.000000 0.000000 0.000000
# 4 0.000000 0.000000 0.000000 0.077012 0.000000 0.000000
# 5 0.000000 0.000000 0.000000 0.000000 0.077012 0.000000
# 6 0.000000 0.000000 0.000000 0.000000 0.000000 0.041264
#
#
# Mechanical properties :
#
#
# Convention : Reuss Voigt Hill
#
# Bulk Modulus (GPa) = 39.20409 39.23949 39.22179
# Shear Modulus (GPa) = 15.74257 17.76162 16.75210
#
# Velocity S-wave (km/s) = 3.12924 3.32386 3.22802
# Velocity P-wave (km/s) = 6.11897 6.25606 6.18790
#
# Compressibility (1/GPa) = 0.02550754
#
# Stress axis : x y z
#
# Youngs Moduli (GPa) = 36.52465 36.52481 67.08667
#
# Poissons Ratio (x) = 0.55297 0.23274
# Poissons Ratio (y) = 0.55297 0.23273
# Poissons Ratio (z) = 0.12671 0.12671
#
# Static dielectric constant tensor:
#      x y z
#    x 3.047070 0.000000 0.000000 
#    y 0.000000 3.047070 0.000000 
#    z 0.000000 0.000000 3.708130 
# 
# 
# High freq. dielectric constant tensor:
#      x y z
#    x 1.585730 0.000000 0.000000 
#    y 0.000000 1.585730 0.000000 
#    z 0.000000 0.000000 1.630160 
# 
# From -- ./inp_files/6862.got.cif
#   From: 2010.03.12/outbox.cif.g09.slc.cpg/sg137_4_cif.got.tgz:6862.got - 2010.04.08 09:34:49.
