data_PCOD8318839
_publ_section_title
;
Structure prediction by ZEFSAII (Michael W. Deem and Ramdas Pophale) SiO2 
 PCOD8318839
Probable space group: P 42/N C M
;
_chemical_formula_sum "Si O2"
_cell_formula_units_Z 128
_cell_length_a 16.860677
_cell_length_b 16.860677
_cell_length_c 27.661975
_cell_angle_alpha 90.000000
_cell_angle_beta 90.000000
_cell_angle_gamma 90.000000
_cell_volume 7863.813441
_symmetry_space_group_name_H-M "P 42/N C M"
_symmetry_group_IT_number 138
_space_group.IT_coordinate_system_code '2'
_symmetry_cell_setting 'tetragonal'
loop_
_space_group_symop_operation_xyz
x,y,z
1/2-y,x,1/2+z
1/2-x,1/2-y,z
y,1/2-x,1/2+z
1/2+x,-y,1/2-z
-x,1/2+y,1/2-z
1/2+y,1/2+x,-z
-y,-x,-z
-x,-y,-z
1/2+y,-x,1/2-z
1/2+x,1/2+y,-z
-y,1/2+x,1/2-z
1/2-x,y,1/2+z
x,1/2-y,1/2+z
1/2-y,1/2-x,z
y,x,z
loop_
_atom_site_type_symbol
_atom_site_label
_atom_site_fract_x
_atom_site_fract_y
_atom_site_fract_z
Si Si1 0.422327 0.720219 0.950797
Si Si2 0.707852 0.086788 0.557733
Si Si3 0.522873 0.845998 0.373369
Si Si4 0.812827 0.350461 0.772841
Si Si5 0.685603 0.317784 0.385375
Si Si6 0.526868 0.101372 0.365169
Si Si7 0.017303 0.355178 0.263160
Si Si8 0.621493 0.749507 0.300113
O O1 0.348519 0.661136 0.951904
O O2 0.502259 0.687033 0.926391
O O3 0.394974 0.794222 0.917660
O O4 0.445022 0.740976 0.006263
O O5 0.782750 0.105315 0.591987
O O6 0.656057 0.023699 0.587424
O O7 0.592084 0.907917 0.380486
O O8 0.441141 0.887486 0.353576
O O9 0.554733 0.775333 0.339005
O O10 0.779712 0.145360 0.757357
O O11 0.823841 0.337950 0.829507
O O12 0.856573 0.433055 0.763271
O O13 0.750000 0.250000 0.390664
O O14 0.499353 0.154485 0.320067
O O15 0.467563 0.032438 0.378029
O O16 0.060673 0.439328 0.252765
O O17 0.073415 0.282649 0.246317
O O18 0.674770 0.825231 0.284424
O O19 0.679403 0.679403 0.320560
#
# Coordination Sequence:
#
# PCOD8318839 Si02
#       8
#    16  16  16  16  16  16  16  16
#     4   9  17  26  43  62  88 122 149 188 229 276
#     4   9  17  28  41  62  89 121 155 186 226 275
#     4   9  17  29  46  68  91 118 151 195 240 284
#     4  11  21  31  48  72  95 129 160 197 239 292
#     4  10  17  28  41  63  92 118 154 190 227 271
#     4   9  18  30  44  62  92 123 149 188 238 282
#     4  10  21  33  47  70  98 127 160 198 241 290
#     4   9  18  33  51  70  94 126 164 203 241 286
#
# _framework density 16.277090000000001
#
# number of rings (size 3 to 8) (size 9 to 14) (size 15 to 20)
#    0.000    2.500    1.250    1.875    5.250    2.000 
#    0.000    2.500    0.000    0.000    0.000    1.750 
#    0.000    8.000    0.000    0.000    0.000    0.000 
#
# Total GULP energy -1585943.292201 kJ/mol
# GULP energy per Si atom -12390.181970 kJ/mol
# Density = 1.624004 g / cm^3
# Si number density = 16.277090 Si / 1000 Ang^3
#
#
#
# Elastic Constant Matrix: (Units=GPa)
#
#
# Indices 1 2 3 4 5 6 
#
# 1 58.1673 27.6464 51.1037 0.0000 0.0000 0.0000
# 2 27.6464 58.1673 51.1037 0.0000 0.0000 0.0000
# 3 51.1037 51.1037 155.1625 0.0000 0.0000 0.0000
# 4 0.0000 0.0000 0.0000 13.9561 0.0000 0.0000
# 5 0.0000 0.0000 0.0000 0.0000 13.9561 0.0000
# 6 0.0000 0.0000 0.0000 0.0000 0.0000 9.5382
#
#
#
# Elastic Compliance Matrix: (Units=1/GPa)
#
#
# Indices 1 2 3 4 5 6 
#
# 1 0.025970 -0.006795 -0.006315 0.000000 0.000000 0.000000
# 2 -0.006795 0.025970 -0.006315 0.000000 0.000000 0.000000
# 3 -0.006315 -0.006315 0.010605 0.000000 0.000000 0.000000
# 4 0.000000 0.000000 0.000000 0.071653 0.000000 0.000000
# 5 0.000000 0.000000 0.000000 0.000000 0.071653 0.000000
# 6 0.000000 0.000000 0.000000 0.000000 0.000000 0.104842
#
#
# Mechanical properties :
#
#
# Convention : Reuss Voigt Hill
#
# Bulk Modulus (GPa) = 42.20600 59.02276 50.61438
# Shear Modulus (GPa) = 13.98830 16.93297 15.46063
#
# Velocity S-wave (km/s) = 2.93471 3.22886 3.08529
# Velocity P-wave (km/s) = 6.12122 7.08807 6.62231
#
# Compressibility (1/GPa) = 0.02369331
#
# Stress axis : x y z
#
# Youngs Moduli (GPa) = 38.50635 38.50635 94.29608
#
# Poissons Ratio (x) = 0.26164 0.59552
# Poissons Ratio (y) = 0.26164 0.59552
# Poissons Ratio (z) = 0.24318 0.24318
#
# Static dielectric constant tensor:
#      x y z
#    x 3.048610 0.000000 0.000000 
#    y 0.000000 3.048610 0.000000 
#    z 0.000000 0.000000 3.218760 
# 
# 
# High freq. dielectric constant tensor:
#      x y z
#    x 1.605790 0.000000 0.000000 
#    y 0.000000 1.605790 0.000000 
#    z 0.000000 0.000000 1.627670 
# 
# From -- ./inp_files/7213.got.cif
#   From: 2010.03.12/outbox.cif.g09.slc.cpg/sg138_4_cif.got.tgz:7213.got - 2010.04.08 09:41:05.
