data_PCOD8318893
_publ_section_title
;
Structure prediction by ZEFSAII (Michael W. Deem and Ramdas Pophale) SiO2 
 PCOD8318893
Probable space group: P 42/N C M
;
_chemical_formula_sum "Si O2"
_cell_formula_units_Z 128
_cell_length_a 18.448448
_cell_length_b 18.448448
_cell_length_c 24.554098
_cell_angle_alpha 90.000000
_cell_angle_beta 90.000000
_cell_angle_gamma 90.000000
_cell_volume 8356.870220
_symmetry_space_group_name_H-M "P 42/N C M"
_symmetry_group_IT_number 138
_space_group.IT_coordinate_system_code '2'
_symmetry_cell_setting 'tetragonal'
loop_
_space_group_symop_operation_xyz
x,y,z
1/2-y,x,1/2+z
1/2-x,1/2-y,z
y,1/2-x,1/2+z
1/2+x,-y,1/2-z
-x,1/2+y,1/2-z
1/2+y,1/2+x,-z
-y,-x,-z
-x,-y,-z
1/2+y,-x,1/2-z
1/2+x,1/2+y,-z
-y,1/2+x,1/2-z
1/2-x,y,1/2+z
x,1/2-y,1/2+z
1/2-y,1/2-x,z
y,x,z
loop_
_atom_site_type_symbol
_atom_site_label
_atom_site_fract_x
_atom_site_fract_y
_atom_site_fract_z
Si Si1 0.447202 0.665406 0.253988
Si Si2 0.130465 0.630470 0.563185
Si Si3 0.382917 0.495781 0.361895
Si Si4 0.439699 0.939784 0.337389
Si Si5 0.552808 0.165347 0.753973
Si Si6 0.293444 0.587400 0.562424
Si Si7 0.495769 0.382907 0.638105
Si Si8 0.587410 0.206548 0.937576
O O1 0.471037 0.630132 0.196020
O O2 0.370013 0.630008 0.272113
O O3 0.435936 0.750032 0.250046
O O4 0.506541 0.646575 0.299996
O O5 0.113480 0.613480 0.500000
O O6 0.080547 0.580578 0.601039
O O7 0.213306 0.613279 0.577962
O O8 0.113300 0.713318 0.577958
O O9 0.416242 0.416242 0.375707
O O10 0.353432 0.493475 0.299996
O O11 0.446317 0.553693 0.368656
O O12 0.317291 0.517291 0.402360
O O13 0.471036 0.870002 0.303967
O O14 0.499906 0.000095 0.340955
O O15 0.317283 0.517281 0.597638
O O16 0.298310 0.563087 0.499999
O O17 0.344614 0.655377 0.574912
O O18 0.416232 0.416232 0.624290
#
# Coordination Sequence:
#
# PCOD8318893 Si02
#       8
#    16  16  16  16  16  16  16  16
#     4   9  18  29  45  66  92 123 154 183 224 275
#     4  10  19  31  46  65  93 123 156 192 228 277
#     4   9  16  27  42  60  88 124 156 189 225 265
#     4  10  20  32  47  64  91 127 156 191 234 275
#     4   9  18  29  45  66  92 123 154 183 224 275
#     4   9  17  28  44  66  93 126 156 184 222 273
#     4   9  16  27  42  60  88 124 156 189 225 265
#     4   9  17  28  44  66  93 126 156 184 222 273
#
# _framework density 15.316739
#
# number of rings (size 3 to 8) (size 9 to 14) (size 15 to 20)
#    0.750    2.000    0.000    2.625    0.000    2.500 
#    0.000    3.750    0.000    0.000    0.000    0.000 
#    0.000   41.000    0.000   22.000    0.000    1.000 
#
# Total GULP energy -1586111.038529 kJ/mol
# GULP energy per Si atom -12391.492489 kJ/mol
# Density = 1.528188 g / cm^3
# Si number density = 15.316739 Si / 1000 Ang^3
#
#
#
# Elastic Constant Matrix: (Units=GPa)
#
#
# Indices 1 2 3 4 5 6 
#
# 1 71.0019 68.5028 47.5269 0.0000 0.0000 0.0000
# 2 68.5028 71.0019 47.5269 0.0000 0.0000 0.0000
# 3 47.5269 47.5269 100.6500 0.0000 0.0000 0.0000
# 4 0.0000 0.0000 0.0000 16.3261 0.0000 0.0000
# 5 0.0000 0.0000 0.0000 0.0000 16.3261 0.0000
# 6 0.0000 0.0000 0.0000 0.0000 0.0000 25.3451
#
#
#
# Elastic Compliance Matrix: (Units=1/GPa)
#
#
# Indices 1 2 3 4 5 6 
#
# 1 0.205355 -0.194787 -0.004990 0.000000 0.000000 0.000000
# 2 -0.194787 0.205355 -0.004990 0.000000 0.000000 0.000000
# 3 -0.004990 -0.004990 0.014648 0.000000 0.000000 0.000000
# 4 0.000000 0.000000 0.000000 0.061252 0.000000 0.000000
# 5 0.000000 0.000000 0.000000 0.000000 0.061252 0.000000
# 6 0.000000 0.000000 0.000000 0.000000 0.000000 0.039455
#
#
# Mechanical properties :
#
#
# Convention : Reuss Voigt Hill
#
# Bulk Modulus (GPa) = 63.19653 63.30744 63.25199
# Shear Modulus (GPa) = 4.98939 16.87259 10.93099
#
# Velocity S-wave (km/s) = 1.80680 3.32260 2.67435
# Velocity P-wave (km/s) = 6.76033 7.49276 7.13595
#
# Compressibility (1/GPa) = 0.01582365
#
# Stress axis : x y z
#
# Youngs Moduli (GPa) = 4.86961 4.86961 68.26677
#
# Poissons Ratio (x) = 0.94854 0.34068
# Poissons Ratio (y) = 0.94854 0.34068
# Poissons Ratio (z) = 0.02430 0.02430
#
# Static dielectric constant tensor:
#      x y z
#    x 2.749740 0.000000 0.000000 
#    y 0.000000 2.749740 0.000000 
#    z 0.000000 0.000000 3.088750 
# 
# 
# High freq. dielectric constant tensor:
#      x y z
#    x 1.556520 0.000000 0.000000 
#    y 0.000000 1.556520 0.000000 
#    z 0.000000 0.000000 1.598940 
# 
# From -- ./inp_files/7217.got.cif
#   From: 2010.03.12/outbox.cif.g09.slc.cpg/sg138_4_cif.got.tgz:7217.got - 2010.04.08 09:41:05.
