data_PCOD8318758
_publ_section_title
;
Structure prediction by ZEFSAII (Michael W. Deem and Ramdas Pophale) SiO2 
 PCOD8318758
Probable space group: P 42/N M C
;
_chemical_formula_sum "Si O2"
_cell_formula_units_Z 64
_cell_length_a 14.190253
_cell_length_b 14.190253
_cell_length_c 14.869268
_cell_angle_alpha 90.000000
_cell_angle_beta 90.000000
_cell_angle_gamma 90.000000
_cell_volume 2994.124579
_symmetry_space_group_name_H-M "P 42/N M C"
_symmetry_group_IT_number 137
_space_group.IT_coordinate_system_code '2'
_symmetry_cell_setting 'tetragonal'
loop_
_space_group_symop_operation_xyz
x,y,z
1/2-y,x,1/2+z
1/2-x,1/2-y,z
y,1/2-x,1/2+z
1/2+x,-y,-z
-x,1/2+y,-z
1/2+y,1/2+x,1/2-z
-y,-x,1/2-z
-x,-y,-z
1/2+y,-x,1/2-z
1/2+x,1/2+y,-z
-y,1/2+x,1/2-z
1/2-x,y,z
x,1/2-y,z
1/2-y,1/2-x,1/2+z
y,x,1/2+z
loop_
_atom_site_type_symbol
_atom_site_label
_atom_site_fract_x
_atom_site_fract_y
_atom_site_fract_z
Si Si1 0.039476 0.464857 0.371198
Si Si2 0.044761 0.357462 0.693301
Si Si3 0.146682 0.645863 0.644412
Si Si4 0.354396 0.142804 0.015470
O O1 0.096614 0.419008 0.287073
O O2 0.087271 0.437641 0.464921
O O3 0.038042 0.577822 0.352005
O O4 0.932332 0.429664 0.380445
O O5 0.008613 0.250000 0.708450
O O6 0.130940 0.360328 0.623089
O O7 0.153664 0.653664 0.750000
O O8 0.250000 0.613576 0.606839
O O9 0.121532 0.750000 0.605224
O O10 0.250000 0.108793 0.982895
O O11 0.369136 0.250000 0.990297
#
# Coordination Sequence:
#
# PCOD8318758 Si02
#       4
#    16  16  16  16
#     4  11  20  38  63  85 112 159 205 238 294 360
#     4  10  22  38  57  83 115 151 195 246 293 340
#     4   9  17  30  51  83 116 143 183 241 300 354
#     4  10  22  38  58  89 124 153 190 241 292 352
#
# _framework density 21.375197
#
# number of rings (size 3 to 8) (size 9 to 14) (size 15 to 20)
#    0.000    2.000    2.500    3.000    0.000    3.000 
#    0.000    2.500    0.000   14.250    0.000   14.000 
#    0.000    0.000    0.000    0.000    0.000    0.000 
#
# Total GULP energy -792994.270771 kJ/mol
# GULP energy per Si atom -12390.535481 kJ/mol
# Density = 2.132655 g / cm^3
# Si number density = 21.375197 Si / 1000 Ang^3
#
#
#
# Elastic Constant Matrix: (Units=GPa)
#
#
# Indices 1 2 3 4 5 6 
#
# 1 123.5888 44.9999 25.4574 0.0000 0.0000 0.0000
# 2 44.9999 123.5888 25.4574 0.0000 0.0000 0.0000
# 3 25.4574 25.4574 66.9612 0.0000 0.0000 0.0000
# 4 0.0000 0.0000 0.0000 26.0230 0.0000 0.0000
# 5 0.0000 0.0000 0.0000 0.0000 26.0230 0.0000
# 6 0.0000 0.0000 0.0000 0.0000 0.0000 11.1621
#
#
#
# Elastic Compliance Matrix: (Units=1/GPa)
#
#
# Indices 1 2 3 4 5 6 
#
# 1 0.009713 -0.003012 -0.002548 0.000000 0.000000 0.000000
# 2 -0.003012 0.009713 -0.002548 0.000000 0.000000 0.000000
# 3 -0.002548 -0.002548 0.016871 0.000000 0.000000 0.000000
# 4 0.000000 0.000000 0.000000 0.038427 0.000000 0.000000
# 5 0.000000 0.000000 0.000000 0.000000 0.038427 0.000000
# 6 0.000000 0.000000 0.000000 0.000000 0.000000 0.089589
#
#
# Mechanical properties :
#
#
# Convention : Reuss Voigt Hill
#
# Bulk Modulus (GPa) = 49.79404 56.21868 53.00636
# Shear Modulus (GPa) = 22.15837 27.18991 24.67414
#
# Velocity S-wave (km/s) = 3.22318 3.57042 3.40124
# Velocity P-wave (km/s) = 6.09899 6.58447 6.34637
#
# Compressibility (1/GPa) = 0.02008273
#
# Stress axis : x y z
#
# Youngs Moduli (GPa) = 102.95785 102.95785 59.27290
#
# Poissons Ratio (x) = 0.31008 0.15100
# Poissons Ratio (y) = 0.31008 0.15100
# Poissons Ratio (z) = 0.26229 0.26229
#
# Static dielectric constant tensor:
#      x y z
#    x 4.095070 0.000000 0.000000 
#    y 0.000000 4.095070 0.000000 
#    z 0.000000 0.000000 3.698310 
# 
# 
# High freq. dielectric constant tensor:
#      x y z
#    x 1.830270 0.000000 0.000000 
#    y 0.000000 1.830270 0.000000 
#    z 0.000000 0.000000 1.824270 
# 
# From -- ./inp_files/4728.got.cif
#   From: 2010.03.12/outbox.cif.g09.slc.cpg/sg137_3_cif.got.tgz:4728.got - 2010.04.08 09:34:49.
