data_PCOD8318231
_publ_section_title
;
Structure prediction by ZEFSAII (Michael W. Deem and Ramdas Pophale) SiO2 
 PCOD8318231
Probable space group: P 42/M N M
;
_chemical_formula_sum "Si O2"
_cell_formula_units_Z 96
_cell_length_a 23.671858
_cell_length_b 23.671858
_cell_length_c 8.917983
_cell_angle_alpha 90.000000
_cell_angle_beta 90.000000
_cell_angle_gamma 90.000000
_cell_volume 4997.252962
_symmetry_space_group_name_H-M "P 42/M N M"
_symmetry_group_IT_number 136
_symmetry_cell_setting 'tetragonal'
loop_
_space_group_symop_operation_xyz
x,y,z
1/2-y,1/2+x,1/2+z
-x,-y,z
1/2+y,1/2-x,1/2+z
1/2+x,1/2-y,1/2-z
1/2-x,1/2+y,1/2-z
y,x,-z
-y,-x,-z
-x,-y,-z
1/2+y,1/2-x,1/2-z
x,y,-z
1/2-y,1/2+x,1/2-z
1/2-x,1/2+y,1/2+z
1/2+x,1/2-y,1/2+z
-y,-x,z
y,x,z
loop_
_atom_site_type_symbol
_atom_site_label
_atom_site_fract_x
_atom_site_fract_y
_atom_site_fract_z
Si Si1 0.731060 0.487074 0.825073
Si Si2 0.899194 0.600738 0.663206
Si Si3 0.674910 0.795512 0.667678
Si Si4 0.508705 0.156844 0.330997
Si Si5 0.725436 0.365771 0.673437
Si Si6 0.108892 0.802635 0.327603
O O1 0.795177 0.504120 0.789788
O O2 0.716688 0.428778 0.739710
O O3 0.696152 0.543188 0.770902
O O4 0.722249 0.475010 0.000000
O O5 0.927626 0.613495 0.500000
O O6 0.834827 0.620437 0.660478
O O7 0.895470 0.533858 0.691200
O O8 0.929956 0.631496 0.798594
O O9 0.695914 0.780499 0.500000
O O10 0.726002 0.828167 0.749448
O O11 0.653080 0.738907 0.746171
O O12 0.507547 0.181116 0.500000
O O13 0.742119 0.372079 0.500000
O O14 0.665858 0.334143 0.693793
O O15 0.108097 0.783139 0.500000
O O16 0.134076 0.865925 0.308393
#
# Coordination Sequence:
#
# PCOD8318231 Si02
#       6
#    16  16  16  16  16  16
#     4  11  22  37  60  85 112 147 186 231 279 335
#     4  10  22  37  53  79 112 147 193 240 281 328
#     4  11  21  35  57  87 120 152 188 232 281 334
#     4  11  22  37  57  78 108 150 193 237 282 332
#     4  11  24  40  59  85 117 151 188 231 282 340
#     4  10  22  39  59  86 119 153 189 230 281 339
#
# _framework density 19.210554999999999
#
# number of rings (size 3 to 8) (size 9 to 14) (size 15 to 20)
#    0.000    1.333    3.333    2.500    0.000    6.667 
#    0.000    1.667    0.000    0.500    0.000    3.500 
#    0.000    0.000    0.000    0.000    0.000    0.000 
#
# Total GULP energy -1189627.277979 kJ/mol
# GULP energy per Si atom -12391.950812 kJ/mol
# Density = 1.916683 g / cm^3
# Si number density = 19.210555 Si / 1000 Ang^3
#
#
#
# Elastic Constant Matrix: (Units=GPa)
#
#
# Indices 1 2 3 4 5 6 
#
# 1 84.0687 46.2894 43.0466 0.0000 0.0000 0.0000
# 2 46.2894 84.0687 43.0466 0.0000 0.0000 0.0000
# 3 43.0466 43.0466 93.1901 0.0000 0.0000 0.0000
# 4 0.0000 0.0000 0.0000 18.9814 0.0000 0.0000
# 5 0.0000 0.0000 0.0000 0.0000 18.9814 0.0000
# 6 0.0000 0.0000 0.0000 0.0000 0.0000 28.2307
#
#
#
# Elastic Compliance Matrix: (Units=1/GPa)
#
#
# Indices 1 2 3 4 5 6 
#
# 1 0.018754 -0.007715 -0.005099 0.000000 0.000000 0.000000
# 2 -0.007715 0.018754 -0.005099 0.000000 0.000000 0.000000
# 3 -0.005099 -0.005099 0.015441 0.000000 0.000000 0.000000
# 4 0.000000 0.000000 0.000000 0.052683 0.000000 0.000000
# 5 0.000000 0.000000 0.000000 0.000000 0.052683 0.000000
# 6 0.000000 0.000000 0.000000 0.000000 0.000000 0.035422
#
#
# Mechanical properties :
#
#
# Convention : Reuss Voigt Hill
#
# Bulk Modulus (GPa) = 58.40159 58.45472 58.42815
# Shear Modulus (GPa) = 21.25190 21.83503 21.54347
#
# Velocity S-wave (km/s) = 3.32966 3.37503 3.35242
# Velocity P-wave (km/s) = 6.72673 6.75887 6.74282
#
# Compressibility (1/GPa) = 0.01712282
#
# Stress axis : x y z
#
# Youngs Moduli (GPa) = 53.32150 53.32150 64.76058
#
# Poissons Ratio (x) = 0.41140 0.33022
# Poissons Ratio (y) = 0.41140 0.33022
# Poissons Ratio (z) = 0.27189 0.27189
#
# Static dielectric constant tensor:
#      x y z
#    x 3.552040 0.000000 0.000000 
#    y 0.000000 3.552040 0.000000 
#    z 0.000000 0.000000 3.651100 
# 
# 
# High freq. dielectric constant tensor:
#      x y z
#    x 1.738520 0.000000 0.000000 
#    y 0.000000 1.738520 0.000000 
#    z 0.000000 0.000000 1.756150 
# 
# From -- ./inp_files/1936.got.cif
#   From: 2010.03.12/outbox.cif.g09.slc.cpg/sg136_1_cif.got.tgz:1936.got - 2010.04.06 18:39:43.
