data_PCOD8318620
_publ_section_title
;
Structure prediction by ZEFSAII (Michael W. Deem and Ramdas Pophale) SiO2 
 PCOD8318620
Probable space group: P 42/N M C
;
_chemical_formula_sum "Si O2"
_cell_formula_units_Z 64
_cell_length_a 14.956624
_cell_length_b 14.956624
_cell_length_c 14.807069
_cell_angle_alpha 90.000000
_cell_angle_beta 90.000000
_cell_angle_gamma 90.000000
_cell_volume 3312.350241
_symmetry_space_group_name_H-M "P 42/N M C"
_symmetry_group_IT_number 137
_space_group.IT_coordinate_system_code '2'
_symmetry_cell_setting 'tetragonal'
loop_
_space_group_symop_operation_xyz
x,y,z
1/2-y,x,1/2+z
1/2-x,1/2-y,z
y,1/2-x,1/2+z
1/2+x,-y,-z
-x,1/2+y,-z
1/2+y,1/2+x,1/2-z
-y,-x,1/2-z
-x,-y,-z
1/2+y,-x,1/2-z
1/2+x,1/2+y,-z
-y,1/2+x,1/2-z
1/2-x,y,z
x,1/2-y,z
1/2-y,1/2-x,1/2+z
y,x,1/2+z
loop_
_atom_site_type_symbol
_atom_site_label
_atom_site_fract_x
_atom_site_fract_y
_atom_site_fract_z
Si Si1 0.648811 0.472749 0.139833
Si Si2 0.147518 0.484594 0.662251
Si Si3 0.855360 0.348108 0.851255
Si Si4 0.646424 0.975953 0.945377
O O1 0.750000 0.434038 0.136341
O O2 0.582566 0.388789 0.137472
O O3 0.634860 0.531973 0.230048
O O4 0.631315 0.535655 0.052763
O O5 0.250000 0.481300 0.633237
O O6 0.098561 0.407029 0.608141
O O7 0.879689 0.379689 0.750000
O O8 0.750000 0.338253 0.859847
O O9 0.898212 0.250000 0.873533
O O10 0.890457 0.425032 0.918662
O O11 0.750000 0.965457 0.918376
#
# Coordination Sequence:
#
# PCOD8318620 Si02
#       4
#    16  16  16  16
#     4   9  20  38  58  79 107 142 186 235 278 319
#     4  10  21  37  57  81 111 148 186 228 271 322
#     4   8  15  28  47  76 110 139 172 217 270 325
#     4  10  20  35  57  83 112 148 180 220 275 330
#
# _framework density 19.321629999999999
#
# number of rings (size 3 to 8) (size 9 to 14) (size 15 to 20)
#    0.000    2.750    0.000    1.500    3.500    2.000 
#    0.000    6.250    0.000    4.500    0.000    0.000 
#    0.000    0.000    0.000    0.000    0.000    0.000 
#
# Total GULP energy -793309.033715 kJ/mol
# GULP energy per Si atom -12395.453652 kJ/mol
# Density = 1.927765 g / cm^3
# Si number density = 19.321630 Si / 1000 Ang^3
#
#
#
# Elastic Constant Matrix: (Units=GPa)
#
#
# Indices 1 2 3 4 5 6 
#
# 1 97.6318 68.5912 67.3045 0.0000 0.0000 0.0000
# 2 68.5912 97.6318 67.3045 0.0000 0.0000 0.0000
# 3 67.3045 67.3045 136.8823 0.0000 0.0000 0.0000
# 4 0.0000 0.0000 0.0000 25.0104 0.0000 0.0000
# 5 0.0000 0.0000 0.0000 0.0000 25.0104 0.0000
# 6 0.0000 0.0000 0.0000 0.0000 0.0000 23.1812
#
#
#
# Elastic Compliance Matrix: (Units=1/GPa)
#
#
# Indices 1 2 3 4 5 6 
#
# 1 0.022215 -0.012219 -0.004915 0.000000 0.000000 0.000000
# 2 -0.012219 0.022215 -0.004915 0.000000 0.000000 0.000000
# 3 -0.004915 -0.004915 0.012139 0.000000 0.000000 0.000000
# 4 0.000000 0.000000 0.000000 0.039983 0.000000 0.000000
# 5 0.000000 0.000000 0.000000 0.000000 0.039983 0.000000
# 6 0.000000 0.000000 0.000000 0.000000 0.000000 0.043138
#
#
# Mechanical properties :
#
#
# Convention : Reuss Voigt Hill
#
# Bulk Modulus (GPa) = 80.18520 82.06071 81.12296
# Shear Modulus (GPa) = 21.93646 23.23677 22.58661
#
# Velocity S-wave (km/s) = 3.37312 3.47166 3.42275
# Velocity P-wave (km/s) = 7.53399 7.65722 7.59585
#
# Compressibility (1/GPa) = 0.01247113
#
# Stress axis : x y z
#
# Youngs Moduli (GPa) = 45.01378 45.01378 82.37847
#
# Poissons Ratio (x) = 0.55003 0.40490
# Poissons Ratio (y) = 0.55003 0.40490
# Poissons Ratio (z) = 0.22125 0.22125
#
# Static dielectric constant tensor:
#      x y z
#    x 3.580630 0.000000 0.000000 
#    y 0.000000 3.580630 0.000000 
#    z 0.000000 0.000000 3.861210 
# 
# 
# High freq. dielectric constant tensor:
#      x y z
#    x 1.730180 0.000000 0.000000 
#    y 0.000000 1.730180 0.000000 
#    z 0.000000 0.000000 1.766780 
# 
# From -- ./inp_files/4696.got.cif
#   From: 2010.03.12/outbox.cif.g09.slc.cpg/sg137_3_cif.got.tgz:4696.got - 2010.04.08 09:34:49.
