data_PCOD8318143
_publ_section_title
;
Structure prediction by ZEFSAII (Michael W. Deem and Ramdas Pophale) SiO2 
 PCOD8318143
Probable space group: P 42/M N M
;
_chemical_formula_sum "Si O2"
_cell_formula_units_Z 96
_cell_length_a 23.584892
_cell_length_b 23.584892
_cell_length_c 8.553244
_cell_angle_alpha 90.000000
_cell_angle_beta 90.000000
_cell_angle_gamma 90.000000
_cell_volume 4757.717433
_symmetry_space_group_name_H-M "P 42/M N M"
_symmetry_group_IT_number 136
_symmetry_cell_setting 'tetragonal'
loop_
_space_group_symop_operation_xyz
x,y,z
1/2-y,1/2+x,1/2+z
-x,-y,z
1/2+y,1/2-x,1/2+z
1/2+x,1/2-y,1/2-z
1/2-x,1/2+y,1/2-z
y,x,-z
-y,-x,-z
-x,-y,-z
1/2+y,1/2-x,1/2-z
x,y,-z
1/2-y,1/2+x,1/2-z
1/2-x,1/2+y,1/2+z
1/2+x,1/2-y,1/2+z
-y,-x,z
y,x,z
loop_
_atom_site_type_symbol
_atom_site_label
_atom_site_fract_x
_atom_site_fract_y
_atom_site_fract_z
Si Si1 0.744615 0.744615 0.682183
Si Si2 0.348407 0.348407 0.682290
Si Si3 0.918144 0.638244 0.681784
Si Si4 0.159111 0.070445 0.680034
Si Si5 0.710084 0.540161 0.316559
Si Si6 0.637348 0.242805 0.319121
Si Si7 0.340056 0.967455 0.184590
O O1 0.754710 0.754710 0.500000
O O2 0.698191 0.698191 0.716157
O O3 0.722165 0.801478 0.762669
O O4 0.358506 0.358506 0.500000
O O5 0.407166 0.325276 0.757727
O O6 0.911602 0.653423 0.500000
O O7 0.906188 0.692483 0.789313
O O8 0.874870 0.588789 0.728246
O O9 0.983308 0.625159 0.724926
O O10 0.165111 0.052920 0.500000
O O11 0.095924 0.095924 0.713618
O O12 0.202747 0.120343 0.719076
O O13 0.173417 0.015879 0.783670
O O14 0.715490 0.549492 0.500000
O O15 0.774885 0.537281 0.251910
O O16 0.637393 0.259749 0.500000
O O17 0.341518 0.978916 0.000000
#
# Coordination Sequence:
#
# PCOD8318143 Si02
#       7
#     8   8  16  16  16  16  16
#     4  11  21  37  61  90 124 160 199 250 310 376
#     4   9  20  39  64  92 123 164 205 245 306 372
#     4  11  23  39  60  85 117 161 207 253 310 368
#     4  11  23  39  61  89 121 158 200 247 306 367
#     4  10  20  39  65  90 121 160 203 253 304 365
#     4  12  23  36  57  87 122 156 197 252 309 366
#     4  10  22  39  59  86 120 159 206 258 307 361
#
# _framework density 20.177744000000001
#
# number of rings (size 3 to 8) (size 9 to 14) (size 15 to 20)
#    0.000    1.333    2.500    3.750    0.000    5.333 
#    0.000    5.833    0.000    2.500    0.000    0.000 
#    0.000    0.000    0.000    0.000    0.000    0.000 
#
# Total GULP energy -1190379.803427 kJ/mol
# GULP energy per Si atom -12399.789619 kJ/mol
# Density = 2.013182 g / cm^3
# Si number density = 20.177744 Si / 1000 Ang^3
#
#
#
# Elastic Constant Matrix: (Units=GPa)
#
#
# Indices 1 2 3 4 5 6 
#
# 1 114.1057 46.1975 22.0088 0.0000 0.0000 0.0000
# 2 46.1975 114.1057 22.0088 0.0000 0.0000 0.0000
# 3 22.0088 22.0088 28.2449 0.0000 0.0000 0.0000
# 4 0.0000 0.0000 0.0000 26.0145 0.0000 0.0000
# 5 0.0000 0.0000 0.0000 0.0000 26.0145 0.0000
# 6 0.0000 0.0000 0.0000 0.0000 0.0000 23.2796
#
#
#
# Elastic Compliance Matrix: (Units=1/GPa)
#
#
# Indices 1 2 3 4 5 6 
#
# 1 0.011331 -0.003395 -0.006184 0.000000 0.000000 0.000000
# 2 -0.003395 0.011331 -0.006184 0.000000 0.000000 0.000000
# 3 -0.006184 -0.006184 0.045042 0.000000 0.000000 0.000000
# 4 0.000000 0.000000 0.000000 0.038440 0.000000 0.000000
# 5 0.000000 0.000000 0.000000 0.000000 0.038440 0.000000
# 6 0.000000 0.000000 0.000000 0.000000 0.000000 0.042956
#
#
# Mechanical properties :
#
#
# Convention : Reuss Voigt Hill
#
# Bulk Modulus (GPa) = 27.64087 48.54294 38.09190
# Shear Modulus (GPa) = 21.63333 26.14451 23.88892
#
# Velocity S-wave (km/s) = 3.27790 3.60350 3.44455
# Velocity P-wave (km/s) = 5.29666 6.43611 5.89399
#
# Compressibility (1/GPa) = 0.03617831
#
# Stress axis : x y z
#
# Youngs Moduli (GPa) = 88.25352 88.25352 22.20158
#
# Poissons Ratio (x) = 0.29960 0.13729
# Poissons Ratio (y) = 0.29960 0.13729
# Poissons Ratio (z) = 0.54576 0.54576
#
# Static dielectric constant tensor:
#      x y z
#    x 3.730740 0.000000 0.000000 
#    y 0.000000 3.730740 0.000000 
#    z 0.000000 0.000000 3.434980 
# 
# 
# High freq. dielectric constant tensor:
#      x y z
#    x 1.790710 0.000000 0.000000 
#    y 0.000000 1.790710 0.000000 
#    z 0.000000 0.000000 1.773310 
# 
# From -- ./inp_files/2087.got.cif
#   From: 2010.03.12/outbox.cif.g09.slc.cpg/sg136_2_cif.got.tgz:2087.got - 2010.04.06 18:39:43.
