data_PCOD8318583
_publ_section_title
;
Structure prediction by ZEFSAII (Michael W. Deem and Ramdas Pophale) SiO2 
 PCOD8318583
Probable space group: P 42/N M C
;
_chemical_formula_sum "Si O2"
_cell_formula_units_Z 112
_cell_length_a 13.868133
_cell_length_b 13.868133
_cell_length_c 31.705366
_cell_angle_alpha 90.000000
_cell_angle_beta 90.000000
_cell_angle_gamma 90.000000
_cell_volume 6097.738096
_symmetry_space_group_name_H-M "P 42/N M C"
_symmetry_group_IT_number 137
_space_group.IT_coordinate_system_code '2'
_symmetry_cell_setting 'tetragonal'
loop_
_space_group_symop_operation_xyz
x,y,z
1/2-y,x,1/2+z
1/2-x,1/2-y,z
y,1/2-x,1/2+z
1/2+x,-y,-z
-x,1/2+y,-z
1/2+y,1/2+x,1/2-z
-y,-x,1/2-z
-x,-y,-z
1/2+y,-x,1/2-z
1/2+x,1/2+y,-z
-y,1/2+x,1/2-z
1/2-x,y,z
x,1/2-y,z
1/2-y,1/2-x,1/2+z
y,x,1/2+z
loop_
_atom_site_type_symbol
_atom_site_label
_atom_site_fract_x
_atom_site_fract_y
_atom_site_fract_z
Si Si1 0.502139 0.138340 0.726573
Si Si2 0.357926 0.978469 0.584972
Si Si3 0.139346 0.138681 0.801073
Si Si4 0.144225 0.360922 0.522494
Si Si5 0.863258 0.360881 0.581532
Si Si6 0.478775 0.511150 0.352930
Si Si7 0.054997 0.637666 0.509041
O O1 0.596444 0.096444 0.750000
O O2 0.522501 0.250000 0.717061
O O3 0.407121 0.123631 0.754996
O O4 0.483969 0.081957 0.683443
O O5 0.250000 0.950301 0.599323
O O6 0.388586 0.911582 0.546427
O O7 0.361884 0.087718 0.567803
O O8 0.427610 0.966887 0.624557
O O9 0.250000 0.102843 0.799602
O O10 0.133498 0.250000 0.814460
O O11 0.080700 0.078919 0.835673
O O12 0.250000 0.379180 0.501379
O O13 0.127430 0.250000 0.533513
O O14 0.058121 0.395784 0.491496
O O15 0.750000 0.375794 0.585215
O O16 0.892157 0.250000 0.590506
O O17 0.912320 0.429572 0.615409
O O18 0.897150 0.392232 0.535125
O O19 0.064266 0.750000 0.517363
#
# Coordination Sequence:
#
# PCOD8318583 Si02
#       7
#    16  16  16  16  16  16  16
#     4   9  19  35  57  85 113 143 174 211 262 329
#     4  11  23  36  53  77 108 145 186 231 274 317
#     4   9  19  38  60  80 106 141 178 215 262 325
#     4   9  18  33  53  76 101 134 179 227 273 319
#     4  10  20  33  52  79 111 146 181 218 263 321
#     4  11  21  34  55  83 114 139 176 223 277 321
#     4  10  20  37  56  73 102 148 193 230 271 321
#
# _framework density 18.367466
#
# number of rings (size 3 to 8) (size 9 to 14) (size 15 to 20)
#    0.000    2.143    1.429    1.714    0.000    3.286 
#    0.000    0.714    0.000    1.714    0.000    0.000 
#    0.000    0.000    0.000    0.000    0.000    0.000 
#
# Total GULP energy -1388753.879141 kJ/mol
# GULP energy per Si atom -12399.588207 kJ/mol
# Density = 1.832566 g / cm^3
# Si number density = 18.367466 Si / 1000 Ang^3
#
#
#
# Elastic Constant Matrix: (Units=GPa)
#
#
# Indices 1 2 3 4 5 6 
#
# 1 119.2249 60.2047 66.5431 0.0000 0.0000 0.0000
# 2 60.2047 119.2249 66.5431 0.0000 0.0000 0.0000
# 3 66.5431 66.5431 120.0612 0.0000 0.0000 0.0000
# 4 0.0000 0.0000 0.0000 25.2780 0.0000 0.0000
# 5 0.0000 0.0000 0.0000 0.0000 25.2780 0.0000
# 6 0.0000 0.0000 0.0000 0.0000 0.0000 23.0506
#
#
#
# Elastic Compliance Matrix: (Units=1/GPa)
#
#
# Indices 1 2 3 4 5 6 
#
# 1 0.013203 -0.003740 -0.005245 0.000000 0.000000 0.000000
# 2 -0.003740 0.013203 -0.005245 0.000000 0.000000 0.000000
# 3 -0.005245 -0.005245 0.014143 0.000000 0.000000 0.000000
# 4 0.000000 0.000000 0.000000 0.039560 0.000000 0.000000
# 5 0.000000 0.000000 0.000000 0.000000 0.039560 0.000000
# 6 0.000000 0.000000 0.000000 0.000000 0.000000 0.043383
#
#
# Mechanical properties :
#
#
# Convention : Reuss Voigt Hill
#
# Bulk Modulus (GPa) = 82.71351 82.78809 82.75080
# Shear Modulus (GPa) = 25.56975 25.73600 25.65288
#
# Velocity S-wave (km/s) = 3.73516 3.74729 3.74123
# Velocity P-wave (km/s) = 7.98325 7.99337 7.98831
#
# Compressibility (1/GPa) = 0.01208992
#
# Stress axis : x y z
#
# Youngs Moduli (GPa) = 75.73751 75.73751 70.70488
#
# Poissons Ratio (x) = 0.28325 0.37086
# Poissons Ratio (y) = 0.28325 0.37086
# Poissons Ratio (z) = 0.39726 0.39726
#
# Static dielectric constant tensor:
#      x y z
#    x 3.563400 0.000000 0.000000 
#    y 0.000000 3.563400 0.000000 
#    z 0.000000 0.000000 3.262970 
# 
# 
# High freq. dielectric constant tensor:
#      x y z
#    x 1.721120 0.000000 0.000000 
#    y 0.000000 1.721120 0.000000 
#    z 0.000000 0.000000 1.692240 
# 
# From -- ./inp_files/9841.got.cif
#   From: 2010.03.12/outbox.cif.g09.slc.cpg/sg137_5_cif.got.tgz:9841.got - 2010.04.08 09:34:49.
