data_PCOD8318546
_publ_section_title
;
Structure prediction by ZEFSAII (Michael W. Deem and Ramdas Pophale) SiO2 
 PCOD8318546
Probable space group: P 42/N M C
;
_chemical_formula_sum "Si O2"
_cell_formula_units_Z 112
_cell_length_a 18.135523
_cell_length_b 18.135523
_cell_length_c 18.727804
_cell_angle_alpha 90.000000
_cell_angle_beta 90.000000
_cell_angle_gamma 90.000000
_cell_volume 6159.522194
_symmetry_space_group_name_H-M "P 42/N M C"
_symmetry_group_IT_number 137
_space_group.IT_coordinate_system_code '2'
_symmetry_cell_setting 'tetragonal'
loop_
_space_group_symop_operation_xyz
x,y,z
1/2-y,x,1/2+z
1/2-x,1/2-y,z
y,1/2-x,1/2+z
1/2+x,-y,-z
-x,1/2+y,-z
1/2+y,1/2+x,1/2-z
-y,-x,1/2-z
-x,-y,-z
1/2+y,-x,1/2-z
1/2+x,1/2+y,-z
-y,1/2+x,1/2-z
1/2-x,y,z
x,1/2-y,z
1/2-y,1/2-x,1/2+z
y,x,1/2+z
loop_
_atom_site_type_symbol
_atom_site_label
_atom_site_fract_x
_atom_site_fract_y
_atom_site_fract_z
Si Si1 0.836174 0.332706 0.059398
Si Si2 0.051645 0.898988 0.467055
Si Si3 0.937279 0.550806 0.227348
Si Si4 0.565157 0.922262 0.063540
Si Si5 0.916285 0.335049 0.303825
Si Si6 0.836240 0.947794 0.851970
Si Si7 0.167616 0.166356 0.025273
O O1 0.750000 0.324279 0.071391
O O2 0.871344 0.250000 0.059392
O O3 0.869032 0.385647 0.121674
O O4 0.852492 0.374875 0.985240
O O5 0.991716 0.889547 0.530891
O O6 0.019951 0.870040 0.391464
O O7 0.077061 0.983091 0.466190
O O8 0.938691 0.582148 0.148094
O O9 0.873724 0.488918 0.228693
O O10 0.925672 0.619228 0.280746
O O11 0.014491 0.514491 0.250000
O O12 0.608614 0.850255 0.036709
O O13 0.848330 0.348330 0.250000
O O14 0.936053 0.250000 0.311743
O O15 0.750000 0.961254 0.833704
O O16 0.848478 0.879429 0.903847
O O17 0.250000 0.149453 0.996102
O O18 0.158851 0.250000 0.048870
#
# Coordination Sequence:
#
# PCOD8318546 Si02
#       7
#    16  16  16  16  16  16  16
#     4  10  20  34  54  80 110 144 183 226 277 342
#     4  10  19  36  55  83 108 142 185 236 284 334
#     4  11  21  37  55  82 115 147 188 236 286 337
#     4  10  20  33  58  81 110 144 186 233 284 338
#     4  10  21  34  52  78 114 153 183 223 276 337
#     4  10  21  37  61  81 108 154 196 233 283 344
#     4   9  20  38  57  82 115 149 187 234 284 335
#
# _framework density 18.183229000000001
#
# number of rings (size 3 to 8) (size 9 to 14) (size 15 to 20)
#    0.000    2.000    2.857    0.857    0.000    3.571 
#    0.000    0.000    0.000    1.714    0.000    0.000 
#    0.000    0.000    0.000    0.000    0.000    0.000 
#
# Total GULP energy -1388241.262823 kJ/mol
# GULP energy per Si atom -12395.011275 kJ/mol
# Density = 1.814184 g / cm^3
# Si number density = 18.183229 Si / 1000 Ang^3
#
#
#
# Elastic Constant Matrix: (Units=GPa)
#
#
# Indices 1 2 3 4 5 6 
#
# 1 79.6510 46.9206 40.9367 0.0000 0.0000 0.0000
# 2 46.9206 79.6510 40.9367 0.0000 0.0000 0.0000
# 3 40.9367 40.9367 113.4363 0.0000 0.0000 0.0000
# 4 0.0000 0.0000 0.0000 23.8707 0.0000 0.0000
# 5 0.0000 0.0000 0.0000 0.0000 23.8707 0.0000
# 6 0.0000 0.0000 0.0000 0.0000 0.0000 26.5317
#
#
#
# Elastic Compliance Matrix: (Units=1/GPa)
#
#
# Indices 1 2 3 4 5 6 
#
# 1 0.020430 -0.010123 -0.003719 0.000000 0.000000 0.000000
# 2 -0.010123 0.020430 -0.003719 0.000000 0.000000 0.000000
# 3 -0.003719 -0.003719 0.011500 0.000000 0.000000 0.000000
# 4 0.000000 0.000000 0.000000 0.041892 0.000000 0.000000
# 5 0.000000 0.000000 0.000000 0.000000 0.041892 0.000000
# 6 0.000000 0.000000 0.000000 0.000000 0.000000 0.037691
#
#
# Mechanical properties :
#
#
# Convention : Reuss Voigt Hill
#
# Bulk Modulus (GPa) = 58.01969 58.92514 58.47242
# Shear Modulus (GPa) = 23.28790 24.45089 23.86940
#
# Velocity S-wave (km/s) = 3.58262 3.67099 3.62707
# Velocity P-wave (km/s) = 7.00651 7.10245 7.05464
#
# Compressibility (1/GPa) = 0.01723553
#
# Stress axis : x y z
#
# Youngs Moduli (GPa) = 48.94851 48.94851 86.95619
#
# Poissons Ratio (x) = 0.49551 0.32343
# Poissons Ratio (y) = 0.49551 0.32343
# Poissons Ratio (z) = 0.18206 0.18206
#
# Static dielectric constant tensor:
#      x y z
#    x 3.335920 0.000000 0.000000 
#    y 0.000000 3.335920 0.000000 
#    z 0.000000 0.000000 3.276420 
# 
# 
# High freq. dielectric constant tensor:
#      x y z
#    x 1.699170 0.000000 0.000000 
#    y 0.000000 1.699170 0.000000 
#    z 0.000000 0.000000 1.695630 
# 
# From -- ./inp_files/8090.got.cif
#   From: 2010.03.12/outbox.cif.g09.slc.cpg/sg137_5_cif.got.tgz:8090.got - 2010.04.08 09:34:49.
