data_PCOD8318439
_publ_section_title
;
Structure prediction by ZEFSAII (Michael W. Deem and Ramdas Pophale) SiO2 
 PCOD8318439
Probable space group: P 42/N M C
;
_chemical_formula_sum "Si O2"
_cell_formula_units_Z 96
_cell_length_a 22.932198
_cell_length_b 22.932198
_cell_length_c 10.136898
_cell_angle_alpha 90.000000
_cell_angle_beta 90.000000
_cell_angle_gamma 90.000000
_cell_volume 5330.849752
_symmetry_space_group_name_H-M "P 42/N M C"
_symmetry_group_IT_number 137
_space_group.IT_coordinate_system_code '2'
_symmetry_cell_setting 'tetragonal'
loop_
_space_group_symop_operation_xyz
x,y,z
1/2-y,x,1/2+z
1/2-x,1/2-y,z
y,1/2-x,1/2+z
1/2+x,-y,-z
-x,1/2+y,-z
1/2+y,1/2+x,1/2-z
-y,-x,1/2-z
-x,-y,-z
1/2+y,-x,1/2-z
1/2+x,1/2+y,-z
-y,1/2+x,1/2-z
1/2-x,y,z
x,1/2-y,z
1/2-y,1/2-x,1/2+z
y,x,1/2+z
loop_
_atom_site_type_symbol
_atom_site_label
_atom_site_fract_x
_atom_site_fract_y
_atom_site_fract_z
Si Si1 0.680692 0.608239 0.349277
Si Si2 0.181387 0.982253 0.265548
Si Si3 0.574731 0.319225 0.499958
Si Si4 0.107949 0.319310 0.849709
Si Si5 0.482367 0.818715 0.765851
Si Si6 0.102863 0.681931 0.999678
O O1 0.750000 0.609943 0.339281
O O2 0.656167 0.656488 0.250026
O O3 0.660868 0.621212 0.499848
O O4 0.655372 0.545252 0.305274
O O5 0.250000 0.989574 0.256350
O O6 0.156243 0.960528 0.125826
O O7 0.165201 0.934334 0.372979
O O8 0.155237 0.044923 0.306159
O O9 0.578281 0.250000 0.500248
O O10 0.539332 0.343518 0.374130
O O11 0.641787 0.340046 0.499691
O O12 0.109345 0.250000 0.840236
O O13 0.489010 0.750000 0.758709
O O14 0.434842 0.835716 0.873633
O O15 0.121559 0.750000 0.998403
#
# Coordination Sequence:
#
# PCOD8318439 Si02
#       6
#    16  16  16  16  16  16
#     4  10  21  37  58  83 110 141 175 214 262 315
#     4   9  18  34  53  75 104 143 185 216 254 316
#     4  10  20  31  51  83 108 136 182 228 270 316
#     4  10  21  37  58  83 110 141 175 214 262 315
#     4   9  18  34  53  75 104 143 185 216 254 316
#     4  10  18  33  55  75 106 146 178 220 274 320
#
# _framework density 18.008386000000002
#
# number of rings (size 3 to 8) (size 9 to 14) (size 15 to 20)
#    0.000    2.333    1.667    1.000    2.333    1.333 
#    0.000    1.667    0.000   12.000    0.000    0.000 
#    0.000    0.000    0.000    0.000    0.000    0.000 
#
# Total GULP energy -1190201.920600 kJ/mol
# GULP energy per Si atom -12397.936673 kJ/mol
# Density = 1.796740 g / cm^3
# Si number density = 18.008386 Si / 1000 Ang^3
#
#
#
# Elastic Constant Matrix: (Units=GPa)
#
#
# Indices 1 2 3 4 5 6 
#
# 1 53.2774 30.0849 43.9551 0.0000 0.0000 0.0000
# 2 30.0849 53.2774 43.9551 0.0000 0.0000 0.0000
# 3 43.9551 43.9551 173.1380 0.0000 0.0000 0.0000
# 4 0.0000 0.0000 0.0000 16.1052 0.0000 0.0000
# 5 0.0000 0.0000 0.0000 0.0000 16.1052 0.0000
# 6 0.0000 0.0000 0.0000 0.0000 0.0000 11.0398
#
#
#
# Elastic Compliance Matrix: (Units=1/GPa)
#
#
# Indices 1 2 3 4 5 6 
#
# 1 0.029749 -0.013368 -0.004159 0.000000 0.000000 0.000000
# 2 -0.013368 0.029749 -0.004159 0.000000 0.000000 0.000000
# 3 -0.004159 -0.004159 0.007887 0.000000 0.000000 0.000000
# 4 0.000000 0.000000 0.000000 0.062092 0.000000 0.000000
# 5 0.000000 0.000000 0.000000 0.000000 0.062092 0.000000
# 6 0.000000 0.000000 0.000000 0.000000 0.000000 0.090582
#
#
# Mechanical properties :
#
#
# Convention : Reuss Voigt Hill
#
# Bulk Modulus (GPa) = 41.64038 57.29808 49.46923
# Shear Modulus (GPa) = 14.99127 19.42990 17.21058
#
# Velocity S-wave (km/s) = 2.88837 3.28828 3.09479
# Velocity P-wave (km/s) = 5.85633 6.80467 6.34823
#
# Compressibility (1/GPa) = 0.02401515
#
# Stress axis : x y z
#
# Youngs Moduli (GPa) = 33.61405 33.61405 126.78494
#
# Poissons Ratio (x) = 0.44935 0.52728
# Poissons Ratio (y) = 0.44935 0.52728
# Poissons Ratio (z) = 0.13980 0.13980
#
# Static dielectric constant tensor:
#      x y z
#    x 3.131200 0.000000 0.000000 
#    y 0.000000 3.131200 0.000000 
#    z 0.000000 0.000000 4.073450 
# 
# 
# High freq. dielectric constant tensor:
#      x y z
#    x 1.674860 0.000000 0.000000 
#    y 0.000000 1.674860 0.000000 
#    z 0.000000 0.000000 1.721560 
# 
# From -- ./inp_files/2127.got.cif
#   From: 2010.03.12/outbox.cif.g09.slc.cpg/sg137_2_cif.got.tgz:2127.got - 2010.04.08 09:34:49.
