data_PCOD8318251
_publ_section_title
;
Structure prediction by ZEFSAII (Michael W. Deem and Ramdas Pophale) SiO2 
 PCOD8318251
Probable space group: P 42/M N M
;
_chemical_formula_sum "Si O2"
_cell_formula_units_Z 32
_cell_length_a 11.544514
_cell_length_b 11.544514
_cell_length_c 10.214258
_cell_angle_alpha 90.000000
_cell_angle_beta 90.000000
_cell_angle_gamma 90.000000
_cell_volume 1361.313442
_symmetry_space_group_name_H-M "P 42/M N M"
_symmetry_group_IT_number 136
_symmetry_cell_setting 'tetragonal'
loop_
_space_group_symop_operation_xyz
x,y,z
1/2-y,1/2+x,1/2+z
-x,-y,z
1/2+y,1/2-x,1/2+z
1/2+x,1/2-y,1/2-z
1/2-x,1/2+y,1/2-z
y,x,-z
-y,-x,-z
-x,-y,-z
1/2+y,1/2-x,1/2-z
x,y,-z
1/2-y,1/2+x,1/2-z
1/2-x,1/2+y,1/2+z
1/2+x,1/2-y,1/2+z
-y,-x,z
y,x,z
loop_
_atom_site_type_symbol
_atom_site_label
_atom_site_fract_x
_atom_site_fract_y
_atom_site_fract_z
Si Si1 0.634431 0.036102 0.500000
Si Si2 0.002679 0.811788 0.280704
Si Si3 0.041904 0.225430 0.000000
O O1 0.699905 0.988574 0.627954
O O2 0.639102 0.174907 0.500000
O O3 0.500000 0.000000 0.500000
O O4 0.105892 0.894109 0.332110
O O5 0.881036 0.881036 0.282214
O O6 0.033261 0.767423 0.133410
O O7 0.100250 0.100250 0.000000
#
# Coordination Sequence:
#
# PCOD8318251 Si02
#       3
#     8  16   8
#     4  12  27  41  63 101 144 180 221 278 343 410
#     4  10  22  45  74 100 131 180 236 281 331 405
#     4  10  23  41  67 102 136 174 223 284 344 399
#
# _framework density 23.506710000000002
#
# number of rings (size 3 to 8) (size 9 to 14) (size 15 to 20)
#    0.000    1.500    0.000    3.750    7.000    5.000 
#    0.000    2.500    0.000    0.000    0.000    0.000 
#    0.000    0.000    0.000    0.000    0.000    0.000 
#
# Total GULP energy -396733.342696 kJ/mol
# GULP energy per Si atom -12397.916959 kJ/mol
# Density = 2.345321 g / cm^3
# Si number density = 23.506710 Si / 1000 Ang^3
#
#
#
# Elastic Constant Matrix: (Units=GPa)
#
#
# Indices 1 2 3 4 5 6 
#
# 1 116.8993 30.7625 64.7212 0.0000 0.0000 0.0000
# 2 30.7625 116.8993 64.7212 0.0000 0.0000 0.0000
# 3 64.7212 64.7212 213.5489 0.0000 0.0000 0.0000
# 4 0.0000 0.0000 0.0000 5.2699 0.0000 0.0000
# 5 0.0000 0.0000 0.0000 0.0000 5.2699 0.0000
# 6 0.0000 0.0000 0.0000 0.0000 0.0000 31.1379
#
#
#
# Elastic Compliance Matrix: (Units=1/GPa)
#
#
# Indices 1 2 3 4 5 6 
#
# 1 0.010416 -0.001193 -0.002795 0.000000 0.000000 0.000000
# 2 -0.001193 0.010416 -0.002795 0.000000 0.000000 0.000000
# 3 -0.002795 -0.002795 0.006377 0.000000 0.000000 0.000000
# 4 0.000000 0.000000 0.000000 0.189756 0.000000 0.000000
# 5 0.000000 0.000000 0.000000 0.000000 0.189756 0.000000
# 6 0.000000 0.000000 0.000000 0.000000 0.000000 0.032115
#
#
# Mechanical properties :
#
#
# Convention : Reuss Voigt Hill
#
# Bulk Modulus (GPa) = 73.30543 85.30635 79.30589
# Shear Modulus (GPa) = 10.94210 27.47838 19.21024
#
# Velocity S-wave (km/s) = 2.15986 3.42271 2.86181
# Velocity P-wave (km/s) = 6.12149 7.21034 6.68811
#
# Compressibility (1/GPa) = 0.01364155
#
# Stress axis : x y z
#
# Youngs Moduli (GPa) = 96.00664 96.00664 156.81332
#
# Poissons Ratio (x) = 0.11458 0.43831
# Poissons Ratio (y) = 0.11458 0.43831
# Poissons Ratio (z) = 0.26835 0.26835
#
# Static dielectric constant tensor:
#      x y z
#    x 4.088410 0.000000 0.000000 
#    y 0.000000 4.088410 0.000000 
#    z 0.000000 0.000000 4.496130 
# 
# 
# High freq. dielectric constant tensor:
#      x y z
#    x 1.918450 0.000000 0.000000 
#    y 0.000000 1.918450 0.000000 
#    z 0.000000 0.000000 1.948940 
# 
# From -- ./inp_files/2650.got.cif
#   From: 2010.03.12/outbox.cif.g09.slc.cpg/sg136_2_cif.got.tgz:2650.got - 2010.04.06 18:39:43.
