data_PCOD8318080
_publ_section_title
;
Structure prediction by ZEFSAII (Michael W. Deem and Ramdas Pophale) SiO2 
 PCOD8318080
Probable space group: P 42/M N M
;
_chemical_formula_sum "Si O2"
_cell_formula_units_Z 80
_cell_length_a 12.133047
_cell_length_b 12.133047
_cell_length_c 28.756742
_cell_angle_alpha 90.000000
_cell_angle_beta 90.000000
_cell_angle_gamma 90.000000
_cell_volume 4233.303844
_symmetry_space_group_name_H-M "P 42/M N M"
_symmetry_group_IT_number 136
_symmetry_cell_setting 'tetragonal'
loop_
_space_group_symop_operation_xyz
x,y,z
1/2-y,1/2+x,1/2+z
-x,-y,z
1/2+y,1/2-x,1/2+z
1/2+x,1/2-y,1/2-z
1/2-x,1/2+y,1/2-z
y,x,-z
-y,-x,-z
-x,-y,-z
1/2+y,1/2-x,1/2-z
x,y,-z
1/2-y,1/2+x,1/2-z
1/2-x,1/2+y,1/2+z
1/2+x,1/2-y,1/2+z
-y,-x,z
y,x,z
loop_
_atom_site_type_symbol
_atom_site_label
_atom_site_fract_x
_atom_site_fract_y
_atom_site_fract_z
Si Si1 0.006722 0.822662 0.699662
Si Si2 0.632571 0.813934 0.946535
Si Si3 0.682308 0.500278 0.303397
Si Si4 0.010426 0.626473 0.877044
Si Si5 0.424964 0.756262 0.106708
O O1 0.128572 0.871429 0.689266
O O2 0.004148 0.768941 0.750919
O O3 0.975020 0.737658 0.659202
O O4 0.922645 0.922645 0.699796
O O5 0.737745 0.737745 0.938901
O O6 0.523800 0.748726 0.930014
O O7 0.651302 0.924915 0.917863
O O8 0.617219 0.846804 0.000000
O O9 0.606863 0.393138 0.311502
O O10 0.610250 0.610250 0.313394
O O11 0.788712 0.491705 0.335513
O O12 0.131745 0.644671 0.899112
O O13 0.000000 0.500000 0.859470
O O14 0.349271 0.650729 0.098100
#
# Coordination Sequence:
#
# PCOD8318080 Si02
#       5
#    16  16  16  16  16
#     4   8  15  30  52  77 106 141 179 221 268 314
#     4  10  22  40  60  80 104 141 187 231 276 327
#     4   9  17  33  58  81 103 140 190 233 266 310
#     4  10  21  36  52  78 113 149 175 217 273 336
#     4  10  20  35  55  82 113 142 177 226 280 331
#
# _framework density 18.897770000000001
#
# number of rings (size 3 to 8) (size 9 to 14) (size 15 to 20)
#    0.000    2.600    0.000    3.000    0.000    5.200 
#    7.200    1.000    0.000    1.800    0.000    7.000 
#    0.000    0.000    0.000    0.000    0.000    0.000 
#
# Total GULP energy -991711.825253 kJ/mol
# GULP energy per Si atom -12396.397816 kJ/mol
# Density = 1.885476 g / cm^3
# Si number density = 18.897770 Si / 1000 Ang^3
#
#
#
# Elastic Constant Matrix: (Units=GPa)
#
#
# Indices 1 2 3 4 5 6 
#
# 1 100.3604 41.5971 73.4900 0.0000 0.0000 0.0000
# 2 41.5971 100.3604 73.4900 0.0000 0.0000 0.0000
# 3 73.4900 73.4900 130.2346 0.0000 0.0000 0.0000
# 4 0.0000 0.0000 0.0000 24.9295 0.0000 0.0000
# 5 0.0000 0.0000 0.0000 0.0000 24.9295 0.0000
# 6 0.0000 0.0000 0.0000 0.0000 0.0000 17.4700
#
#
#
# Elastic Compliance Matrix: (Units=1/GPa)
#
#
# Indices 1 2 3 4 5 6 
#
# 1 0.016981 -0.000037 -0.009561 0.000000 0.000000 0.000000
# 2 -0.000037 0.016981 -0.009561 0.000000 0.000000 0.000000
# 3 -0.009561 -0.009561 0.018469 0.000000 0.000000 0.000000
# 4 0.000000 0.000000 0.000000 0.040113 0.000000 0.000000
# 5 0.000000 0.000000 0.000000 0.000000 0.040113 0.000000
# 6 0.000000 0.000000 0.000000 0.000000 0.000000 0.057241
#
#
# Mechanical properties :
#
#
# Convention : Reuss Voigt Hill
#
# Bulk Modulus (GPa) = 70.86243 78.67882 74.77062
# Shear Modulus (GPa) = 21.46660 22.95771 22.21216
#
# Velocity S-wave (km/s) = 3.37402 3.48923 3.43211
# Velocity P-wave (km/s) = 7.26346 7.61297 7.44027
#
# Compressibility (1/GPa) = 0.01411185
#
# Stress axis : x y z
#
# Youngs Moduli (GPa) = 58.89049 58.89049 54.14454
#
# Poissons Ratio (x) = 0.00216 0.51769
# Poissons Ratio (y) = 0.00216 0.51769
# Poissons Ratio (z) = 0.56307 0.56307
#
# Static dielectric constant tensor:
#      x y z
#    x 3.533810 0.000000 0.000000 
#    y 0.000000 3.533810 0.000000 
#    z 0.000000 0.000000 3.510760 
# 
# 
# High freq. dielectric constant tensor:
#      x y z
#    x 1.732160 0.000000 0.000000 
#    y 0.000000 1.732160 0.000000 
#    z 0.000000 0.000000 1.727960 
# 
# From -- ./inp_files/9528.got.cif
#   From: 2010.03.12/outbox.cif.g09.slc.cpg/sg136_5_cif.got.tgz:9528.got - 2010.04.06 18:39:43.
