data_PCOD8318148
_publ_section_title
;
Structure prediction by ZEFSAII (Michael W. Deem and Ramdas Pophale) SiO2 
 PCOD8318148
Probable space group: P 42/M N M
;
_chemical_formula_sum "Si O2"
_cell_formula_units_Z 96
_cell_length_a 17.935551
_cell_length_b 17.935551
_cell_length_c 17.072689
_cell_angle_alpha 90.000000
_cell_angle_beta 90.000000
_cell_angle_gamma 90.000000
_cell_volume 5492.010712
_symmetry_space_group_name_H-M "P 42/M N M"
_symmetry_group_IT_number 136
_symmetry_cell_setting 'tetragonal'
loop_
_space_group_symop_operation_xyz
x,y,z
1/2-y,1/2+x,1/2+z
-x,-y,z
1/2+y,1/2-x,1/2+z
1/2+x,1/2-y,1/2-z
1/2-x,1/2+y,1/2-z
y,x,-z
-y,-x,-z
-x,-y,-z
1/2+y,1/2-x,1/2-z
x,y,-z
1/2-y,1/2+x,1/2-z
1/2-x,1/2+y,1/2+z
1/2+x,1/2-y,1/2+z
-y,-x,z
y,x,z
loop_
_atom_site_type_symbol
_atom_site_label
_atom_site_fract_x
_atom_site_fract_y
_atom_site_fract_z
Si Si1 0.214824 0.907947 0.087002
Si Si2 0.785834 0.334920 0.656132
Si Si3 0.688992 0.433391 0.138549
Si Si4 0.164326 0.045269 0.816344
Si Si5 0.546243 0.665805 0.000000
Si Si6 0.711116 0.170285 0.500000
Si Si7 0.180452 0.306774 0.673614
O O1 0.163901 0.836100 0.079448
O O2 0.292147 0.880118 0.126952
O O3 0.170254 0.967547 0.138711
O O4 0.232222 0.939764 0.000000
O O5 0.744161 0.255840 0.656644
O O6 0.728193 0.402191 0.649756
O O7 0.838754 0.338647 0.579139
O O8 0.832206 0.339864 0.737395
O O9 0.626685 0.373316 0.117979
O O10 0.675937 0.468133 0.224210
O O11 0.680665 0.499127 0.077326
O O12 0.770241 0.393193 0.133615
O O13 0.083583 0.083583 0.831414
O O14 0.582563 0.582563 0.000000
O O15 0.610556 0.725127 0.000000
O O16 0.746460 0.253540 0.500000
O O17 0.242731 0.242731 0.677669
#
# Coordination Sequence:
#
# PCOD8318148 Si02
#       7
#    16  16  16  16   8   8  16
#     4  10  21  32  47  74 101 130 168 207 251 295
#     4   8  15  30  50  70  92 124 164 206 253 298
#     4   9  19  35  52  71 100 139 175 202 239 297
#     4   9  19  34  51  72  99 134 170 205 254 308
#     4  11  23  32  47  79 112 136 164 201 251 314
#     4   9  18  29  46  74 101 125 156 203 256 298
#     4   8  16  32  52  69  91 126 172 218 245 277
#
# _framework density 17.479937
#
# number of rings (size 3 to 8) (size 9 to 14) (size 15 to 20)
#    0.000    3.000    0.000    2.250    4.667    2.000 
#    0.000    2.500    0.000    0.000    0.000    2.333 
#    0.000    0.000    0.000    0.000    0.000    0.000 
#
# Total GULP energy -1189654.610795 kJ/mol
# GULP energy per Si atom -12392.235529 kJ/mol
# Density = 1.744015 g / cm^3
# Si number density = 17.479937 Si / 1000 Ang^3
#
#
#
# Elastic Constant Matrix: (Units=GPa)
#
#
# Indices 1 2 3 4 5 6 
#
# 1 40.8353 41.6225 52.1324 0.0000 0.0000 0.0000
# 2 41.6225 40.8359 52.1331 0.0000 0.0000 0.0000
# 3 52.1324 52.1331 133.3112 0.0000 0.0000 0.0000
# 4 0.0000 0.0000 0.0000 25.2937 0.0000 0.0000
# 5 0.0000 0.0000 0.0000 0.0000 25.2935 0.0000
# 6 0.0000 0.0000 0.0000 0.0000 0.0000 23.0389
#
#
#
# Elastic Compliance Matrix: (Units=1/GPa)
#
#
# Indices 1 2 3 4 5 6 
#
# 1 -0.623403 0.647391 -0.009384 0.000000 0.000000 0.000000
# 2 0.647391 -0.623400 -0.009379 0.000000 0.000000 0.000000
# 3 -0.009384 -0.009379 0.014839 0.000000 0.000000 0.000000
# 4 0.000000 0.000000 0.000000 0.039536 0.000000 0.000000
# 5 0.000000 0.000000 0.000000 0.000000 0.039536 0.000000
# 6 0.000000 0.000000 0.000000 0.000000 0.000000 0.043405
#
#
# Mechanical properties :
#
#
# Convention : Reuss Voigt Hill
#
# Bulk Modulus (GPa) = 39.53727 56.30648 47.92187
# Shear Modulus (GPa) = -2.12016 19.33150 8.60567
#
# Velocity S-wave (km/s) = -1.10252 3.32915 2.22123
# Velocity P-wave (km/s) = 4.58770 6.86001 5.83553
#
# Compressibility (1/GPa) = 0.02529259
#
# Stress axis : x y z
#
# Youngs Moduli (GPa) = -1.60410 -1.60411 67.39115
#
# Poissons Ratio (x) = 1.03848 0.63242
# Poissons Ratio (y) = 1.03848 0.63205
# Poissons Ratio (z) = -0.01505 -0.01504
#
# Static dielectric constant tensor:
#      x y z
#    x 3.010480 0.000000 0.000000 
#    y 0.000000 3.010480 0.000000 
#    z 0.000000 0.000000 3.650260 
# 
# 
# High freq. dielectric constant tensor:
#      x y z
#    x 1.641910 0.000000 0.000000 
#    y 0.000000 1.641910 0.000000 
#    z 0.000000 0.000000 1.697040 
# 
# From -- ./inp_files/6351.got.cif
#   From: 2010.03.12/outbox.cif.g09.slc.cpg/sg136_4_cif.got.tgz:6351.got - 2010.04.06 18:39:43.
