data_PCOD8318618
_publ_section_title
;
Structure prediction by ZEFSAII (Michael W. Deem and Ramdas Pophale) SiO2 
 PCOD8318618
Probable space group: P 42/N M C
;
_chemical_formula_sum "Si O2"
_cell_formula_units_Z 112
_cell_length_a 14.881729
_cell_length_b 14.881729
_cell_length_c 26.274960
_cell_angle_alpha 90.000000
_cell_angle_beta 90.000000
_cell_angle_gamma 90.000000
_cell_volume 5819.006561
_symmetry_space_group_name_H-M "P 42/N M C"
_symmetry_group_IT_number 137
_space_group.IT_coordinate_system_code '2'
_symmetry_cell_setting 'tetragonal'
loop_
_space_group_symop_operation_xyz
x,y,z
1/2-y,x,1/2+z
1/2-x,1/2-y,z
y,1/2-x,1/2+z
1/2+x,-y,-z
-x,1/2+y,-z
1/2+y,1/2+x,1/2-z
-y,-x,1/2-z
-x,-y,-z
1/2+y,-x,1/2-z
1/2+x,1/2+y,-z
-y,1/2+x,1/2-z
1/2-x,y,z
x,1/2-y,z
1/2-y,1/2-x,1/2+z
y,x,1/2+z
loop_
_atom_site_type_symbol
_atom_site_label
_atom_site_fract_x
_atom_site_fract_y
_atom_site_fract_z
Si Si1 0.853716 0.991365 0.399205
Si Si2 0.350025 0.497091 0.370592
Si Si3 0.647458 0.094189 0.803857
Si Si4 0.520711 0.058226 0.547741
Si Si5 0.529652 0.580001 0.788519
Si Si6 0.350394 0.851528 0.977459
Si Si7 0.852138 0.848655 0.707635
O O1 0.750000 0.957870 0.405522
O O2 0.870715 0.083390 0.430136
O O3 0.875192 0.009494 0.339801
O O4 0.926513 0.918632 0.422520
O O5 0.250000 0.469230 0.388340
O O6 0.345719 0.596038 0.345455
O O7 0.417140 0.495390 0.417380
O O8 0.389483 0.424329 0.330662
O O9 0.644334 0.144334 0.750000
O O10 0.750000 0.080887 0.821238
O O11 0.596847 0.999906 0.802629
O O12 0.579764 0.140808 0.525692
O O13 0.500000 0.000000 0.500000
O O14 0.450613 0.549388 0.750000
O O15 0.589488 0.653023 0.758881
O O16 0.250000 0.862202 0.955815
O O17 0.367118 0.750000 0.998007
O O18 0.750000 0.873655 0.722188
O O19 0.857618 0.750000 0.682147
#
# Coordination Sequence:
#
# PCOD8318618 Si02
#       7
#    16  16  16  16  16  16  16
#     4  10  20  36  58  81 111 154 194 231 283 340
#     4  11  21  36  56  84 116 147 186 236 286 344
#     4  11  21  34  55  81 118 155 183 220 277 341
#     4  10  20  37  57  80 109 143 185 231 291 341
#     4  11  19  35  55  79 115 152 197 235 277 326
#     4   9  19  37  61  87 112 141 184 239 296 353
#     4  10  20  35  56  82 113 152 195 236 277 332
#
# _framework density 19.247271999999999
#
# number of rings (size 3 to 8) (size 9 to 14) (size 15 to 20)
#    0.000    1.714    4.286    1.714    0.000    2.143 
#    0.000    7.143    0.000    2.143    0.000    0.000 
#    0.000    0.000    0.000    0.000    0.000    0.000 
#
# Total GULP energy -1387890.414332 kJ/mol
# GULP energy per Si atom -12391.878699 kJ/mol
# Density = 1.920346 g / cm^3
# Si number density = 19.247272 Si / 1000 Ang^3
#
#
#
# Elastic Constant Matrix: (Units=GPa)
#
#
# Indices 1 2 3 4 5 6 
#
# 1 105.3563 29.9807 48.1458 0.0000 0.0000 0.0000
# 2 29.9807 105.3560 48.1458 0.0000 0.0000 0.0000
# 3 48.1458 48.1458 124.9370 0.0000 0.0000 0.0000
# 4 0.0000 0.0000 0.0000 20.8016 0.0000 0.0000
# 5 0.0000 0.0000 0.0000 0.0000 20.8016 0.0000
# 6 0.0000 0.0000 0.0000 0.0000 0.0000 16.9219
#
#
#
# Elastic Compliance Matrix: (Units=1/GPa)
#
#
# Indices 1 2 3 4 5 6 
#
# 1 0.011724 -0.001543 -0.003923 0.000000 0.000000 0.000000
# 2 -0.001543 0.011724 -0.003923 0.000000 0.000000 0.000000
# 3 -0.003923 -0.003923 0.011028 0.000000 0.000000 0.000000
# 4 0.000000 0.000000 0.000000 0.048073 0.000000 0.000000
# 5 0.000000 0.000000 0.000000 0.000000 0.048073 0.000000
# 6 0.000000 0.000000 0.000000 0.000000 0.000000 0.059095
#
#
# Mechanical properties :
#
#
# Convention : Reuss Voigt Hill
#
# Bulk Modulus (GPa) = 63.71125 65.35490 64.53307
# Shear Modulus (GPa) = 23.39431 25.66347 24.52889
#
# Velocity S-wave (km/s) = 3.49013 3.65548 3.57376
# Velocity P-wave (km/s) = 7.02955 7.20040 7.11549
#
# Compressibility (1/GPa) = 0.01569582
#
# Stress axis : x y z
#
# Youngs Moduli (GPa) = 85.29848 85.29818 90.68141
#
# Poissons Ratio (x) = 0.13165 0.35575
# Poissons Ratio (y) = 0.13165 0.35575
# Poissons Ratio (z) = 0.33463 0.33463
#
# Static dielectric constant tensor:
#      x y z
#    x 3.684140 0.000000 0.000000 
#    y 0.000000 3.684140 0.000000 
#    z 0.000000 0.000000 3.674940 
# 
# 
# High freq. dielectric constant tensor:
#      x y z
#    x 1.738990 0.000000 0.000000 
#    y 0.000000 1.738990 0.000000 
#    z 0.000000 0.000000 1.746670 
# 
# From -- ./inp_files/9819.got.cif
#   From: 2010.03.12/outbox.cif.g09.slc.cpg/sg137_5_cif.got.tgz:9819.got - 2010.04.08 09:34:49.
