data_PCOD8318121
_publ_section_title
;
Structure prediction by ZEFSAII (Michael W. Deem and Ramdas Pophale) SiO2 
 PCOD8318121
Probable space group: P 42/M N M
;
_chemical_formula_sum "Si O2"
_cell_formula_units_Z 96
_cell_length_a 23.373804
_cell_length_b 23.373804
_cell_length_c 8.996644
_cell_angle_alpha 90.000000
_cell_angle_beta 90.000000
_cell_angle_gamma 90.000000
_cell_volume 4915.178922
_symmetry_space_group_name_H-M "P 42/M N M"
_symmetry_group_IT_number 136
_symmetry_cell_setting 'tetragonal'
loop_
_space_group_symop_operation_xyz
x,y,z
1/2-y,1/2+x,1/2+z
-x,-y,z
1/2+y,1/2-x,1/2+z
1/2+x,1/2-y,1/2-z
1/2-x,1/2+y,1/2-z
y,x,-z
-y,-x,-z
-x,-y,-z
1/2+y,1/2-x,1/2-z
x,y,-z
1/2-y,1/2+x,1/2-z
1/2-x,1/2+y,1/2+z
1/2+x,1/2-y,1/2+z
-y,-x,z
y,x,z
loop_
_atom_site_type_symbol
_atom_site_label
_atom_site_fract_x
_atom_site_fract_y
_atom_site_fract_z
Si Si1 0.036243 0.874990 0.328609
Si Si2 0.345398 0.890932 0.668166
Si Si3 0.844256 0.844256 0.824166
Si Si4 0.016069 0.747185 0.327310
Si Si5 0.436352 0.563649 0.675176
Si Si6 0.602272 0.228475 0.328545
Si Si7 0.939155 0.551142 0.670265
O O1 0.017558 0.876272 0.500000
O O2 0.101640 0.898361 0.310918
O O3 0.028909 0.810773 0.265265
O O4 0.997263 0.918468 0.237853
O O5 0.365939 0.907112 0.500000
O O6 0.350541 0.822428 0.687352
O O7 0.383997 0.911851 0.803289
O O8 0.285479 0.923122 0.698589
O O9 0.890199 0.890199 0.771839
O O10 0.783293 0.865068 0.758906
O O11 0.839117 0.839117 0.000000
O O12 0.000838 0.747704 0.500000
O O13 0.960010 0.718868 0.249271
O O14 0.440885 0.559116 0.500000
O O15 0.586840 0.238777 0.500000
O O16 0.959257 0.553853 0.500000
O O17 0.924352 0.486952 0.719037
#
# Coordination Sequence:
#
# PCOD8318121 Si02
#       7
#    16  16   8  16   8  16  16
#     4  10  21  37  56  81 116 152 185 225 281 341
#     4  10  21  36  54  80 110 143 186 230 278 332
#     4   9  18  34  56  83 110 140 184 231 275 324
#     4  10  21  37  56  81 112 147 187 232 277 331
#     4  11  20  34  59  88 116 142 184 234 279 333
#     4  10  20  37  59  81 109 146 186 233 282 332
#     4  11  21  34  53  77 107 141 179 227 280 332
#
# _framework density 19.531333
#
# number of rings (size 3 to 8) (size 9 to 14) (size 15 to 20)
#    0.000    1.833    1.667    3.500    0.000    5.333 
#    1.500    0.417    0.000    0.000    0.000    0.000 
#    0.000    0.000    0.000    0.000    0.000    0.000 
#
# Total GULP energy -1189391.818013 kJ/mol
# GULP energy per Si atom -12389.498104 kJ/mol
# Density = 1.948688 g / cm^3
# Si number density = 19.531333 Si / 1000 Ang^3
#
#
#
# Elastic Constant Matrix: (Units=GPa)
#
#
# Indices 1 2 3 4 5 6 
#
# 1 113.8796 43.8519 20.6302 0.0000 0.0000 0.0000
# 2 43.8519 113.8795 20.6301 0.0000 0.0000 0.0000
# 3 20.6302 20.6301 53.0230 0.0000 0.0000 0.0000
# 4 0.0000 0.0000 0.0000 23.1305 0.0000 0.0000
# 5 0.0000 0.0000 0.0000 0.0000 23.1305 0.0000
# 6 0.0000 0.0000 0.0000 0.0000 0.0000 40.0339
#
#
#
# Elastic Compliance Matrix: (Units=1/GPa)
#
#
# Indices 1 2 3 4 5 6 
#
# 1 0.010669 -0.003611 -0.002746 0.000000 0.000000 0.000000
# 2 -0.003611 0.010669 -0.002746 0.000000 0.000000 0.000000
# 3 -0.002746 -0.002746 0.020997 0.000000 0.000000 0.000000
# 4 0.000000 0.000000 0.000000 0.043233 0.000000 0.000000
# 5 0.000000 0.000000 0.000000 0.000000 0.043233 0.000000
# 6 0.000000 0.000000 0.000000 0.000000 0.000000 0.024979
#
#
# Mechanical properties :
#
#
# Convention : Reuss Voigt Hill
#
# Bulk Modulus (GPa) = 41.44497 50.11182 45.77839
# Shear Modulus (GPa) = 27.77326 30.30365 29.03845
#
# Velocity S-wave (km/s) = 3.77501 3.94323 3.86004
# Velocity P-wave (km/s) = 6.34561 6.81505 6.58452
#
# Compressibility (1/GPa) = 0.02412838
#
# Stress axis : x y z
#
# Youngs Moduli (GPa) = 93.72812 93.72808 47.62644
#
# Poissons Ratio (x) = 0.33844 0.13079
# Poissons Ratio (y) = 0.33844 0.13079
# Poissons Ratio (z) = 0.25740 0.25740
#
# Static dielectric constant tensor:
#      x y z
#    x 3.688910 0.000000 0.000000 
#    y 0.000000 3.688910 0.000000 
#    z 0.000000 0.000000 2.832000 
# 
# 
# High freq. dielectric constant tensor:
#      x y z
#    x 1.758330 0.000000 0.000000 
#    y 0.000000 1.758330 0.000000 
#    z 0.000000 0.000000 1.746040 
# 
# From -- ./inp_files/2025.got.cif
#   From: 2010.03.12/outbox.cif.g09.slc.cpg/sg136_2_cif.got.tgz:2025.got - 2010.04.06 18:39:43.
