data_PCOD8318777
_publ_section_title
;
Structure prediction by ZEFSAII (Michael W. Deem and Ramdas Pophale) SiO2 
 PCOD8318777
Probable space group: P 42/N M C
;
_chemical_formula_sum "Si O2"
_cell_formula_units_Z 120
_cell_length_a 25.942796
_cell_length_b 25.942796
_cell_length_c 8.918551
_cell_angle_alpha 90.000000
_cell_angle_beta 90.000000
_cell_angle_gamma 90.000000
_cell_volume 6002.440467
_symmetry_space_group_name_H-M "P 42/N M C"
_symmetry_group_IT_number 137
_space_group.IT_coordinate_system_code '2'
_symmetry_cell_setting 'tetragonal'
loop_
_space_group_symop_operation_xyz
x,y,z
1/2-y,x,1/2+z
1/2-x,1/2-y,z
y,1/2-x,1/2+z
1/2+x,-y,-z
-x,1/2+y,-z
1/2+y,1/2+x,1/2-z
-y,-x,1/2-z
-x,-y,-z
1/2+y,-x,1/2-z
1/2+x,1/2+y,-z
-y,1/2+x,1/2-z
1/2-x,y,z
x,1/2-y,z
1/2-y,1/2-x,1/2+z
y,x,1/2+z
loop_
_atom_site_type_symbol
_atom_site_label
_atom_site_fract_x
_atom_site_fract_y
_atom_site_fract_z
Si Si1 0.003901 0.691059 0.895824
Si Si2 0.807610 0.193082 0.428384
Si Si3 0.123651 0.600825 0.576983
Si Si4 0.394235 0.192262 0.019333
Si Si5 0.694102 0.638912 0.147853
Si Si6 0.916895 0.013794 0.987106
Si Si7 0.523414 0.693041 0.556451
Si Si8 0.996347 0.496347 0.250000
O O1 0.009902 0.750000 0.946888
O O2 0.052403 0.659974 0.953366
O O3 0.951099 0.666326 0.965273
O O4 0.003430 0.687690 0.716813
O O5 0.808118 0.191883 0.250000
O O6 0.750000 0.180137 0.486195
O O7 0.824286 0.250000 0.484822
O O8 0.847991 0.151319 0.488948
O O9 0.107863 0.607863 0.750000
O O10 0.074754 0.590325 0.473623
O O11 0.404684 0.250000 0.967781
O O12 0.357205 0.168518 0.896224
O O13 0.364741 0.189959 0.175038
O O14 0.750000 0.665445 0.108679
O O15 0.693690 0.584295 0.068521
O O16 0.859066 0.990557 0.965851
O O17 0.944786 0.001407 0.146940
O O18 0.952433 0.993652 0.851833
O O19 0.506679 0.750000 0.487792
#
# Coordination Sequence:
#
# PCOD8318777 Si02
#       8
#    16  16  16  16  16  16  16   8
#     4   9  17  31  49  75 109 142 177 219 264 319
#     4   8  15  26  41  71 114 150 181 225 282 332
#     4  11  18  28  50  79 107 140 182 223 273 324
#     4   9  19  34  52  73  99 132 167 206 258 312
#     4   9  19  34  51  74  99 127 165 208 255 310
#     4  11  21  38  55  82 108 144 188 231 278 332
#     4   9  18  33  54  77 104 135 174 221 267 319
#     4  10  24  38  56  78 114 148 188 234 282 330
#
# _framework density 19.991868
#
# number of rings (size 3 to 8) (size 9 to 14) (size 15 to 20)
#    0.000    2.533    2.000    2.400    0.000    6.133 
#    0.000    1.333    0.000    3.200    0.000    2.800 
#    0.000    1.067    0.000    0.000    0.000    0.000 
#
# Total GULP energy -1486746.454106 kJ/mol
# GULP energy per Si atom -12389.553784 kJ/mol
# Density = 1.994637 g / cm^3
# Si number density = 19.991868 Si / 1000 Ang^3
#
#
#
# Elastic Constant Matrix: (Units=GPa)
#
#
# Indices 1 2 3 4 5 6 
#
# 1 109.7043 49.5575 24.8831 0.0000 0.0000 0.0000
# 2 49.5575 109.7042 24.8831 0.0000 0.0000 0.0000
# 3 24.8831 24.8831 26.1493 0.0000 0.0000 0.0000
# 4 0.0000 0.0000 0.0000 13.2202 0.0000 0.0000
# 5 0.0000 0.0000 0.0000 0.0000 13.2202 0.0000
# 6 0.0000 0.0000 0.0000 0.0000 0.0000 40.6114
#
#
#
# Elastic Compliance Matrix: (Units=1/GPa)
#
#
# Indices 1 2 3 4 5 6 
#
# 1 0.012781 -0.003845 -0.008503 0.000000 0.000000 0.000000
# 2 -0.003845 0.012781 -0.008503 0.000000 0.000000 0.000000
# 3 -0.008503 -0.008503 0.054425 0.000000 0.000000 0.000000
# 4 0.000000 0.000000 0.000000 0.075642 0.000000 0.000000
# 5 0.000000 0.000000 0.000000 0.000000 0.075642 0.000000
# 6 0.000000 0.000000 0.000000 0.000000 0.000000 0.024624
#
#
# Mechanical properties :
#
#
# Convention : Reuss Voigt Hill
#
# Bulk Modulus (GPa) = 26.12071 49.35615 37.73843
# Shear Modulus (GPa) = 16.11036 23.15930 19.63483
#
# Velocity S-wave (km/s) = 2.84182 3.40727 3.13731
# Velocity P-wave (km/s) = 4.88487 6.34201 5.66052
#
# Compressibility (1/GPa) = 0.03828380
#
# Stress axis : x y z
#
# Youngs Moduli (GPa) = 78.24088 78.24072 18.37386
#
# Poissons Ratio (x) = 0.30083 0.15624
# Poissons Ratio (y) = 0.30083 0.15624
# Poissons Ratio (z) = 0.66531 0.66531
#
# Static dielectric constant tensor:
#      x y z
#    x 3.895950 0.000000 0.000000 
#    y 0.000000 3.895960 0.000000 
#    z 0.000000 0.000000 3.123200 
# 
# 
# High freq. dielectric constant tensor:
#      x y z
#    x 1.790400 0.000000 0.000000 
#    y 0.000000 1.790400 0.000000 
#    z 0.000000 0.000000 1.719230 
# 
# From -- ./inp_files/2357.got.cif
#   From: 2010.03.12/outbox.cif.g09.slc.cpg/sg137_2_cif.got.tgz:2357.got - 2010.04.08 09:34:49.
