data_PCOD8318852
_publ_section_title
;
Structure prediction by ZEFSAII (Michael W. Deem and Ramdas Pophale) SiO2 
 PCOD8318852
Probable space group: P 42/N C M
;
_chemical_formula_sum "Si O2"
_cell_formula_units_Z 112
_cell_length_a 19.920677
_cell_length_b 19.920677
_cell_length_c 18.524398
_cell_angle_alpha 90.000000
_cell_angle_beta 90.000000
_cell_angle_gamma 90.000000
_cell_volume 7351.099325
_symmetry_space_group_name_H-M "P 42/N C M"
_symmetry_group_IT_number 138
_space_group.IT_coordinate_system_code '2'
_symmetry_cell_setting 'tetragonal'
loop_
_space_group_symop_operation_xyz
x,y,z
1/2-y,x,1/2+z
1/2-x,1/2-y,z
y,1/2-x,1/2+z
1/2+x,-y,1/2-z
-x,1/2+y,1/2-z
1/2+y,1/2+x,-z
-y,-x,-z
-x,-y,-z
1/2+y,-x,1/2-z
1/2+x,1/2+y,-z
-y,1/2+x,1/2-z
1/2-x,y,1/2+z
x,1/2-y,1/2+z
1/2-y,1/2-x,z
y,x,z
loop_
_atom_site_type_symbol
_atom_site_label
_atom_site_fract_x
_atom_site_fract_y
_atom_site_fract_z
Si Si1 0.578411 0.810729 0.654698
Si Si2 0.585185 0.024220 0.435937
Si Si3 0.590099 0.703175 0.376474
Si Si4 0.880818 0.992430 0.278588
Si Si5 0.082163 0.307373 0.748542
Si Si6 0.523853 0.410115 0.222786
Si Si7 0.919621 0.688946 0.489360
O O1 0.644873 0.855128 0.666002
O O2 0.518224 0.837199 0.705740
O O3 0.593268 0.734829 0.678722
O O4 0.555866 0.808815 0.571899
O O5 0.580028 0.080028 0.500000
O O6 0.595359 0.056982 0.357244
O O7 0.515191 0.984810 0.435597
O O8 0.647255 0.974496 0.446191
O O9 0.653535 0.653535 0.375746
O O10 0.522114 0.663738 0.350526
O O11 0.601989 0.763300 0.320678
O O12 0.582806 0.735936 0.455861
O O13 0.939974 0.939974 0.276496
O O14 0.915436 0.066367 0.276561
O O15 0.130855 0.369146 0.751196
O O16 0.006226 0.337793 0.745716
O O17 0.464495 0.464495 0.221101
O O18 0.846641 0.653360 0.483506
#
# Coordination Sequence:
#
# PCOD8318852 Si02
#       7
#    16  16  16  16  16  16  16
#     4   9  18  29  41  58  86 118 148 179 212 256
#     4   9  15  23  39  62  86 109 134 176 229 268
#     4  10  19  29  41  58  86 120 149 180 215 257
#     4   8  15  28  43  59  79 111 145 176 222 264
#     4  10  18  28  41  59  82 112 151 186 215 253
#     4   9  15  25  42  61  80 104 142 184 221 264
#     4  10  18  28  40  60  87 117 151 181 213 256
#
# _framework density 15.235816
#
# number of rings (size 3 to 8) (size 9 to 14) (size 15 to 20)
#    0.000    2.714    1.429    2.571    0.000    6.000 
#    0.000    1.429    0.000    0.857    0.000    4.000 
#    0.000    9.143    0.000    2.429    0.000    0.286 
#
# Total GULP energy -1387575.323776 kJ/mol
# GULP energy per Si atom -12389.065391 kJ/mol
# Density = 1.520114 g / cm^3
# Si number density = 15.235816 Si / 1000 Ang^3
#
#
#
# Elastic Constant Matrix: (Units=GPa)
#
#
# Indices 1 2 3 4 5 6 
#
# 1 34.4647 30.1990 15.5056 0.0000 0.0000 0.0000
# 2 30.1990 34.4647 15.5056 0.0000 0.0000 0.0000
# 3 15.5056 15.5056 45.2471 0.0000 0.0000 0.0000
# 4 0.0000 0.0000 0.0000 18.7588 0.0000 0.0000
# 5 0.0000 0.0000 0.0000 0.0000 18.7588 0.0000
# 6 0.0000 0.0000 0.0000 0.0000 0.0000 20.9291
#
#
#
# Elastic Compliance Matrix: (Units=1/GPa)
#
#
# Indices 1 2 3 4 5 6 
#
# 1 0.126466 -0.107960 -0.006342 0.000000 0.000000 0.000000
# 2 -0.107960 0.126466 -0.006342 0.000000 0.000000 0.000000
# 3 -0.006342 -0.006342 0.026447 0.000000 0.000000 0.000000
# 4 0.000000 0.000000 0.000000 0.053308 0.000000 0.000000
# 5 0.000000 0.000000 0.000000 0.000000 0.053308 0.000000
# 6 0.000000 0.000000 0.000000 0.000000 0.000000 0.047780
#
#
# Mechanical properties :
#
#
# Convention : Reuss Voigt Hill
#
# Bulk Modulus (GPa) = 26.25204 26.28854 26.27029
# Shear Modulus (GPa) = 7.26999 15.22042 11.24520
#
# Velocity S-wave (km/s) = 2.18678 3.16411 2.71970
# Velocity P-wave (km/s) = 4.86250 5.53540 5.20983
#
# Compressibility (1/GPa) = 0.03809227
#
# Stress axis : x y z
#
# Youngs Moduli (GPa) = 7.90729 7.90729 37.81094
#
# Poissons Ratio (x) = 0.85367 0.23979
# Poissons Ratio (y) = 0.85367 0.23979
# Poissons Ratio (z) = 0.05015 0.05015
#
# Static dielectric constant tensor:
#      x y z
#    x 2.947190 0.000000 0.000000 
#    y 0.000000 2.947190 0.000000 
#    z 0.000000 0.000000 3.054760 
# 
# 
# High freq. dielectric constant tensor:
#      x y z
#    x 1.554260 0.000000 0.000000 
#    y 0.000000 1.554260 0.000000 
#    z 0.000000 0.000000 1.580840 
# 
# From -- ./inp_files/5420.got.cif
#   From: 2010.03.12/outbox.cif.g09.slc.cpg/sg138_3_cif.got.tgz:5420.got - 2010.04.08 09:41:05.
