data_PCOD8318597
_publ_section_title
;
Structure prediction by ZEFSAII (Michael W. Deem and Ramdas Pophale) SiO2 
 PCOD8318597
Probable space group: P 42/N M C
;
_chemical_formula_sum "Si O2"
_cell_formula_units_Z 112
_cell_length_a 14.704096
_cell_length_b 14.704096
_cell_length_c 25.964800
_cell_angle_alpha 90.000000
_cell_angle_beta 90.000000
_cell_angle_gamma 90.000000
_cell_volume 5613.860811
_symmetry_space_group_name_H-M "P 42/N M C"
_symmetry_group_IT_number 137
_space_group.IT_coordinate_system_code '2'
_symmetry_cell_setting 'tetragonal'
loop_
_space_group_symop_operation_xyz
x,y,z
1/2-y,x,1/2+z
1/2-x,1/2-y,z
y,1/2-x,1/2+z
1/2+x,-y,-z
-x,1/2+y,-z
1/2+y,1/2+x,1/2-z
-y,-x,1/2-z
-x,-y,-z
1/2+y,-x,1/2-z
1/2+x,1/2+y,-z
-y,1/2+x,1/2-z
1/2-x,y,z
x,1/2-y,z
1/2-y,1/2-x,1/2+z
y,x,1/2+z
loop_
_atom_site_type_symbol
_atom_site_label
_atom_site_fract_x
_atom_site_fract_y
_atom_site_fract_z
Si Si1 0.146934 0.147049 0.056424
Si Si2 0.145160 0.647810 0.005233
Si Si3 0.006234 0.462449 0.805488
Si Si4 0.144417 0.463548 0.956097
Si Si5 0.347866 0.351461 0.259287
Si Si6 0.856646 0.009281 0.598411
Si Si7 0.043226 0.351141 0.159751
O O1 0.250000 0.130075 0.074624
O O2 0.134506 0.250000 0.036040
O O3 0.080115 0.127523 0.103318
O O4 0.118929 0.079842 0.011074
O O5 0.250000 0.638537 0.022428
O O6 0.125283 0.750000 0.983420
O O7 0.085749 0.628717 0.055623
O O8 0.123679 0.572366 0.961195
O O9 0.105700 0.421762 0.797099
O O10 0.953791 0.401039 0.848145
O O11 0.954936 0.454936 0.750000
O O12 0.023507 0.566757 0.823930
O O13 0.250000 0.446008 0.942095
O O14 0.081843 0.414570 0.914064
O O15 0.250000 0.400717 0.265082
O O16 0.340168 0.250000 0.279200
O O17 0.372881 0.354986 0.199094
O O18 0.750000 0.985830 0.605268
O O19 0.996976 0.250000 0.162172
#
# Coordination Sequence:
#
# PCOD8318597 Si02
#       7
#    16  16  16  16  16  16  16
#     4   9  16  27  46  75 108 137 169 214 269 328
#     4   9  19  36  56  78 108 149 192 227 261 312
#     4  10  21  36  52  74 104 136 176 225 273 324
#     4  10  20  34  54  82 115 147 180 221 270 326
#     4   9  17  31  52  76 101 132 172 219 274 332
#     4  11  22  36  55  80 112 147 183 225 275 329
#     4   9  17  30  50  74 101 135 174 219 270 322
#
# _framework density 19.950619
#
# number of rings (size 3 to 8) (size 9 to 14) (size 15 to 20)
#    0.000    2.429    0.000    2.571    0.000    3.143 
#    0.000    5.714    0.000    0.429    0.000    3.000 
#    0.000    3.429    0.000    0.000    0.000    0.000 
#
# Total GULP energy -1387994.535190 kJ/mol
# GULP energy per Si atom -12392.808350 kJ/mol
# Density = 1.990521 g / cm^3
# Si number density = 19.950619 Si / 1000 Ang^3
#
#
#
# Elastic Constant Matrix: (Units=GPa)
#
#
# Indices 1 2 3 4 5 6 
#
# 1 103.3245 46.3657 34.9239 0.0000 0.0000 0.0000
# 2 46.3657 103.3245 34.9239 0.0000 0.0000 0.0000
# 3 34.9239 34.9239 63.8057 0.0000 0.0000 0.0000
# 4 0.0000 0.0000 0.0000 18.9077 0.0000 0.0000
# 5 0.0000 0.0000 0.0000 0.0000 18.9077 0.0000
# 6 0.0000 0.0000 0.0000 0.0000 0.0000 29.8570
#
#
#
# Elastic Compliance Matrix: (Units=1/GPa)
#
#
# Indices 1 2 3 4 5 6 
#
# 1 0.013264 -0.004292 -0.004911 0.000000 0.000000 0.000000
# 2 -0.004292 0.013264 -0.004911 0.000000 0.000000 0.000000
# 3 -0.004911 -0.004911 0.021048 0.000000 0.000000 0.000000
# 4 0.000000 0.000000 0.000000 0.052888 0.000000 0.000000
# 5 0.000000 0.000000 0.000000 0.000000 0.052888 0.000000
# 6 0.000000 0.000000 0.000000 0.000000 0.000000 0.033493
#
#
# Mechanical properties :
#
#
# Convention : Reuss Voigt Hill
#
# Bulk Modulus (GPa) = 51.68184 55.87574 53.77879
# Shear Modulus (GPa) = 22.57092 23.81724 23.19408
#
# Velocity S-wave (km/s) = 3.36719 3.45890 3.41335
# Velocity P-wave (km/s) = 6.40924 6.63474 6.52297
#
# Compressibility (1/GPa) = 0.01934916
#
# Stress axis : x y z
#
# Youngs Moduli (GPa) = 75.39075 75.39075 47.50968
#
# Poissons Ratio (x) = 0.32360 0.23331
# Poissons Ratio (y) = 0.32360 0.23331
# Poissons Ratio (z) = 0.37022 0.37022
#
# Static dielectric constant tensor:
#      x y z
#    x 3.774960 0.000000 0.000000 
#    y 0.000000 3.774960 0.000000 
#    z 0.000000 0.000000 3.592620 
# 
# 
# High freq. dielectric constant tensor:
#      x y z
#    x 1.773130 0.000000 0.000000 
#    y 0.000000 1.773130 0.000000 
#    z 0.000000 0.000000 1.769400 
# 
# From -- ./inp_files/9794.got.cif
#   From: 2010.03.12/outbox.cif.g09.slc.cpg/sg137_5_cif.got.tgz:9794.got - 2010.04.08 09:34:49.
