data_PCOD8318774
_publ_section_title
;
Structure prediction by ZEFSAII (Michael W. Deem and Ramdas Pophale) SiO2 
 PCOD8318774
Probable space group: P 42/N M C
;
_chemical_formula_sum "Si O2"
_cell_formula_units_Z 56
_cell_length_a 18.464748
_cell_length_b 18.464748
_cell_length_c 7.756212
_cell_angle_alpha 90.000000
_cell_angle_beta 90.000000
_cell_angle_gamma 90.000000
_cell_volume 2644.456582
_symmetry_space_group_name_H-M "P 42/N M C"
_symmetry_group_IT_number 137
_space_group.IT_coordinate_system_code '2'
_symmetry_cell_setting 'tetragonal'
loop_
_space_group_symop_operation_xyz
x,y,z
1/2-y,x,1/2+z
1/2-x,1/2-y,z
y,1/2-x,1/2+z
1/2+x,-y,-z
-x,1/2+y,-z
1/2+y,1/2+x,1/2-z
-y,-x,1/2-z
-x,-y,-z
1/2+y,-x,1/2-z
1/2+x,1/2+y,-z
-y,1/2+x,1/2-z
1/2-x,y,z
x,1/2-y,z
1/2-y,1/2-x,1/2+z
y,x,1/2+z
loop_
_atom_site_type_symbol
_atom_site_label
_atom_site_fract_x
_atom_site_fract_y
_atom_site_fract_z
Si Si1 0.331369 0.068244 0.223400
Si Si2 0.542811 0.666246 0.880652
Si Si3 0.899945 0.399945 0.250000
Si Si4 0.914488 0.332933 0.601051
O O1 0.250000 0.096248 0.195248
O O2 0.380259 0.137755 0.186010
O O3 0.341511 0.037614 0.415053
O O4 0.348694 0.001045 0.095492
O O5 0.532217 0.750000 0.822559
O O6 0.483262 0.613875 0.796998
O O7 0.879191 0.351523 0.415792
O O8 0.879945 0.379945 0.750000
O O9 0.898798 0.250000 0.645703
#
# Coordination Sequence:
#
# PCOD8318774 Si02
#       4
#    16  16   8  16
#     4  10  23  43  66  96 135 173 217 277 333 391
#     4  11  24  41  65  98 132 173 224 271 328 397
#     4  12  24  40  70  97 134 172 223 272 324 388
#     4  11  24  43  67  97 133 173 220 274 330 391
#
# _framework density 21.176373999999999
#
# number of rings (size 3 to 8) (size 9 to 14) (size 15 to 20)
#    0.000    1.143    2.857    2.571    2.000    7.714 
#    0.000    2.857    0.000    3.857    0.000    0.000 
#    0.000    0.000    0.000    0.000    0.000    0.000 
#
# Total GULP energy -694581.116016 kJ/mol
# GULP energy per Si atom -12403.234215 kJ/mol
# Density = 2.112818 g / cm^3
# Si number density = 21.176374 Si / 1000 Ang^3
#
#
#
# Elastic Constant Matrix: (Units=GPa)
#
#
# Indices 1 2 3 4 5 6 
#
# 1 110.1974 81.4856 35.1188 0.0000 0.0000 0.0000
# 2 81.4856 110.1974 35.1188 0.0000 0.0000 0.0000
# 3 35.1188 35.1188 93.1631 0.0000 0.0000 0.0000
# 4 0.0000 0.0000 0.0000 32.4870 0.0000 0.0000
# 5 0.0000 0.0000 0.0000 0.0000 32.4870 0.0000
# 6 0.0000 0.0000 0.0000 0.0000 0.0000 28.1305
#
#
#
# Elastic Compliance Matrix: (Units=1/GPa)
#
#
# Indices 1 2 3 4 5 6 
#
# 1 0.020441 -0.014388 -0.002282 0.000000 0.000000 0.000000
# 2 -0.014388 0.020441 -0.002282 0.000000 0.000000 0.000000
# 3 -0.002282 -0.002282 0.012454 0.000000 0.000000 0.000000
# 4 0.000000 0.000000 0.000000 0.030782 0.000000 0.000000
# 5 0.000000 0.000000 0.000000 0.000000 0.030782 0.000000
# 6 0.000000 0.000000 0.000000 0.000000 0.000000 0.035549
#
#
# Mechanical properties :
#
#
# Convention : Reuss Voigt Hill
#
# Bulk Modulus (GPa) = 64.79548 68.55606 66.67577
# Shear Modulus (GPa) = 25.84043 29.40986 27.62514
#
# Velocity S-wave (km/s) = 3.49699 3.73071 3.61574
# Velocity P-wave (km/s) = 6.85345 7.14155 6.99898
#
# Compressibility (1/GPa) = 0.01543318
#
# Stress axis : x y z
#
# Youngs Moduli (GPa) = 48.92129 48.92129 80.29468
#
# Poissons Ratio (x) = 0.70388 0.18321
# Poissons Ratio (y) = 0.70388 0.18321
# Poissons Ratio (z) = 0.11163 0.11163
#
# Static dielectric constant tensor:
#      x y z
#    x 3.762370 0.000000 0.000000 
#    y 0.000000 3.762370 0.000000 
#    z 0.000000 0.000000 4.070920 
# 
# 
# High freq. dielectric constant tensor:
#      x y z
#    x 1.824550 0.000000 0.000000 
#    y 0.000000 1.824550 0.000000 
#    z 0.000000 0.000000 1.849480 
# 
# From -- ./inp_files/1510.got.cif
#   From: 2010.03.12/outbox.cif.g09.slc.cpg/sg137_1_cif.got.tgz:1510.got - 2010.04.08 09:34:49.
