data_PCOD8318238
_publ_section_title
;
Structure prediction by ZEFSAII (Michael W. Deem and Ramdas Pophale) SiO2 
 PCOD8318238
Probable space group: P 42/M N M
;
_chemical_formula_sum "Si O2"
_cell_formula_units_Z 88
_cell_length_a 15.528814
_cell_length_b 15.528814
_cell_length_c 19.991315
_cell_angle_alpha 90.000000
_cell_angle_beta 90.000000
_cell_angle_gamma 90.000000
_cell_volume 4820.786949
_symmetry_space_group_name_H-M "P 42/M N M"
_symmetry_group_IT_number 136
_symmetry_cell_setting 'tetragonal'
loop_
_space_group_symop_operation_xyz
x,y,z
1/2-y,1/2+x,1/2+z
-x,-y,z
1/2+y,1/2-x,1/2+z
1/2+x,1/2-y,1/2-z
1/2-x,1/2+y,1/2-z
y,x,-z
-y,-x,-z
-x,-y,-z
1/2+y,1/2-x,1/2-z
x,y,-z
1/2-y,1/2+x,1/2-z
1/2-x,1/2+y,1/2+z
1/2+x,1/2-y,1/2+z
-y,-x,z
y,x,z
loop_
_atom_site_type_symbol
_atom_site_label
_atom_site_fract_x
_atom_site_fract_y
_atom_site_fract_z
Si Si1 0.567770 0.432231 0.420302
Si Si2 0.278858 0.414742 0.000000
Si Si3 0.247355 0.609997 0.000000
Si Si4 0.181273 0.324937 0.882135
Si Si5 0.751807 0.992286 0.076982
Si Si6 0.600845 0.099314 0.747692
Si Si7 0.668728 0.813971 0.372479
O O1 0.500000 0.500000 0.393707
O O2 0.573199 0.426802 0.500000
O O3 0.658823 0.460639 0.391184
O O4 0.230565 0.386614 0.932843
O O5 0.374166 0.374166 0.000000
O O6 0.288143 0.516323 0.000000
O O7 0.188829 0.624677 0.065002
O O8 0.326225 0.673776 0.000000
O O9 0.236750 0.236750 0.871327
O O10 0.088519 0.310972 0.916023
O O11 0.163607 0.375297 0.813348
O O12 0.726104 0.074755 0.119180
O O13 0.760116 0.020744 0.000000
O O14 0.500289 0.115659 0.731483
O O15 0.626148 0.163870 0.807456
O O16 0.739245 0.739245 0.363748
#
# Coordination Sequence:
#
# PCOD8318238 Si02
#       7
#     8   8   8  16  16  16  16
#     4   9  18  28  48  80 116 148 180 221 267 323
#     4  10  22  38  63  89 110 142 183 227 277 329
#     4  10  22  40  61  86 113 143 182 228 276 330
#     4  11  21  37  58  83 114 147 184 230 277 328
#     4  11  19  33  55  83 114 147 185 226 273 325
#     4  11  23  38  56  80 111 146 188 234 280 330
#     4  11  22  38  58  81 114 150 187 227 276 334
#
# _framework density 18.254282
#
# number of rings (size 3 to 8) (size 9 to 14) (size 15 to 20)
#    0.000    1.364    4.545    2.182    0.000    0.909 
#    0.000    0.909    0.000    0.000    0.000    0.000 
#    0.000    0.000    0.000    0.000    0.000    0.000 
#
# Total GULP energy -1091108.974517 kJ/mol
# GULP energy per Si atom -12398.965620 kJ/mol
# Density = 1.821273 g / cm^3
# Si number density = 18.254282 Si / 1000 Ang^3
#
#
#
# Elastic Constant Matrix: (Units=GPa)
#
#
# Indices 1 2 3 4 5 6 
#
# 1 88.4771 21.8864 32.3794 0.0000 0.0000 0.0000
# 2 21.8864 88.4747 32.3792 0.0000 0.0000 0.0000
# 3 32.3794 32.3792 108.4347 0.0000 0.0000 0.0000
# 4 0.0000 0.0000 0.0000 27.6624 0.0000 0.0000
# 5 0.0000 0.0000 0.0000 0.0000 27.6621 0.0000
# 6 0.0000 0.0000 0.0000 0.0000 0.0000 22.6951
#
#
#
# Elastic Compliance Matrix: (Units=1/GPa)
#
#
# Indices 1 2 3 4 5 6 
#
# 1 0.013001 -0.002016 -0.003280 0.000000 0.000000 0.000000
# 2 -0.002016 0.013002 -0.003281 0.000000 0.000000 0.000000
# 3 -0.003280 -0.003281 0.011181 0.000000 0.000000 0.000000
# 4 0.000000 0.000000 0.000000 0.036150 0.000000 0.000000
# 5 0.000000 0.000000 0.000000 0.000000 0.036151 0.000000
# 6 0.000000 0.000000 0.000000 0.000000 0.000000 0.044062
#
#
# Mechanical properties :
#
#
# Convention : Reuss Voigt Hill
#
# Bulk Modulus (GPa) = 49.92181 50.96407 50.44294
# Shear Modulus (GPa) = 28.18835 28.85335 28.52085
#
# Velocity S-wave (km/s) = 3.93390 3.98003 3.95703
# Velocity P-wave (km/s) = 6.93120 7.00717 6.96929
#
# Compressibility (1/GPa) = 0.02003132
#
# Stress axis : x y z
#
# Youngs Moduli (GPa) = 76.91421 76.91200 89.43511
#
# Poissons Ratio (x) = 0.15503 0.29339
# Poissons Ratio (y) = 0.15503 0.29339
# Poissons Ratio (z) = 0.25231 0.25231
#
# Static dielectric constant tensor:
#      x y z
#    x 3.361130 0.000000 0.000000 
#    y 0.000000 3.361120 0.000000 
#    z 0.000000 0.000000 3.288350 
# 
# 
# High freq. dielectric constant tensor:
#      x y z
#    x 1.710080 0.000000 0.000000 
#    y 0.000000 1.710080 0.000000 
#    z 0.000000 0.000000 1.699530 
# 
# From -- ./inp_files/7428.got.cif
#   From: 2010.03.12/outbox.cif.g09.slc.cpg/sg136_4_cif.got.tgz:7428.got - 2010.04.06 18:39:43.
