data_PCOD8318606
_publ_section_title
;
Structure prediction by ZEFSAII (Michael W. Deem and Ramdas Pophale) SiO2 
 PCOD8318606
Probable space group: P 42/N M C
;
_chemical_formula_sum "Si O2"
_cell_formula_units_Z 58
_cell_length_a 17.187946
_cell_length_b 17.187946
_cell_length_c 10.246559
_cell_angle_alpha 90.000000
_cell_angle_beta 90.000000
_cell_angle_gamma 90.000000
_cell_volume 3027.094690
_symmetry_space_group_name_H-M "P 42/N M C"
_symmetry_group_IT_number 137
_space_group.IT_coordinate_system_code '2'
_symmetry_cell_setting 'tetragonal'
loop_
_space_group_symop_operation_xyz
x,y,z
1/2-y,x,1/2+z
1/2-x,1/2-y,z
y,1/2-x,1/2+z
1/2+x,-y,-z
-x,1/2+y,-z
1/2+y,1/2+x,1/2-z
-y,-x,1/2-z
-x,-y,-z
1/2+y,-x,1/2-z
1/2+x,1/2+y,-z
-y,1/2+x,1/2-z
1/2-x,y,z
x,1/2-y,z
1/2-y,1/2-x,1/2+z
y,x,1/2+z
loop_
_atom_site_type_symbol
_atom_site_label
_atom_site_fract_x
_atom_site_fract_y
_atom_site_fract_z
Si Si1 0.750000 0.250000 0.250000
Si Si2 0.164482 0.750000 0.993780
Si Si3 0.341874 0.415600 0.361866
Si Si4 0.942166 0.661249 0.432742
Si Si5 0.582967 0.101444 0.898178
O O1 0.750000 0.172364 0.337276
O O2 0.250000 0.750000 0.061544
O O3 0.120387 0.828190 0.025498
O O4 0.250000 0.421797 0.390174
O O5 0.379335 0.348005 0.450965
O O6 0.388443 0.491037 0.410379
O O7 0.357839 0.401998 0.207622
O O8 0.971267 0.750000 0.431648
O O9 0.018259 0.608173 0.456866
O O10 0.610181 0.110181 0.750000
#
# Coordination Sequence:
#
# PCOD8318606 Si02
#       5
#     2   8  16  16  16
#     4   8  24  36  42  84 136 156 184 242 268 368
#     4  10  20  35  52  81 121 159 186 230 287 345
#     4  10  21  40  59  86 119 151 199 244 295 353
#     4  10  22  39  59  89 118 150 200 246 292 355
#     4  10  20  36  62  87 112 148 194 248 290 352
#
# _framework density 19.160284999999998
#
# number of rings (size 3 to 8) (size 9 to 14) (size 15 to 20)
#    0.414    1.655    1.379    1.655    3.862    1.655 
#    4.966    2.759    0.000    0.000    0.000    0.000 
#    0.000    0.000    0.000    0.000    0.000    0.000 
#
# Total GULP energy -718974.530679 kJ/mol
# GULP energy per Si atom -12396.112598 kJ/mol
# Density = 1.911668 g / cm^3
# Si number density = 19.160285 Si / 1000 Ang^3
#
#
#
# Elastic Constant Matrix: (Units=GPa)
#
#
# Indices 1 2 3 4 5 6 
#
# 1 72.6252 27.6796 37.5504 0.0000 0.0000 0.0000
# 2 27.6796 72.6252 37.5504 0.0000 0.0000 0.0000
# 3 37.5504 37.5504 80.6375 0.0000 0.0000 0.0000
# 4 0.0000 0.0000 0.0000 33.8493 0.0000 0.0000
# 5 0.0000 0.0000 0.0000 0.0000 33.8493 0.0000
# 6 0.0000 0.0000 0.0000 0.0000 0.0000 60.6389
#
#
#
# Elastic Compliance Matrix: (Units=1/GPa)
#
#
# Indices 1 2 3 4 5 6 
#
# 1 0.018778 -0.003471 -0.007128 0.000000 0.000000 0.000000
# 2 -0.003471 0.018778 -0.007128 0.000000 0.000000 0.000000
# 3 -0.007128 -0.007128 0.019039 0.000000 0.000000 0.000000
# 4 0.000000 0.000000 0.000000 0.029543 0.000000 0.000000
# 5 0.000000 0.000000 0.000000 0.000000 0.029543 0.000000
# 6 0.000000 0.000000 0.000000 0.000000 0.000000 0.016491
#
#
# Mechanical properties :
#
#
# Convention : Reuss Voigt Hill
#
# Bulk Modulus (GPa) = 47.30065 47.93873 47.61969
# Shear Modulus (GPa) = 28.62511 33.87469 31.24990
#
# Velocity S-wave (km/s) = 3.86940 4.20928 4.04291
# Velocity P-wave (km/s) = 6.68606 6.97841 6.83380
#
# Compressibility (1/GPa) = 0.02114136
#
# Stress axis : x y z
#
# Youngs Moduli (GPa) = 53.25467 53.25467 52.52254
#
# Poissons Ratio (x) = 0.18487 0.37436
# Poissons Ratio (y) = 0.18487 0.37436
# Poissons Ratio (z) = 0.37958 0.37958
#
# Static dielectric constant tensor:
#      x y z
#    x 3.325050 0.000000 0.000000 
#    y 0.000000 3.325050 0.000000 
#    z 0.000000 0.000000 3.476670 
# 
# 
# High freq. dielectric constant tensor:
#      x y z
#    x 1.743920 0.000000 0.000000 
#    y 0.000000 1.743920 0.000000 
#    z 0.000000 0.000000 1.739200 
# 
# From -- ./inp_files/1571.got.cif
#   From: 2010.03.12/outbox.cif.g09.slc.cpg/sg137_1_cif.got.tgz:1571.got - 2010.04.08 09:34:49.
