data_PCOD8318325
_publ_section_title
;
Structure prediction by ZEFSAII (Michael W. Deem and Ramdas Pophale) SiO2 
 PCOD8318325
Probable space group: P 42/M N M
;
_chemical_formula_sum "Si O2"
_cell_formula_units_Z 96
_cell_length_a 23.614784
_cell_length_b 23.614784
_cell_length_c 13.981792
_cell_angle_alpha 90.000000
_cell_angle_beta 90.000000
_cell_angle_gamma 90.000000
_cell_volume 7797.058490
_symmetry_space_group_name_H-M "P 42/M N M"
_symmetry_group_IT_number 136
_symmetry_cell_setting 'tetragonal'
loop_
_space_group_symop_operation_xyz
x,y,z
1/2-y,1/2+x,1/2+z
-x,-y,z
1/2+y,1/2-x,1/2+z
1/2+x,1/2-y,1/2-z
1/2-x,1/2+y,1/2-z
y,x,-z
-y,-x,-z
-x,-y,-z
1/2+y,1/2-x,1/2-z
x,y,-z
1/2-y,1/2+x,1/2-z
1/2-x,1/2+y,1/2+z
1/2+x,1/2-y,1/2+z
-y,-x,z
y,x,z
loop_
_atom_site_type_symbol
_atom_site_label
_atom_site_fract_x
_atom_site_fract_y
_atom_site_fract_z
Si Si1 0.642218 0.737457 0.106328
Si Si2 0.203097 0.108122 0.894227
Si Si3 0.062566 0.156781 0.289455
Si Si4 0.814212 0.718684 0.787375
Si Si5 0.853025 0.053728 0.611327
Si Si6 0.642246 0.262745 0.894765
O O1 0.691369 0.691369 0.104008
O O2 0.658483 0.788329 0.178936
O O3 0.584404 0.706388 0.137874
O O4 0.635371 0.763245 0.000000
O O5 0.157835 0.157835 0.898208
O O6 0.180719 0.061045 0.819354
O O7 0.262283 0.135285 0.858459
O O8 0.211377 0.081147 0.000000
O O9 0.101301 0.101301 0.296774
O O10 0.085597 0.206137 0.358774
O O11 0.000096 0.139709 0.321110
O O12 0.766057 0.766057 0.789082
O O13 0.839348 0.713394 0.679636
O O14 0.853328 0.036134 0.500000
O O15 0.905301 0.094700 0.633846
O O16 0.691465 0.308536 0.899315
O O17 0.631592 0.236223 0.000000
#
# Coordination Sequence:
#
# PCOD8318325 Si02
#       6
#    16  16  16  16  16  16
#     4   8  13  21  32  45  61  79 100 129 161 191
#     4   8  13  21  34  51  65  75  93 125 165 205
#     4   9  16  24  34  47  63  84 109 140 173 196
#     4   8  12  18  31  49  64  78  95 119 156 197
#     4   9  17  26  34  45  61  84 114 143 169 194
#     4   8  13  20  30  46  66  83  99 122 155 195
#
# _framework density 12.312336
#
# number of rings (size 3 to 8) (size 9 to 14) (size 15 to 20)
#    0.000    3.667    0.000    4.000    0.000    3.333 
#    0.000    0.833    0.000    1.500    0.000    4.667 
#    0.000    0.000    0.000    0.000    0.000   13.333 
#
# Total GULP energy -1189325.065902 kJ/mol
# GULP energy per Si atom -12388.802770 kJ/mol
# Density = 1.228431 g / cm^3
# Si number density = 12.312336 Si / 1000 Ang^3
#
#
#
# Elastic Constant Matrix: (Units=GPa)
#
#
# Indices 1 2 3 4 5 6 
#
# 1 36.6432 36.1647 36.7907 0.0000 0.0000 0.0000
# 2 36.1647 36.6432 36.7907 0.0000 0.0000 0.0000
# 3 36.7907 36.7907 111.1582 0.0000 0.0000 0.0000
# 4 0.0000 0.0000 0.0000 14.9838 0.0000 0.0000
# 5 0.0000 0.0000 0.0000 0.0000 14.9838 0.0000
# 6 0.0000 0.0000 0.0000 0.0000 0.0000 10.5025
#
#
#
# Elastic Compliance Matrix: (Units=1/GPa)
#
#
# Indices 1 2 3 4 5 6 
#
# 1 1.055421 -1.034783 -0.006831 0.000000 0.000000 0.000000
# 2 -1.034783 1.055421 -0.006831 0.000000 0.000000 0.000000
# 3 -0.006831 -0.006831 0.013518 0.000000 0.000000 0.000000
# 4 0.000000 0.000000 0.000000 0.066739 0.000000 0.000000
# 5 0.000000 0.000000 0.000000 0.000000 0.066739 0.000000
# 6 0.000000 0.000000 0.000000 0.000000 0.000000 0.095216
#
#
# Mechanical properties :
#
#
# Convention : Reuss Voigt Hill
#
# Bulk Modulus (GPa) = 36.40194 44.88188 40.64191
# Shear Modulus (GPa) = 1.12130 13.07390 7.09760
#
# Velocity S-wave (km/s) = 0.95535 3.26214 2.40357
# Velocity P-wave (km/s) = 5.55396 7.12185 6.38620
#
# Compressibility (1/GPa) = 0.02747106
#
# Stress axis : x y z
#
# Youngs Moduli (GPa) = 0.94749 0.94749 73.97663
#
# Poissons Ratio (x) = 0.98045 0.50531
# Poissons Ratio (y) = 0.98045 0.50531
# Poissons Ratio (z) = 0.00647 0.00647
#
# Static dielectric constant tensor:
#      x y z
#    x 2.290930 0.000000 0.000000 
#    y 0.000000 2.290930 0.000000 
#    z 0.000000 0.000000 2.917300 
# 
# 
# High freq. dielectric constant tensor:
#      x y z
#    x 1.428270 0.000000 0.000000 
#    y 0.000000 1.428270 0.000000 
#    z 0.000000 0.000000 1.473540 
# 
# From -- ./inp_files/5193.got.cif
#   From: 2010.03.12/outbox.cif.g09.slc.cpg/sg136_3_cif.got.tgz:5193.got - 2010.04.06 18:39:43.
