data_PCOD8318098
_publ_section_title
;
Structure prediction by ZEFSAII (Michael W. Deem and Ramdas Pophale) SiO2 
 PCOD8318098
Probable space group: P 42/M N M
;
_chemical_formula_sum "Si O2"
_cell_formula_units_Z 92
_cell_length_a 17.825109
_cell_length_b 17.825109
_cell_length_c 15.488642
_cell_angle_alpha 90.000000
_cell_angle_beta 90.000000
_cell_angle_gamma 90.000000
_cell_volume 4921.276090
_symmetry_space_group_name_H-M "P 42/M N M"
_symmetry_group_IT_number 136
_symmetry_cell_setting 'tetragonal'
loop_
_space_group_symop_operation_xyz
x,y,z
1/2-y,1/2+x,1/2+z
-x,-y,z
1/2+y,1/2-x,1/2+z
1/2+x,1/2-y,1/2-z
1/2-x,1/2+y,1/2-z
y,x,-z
-y,-x,-z
-x,-y,-z
1/2+y,1/2-x,1/2-z
x,y,-z
1/2-y,1/2+x,1/2-z
1/2-x,1/2+y,1/2+z
1/2+x,1/2-y,1/2+z
-y,-x,z
y,x,z
loop_
_atom_site_type_symbol
_atom_site_label
_atom_site_fract_x
_atom_site_fract_y
_atom_site_fract_z
Si Si1 0.990508 0.780731 0.173664
Si Si2 0.445874 0.758890 0.096356
Si Si3 0.500000 0.000000 0.750000
Si Si4 0.775357 0.344437 0.254211
Si Si5 0.000102 0.873196 0.000000
Si Si6 0.054034 0.659065 0.287224
Si Si7 0.882089 0.002227 0.671056
O O1 0.901068 0.773705 0.187487
O O2 0.005741 0.815734 0.080221
O O3 0.026536 0.835815 0.244459
O O4 0.026549 0.698137 0.196157
O O5 0.375555 0.780536 0.156409
O O6 0.521112 0.798432 0.130132
O O7 0.463976 0.670045 0.098476
O O8 0.426012 0.784363 0.000000
O O9 0.425751 0.975352 0.698309
O O10 0.736493 0.263508 0.253874
O O11 0.857067 0.336499 0.294325
O O12 0.923498 0.923498 0.000000
O O13 0.071549 0.928452 0.000000
O O14 0.942028 0.942028 0.703580
O O15 0.924318 0.075683 0.633261
#
# Coordination Sequence:
#
# PCOD8318098 Si02
#       7
#    16  16   4  16   8  16  16
#     4  10  20  36  56  84 114 153 197 245 290 349
#     4  10  21  37  56  85 114 146 187 239 293 342
#     4  12  16  44  66  80 104 144 206 240 292 354
#     4  10  20  37  60  84 113 157 197 237 299 359
#     4  11  22  36  58  87 126 166 198 245 296 352
#     4  10  21  38  65  82 110 155 194 247 296 358
#     4   9  17  31  54  80 111 154 192 224 275 344
#
# _framework density 18.694338999999999
#
# number of rings (size 3 to 8) (size 9 to 14) (size 15 to 20)
#    0.000    2.348    3.478    3.652    0.000    6.609 
#    3.130    1.304    0.000    0.000    0.000    0.000 
#    0.000    0.000    0.000    0.000    0.000    0.000 
#
# Total GULP energy -1139839.729058 kJ/mol
# GULP energy per Si atom -12389.562272 kJ/mol
# Density = 1.865179 g / cm^3
# Si number density = 18.694339 Si / 1000 Ang^3
#
#
#
# Elastic Constant Matrix: (Units=GPa)
#
#
# Indices 1 2 3 4 5 6 
#
# 1 103.6578 30.7410 18.9525 0.0000 0.0000 0.0000
# 2 30.7410 103.6576 18.9521 0.0000 0.0000 0.0000
# 3 18.9525 18.9521 96.2153 0.0000 0.0000 0.0000
# 4 0.0000 0.0000 0.0000 10.5193 0.0000 0.0000
# 5 0.0000 0.0000 0.0000 0.0000 10.5191 0.0000
# 6 0.0000 0.0000 0.0000 0.0000 0.0000 33.5568
#
#
#
# Elastic Compliance Matrix: (Units=1/GPa)
#
#
# Indices 1 2 3 4 5 6 
#
# 1 0.010796 -0.002918 -0.001552 0.000000 0.000000 0.000000
# 2 -0.002918 0.010796 -0.001552 0.000000 0.000000 0.000000
# 3 -0.001552 -0.001552 0.011005 0.000000 0.000000 0.000000
# 4 0.000000 0.000000 0.000000 0.095063 0.000000 0.000000
# 5 0.000000 0.000000 0.000000 0.000000 0.095065 0.000000
# 6 0.000000 0.000000 0.000000 0.000000 0.000000 0.029800
#
#
# Mechanical properties :
#
#
# Convention : Reuss Voigt Hill
#
# Bulk Modulus (GPa) = 48.65282 48.98023 48.81652
# Shear Modulus (GPa) = 18.42161 26.57804 22.49983
#
# Velocity S-wave (km/s) = 3.14253 3.77466 3.47301
# Velocity P-wave (km/s) = 6.26492 6.72717 6.50016
#
# Compressibility (1/GPa) = 0.02055379
#
# Stress axis : x y z
#
# Youngs Moduli (GPa) = 92.62477 92.62474 90.87014
#
# Poissons Ratio (x) = 0.27028 0.14102
# Poissons Ratio (y) = 0.27028 0.14101
# Poissons Ratio (z) = 0.14374 0.14374
#
# Static dielectric constant tensor:
#      x y z
#    x 3.598420 0.000000 0.000000 
#    y 0.000000 3.598420 0.000000 
#    z 0.000000 0.000000 3.100710 
# 
# 
# High freq. dielectric constant tensor:
#      x y z
#    x 1.733800 0.000000 0.000000 
#    y 0.000000 1.733800 0.000000 
#    z 0.000000 0.000000 1.684800 
# 
# From -- ./inp_files/6366.got.cif
#   From: 2010.03.12/outbox.cif.g09.slc.cpg/sg136_4_cif.got.tgz:6366.got - 2010.04.06 18:39:43.
