data_PCOD8318496
_publ_section_title
;
Structure prediction by ZEFSAII (Michael W. Deem and Ramdas Pophale) SiO2 
 PCOD8318496
Probable space group: P 42/N M C
;
_chemical_formula_sum "Si O2"
_cell_formula_units_Z 128
_cell_length_a 23.621421
_cell_length_b 23.621421
_cell_length_c 12.866423
_cell_angle_alpha 90.000000
_cell_angle_beta 90.000000
_cell_angle_gamma 90.000000
_cell_volume 7179.097728
_symmetry_space_group_name_H-M "P 42/N M C"
_symmetry_group_IT_number 137
_space_group.IT_coordinate_system_code '2'
_symmetry_cell_setting 'tetragonal'
loop_
_space_group_symop_operation_xyz
x,y,z
1/2-y,x,1/2+z
1/2-x,1/2-y,z
y,1/2-x,1/2+z
1/2+x,-y,-z
-x,1/2+y,-z
1/2+y,1/2+x,1/2-z
-y,-x,1/2-z
-x,-y,-z
1/2+y,-x,1/2-z
1/2+x,1/2+y,-z
-y,1/2+x,1/2-z
1/2-x,y,z
x,1/2-y,z
1/2-y,1/2-x,1/2+z
y,x,1/2+z
loop_
_atom_site_type_symbol
_atom_site_label
_atom_site_fract_x
_atom_site_fract_y
_atom_site_fract_z
Si Si1 0.315003 0.102612 0.157247
Si Si2 0.566629 0.071636 0.048264
Si Si3 0.688578 0.574221 0.067551
Si Si4 0.366322 0.081943 0.369642
Si Si5 0.449064 0.686769 0.633497
Si Si6 0.528776 0.500266 0.639955
Si Si7 0.687124 0.591293 0.414309
Si Si8 0.531066 0.186433 0.136411
O O1 0.250000 0.123330 0.167573
O O2 0.332055 0.069830 0.263244
O O3 0.357311 0.154259 0.137899
O O4 0.323551 0.062777 0.055886
O O5 0.634584 0.074174 0.065586
O O6 0.548459 0.137307 0.055607
O O7 0.530536 0.032699 0.128190
O O8 0.551246 0.042895 0.938253
O O9 0.750000 0.602546 0.079320
O O10 0.648010 0.619098 0.121922
O O11 0.685464 0.515910 0.126288
O O12 0.424434 0.048000 0.371500
O O13 0.330917 0.067768 0.472144
O O14 0.426551 0.750000 0.598252
O O15 0.435194 0.677109 0.755376
O O16 0.530180 0.469821 0.750000
O O17 0.750000 0.614635 0.424024
O O18 0.682178 0.536226 0.340867
O O19 0.544972 0.250000 0.092422
#
# Coordination Sequence:
#
# PCOD8318496 Si02
#       8
#    16  16  16  16  16  16  16  16
#     4  10  22  34  51  73 103 141 186 233 280 321
#     4  11  22  37  55  81 114 145 177 227 278 334
#     4   9  19  34  48  71 100 136 175 221 268 321
#     4  11  20  35  54  74 106 141 181 225 280 337
#     4  10  19  32  54  79 107 139 175 211 262 329
#     4  11  24  33  54  83 115 144 178 226 284 338
#     4  10  21  36  54  73 102 141 189 232 274 325
#     4  10  20  35  55  81 107 142 181 220 266 329
#
# _framework density 17.829540000000001
#
# number of rings (size 3 to 8) (size 9 to 14) (size 15 to 20)
#    0.000    1.750    2.500    2.250    3.500    1.750 
#    0.000    0.000    0.000    3.375    0.000    1.750 
#    0.000    0.000    0.000    1.125    0.000    0.125 
#
# Total GULP energy -1585990.257817 kJ/mol
# GULP energy per Si atom -12390.548889 kJ/mol
# Density = 1.778896 g / cm^3
# Si number density = 17.829540 Si / 1000 Ang^3
#
#
#
# Elastic Constant Matrix: (Units=GPa)
#
#
# Indices 1 2 3 4 5 6 
#
# 1 76.4730 29.1370 14.3393 0.0000 0.0000 0.0000
# 2 29.1370 76.4742 14.3394 0.0000 0.0000 0.0000
# 3 14.3393 14.3394 79.2330 0.0000 0.0000 0.0000
# 4 0.0000 0.0000 0.0000 20.7494 0.0000 0.0000
# 5 0.0000 0.0000 0.0000 0.0000 20.7497 0.0000
# 6 0.0000 0.0000 0.0000 0.0000 0.0000 18.3702
#
#
#
# Elastic Compliance Matrix: (Units=1/GPa)
#
#
# Indices 1 2 3 4 5 6 
#
# 1 0.015542 -0.005584 -0.001802 0.000000 0.000000 0.000000
# 2 -0.005584 0.015542 -0.001802 0.000000 0.000000 0.000000
# 3 -0.001802 -0.001802 0.013273 0.000000 0.000000 0.000000
# 4 0.000000 0.000000 0.000000 0.048194 0.000000 0.000000
# 5 0.000000 0.000000 0.000000 0.000000 0.048194 0.000000
# 6 0.000000 0.000000 0.000000 0.000000 0.000000 0.054436
#
#
# Mechanical properties :
#
#
# Convention : Reuss Voigt Hill
#
# Bulk Modulus (GPa) = 38.48996 38.64575 38.56786
# Shear Modulus (GPa) = 22.50055 23.59814 23.04935
#
# Velocity S-wave (km/s) = 3.55629 3.64200 3.59940
# Velocity P-wave (km/s) = 6.20464 6.27756 6.24121
#
# Compressibility (1/GPa) = 0.02598080
#
# Stress axis : x y z
#
# Youngs Moduli (GPa) = 64.34241 64.34345 75.33913
#
# Poissons Ratio (x) = 0.35927 0.13578
# Poissons Ratio (y) = 0.35926 0.13578
# Poissons Ratio (z) = 0.11596 0.11596
#
# Static dielectric constant tensor:
#      x y z
#    x 3.276240 0.000000 0.000000 
#    y 0.000000 3.276240 0.000000 
#    z 0.000000 0.000000 3.644590 
# 
# 
# High freq. dielectric constant tensor:
#      x y z
#    x 1.673060 0.000000 0.000000 
#    y 0.000000 1.673060 0.000000 
#    z 0.000000 0.000000 1.693720 
# 
# From -- ./inp_files/4006.got.cif
#   From: 2010.03.12/outbox.cif.g09.slc.cpg/sg137_3_cif.got.tgz:4006.got - 2010.04.08 09:34:49.
