data_PCOD8318503
_publ_section_title
;
Structure prediction by ZEFSAII (Michael W. Deem and Ramdas Pophale) SiO2 
 PCOD8318503
Probable space group: P 42/N M C
;
_chemical_formula_sum "Si O2"
_cell_formula_units_Z 128
_cell_length_a 24.572925
_cell_length_b 24.572925
_cell_length_c 12.130396
_cell_angle_alpha 90.000000
_cell_angle_beta 90.000000
_cell_angle_gamma 90.000000
_cell_volume 7324.680556
_symmetry_space_group_name_H-M "P 42/N M C"
_symmetry_group_IT_number 137
_space_group.IT_coordinate_system_code '2'
_symmetry_cell_setting 'tetragonal'
loop_
_space_group_symop_operation_xyz
x,y,z
1/2-y,x,1/2+z
1/2-x,1/2-y,z
y,1/2-x,1/2+z
1/2+x,-y,-z
-x,1/2+y,-z
1/2+y,1/2+x,1/2-z
-y,-x,1/2-z
-x,-y,-z
1/2+y,-x,1/2-z
1/2+x,1/2+y,-z
-y,1/2+x,1/2-z
1/2-x,y,z
x,1/2-y,z
1/2-y,1/2-x,1/2+z
y,x,1/2+z
loop_
_atom_site_type_symbol
_atom_site_label
_atom_site_fract_x
_atom_site_fract_y
_atom_site_fract_z
Si Si1 0.810453 0.946724 0.250812
Si Si2 0.437333 0.988526 0.519718
Si Si3 0.447856 0.310255 0.504574
Si Si4 0.103516 0.518660 0.282290
Si Si5 0.687585 0.062899 0.878086
Si Si6 0.624174 0.102608 0.076392
Si Si7 0.595673 0.910980 0.853945
Si Si8 0.688481 0.068580 0.288897
O O1 0.750000 0.923133 0.270167
O O2 0.852742 0.901964 0.294256
O O3 0.816651 0.004368 0.313406
O O4 0.821971 0.956349 0.122835
O O5 0.397242 0.986851 0.413782
O O6 0.436377 0.928794 0.573678
O O7 0.500000 0.000000 0.500000
O O8 0.415526 0.035402 0.598020
O O9 0.422644 0.250000 0.525839
O O10 0.506728 0.313762 0.557715
O O11 0.409426 0.356962 0.554552
O O12 0.046659 0.546659 0.250000
O O13 0.154355 0.555112 0.236832
O O14 0.106792 0.458580 0.232725
O O15 0.750000 0.081730 0.854140
O O16 0.655797 0.105390 0.958500
O O17 0.663106 0.080265 0.170277
O O18 0.602406 0.162107 0.110753
O O19 0.750000 0.088264 0.282466
#
# Coordination Sequence:
#
# PCOD8318503 Si02
#       8
#    16  16  16  16  16  16  16  16
#     4  10  19  33  52  76 109 143 179 217 263 326
#     4  12  22  31  48  80 117 141 172 218 278 336
#     4   9  18  34  54  76 105 142 183 215 253 321
#     4  11  21  33  48  76 113 138 177 223 268 324
#     4  10  19  35  55  74 100 143 186 217 258 326
#     4  11  20  32  55  76 105 143 177 216 279 325
#     4  11  21  32  52  79 110 145 173 218 277 320
#     4  10  21  34  50  78 109 138 179 223 268 332
#
# _framework density 17.475166000000002
#
# number of rings (size 3 to 8) (size 9 to 14) (size 15 to 20)
#    0.000    1.500    5.000    1.875    1.750    0.000 
#    0.000    1.250    0.000    9.000    0.000    1.750 
#    0.000    0.000    0.000    0.000    0.000    0.000 
#
# Total GULP energy -1586711.616068 kJ/mol
# GULP energy per Si atom -12396.184501 kJ/mol
# Density = 1.743539 g / cm^3
# Si number density = 17.475166 Si / 1000 Ang^3
#
#
#
# Elastic Constant Matrix: (Units=GPa)
#
#
# Indices 1 2 3 4 5 6 
#
# 1 100.2305 37.0602 30.3855 0.0000 0.0000 0.0000
# 2 37.0602 100.2305 30.3855 0.0000 0.0000 0.0000
# 3 30.3855 30.3855 64.6306 0.0000 0.0000 0.0000
# 4 0.0000 0.0000 0.0000 25.9654 0.0000 0.0000
# 5 0.0000 0.0000 0.0000 0.0000 25.9654 0.0000
# 6 0.0000 0.0000 0.0000 0.0000 0.0000 16.9475
#
#
#
# Elastic Compliance Matrix: (Units=1/GPa)
#
#
# Indices 1 2 3 4 5 6 
#
# 1 0.012514 -0.003316 -0.004324 0.000000 0.000000 0.000000
# 2 -0.003316 0.012514 -0.004324 0.000000 0.000000 0.000000
# 3 -0.004324 -0.004324 0.019539 0.000000 0.000000 0.000000
# 4 0.000000 0.000000 0.000000 0.038513 0.000000 0.000000
# 5 0.000000 0.000000 0.000000 0.000000 0.038513 0.000000
# 6 0.000000 0.000000 0.000000 0.000000 0.000000 0.059006
#
#
# Mechanical properties :
#
#
# Convention : Reuss Voigt Hill
#
# Bulk Modulus (GPa) = 48.45615 51.19487 49.82551
# Shear Modulus (GPa) = 23.65107 24.92634 24.28871
#
# Velocity S-wave (km/s) = 3.68286 3.78085 3.73218
# Velocity P-wave (km/s) = 6.77299 6.95839 6.86632
#
# Compressibility (1/GPa) = 0.02063722
#
# Stress axis : x y z
#
# Youngs Moduli (GPa) = 79.90992 79.90992 51.18066
#
# Poissons Ratio (x) = 0.26499 0.22132
# Poissons Ratio (y) = 0.26499 0.22132
# Poissons Ratio (z) = 0.34556 0.34556
#
# Static dielectric constant tensor:
#      x y z
#    x 3.351180 0.000000 0.000000 
#    y 0.000000 3.351180 0.000000 
#    z 0.000000 0.000000 3.374390 
# 
# 
# High freq. dielectric constant tensor:
#      x y z
#    x 1.659610 0.000000 0.000000 
#    y 0.000000 1.659610 0.000000 
#    z 0.000000 0.000000 1.674170 
# 
# From -- ./inp_files/4023.got.cif
#   From: 2010.03.12/outbox.cif.g09.slc.cpg/sg137_3_cif.got.tgz:4023.got - 2010.04.08 09:34:49.
