data_PCOD8318466
_publ_section_title
;
Structure prediction by ZEFSAII (Michael W. Deem and Ramdas Pophale) SiO2 
 PCOD8318466
Probable space group: P 42/N M C
;
_chemical_formula_sum "Si O2"
_cell_formula_units_Z 96
_cell_length_a 23.138767
_cell_length_b 23.138767
_cell_length_c 10.370808
_cell_angle_alpha 90.000000
_cell_angle_beta 90.000000
_cell_angle_gamma 90.000000
_cell_volume 5552.556927
_symmetry_space_group_name_H-M "P 42/N M C"
_symmetry_group_IT_number 137
_space_group.IT_coordinate_system_code '2'
_symmetry_cell_setting 'tetragonal'
loop_
_space_group_symop_operation_xyz
x,y,z
1/2-y,x,1/2+z
1/2-x,1/2-y,z
y,1/2-x,1/2+z
1/2+x,-y,-z
-x,1/2+y,-z
1/2+y,1/2+x,1/2-z
-y,-x,1/2-z
-x,-y,-z
1/2+y,-x,1/2-z
1/2+x,1/2+y,-z
-y,1/2+x,1/2-z
1/2-x,y,z
x,1/2-y,z
1/2-y,1/2-x,1/2+z
y,x,1/2+z
loop_
_atom_site_type_symbol
_atom_site_label
_atom_site_fract_x
_atom_site_fract_y
_atom_site_fract_z
Si Si1 0.494718 0.419673 0.902903
Si Si2 0.473457 0.423472 0.615268
Si Si3 0.089229 0.815882 0.737181
Si Si4 0.313993 0.935380 0.483777
Si Si5 0.185041 0.530162 0.024457
Si Si6 0.845781 0.186142 0.610427
O O1 0.459565 0.428151 0.768357
O O2 0.545027 0.466534 0.916969
O O3 0.526664 0.357971 0.900096
O O4 0.451827 0.423658 0.026003
O O5 0.479665 0.356569 0.575383
O O6 0.145934 0.854067 0.750000
O O7 0.109346 0.750000 0.713888
O O8 0.050482 0.836455 0.616938
O O9 0.049826 0.821582 0.865097
O O10 0.250000 0.951833 0.434745
O O11 0.321837 0.865827 0.476232
O O12 0.250000 0.504923 0.018927
O O13 0.181368 0.584766 0.121315
O O14 0.818336 0.181665 0.750000
O O15 0.829720 0.250000 0.553037
#
# Coordination Sequence:
#
# PCOD8318466 Si02
#       6
#    16  16  16  16  16  16
#     4  10  21  35  52  76  98 131 170 209 261 304
#     4  10  20  35  54  73 100 128 169 213 254 312
#     4  10  19  31  47  67  93 131 171 210 254 298
#     4  11  22  34  51  72 101 133 171 217 261 307
#     4  10  20  34  53  72  97 130 167 214 262 308
#     4  11  21  33  47  66  94 131 176 219 258 299
#
# _framework density 17.289332000000002
#
# number of rings (size 3 to 8) (size 9 to 14) (size 15 to 20)
#    0.000    1.667    3.333    1.500    2.333    3.333 
#    0.000    1.667    0.000    0.000    0.000    0.000 
#    0.000    0.667    0.000    3.000    0.000    0.000 
#
# Total GULP energy -1190089.479812 kJ/mol
# GULP energy per Si atom -12396.765415 kJ/mol
# Density = 1.724998 g / cm^3
# Si number density = 17.289332 Si / 1000 Ang^3
#
#
#
# Elastic Constant Matrix: (Units=GPa)
#
#
# Indices 1 2 3 4 5 6 
#
# 1 61.5278 33.1821 28.7717 0.0000 0.0000 0.0000
# 2 33.1821 61.5285 28.7715 0.0000 0.0000 0.0000
# 3 28.7717 28.7715 95.9885 0.0000 0.0000 0.0000
# 4 0.0000 0.0000 0.0000 22.1009 0.0000 0.0000
# 5 0.0000 0.0000 0.0000 0.0000 22.1007 0.0000
# 6 0.0000 0.0000 0.0000 0.0000 0.0000 20.1534
#
#
#
# Elastic Compliance Matrix: (Units=1/GPa)
#
#
# Indices 1 2 3 4 5 6 
#
# 1 0.024094 -0.011184 -0.003870 0.000000 0.000000 0.000000
# 2 -0.011184 0.024094 -0.003869 0.000000 0.000000 0.000000
# 3 -0.003870 -0.003869 0.012738 0.000000 0.000000 0.000000
# 4 0.000000 0.000000 0.000000 0.045247 0.000000 0.000000
# 5 0.000000 0.000000 0.000000 0.000000 0.045247 0.000000
# 6 0.000000 0.000000 0.000000 0.000000 0.000000 0.049619
#
#
# Mechanical properties :
#
#
# Convention : Reuss Voigt Hill
#
# Bulk Modulus (GPa) = 43.33011 44.49948 43.91479
# Shear Modulus (GPa) = 20.27749 21.42564 20.85157
#
# Velocity S-wave (km/s) = 3.42838 3.52410 3.47657
# Velocity P-wave (km/s) = 6.38654 6.50792 6.44752
#
# Compressibility (1/GPa) = 0.02307864
#
# Stress axis : x y z
#
# Youngs Moduli (GPa) = 41.50398 41.50456 78.50779
#
# Poissons Ratio (x) = 0.46420 0.30379
# Poissons Ratio (y) = 0.46420 0.30378
# Poissons Ratio (z) = 0.16060 0.16060
#
# Static dielectric constant tensor:
#      x y z
#    x 2.953350 0.000000 0.000000 
#    y 0.000000 2.953350 0.000000 
#    z 0.000000 0.000000 3.565710 
# 
# 
# High freq. dielectric constant tensor:
#      x y z
#    x 1.628150 0.000000 0.000000 
#    y 0.000000 1.628150 0.000000 
#    z 0.000000 0.000000 1.690490 
# 
# From -- ./inp_files/3878.got.cif
#   From: 2010.03.12/outbox.cif.g09.slc.cpg/sg137_2_cif.got.tgz:3878.got - 2010.04.08 09:34:49.
