data_PCOD8318863
_publ_section_title
;
Structure prediction by ZEFSAII (Michael W. Deem and Ramdas Pophale) SiO2 
 PCOD8318863
Probable space group: P 42/N C M
;
_chemical_formula_sum "Si O2"
_cell_formula_units_Z 80
_cell_length_a 13.643026
_cell_length_b 13.643026
_cell_length_c 25.337069
_cell_angle_alpha 90.000000
_cell_angle_beta 90.000000
_cell_angle_gamma 90.000000
_cell_volume 4716.043341
_symmetry_space_group_name_H-M "P 42/N C M"
_symmetry_group_IT_number 138
_space_group.IT_coordinate_system_code '2'
_symmetry_cell_setting 'tetragonal'
loop_
_space_group_symop_operation_xyz
x,y,z
1/2-y,x,1/2+z
1/2-x,1/2-y,z
y,1/2-x,1/2+z
1/2+x,-y,1/2-z
-x,1/2+y,1/2-z
1/2+y,1/2+x,-z
-y,-x,-z
-x,-y,-z
1/2+y,-x,1/2-z
1/2+x,1/2+y,-z
-y,1/2+x,1/2-z
1/2-x,y,1/2+z
x,1/2-y,1/2+z
1/2-y,1/2-x,z
y,x,z
loop_
_atom_site_type_symbol
_atom_site_label
_atom_site_fract_x
_atom_site_fract_y
_atom_site_fract_z
Si Si1 0.376184 0.535482 0.855106
Si Si2 0.147403 0.698856 0.441602
Si Si3 0.894061 0.047263 0.441750
Si Si4 0.354259 0.628807 0.249705
Si Si5 0.654186 0.001133 0.150801
O O1 0.451212 0.451212 0.870654
O O2 0.376650 0.613397 0.901644
O O3 0.409197 0.586551 0.800864
O O4 0.270170 0.486564 0.848226
O O5 0.250000 0.750000 0.425865
O O6 0.154063 0.654063 0.500000
O O7 0.057425 0.776665 0.436689
O O8 0.920975 0.079026 0.500000
O O9 0.944665 0.123909 0.402615
O O10 0.936729 0.936729 0.430812
O O11 0.239986 0.618474 0.236178
O O12 0.384026 0.564895 0.300004
O O13 0.606006 0.893995 0.154013
#
# Coordination Sequence:
#
# PCOD8318863 Si02
#       5
#    16  16  16  16  16
#     4  11  22  33  50  76 106 137 174 214 256 311
#     4  11  19  34  55  77 104 136 172 218 261 309
#     4  10  18  30  52  80 102 127 168 217 261 303
#     4   9  18  31  52  76  99 130 170 220 260 303
#     4  10  19  32  49  71 103 137 170 210 262 311
#
# _framework density 16.963372
#
# number of rings (size 3 to 8) (size 9 to 14) (size 15 to 20)
#    0.000    1.800    4.000    1.800    2.800    0.800 
#    0.000    0.000    0.000    0.600    0.000    0.000 
#    0.000    0.000    0.000    0.000    0.000    0.000 
#
# Total GULP energy -991929.798261 kJ/mol
# GULP energy per Si atom -12399.122478 kJ/mol
# Density = 1.692476 g / cm^3
# Si number density = 16.963372 Si / 1000 Ang^3
#
#
#
# Elastic Constant Matrix: (Units=GPa)
#
#
# Indices 1 2 3 4 5 6 
#
# 1 89.8030 63.6735 57.7781 0.0000 0.0000 0.0000
# 2 63.6735 89.8034 57.7782 0.0000 0.0000 0.0000
# 3 57.7781 57.7782 121.3036 0.0000 0.0000 0.0000
# 4 0.0000 0.0000 0.0000 676.4902 0.0000 0.0000
# 5 0.0000 0.0000 0.0000 0.0000 677.8645 0.0000
# 6 0.0000 0.0000 0.0000 0.0000 0.0000 33.5598
#
#
#
# Elastic Compliance Matrix: (Units=1/GPa)
#
#
# Indices 1 2 3 4 5 6 
#
# 1 0.024215 -0.014056 -0.004839 0.000000 0.000000 0.000000
# 2 -0.014056 0.024215 -0.004839 0.000000 0.000000 0.000000
# 3 -0.004839 -0.004839 0.012853 0.000000 0.000000 0.000000
# 4 0.000000 0.000000 0.000000 0.001478 0.000000 0.000000
# 5 0.000000 0.000000 0.000000 0.000000 0.001475 0.000000
# 6 0.000000 0.000000 0.000000 0.000000 0.000000 0.029798
#
#
# Mechanical properties :
#
#
# Convention : Reuss Voigt Hill
#
# Bulk Modulus (GPa) = 72.38013 73.26328 72.82171
# Shear Modulus (GPa) = 34.22172 285.69491 159.95832
#
# Velocity S-wave (km/s) = 4.49641 12.99170 9.72116
# Velocity P-wave (km/s) = 8.34973 16.38074 13.00090
#
# Compressibility (1/GPa) = 0.01381595
#
# Stress axis : x y z
#
# Youngs Moduli (GPa) = 41.29705 41.29721 77.80096
#
# Poissons Ratio (x) = 0.58047 0.37646
# Poissons Ratio (y) = 0.58047 0.37646
# Poissons Ratio (z) = 0.19983 0.19983
#
# Static dielectric constant tensor:
#      x y z
#    x 3.212320 0.000000 0.000000 
#    y 0.000000 3.212330 0.000000 
#    z 0.000000 0.000000 3.386930 
# 
# 
# High freq. dielectric constant tensor:
#      x y z
#    x 1.638570 0.000000 0.000000 
#    y 0.000000 1.638570 0.000000 
#    z 0.000000 0.000000 1.674310 
# 
# From -- ./inp_files/6019.got.cif
#   From: 2010.03.12/outbox.cif.g09.slc.cpg/sg138_4_cif.got.tgz:6019.got - 2010.04.08 09:41:05.
