data_PCOD8318240
_publ_section_title
;
Structure prediction by ZEFSAII (Michael W. Deem and Ramdas Pophale) SiO2 
 PCOD8318240
Probable space group: P 42/M N M
;
_chemical_formula_sum "Si O2"
_cell_formula_units_Z 80
_cell_length_a 16.830992
_cell_length_b 16.830992
_cell_length_c 13.761174
_cell_angle_alpha 90.000000
_cell_angle_beta 90.000000
_cell_angle_gamma 90.000000
_cell_volume 3898.296907
_symmetry_space_group_name_H-M "P 42/M N M"
_symmetry_group_IT_number 136
_symmetry_cell_setting 'tetragonal'
loop_
_space_group_symop_operation_xyz
x,y,z
1/2-y,1/2+x,1/2+z
-x,-y,z
1/2+y,1/2-x,1/2+z
1/2+x,1/2-y,1/2-z
1/2-x,1/2+y,1/2-z
y,x,-z
-y,-x,-z
-x,-y,-z
1/2+y,1/2-x,1/2-z
x,y,-z
1/2-y,1/2+x,1/2-z
1/2-x,1/2+y,1/2+z
1/2+x,1/2-y,1/2+z
-y,-x,z
y,x,z
loop_
_atom_site_type_symbol
_atom_site_label
_atom_site_fract_x
_atom_site_fract_y
_atom_site_fract_z
Si Si1 0.142326 0.459123 0.609429
Si Si2 0.850277 0.384456 0.277965
Si Si3 0.271564 0.402193 0.111682
Si Si4 0.440737 0.684268 0.783628
Si Si5 0.453915 0.325817 0.392298
O O1 0.109344 0.448020 0.500000
O O2 0.093936 0.403815 0.683845
O O3 0.132864 0.550807 0.638991
O O4 0.233570 0.431972 0.617222
O O5 0.871132 0.298887 0.320701
O O6 0.759406 0.386486 0.243927
O O7 0.348765 0.348765 0.131116
O O8 0.292769 0.492755 0.137902
O O9 0.244762 0.397999 0.000000
O O10 0.383772 0.616229 0.827758
O O11 0.480087 0.649598 0.685572
O O12 0.487591 0.344641 0.500000
O O13 0.373197 0.373197 0.371332
#
# Coordination Sequence:
#
# PCOD8318240 Si02
#       5
#    16  16  16  16  16
#     4  10  22  39  63  95 125 162 209 261 317 370
#     4  11  21  44  65  92 128 164 212 267 321 374
#     4  11  24  43  67  93 127 173 220 263 315 385
#     4  11  24  40  63  94 130 164 207 264 318 379
#     4   9  18  35  60  90 124 160 200 249 309 374
#
# _framework density 20.521781000000001
#
# number of rings (size 3 to 8) (size 9 to 14) (size 15 to 20)
#    0.000    1.600    4.000    1.800    0.000    5.200 
#    0.000    3.000    0.000    0.000    0.000    0.000 
#    0.000    0.000    0.000    0.000    0.000    0.000 
#
# Total GULP energy -992092.575402 kJ/mol
# GULP energy per Si atom -12401.157193 kJ/mol
# Density = 2.047507 g / cm^3
# Si number density = 20.521781 Si / 1000 Ang^3
#
#
#
# Elastic Constant Matrix: (Units=GPa)
#
#
# Indices 1 2 3 4 5 6 
#
# 1 81.1057 54.8023 41.5052 0.0000 0.0000 0.0000
# 2 54.8023 81.1057 41.5052 0.0000 0.0000 0.0000
# 3 41.5052 41.5052 125.6505 0.0000 0.0000 0.0000
# 4 0.0000 0.0000 0.0000 24.0565 0.0000 0.0000
# 5 0.0000 0.0000 0.0000 0.0000 24.0565 0.0000
# 6 0.0000 0.0000 0.0000 0.0000 0.0000 36.8199
#
#
#
# Elastic Compliance Matrix: (Units=1/GPa)
#
#
# Indices 1 2 3 4 5 6 
#
# 1 0.023618 -0.014400 -0.003045 0.000000 0.000000 0.000000
# 2 -0.014400 0.023618 -0.003045 0.000000 0.000000 0.000000
# 3 -0.003045 -0.003045 0.009970 0.000000 0.000000 0.000000
# 4 0.000000 0.000000 0.000000 0.041569 0.000000 0.000000
# 5 0.000000 0.000000 0.000000 0.000000 0.041569 0.000000
# 6 0.000000 0.000000 0.000000 0.000000 0.000000 0.027159
#
#
# Mechanical properties :
#
#
# Convention : Reuss Voigt Hill
#
# Bulk Modulus (GPa) = 61.62872 62.60971 62.11922
# Shear Modulus (GPa) = 23.37644 26.98986 25.18315
#
# Velocity S-wave (km/s) = 3.37872 3.63048 3.50686
# Velocity P-wave (km/s) = 6.73180 6.93894 6.83616
#
# Compressibility (1/GPa) = 0.01622620
#
# Stress axis : x y z
#
# Youngs Moduli (GPa) = 42.34100 42.34100 100.29976
#
# Poissons Ratio (x) = 0.60972 0.30539
# Poissons Ratio (y) = 0.60972 0.30539
# Poissons Ratio (z) = 0.12892 0.12892
#
# Static dielectric constant tensor:
#      x y z
#    x 3.612110 0.000000 0.000000 
#    y 0.000000 3.612110 0.000000 
#    z 0.000000 0.000000 3.956080 
# 
# 
# High freq. dielectric constant tensor:
#      x y z
#    x 1.797210 0.000000 0.000000 
#    y 0.000000 1.797210 0.000000 
#    z 0.000000 0.000000 1.812860 
# 
# From -- ./inp_files/4906.got.cif
#   From: 2010.03.12/outbox.cif.g09.slc.cpg/sg136_3_cif.got.tgz:4906.got - 2010.04.06 18:39:43.
