data_PCOD8318827
_publ_section_title
;
Structure prediction by ZEFSAII (Michael W. Deem and Ramdas Pophale) SiO2 
 PCOD8318827
Probable space group: P 42/N M C
;
_chemical_formula_sum "Si O2"
_cell_formula_units_Z 64
_cell_length_a 14.662194
_cell_length_b 14.662194
_cell_length_c 15.716318
_cell_angle_alpha 90.000000
_cell_angle_beta 90.000000
_cell_angle_gamma 90.000000
_cell_volume 3378.692989
_symmetry_space_group_name_H-M "P 42/N M C"
_symmetry_group_IT_number 137
_space_group.IT_coordinate_system_code '2'
_symmetry_cell_setting 'tetragonal'
loop_
_space_group_symop_operation_xyz
x,y,z
1/2-y,x,1/2+z
1/2-x,1/2-y,z
y,1/2-x,1/2+z
1/2+x,-y,-z
-x,1/2+y,-z
1/2+y,1/2+x,1/2-z
-y,-x,1/2-z
-x,-y,-z
1/2+y,-x,1/2-z
1/2+x,1/2+y,-z
-y,1/2+x,1/2-z
1/2-x,y,z
x,1/2-y,z
1/2-y,1/2-x,1/2+z
y,x,1/2+z
loop_
_atom_site_type_symbol
_atom_site_label
_atom_site_fract_x
_atom_site_fract_y
_atom_site_fract_z
Si Si1 0.349493 0.642168 0.345461
Si Si2 0.851468 0.641782 0.262830
Si Si3 0.141144 0.352321 0.923959
Si Si4 0.968120 0.640937 0.419467
O O1 0.382072 0.617929 0.250000
O O2 0.250000 0.597680 0.366510
O O3 0.339901 0.750000 0.351567
O O4 0.426549 0.607146 0.411698
O O5 0.750000 0.600088 0.273035
O O6 0.845264 0.750000 0.269228
O O7 0.893843 0.616831 0.169778
O O8 0.913657 0.601752 0.337986
O O9 0.250000 0.352794 0.922337
O O10 0.107409 0.250000 0.946728
O O11 0.102645 0.423181 0.994002
O O12 0.963784 0.750000 0.418468
#
# Coordination Sequence:
#
# PCOD8318827 Si02
#       4
#    16  16  16  16
#     4   8  14  24  36  50  67  87 118 162 204 237
#     4   8  13  20  30  48  75 102 127 153 177 214
#     4   8  13  20  30  48  75 102 127 153 177 214
#     4   9  14  20  34  51  67  97 131 153 188 233
#
# _framework density 18.942236000000001
#
# number of rings (size 3 to 8) (size 9 to 14) (size 15 to 20)
#    0.000    3.750    0.000    3.000    0.000    3.000 
#    0.000    0.000    0.000    1.500    0.000    0.000 
#    0.000    0.000    0.000    2.250    0.000   58.750 
#
# Total GULP energy -792847.463711 kJ/mol
# GULP energy per Si atom -12388.241620 kJ/mol
# Density = 1.889912 g / cm^3
# Si number density = 18.942236 Si / 1000 Ang^3
#
#
#
# Elastic Constant Matrix: (Units=GPa)
#
#
# Indices 1 2 3 4 5 6 
#
# 1 46.7032 5.0589 31.1254 0.0000 0.0000 0.0000
# 2 5.0589 46.7034 31.1251 0.0000 0.0000 0.0000
# 3 31.1254 31.1251 125.2042 0.0000 0.0000 0.0000
# 4 0.0000 0.0000 0.0000 -1.2445 0.0000 0.0000
# 5 0.0000 0.0000 0.0000 0.0000 -1.2455 0.0000
# 6 0.0000 0.0000 0.0000 0.0000 0.0000 1.8307
#
#
#
# Elastic Compliance Matrix: (Units=1/GPa)
#
#
# Indices 1 2 3 4 5 6 
#
# 1 0.025786 0.001773 -0.006851 0.000000 0.000000 0.000000
# 2 0.001773 0.025785 -0.006851 0.000000 0.000000 0.000000
# 3 -0.006851 -0.006851 0.011393 0.000000 0.000000 0.000000
# 4 0.000000 0.000000 0.000000 -0.803550 0.000000 0.000000
# 5 0.000000 0.000000 0.000000 0.000000 -0.802918 0.000000
# 6 0.000000 0.000000 0.000000 0.000000 0.000000 0.546243
#
#
# Mechanical properties :
#
#
# Convention : Reuss Voigt Hill
#
# Bulk Modulus (GPa) = 25.57155 39.24774 32.40964
# Shear Modulus (GPa) = -5.20634 9.95491 2.37429
#
# Velocity S-wave (km/s) = -1.65967 2.29495 1.12078
# Velocity P-wave (km/s) = 3.13949 5.27135 4.33840
#
# Compressibility (1/GPa) = 0.03910596
#
# Stress axis : x y z
#
# Youngs Moduli (GPa) = 38.78138 38.78176 87.77227
#
# Poissons Ratio (x) = -0.06874 0.60132
# Poissons Ratio (y) = -0.06874 0.60131
# Poissons Ratio (z) = 0.26569 0.26568
#
# Static dielectric constant tensor:
#      x y z
#    x 3.309880 0.000000 0.000000 
#    y 0.000000 3.309870 0.000000 
#    z 0.000000 0.000000 3.733200 
# 
# 
# High freq. dielectric constant tensor:
#      x y z
#    x 1.696910 0.000000 0.000000 
#    y 0.000000 1.696910 0.000000 
#    z 0.000000 0.000000 1.730170 
# 
# From -- ./inp_files/6053.got.cif
#   From: 2010.03.12/outbox.cif.g09.slc.cpg/sg137_4_cif.got.tgz:6053.got - 2010.04.08 09:34:49.
