data_PCOD8318189
_publ_section_title
;
Structure prediction by ZEFSAII (Michael W. Deem and Ramdas Pophale) SiO2 
 PCOD8318189
Probable space group: P 42/M N M
;
_chemical_formula_sum "Si O2"
_cell_formula_units_Z 104
_cell_length_a 18.195481
_cell_length_b 18.195481
_cell_length_c 16.465596
_cell_angle_alpha 90.000000
_cell_angle_beta 90.000000
_cell_angle_gamma 90.000000
_cell_volume 5451.355903
_symmetry_space_group_name_H-M "P 42/M N M"
_symmetry_group_IT_number 136
_symmetry_cell_setting 'tetragonal'
loop_
_space_group_symop_operation_xyz
x,y,z
1/2-y,1/2+x,1/2+z
-x,-y,z
1/2+y,1/2-x,1/2+z
1/2+x,1/2-y,1/2-z
1/2-x,1/2+y,1/2-z
y,x,-z
-y,-x,-z
-x,-y,-z
1/2+y,1/2-x,1/2-z
x,y,-z
1/2-y,1/2+x,1/2-z
1/2-x,1/2+y,1/2+z
1/2+x,1/2-y,1/2+z
-y,-x,z
y,x,z
loop_
_atom_site_type_symbol
_atom_site_label
_atom_site_fract_x
_atom_site_fract_y
_atom_site_fract_z
Si Si1 0.383371 0.496037 0.000000
Si Si2 0.163060 0.558767 0.908037
Si Si3 0.357041 0.241815 0.091615
Si Si4 0.399689 0.908235 0.344941
Si Si5 0.844199 0.557684 0.670282
Si Si6 0.180794 0.060136 0.342599
Si Si7 0.692199 0.572094 0.750109
O O1 0.337392 0.512168 0.920752
O O2 0.410303 0.410303 0.000000
O O3 0.455095 0.544906 0.000000
O O4 0.113347 0.487844 0.885894
O O5 0.113098 0.631430 0.900631
O O6 0.231344 0.571538 0.846323
O O7 0.191800 0.552387 0.000000
O O8 0.275695 0.275695 0.097446
O O9 0.350767 0.155928 0.112261
O O10 0.409218 0.276554 0.160239
O O11 0.390056 0.254508 0.000000
O O12 0.478203 0.871371 0.359045
O O13 0.388338 0.916618 0.249430
O O14 0.756616 0.566571 0.683316
O O15 0.137491 0.137491 0.338379
O O16 0.159929 0.010356 0.263458
O O17 0.629888 0.629888 0.721366
#
# Coordination Sequence:
#
# PCOD8318189 Si02
#       7
#     8  16  16  16  16  16  16
#     4   9  18  30  48  76 111 152 188 222 271 330
#     4  12  24  37  57  86 118 156 201 244 291 353
#     4   9  18  32  53  80 111 143 181 233 287 342
#     4  11  20  35  57  77 113 153 195 242 291 348
#     4  11  22  38  57  80 109 154 196 246 294 340
#     4  11  21  35  54  81 120 155 190 236 284 346
#     4  10  21  37  57  82 113 152 195 237 288 348
#
# _framework density 19.077821
#
# number of rings (size 3 to 8) (size 9 to 14) (size 15 to 20)
#    0.000    1.462    5.385    1.385    1.077    3.385 
#    0.000    3.846    0.000    0.000    0.000    0.000 
#    0.000    0.000    0.000    3.077    0.000    0.000 
#
# Total GULP energy -1288835.151840 kJ/mol
# GULP energy per Si atom -12392.645691 kJ/mol
# Density = 1.903440 g / cm^3
# Si number density = 19.077821 Si / 1000 Ang^3
#
#
#
# Elastic Constant Matrix: (Units=GPa)
#
#
# Indices 1 2 3 4 5 6 
#
# 1 105.5663 63.0421 23.3697 0.0000 0.0000 0.0000
# 2 63.0421 105.5663 23.3697 0.0000 0.0000 0.0000
# 3 23.3697 23.3697 35.2986 0.0000 0.0000 0.0000
# 4 0.0000 0.0000 0.0000 19.0193 0.0000 0.0000
# 5 0.0000 0.0000 0.0000 0.0000 19.0197 0.0000
# 6 0.0000 0.0000 0.0000 0.0000 0.0000 32.4190
#
#
#
# Elastic Compliance Matrix: (Units=1/GPa)
#
#
# Indices 1 2 3 4 5 6 
#
# 1 0.015390 -0.008126 -0.004809 0.000000 0.000000 0.000000
# 2 -0.008126 0.015390 -0.004809 0.000000 0.000000 0.000000
# 3 -0.004809 -0.004809 0.034698 0.000000 0.000000 0.000000
# 4 0.000000 0.000000 0.000000 0.052578 0.000000 0.000000
# 5 0.000000 0.000000 0.000000 0.000000 0.052577 0.000000
# 6 0.000000 0.000000 0.000000 0.000000 0.000000 0.030846
#
#
# Mechanical properties :
#
#
# Convention : Reuss Voigt Hill
#
# Bulk Modulus (GPa) = 33.34567 51.77715 42.56141
# Shear Modulus (GPa) = 20.24586 23.20159 21.72372
#
# Velocity S-wave (km/s) = 3.26118 3.49112 3.37811
# Velocity P-wave (km/s) = 5.63002 6.59162 6.12971
#
# Compressibility (1/GPa) = 0.02998890
#
# Stress axis : x y z
#
# Youngs Moduli (GPa) = 64.97706 64.97705 28.82038
#
# Poissons Ratio (x) = 0.52800 0.13860
# Poissons Ratio (y) = 0.52800 0.13860
# Poissons Ratio (z) = 0.31249 0.31249
#
# Static dielectric constant tensor:
#      x y z
#    x 3.548830 0.000000 0.000000 
#    y 0.000000 3.548830 0.000000 
#    z 0.000000 0.000000 3.295340 
# 
# 
# High freq. dielectric constant tensor:
#      x y z
#    x 1.739190 0.000000 0.000000 
#    y 0.000000 1.739190 0.000000 
#    z 0.000000 0.000000 1.705590 
# 
# From -- ./inp_files/6419.got.cif
#   From: 2010.03.12/outbox.cif.g09.slc.cpg/sg136_4_cif.got.tgz:6419.got - 2010.04.06 18:39:43.
