data_PCOD8318050
_publ_section_title
;
Structure prediction by ZEFSAII (Michael W. Deem and Ramdas Pophale) SiO2 
 PCOD8318050
Probable space group: P 42/M N M
;
_chemical_formula_sum "Si O2"
_cell_formula_units_Z 72
_cell_length_a 18.297746
_cell_length_b 18.297746
_cell_length_c 12.889769
_cell_angle_alpha 90.000000
_cell_angle_beta 90.000000
_cell_angle_gamma 90.000000
_cell_volume 4315.591446
_symmetry_space_group_name_H-M "P 42/M N M"
_symmetry_group_IT_number 136
_symmetry_cell_setting 'tetragonal'
loop_
_space_group_symop_operation_xyz
x,y,z
1/2-y,1/2+x,1/2+z
-x,-y,z
1/2+y,1/2-x,1/2+z
1/2+x,1/2-y,1/2-z
1/2-x,1/2+y,1/2-z
y,x,-z
-y,-x,-z
-x,-y,-z
1/2+y,1/2-x,1/2-z
x,y,-z
1/2-y,1/2+x,1/2-z
1/2-x,1/2+y,1/2+z
1/2+x,1/2-y,1/2+z
-y,-x,z
y,x,z
loop_
_atom_site_type_symbol
_atom_site_label
_atom_site_fract_x
_atom_site_fract_y
_atom_site_fract_z
Si Si1 0.396707 0.158009 0.253239
Si Si2 0.240749 0.640569 0.618708
Si Si3 0.416510 0.016324 0.378453
Si Si4 0.942574 0.057427 0.122913
Si Si5 0.220481 0.973957 0.878727
O O1 0.320058 0.171625 0.196253
O O2 0.391153 0.094729 0.338428
O O3 0.455245 0.136574 0.166605
O O4 0.418253 0.231644 0.311998
O O5 0.214148 0.649913 0.500000
O O6 0.315777 0.684224 0.637456
O O7 0.254009 0.556011 0.643646
O O8 0.407054 0.015274 0.500000
O O9 0.500000 0.000000 0.345786
O O10 0.964179 0.137973 0.160852
O O11 0.946805 0.053196 0.000000
O O12 0.000000 0.000000 0.171802
O O13 0.228329 0.954443 0.000000
#
# Coordination Sequence:
#
# PCOD8318050 Si02
#       5
#    16  16  16   8  16
#     4  12  19  33  49  78 105 143 175 208 260 313
#     4  10  21  36  54  76 105 139 177 222 268 317
#     4  11  20  32  50  74 105 140 176 209 245 304
#     4   9  18  34  56  80 103 131 173 226 278 315
#     4  10  20  34  54  79 107 137 175 220 267 319
#
# _framework density 16.683692000000001
#
# number of rings (size 3 to 8) (size 9 to 14) (size 15 to 20)
#    0.000    1.444    4.444    2.000    1.556    6.222 
#    0.000    0.000    0.000    0.000    0.000    0.000 
#    0.000    3.556    0.000    0.000    0.000    0.000 
#
# Total GULP energy -893016.494368 kJ/mol
# GULP energy per Si atom -12403.006866 kJ/mol
# Density = 1.664572 g / cm^3
# Si number density = 16.683692 Si / 1000 Ang^3
#
#
#
# Elastic Constant Matrix: (Units=GPa)
#
#
# Indices 1 2 3 4 5 6 
#
# 1 97.0948 34.8540 39.0103 0.0000 0.0000 0.0000
# 2 34.8540 97.0949 39.0100 0.0000 0.0000 0.0000
# 3 39.0103 39.0100 76.6316 0.0000 0.0000 0.0000
# 4 0.0000 0.0000 0.0000 50.6804 0.0000 0.0000
# 5 0.0000 0.0000 0.0000 0.0000 50.6802 0.0000
# 6 0.0000 0.0000 0.0000 0.0000 0.0000 29.8579
#
#
#
# Elastic Compliance Matrix: (Units=1/GPa)
#
#
# Indices 1 2 3 4 5 6 
#
# 1 0.013454 -0.002612 -0.005519 0.000000 0.000000 0.000000
# 2 -0.002612 0.013454 -0.005519 0.000000 0.000000 0.000000
# 3 -0.005519 -0.005519 0.018669 0.000000 0.000000 0.000000
# 4 0.000000 0.000000 0.000000 0.019731 0.000000 0.000000
# 5 0.000000 0.000000 0.000000 0.000000 0.019732 0.000000
# 6 0.000000 0.000000 0.000000 0.000000 0.000000 0.033492
#
#
# Mechanical properties :
#
#
# Convention : Reuss Voigt Hill
#
# Bulk Modulus (GPa) = 54.71693 55.17442 54.94567
# Shear Modulus (GPa) = 32.91066 36.77351 34.84208
#
# Velocity S-wave (km/s) = 4.44624 4.69994 4.57485
# Velocity P-wave (km/s) = 7.69588 7.91172 7.80455
#
# Compressibility (1/GPa) = 0.01827588
#
# Stress axis : x y z
#
# Youngs Moduli (GPa) = 74.32476 74.32515 53.56521
#
# Poissons Ratio (x) = 0.19415 0.29565
# Poissons Ratio (y) = 0.19415 0.29564
# Poissons Ratio (z) = 0.41023 0.41022
#
# Static dielectric constant tensor:
#      x y z
#    x 3.159810 0.000000 0.000000 
#    y 0.000000 3.159820 0.000000 
#    z 0.000000 0.000000 3.029740 
# 
# 
# High freq. dielectric constant tensor:
#      x y z
#    x 1.643410 0.000000 0.000000 
#    y 0.000000 1.643410 0.000000 
#    z 0.000000 0.000000 1.631440 
# 
# From -- ./inp_files/3439.got.cif
#   From: 2010.03.12/outbox.cif.g09.slc.cpg/sg136_2_cif.got.tgz:3439.got - 2010.04.06 18:39:43.
