data_PCOD8318422
_publ_section_title
;
Structure prediction by ZEFSAII (Michael W. Deem and Ramdas Pophale) SiO2 
 PCOD8318422
Probable space group: P 42/N M C
;
_chemical_formula_sum "Si O2"
_cell_formula_units_Z 80
_cell_length_a 12.771544
_cell_length_b 12.771544
_cell_length_c 27.855254
_cell_angle_alpha 90.000000
_cell_angle_beta 90.000000
_cell_angle_gamma 90.000000
_cell_volume 4543.535554
_symmetry_space_group_name_H-M "P 42/N M C"
_symmetry_group_IT_number 137
_space_group.IT_coordinate_system_code '2'
_symmetry_cell_setting 'tetragonal'
loop_
_space_group_symop_operation_xyz
x,y,z
1/2-y,x,1/2+z
1/2-x,1/2-y,z
y,1/2-x,1/2+z
1/2+x,-y,-z
-x,1/2+y,-z
1/2+y,1/2+x,1/2-z
-y,-x,1/2-z
-x,-y,-z
1/2+y,-x,1/2-z
1/2+x,1/2+y,-z
-y,1/2+x,1/2-z
1/2-x,y,z
x,1/2-y,z
1/2-y,1/2-x,1/2+z
y,x,1/2+z
loop_
_atom_site_type_symbol
_atom_site_label
_atom_site_fract_x
_atom_site_fract_y
_atom_site_fract_z
Si Si1 0.250000 0.124692 0.633076
Si Si2 0.869171 0.475101 0.611461
Si Si3 0.372373 0.474084 0.278305
Si Si4 0.750000 0.626038 0.259389
Si Si5 0.370594 0.059638 0.071788
Si Si6 0.127965 0.367986 0.471617
O O1 0.250000 0.250000 0.635030
O O2 0.250000 0.079763 0.686939
O O3 0.147379 0.079013 0.606449
O O4 0.750000 0.436913 0.604157
O O5 0.889664 0.510114 0.665436
O O6 0.898836 0.570887 0.576853
O O7 0.945965 0.381703 0.596049
O O8 0.439707 0.560294 0.250000
O O9 0.250000 0.489166 0.264113
O O10 0.412320 0.356440 0.266682
O O11 0.750000 0.750000 0.259308
O O12 0.250000 0.087920 0.066328
O O13 0.417153 0.066797 0.017673
O O14 0.250000 0.373869 0.484283
O O15 0.091553 0.250000 0.461228
#
# Coordination Sequence:
#
# PCOD8318422 Si02
#       6
#     8  16  16   8  16  16
#     4   9  16  28  50  74  92 124 168 214 254 282
#     4  10  21  32  48  74 103 136 167 200 253 311
#     4  10  21  36  53  77 107 139 176 216 264 314
#     4   9  18  32  52  73 101 133 177 224 253 296
#     4  10  18  31  50  73 103 130 166 208 251 303
#     4   9  17  31  51  74 100 130 165 210 254 296
#
# _framework density 17.607434999999999
#
# number of rings (size 3 to 8) (size 9 to 14) (size 15 to 20)
#    0.000    2.400    1.000    1.800    1.400    3.000 
#    0.000    2.000    0.000    0.300    0.000    0.000 
#    0.000    0.000    0.000    0.000    0.000    0.000 
#
# Total GULP energy -991640.747893 kJ/mol
# GULP energy per Si atom -12395.509349 kJ/mol
# Density = 1.756736 g / cm^3
# Si number density = 17.607435 Si / 1000 Ang^3
#
#
#
# Elastic Constant Matrix: (Units=GPa)
#
#
# Indices 1 2 3 4 5 6 
#
# 1 68.9925 30.7632 44.6467 0.0000 0.0000 0.0000
# 2 30.7632 68.9905 44.6473 0.0000 0.0000 0.0000
# 3 44.6467 44.6473 142.2442 0.0000 0.0000 0.0000
# 4 0.0000 0.0000 0.0000 26.0566 0.0000 0.0000
# 5 0.0000 0.0000 0.0000 0.0000 26.0567 0.0000
# 6 0.0000 0.0000 0.0000 0.0000 0.0000 20.0515
#
#
#
# Elastic Compliance Matrix: (Units=1/GPa)
#
#
# Indices 1 2 3 4 5 6 
#
# 1 0.020050 -0.006108 -0.004376 0.000000 0.000000 0.000000
# 2 -0.006108 0.020051 -0.004376 0.000000 0.000000 0.000000
# 3 -0.004376 -0.004376 0.009777 0.000000 0.000000 0.000000
# 4 0.000000 0.000000 0.000000 0.038378 0.000000 0.000000
# 5 0.000000 0.000000 0.000000 0.000000 0.038378 0.000000
# 6 0.000000 0.000000 0.000000 0.000000 0.000000 0.049872
#
#
# Mechanical properties :
#
#
# Convention : Reuss Voigt Hill
#
# Bulk Modulus (GPa) = 49.61131 57.81572 53.71351
# Shear Modulus (GPa) = 23.48028 25.11094 24.29561
#
# Velocity S-wave (km/s) = 3.65573 3.78054 3.71866
# Velocity P-wave (km/s) = 6.78651 7.20860 7.00074
#
# Compressibility (1/GPa) = 0.02015670
#
# Stress axis : x y z
#
# Youngs Moduli (GPa) = 49.87602 49.87385 102.27907
#
# Poissons Ratio (x) = 0.30465 0.44755
# Poissons Ratio (y) = 0.30467 0.44759
# Poissons Ratio (z) = 0.21825 0.21825
#
# Static dielectric constant tensor:
#      x y z
#    x 3.127920 0.000000 0.000000 
#    y 0.000000 3.127920 0.000000 
#    z 0.000000 0.000000 3.507140 
# 
# 
# High freq. dielectric constant tensor:
#      x y z
#    x 1.658160 0.000000 0.000000 
#    y 0.000000 1.658160 0.000000 
#    z 0.000000 0.000000 1.702680 
# 
# From -- ./inp_files/10347.got.cif
#   From: 2010.03.12/outbox.cif.g09.slc.cpg/sg137_6_cif.got.tgz:10347.got - 2010.04.08 09:34:49.
