data_PCOD8318814
_publ_section_title
;
Structure prediction by ZEFSAII (Michael W. Deem and Ramdas Pophale) SiO2 
 PCOD8318814
Probable space group: P 42/N M C
;
_chemical_formula_sum "Si O2"
_cell_formula_units_Z 48
_cell_length_a 7.880597
_cell_length_b 7.880597
_cell_length_c 38.029776
_cell_angle_alpha 90.000000
_cell_angle_beta 90.000000
_cell_angle_gamma 90.000000
_cell_volume 2361.793948
_symmetry_space_group_name_H-M "P 42/N M C"
_symmetry_group_IT_number 137
_space_group.IT_coordinate_system_code '2'
_symmetry_cell_setting 'tetragonal'
loop_
_space_group_symop_operation_xyz
x,y,z
1/2-y,x,1/2+z
1/2-x,1/2-y,z
y,1/2-x,1/2+z
1/2+x,-y,-z
-x,1/2+y,-z
1/2+y,1/2+x,1/2-z
-y,-x,1/2-z
-x,-y,-z
1/2+y,-x,1/2-z
1/2+x,1/2+y,-z
-y,1/2+x,1/2-z
1/2-x,y,z
x,1/2-y,z
1/2-y,1/2-x,1/2+z
y,x,1/2+z
loop_
_atom_site_type_symbol
_atom_site_label
_atom_site_fract_x
_atom_site_fract_y
_atom_site_fract_z
Si Si1 0.750000 0.447242 0.163536
Si Si2 0.438699 0.948343 0.038227
Si Si3 0.438627 0.949417 0.211073
Si Si4 0.947831 0.250000 0.414044
O O1 0.750000 0.250000 0.158750
O O2 0.577585 0.496031 0.183070
O O3 0.750000 0.533170 0.124789
O O4 0.250000 0.027153 0.045862
O O5 0.421699 0.750000 0.039628
O O6 0.577203 0.002894 0.066521
O O7 0.500000 0.000000 0.000000
O O8 0.503374 0.003374 0.250000
O O9 0.250000 0.027370 0.202770
O O10 0.420645 0.750000 0.210470
O O11 0.750000 0.250000 0.410183
#
# Coordination Sequence:
#
# PCOD8318814 Si02
#       4
#     8  16  16   8
#     4  11  25  39  59  91 127 165 205 257 319 373
#     4  11  23  39  64  93 120 157 206 258 309 368
#     4   9  20  39  62  89 120 158 207 258 308 372
#     4  11  25  43  59  87 129 167 207 255 311 375
#
# _framework density 20.323537000000002
#
# number of rings (size 3 to 8) (size 9 to 14) (size 15 to 20)
#    0.000    1.667    1.667    3.000    2.333    6.667 
#    0.000    6.667    0.000    0.000    0.000    0.000 
#    0.000    0.000    0.000    0.000    0.000    0.000 
#
# Total GULP energy -594829.892382 kJ/mol
# GULP energy per Si atom -12392.289425 kJ/mol
# Density = 2.027728 g / cm^3
# Si number density = 20.323537 Si / 1000 Ang^3
#
#
#
# Elastic Constant Matrix: (Units=GPa)
#
#
# Indices 1 2 3 4 5 6 
#
# 1 115.8416 39.7782 75.2352 0.0000 0.0000 0.0000
# 2 39.7782 115.8416 75.2352 0.0000 0.0000 0.0000
# 3 75.2352 75.2352 197.5738 0.0000 0.0000 0.0000
# 4 0.0000 0.0000 0.0000 29.8161 0.0000 0.0000
# 5 0.0000 0.0000 0.0000 0.0000 29.8161 0.0000
# 6 0.0000 0.0000 0.0000 0.0000 0.0000 28.6548
#
#
#
# Elastic Compliance Matrix: (Units=1/GPa)
#
#
# Indices 1 2 3 4 5 6 
#
# 1 0.011659 -0.001488 -0.003873 0.000000 0.000000 0.000000
# 2 -0.001488 0.011659 -0.003873 0.000000 0.000000 0.000000
# 3 -0.003873 -0.003873 0.008011 0.000000 0.000000 0.000000
# 4 0.000000 0.000000 0.000000 0.033539 0.000000 0.000000
# 5 0.000000 0.000000 0.000000 0.000000 0.033539 0.000000
# 6 0.000000 0.000000 0.000000 0.000000 0.000000 0.034898
#
#
# Mechanical properties :
#
#
# Convention : Reuss Voigt Hill
#
# Bulk Modulus (GPa) = 77.75683 89.97271 83.86477
# Shear Modulus (GPa) = 32.03902 33.59128 32.81515
#
# Velocity S-wave (km/s) = 3.97476 4.06991 4.02261
# Velocity P-wave (km/s) = 7.70763 8.15180 7.93282
#
# Compressibility (1/GPa) = 0.01286061
#
# Stress axis : x y z
#
# Youngs Moduli (GPa) = 85.77193 85.77193 124.82807
#
# Poissons Ratio (x) = 0.12764 0.48346
# Poissons Ratio (y) = 0.12764 0.48346
# Poissons Ratio (z) = 0.33219 0.33219
#
# Static dielectric constant tensor:
#      x y z
#    x 4.188910 0.000000 0.000000 
#    y 0.000000 4.188910 0.000000 
#    z 0.000000 0.000000 4.652680 
# 
# 
# High freq. dielectric constant tensor:
#      x y z
#    x 1.804420 0.000000 0.000000 
#    y 0.000000 1.804420 0.000000 
#    z 0.000000 0.000000 1.793420 
# 
# From -- ./inp_files/10053.got.cif
#   From: 2010.03.12/outbox.cif.g09.slc.cpg/sg137_6_cif.got.tgz:10053.got - 2010.04.08 09:34:49.
