data_PCOD8318445
_publ_section_title
;
Structure prediction by ZEFSAII (Michael W. Deem and Ramdas Pophale) SiO2 
 PCOD8318445
Probable space group: P 42/N M C
;
_chemical_formula_sum "Si O2"
_cell_formula_units_Z 128
_cell_length_a 18.240701
_cell_length_b 18.240701
_cell_length_c 21.845059
_cell_angle_alpha 90.000000
_cell_angle_beta 90.000000
_cell_angle_gamma 90.000000
_cell_volume 7268.357344
_symmetry_space_group_name_H-M "P 42/N M C"
_symmetry_group_IT_number 137
_space_group.IT_coordinate_system_code '2'
_symmetry_cell_setting 'tetragonal'
loop_
_space_group_symop_operation_xyz
x,y,z
1/2-y,x,1/2+z
1/2-x,1/2-y,z
y,1/2-x,1/2+z
1/2+x,-y,-z
-x,1/2+y,-z
1/2+y,1/2+x,1/2-z
-y,-x,1/2-z
-x,-y,-z
1/2+y,-x,1/2-z
1/2+x,1/2+y,-z
-y,1/2+x,1/2-z
1/2-x,y,z
x,1/2-y,z
1/2-y,1/2-x,1/2+z
y,x,1/2+z
loop_
_atom_site_type_symbol
_atom_site_label
_atom_site_fract_x
_atom_site_fract_y
_atom_site_fract_z
Si Si1 0.428167 0.164733 0.140768
Si Si2 0.500485 0.616268 0.977899
Si Si3 0.966174 0.668453 0.106246
Si Si4 0.168400 0.065311 0.877957
Si Si5 0.568223 0.053185 0.687076
Si Si6 0.992601 0.117066 0.498584
Si Si7 0.995092 0.898552 0.735006
Si Si8 0.533928 0.668175 0.378354
O O1 0.407497 0.250000 0.148397
O O2 0.489737 0.156374 0.087427
O O3 0.456530 0.132661 0.204739
O O4 0.355215 0.119891 0.120257
O O5 0.552010 0.545718 0.980275
O O6 0.521710 0.670137 0.033345
O O7 0.416807 0.588108 0.986150
O O8 0.961373 0.750000 0.131880
O O9 0.889606 0.631052 0.124103
O O10 0.037584 0.631019 0.137448
O O11 0.250000 0.099166 0.878204
O O12 0.160813 0.012387 0.818831
O O13 0.157940 0.016466 0.937644
O O14 0.594229 0.094229 0.750000
O O15 0.506061 0.104552 0.659248
O O16 0.539378 0.973479 0.707753
O O17 0.995991 0.173902 0.554778
O O18 0.080327 0.919674 0.750000
O O19 0.527751 0.750000 0.349285
#
# Coordination Sequence:
#
# PCOD8318445 Si02
#       8
#    16  16  16  16  16  16  16  16
#     4  11  21  33  52  83 119 149 180 222 278 342
#     4   9  17  31  54  77 106 139 188 237 268 310
#     4  10  20  34  55  81 107 143 182 223 276 327
#     4  10  20  32  49  79 116 144 173 216 267 330
#     4  10  19  36  56  76 103 140 194 237 265 313
#     4   9  17  31  54  77 103 142 187 232 269 314
#     4  10  18  34  55  73 103 147 187 229 262 300
#     4  11  21  35  56  82 111 147 185 228 283 339
#
# _framework density 17.610581
#
# number of rings (size 3 to 8) (size 9 to 14) (size 15 to 20)
#    0.000    2.000    3.750    1.875    3.500    1.000 
#    0.000    0.000    0.000    6.375    0.000    0.875 
#    0.000   19.000    0.000    0.000    0.000    0.000 
#
# Total GULP energy -1585763.699863 kJ/mol
# GULP energy per Si atom -12388.778905 kJ/mol
# Density = 1.757050 g / cm^3
# Si number density = 17.610581 Si / 1000 Ang^3
#
#
#
# Elastic Constant Matrix: (Units=GPa)
#
#
# Indices 1 2 3 4 5 6 
#
# 1 75.0678 62.3082 34.4482 0.0000 0.0000 0.0000
# 2 62.3082 75.0677 34.4486 0.0000 0.0000 0.0000
# 3 34.4482 34.4486 127.9441 0.0000 0.0000 0.0000
# 4 0.0000 0.0000 0.0000 15.1360 0.0000 0.0000
# 5 0.0000 0.0000 0.0000 0.0000 15.1358 0.0000
# 6 0.0000 0.0000 0.0000 0.0000 0.0000 12.2782
#
#
#
# Elastic Compliance Matrix: (Units=1/GPa)
#
#
# Indices 1 2 3 4 5 6 
#
# 1 0.043394 -0.034979 -0.002266 0.000000 0.000000 0.000000
# 2 -0.034979 0.043394 -0.002266 0.000000 0.000000 0.000000
# 3 -0.002266 -0.002266 0.009036 0.000000 0.000000 0.000000
# 4 0.000000 0.000000 0.000000 0.066068 0.000000 0.000000
# 5 0.000000 0.000000 0.000000 0.000000 0.066069 0.000000
# 6 0.000000 0.000000 0.000000 0.000000 0.000000 0.081445
#
#
# Mechanical properties :
#
#
# Convention : Reuss Voigt Hill
#
# Bulk Modulus (GPa) = 59.51002 60.05440 59.78221
# Shear Modulus (GPa) = 12.68945 18.30163 15.49554
#
# Velocity S-wave (km/s) = 2.68723 3.22722 2.96953
# Velocity P-wave (km/s) = 6.59499 6.93267 6.76594
#
# Compressibility (1/GPa) = 0.01680389
#
# Stress axis : x y z
#
# Youngs Moduli (GPa) = 23.04452 23.04445 110.66751
#
# Poissons Ratio (x) = 0.80606 0.25075
# Poissons Ratio (y) = 0.80607 0.25077
# Poissons Ratio (z) = 0.05221 0.05222
#
# Static dielectric constant tensor:
#      x y z
#    x 3.150350 0.000000 0.000000 
#    y 0.000000 3.150340 0.000000 
#    z 0.000000 0.000000 3.780070 
# 
# 
# High freq. dielectric constant tensor:
#      x y z
#    x 1.649240 0.000000 0.000000 
#    y 0.000000 1.649240 0.000000 
#    z 0.000000 0.000000 1.707450 
# 
# From -- ./inp_files/9167.got.cif
#   From: 2010.03.12/outbox.cif.g09.slc.cpg/sg137_5_cif.got.tgz:9167.got - 2010.04.08 09:34:49.
