data_PCOD8318427
_publ_section_title
;
Structure prediction by ZEFSAII (Michael W. Deem and Ramdas Pophale) SiO2 
 PCOD8318427
Probable space group: P 42/N M C
;
_chemical_formula_sum "Si O2"
_cell_formula_units_Z 96
_cell_length_a 21.637699
_cell_length_b 21.637699
_cell_length_c 12.037410
_cell_angle_alpha 90.000000
_cell_angle_beta 90.000000
_cell_angle_gamma 90.000000
_cell_volume 5635.795205
_symmetry_space_group_name_H-M "P 42/N M C"
_symmetry_group_IT_number 137
_space_group.IT_coordinate_system_code '2'
_symmetry_cell_setting 'tetragonal'
loop_
_space_group_symop_operation_xyz
x,y,z
1/2-y,x,1/2+z
1/2-x,1/2-y,z
y,1/2-x,1/2+z
1/2+x,-y,-z
-x,1/2+y,-z
1/2+y,1/2+x,1/2-z
-y,-x,1/2-z
-x,-y,-z
1/2+y,-x,1/2-z
1/2+x,1/2+y,-z
-y,1/2+x,1/2-z
1/2-x,y,z
x,1/2-y,z
1/2-y,1/2-x,1/2+z
y,x,1/2+z
loop_
_atom_site_type_symbol
_atom_site_label
_atom_site_fract_x
_atom_site_fract_y
_atom_site_fract_z
Si Si1 0.568348 0.123142 0.001831
Si Si2 0.488014 0.319660 0.631592
Si Si3 0.133720 0.681769 0.364070
Si Si4 0.820811 0.422398 0.272905
Si Si5 0.000563 0.118085 0.408754
Si Si6 0.082842 0.013361 0.306413
O O1 0.632918 0.152441 0.958462
O O2 0.518709 0.122982 0.903342
O O3 0.548199 0.165174 0.105833
O O4 0.574793 0.052856 0.041973
O O5 0.462950 0.250000 0.650745
O O6 0.560867 0.322797 0.654704
O O7 0.470232 0.340752 0.507042
O O8 0.459104 0.368509 0.717617
O O9 0.168404 0.668404 0.250000
O O10 0.152569 0.750000 0.406073
O O11 0.862158 0.362158 0.250000
O O12 0.750000 0.402480 0.263180
O O13 0.834987 0.474902 0.183020
O O14 0.050192 0.073249 0.354833
O O15 0.034571 0.965430 0.250000
#
# Coordination Sequence:
#
# PCOD8318427 Si02
#       6
#    16  16  16  16  16  16
#     4  10  19  33  47  77 103 138 173 226 273 317
#     4  10  20  34  53  74 106 141 167 210 264 318
#     4  10  18  32  47  67  99 139 183 223 264 302
#     4  10  22  37  52  72 104 147 189 226 263 306
#     4  10  21  33  54  76 108 136 173 216 268 323
#     4  12  19  32  55  83 105 135 177 217 269 328
#
# _framework density 17.033975999999999
#
# number of rings (size 3 to 8) (size 9 to 14) (size 15 to 20)
#    0.000    1.667    5.000    2.500    2.333    5.667 
#    0.000    0.000    0.000    0.000    0.000    0.000 
#    0.000    5.333    0.000    0.000    0.000    0.000 
#
# Total GULP energy -1190314.514388 kJ/mol
# GULP energy per Si atom -12399.109525 kJ/mol
# Density = 1.699521 g / cm^3
# Si number density = 17.033976 Si / 1000 Ang^3
#
#
#
# Elastic Constant Matrix: (Units=GPa)
#
#
# Indices 1 2 3 4 5 6 
#
# 1 68.0606 51.1335 49.3069 0.0000 0.0000 0.0000
# 2 51.1335 68.0607 49.3073 0.0000 0.0000 0.0000
# 3 49.3069 49.3073 129.5564 0.0000 0.0000 0.0000
# 4 0.0000 0.0000 0.0000 16.9785 0.0000 0.0000
# 5 0.0000 0.0000 0.0000 0.0000 16.9791 0.0000
# 6 0.0000 0.0000 0.0000 0.0000 0.0000 9.9519
#
#
#
# Elastic Compliance Matrix: (Units=1/GPa)
#
#
# Indices 1 2 3 4 5 6 
#
# 1 0.035661 -0.023416 -0.004660 0.000000 0.000000 0.000000
# 2 -0.023416 0.035661 -0.004661 0.000000 0.000000 0.000000
# 3 -0.004660 -0.004661 0.011266 0.000000 0.000000 0.000000
# 4 0.000000 0.000000 0.000000 0.058898 0.000000 0.000000
# 5 0.000000 0.000000 0.000000 0.000000 0.058896 0.000000
# 6 0.000000 0.000000 0.000000 0.000000 0.000000 0.100483
#
#
# Mechanical properties :
#
#
# Convention : Reuss Voigt Hill
#
# Bulk Modulus (GPa) = 58.42761 62.79702 60.61231
# Shear Modulus (GPa) = 13.43932 16.51058 14.97495
#
# Velocity S-wave (km/s) = 2.81191 3.11669 2.96822
# Velocity P-wave (km/s) = 6.70206 7.06381 6.88531
#
# Compressibility (1/GPa) = 0.01711520
#
# Stress axis : x y z
#
# Youngs Moduli (GPa) = 28.04190 28.04182 88.76258
#
# Poissons Ratio (x) = 0.65661 0.41366
# Poissons Ratio (y) = 0.65662 0.41368
# Poissons Ratio (z) = 0.13068 0.13069
#
# Static dielectric constant tensor:
#      x y z
#    x 2.967140 0.000000 0.000000 
#    y 0.000000 2.967140 0.000000 
#    z 0.000000 0.000000 3.560000 
# 
# 
# High freq. dielectric constant tensor:
#      x y z
#    x 1.622080 0.000000 0.000000 
#    y 0.000000 1.622080 0.000000 
#    z 0.000000 0.000000 1.681960 
# 
# From -- ./inp_files/3860.got.cif
#   From: 2010.03.12/outbox.cif.g09.slc.cpg/sg137_2_cif.got.tgz:3860.got - 2010.04.08 09:34:49.
