data_PCOD8318821
_publ_section_title
;
Structure prediction by ZEFSAII (Michael W. Deem and Ramdas Pophale) SiO2 
 PCOD8318821
Probable space group: P 42/N M C
;
_chemical_formula_sum "Si O2"
_cell_formula_units_Z 40
_cell_length_a 18.108784
_cell_length_b 18.108784
_cell_length_c 4.949769
_cell_angle_alpha 90.000000
_cell_angle_beta 90.000000
_cell_angle_gamma 90.000000
_cell_volume 1623.168136
_symmetry_space_group_name_H-M "P 42/N M C"
_symmetry_group_IT_number 137
_space_group.IT_coordinate_system_code '2'
_symmetry_cell_setting 'tetragonal'
loop_
_space_group_symop_operation_xyz
x,y,z
1/2-y,x,1/2+z
1/2-x,1/2-y,z
y,1/2-x,1/2+z
1/2+x,-y,-z
-x,1/2+y,-z
1/2+y,1/2+x,1/2-z
-y,-x,1/2-z
-x,-y,-z
1/2+y,-x,1/2-z
1/2+x,1/2+y,-z
-y,1/2+x,1/2-z
1/2-x,y,z
x,1/2-y,z
1/2-y,1/2-x,1/2+z
y,x,1/2+z
loop_
_atom_site_type_symbol
_atom_site_label
_atom_site_fract_x
_atom_site_fract_y
_atom_site_fract_z
Si Si1 0.664953 0.055330 0.613172
Si Si2 0.960904 0.460904 0.250000
Si Si3 0.097189 0.333544 0.621370
O O1 0.626090 0.126090 0.750000
O O2 0.750000 0.073522 0.548778
O O3 0.626107 0.031477 0.329449
O O4 0.655991 0.989538 0.829564
O O5 0.000000 0.500000 0.500000
O O6 0.122438 0.250000 0.675888
O O7 0.112718 0.355937 0.313893
#
# Coordination Sequence:
#
# PCOD8318821 Si02
#       3
#    16   8  16
#     4  11  27  48  76 111 151 200 259 321 387 467
#     4  12  24  46  78 113 147 202 260 322 396 466
#     4  11  25  43  69 104 143 187 241 301 370 450
#
# _framework density 24.643163000000001
#
# number of rings (size 3 to 8) (size 9 to 14) (size 15 to 20)
#    0.000    0.800    2.000    3.600    5.600    4.400 
#    0.000    0.000    0.000    0.000    0.000    0.000 
#    0.000    0.000    0.000    0.000    0.000    0.000 
#
# Total GULP energy -495654.768780 kJ/mol
# GULP energy per Si atom -12391.369219 kJ/mol
# Density = 2.458707 g / cm^3
# Si number density = 24.643163 Si / 1000 Ang^3
#
#
#
# Elastic Constant Matrix: (Units=GPa)
#
#
# Indices 1 2 3 4 5 6 
#
# 1 164.3247 83.5393 47.1598 0.0000 0.0000 0.0000
# 2 83.5393 164.3247 47.1598 0.0000 0.0000 0.0000
# 3 47.1598 47.1598 125.1667 0.0000 0.0000 0.0000
# 4 0.0000 0.0000 0.0000 34.9628 0.0000 0.0000
# 5 0.0000 0.0000 0.0000 0.0000 34.9628 0.0000
# 6 0.0000 0.0000 0.0000 0.0000 0.0000 36.0233
#
#
#
# Elastic Compliance Matrix: (Units=1/GPa)
#
#
# Indices 1 2 3 4 5 6 
#
# 1 0.008544 -0.003834 -0.001775 0.000000 0.000000 0.000000
# 2 -0.003834 0.008544 -0.001775 0.000000 0.000000 0.000000
# 3 -0.001775 -0.001775 0.009327 0.000000 0.000000 0.000000
# 4 0.000000 0.000000 0.000000 0.028602 0.000000 0.000000
# 5 0.000000 0.000000 0.000000 0.000000 0.028602 0.000000
# 6 0.000000 0.000000 0.000000 0.000000 0.000000 0.027760
#
#
# Mechanical properties :
#
#
# Convention : Reuss Voigt Hill
#
# Bulk Modulus (GPa) = 85.85211 89.94821 87.90016
# Shear Modulus (GPa) = 38.45334 39.58690 39.02012
#
# Velocity S-wave (km/s) = 3.95448 4.01235 3.98352
# Velocity P-wave (km/s) = 7.46755 7.61871 7.54351
#
# Compressibility (1/GPa) = 0.01164794
#
# Stress axis : x y z
#
# Youngs Moduli (GPa) = 117.03982 117.03982 107.22099
#
# Poissons Ratio (x) = 0.44877 0.19026
# Poissons Ratio (y) = 0.44877 0.19026
# Poissons Ratio (z) = 0.20769 0.20769
#
# Static dielectric constant tensor:
#      x y z
#    x 4.804480 0.000000 0.000000 
#    y 0.000000 4.804480 0.000000 
#    z 0.000000 0.000000 4.435370 
# 
# 
# High freq. dielectric constant tensor:
#      x y z
#    x 1.982740 0.000000 0.000000 
#    y 0.000000 1.982740 0.000000 
#    z 0.000000 0.000000 1.994100 
# 
# From -- ./inp_files/185.got.cif
#   From: 2010.03.12/outbox.cif.g09.slc.cpg/sg137_1_cif.got.tgz:185.got - 2010.04.08 09:34:49.
