data_PCOD8318200
_publ_section_title
;
Structure prediction by ZEFSAII (Michael W. Deem and Ramdas Pophale) SiO2 
 PCOD8318200
Probable space group: P 42/M N M
;
_chemical_formula_sum "Si O2"
_cell_formula_units_Z 96
_cell_length_a 14.997188
_cell_length_b 14.997188
_cell_length_c 20.300824
_cell_angle_alpha 90.000000
_cell_angle_beta 90.000000
_cell_angle_gamma 90.000000
_cell_volume 4565.972983
_symmetry_space_group_name_H-M "P 42/M N M"
_symmetry_group_IT_number 136
_symmetry_cell_setting 'tetragonal'
loop_
_space_group_symop_operation_xyz
x,y,z
1/2-y,1/2+x,1/2+z
-x,-y,z
1/2+y,1/2-x,1/2+z
1/2+x,1/2-y,1/2-z
1/2-x,1/2+y,1/2-z
y,x,-z
-y,-x,-z
-x,-y,-z
1/2+y,1/2-x,1/2-z
x,y,-z
1/2-y,1/2+x,1/2-z
1/2-x,1/2+y,1/2+z
1/2+x,1/2-y,1/2+z
-y,-x,z
y,x,z
loop_
_atom_site_type_symbol
_atom_site_label
_atom_site_fract_x
_atom_site_fract_y
_atom_site_fract_z
Si Si1 0.537994 0.318979 0.663212
Si Si2 0.647727 0.499060 0.000000
Si Si3 0.894022 0.251401 0.251980
Si Si4 0.668100 0.934305 0.073840
Si Si5 0.958243 0.285778 0.610546
Si Si6 0.075009 0.924992 0.071592
Si Si7 0.922594 0.568721 0.332978
O O1 0.598530 0.401471 0.683522
O O2 0.486692 0.293362 0.729205
O O3 0.596529 0.243297 0.626760
O O4 0.462532 0.340004 0.609268
O O5 0.706988 0.503701 0.934294
O O6 0.582822 0.582822 0.000000
O O7 0.593511 0.406489 0.000000
O O8 0.805673 0.194328 0.229488
O O9 0.895390 0.249338 0.330942
O O10 0.900950 0.352916 0.224160
O O11 0.598405 0.854180 0.066446
O O12 0.624767 0.023458 0.104223
O O13 0.704896 0.954062 0.000000
O O14 0.040172 0.337457 0.643259
O O15 0.106528 0.893473 0.000000
O O16 0.000000 0.000000 0.066882
O O17 0.000000 0.500000 0.306845
#
# Coordination Sequence:
#
# PCOD8318200 Si02
#       7
#    16   8  16  16  16   8  16
#     4  10  21  37  58  90 129 172 210 251 313 390
#     4  11  26  48  67  88 120 165 223 276 328 380
#     4  11  24  41  62  95 133 169 218 272 320 383
#     4  10  21  39  64  99 128 159 206 263 321 390
#     4  11  24  42  67  92 125 166 213 271 327 385
#     4   9  16  30  54  82 120 165 201 233 289 374
#     4   9  23  39  70  97 130 169 212 258 328 401
#
# _framework density 21.025091
#
# number of rings (size 3 to 8) (size 9 to 14) (size 15 to 20)
#    0.000    1.833    1.667    1.000    8.167    4.667 
#    0.000    0.000    0.000    0.000    0.000    0.000 
#    0.000    0.000    0.000    0.000    0.000    0.000 
#
# Total GULP energy -1189801.321560 kJ/mol
# GULP energy per Si atom -12393.763766 kJ/mol
# Density = 2.097724 g / cm^3
# Si number density = 21.025091 Si / 1000 Ang^3
#
#
#
# Elastic Constant Matrix: (Units=GPa)
#
#
# Indices 1 2 3 4 5 6 
#
# 1 101.3598 53.9214 36.0223 0.0000 0.0000 0.0000
# 2 53.9214 101.3606 36.0227 0.0000 0.0000 0.0000
# 3 36.0223 36.0227 112.0615 0.0000 0.0000 0.0000
# 4 0.0000 0.0000 0.0000 20.7593 0.0000 0.0000
# 5 0.0000 0.0000 0.0000 0.0000 20.7594 0.0000
# 6 0.0000 0.0000 0.0000 0.0000 0.0000 33.2214
#
#
#
# Elastic Compliance Matrix: (Units=1/GPa)
#
#
# Indices 1 2 3 4 5 6 
#
# 1 0.014324 -0.006756 -0.002433 0.000000 0.000000 0.000000
# 2 -0.006756 0.014324 -0.002433 0.000000 0.000000 0.000000
# 3 -0.002433 -0.002433 0.010488 0.000000 0.000000 0.000000
# 4 0.000000 0.000000 0.000000 0.048171 0.000000 0.000000
# 5 0.000000 0.000000 0.000000 0.000000 0.048171 0.000000
# 6 0.000000 0.000000 0.000000 0.000000 0.000000 0.030101
#
#
# Mechanical properties :
#
#
# Convention : Reuss Voigt Hill
#
# Bulk Modulus (GPa) = 62.91939 62.96831 62.94385
# Shear Modulus (GPa) = 25.75721 27.53571 26.64646
#
# Velocity S-wave (km/s) = 3.50390 3.62285 3.56387
# Velocity P-wave (km/s) = 6.80886 6.89305 6.85109
#
# Compressibility (1/GPa) = 0.01589335
#
# Stress axis : x y z
#
# Youngs Moduli (GPa) = 69.81136 69.81182 95.34830
#
# Poissons Ratio (x) = 0.47162 0.23198
# Poissons Ratio (y) = 0.47161 0.23198
# Poissons Ratio (z) = 0.16985 0.16985
#
# Static dielectric constant tensor:
#      x y z
#    x 3.826860 0.000000 0.000000 
#    y 0.000000 3.826860 0.000000 
#    z 0.000000 0.000000 3.807840 
# 
# 
# High freq. dielectric constant tensor:
#      x y z
#    x 1.818840 0.000000 0.000000 
#    y 0.000000 1.818840 0.000000 
#    z 0.000000 0.000000 1.828920 
# 
# From -- ./inp_files/7538.got.cif
#   From: 2010.03.12/outbox.cif.g09.slc.cpg/sg136_4_cif.got.tgz:7538.got - 2010.04.06 18:39:43.
