data_PCOD8318522
_publ_section_title
;
Structure prediction by ZEFSAII (Michael W. Deem and Ramdas Pophale) SiO2 
 PCOD8318522
Probable space group: P 42/N M C
;
_chemical_formula_sum "Si O2"
_cell_formula_units_Z 64
_cell_length_a 15.369647
_cell_length_b 15.369647
_cell_length_c 13.799872
_cell_angle_alpha 90.000000
_cell_angle_beta 90.000000
_cell_angle_gamma 90.000000
_cell_volume 3259.889238
_symmetry_space_group_name_H-M "P 42/N M C"
_symmetry_group_IT_number 137
_space_group.IT_coordinate_system_code '2'
_symmetry_cell_setting 'tetragonal'
loop_
_space_group_symop_operation_xyz
x,y,z
1/2-y,x,1/2+z
1/2-x,1/2-y,z
y,1/2-x,1/2+z
1/2+x,-y,-z
-x,1/2+y,-z
1/2+y,1/2+x,1/2-z
-y,-x,1/2-z
-x,-y,-z
1/2+y,-x,1/2-z
1/2+x,1/2+y,-z
-y,1/2+x,1/2-z
1/2-x,y,z
x,1/2-y,z
1/2-y,1/2-x,1/2+z
y,x,1/2+z
loop_
_atom_site_type_symbol
_atom_site_label
_atom_site_fract_x
_atom_site_fract_y
_atom_site_fract_z
Si Si1 0.347512 0.154551 0.642459
Si Si2 0.042588 0.417336 0.804630
Si Si3 0.585645 0.149159 0.349964
Si Si4 0.397442 0.502809 0.507964
O O1 0.250000 0.143268 0.682442
O O2 0.360039 0.250000 0.594470
O O3 0.412870 0.150143 0.732633
O O4 0.364310 0.081364 0.563634
O O5 0.115674 0.487505 0.835877
O O6 0.963838 0.463838 0.750000
O O7 0.003593 0.363940 0.896885
O O8 0.638649 0.138649 0.250000
O O9 0.586480 0.250000 0.381852
O O10 0.631337 0.090636 0.434959
O O11 0.500000 0.500000 0.500000
#
# Coordination Sequence:
#
# PCOD8318522 Si02
#       4
#    16  16  16  16
#     4  11  23  38  59  90 125 158 199 253 308 365
#     4  10  19  38  58  82 116 160 203 243 297 363
#     4  10  19  33  57  87 118 153 195 252 307 357
#     4  10  20  37  58  84 118 156 202 243 296 365
#
# _framework density 19.632569
#
# number of rings (size 3 to 8) (size 9 to 14) (size 15 to 20)
#    0.000    1.750    7.500    0.750    0.000    6.250 
#    0.000    2.500    0.000    0.000    0.000    0.000 
#    0.000    2.500    0.000    0.000    0.000    0.000 
#
# Total GULP energy -793143.974962 kJ/mol
# GULP energy per Si atom -12392.874609 kJ/mol
# Density = 1.958788 g / cm^3
# Si number density = 19.632569 Si / 1000 Ang^3
#
#
#
# Elastic Constant Matrix: (Units=GPa)
#
#
# Indices 1 2 3 4 5 6 
#
# 1 101.6815 34.2684 50.0272 0.0000 0.0000 0.0000
# 2 34.2684 101.6815 50.0272 0.0000 0.0000 0.0000
# 3 50.0272 50.0272 159.8464 0.0000 0.0000 0.0000
# 4 0.0000 0.0000 0.0000 10.1109 0.0000 0.0000
# 5 0.0000 0.0000 0.0000 0.0000 10.1109 0.0000
# 6 0.0000 0.0000 0.0000 0.0000 0.0000 20.3042
#
#
#
# Elastic Compliance Matrix: (Units=1/GPa)
#
#
# Indices 1 2 3 4 5 6 
#
# 1 0.012195 -0.002638 -0.002991 0.000000 0.000000 0.000000
# 2 -0.002638 0.012195 -0.002991 0.000000 0.000000 0.000000
# 3 -0.002991 -0.002991 0.008128 0.000000 0.000000 0.000000
# 4 0.000000 0.000000 0.000000 0.098903 0.000000 0.000000
# 5 0.000000 0.000000 0.000000 0.000000 0.098903 0.000000
# 6 0.000000 0.000000 0.000000 0.000000 0.000000 0.049251
#
#
# Mechanical properties :
#
#
# Convention : Reuss Voigt Hill
#
# Bulk Modulus (GPa) = 65.45381 70.20613 67.82997
# Shear Modulus (GPa) = 16.56123 23.36431 19.96277
#
# Velocity S-wave (km/s) = 2.90756 3.45349 3.19222
# Velocity P-wave (km/s) = 6.68458 7.19304 6.94347
#
# Compressibility (1/GPa) = 0.01527795
#
# Stress axis : x y z
#
# Youngs Moduli (GPa) = 81.99788 81.99788 123.02809
#
# Poissons Ratio (x) = 0.21635 0.36798
# Poissons Ratio (y) = 0.21635 0.36798
# Poissons Ratio (z) = 0.24526 0.24526
#
# Static dielectric constant tensor:
#      x y z
#    x 3.402300 0.000000 0.000000 
#    y 0.000000 3.402300 0.000000 
#    z 0.000000 0.000000 4.242230 
# 
# 
# High freq. dielectric constant tensor:
#      x y z
#    x 1.748260 0.000000 0.000000 
#    y 0.000000 1.748260 0.000000 
#    z 0.000000 0.000000 1.768450 
# 
# From -- ./inp_files/4721.got.cif
#   From: 2010.03.12/outbox.cif.g09.slc.cpg/sg137_3_cif.got.tgz:4721.got - 2010.04.08 09:34:49.
