data_PCOD8318999
_publ_section_title
;
Structure prediction by ZEFSAII (Michael W. Deem and Ramdas Pophale) SiO2 
 PCOD8318999
Probable space group: P 42/N C M
;
_chemical_formula_sum "Si O2"
_cell_formula_units_Z 96
_cell_length_a 16.722971
_cell_length_b 16.722971
_cell_length_c 17.698989
_cell_angle_alpha 90.000000
_cell_angle_beta 90.000000
_cell_angle_gamma 90.000000
_cell_volume 4949.659601
_symmetry_space_group_name_H-M "P 42/N C M"
_symmetry_group_IT_number 138
_space_group.IT_coordinate_system_code '2'
_symmetry_cell_setting 'tetragonal'
loop_
_space_group_symop_operation_xyz
x,y,z
1/2-y,x,1/2+z
1/2-x,1/2-y,z
y,1/2-x,1/2+z
1/2+x,-y,1/2-z
-x,1/2+y,1/2-z
1/2+y,1/2+x,-z
-y,-x,-z
-x,-y,-z
1/2+y,-x,1/2-z
1/2+x,1/2+y,-z
-y,1/2+x,1/2-z
1/2-x,y,1/2+z
x,1/2-y,1/2+z
1/2-y,1/2-x,z
y,x,z
loop_
_atom_site_type_symbol
_atom_site_label
_atom_site_fract_x
_atom_site_fract_y
_atom_site_fract_z
Si Si1 0.048083 0.776432 0.354319
Si Si2 0.161545 0.909695 0.353239
Si Si3 0.249905 0.126726 0.900044
Si Si4 0.983775 0.645845 0.004998
Si Si5 0.471750 0.600713 0.803142
Si Si6 0.184365 0.987636 0.807686
O O1 0.138099 0.815372 0.347913
O O2 0.042184 0.679983 0.355131
O O3 0.000809 0.807752 0.281732
O O4 0.012218 0.818134 0.426897
O O5 0.120969 0.961015 0.285444
O O6 0.256636 0.919270 0.342229
O O7 0.131596 0.945221 0.433939
O O8 0.321181 0.178820 0.861302
O O9 0.185078 0.185078 0.937952
O O10 0.285008 0.073999 0.966246
O O11 0.206294 0.074445 0.837507
O O12 0.937880 0.562121 0.992741
O O13 0.558726 0.558726 0.815634
O O14 0.404856 0.537669 0.830282
#
# Coordination Sequence:
#
# PCOD8318999 Si02
#       6
#    16  16  16  16  16  16
#     4  10  21  33  52  82 109 136 172 220 271 311
#     4   9  19  36  55  78 107 140 177 216 264 317
#     4   9  18  34  54  75 104 143 181 216 262 322
#     4  10  20  34  54  80 109 139 173 218 271 321
#     4  10  20  35  56  81 109 140 175 217 264 316
#     4   9  19  35  56  78 102 139 183 220 257 310
#
# _framework density 19.395271999999999
#
# number of rings (size 3 to 8) (size 9 to 14) (size 15 to 20)
#    0.000    2.500    0.000    1.500    0.000   10.000 
#    0.000    6.667    0.000   11.000    0.000    0.000 
#    0.000    0.000    0.000    0.000    0.000    0.000 
#
# Total GULP energy -1189395.087399 kJ/mol
# GULP energy per Si atom -12389.532160 kJ/mol
# Density = 1.935113 g / cm^3
# Si number density = 19.395272 Si / 1000 Ang^3
#
#
#
# Elastic Constant Matrix: (Units=GPa)
#
#
# Indices 1 2 3 4 5 6 
#
# 1 100.3010 49.8956 32.5463 0.0000 0.0000 0.0000
# 2 49.8956 100.3010 32.5463 0.0000 0.0000 0.0000
# 3 32.5463 32.5463 102.4506 0.0000 0.0000 0.0000
# 4 0.0000 0.0000 0.0000 14.0062 0.0000 0.0000
# 5 0.0000 0.0000 0.0000 0.0000 14.0062 0.0000
# 6 0.0000 0.0000 0.0000 0.0000 0.0000 31.9057
#
#
#
# Elastic Compliance Matrix: (Units=1/GPa)
#
#
# Indices 1 2 3 4 5 6 
#
# 1 0.013780 -0.006059 -0.002453 0.000000 0.000000 0.000000
# 2 -0.006059 0.013780 -0.002453 0.000000 0.000000 0.000000
# 3 -0.002453 -0.002453 0.011319 0.000000 0.000000 0.000000
# 4 0.000000 0.000000 0.000000 0.071397 0.000000 0.000000
# 5 0.000000 0.000000 0.000000 0.000000 0.071397 0.000000
# 6 0.000000 0.000000 0.000000 0.000000 0.000000 0.031342
#
#
# Mechanical properties :
#
#
# Convention : Reuss Voigt Hill
#
# Bulk Modulus (GPa) = 58.99718 59.22544 59.11131
# Shear Modulus (GPa) = 20.78186 24.52127 22.65156
#
# Velocity S-wave (km/s) = 3.27691 3.55954 3.42115
# Velocity P-wave (km/s) = 6.69342 6.89174 6.79331
#
# Compressibility (1/GPa) = 0.01694996
#
# Stress axis : x y z
#
# Youngs Moduli (GPa) = 72.56877 72.56877 88.34561
#
# Poissons Ratio (x) = 0.43970 0.21669
# Poissons Ratio (y) = 0.43970 0.21669
# Poissons Ratio (z) = 0.17799 0.17799
#
# Static dielectric constant tensor:
#      x y z
#    x 3.768930 0.000000 0.000000 
#    y 0.000000 3.768930 0.000000 
#    z 0.000000 0.000000 3.371890 
# 
# 
# High freq. dielectric constant tensor:
#      x y z
#    x 1.757160 0.000000 0.000000 
#    y 0.000000 1.757160 0.000000 
#    z 0.000000 0.000000 1.737140 
# 
# From -- ./inp_files/5234.got.cif
#   From: 2010.03.12/outbox.cif.g09.slc.cpg/sg138_3_cif.got.tgz:5234.got - 2010.04.08 09:41:05.
