data_PCOD8318810
_publ_section_title
;
Structure prediction by ZEFSAII (Michael W. Deem and Ramdas Pophale) SiO2 
 PCOD8318810
Probable space group: P 42/N M C
;
_chemical_formula_sum "Si O2"
_cell_formula_units_Z 48
_cell_length_a 7.815460
_cell_length_b 7.815460
_cell_length_c 38.169186
_cell_angle_alpha 90.000000
_cell_angle_beta 90.000000
_cell_angle_gamma 90.000000
_cell_volume 2331.427891
_symmetry_space_group_name_H-M "P 42/N M C"
_symmetry_group_IT_number 137
_space_group.IT_coordinate_system_code '2'
_symmetry_cell_setting 'tetragonal'
loop_
_space_group_symop_operation_xyz
x,y,z
1/2-y,x,1/2+z
1/2-x,1/2-y,z
y,1/2-x,1/2+z
1/2+x,-y,-z
-x,1/2+y,-z
1/2+y,1/2+x,1/2-z
-y,-x,1/2-z
-x,-y,-z
1/2+y,-x,1/2-z
1/2+x,1/2+y,-z
-y,1/2+x,1/2-z
1/2-x,y,z
x,1/2-y,z
1/2-y,1/2-x,1/2+z
y,x,1/2+z
loop_
_atom_site_type_symbol
_atom_site_label
_atom_site_fract_x
_atom_site_fract_y
_atom_site_fract_z
Si Si1 0.750000 0.955136 0.164471
Si Si2 0.439846 0.049892 0.038321
Si Si3 0.439754 0.952501 0.210734
Si Si4 0.446864 0.250000 0.413135
O O1 0.750000 0.750000 0.165473
O O2 0.579578 0.026447 0.183657
O O3 0.750000 0.034008 0.125171
O O4 0.250000 0.970707 0.045723
O O5 0.426433 0.250000 0.040603
O O6 0.577331 0.989605 0.066391
O O7 0.500000 0.000000 0.000000
O O8 0.500164 0.000164 0.250000
O O9 0.250000 0.029619 0.202594
O O10 0.428452 0.750000 0.207547
O O11 0.250000 0.250000 0.405583
#
# Coordination Sequence:
#
# PCOD8318810 Si02
#       4
#     8  16  16   8
#     4   9  18  31  51  81 117 151 191 239 289 350
#     4  11  23  39  62  86 112 151 200 247 295 353
#     4   8  14  27  50  77 106 145 192 237 284 338
#     4  11  23  37  57  89 125 159 193 241 307 365
#
# _framework density 20.588242999999999
#
# number of rings (size 3 to 8) (size 9 to 14) (size 15 to 20)
#    0.000    2.333    1.667    2.500    0.000    3.333 
#    0.000    3.333    7.333    0.000    0.000    0.000 
#    0.000    0.000    0.000    0.000    0.000    0.000 
#
# Total GULP energy -594851.883644 kJ/mol
# GULP energy per Si atom -12392.747576 kJ/mol
# Density = 2.054138 g / cm^3
# Si number density = 20.588243 Si / 1000 Ang^3
#
#
#
# Elastic Constant Matrix: (Units=GPa)
#
#
# Indices 1 2 3 4 5 6 
#
# 1 107.1944 26.0853 66.4471 0.0000 0.0000 0.0000
# 2 26.0853 107.1944 66.4471 0.0000 0.0000 0.0000
# 3 66.4471 66.4471 197.6628 0.0000 0.0000 0.0000
# 4 0.0000 0.0000 0.0000 24.9154 0.0000 0.0000
# 5 0.0000 0.0000 0.0000 0.0000 24.9154 0.0000
# 6 0.0000 0.0000 0.0000 0.0000 0.0000 18.8446
#
#
#
# Elastic Compliance Matrix: (Units=1/GPa)
#
#
# Indices 1 2 3 4 5 6 
#
# 1 0.011808 -0.000522 -0.003794 0.000000 0.000000 0.000000
# 2 -0.000522 0.011808 -0.003794 0.000000 0.000000 0.000000
# 3 -0.003794 -0.003794 0.007610 0.000000 0.000000 0.000000
# 4 0.000000 0.000000 0.000000 0.040136 0.000000 0.000000
# 5 0.000000 0.000000 0.000000 0.000000 0.040136 0.000000
# 6 0.000000 0.000000 0.000000 0.000000 0.000000 0.053066
#
#
# Mechanical properties :
#
#
# Convention : Reuss Voigt Hill
#
# Bulk Modulus (GPa) = 66.63959 81.11227 73.87593
# Shear Modulus (GPa) = 26.91313 30.60657 28.75985
#
# Velocity S-wave (km/s) = 3.61946 3.85983 3.74158
# Velocity P-wave (km/s) = 7.06437 7.70372 7.39096
#
# Compressibility (1/GPa) = 0.01500609
#
# Stress axis : x y z
#
# Youngs Moduli (GPa) = 84.69178 84.69178 131.40797
#
# Poissons Ratio (x) = 0.04417 0.49855
# Poissons Ratio (y) = 0.04417 0.49855
# Poissons Ratio (z) = 0.32132 0.32132
#
# Static dielectric constant tensor:
#      x y z
#    x 4.256550 0.000000 0.000000 
#    y 0.000000 4.256550 0.000000 
#    z 0.000000 0.000000 3.866700 
# 
# 
# High freq. dielectric constant tensor:
#      x y z
#    x 1.798710 0.000000 0.000000 
#    y 0.000000 1.798710 0.000000 
#    z 0.000000 0.000000 1.801500 
# 
# From -- ./inp_files/10022.got.cif
#   From: 2010.03.12/outbox.cif.g09.slc.cpg/sg137_6_cif.got.tgz:10022.got - 2010.04.08 09:34:49.
