data_PCOD8318627
_publ_section_title
;
Structure prediction by ZEFSAII (Michael W. Deem and Ramdas Pophale) SiO2 
 PCOD8318627
Probable space group: P 42/N M C
;
_chemical_formula_sum "Si O2"
_cell_formula_units_Z 80
_cell_length_a 13.702120
_cell_length_b 13.702120
_cell_length_c 21.908600
_cell_angle_alpha 90.000000
_cell_angle_beta 90.000000
_cell_angle_gamma 90.000000
_cell_volume 4113.297859
_symmetry_space_group_name_H-M "P 42/N M C"
_symmetry_group_IT_number 137
_space_group.IT_coordinate_system_code '2'
_symmetry_cell_setting 'tetragonal'
loop_
_space_group_symop_operation_xyz
x,y,z
1/2-y,x,1/2+z
1/2-x,1/2-y,z
y,1/2-x,1/2+z
1/2+x,-y,-z
-x,1/2+y,-z
1/2+y,1/2+x,1/2-z
-y,-x,1/2-z
-x,-y,-z
1/2+y,-x,1/2-z
1/2+x,1/2+y,-z
-y,1/2+x,1/2-z
1/2-x,y,z
x,1/2-y,z
1/2-y,1/2-x,1/2+z
y,x,1/2+z
loop_
_atom_site_type_symbol
_atom_site_label
_atom_site_fract_x
_atom_site_fract_y
_atom_site_fract_z
Si Si1 0.863246 0.141249 0.045799
Si Si2 0.859999 0.987119 0.255754
Si Si3 0.635523 0.028850 0.803873
Si Si4 0.550912 0.137684 0.917624
Si Si5 0.452931 0.141319 0.383080
O O1 0.750000 0.142666 0.029306
O O2 0.897499 0.250000 0.066340
O O3 0.886546 0.065040 0.099857
O O4 0.918926 0.105937 0.985310
O O5 0.750000 0.993543 0.281258
O O6 0.862722 0.938536 0.189172
O O7 0.924932 0.919520 0.299902
O O8 0.904007 0.095994 0.250000
O O9 0.599874 0.099874 0.750000
O O10 0.750000 0.011595 0.797502
O O11 0.610618 0.073929 0.869246
O O12 0.576710 0.250000 0.905564
O O13 0.434775 0.121585 0.912670
O O14 0.428040 0.250000 0.407634
#
# Coordination Sequence:
#
# PCOD8318627 Si02
#       5
#    16  16  16  16  16
#     4   9  19  35  57  85 112 139 179 233 289 342
#     4  10  21  38  58  82 113 149 190 233 279 329
#     4  11  22  37  56  82 116 150 187 231 280 335
#     4  11  21  36  57  84 114 148 190 235 285 338
#     4  10  20  36  56  79 109 147 187 230 283 338
#
# _framework density 19.449114999999999
#
# number of rings (size 3 to 8) (size 9 to 14) (size 15 to 20)
#    0.000    1.800    4.000    1.800    0.000    4.000 
#    0.000    4.000    0.000    0.000    0.000    2.800 
#    0.000    0.000    0.000    0.000    0.000    0.000 
#
# Total GULP energy -992048.287334 kJ/mol
# GULP energy per Si atom -12400.603592 kJ/mol
# Density = 1.940485 g / cm^3
# Si number density = 19.449115 Si / 1000 Ang^3
#
#
#
# Elastic Constant Matrix: (Units=GPa)
#
#
# Indices 1 2 3 4 5 6 
#
# 1 101.6408 35.0873 11.6895 0.0000 0.0000 0.0000
# 2 35.0873 101.6417 11.6909 0.0000 0.0000 0.0000
# 3 11.6895 11.6909 42.3422 0.0000 0.0000 0.0000
# 4 0.0000 0.0000 0.0000 27.5248 0.0000 0.0000
# 5 0.0000 0.0000 0.0000 0.0000 27.5252 0.0000
# 6 0.0000 0.0000 0.0000 0.0000 0.0000 22.4818
#
#
#
# Elastic Compliance Matrix: (Units=1/GPa)
#
#
# Indices 1 2 3 4 5 6 
#
# 1 0.011351 -0.003675 -0.002119 0.000000 0.000000 0.000000
# 2 -0.003675 0.011351 -0.002120 0.000000 0.000000 0.000000
# 3 -0.002119 -0.002120 0.024787 0.000000 0.000000 0.000000
# 4 0.000000 0.000000 0.000000 0.036331 0.000000 0.000000
# 5 0.000000 0.000000 0.000000 0.000000 0.036330 0.000000
# 6 0.000000 0.000000 0.000000 0.000000 0.000000 0.044480
#
#
# Mechanical properties :
#
#
# Convention : Reuss Voigt Hill
#
# Bulk Modulus (GPa) = 31.58315 40.28447 35.93381
# Shear Modulus (GPa) = 26.17649 27.98350 27.08000
#
# Velocity S-wave (km/s) = 3.67263 3.79727 3.73547
# Velocity P-wave (km/s) = 5.85306 6.32325 6.09269
#
# Compressibility (1/GPa) = 0.03166245
#
# Stress axis : x y z
#
# Youngs Moduli (GPa) = 88.09965 88.09973 40.34316
#
# Poissons Ratio (x) = 0.32373 0.08549
# Poissons Ratio (y) = 0.32373 0.08551
# Poissons Ratio (z) = 0.18669 0.18673
#
# Static dielectric constant tensor:
#      x y z
#    x 3.654260 0.000000 0.000000 
#    y 0.000000 3.654270 0.000000 
#    z 0.000000 0.000000 3.427610 
# 
# 
# High freq. dielectric constant tensor:
#      x y z
#    x 1.755400 0.000000 0.000000 
#    y 0.000000 1.755400 0.000000 
#    z 0.000000 0.000000 1.750620 
# 
# From -- ./inp_files/7613.got.cif
#   From: 2010.03.12/outbox.cif.g09.slc.cpg/sg137_4_cif.got.tgz:7613.got - 2010.04.08 09:34:49.
