data_PCOD8318973
_publ_section_title
;
Structure prediction by ZEFSAII (Michael W. Deem and Ramdas Pophale) SiO2 
 PCOD8318973
Probable space group: P 42/N C M
;
_chemical_formula_sum "Si O2"
_cell_formula_units_Z 96
_cell_length_a 21.732428
_cell_length_b 21.732428
_cell_length_c 10.144837
_cell_angle_alpha 90.000000
_cell_angle_beta 90.000000
_cell_angle_gamma 90.000000
_cell_volume 4791.390555
_symmetry_space_group_name_H-M "P 42/N C M"
_symmetry_group_IT_number 138
_space_group.IT_coordinate_system_code '2'
_symmetry_cell_setting 'tetragonal'
loop_
_space_group_symop_operation_xyz
x,y,z
1/2-y,x,1/2+z
1/2-x,1/2-y,z
y,1/2-x,1/2+z
1/2+x,-y,1/2-z
-x,1/2+y,1/2-z
1/2+y,1/2+x,-z
-y,-x,-z
-x,-y,-z
1/2+y,-x,1/2-z
1/2+x,1/2+y,-z
-y,1/2+x,1/2-z
1/2-x,y,1/2+z
x,1/2-y,1/2+z
1/2-y,1/2-x,z
y,x,z
loop_
_atom_site_type_symbol
_atom_site_label
_atom_site_fract_x
_atom_site_fract_y
_atom_site_fract_z
Si Si1 0.644179 0.644179 0.533453
Si Si2 0.006036 0.738637 0.630185
Si Si3 0.988041 0.988041 0.147574
Si Si4 0.301950 0.301950 0.220675
Si Si5 0.924624 0.753333 0.390047
Si Si6 0.371378 0.936912 0.892559
Si Si7 0.384146 0.928411 0.358164
Si Si8 0.553871 0.553871 0.639693
O O1 0.688238 0.688238 0.621487
O O2 0.596828 0.679908 0.440126
O O3 0.606021 0.606021 0.642478
O O4 0.038654 0.802416 0.595266
O O5 0.059755 0.688378 0.646069
O O6 0.960786 0.719917 0.509664
O O7 0.968383 0.741868 0.764764
O O8 0.006286 0.917633 0.180195
O O9 0.035974 0.035974 0.212564
O O10 0.000000 0.000000 0.000000
O O11 0.250000 0.250000 0.201939
O O12 0.364325 0.283788 0.148681
O O13 0.378632 0.906163 0.748836
O O14 0.418775 0.992430 0.927755
O O15 0.383801 0.883801 0.000000
O O16 0.403524 0.903524 0.500000
#
# Coordination Sequence:
#
# PCOD8318973 Si02
#       8
#     8  16   8   8  16  16  16   8
#     4  12  24  41  61  95 131 176 227 273 326 378
#     4  12  25  43  67  98 130 167 225 278 335 403
#     4   8  18  36  60  90 122 166 205 266 342 391
#     4  12  26  41  60  87 137 182 227 265 311 365
#     4  12  25  42  65  94 129 180 224 274 318 381
#     4  11  22  40  65  94 128 169 211 273 341 398
#     4  10  22  39  63  93 129 167 210 270 337 398
#     4  10  19  38  63  92 128 161 219 276 327 395
#
# _framework density 20.035938000000002
#
# number of rings (size 3 to 8) (size 9 to 14) (size 15 to 20)
#    0.000    1.000    4.167    2.250    1.167    4.667 
#    0.000    0.000    0.000    3.000    0.000    0.000 
#    0.000    0.000    0.000    0.000    0.000    0.000 
#
# Total GULP energy -1190019.478615 kJ/mol
# GULP energy per Si atom -12396.036236 kJ/mol
# Density = 1.999033 g / cm^3
# Si number density = 20.035938 Si / 1000 Ang^3
#
#
#
# Elastic Constant Matrix: (Units=GPa)
#
#
# Indices 1 2 3 4 5 6 
#
# 1 96.9381 64.1940 37.0507 0.0000 0.0000 0.0000
# 2 64.1940 96.9381 37.0507 0.0000 0.0000 0.0000
# 3 37.0507 37.0507 119.3051 0.0000 0.0000 0.0000
# 4 0.0000 0.0000 0.0000 27.5278 0.0000 0.0000
# 5 0.0000 0.0000 0.0000 0.0000 27.5278 0.0000
# 6 0.0000 0.0000 0.0000 0.0000 0.0000 36.9360
#
#
#
# Elastic Compliance Matrix: (Units=1/GPa)
#
#
# Indices 1 2 3 4 5 6 
#
# 1 0.018890 -0.011650 -0.002248 0.000000 0.000000 0.000000
# 2 -0.011650 0.018890 -0.002248 0.000000 0.000000 0.000000
# 3 -0.002248 -0.002248 0.009778 0.000000 0.000000 0.000000
# 4 0.000000 0.000000 0.000000 0.036327 0.000000 0.000000
# 5 0.000000 0.000000 0.000000 0.000000 0.036327 0.000000
# 6 0.000000 0.000000 0.000000 0.000000 0.000000 0.027074
#
#
# Mechanical properties :
#
#
# Convention : Reuss Voigt Hill
#
# Bulk Modulus (GPa) = 65.51008 65.53024 65.52016
# Shear Modulus (GPa) = 27.07564 30.05740 28.56652
#
# Velocity S-wave (km/s) = 3.68006 3.87741 3.78003
# Velocity P-wave (km/s) = 7.12913 7.26795 7.19887
#
# Compressibility (1/GPa) = 0.01526483
#
# Stress axis : x y z
#
# Youngs Moduli (GPa) = 52.93808 52.93808 102.26625
#
# Poissons Ratio (x) = 0.61672 0.22994
# Poissons Ratio (y) = 0.61672 0.22994
# Poissons Ratio (z) = 0.11903 0.11903
#
# Static dielectric constant tensor:
#      x y z
#    x 3.242240 0.000000 0.000000 
#    y 0.000000 3.242240 0.000000 
#    z 0.000000 0.000000 3.752190 
# 
# 
# High freq. dielectric constant tensor:
#      x y z
#    x 1.770990 0.000000 0.000000 
#    y 0.000000 1.770990 0.000000 
#    z 0.000000 0.000000 1.797560 
# 
# From -- ./inp_files/3183.got.cif
#   From: 2010.03.12/outbox.cif.g09.slc.cpg/sg138_2_cif.got.tgz:3183.got - 2010.04.08 09:41:05.
