data_PCOD8318672
_publ_section_title
;
Structure prediction by ZEFSAII (Michael W. Deem and Ramdas Pophale) SiO2 
 PCOD8318672
Probable space group: P 42/N M C
;
_chemical_formula_sum "Si O2"
_cell_formula_units_Z 112
_cell_length_a 14.693183
_cell_length_b 14.693183
_cell_length_c 30.258237
_cell_angle_alpha 90.000000
_cell_angle_beta 90.000000
_cell_angle_gamma 90.000000
_cell_volume 6532.439490
_symmetry_space_group_name_H-M "P 42/N M C"
_symmetry_group_IT_number 137
_space_group.IT_coordinate_system_code '2'
_symmetry_cell_setting 'tetragonal'
loop_
_space_group_symop_operation_xyz
x,y,z
1/2-y,x,1/2+z
1/2-x,1/2-y,z
y,1/2-x,1/2+z
1/2+x,-y,-z
-x,1/2+y,-z
1/2+y,1/2+x,1/2-z
-y,-x,1/2-z
-x,-y,-z
1/2+y,-x,1/2-z
1/2+x,1/2+y,-z
-y,1/2+x,1/2-z
1/2-x,y,z
x,1/2-y,z
1/2-y,1/2-x,1/2+z
y,x,1/2+z
loop_
_atom_site_type_symbol
_atom_site_label
_atom_site_fract_x
_atom_site_fract_y
_atom_site_fract_z
Si Si1 0.148391 0.645349 0.063685
Si Si2 0.144219 0.143269 0.559067
Si Si3 0.507259 0.855188 0.368201
Si Si4 0.856625 0.963494 0.525553
Si Si5 0.648372 0.858204 0.205211
Si Si6 0.357983 0.147651 0.392672
Si Si7 0.491908 0.858481 0.269984
O O1 0.250000 0.623152 0.044973
O O2 0.140362 0.750000 0.078262
O O3 0.128026 0.589005 0.107913
O O4 0.072268 0.622887 0.026357
O O5 0.250000 0.124492 0.567726
O O6 0.125590 0.250000 0.549303
O O7 0.103617 0.084502 0.518172
O O8 0.089793 0.106909 0.601771
O O9 0.526944 0.750000 0.361290
O O10 0.505807 0.898539 0.319457
O O11 0.750000 0.942935 0.525043
O O12 0.899484 0.919118 0.570019
O O13 0.750000 0.893222 0.217204
O O14 0.648261 0.750000 0.204972
O O15 0.620277 0.894041 0.156199
O O16 0.577611 0.894308 0.241481
O O17 0.250000 0.140928 0.392673
O O18 0.388868 0.250000 0.404254
O O19 0.481246 0.750000 0.268826
O O20 0.399728 0.899728 0.250000
#
# Coordination Sequence:
#
# PCOD8318672 Si02
#       7
#    16  16  16  16  16  16  16
#     4   9  18  31  45  61  86 123 162 193 218 253
#     4   9  17  30  48  70  95 117 141 183 235 283
#     4   9  19  33  45  63  90 120 155 190 222 267
#     4   9  16  25  43  68  89 116 152 184 223 273
#     4   8  15  28  45  64  87 117 153 193 236 280
#     4   8  13  22  38  62  89 112 139 180 226 272
#     4  10  21  33  47  68  94 125 161 196 231 274
#
# _framework density 17.145202000000001
#
# number of rings (size 3 to 8) (size 9 to 14) (size 15 to 20)
#    0.000    3.143    0.000    1.286    2.000    3.571 
#    0.000    4.286    0.000    0.000    0.000    0.000 
#    0.000    0.286    0.000    0.000    0.000    0.000 
#
# Total GULP energy -1387866.612426 kJ/mol
# GULP energy per Si atom -12391.666182 kJ/mol
# Density = 1.710618 g / cm^3
# Si number density = 17.145202 Si / 1000 Ang^3
#
#
#
# Elastic Constant Matrix: (Units=GPa)
#
#
# Indices 1 2 3 4 5 6 
#
# 1 65.1125 27.0586 50.3554 0.0000 0.0000 0.0000
# 2 27.0586 65.1125 50.3554 0.0000 0.0000 0.0000
# 3 50.3554 50.3554 140.6734 0.0000 0.0000 0.0000
# 4 0.0000 0.0000 0.0000 20.6422 0.0000 0.0000
# 5 0.0000 0.0000 0.0000 0.0000 20.6422 0.0000
# 6 0.0000 0.0000 0.0000 0.0000 0.0000 7.9516
#
#
#
# Elastic Compliance Matrix: (Units=1/GPa)
#
#
# Indices 1 2 3 4 5 6 
#
# 1 0.022049 -0.004230 -0.006378 0.000000 0.000000 0.000000
# 2 -0.004230 0.022049 -0.006378 0.000000 0.000000 0.000000
# 3 -0.006378 -0.006378 0.011675 0.000000 0.000000 0.000000
# 4 0.000000 0.000000 0.000000 0.048444 0.000000 0.000000
# 5 0.000000 0.000000 0.000000 0.000000 0.048444 0.000000
# 6 0.000000 0.000000 0.000000 0.000000 0.000000 0.125760
#
#
# Mechanical properties :
#
#
# Convention : Reuss Voigt Hill
#
# Bulk Modulus (GPa) = 45.87368 58.49302 52.18335
# Shear Modulus (GPa) = 15.64157 19.38914 17.51535
#
# Velocity S-wave (km/s) = 3.02371 3.36650 3.19970
# Velocity P-wave (km/s) = 6.24536 7.02150 6.64477
#
# Compressibility (1/GPa) = 0.02179899
#
# Stress axis : x y z
#
# Youngs Moduli (GPa) = 45.35433 45.35433 85.65255
#
# Poissons Ratio (x) = 0.19184 0.54633
# Poissons Ratio (y) = 0.19184 0.54633
# Poissons Ratio (z) = 0.28929 0.28929
#
# Static dielectric constant tensor:
#      x y z
#    x 3.055700 0.000000 0.000000 
#    y 0.000000 3.055700 0.000000 
#    z 0.000000 0.000000 3.511610 
# 
# 
# High freq. dielectric constant tensor:
#      x y z
#    x 1.635480 0.000000 0.000000 
#    y 0.000000 1.635480 0.000000 
#    z 0.000000 0.000000 1.660640 
# 
# From -- ./inp_files/9851.got.cif
#   From: 2010.03.12/outbox.cif.g09.slc.cpg/sg137_5_cif.got.tgz:9851.got - 2010.04.08 09:34:49.
