data_PCOD8318044
_publ_section_title
;
Structure prediction by ZEFSAII (Michael W. Deem and Ramdas Pophale) SiO2 
 PCOD8318044
Probable space group: P 42/M N M
;
_chemical_formula_sum "Si O2"
_cell_formula_units_Z 96
_cell_length_a 23.995593
_cell_length_b 23.995593
_cell_length_c 8.865659
_cell_angle_alpha 90.000000
_cell_angle_beta 90.000000
_cell_angle_gamma 90.000000
_cell_volume 5104.744350
_symmetry_space_group_name_H-M "P 42/M N M"
_symmetry_group_IT_number 136
_symmetry_cell_setting 'tetragonal'
loop_
_space_group_symop_operation_xyz
x,y,z
1/2-y,1/2+x,1/2+z
-x,-y,z
1/2+y,1/2-x,1/2+z
1/2+x,1/2-y,1/2-z
1/2-x,1/2+y,1/2-z
y,x,-z
-y,-x,-z
-x,-y,-z
1/2+y,1/2-x,1/2-z
x,y,-z
1/2-y,1/2+x,1/2-z
1/2-x,1/2+y,1/2+z
1/2+x,1/2-y,1/2+z
-y,-x,z
y,x,z
loop_
_atom_site_type_symbol
_atom_site_label
_atom_site_fract_x
_atom_site_fract_y
_atom_site_fract_z
Si Si1 0.568502 0.799665 0.679166
Si Si2 0.529176 0.921583 0.680616
Si Si3 0.228138 0.137671 0.174057
Si Si4 0.910116 0.998924 0.324762
Si Si5 0.294070 0.514485 0.678779
Si Si6 0.279779 0.808290 0.178633
O O1 0.568942 0.798344 0.500000
O O2 0.551488 0.861362 0.733245
O O3 0.525112 0.754509 0.743518
O O4 0.629047 0.781779 0.742988
O O5 0.467459 0.929486 0.748702
O O6 0.527145 0.927887 0.500000
O O7 0.171078 0.171078 0.197746
O O8 0.218092 0.076283 0.239561
O O9 0.278004 0.164397 0.267815
O O10 0.246244 0.136579 0.000000
O O11 0.896088 0.993303 0.500000
O O12 0.944254 0.944254 0.270457
O O13 0.853651 0.006541 0.233556
O O14 0.946456 0.053545 0.292645
O O15 0.294778 0.513726 0.500000
O O16 0.224965 0.775036 0.239428
O O17 0.279488 0.808679 0.000000
#
# Coordination Sequence:
#
# PCOD8318044 Si02
#       6
#    16  16  16  16  16  16
#     4   9  20  35  52  78 109 138 172 218 264 309
#     4  10  20  36  56  78 105 137 175 219 267 317
#     4   9  18  32  51  76 104 132 165 212 262 303
#     4   9  19  36  55  76 107 144 177 214 261 309
#     4  10  20  34  53  79 107 136 172 216 264 311
#     4   9  18  34  54  73  97 134 175 210 250 305
#
# _framework density 18.806035000000001
#
# number of rings (size 3 to 8) (size 9 to 14) (size 15 to 20)
#    0.000    2.667    0.000    2.000    2.333    2.667 
#    0.000    7.500    0.000    2.000    0.000    0.000 
#    0.000    0.000    0.000    0.000    0.000    0.000 
#
# Total GULP energy -1190344.218619 kJ/mol
# GULP energy per Si atom -12399.418944 kJ/mol
# Density = 1.876323 g / cm^3
# Si number density = 18.806035 Si / 1000 Ang^3
#
#
#
# Elastic Constant Matrix: (Units=GPa)
#
#
# Indices 1 2 3 4 5 6 
#
# 1 155.1767 88.7172 26.8025 0.0000 0.0000 0.0000
# 2 88.7172 155.1767 26.8025 0.0000 0.0000 0.0000
# 3 26.8025 26.8025 27.3223 0.0000 0.0000 0.0000
# 4 0.0000 0.0000 0.0000 24.3228 0.0000 0.0000
# 5 0.0000 0.0000 0.0000 0.0000 24.3228 0.0000
# 6 0.0000 0.0000 0.0000 0.0000 0.0000 22.6504
#
#
#
# Elastic Compliance Matrix: (Units=1/GPa)
#
#
# Indices 1 2 3 4 5 6 
#
# 1 0.010137 -0.004910 -0.005128 0.000000 0.000000 0.000000
# 2 -0.004910 0.010137 -0.005128 0.000000 0.000000 0.000000
# 3 -0.005128 -0.005128 0.046660 0.000000 0.000000 0.000000
# 4 0.000000 0.000000 0.000000 0.041114 0.000000 0.000000
# 5 0.000000 0.000000 0.000000 0.000000 0.041114 0.000000
# 6 0.000000 0.000000 0.000000 0.000000 0.000000 0.044149
#
#
# Mechanical properties :
#
#
# Convention : Reuss Voigt Hill
#
# Bulk Modulus (GPa) = 27.31950 69.14669 48.23310
# Shear Modulus (GPa) = 21.20058 27.28278 24.24168
#
# Velocity S-wave (km/s) = 3.36121 3.81300 3.59421
# Velocity P-wave (km/s) = 5.44263 7.49890 6.55193
#
# Compressibility (1/GPa) = 0.03660389
#
# Stress axis : x y z
#
# Youngs Moduli (GPa) = 98.64897 98.64897 21.43146
#
# Poissons Ratio (x) = 0.48435 0.10989
# Poissons Ratio (y) = 0.48435 0.10989
# Poissons Ratio (z) = 0.50584 0.50584
#
# Static dielectric constant tensor:
#      x y z
#    x 3.633630 0.000000 0.000000 
#    y 0.000000 3.633630 0.000000 
#    z 0.000000 0.000000 3.166100 
# 
# 
# High freq. dielectric constant tensor:
#      x y z
#    x 1.737430 0.000000 0.000000 
#    y 0.000000 1.737430 0.000000 
#    z 0.000000 0.000000 1.704930 
# 
# From -- ./inp_files/1974.got.cif
#   From: 2010.03.12/outbox.cif.g09.slc.cpg/sg136_1_cif.got.tgz:1974.got - 2010.04.06 18:39:43.
