data_PCOD8318275
_publ_section_title
;
Structure prediction by ZEFSAII (Michael W. Deem and Ramdas Pophale) SiO2 
 PCOD8318275
Probable space group: P 42/M N M
;
_chemical_formula_sum "Si O2"
_cell_formula_units_Z 64
_cell_length_a 10.678782
_cell_length_b 10.678782
_cell_length_c 27.158464
_cell_angle_alpha 90.000000
_cell_angle_beta 90.000000
_cell_angle_gamma 90.000000
_cell_volume 3097.053057
_symmetry_space_group_name_H-M "P 42/M N M"
_symmetry_group_IT_number 136
_symmetry_cell_setting 'tetragonal'
loop_
_space_group_symop_operation_xyz
x,y,z
1/2-y,1/2+x,1/2+z
-x,-y,z
1/2+y,1/2-x,1/2+z
1/2+x,1/2-y,1/2-z
1/2-x,1/2+y,1/2-z
y,x,-z
-y,-x,-z
-x,-y,-z
1/2+y,1/2-x,1/2-z
x,y,-z
1/2-y,1/2+x,1/2-z
1/2-x,1/2+y,1/2+z
1/2+x,1/2-y,1/2+z
-y,-x,z
y,x,z
loop_
_atom_site_type_symbol
_atom_site_label
_atom_site_fract_x
_atom_site_fract_y
_atom_site_fract_z
Si Si1 0.235055 0.566981 0.684286
Si Si2 0.038448 0.766477 0.286430
Si Si3 0.506458 0.704293 0.055364
Si Si4 0.831851 0.363913 0.865278
O O1 0.344052 0.655949 0.661130
O O2 0.292534 0.487314 0.729018
O O3 0.124822 0.645791 0.708400
O O4 0.173358 0.476729 0.643076
O O5 0.109721 0.890280 0.306961
O O6 0.912234 0.738851 0.316280
O O7 0.401198 0.598803 0.059518
O O8 0.640551 0.640551 0.069018
O O9 0.472429 0.817411 0.092861
O O10 0.511877 0.758712 0.000000
O O11 0.762544 0.237457 0.882462
#
# Coordination Sequence:
#
# PCOD8318275 Si02
#       4
#    16  16  16  16
#     4  11  23  37  52  73 107 151 192 231 278 340
#     4  11  22  36  53  74 104 145 190 233 277 333
#     4   8  15  30  53  82 114 144 181 236 295 347
#     4  11  21  33  54  83 110 141 181 232 293 347
#
# _framework density 20.664805999999999
#
# number of rings (size 3 to 8) (size 9 to 14) (size 15 to 20)
#    0.000    1.750    2.500    3.750    0.000    4.500 
#    0.000    0.000    0.000    3.750    0.000    7.000 
#    0.000    0.000    0.000    0.000    0.000    0.000 
#
# Total GULP energy -793290.279797 kJ/mol
# GULP energy per Si atom -12395.160622 kJ/mol
# Density = 2.061777 g / cm^3
# Si number density = 20.664806 Si / 1000 Ang^3
#
#
#
# Elastic Constant Matrix: (Units=GPa)
#
#
# Indices 1 2 3 4 5 6 
#
# 1 85.2045 65.6080 37.2832 0.0000 0.0000 0.0000
# 2 65.6080 85.2045 37.2832 0.0000 0.0000 0.0000
# 3 37.2832 37.2832 104.0777 0.0000 0.0000 0.0000
# 4 0.0000 0.0000 0.0000 19.7170 0.0000 0.0000
# 5 0.0000 0.0000 0.0000 0.0000 19.7170 0.0000
# 6 0.0000 0.0000 0.0000 0.0000 0.0000 37.1839
#
#
#
# Elastic Compliance Matrix: (Units=1/GPa)
#
#
# Indices 1 2 3 4 5 6 
#
# 1 0.029544 -0.021486 -0.002887 0.000000 0.000000 0.000000
# 2 -0.021486 0.029544 -0.002887 0.000000 0.000000 0.000000
# 3 -0.002887 -0.002887 0.011676 0.000000 0.000000 0.000000
# 4 0.000000 0.000000 0.000000 0.050718 0.000000 0.000000
# 5 0.000000 0.000000 0.000000 0.000000 0.050718 0.000000
# 6 0.000000 0.000000 0.000000 0.000000 0.000000 0.026893
#
#
# Mechanical properties :
#
#
# Convention : Reuss Voigt Hill
#
# Bulk Modulus (GPa) = 61.55379 61.64839 61.60109
# Shear Modulus (GPa) = 19.30312 24.27773 21.79042
#
# Velocity S-wave (km/s) = 3.05963 3.43130 3.25078
# Velocity P-wave (km/s) = 6.50640 6.75247 6.63057
#
# Compressibility (1/GPa) = 0.01624595
#
# Stress axis : x y z
#
# Youngs Moduli (GPa) = 33.84816 33.84816 85.64369
#
# Poissons Ratio (x) = 0.72725 0.24722
# Poissons Ratio (y) = 0.72725 0.24722
# Poissons Ratio (z) = 0.09770 0.09770
#
# Static dielectric constant tensor:
#      x y z
#    x 3.723360 0.000000 0.000000 
#    y 0.000000 3.723360 0.000000 
#    z 0.000000 0.000000 3.676610 
# 
# 
# High freq. dielectric constant tensor:
#      x y z
#    x 1.800600 0.000000 0.000000 
#    y 0.000000 1.800600 0.000000 
#    z 0.000000 0.000000 1.772170 
# 
# From -- ./inp_files/8829.got.cif
#   From: 2010.03.12/outbox.cif.g09.slc.cpg/sg136_5_cif.got.tgz:8829.got - 2010.04.06 18:39:43.
