data_PCOD8318425
_publ_section_title
;
Structure prediction by ZEFSAII (Michael W. Deem and Ramdas Pophale) SiO2 
 PCOD8318425
Probable space group: P 42/N M C
;
_chemical_formula_sum "Si O2"
_cell_formula_units_Z 96
_cell_length_a 23.090157
_cell_length_b 23.090157
_cell_length_c 9.923154
_cell_angle_alpha 90.000000
_cell_angle_beta 90.000000
_cell_angle_gamma 90.000000
_cell_volume 5290.582647
_symmetry_space_group_name_H-M "P 42/N M C"
_symmetry_group_IT_number 137
_space_group.IT_coordinate_system_code '2'
_symmetry_cell_setting 'tetragonal'
loop_
_space_group_symop_operation_xyz
x,y,z
1/2-y,x,1/2+z
1/2-x,1/2-y,z
y,1/2-x,1/2+z
1/2+x,-y,-z
-x,1/2+y,-z
1/2+y,1/2+x,1/2-z
-y,-x,1/2-z
-x,-y,-z
1/2+y,-x,1/2-z
1/2+x,1/2+y,-z
-y,1/2+x,1/2-z
1/2-x,y,z
x,1/2-y,z
1/2-y,1/2-x,1/2+z
y,x,1/2+z
loop_
_atom_site_type_symbol
_atom_site_label
_atom_site_fract_x
_atom_site_fract_y
_atom_site_fract_z
Si Si1 0.594576 0.185009 0.287338
Si Si2 0.016578 0.817707 0.482166
Si Si3 0.412881 0.818449 0.221708
Si Si4 0.315304 0.982915 0.528835
Si Si5 0.392930 0.181227 0.423320
Si Si6 0.319073 0.106177 0.612865
O O1 0.652419 0.152419 0.250000
O O2 0.614832 0.250000 0.318329
O O3 0.564457 0.155474 0.416948
O O4 0.547923 0.182490 0.170748
O O5 0.013559 0.750000 0.515396
O O6 0.037378 0.830545 0.331759
O O7 0.953050 0.843259 0.513368
O O8 0.354020 0.854020 0.250000
O O9 0.396173 0.750000 0.215293
O O10 0.442057 0.843721 0.085320
O O11 0.250000 0.992828 0.478803
O O12 0.344172 0.045925 0.550648
O O13 0.389416 0.250000 0.431705
O O14 0.341829 0.157145 0.517398
O O15 0.386053 0.160215 0.268188
O O16 0.250000 0.106213 0.609813
#
# Coordination Sequence:
#
# PCOD8318425 Si02
#       6
#    16  16  16  16  16  16
#     4  10  18  31  53  77 104 138 176 220 270 318
#     4   9  18  34  53  75 104 144 186 216 254 316
#     4  10  20  33  53  81 110 142 182 226 272 322
#     4   9  18  34  53  75 104 144 186 216 254 316
#     4  10  21  37  58  84 112 141 175 218 265 315
#     4  10  21  37  58  84 112 141 175 218 265 315
#
# _framework density 18.145448999999999
#
# number of rings (size 3 to 8) (size 9 to 14) (size 15 to 20)
#    0.000    2.333    1.667    1.000    2.333    1.333 
#    0.000    1.667    0.000   12.000    0.000    0.000 
#    0.000    0.000    0.000    0.000    0.000    0.000 
#
# Total GULP energy -1189911.814323 kJ/mol
# GULP energy per Si atom -12394.914733 kJ/mol
# Density = 1.810415 g / cm^3
# Si number density = 18.145449 Si / 1000 Ang^3
#
#
#
# Elastic Constant Matrix: (Units=GPa)
#
#
# Indices 1 2 3 4 5 6 
#
# 1 53.9627 28.6489 24.8413 0.0000 0.0000 0.0000
# 2 28.6489 53.9627 24.8413 0.0000 0.0000 0.0000
# 3 24.8413 24.8413 90.4189 0.0000 0.0000 0.0000
# 4 0.0000 0.0000 0.0000 26.4900 0.0000 0.0000
# 5 0.0000 0.0000 0.0000 0.0000 26.4900 0.0000
# 6 0.0000 0.0000 0.0000 0.0000 0.0000 7.7676
#
#
#
# Elastic Compliance Matrix: (Units=1/GPa)
#
#
# Indices 1 2 3 4 5 6 
#
# 1 0.027002 -0.012502 -0.003984 0.000000 0.000000 0.000000
# 2 -0.012502 0.027002 -0.003984 0.000000 0.000000 0.000000
# 3 -0.003984 -0.003984 0.013249 0.000000 0.000000 0.000000
# 4 0.000000 0.000000 0.000000 0.037750 0.000000 0.000000
# 5 0.000000 0.000000 0.000000 0.000000 0.037750 0.000000
# 6 0.000000 0.000000 0.000000 0.000000 0.000000 0.128740
#
#
# Mechanical properties :
#
#
# Convention : Reuss Voigt Hill
#
# Bulk Modulus (GPa) = 38.00167 39.44528 38.72347
# Shear Modulus (GPa) = 15.56645 20.15037 17.85841
#
# Velocity S-wave (km/s) = 2.93212 3.33602 3.14057
# Velocity P-wave (km/s) = 5.69661 6.05180 5.87689
#
# Compressibility (1/GPa) = 0.02631463
#
# Stress axis : x y z
#
# Youngs Moduli (GPa) = 37.03371 37.03371 75.47930
#
# Poissons Ratio (x) = 0.46298 0.30070
# Poissons Ratio (y) = 0.46298 0.30070
# Poissons Ratio (z) = 0.14754 0.14754
#
# Static dielectric constant tensor:
#      x y z
#    x 3.228970 0.000000 0.000000 
#    y 0.000000 3.228970 0.000000 
#    z 0.000000 0.000000 3.549420 
# 
# 
# High freq. dielectric constant tensor:
#      x y z
#    x 1.680770 0.000000 0.000000 
#    y 0.000000 1.680770 0.000000 
#    z 0.000000 0.000000 1.723660 
# 
# From -- ./inp_files/2130.got.cif
#   From: 2010.03.12/outbox.cif.g09.slc.cpg/sg137_2_cif.got.tgz:2130.got - 2010.04.08 09:34:49.
