data_PCOD8318139
_publ_section_title
;
Structure prediction by ZEFSAII (Michael W. Deem and Ramdas Pophale) SiO2 
 PCOD8318139
Probable space group: P 42/M N M
;
_chemical_formula_sum "Si O2"
_cell_formula_units_Z 68
_cell_length_a 17.788531
_cell_length_b 17.788531
_cell_length_c 11.359925
_cell_angle_alpha 90.000000
_cell_angle_beta 90.000000
_cell_angle_gamma 90.000000
_cell_volume 3594.641915
_symmetry_space_group_name_H-M "P 42/M N M"
_symmetry_group_IT_number 136
_symmetry_cell_setting 'tetragonal'
loop_
_space_group_symop_operation_xyz
x,y,z
1/2-y,1/2+x,1/2+z
-x,-y,z
1/2+y,1/2-x,1/2+z
1/2+x,1/2-y,1/2-z
1/2-x,1/2+y,1/2-z
y,x,-z
-y,-x,-z
-x,-y,-z
1/2+y,1/2-x,1/2-z
x,y,-z
1/2-y,1/2+x,1/2-z
1/2-x,1/2+y,1/2+z
1/2+x,1/2-y,1/2+z
-y,-x,z
y,x,z
loop_
_atom_site_type_symbol
_atom_site_label
_atom_site_fract_x
_atom_site_fract_y
_atom_site_fract_z
Si Si1 0.500000 0.000000 0.250000
Si Si2 0.155434 0.542077 0.361379
Si Si3 0.787801 0.672167 0.134062
Si Si4 0.291583 0.463756 0.231746
Si Si5 0.941123 0.058878 0.137630
Si Si6 0.999672 0.874250 0.500000
O O1 0.572814 0.989506 0.167639
O O2 0.171112 0.531210 0.500000
O O3 0.162861 0.628087 0.320416
O O4 0.218310 0.502497 0.284136
O O5 0.758511 0.758511 0.146096
O O6 0.730906 0.621704 0.207984
O O7 0.783646 0.644153 0.000000
O O8 0.357913 0.464633 0.325864
O O9 0.320423 0.504237 0.113428
O O10 0.946407 0.053594 0.000000
O O11 0.000000 0.000000 0.196016
O O12 0.076436 0.923565 0.500000
O O13 0.927287 0.927287 0.500000
#
# Coordination Sequence:
#
# PCOD8318139 Si02
#       6
#     4  16  16  16   8   8
#     4  12  22  44  68  94 120 166 224 276 322 380
#     4  11  25  42  65  94 128 164 212 268 325 384
#     4  10  20  38  63  90 117 159 207 255 312 378
#     4  12  21  39  64  93 127 165 210 261 316 379
#     4  11  24  39  61  93 133 174 211 252 319 388
#     4  11  22  38  66  99 130 166 214 268 321 385
#
# _framework density 18.917044000000001
#
# number of rings (size 3 to 8) (size 9 to 14) (size 15 to 20)
#    0.000    0.941    5.882    1.765    0.000    1.882 
#    2.118    2.353    0.000    0.000    0.000    0.000 
#    0.000    0.000    0.000    0.000    0.000    0.000 
#
# Total GULP energy -843187.356573 kJ/mol
# GULP energy per Si atom -12399.814067 kJ/mol
# Density = 1.887399 g / cm^3
# Si number density = 18.917044 Si / 1000 Ang^3
#
#
#
# Elastic Constant Matrix: (Units=GPa)
#
#
# Indices 1 2 3 4 5 6 
#
# 1 124.9421 60.9760 42.2338 0.0000 0.0000 0.0000
# 2 60.9760 124.9425 42.2341 0.0000 0.0000 0.0000
# 3 42.2338 42.2341 84.0166 0.0000 0.0000 0.0000
# 4 0.0000 0.0000 0.0000 21.9626 0.0000 0.0000
# 5 0.0000 0.0000 0.0000 0.0000 21.9625 0.0000
# 6 0.0000 0.0000 0.0000 0.0000 0.0000 33.6270
#
#
#
# Elastic Compliance Matrix: (Units=1/GPa)
#
#
# Indices 1 2 3 4 5 6 
#
# 1 0.011302 -0.004331 -0.003504 0.000000 0.000000 0.000000
# 2 -0.004331 0.011302 -0.003504 0.000000 0.000000 0.000000
# 3 -0.003504 -0.003504 0.015425 0.000000 0.000000 0.000000
# 4 0.000000 0.000000 0.000000 0.045532 0.000000 0.000000
# 5 0.000000 0.000000 0.000000 0.000000 0.045532 0.000000
# 6 0.000000 0.000000 0.000000 0.000000 0.000000 0.029738
#
#
# Mechanical properties :
#
#
# Convention : Reuss Voigt Hill
#
# Bulk Modulus (GPa) = 65.14480 69.42100 67.28290
# Shear Modulus (GPa) = 26.79142 28.07424 27.43283
#
# Velocity S-wave (km/s) = 3.76740 3.85654 3.81223
# Velocity P-wave (km/s) = 7.31001 7.52382 7.41769
#
# Compressibility (1/GPa) = 0.01535042
#
# Stress axis : x y z
#
# Youngs Moduli (GPa) = 88.48017 88.48028 64.82856
#
# Poissons Ratio (x) = 0.38323 0.22716
# Poissons Ratio (y) = 0.38323 0.22717
# Poissons Ratio (z) = 0.31004 0.31004
#
# Static dielectric constant tensor:
#      x y z
#    x 3.580650 0.000000 0.000000 
#    y 0.000000 3.580650 0.000000 
#    z 0.000000 0.000000 3.401140 
# 
# 
# High freq. dielectric constant tensor:
#      x y z
#    x 1.742460 0.000000 0.000000 
#    y 0.000000 1.742460 0.000000 
#    z 0.000000 0.000000 1.732610 
# 
# From -- ./inp_files/3515.got.cif
#   From: 2010.03.12/outbox.cif.g09.slc.cpg/sg136_2_cif.got.tgz:3515.got - 2010.04.06 18:39:43.
