data_PCOD8318671
_publ_section_title
;
Structure prediction by ZEFSAII (Michael W. Deem and Ramdas Pophale) SiO2 
 PCOD8318671
Probable space group: P 42/N M C
;
_chemical_formula_sum "Si O2"
_cell_formula_units_Z 112
_cell_length_a 13.462669
_cell_length_b 13.462669
_cell_length_c 35.642234
_cell_angle_alpha 90.000000
_cell_angle_beta 90.000000
_cell_angle_gamma 90.000000
_cell_volume 6459.921691
_symmetry_space_group_name_H-M "P 42/N M C"
_symmetry_group_IT_number 137
_space_group.IT_coordinate_system_code '2'
_symmetry_cell_setting 'tetragonal'
loop_
_space_group_symop_operation_xyz
x,y,z
1/2-y,x,1/2+z
1/2-x,1/2-y,z
y,1/2-x,1/2+z
1/2+x,-y,-z
-x,1/2+y,-z
1/2+y,1/2+x,1/2-z
-y,-x,1/2-z
-x,-y,-z
1/2+y,-x,1/2-z
1/2+x,1/2+y,-z
-y,1/2+x,1/2-z
1/2-x,y,z
x,1/2-y,z
1/2-y,1/2-x,1/2+z
y,x,1/2+z
loop_
_atom_site_type_symbol
_atom_site_label
_atom_site_fract_x
_atom_site_fract_y
_atom_site_fract_z
Si Si1 0.996669 0.502351 0.659227
Si Si2 0.362028 0.866616 0.707187
Si Si3 0.633436 0.859782 0.015665
Si Si4 0.637157 0.360269 0.705858
Si Si5 0.998662 0.862455 0.451585
Si Si6 0.134197 0.016696 0.413073
Si Si7 0.139185 0.138218 0.618120
O O1 0.925490 0.447437 0.687989
O O2 0.930700 0.538992 0.623964
O O3 0.053446 0.592103 0.679417
O O4 0.081095 0.426031 0.647970
O O5 0.392199 0.892199 0.750000
O O6 0.250000 0.907728 0.698703
O O7 0.361103 0.750000 0.701077
O O8 0.750000 0.857861 0.009866
O O9 0.589875 0.750000 0.004855
O O10 0.609972 0.880592 0.059313
O O11 0.591468 0.949014 0.989462
O O12 0.628844 0.371157 0.750000
O O13 0.750000 0.373515 0.692346
O O14 0.600012 0.250000 0.693475
O O15 0.036213 0.750000 0.457803
O O16 0.093959 0.922009 0.436500
O O17 0.909371 0.867363 0.422387
O O18 0.250000 0.999085 0.402455
O O19 0.250000 0.095860 0.614325
O O20 0.139394 0.250000 0.633564
#
# Coordination Sequence:
#
# PCOD8318671 Si02
#       7
#    16  16  16  16  16  16  16
#     4  11  19  30  49  72  97 128 160 192 237 294
#     4   9  19  36  56  76  96 121 159 206 252 296
#     4   9  17  31  50  68  88 119 160 203 243 283
#     4   9  18  32  49  69  94 126 163 198 231 276
#     4   9  17  30  49  68  88 122 164 201 237 278
#     4  10  21  32  44  69 102 131 159 194 236 284
#     4   9  17  28  43  68  97 119 147 192 242 287
#
# _framework density 17.337669999999999
#
# number of rings (size 3 to 8) (size 9 to 14) (size 15 to 20)
#    0.000    2.571    0.000    3.429    0.000    3.143 
#    0.000    0.000    0.000    2.143    0.000    8.000 
#    0.000    0.000    0.000    0.000    0.000    0.000 
#
# Total GULP energy -1388080.349546 kJ/mol
# GULP energy per Si atom -12393.574550 kJ/mol
# Density = 1.729821 g / cm^3
# Si number density = 17.337670 Si / 1000 Ang^3
#
#
#
# Elastic Constant Matrix: (Units=GPa)
#
#
# Indices 1 2 3 4 5 6 
#
# 1 67.8336 31.0891 42.6987 0.0000 0.0000 0.0000
# 2 31.0891 67.8337 42.6986 0.0000 0.0000 0.0000
# 3 42.6987 42.6986 80.4153 0.0000 0.0000 0.0000
# 4 0.0000 0.0000 0.0000 27.9994 0.0000 0.0000
# 5 0.0000 0.0000 0.0000 0.0000 27.9995 0.0000
# 6 0.0000 0.0000 0.0000 0.0000 0.0000 28.0431
#
#
#
# Elastic Compliance Matrix: (Units=1/GPa)
#
#
# Indices 1 2 3 4 5 6 
#
# 1 0.022940 -0.004275 -0.009910 0.000000 0.000000 0.000000
# 2 -0.004275 0.022939 -0.009910 0.000000 0.000000 0.000000
# 3 -0.009910 -0.009910 0.022960 0.000000 0.000000 0.000000
# 4 0.000000 0.000000 0.000000 0.035715 0.000000 0.000000
# 5 0.000000 0.000000 0.000000 0.000000 0.035715 0.000000
# 6 0.000000 0.000000 0.000000 0.000000 0.000000 0.035659
#
#
# Mechanical properties :
#
#
# Convention : Reuss Voigt Hill
#
# Bulk Modulus (GPa) = 48.43316 49.89504 49.16410
# Shear Modulus (GPa) = 21.64484 23.44815 22.54649
#
# Velocity S-wave (km/s) = 3.53714 3.68154 3.61007
# Velocity P-wave (km/s) = 6.68414 6.84927 6.76721
#
# Compressibility (1/GPa) = 0.02064701
#
# Stress axis : x y z
#
# Youngs Moduli (GPa) = 43.59283 43.59295 43.55475
#
# Poissons Ratio (x) = 0.18638 0.43164
# Poissons Ratio (y) = 0.18638 0.43163
# Poissons Ratio (z) = 0.43201 0.43201
#
# Static dielectric constant tensor:
#      x y z
#    x 3.254880 0.000000 0.000000 
#    y 0.000000 3.254870 0.000000 
#    z 0.000000 0.000000 3.233860 
# 
# 
# High freq. dielectric constant tensor:
#      x y z
#    x 1.664180 0.000000 0.000000 
#    y 0.000000 1.664180 0.000000 
#    z 0.000000 0.000000 1.670020 
# 
# From -- ./inp_files/10703.got.cif
#   From: 2010.03.12/outbox.cif.g09.slc.cpg/sg137_6_cif.got.tgz:10703.got - 2010.04.08 09:34:49.
