data_PCOD8318610
_publ_section_title
;
Structure prediction by ZEFSAII (Michael W. Deem and Ramdas Pophale) SiO2 
 PCOD8318610
Probable space group: P 42/N M C
;
_chemical_formula_sum "Si O2"
_cell_formula_units_Z 112
_cell_length_a 14.333707
_cell_length_b 14.333707
_cell_length_c 27.543552
_cell_angle_alpha 90.000000
_cell_angle_beta 90.000000
_cell_angle_gamma 90.000000
_cell_volume 5658.964783
_symmetry_space_group_name_H-M "P 42/N M C"
_symmetry_group_IT_number 137
_space_group.IT_coordinate_system_code '2'
_symmetry_cell_setting 'tetragonal'
loop_
_space_group_symop_operation_xyz
x,y,z
1/2-y,x,1/2+z
1/2-x,1/2-y,z
y,1/2-x,1/2+z
1/2+x,-y,-z
-x,1/2+y,-z
1/2+y,1/2+x,1/2-z
-y,-x,1/2-z
-x,-y,-z
1/2+y,-x,1/2-z
1/2+x,1/2+y,-z
-y,1/2+x,1/2-z
1/2-x,y,z
x,1/2-y,z
1/2-y,1/2-x,1/2+z
y,x,1/2+z
loop_
_atom_site_type_symbol
_atom_site_label
_atom_site_fract_x
_atom_site_fract_y
_atom_site_fract_z
Si Si1 0.145086 0.968742 0.370257
Si Si2 0.140947 0.859226 0.891111
Si Si3 0.350917 0.400729 0.286277
Si Si4 0.643671 0.859182 0.389323
Si Si5 0.051209 0.850235 0.709534
Si Si6 0.979364 0.995451 0.443832
Si Si7 0.001124 0.855741 0.310360
O O1 0.250000 0.931167 0.385153
O O2 0.093367 0.905011 0.330389
O O3 0.160195 0.063536 0.341025
O O4 0.079447 0.985975 0.416814
O O5 0.250000 0.870339 0.901310
O O6 0.111865 0.750000 0.891343
O O7 0.110927 0.907600 0.840594
O O8 0.087524 0.919570 0.931179
O O9 0.250000 0.352717 0.272297
O O10 0.439757 0.333318 0.289287
O O11 0.371784 0.482842 0.246854
O O12 0.750000 0.896377 0.386682
O O13 0.642215 0.750000 0.399617
O O14 0.592859 0.887720 0.339021
O O15 0.586743 0.907063 0.432985
O O16 0.074960 0.925041 0.750000
O O17 0.098200 0.750000 0.720444
O O18 0.000000 0.000000 0.500000
O O19 0.021450 0.750000 0.322892
#
# Coordination Sequence:
#
# PCOD8318610 Si02
#       7
#    16  16  16  16  16  16  16
#     4  10  20  35  54  78 112 152 196 242 290 347
#     4  10  22  41  63  89 122 157 196 243 296 356
#     4  10  20  35  55  81 118 160 199 236 284 345
#     4   9  19  36  58  86 117 146 183 236 294 352
#     4  11  22  36  58  88 124 162 200 240 287 348
#     4  11  23  39  62  85 112 150 196 249 306 354
#     4   9  18  32  52  81 115 152 191 235 286 344
#
# _framework density 19.791606999999999
#
# number of rings (size 3 to 8) (size 9 to 14) (size 15 to 20)
#    0.000    2.000    1.429    2.143    2.000    3.571 
#    0.000    1.429    0.000    3.000    0.000    0.000 
#    0.000    0.000    0.000    0.000    0.000    0.000 
#
# Total GULP energy -1387511.771933 kJ/mol
# GULP energy per Si atom -12388.497964 kJ/mol
# Density = 1.974656 g / cm^3
# Si number density = 19.791607 Si / 1000 Ang^3
#
#
#
# Elastic Constant Matrix: (Units=GPa)
#
#
# Indices 1 2 3 4 5 6 
#
# 1 122.2241 36.5400 46.4341 0.0000 0.0000 0.0000
# 2 36.5400 122.2245 46.4332 0.0000 0.0000 0.0000
# 3 46.4341 46.4332 127.2122 0.0000 0.0000 0.0000
# 4 0.0000 0.0000 0.0000 21.4981 0.0000 0.0000
# 5 0.0000 0.0000 0.0000 0.0000 21.4982 0.0000
# 6 0.0000 0.0000 0.0000 0.0000 0.0000 23.5079
#
#
#
# Elastic Compliance Matrix: (Units=1/GPa)
#
#
# Indices 1 2 3 4 5 6 
#
# 1 0.009840 -0.001831 -0.002923 0.000000 0.000000 0.000000
# 2 -0.001831 0.009840 -0.002923 0.000000 0.000000 0.000000
# 3 -0.002923 -0.002923 0.009995 0.000000 0.000000 0.000000
# 4 0.000000 0.000000 0.000000 0.046516 0.000000 0.000000
# 5 0.000000 0.000000 0.000000 0.000000 0.046515 0.000000
# 6 0.000000 0.000000 0.000000 0.000000 0.000000 0.042539
#
#
# Mechanical properties :
#
#
# Convention : Reuss Voigt Hill
#
# Bulk Modulus (GPa) = 69.83646 70.05282 69.94464
# Shear Modulus (GPa) = 26.97275 29.45108 28.21191
#
# Velocity S-wave (km/s) = 3.69567 3.86172 3.77961
# Velocity P-wave (km/s) = 7.31937 7.44016 7.38001
#
# Compressibility (1/GPa) = 0.01431917
#
# Stress axis : x y z
#
# Youngs Moduli (GPa) = 101.62917 101.63022 100.05137
#
# Poissons Ratio (x) = 0.18610 0.29248
# Poissons Ratio (y) = 0.18609 0.29246
# Poissons Ratio (z) = 0.29709 0.29708
#
# Static dielectric constant tensor:
#      x y z
#    x 3.763830 0.000000 0.000000 
#    y 0.000000 3.763830 0.000000 
#    z 0.000000 0.000000 3.392130 
# 
# 
# High freq. dielectric constant tensor:
#      x y z
#    x 1.778640 0.000000 0.000000 
#    y 0.000000 1.778640 0.000000 
#    z 0.000000 0.000000 1.744730 
# 
# From -- ./inp_files/9823.got.cif
#   From: 2010.03.12/outbox.cif.g09.slc.cpg/sg137_5_cif.got.tgz:9823.got - 2010.04.08 09:34:49.
