data_PCOD8318819
_publ_section_title
;
Structure prediction by ZEFSAII (Michael W. Deem and Ramdas Pophale) SiO2 
 PCOD8318819
Probable space group: P 42/N M C
;
_chemical_formula_sum "Si O2"
_cell_formula_units_Z 96
_cell_length_a 13.248872
_cell_length_b 13.248872
_cell_length_c 22.098880
_cell_angle_alpha 90.000000
_cell_angle_beta 90.000000
_cell_angle_gamma 90.000000
_cell_volume 3879.074068
_symmetry_space_group_name_H-M "P 42/N M C"
_symmetry_group_IT_number 137
_space_group.IT_coordinate_system_code '2'
_symmetry_cell_setting 'tetragonal'
loop_
_space_group_symop_operation_xyz
x,y,z
1/2-y,x,1/2+z
1/2-x,1/2-y,z
y,1/2-x,1/2+z
1/2+x,-y,-z
-x,1/2+y,-z
1/2+y,1/2+x,1/2-z
-y,-x,1/2-z
-x,-y,-z
1/2+y,-x,1/2-z
1/2+x,1/2+y,-z
-y,1/2+x,1/2-z
1/2-x,y,z
x,1/2-y,z
1/2-y,1/2-x,1/2+z
y,x,1/2+z
loop_
_atom_site_type_symbol
_atom_site_label
_atom_site_fract_x
_atom_site_fract_y
_atom_site_fract_z
Si Si1 0.442202 0.367677 0.686615
Si Si2 0.059835 0.635928 0.861267
Si Si3 0.865877 0.360588 0.879372
Si Si4 0.868552 0.639905 0.559531
Si Si5 0.450077 0.869048 0.994446
Si Si6 0.132576 0.439342 0.810429
O O1 0.423811 0.250000 0.670306
O O2 0.363335 0.438443 0.650077
O O3 0.553076 0.408227 0.665523
O O4 0.431767 0.386742 0.757878
O O5 0.100643 0.750000 0.851845
O O6 0.112639 0.560286 0.813683
O O7 0.086818 0.592305 0.928719
O O8 0.750000 0.349874 0.863389
O O9 0.918076 0.250000 0.868662
O O10 0.875172 0.392453 0.950126
O O11 0.750000 0.647324 0.549169
O O12 0.919149 0.750000 0.550259
O O13 0.916839 0.560435 0.511795
O O14 0.887061 0.598134 0.627170
O O15 0.464696 0.750000 0.986073
O O16 0.250000 0.419824 0.797067
#
# Coordination Sequence:
#
# PCOD8318819 Si02
#       6
#    16  16  16  16  16  16
#     4  11  24  42  66  94 125 164 209 261 320 377
#     4  11  25  43  63  92 128 167 212 261 317 378
#     4   9  19  38  66  99 132 166 204 248 305 376
#     4   9  18  34  59  90 122 160 206 256 312 372
#     4   9  19  37  61  90 129 168 203 254 312 370
#     4  11  24  42  64  90 122 164 218 271 315 368
#
# _framework density 24.748173999999999
#
# number of rings (size 3 to 8) (size 9 to 14) (size 15 to 20)
#    0.000    2.000    0.000    2.500    0.000    6.333 
#    0.000   11.667    0.000    3.000    0.000    4.667 
#    0.000    0.000    0.000    0.000    0.000    0.000 
#
# Total GULP energy -1189981.258243 kJ/mol
# GULP energy per Si atom -12395.638107 kJ/mol
# Density = 2.469185 g / cm^3
# Si number density = 24.748174 Si / 1000 Ang^3
#
#
#
# Elastic Constant Matrix: (Units=GPa)
#
#
# Indices 1 2 3 4 5 6 
#
# 1 53.7761 -3.2712 13.2118 0.0000 0.0000 0.0000
# 2 -3.2712 53.7761 13.2118 0.0000 0.0000 0.0000
# 3 13.2118 13.2118 102.3471 0.0000 0.0000 0.0000
# 4 0.0000 0.0000 0.0000 37.4287 0.0000 0.0000
# 5 0.0000 0.0000 0.0000 0.0000 37.4287 0.0000
# 6 0.0000 0.0000 0.0000 0.0000 0.0000 26.2823
#
#
#
# Elastic Compliance Matrix: (Units=1/GPa)
#
#
# Indices 1 2 3 4 5 6 
#
# 1 0.019382 0.001852 -0.002741 0.000000 0.000000 0.000000
# 2 0.001852 0.019382 -0.002741 0.000000 0.000000 0.000000
# 3 -0.002741 -0.002741 0.010478 0.000000 0.000000 0.000000
# 4 0.000000 0.000000 0.000000 0.026717 0.000000 0.000000
# 5 0.000000 0.000000 0.000000 0.000000 0.026717 0.000000
# 6 0.000000 0.000000 0.000000 0.000000 0.000000 0.038048
#
#
# Mechanical properties :
#
#
# Convention : Reuss Voigt Hill
#
# Bulk Modulus (GPa) = 23.81951 28.46711 26.14331
# Shear Modulus (GPa) = 30.86825 32.67774 31.77299
#
# Velocity S-wave (km/s) = 3.53554 3.63769 3.58698
# Velocity P-wave (km/s) = 5.12956 5.40105 5.26705
#
# Compressibility (1/GPa) = 0.04198239
#
# Stress axis : x y z
#
# Youngs Moduli (GPa) = 51.59495 51.59495 95.43484
#
# Poissons Ratio (x) = -0.09558 0.26159
# Poissons Ratio (y) = -0.09558 0.26159
# Poissons Ratio (z) = 0.14143 0.14143
#
# Static dielectric constant tensor:
#      x y z
#    x 4.607700 0.000000 0.000000 
#    y 0.000000 4.607700 0.000000 
#    z 0.000000 0.000000 4.489000 
# 
# 
# High freq. dielectric constant tensor:
#      x y z
#    x 1.986700 0.000000 0.000000 
#    y 0.000000 1.986700 0.000000 
#    z 0.000000 0.000000 1.978530 
# 
# From -- ./inp_files/7823.got.cif
#   From: 2010.03.12/outbox.cif.g09.slc.cpg/sg137_4_cif.got.tgz:7823.got - 2010.04.08 09:34:49.
