data_PCOD8318111
_publ_section_title
;
Structure prediction by ZEFSAII (Michael W. Deem and Ramdas Pophale) SiO2 
 PCOD8318111
Probable space group: P 42/M N M
;
_chemical_formula_sum "Si O2"
_cell_formula_units_Z 64
_cell_length_a 14.767944
_cell_length_b 14.767944
_cell_length_c 14.225235
_cell_angle_alpha 90.000000
_cell_angle_beta 90.000000
_cell_angle_gamma 90.000000
_cell_volume 3102.412370
_symmetry_space_group_name_H-M "P 42/M N M"
_symmetry_group_IT_number 136
_symmetry_cell_setting 'tetragonal'
loop_
_space_group_symop_operation_xyz
x,y,z
1/2-y,1/2+x,1/2+z
-x,-y,z
1/2+y,1/2-x,1/2+z
1/2+x,1/2-y,1/2-z
1/2-x,1/2+y,1/2-z
y,x,-z
-y,-x,-z
-x,-y,-z
1/2+y,1/2-x,1/2-z
x,y,-z
1/2-y,1/2+x,1/2-z
1/2-x,1/2+y,1/2+z
1/2+x,1/2-y,1/2+z
-y,-x,z
y,x,z
loop_
_atom_site_type_symbol
_atom_site_label
_atom_site_fract_x
_atom_site_fract_y
_atom_site_fract_z
Si Si1 0.421691 0.935688 0.105643
Si Si2 0.103024 0.306156 0.897101
Si Si3 0.602393 0.255905 0.800915
Si Si4 0.419633 0.274597 0.107099
O O1 0.395891 0.848699 0.167270
O O2 0.500000 0.000000 0.149752
O O3 0.333381 0.998082 0.101954
O O4 0.449784 0.903653 0.000000
O O5 0.115130 0.236691 0.811737
O O6 0.168855 0.393298 0.880990
O O7 0.128098 0.263344 0.000000
O O8 0.684373 0.315628 0.845475
O O9 0.506643 0.298802 0.830342
O O10 0.335413 0.335413 0.141972
O O11 0.444492 0.297189 0.000000
#
# Coordination Sequence:
#
# PCOD8318111 Si02
#       4
#    16  16  16  16
#     4  10  20  36  60  89 118 154 195 243 309 370
#     4  10  21  38  60  85 116 157 203 248 299 362
#     4  12  24  36  58  92 125 158 201 254 306 362
#     4  10  21  39  62  87 118 157 201 249 305 370
#
# _framework density 20.629109
#
# number of rings (size 3 to 8) (size 9 to 14) (size 15 to 20)
#    0.000    1.500    2.500    3.000    0.000    4.000 
#    0.000    1.250    0.000    2.250    0.000    1.750 
#    0.000    0.000    0.000    0.000    0.000    0.000 
#
# Total GULP energy -793230.968484 kJ/mol
# GULP energy per Si atom -12394.233883 kJ/mol
# Density = 2.058216 g / cm^3
# Si number density = 20.629109 Si / 1000 Ang^3
#
#
#
# Elastic Constant Matrix: (Units=GPa)
#
#
# Indices 1 2 3 4 5 6 
#
# 1 91.7017 69.7202 43.9289 0.0000 0.0000 0.0000
# 2 69.7202 91.7017 43.9289 0.0000 0.0000 0.0000
# 3 43.9289 43.9289 114.0166 0.0000 0.0000 0.0000
# 4 0.0000 0.0000 0.0000 17.1594 0.0000 0.0000
# 5 0.0000 0.0000 0.0000 0.0000 17.1594 0.0000
# 6 0.0000 0.0000 0.0000 0.0000 0.0000 36.5831
#
#
#
# Elastic Compliance Matrix: (Units=1/GPa)
#
#
# Indices 1 2 3 4 5 6 
#
# 1 0.026666 -0.018827 -0.003020 0.000000 0.000000 0.000000
# 2 -0.018827 0.026666 -0.003020 0.000000 0.000000 0.000000
# 3 -0.003020 -0.003020 0.011098 0.000000 0.000000 0.000000
# 4 0.000000 0.000000 0.000000 0.058277 0.000000 0.000000
# 5 0.000000 0.000000 0.000000 0.000000 0.058277 0.000000
# 6 0.000000 0.000000 0.000000 0.000000 0.000000 0.027335
#
#
# Mechanical properties :
#
#
# Convention : Reuss Voigt Hill
#
# Bulk Modulus (GPa) = 68.05144 68.06401 68.05772
# Shear Modulus (GPa) = 19.01489 23.50316 21.25902
#
# Velocity S-wave (km/s) = 3.03933 3.37904 3.21368
# Velocity P-wave (km/s) = 6.73620 6.94908 6.84347
#
# Compressibility (1/GPa) = 0.01469477
#
# Stress axis : x y z
#
# Youngs Moduli (GPa) = 37.50125 37.50125 90.10722
#
# Poissons Ratio (x) = 0.70604 0.27214
# Poissons Ratio (y) = 0.70604 0.27214
# Poissons Ratio (z) = 0.11326 0.11326
#
# Static dielectric constant tensor:
#      x y z
#    x 3.525040 0.000000 0.000000 
#    y 0.000000 3.525040 0.000000 
#    z 0.000000 0.000000 3.930970 
# 
# 
# High freq. dielectric constant tensor:
#      x y z
#    x 1.788800 0.000000 0.000000 
#    y 0.000000 1.788800 0.000000 
#    z 0.000000 0.000000 1.810580 
# 
# From -- ./inp_files/4691.got.cif
#   From: 2010.03.12/outbox.cif.g09.slc.cpg/sg136_3_cif.got.tgz:4691.got - 2010.04.06 18:39:43.
