data_PCOD8318630
_publ_section_title
;
Structure prediction by ZEFSAII (Michael W. Deem and Ramdas Pophale) SiO2 
 PCOD8318630
Probable space group: P 42/N M C
;
_chemical_formula_sum "Si O2"
_cell_formula_units_Z 72
_cell_length_a 17.749332
_cell_length_b 17.749332
_cell_length_c 11.502531
_cell_angle_alpha 90.000000
_cell_angle_beta 90.000000
_cell_angle_gamma 90.000000
_cell_volume 3623.743407
_symmetry_space_group_name_H-M "P 42/N M C"
_symmetry_group_IT_number 137
_space_group.IT_coordinate_system_code '2'
_symmetry_cell_setting 'tetragonal'
loop_
_space_group_symop_operation_xyz
x,y,z
1/2-y,x,1/2+z
1/2-x,1/2-y,z
y,1/2-x,1/2+z
1/2+x,-y,-z
-x,1/2+y,-z
1/2+y,1/2+x,1/2-z
-y,-x,1/2-z
-x,-y,-z
1/2+y,-x,1/2-z
1/2+x,1/2+y,-z
-y,1/2+x,1/2-z
1/2-x,y,z
x,1/2-y,z
1/2-y,1/2-x,1/2+z
y,x,1/2+z
loop_
_atom_site_type_symbol
_atom_site_label
_atom_site_fract_x
_atom_site_fract_y
_atom_site_fract_z
Si Si1 0.911875 0.432552 0.050684
Si Si2 0.475777 0.334586 0.640810
Si Si3 0.164324 0.335859 0.991075
Si Si4 0.534248 0.912702 0.129697
Si Si5 0.838129 0.161872 0.250000
O O1 0.949673 0.498185 0.127981
O O2 0.874999 0.371126 0.133719
O O3 0.848873 0.469321 0.967804
O O4 0.975088 0.391794 0.971957
O O5 0.488198 0.250000 0.685142
O O6 0.389193 0.348579 0.602885
O O7 0.497673 0.391973 0.743394
O O8 0.250000 0.344333 0.945134
O O9 0.146997 0.250000 0.027816
O O10 0.109186 0.362364 0.888116
O O11 0.750000 0.144336 0.247888
#
# Coordination Sequence:
#
# PCOD8318630 Si02
#       5
#    16  16  16  16   8
#     4  10  23  39  61  86 118 152 195 252 303 353
#     4  10  20  36  58  85 118 156 194 239 294 352
#     4   9  19  34  51  81 124 163 198 235 281 347
#     4  10  21  36  60  88 120 156 198 242 298 362
#     4  11  26  46  66  88 116 156 206 257 306 356
#
# _framework density 19.868957999999999
#
# number of rings (size 3 to 8) (size 9 to 14) (size 15 to 20)
#    0.000    2.111    0.000    2.000    9.333    3.556 
#    0.000    2.222    0.000    0.000    0.000    3.111 
#    0.000    0.000    0.000    0.000    0.000    0.000 
#
# Total GULP energy -892961.493956 kJ/mol
# GULP energy per Si atom -12402.242972 kJ/mol
# Density = 1.982374 g / cm^3
# Si number density = 19.868958 Si / 1000 Ang^3
#
#
#
# Elastic Constant Matrix: (Units=GPa)
#
#
# Indices 1 2 3 4 5 6 
#
# 1 73.5289 28.0623 32.0484 0.0000 0.0000 0.0000
# 2 28.0623 73.5304 32.0484 0.0000 0.0000 0.0000
# 3 32.0484 32.0484 100.3310 0.0000 0.0000 0.0000
# 4 0.0000 0.0000 0.0000 28.0860 0.0000 0.0000
# 5 0.0000 0.0000 0.0000 0.0000 28.0866 0.0000
# 6 0.0000 0.0000 0.0000 0.0000 0.0000 29.1841
#
#
#
# Elastic Compliance Matrix: (Units=1/GPa)
#
#
# Indices 1 2 3 4 5 6 
#
# 1 0.017161 -0.004833 -0.003938 0.000000 0.000000 0.000000
# 2 -0.004833 0.017161 -0.003938 0.000000 0.000000 0.000000
# 3 -0.003938 -0.003938 0.012483 0.000000 0.000000 0.000000
# 4 0.000000 0.000000 0.000000 0.035605 0.000000 0.000000
# 5 0.000000 0.000000 0.000000 0.000000 0.035604 0.000000
# 6 0.000000 0.000000 0.000000 0.000000 0.000000 0.034265
#
#
# Mechanical properties :
#
#
# Convention : Reuss Voigt Hill
#
# Bulk Modulus (GPa) = 46.75747 47.96761 47.36254
# Shear Modulus (GPa) = 27.05261 27.42006 27.23634
#
# Velocity S-wave (km/s) = 3.69392 3.71893 3.70645
# Velocity P-wave (km/s) = 6.46355 6.52954 6.49663
#
# Compressibility (1/GPa) = 0.02138696
#
# Stress axis : x y z
#
# Youngs Moduli (GPa) = 58.27176 58.27303 80.11083
#
# Poissons Ratio (x) = 0.28163 0.31547
# Poissons Ratio (y) = 0.28163 0.31546
# Poissons Ratio (z) = 0.22947 0.22947
#
# Static dielectric constant tensor:
#      x y z
#    x 3.648390 0.000000 0.000000 
#    y 0.000000 3.648360 0.000000 
#    z 0.000000 0.000000 3.401300 
# 
# 
# High freq. dielectric constant tensor:
#      x y z
#    x 1.774870 0.000000 0.000000 
#    y 0.000000 1.774870 0.000000 
#    z 0.000000 0.000000 1.769090 
# 
# From -- ./inp_files/3470.got.cif
#   From: 2010.03.12/outbox.cif.g09.slc.cpg/sg137_2_cif.got.tgz:3470.got - 2010.04.08 09:34:49.
