data_PCOD8318916
_publ_section_title
;
Structure prediction by ZEFSAII (Michael W. Deem and Ramdas Pophale) SiO2 
 PCOD8318916
Probable space group: P 42/N C M
;
_chemical_formula_sum "Si O2"
_cell_formula_units_Z 96
_cell_length_a 21.772465
_cell_length_b 21.772465
_cell_length_c 10.004328
_cell_angle_alpha 90.000000
_cell_angle_beta 90.000000
_cell_angle_gamma 90.000000
_cell_volume 4742.453968
_symmetry_space_group_name_H-M "P 42/N C M"
_symmetry_group_IT_number 138
_space_group.IT_coordinate_system_code '2'
_symmetry_cell_setting 'tetragonal'
loop_
_space_group_symop_operation_xyz
x,y,z
1/2-y,x,1/2+z
1/2-x,1/2-y,z
y,1/2-x,1/2+z
1/2+x,-y,1/2-z
-x,1/2+y,1/2-z
1/2+y,1/2+x,-z
-y,-x,-z
-x,-y,-z
1/2+y,-x,1/2-z
1/2+x,1/2+y,-z
-y,1/2+x,1/2-z
1/2-x,y,1/2+z
x,1/2-y,1/2+z
1/2-y,1/2-x,z
y,x,z
loop_
_atom_site_type_symbol
_atom_site_label
_atom_site_fract_x
_atom_site_fract_y
_atom_site_fract_z
Si Si1 0.149646 0.248074 0.591150
Si Si2 0.799830 0.366286 0.105899
Si Si3 0.157150 0.615475 0.356053
Si Si4 0.129459 0.517010 0.934742
Si Si5 0.077496 0.518932 0.208698
Si Si6 0.302238 0.404687 0.336861
O O1 0.197120 0.302881 0.573988
O O2 0.185528 0.185528 0.627121
O O3 0.099666 0.261662 0.704278
O O4 0.111751 0.243206 0.456226
O O5 0.730146 0.386290 0.128006
O O6 0.829947 0.355995 0.251227
O O7 0.809042 0.309042 0.000000
O O8 0.833512 0.421652 0.030510
O O9 0.128246 0.628246 0.500000
O O10 0.127531 0.550051 0.308363
O O11 0.111190 0.489177 0.079023
O O12 0.070636 0.530546 0.843488
O O13 0.172892 0.472893 0.850205
O O14 0.036049 0.463952 0.275604
O O15 0.358854 0.358854 0.331692
#
# Coordination Sequence:
#
# PCOD8318916 Si02
#       6
#    16  16  16  16  16  16
#     4   9  18  33  52  79 116 154 193 243 305 368
#     4  11  22  43  63  92 127 164 210 247 315 378
#     4  11  24  38  64  96 126 163 203 262 315 370
#     4  10  19  37  62  86 111 161 209 252 291 370
#     4  10  20  39  63  87 119 160 207 252 302 371
#     4  10  19  32  54  82 110 151 202 248 298 355
#
# _framework density 20.242685000000002
#
# number of rings (size 3 to 8) (size 9 to 14) (size 15 to 20)
#    0.000    1.833    3.333    3.500    0.000    5.667 
#    3.000    0.000    0.000    1.000    0.000    0.000 
#    0.000    0.000    0.000    0.000    0.000    0.000 
#
# Total GULP energy -1189949.604793 kJ/mol
# GULP energy per Si atom -12395.308383 kJ/mol
# Density = 2.019661 g / cm^3
# Si number density = 20.242685 Si / 1000 Ang^3
#
#
#
# Elastic Constant Matrix: (Units=GPa)
#
#
# Indices 1 2 3 4 5 6 
#
# 1 66.6804 42.5029 15.2071 0.0000 0.0000 0.0000
# 2 42.5029 66.6804 15.2071 0.0000 0.0000 0.0000
# 3 15.2071 15.2071 53.4159 0.0000 0.0000 0.0000
# 4 0.0000 0.0000 0.0000 22.6973 0.0000 0.0000
# 5 0.0000 0.0000 0.0000 0.0000 22.6973 0.0000
# 6 0.0000 0.0000 0.0000 0.0000 0.0000 24.1407
#
#
#
# Elastic Compliance Matrix: (Units=1/GPa)
#
#
# Indices 1 2 3 4 5 6 
#
# 1 0.025654 -0.015706 -0.002832 0.000000 0.000000 0.000000
# 2 -0.015706 0.025654 -0.002832 0.000000 0.000000 0.000000
# 3 -0.002832 -0.002832 0.020334 0.000000 0.000000 0.000000
# 4 0.000000 0.000000 0.000000 0.044058 0.000000 0.000000
# 5 0.000000 0.000000 0.000000 0.000000 0.044058 0.000000
# 6 0.000000 0.000000 0.000000 0.000000 0.000000 0.041424
#
#
# Mechanical properties :
#
#
# Convention : Reuss Voigt Hill
#
# Bulk Modulus (GPa) = 34.60096 36.95676 35.77886
# Shear Modulus (GPa) = 19.71942 21.49769 20.60855
#
# Velocity S-wave (km/s) = 3.12452 3.26237 3.19419
# Velocity P-wave (km/s) = 5.49063 5.69975 5.59617
#
# Compressibility (1/GPa) = 0.02890093
#
# Stress axis : x y z
#
# Youngs Moduli (GPa) = 38.97981 38.97981 49.17978
#
# Poissons Ratio (x) = 0.61224 0.13928
# Poissons Ratio (y) = 0.61224 0.13928
# Poissons Ratio (z) = 0.11039 0.11039
#
# Static dielectric constant tensor:
#      x y z
#    x 3.677210 0.000000 0.000000 
#    y 0.000000 3.677210 0.000000 
#    z 0.000000 0.000000 3.819650 
# 
# 
# High freq. dielectric constant tensor:
#      x y z
#    x 1.785580 0.000000 0.000000 
#    y 0.000000 1.785580 0.000000 
#    z 0.000000 0.000000 1.785380 
# 
# From -- ./inp_files/1736.got.cif
#   From: 2010.03.12/outbox.cif.g09.slc.cpg/sg138_1_cif.got.tgz:1736.got - 2010.04.08 09:41:05.
