data_PCOD8318097
_publ_section_title
;
Structure prediction by ZEFSAII (Michael W. Deem and Ramdas Pophale) SiO2 
 PCOD8318097
Probable space group: P 42/M N M
;
_chemical_formula_sum "Si O2"
_cell_formula_units_Z 120
_cell_length_a 26.039026
_cell_length_b 26.039026
_cell_length_c 9.083225
_cell_angle_alpha 90.000000
_cell_angle_beta 90.000000
_cell_angle_gamma 90.000000
_cell_volume 6158.706995
_symmetry_space_group_name_H-M "P 42/M N M"
_symmetry_group_IT_number 136
_symmetry_cell_setting 'tetragonal'
loop_
_space_group_symop_operation_xyz
x,y,z
1/2-y,1/2+x,1/2+z
-x,-y,z
1/2+y,1/2-x,1/2+z
1/2+x,1/2-y,1/2-z
1/2-x,1/2+y,1/2-z
y,x,-z
-y,-x,-z
-x,-y,-z
1/2+y,1/2-x,1/2-z
x,y,-z
1/2-y,1/2+x,1/2-z
1/2-x,1/2+y,1/2+z
1/2+x,1/2-y,1/2+z
-y,-x,z
y,x,z
loop_
_atom_site_type_symbol
_atom_site_label
_atom_site_fract_x
_atom_site_fract_y
_atom_site_fract_z
Si Si1 0.041502 0.041502 0.674727
Si Si2 0.689195 0.844821 0.327784
Si Si3 0.889745 0.594777 0.168637
Si Si4 0.002843 0.151783 0.672726
Si Si5 0.815949 0.097964 0.835459
Si Si6 0.667722 0.751029 0.838447
Si Si7 0.352483 0.002797 0.168803
Si Si8 0.550914 0.240817 0.171410
O O1 0.040439 0.040439 0.500000
O O2 0.028198 0.098896 0.731128
O O3 0.000000 0.000000 0.736181
O O4 0.686870 0.834992 0.500000
O O5 0.632724 0.856209 0.266955
O O6 0.703904 0.792035 0.246571
O O7 0.729557 0.889651 0.287753
O O8 0.881678 0.538755 0.234075
O O9 0.948706 0.610379 0.181212
O O10 0.871119 0.596442 0.000000
O O11 0.991901 0.148335 0.500000
O O12 0.040124 0.199775 0.709483
O O13 0.949032 0.158453 0.751724
O O14 0.856530 0.143471 0.841620
O O15 0.763954 0.116339 0.752585
O O16 0.800321 0.081042 0.000000
O O17 0.699890 0.699890 0.858633
O O18 0.651623 0.771976 0.000000
O O19 0.295830 0.014224 0.233251
O O20 0.345949 0.985074 0.000000
O O21 0.540906 0.228631 0.000000
#
# Coordination Sequence:
#
# PCOD8318097 Si02
#       8
#     8  16  16  16  16  16  16  16
#     4   9  18  34  59  89 119 151 191 235 281 339
#     4  10  20  36  56  79 108 144 185 231 284 336
#     4  10  21  36  55  78 108 146 187 231 283 339
#     4  10  20  36  59  86 114 150 192 234 283 338
#     4  10  21  36  55  83 117 148 183 229 281 336
#     4  10  21  37  57  82 111 145 183 223 274 334
#     4  10  21  36  55  80 108 146 189 235 286 338
#     4   9  20  37  55  80 112 146 187 235 283 336
#
# _framework density 19.484608000000001
#
# number of rings (size 3 to 8) (size 9 to 14) (size 15 to 20)
#    0.000    2.200    0.000    2.400    1.867    5.067 
#    1.200    1.667    0.000    1.200    0.000    0.000 
#    0.000    0.000    0.000    0.000    0.000    0.000 
#
# Total GULP energy -1487912.943776 kJ/mol
# GULP energy per Si atom -12399.274531 kJ/mol
# Density = 1.944026 g / cm^3
# Si number density = 19.484608 Si / 1000 Ang^3
#
#
#
# Elastic Constant Matrix: (Units=GPa)
#
#
# Indices 1 2 3 4 5 6 
#
# 1 97.1103 44.7080 42.7378 0.0000 0.0000 0.0000
# 2 44.7080 97.1103 42.7378 0.0000 0.0000 0.0000
# 3 42.7378 42.7378 94.0718 0.0000 0.0000 0.0000
# 4 0.0000 0.0000 0.0000 28.0480 0.0000 0.0000
# 5 0.0000 0.0000 0.0000 0.0000 28.0480 0.0000
# 6 0.0000 0.0000 0.0000 0.0000 0.0000 20.8329
#
#
#
# Elastic Compliance Matrix: (Units=1/GPa)
#
#
# Indices 1 2 3 4 5 6 
#
# 1 0.014397 -0.004687 -0.004411 0.000000 0.000000 0.000000
# 2 -0.004687 0.014397 -0.004411 0.000000 0.000000 0.000000
# 3 -0.004411 -0.004411 0.014638 0.000000 0.000000 0.000000
# 4 0.000000 0.000000 0.000000 0.035653 0.000000 0.000000
# 5 0.000000 0.000000 0.000000 0.000000 0.035653 0.000000
# 6 0.000000 0.000000 0.000000 0.000000 0.000000 0.048001
#
#
# Mechanical properties :
#
#
# Convention : Reuss Voigt Hill
#
# Bulk Modulus (GPa) = 60.92711 60.96217 60.94464
# Shear Modulus (GPa) = 25.61101 25.92638 25.76870
#
# Velocity S-wave (km/s) = 3.62943 3.65171 3.64059
# Velocity P-wave (km/s) = 6.99292 7.00965 7.00129
#
# Compressibility (1/GPa) = 0.01641305
#
# Stress axis : x y z
#
# Youngs Moduli (GPa) = 69.46088 69.46088 68.31324
#
# Poissons Ratio (x) = 0.32553 0.30136
# Poissons Ratio (y) = 0.32553 0.30136
# Poissons Ratio (z) = 0.30642 0.30642
#
# Static dielectric constant tensor:
#      x y z
#    x 3.561010 0.000000 0.000000 
#    y 0.000000 3.561010 0.000000 
#    z 0.000000 0.000000 3.751610 
# 
# 
# High freq. dielectric constant tensor:
#      x y z
#    x 1.755630 0.000000 0.000000 
#    y 0.000000 1.755630 0.000000 
#    z 0.000000 0.000000 1.762250 
# 
# From -- ./inp_files/2350.got.cif
#   From: 2010.03.12/outbox.cif.g09.slc.cpg/sg136_2_cif.got.tgz:2350.got - 2010.04.06 18:39:43.
