data_PCOD8318809
_publ_section_title
;
Structure prediction by ZEFSAII (Michael W. Deem and Ramdas Pophale) SiO2 
 PCOD8318809
Probable space group: P 42/N M C
;
_chemical_formula_sum "Si O2"
_cell_formula_units_Z 42
_cell_length_a 7.933659
_cell_length_b 7.933659
_cell_length_c 30.921430
_cell_angle_alpha 90.000000
_cell_angle_beta 90.000000
_cell_angle_gamma 90.000000
_cell_volume 1946.285872
_symmetry_space_group_name_H-M "P 42/N M C"
_symmetry_group_IT_number 137
_space_group.IT_coordinate_system_code '2'
_symmetry_cell_setting 'tetragonal'
loop_
_space_group_symop_operation_xyz
x,y,z
1/2-y,x,1/2+z
1/2-x,1/2-y,z
y,1/2-x,1/2+z
1/2+x,-y,-z
-x,1/2+y,-z
1/2+y,1/2+x,1/2-z
-y,-x,1/2-z
-x,-y,-z
1/2+y,-x,1/2-z
1/2+x,1/2+y,-z
-y,1/2+x,1/2-z
1/2-x,y,z
x,1/2-y,z
1/2-y,1/2-x,1/2+z
y,x,1/2+z
loop_
_atom_site_type_symbol
_atom_site_label
_atom_site_fract_x
_atom_site_fract_y
_atom_site_fract_z
Si Si1 0.938281 0.557776 0.634898
Si Si2 0.436816 0.250000 0.186611
Si Si3 0.946060 0.556891 0.953003
Si Si4 0.250000 0.750000 0.750000
O O1 0.750000 0.499360 0.649171
O O2 0.967996 0.750000 0.649007
O O3 0.082165 0.446769 0.657373
O O4 0.949786 0.543913 0.583016
O O5 0.250000 0.250000 0.207936
O O6 0.579183 0.250000 0.222771
O O7 0.750000 0.524581 0.946549
O O8 0.995951 0.750000 0.946468
O O9 0.000000 0.500000 0.000000
#
# Coordination Sequence:
#
# PCOD8318809 Si02
#       4
#    16   8  16   2
#     4  11  23  42  70 102 139 186 236 287 354 425
#     4  12  26  48  78 108 142 186 232 292 362 432
#     4  11  23  37  56  89 133 183 239 294 345 408
#     4  12  28  52  76 112 148 180 236 300 368 428
#
# _framework density 21.579566
#
# number of rings (size 3 to 8) (size 9 to 14) (size 15 to 20)
#    0.000    0.762    3.810    3.429    0.000   11.429 
#    0.000    0.000    0.000    0.000    0.000    0.000 
#    0.000    0.000    0.000    0.000    0.000    0.000 
#
# Total GULP energy -520925.901049 kJ/mol
# GULP energy per Si atom -12402.997644 kJ/mol
# Density = 2.153045 g / cm^3
# Si number density = 21.579566 Si / 1000 Ang^3
#
#
#
# Elastic Constant Matrix: (Units=GPa)
#
#
# Indices 1 2 3 4 5 6 
#
# 1 129.9449 62.7305 38.2970 0.0000 0.0000 0.0000
# 2 62.7305 129.9449 38.2970 0.0000 0.0000 0.0000
# 3 38.2970 38.2970 100.1426 0.0000 0.0000 0.0000
# 4 0.0000 0.0000 0.0000 29.2147 0.0000 0.0000
# 5 0.0000 0.0000 0.0000 0.0000 29.2147 0.0000
# 6 0.0000 0.0000 0.0000 0.0000 0.0000 22.9214
#
#
#
# Elastic Compliance Matrix: (Units=1/GPa)
#
#
# Indices 1 2 3 4 5 6 
#
# 1 0.010499 -0.004379 -0.002341 0.000000 0.000000 0.000000
# 2 -0.004379 0.010499 -0.002341 0.000000 0.000000 0.000000
# 3 -0.002341 -0.002341 0.011776 0.000000 0.000000 0.000000
# 4 0.000000 0.000000 0.000000 0.034229 0.000000 0.000000
# 5 0.000000 0.000000 0.000000 0.000000 0.034229 0.000000
# 6 0.000000 0.000000 0.000000 0.000000 0.000000 0.043627
#
#
# Mechanical properties :
#
#
# Convention : Reuss Voigt Hill
#
# Bulk Modulus (GPa) = 68.23839 70.96459 69.60149
# Shear Modulus (GPa) = 29.78584 30.98403 30.38493
#
# Velocity S-wave (km/s) = 3.71924 3.79331 3.75646
# Velocity P-wave (km/s) = 7.08054 7.22095 7.15109
#
# Compressibility (1/GPa) = 0.01465451
#
# Stress axis : x y z
#
# Youngs Moduli (GPa) = 95.24572 95.24572 84.91847
#
# Poissons Ratio (x) = 0.41704 0.19876
# Poissons Ratio (y) = 0.41704 0.19876
# Poissons Ratio (z) = 0.22294 0.22294
#
# Static dielectric constant tensor:
#      x y z
#    x 4.030500 0.000000 0.000000 
#    y 0.000000 4.030500 0.000000 
#    z 0.000000 0.000000 3.719030 
# 
# 
# High freq. dielectric constant tensor:
#      x y z
#    x 1.859150 0.000000 0.000000 
#    y 0.000000 1.859150 0.000000 
#    z 0.000000 0.000000 1.831480 
# 
# From -- ./inp_files/9963.got.cif
#   From: 2010.03.12/outbox.cif.g09.slc.cpg/sg137_5_cif.got.tgz:9963.got - 2010.04.08 09:34:49.
