data_PCOD8318646
_publ_section_title
;
Structure prediction by ZEFSAII (Michael W. Deem and Ramdas Pophale) SiO2 
 PCOD8318646
Probable space group: P 42/N M C
;
_chemical_formula_sum "Si O2"
_cell_formula_units_Z 92
_cell_length_a 25.302294
_cell_length_b 25.302294
_cell_length_c 8.394391
_cell_angle_alpha 90.000000
_cell_angle_beta 90.000000
_cell_angle_gamma 90.000000
_cell_volume 5374.140170
_symmetry_space_group_name_H-M "P 42/N M C"
_symmetry_group_IT_number 137
_space_group.IT_coordinate_system_code '2'
_symmetry_cell_setting 'tetragonal'
loop_
_space_group_symop_operation_xyz
x,y,z
1/2-y,x,1/2+z
1/2-x,1/2-y,z
y,1/2-x,1/2+z
1/2+x,-y,-z
-x,1/2+y,-z
1/2+y,1/2+x,1/2-z
-y,-x,1/2-z
-x,-y,-z
1/2+y,-x,1/2-z
1/2+x,1/2+y,-z
-y,1/2+x,1/2-z
1/2-x,y,z
x,1/2-y,z
1/2-y,1/2-x,1/2+z
y,x,1/2+z
loop_
_atom_site_type_symbol
_atom_site_label
_atom_site_fract_x
_atom_site_fract_y
_atom_site_fract_z
Si Si1 0.406070 0.042417 0.627333
Si Si2 0.033978 0.309052 0.699310
Si Si3 0.621557 0.847278 0.076686
Si Si4 0.993784 0.414314 0.813688
Si Si5 0.063322 0.309889 0.340655
Si Si6 0.250000 0.339182 0.576511
Si Si7 0.250000 0.250000 0.825075
O O1 0.395754 0.089602 0.501477
O O2 0.455836 0.055330 0.737336
O O3 0.418911 0.993553 0.507810
O O4 0.352324 0.032920 0.728712
O O5 0.018041 0.250000 0.758017
O O6 0.091994 0.323584 0.768814
O O7 0.992655 0.352398 0.764964
O O8 0.033959 0.309844 0.509303
O O9 0.675713 0.874360 0.136213
O O10 0.626374 0.803273 0.938057
O O11 0.940243 0.440243 0.750000
O O12 0.063244 0.250000 0.267462
O O13 0.250000 0.303631 0.729027
O O14 0.250000 0.303862 0.419023
#
# Coordination Sequence:
#
# PCOD8318646 Si02
#       7
#    16  16  16  16  16   8   4
#     4  11  21  34  50  74  97 125 173 216 264 309
#     4  10  20  37  52  71  99 130 164 209 260 312
#     4  11  21  33  50  66  91 128 177 215 262 307
#     4  11  21  36  56  76 100 129 166 213 264 313
#     4  11  22  32  51  70  98 136 177 219 260 301
#     4  11  26  34  46  56  82 122 166 226 271 309
#     4  10  28  38  36  58  84 114 172 230 284 292
#
# _framework density 17.119016999999999
#
# number of rings (size 3 to 8) (size 9 to 14) (size 15 to 20)
#    0.000    1.217    6.087    0.522    8.522    0.696 
#    0.000    0.000    0.000    0.000    0.000    0.000 
#    0.000    0.348    0.000    0.000    0.000    4.174 
#
# Total GULP energy -1140371.344198 kJ/mol
# GULP energy per Si atom -12395.340698 kJ/mol
# Density = 1.708005 g / cm^3
# Si number density = 17.119017 Si / 1000 Ang^3
#
#
#
# Elastic Constant Matrix: (Units=GPa)
#
#
# Indices 1 2 3 4 5 6 
#
# 1 53.5280 32.7996 12.5970 0.0000 0.0000 0.0000
# 2 32.7996 53.5280 12.5970 0.0000 0.0000 0.0000
# 3 12.5970 12.5970 68.6682 0.0000 0.0000 0.0000
# 4 0.0000 0.0000 0.0000 21.4162 0.0000 0.0000
# 5 0.0000 0.0000 0.0000 0.0000 21.4162 0.0000
# 6 0.0000 0.0000 0.0000 0.0000 0.0000 74.5451
#
#
#
# Elastic Compliance Matrix: (Units=1/GPa)
#
#
# Indices 1 2 3 4 5 6 
#
# 1 0.030241 -0.018002 -0.002245 0.000000 0.000000 0.000000
# 2 -0.018002 0.030241 -0.002245 0.000000 0.000000 0.000000
# 3 -0.002245 -0.002245 0.015387 0.000000 0.000000 0.000000
# 4 0.000000 0.000000 0.000000 0.046694 0.000000 0.000000
# 5 0.000000 0.000000 0.000000 0.000000 0.046694 0.000000
# 6 0.000000 0.000000 0.000000 0.000000 0.000000 0.013415
#
#
# Mechanical properties :
#
#
# Convention : Reuss Voigt Hill
#
# Bulk Modulus (GPa) = 32.37950 32.41237 32.39594
# Shear Modulus (GPa) = 21.01281 31.32421 26.16851
#
# Velocity S-wave (km/s) = 3.50731 4.28225 3.91400
# Velocity P-wave (km/s) = 5.94617 6.58975 6.27622
#
# Compressibility (1/GPa) = 0.03088374
#
# Stress axis : x y z
#
# Youngs Moduli (GPa) = 33.06757 33.06757 64.99190
#
# Poissons Ratio (x) = 0.59529 0.14592
# Poissons Ratio (y) = 0.59529 0.14592
# Poissons Ratio (z) = 0.07424 0.07424
#
# Static dielectric constant tensor:
#      x y z
#    x 3.058710 0.000000 0.000000 
#    y 0.000000 3.058710 0.000000 
#    z 0.000000 0.000000 3.525810 
# 
# 
# High freq. dielectric constant tensor:
#      x y z
#    x 1.619260 0.000000 0.000000 
#    y 0.000000 1.619260 0.000000 
#    z 0.000000 0.000000 1.695540 
# 
# From -- ./inp_files/2302.got.cif
#   From: 2010.03.12/outbox.cif.g09.slc.cpg/sg137_2_cif.got.tgz:2302.got - 2010.04.08 09:34:49.
