data_PCOD8318171
_publ_section_title
;
Structure prediction by ZEFSAII (Michael W. Deem and Ramdas Pophale) SiO2 
 PCOD8318171
Probable space group: P 42/M N M
;
_chemical_formula_sum "Si O2"
_cell_formula_units_Z 96
_cell_length_a 24.122094
_cell_length_b 24.122094
_cell_length_c 8.558264
_cell_angle_alpha 90.000000
_cell_angle_beta 90.000000
_cell_angle_gamma 90.000000
_cell_volume 4979.843450
_symmetry_space_group_name_H-M "P 42/M N M"
_symmetry_group_IT_number 136
_symmetry_cell_setting 'tetragonal'
loop_
_space_group_symop_operation_xyz
x,y,z
1/2-y,1/2+x,1/2+z
-x,-y,z
1/2+y,1/2-x,1/2+z
1/2+x,1/2-y,1/2-z
1/2-x,1/2+y,1/2-z
y,x,-z
-y,-x,-z
-x,-y,-z
1/2+y,1/2-x,1/2-z
x,y,-z
1/2-y,1/2+x,1/2-z
1/2-x,1/2+y,1/2+z
1/2+x,1/2-y,1/2+z
-y,-x,z
y,x,z
loop_
_atom_site_type_symbol
_atom_site_label
_atom_site_fract_x
_atom_site_fract_y
_atom_site_fract_z
Si Si1 0.442236 0.062221 0.684602
Si Si2 0.848201 0.936627 0.682081
Si Si3 0.061579 0.850636 0.322015
Si Si4 0.856999 0.349351 0.317078
Si Si5 0.732018 0.643231 0.680533
Si Si6 0.145416 0.232999 0.183460
O O1 0.503641 0.077904 0.744680
O O2 0.444439 0.056047 0.500000
O O3 0.399616 0.110629 0.729162
O O4 0.834656 0.931783 0.500000
O O5 0.903932 0.903932 0.726286
O O6 0.796263 0.912157 0.775541
O O7 0.856892 0.999129 0.736776
O O8 0.064972 0.828159 0.500000
O O9 0.088792 0.911209 0.310984
O O10 0.091917 0.808762 0.206207
O O11 0.861373 0.362394 0.500000
O O12 0.869829 0.285098 0.286203
O O13 0.795016 0.357988 0.248191
O O14 0.749373 0.646057 0.500000
O O15 0.700300 0.700300 0.731018
O O16 0.197192 0.197192 0.254721
O O17 0.153413 0.236803 0.000000
#
# Coordination Sequence:
#
# PCOD8318171 Si02
#       6
#    16  16  16  16  16  16
#     4  11  23  42  64  86 114 146 181 223 273 325
#     4   9  18  32  51  76 105 138 178 224 270 315
#     4   9  18  33  52  74 104 143 183 223 269 321
#     4  11  22  37  59  85 110 142 184 224 268 328
#     4  10  21  36  54  79 111 144 180 227 280 329
#     4   9  19  35  54  77 107 142 177 217 267 321
#
# _framework density 19.277712999999999
#
# number of rings (size 3 to 8) (size 9 to 14) (size 15 to 20)
#    0.000    2.167    0.000    3.500    0.000    5.333 
#    0.000    6.667    0.000    0.000    0.000    4.667 
#    0.000    0.000    0.000    0.000    0.000    0.000 
#
# Total GULP energy -1190386.101947 kJ/mol
# GULP energy per Si atom -12399.855229 kJ/mol
# Density = 1.923384 g / cm^3
# Si number density = 19.277713 Si / 1000 Ang^3
#
#
#
# Elastic Constant Matrix: (Units=GPa)
#
#
# Indices 1 2 3 4 5 6 
#
# 1 106.7540 73.2193 16.7101 0.0000 0.0000 0.0000
# 2 73.2193 106.7540 16.7101 0.0000 0.0000 0.0000
# 3 16.7101 16.7101 45.6227 0.0000 0.0000 0.0000
# 4 0.0000 0.0000 0.0000 28.0209 0.0000 0.0000
# 5 0.0000 0.0000 0.0000 0.0000 28.0209 0.0000
# 6 0.0000 0.0000 0.0000 0.0000 0.0000 24.4607
#
#
#
# Elastic Compliance Matrix: (Units=1/GPa)
#
#
# Indices 1 2 3 4 5 6 
#
# 1 0.017891 -0.011929 -0.002184 0.000000 0.000000 0.000000
# 2 -0.011929 0.017891 -0.002184 0.000000 0.000000 0.000000
# 3 -0.002184 -0.002184 0.023518 0.000000 0.000000 0.000000
# 4 0.000000 0.000000 0.000000 0.035688 0.000000 0.000000
# 5 0.000000 0.000000 0.000000 0.000000 0.035688 0.000000
# 6 0.000000 0.000000 0.000000 0.000000 0.000000 0.040882
#
#
# Mechanical properties :
#
#
# Convention : Reuss Voigt Hill
#
# Bulk Modulus (GPa) = 37.44242 52.48997 44.96620
# Shear Modulus (GPa) = 23.46839 26.26657 24.86748
#
# Velocity S-wave (km/s) = 3.49289 3.69526 3.59550
# Velocity P-wave (km/s) = 5.97761 6.74492 6.37283
#
# Compressibility (1/GPa) = 0.02670767
#
# Stress axis : x y z
#
# Youngs Moduli (GPa) = 55.89443 55.89443 42.51972
#
# Poissons Ratio (x) = 0.66676 0.09285
# Poissons Ratio (y) = 0.66676 0.09285
# Poissons Ratio (z) = 0.12205 0.12205
#
# Static dielectric constant tensor:
#      x y z
#    x 3.584360 0.000000 0.000000 
#    y 0.000000 3.584360 0.000000 
#    z 0.000000 0.000000 3.433660 
# 
# 
# High freq. dielectric constant tensor:
#      x y z
#    x 1.751360 0.000000 0.000000 
#    y 0.000000 1.751360 0.000000 
#    z 0.000000 0.000000 1.745880 
# 
# From -- ./inp_files/1917.got.cif
#   From: 2010.03.12/outbox.cif.g09.slc.cpg/sg136_1_cif.got.tgz:1917.got - 2010.04.06 18:39:43.
