data_PCOD8318490
_publ_section_title
;
Structure prediction by ZEFSAII (Michael W. Deem and Ramdas Pophale) SiO2 
 PCOD8318490
Probable space group: P 42/N M C
;
_chemical_formula_sum "Si O2"
_cell_formula_units_Z 64
_cell_length_a 14.129529
_cell_length_b 14.129529
_cell_length_c 15.461668
_cell_angle_alpha 90.000000
_cell_angle_beta 90.000000
_cell_angle_gamma 90.000000
_cell_volume 3086.822903
_symmetry_space_group_name_H-M "P 42/N M C"
_symmetry_group_IT_number 137
_space_group.IT_coordinate_system_code '2'
_symmetry_cell_setting 'tetragonal'
loop_
_space_group_symop_operation_xyz
x,y,z
1/2-y,x,1/2+z
1/2-x,1/2-y,z
y,1/2-x,1/2+z
1/2+x,-y,-z
-x,1/2+y,-z
1/2+y,1/2+x,1/2-z
-y,-x,1/2-z
-x,-y,-z
1/2+y,-x,1/2-z
1/2+x,1/2+y,-z
-y,1/2+x,1/2-z
1/2-x,y,z
x,1/2-y,z
1/2-y,1/2-x,1/2+z
y,x,1/2+z
loop_
_atom_site_type_symbol
_atom_site_label
_atom_site_fract_x
_atom_site_fract_y
_atom_site_fract_z
Si Si1 0.542814 0.640728 0.011436
Si Si2 0.637633 0.856361 0.339709
Si Si3 0.141264 0.042348 0.831712
Si Si4 0.355883 0.855420 0.919089
O O1 0.567107 0.750000 0.026089
O O2 0.599476 0.599441 0.928742
O O3 0.430769 0.623857 0.995630
O O4 0.574304 0.585529 0.095491
O O5 0.750000 0.855820 0.341799
O O6 0.597792 0.750000 0.328245
O O7 0.602647 0.922486 0.260764
O O8 0.250000 0.075904 0.846070
O O9 0.133191 0.928553 0.839573
O O10 0.250000 0.862318 0.959074
O O11 0.375654 0.750000 0.880847
#
# Coordination Sequence:
#
# PCOD8318490 Si02
#       4
#    16  16  16  16
#     4  10  19  32  52  76 102 134 168 205 256 311
#     4   9  18  31  47  73 106 131 157 200 251 305
#     4  10  19  32  52  76 102 134 168 205 256 311
#     4   9  19  35  52  72 100 134 175 219 255 295
#
# _framework density 20.733291999999999
#
# number of rings (size 3 to 8) (size 9 to 14) (size 15 to 20)
#    0.000    2.500    0.000    2.250    0.000    3.500 
#    0.000    3.750    0.000   10.500    0.000    1.750 
#    0.000   10.000    0.000    0.000    0.000    0.000 
#
# Total GULP energy -793412.829154 kJ/mol
# GULP energy per Si atom -12397.075456 kJ/mol
# Density = 2.068610 g / cm^3
# Si number density = 20.733292 Si / 1000 Ang^3
#
#
#
# Elastic Constant Matrix: (Units=GPa)
#
#
# Indices 1 2 3 4 5 6 
#
# 1 81.3659 14.4392 18.6574 0.0000 0.0000 0.0000
# 2 14.4392 81.3659 18.6574 0.0000 0.0000 0.0000
# 3 18.6574 18.6574 90.6169 0.0000 0.0000 0.0000
# 4 0.0000 0.0000 0.0000 13.9647 0.0000 0.0000
# 5 0.0000 0.0000 0.0000 0.0000 13.9647 0.0000
# 6 0.0000 0.0000 0.0000 0.0000 0.0000 17.6238
#
#
#
# Elastic Compliance Matrix: (Units=1/GPa)
#
#
# Indices 1 2 3 4 5 6 
#
# 1 0.013145 -0.001797 -0.002336 0.000000 0.000000 0.000000
# 2 -0.001797 0.013145 -0.002336 0.000000 0.000000 0.000000
# 3 -0.002336 -0.002336 0.011998 0.000000 0.000000 0.000000
# 4 0.000000 0.000000 0.000000 0.071609 0.000000 0.000000
# 5 0.000000 0.000000 0.000000 0.000000 0.071609 0.000000
# 6 0.000000 0.000000 0.000000 0.000000 0.000000 0.056742
#
#
# Mechanical properties :
#
#
# Convention : Reuss Voigt Hill
#
# Bulk Modulus (GPa) = 39.45158 39.65075 39.55116
# Shear Modulus (GPa) = 19.25777 22.55030 20.90404
#
# Velocity S-wave (km/s) = 3.05098 3.30151 3.17872
# Velocity P-wave (km/s) = 5.61077 5.80509 5.70876
#
# Compressibility (1/GPa) = 0.02534753
#
# Stress axis : x y z
#
# Youngs Moduli (GPa) = 76.07578 76.07578 83.35006
#
# Poissons Ratio (x) = 0.13670 0.19474
# Poissons Ratio (y) = 0.13670 0.19474
# Poissons Ratio (z) = 0.17775 0.17775
#
# Static dielectric constant tensor:
#      x y z
#    x 3.907090 0.000000 0.000000 
#    y 0.000000 3.907090 0.000000 
#    z 0.000000 0.000000 3.479850 
# 
# 
# High freq. dielectric constant tensor:
#      x y z
#    x 1.810430 0.000000 0.000000 
#    y 0.000000 1.810430 0.000000 
#    z 0.000000 0.000000 1.784800 
# 
# From -- ./inp_files/4692.got.cif
#   From: 2010.03.12/outbox.cif.g09.slc.cpg/sg137_3_cif.got.tgz:4692.got - 2010.04.08 09:34:49.
