data_PCOD8318980
_publ_section_title
;
Structure prediction by ZEFSAII (Michael W. Deem and Ramdas Pophale) SiO2 
 PCOD8318980
Probable space group: P 42/N C M
;
_chemical_formula_sum "Si O2"
_cell_formula_units_Z 80
_cell_length_a 19.832958
_cell_length_b 19.832958
_cell_length_c 12.522332
_cell_angle_alpha 90.000000
_cell_angle_beta 90.000000
_cell_angle_gamma 90.000000
_cell_volume 4925.611996
_symmetry_space_group_name_H-M "P 42/N C M"
_symmetry_group_IT_number 138
_space_group.IT_coordinate_system_code '2'
_symmetry_cell_setting 'tetragonal'
loop_
_space_group_symop_operation_xyz
x,y,z
1/2-y,x,1/2+z
1/2-x,1/2-y,z
y,1/2-x,1/2+z
1/2+x,-y,1/2-z
-x,1/2+y,1/2-z
1/2+y,1/2+x,-z
-y,-x,-z
-x,-y,-z
1/2+y,-x,1/2-z
1/2+x,1/2+y,-z
-y,1/2+x,1/2-z
1/2-x,y,1/2+z
x,1/2-y,1/2+z
1/2-y,1/2-x,z
y,x,z
loop_
_atom_site_type_symbol
_atom_site_label
_atom_site_fract_x
_atom_site_fract_y
_atom_site_fract_z
Si Si1 0.101901 0.989632 0.558926
Si Si2 0.182856 0.071021 0.394926
Si Si3 0.410575 0.975743 0.294783
Si Si4 0.869533 0.982410 0.819837
Si Si5 0.669349 0.943551 0.544405
O O1 0.079096 0.920905 0.500000
O O2 0.125689 0.973224 0.679117
O O3 0.161535 0.024240 0.493636
O O4 0.037890 0.037890 0.564895
O O5 0.140449 0.140449 0.391892
O O6 0.174879 0.029253 0.285599
O O7 0.260937 0.087651 0.412977
O O8 0.443026 0.902573 0.319891
O O9 0.468254 0.031747 0.297355
O O10 0.354259 0.993772 0.382374
O O11 0.929887 0.929887 0.820488
O O12 0.823290 0.971835 0.924099
O O13 0.616740 0.883261 0.550585
#
# Coordination Sequence:
#
# PCOD8318980 Si02
#       5
#    16  16  16  16  16
#     4   9  15  27  47  69  89 116 154 198 246 283
#     4  10  20  32  47  67  99 134 163 196 229 276
#     4   9  16  29  50  70  90 117 156 206 254 286
#     4   9  17  32  49  67  91 122 158 205 257 282
#     4  10  21  32  46  69  98 134 167 192 229 284
#
# _framework density 16.241637000000001
#
# number of rings (size 3 to 8) (size 9 to 14) (size 15 to 20)
#    0.000    2.600    2.000    0.600    2.800    2.800 
#    0.000    0.000    0.000    3.600    0.000    0.000 
#    0.000   10.400    0.000    0.000    0.000    0.000 
#
# Total GULP energy -991693.433551 kJ/mol
# GULP energy per Si atom -12396.167919 kJ/mol
# Density = 1.620467 g / cm^3
# Si number density = 16.241637 Si / 1000 Ang^3
#
#
#
# Elastic Constant Matrix: (Units=GPa)
#
#
# Indices 1 2 3 4 5 6 
#
# 1 49.7866 42.9382 42.1333 0.0000 0.0000 0.0000
# 2 42.9382 49.7873 42.1337 0.0000 0.0000 0.0000
# 3 42.1333 42.1337 132.2854 0.0000 0.0000 0.0000
# 4 0.0000 0.0000 0.0000 19.0349 0.0000 0.0000
# 5 0.0000 0.0000 0.0000 0.0000 19.0350 0.0000
# 6 0.0000 0.0000 0.0000 0.0000 0.0000 10.0561
#
#
#
# Elastic Compliance Matrix: (Units=1/GPa)
#
#
# Indices 1 2 3 4 5 6 
#
# 1 0.080596 -0.065417 -0.004834 0.000000 0.000000 0.000000
# 2 -0.065417 0.080595 -0.004834 0.000000 0.000000 0.000000
# 3 -0.004834 -0.004834 0.010639 0.000000 0.000000 0.000000
# 4 0.000000 0.000000 0.000000 0.052535 0.000000 0.000000
# 5 0.000000 0.000000 0.000000 0.000000 0.052535 0.000000
# 6 0.000000 0.000000 0.000000 0.000000 0.000000 0.099442
#
#
# Mechanical properties :
#
#
# Convention : Reuss Voigt Hill
#
# Bulk Modulus (GPa) = 46.17307 54.02997 50.10152
# Shear Modulus (GPa) = 9.36800 16.60214 12.98507
#
# Velocity S-wave (km/s) = 2.40425 3.20065 2.83060
# Velocity P-wave (km/s) = 6.01646 6.85547 6.44962
#
# Compressibility (1/GPa) = 0.02165765
#
# Stress axis : x y z
#
# Youngs Moduli (GPa) = 12.40761 12.40774 93.99515
#
# Poissons Ratio (x) = 0.81168 0.45438
# Poissons Ratio (y) = 0.81167 0.45440
# Poissons Ratio (z) = 0.05998 0.05998
#
# Static dielectric constant tensor:
#      x y z
#    x 2.758310 0.000000 0.000000 
#    y 0.000000 2.758310 0.000000 
#    z 0.000000 0.000000 3.496480 
# 
# 
# High freq. dielectric constant tensor:
#      x y z
#    x 1.587060 0.000000 0.000000 
#    y 0.000000 1.587060 0.000000 
#    z 0.000000 0.000000 1.650550 
# 
# From -- ./inp_files/4110.got.cif
#   From: 2010.03.12/outbox.cif.g09.slc.cpg/sg138_3_cif.got.tgz:4110.got - 2010.04.08 09:41:05.
