data_PCOD8318765
_publ_section_title
;
Structure prediction by ZEFSAII (Michael W. Deem and Ramdas Pophale) SiO2 
 PCOD8318765
Probable space group: P 42/N M C
;
_chemical_formula_sum "Si O2"
_cell_formula_units_Z 64
_cell_length_a 11.511241
_cell_length_b 11.511241
_cell_length_c 23.479061
_cell_angle_alpha 90.000000
_cell_angle_beta 90.000000
_cell_angle_gamma 90.000000
_cell_volume 3111.179131
_symmetry_space_group_name_H-M "P 42/N M C"
_symmetry_group_IT_number 137
_space_group.IT_coordinate_system_code '2'
_symmetry_cell_setting 'tetragonal'
loop_
_space_group_symop_operation_xyz
x,y,z
1/2-y,x,1/2+z
1/2-x,1/2-y,z
y,1/2-x,1/2+z
1/2+x,-y,-z
-x,1/2+y,-z
1/2+y,1/2+x,1/2-z
-y,-x,1/2-z
-x,-y,-z
1/2+y,-x,1/2-z
1/2+x,1/2+y,-z
-y,1/2+x,1/2-z
1/2-x,y,z
x,1/2-y,z
1/2-y,1/2-x,1/2+z
y,x,1/2+z
loop_
_atom_site_type_symbol
_atom_site_label
_atom_site_fract_x
_atom_site_fract_y
_atom_site_fract_z
Si Si1 0.881868 0.987657 0.204000
Si Si2 0.614444 0.750000 0.269307
Si Si3 0.250000 0.618858 0.150910
Si Si4 0.623263 0.878996 0.996112
Si Si5 0.976853 0.453984 0.906119
O O1 0.750000 0.007471 0.185474
O O2 0.902102 0.860329 0.229407
O O3 0.962408 0.005452 0.149559
O O4 0.915704 0.084297 0.250000
O O5 0.750000 0.750000 0.295341
O O6 0.502102 0.750000 0.311943
O O7 0.250000 0.750000 0.181273
O O8 0.362566 0.617028 0.110979
O O9 0.750000 0.939077 0.002180
O O10 0.638753 0.750000 0.973495
O O11 0.548449 0.939536 0.947727
O O12 0.563209 0.872569 0.058185
#
# Coordination Sequence:
#
# PCOD8318765 Si02
#       5
#    16   8   8  16  16
#     4  11  24  42  65  92 126 167 214 261 321 392
#     4  10  24  44  66  96 132 178 214 257 322 407
#     4  12  24  40  66 102 136 166 210 275 334 387
#     4  10  22  41  66  89 120 170 221 262 312 389
#     4  11  23  41  61  95 131 164 209 267 330 377
#
# _framework density 20.570979999999999
#
# number of rings (size 3 to 8) (size 9 to 14) (size 15 to 20)
#    0.000    1.250    3.750    1.500    3.500    2.250 
#    2.250    0.000    0.000    0.000    0.000    0.000 
#    0.000    0.000    0.000    0.000    0.000    0.000 
#
# Total GULP energy -793107.682341 kJ/mol
# GULP energy per Si atom -12392.307537 kJ/mol
# Density = 2.052416 g / cm^3
# Si number density = 20.570980 Si / 1000 Ang^3
#
#
#
# Elastic Constant Matrix: (Units=GPa)
#
#
# Indices 1 2 3 4 5 6 
#
# 1 122.9875 22.4414 50.1529 0.0000 0.0000 0.0000
# 2 22.4414 122.9856 50.1525 0.0000 0.0000 0.0000
# 3 50.1529 50.1525 117.8423 0.0000 0.0000 0.0000
# 4 0.0000 0.0000 0.0000 18.7093 0.0000 0.0000
# 5 0.0000 0.0000 0.0000 0.0000 18.7099 0.0000
# 6 0.0000 0.0000 0.0000 0.0000 0.0000 16.0184
#
#
#
# Elastic Compliance Matrix: (Units=1/GPa)
#
#
# Indices 1 2 3 4 5 6 
#
# 1 0.009840 -0.000106 -0.004142 0.000000 0.000000 0.000000
# 2 -0.000106 0.009840 -0.004142 0.000000 0.000000 0.000000
# 3 -0.004142 -0.004142 0.012012 0.000000 0.000000 0.000000
# 4 0.000000 0.000000 0.000000 0.053449 0.000000 0.000000
# 5 0.000000 0.000000 0.000000 0.000000 0.053448 0.000000
# 6 0.000000 0.000000 0.000000 0.000000 0.000000 0.062428
#
#
# Mechanical properties :
#
#
# Convention : Reuss Voigt Hill
#
# Bulk Modulus (GPa) = 67.07403 67.70101 67.38752
# Shear Modulus (GPa) = 22.44485 26.75875 24.60180
#
# Velocity S-wave (km/s) = 3.30675 3.61057 3.46200
# Velocity P-wave (km/s) = 6.87433 7.09676 6.98643
#
# Compressibility (1/GPa) = 0.01490890
#
# Stress axis : x y z
#
# Youngs Moduli (GPa) = 101.63088 101.62933 83.25063
#
# Poissons Ratio (x) = 0.01079 0.34486
# Poissons Ratio (y) = 0.01079 0.34486
# Poissons Ratio (z) = 0.42100 0.42100
#
# Static dielectric constant tensor:
#      x y z
#    x 4.002630 0.000000 0.000000 
#    y 0.000000 4.002640 0.000000 
#    z 0.000000 0.000000 3.656960 
# 
# 
# High freq. dielectric constant tensor:
#      x y z
#    x 1.813490 0.000000 0.000000 
#    y 0.000000 1.813490 0.000000 
#    z 0.000000 0.000000 1.797910 
# 
# From -- ./inp_files/8585.got.cif
#   From: 2010.03.12/outbox.cif.g09.slc.cpg/sg137_5_cif.got.tgz:8585.got - 2010.04.08 09:34:49.
