data_PCOD8318532
_publ_section_title
;
Structure prediction by ZEFSAII (Michael W. Deem and Ramdas Pophale) SiO2 
 PCOD8318532
Probable space group: P 42/N M C
;
_chemical_formula_sum "Si O2"
_cell_formula_units_Z 80
_cell_length_a 15.362020
_cell_length_b 15.362020
_cell_length_c 17.844595
_cell_angle_alpha 90.000000
_cell_angle_beta 90.000000
_cell_angle_gamma 90.000000
_cell_volume 4211.175569
_symmetry_space_group_name_H-M "P 42/N M C"
_symmetry_group_IT_number 137
_space_group.IT_coordinate_system_code '2'
_symmetry_cell_setting 'tetragonal'
loop_
_space_group_symop_operation_xyz
x,y,z
1/2-y,x,1/2+z
1/2-x,1/2-y,z
y,1/2-x,1/2+z
1/2+x,-y,-z
-x,1/2+y,-z
1/2+y,1/2+x,1/2-z
-y,-x,1/2-z
-x,-y,-z
1/2+y,-x,1/2-z
1/2+x,1/2+y,-z
-y,1/2+x,1/2-z
1/2-x,y,z
x,1/2-y,z
1/2-y,1/2-x,1/2+z
y,x,1/2+z
loop_
_atom_site_type_symbol
_atom_site_label
_atom_site_fract_x
_atom_site_fract_y
_atom_site_fract_z
Si Si1 0.020964 0.154043 0.944480
Si Si2 0.844576 0.122034 0.021001
Si Si3 0.533051 0.011324 0.833309
Si Si4 0.556984 0.652066 0.455633
Si Si5 0.345287 0.913872 0.676816
O O1 0.049059 0.250000 0.914858
O O2 0.024485 0.082805 0.878224
O O3 0.084619 0.129265 0.013906
O O4 0.922536 0.163634 0.973820
O O5 0.750000 0.153300 0.989624
O O6 0.849802 0.150072 0.106635
O O7 0.849395 0.017488 0.018567
O O8 0.550126 0.050126 0.750000
O O9 0.621955 0.988323 0.877464
O O10 0.485997 0.919350 0.827263
O O11 0.595283 0.750000 0.445308
O O12 0.355243 0.855243 0.750000
O O13 0.250000 0.959585 0.678720
#
# Coordination Sequence:
#
# PCOD8318532 Si02
#       5
#    16  16  16  16  16
#     4  11  21  37  58  84 117 151 196 243 286 340
#     4  10  19  34  56  80 111 146 183 234 290 341
#     4  10  21  39  58  83 117 152 192 239 291 346
#     4  10  20  37  59  83 113 151 196 239 283 336
#     4  11  21  33  52  80 115 146 176 223 287 353
#
# _framework density 18.997069
#
# number of rings (size 3 to 8) (size 9 to 14) (size 15 to 20)
#    0.000    1.600    4.000    2.400    0.000    3.800 
#    0.000    0.000    0.000    0.000    0.000    5.600 
#    0.000    0.000    0.000    0.000    0.000    0.000 
#
# Total GULP energy -991343.547890 kJ/mol
# GULP energy per Si atom -12391.794349 kJ/mol
# Density = 1.895383 g / cm^3
# Si number density = 18.997069 Si / 1000 Ang^3
#
#
#
# Elastic Constant Matrix: (Units=GPa)
#
#
# Indices 1 2 3 4 5 6 
#
# 1 108.2381 38.8495 37.1729 0.0000 0.0000 0.0000
# 2 38.8495 108.2381 37.1729 0.0000 0.0000 0.0000
# 3 37.1729 37.1729 120.1112 0.0000 0.0000 0.0000
# 4 0.0000 0.0000 0.0000 11.5860 0.0000 0.0000
# 5 0.0000 0.0000 0.0000 0.0000 11.5860 0.0000
# 6 0.0000 0.0000 0.0000 0.0000 0.0000 6.8434
#
#
#
# Elastic Compliance Matrix: (Units=1/GPa)
#
#
# Indices 1 2 3 4 5 6 
#
# 1 0.011235 -0.003176 -0.002494 0.000000 0.000000 0.000000
# 2 -0.003176 0.011235 -0.002494 0.000000 0.000000 0.000000
# 3 -0.002494 -0.002494 0.009870 0.000000 0.000000 0.000000
# 4 0.000000 0.000000 0.000000 0.086311 0.000000 0.000000
# 5 0.000000 0.000000 0.000000 0.000000 0.086311 0.000000
# 6 0.000000 0.000000 0.000000 0.000000 0.000000 0.146126
#
#
# Mechanical properties :
#
#
# Convention : Reuss Voigt Hill
#
# Bulk Modulus (GPa) = 62.45628 62.55310 62.50469
# Shear Modulus (GPa) = 13.41362 20.89589 17.15476
#
# Velocity S-wave (km/s) = 2.66012 3.32015 3.00829
# Velocity P-wave (km/s) = 6.51023 6.90631 6.71119
#
# Compressibility (1/GPa) = 0.01601120
#
# Stress axis : x y z
#
# Youngs Moduli (GPa) = 89.00365 89.00365 101.32211
#
# Poissons Ratio (x) = 0.28268 0.25273
# Poissons Ratio (y) = 0.28268 0.25273
# Poissons Ratio (z) = 0.22200 0.22200
#
# Static dielectric constant tensor:
#      x y z
#    x 3.467300 0.000000 0.000000 
#    y 0.000000 3.467300 0.000000 
#    z 0.000000 0.000000 3.639830 
# 
# 
# High freq. dielectric constant tensor:
#      x y z
#    x 1.732690 0.000000 0.000000 
#    y 0.000000 1.732690 0.000000 
#    z 0.000000 0.000000 1.726980 
# 
# From -- ./inp_files/7541.got.cif
#   From: 2010.03.12/outbox.cif.g09.slc.cpg/sg137_4_cif.got.tgz:7541.got - 2010.04.08 09:34:49.
