data_PCOD8318948
_publ_section_title
;
Structure prediction by ZEFSAII (Michael W. Deem and Ramdas Pophale) SiO2 
 PCOD8318948
Probable space group: P 42/N C M
;
_chemical_formula_sum "Si O2"
_cell_formula_units_Z 104
_cell_length_a 17.912114
_cell_length_b 17.912114
_cell_length_c 17.670717
_cell_angle_alpha 90.000000
_cell_angle_beta 90.000000
_cell_angle_gamma 90.000000
_cell_volume 5669.540485
_symmetry_space_group_name_H-M "P 42/N C M"
_symmetry_group_IT_number 138
_space_group.IT_coordinate_system_code '2'
_symmetry_cell_setting 'tetragonal'
loop_
_space_group_symop_operation_xyz
x,y,z
1/2-y,x,1/2+z
1/2-x,1/2-y,z
y,1/2-x,1/2+z
1/2+x,-y,1/2-z
-x,1/2+y,1/2-z
1/2+y,1/2+x,-z
-y,-x,-z
-x,-y,-z
1/2+y,-x,1/2-z
1/2+x,1/2+y,-z
-y,1/2+x,1/2-z
1/2-x,y,1/2+z
x,1/2-y,1/2+z
1/2-y,1/2-x,z
y,x,z
loop_
_atom_site_type_symbol
_atom_site_label
_atom_site_fract_x
_atom_site_fract_y
_atom_site_fract_z
Si Si1 0.312411 0.067255 0.307927
Si Si2 0.664379 0.542355 0.612552
Si Si3 0.924546 0.301053 0.012237
Si Si4 0.868000 0.071611 0.739870
Si Si5 0.449397 0.788936 0.813479
Si Si6 0.857952 0.142049 0.000000
Si Si7 0.040360 0.925372 0.120882
O O1 0.354683 0.145317 0.297860
O O2 0.231985 0.083833 0.344308
O O3 0.307757 0.029135 0.225035
O O4 0.354129 0.012609 0.366641
O O5 0.603711 0.603711 0.587205
O O6 0.693860 0.497813 0.539691
O O7 0.627488 0.484391 0.670135
O O8 0.957059 0.291365 0.096299
O O9 0.873344 0.229866 0.990586
O O10 0.874829 0.374829 0.000000
O O11 0.884883 0.154005 0.709902
O O12 0.789611 0.077580 0.781782
O O13 0.930527 0.044787 0.798730
O O14 0.903276 0.111514 0.071702
O O15 0.992527 0.992527 0.083344
#
# Coordination Sequence:
#
# PCOD8318948 Si02
#       7
#    16  16  16  16  16   8  16
#     4   9  20  39  62  85 109 146 199 247 294 348
#     4  11  23  39  60  86 120 156 195 242 296 359
#     4  12  24  40  56  87 127 162 196 240 299 365
#     4  10  20  37  56  84 114 149 199 239 288 350
#     4  10  21  37  59  82 118 156 192 245 291 349
#     4  12  22  38  56  84 122 160 196 236 294 364
#     4  10  19  34  59  84 109 143 191 248 293 337
#
# _framework density 18.343639
#
# number of rings (size 3 to 8) (size 9 to 14) (size 15 to 20)
#    0.000    1.538    4.615    0.923    0.000    2.154 
#    2.769    0.000    0.000    0.000    0.000    2.154 
#    0.000    0.000    0.000    0.000    0.000    0.000 
#
# Total GULP energy -1289539.427359 kJ/mol
# GULP energy per Si atom -12399.417571 kJ/mol
# Density = 1.830189 g / cm^3
# Si number density = 18.343639 Si / 1000 Ang^3
#
#
#
# Elastic Constant Matrix: (Units=GPa)
#
#
# Indices 1 2 3 4 5 6 
#
# 1 85.5552 58.4557 34.9695 0.0000 0.0000 0.0000
# 2 58.4557 85.5559 34.9694 0.0000 0.0000 0.0000
# 3 34.9695 34.9694 112.2619 0.0000 0.0000 0.0000
# 4 0.0000 0.0000 0.0000 20.5176 0.0000 0.0000
# 5 0.0000 0.0000 0.0000 0.0000 20.5172 0.0000
# 6 0.0000 0.0000 0.0000 0.0000 0.0000 38.2697
#
#
#
# Elastic Compliance Matrix: (Units=1/GPa)
#
#
# Indices 1 2 3 4 5 6 
#
# 1 0.022541 -0.014359 -0.002549 0.000000 0.000000 0.000000
# 2 -0.014359 0.022541 -0.002548 0.000000 0.000000 0.000000
# 3 -0.002549 -0.002548 0.010495 0.000000 0.000000 0.000000
# 4 0.000000 0.000000 0.000000 0.048739 0.000000 0.000000
# 5 0.000000 0.000000 0.000000 0.000000 0.048740 0.000000
# 6 0.000000 0.000000 0.000000 0.000000 0.000000 0.026130
#
#
# Mechanical properties :
#
#
# Convention : Reuss Voigt Hill
#
# Bulk Modulus (GPa) = 60.00796 60.01803 60.01300
# Shear Modulus (GPa) = 22.35593 26.19278 24.27436
#
# Velocity S-wave (km/s) = 3.49482 3.78285 3.64168
# Velocity P-wave (km/s) = 7.00494 7.20206 7.10419
#
# Compressibility (1/GPa) = 0.01666446
#
# Stress axis : x y z
#
# Youngs Moduli (GPa) = 44.36323 44.36371 95.27900
#
# Poissons Ratio (x) = 0.63704 0.24283
# Poissons Ratio (y) = 0.63703 0.24282
# Poissons Ratio (z) = 0.11307 0.11306
#
# Static dielectric constant tensor:
#      x y z
#    x 3.301630 0.000000 0.000000 
#    y 0.000000 3.301620 0.000000 
#    z 0.000000 0.000000 3.456200 
# 
# 
# High freq. dielectric constant tensor:
#      x y z
#    x 1.706050 0.000000 0.000000 
#    y 0.000000 1.706040 0.000000 
#    z 0.000000 0.000000 1.716370 
# 
# From -- ./inp_files/5305.got.cif
#   From: 2010.03.12/outbox.cif.g09.slc.cpg/sg138_3_cif.got.tgz:5305.got - 2010.04.08 09:41:05.
