data_PCOD8318498
_publ_section_title
;
Structure prediction by ZEFSAII (Michael W. Deem and Ramdas Pophale) SiO2 
 PCOD8318498
Probable space group: P 42/N M C
;
_chemical_formula_sum "Si O2"
_cell_formula_units_Z 64
_cell_length_a 25.881635
_cell_length_b 25.881635
_cell_length_c 5.049707
_cell_angle_alpha 90.000000
_cell_angle_beta 90.000000
_cell_angle_gamma 90.000000
_cell_volume 3382.591834
_symmetry_space_group_name_H-M "P 42/N M C"
_symmetry_group_IT_number 137
_space_group.IT_coordinate_system_code '2'
_symmetry_cell_setting 'tetragonal'
loop_
_space_group_symop_operation_xyz
x,y,z
1/2-y,x,1/2+z
1/2-x,1/2-y,z
y,1/2-x,1/2+z
1/2+x,-y,-z
-x,1/2+y,-z
1/2+y,1/2+x,1/2-z
-y,-x,1/2-z
-x,-y,-z
1/2+y,-x,1/2-z
1/2+x,1/2+y,-z
-y,1/2+x,1/2-z
1/2-x,y,z
x,1/2-y,z
1/2-y,1/2-x,1/2+z
y,x,1/2+z
loop_
_atom_site_type_symbol
_atom_site_label
_atom_site_fract_x
_atom_site_fract_y
_atom_site_fract_z
Si Si1 0.140857 0.561319 0.291641
Si Si2 0.405459 0.360113 0.218413
Si Si3 0.250000 0.974344 0.195462
Si Si4 0.250000 0.043330 0.697276
Si Si5 0.906437 0.012898 0.209114
O O1 0.118960 0.618960 0.250000
O O2 0.201363 0.562598 0.238193
O O3 0.131450 0.543347 0.591738
O O4 0.112037 0.521934 0.091667
O O5 0.365533 0.374080 0.448444
O O6 0.423309 0.301161 0.248617
O O7 0.452460 0.401575 0.228159
O O8 0.250000 0.022513 0.397619
O O9 0.250000 0.995583 0.898373
O O10 0.965163 0.034838 0.250000
#
# Coordination Sequence:
#
# PCOD8318498 Si02
#       5
#    16  16   8   8  16
#     4  10  19  32  54  84 116 151 191 235 279 324
#     4  12  24  39  60  86 116 149 189 234 289 336
#     4  12  18  36  62  81 112 157 196 242 268 328
#     4  12  24  40  62  87 108 149 196 238 280 340
#     4  10  20  36  54  84 122 152 183 220 278 350
#
# _framework density 18.920404000000001
#
# number of rings (size 3 to 8) (size 9 to 14) (size 15 to 20)
#    0.000    1.000    5.000    3.000    0.000    1.000 
#    0.000    0.000    0.000    2.625    0.000    0.000 
#    0.000    8.000    0.000    0.000    0.000    1.250 
#
# Total GULP energy -793750.746058 kJ/mol
# GULP energy per Si atom -12402.355407 kJ/mol
# Density = 1.887734 g / cm^3
# Si number density = 18.920404 Si / 1000 Ang^3
#
#
#
# Elastic Constant Matrix: (Units=GPa)
#
#
# Indices 1 2 3 4 5 6 
#
# 1 94.4947 30.0186 13.9974 0.0000 0.0000 0.0000
# 2 30.0186 94.4955 13.9977 0.0000 0.0000 0.0000
# 3 13.9974 13.9977 77.7211 0.0000 0.0000 0.0000
# 4 0.0000 0.0000 0.0000 24.3339 0.0000 0.0000
# 5 0.0000 0.0000 0.0000 0.0000 24.3334 0.0000
# 6 0.0000 0.0000 0.0000 0.0000 0.0000 23.8466
#
#
#
# Elastic Compliance Matrix: (Units=1/GPa)
#
#
# Indices 1 2 3 4 5 6 
#
# 1 0.011940 -0.003570 -0.001507 0.000000 0.000000 0.000000
# 2 -0.003570 0.011940 -0.001507 0.000000 0.000000 0.000000
# 3 -0.001507 -0.001507 0.013410 0.000000 0.000000 0.000000
# 4 0.000000 0.000000 0.000000 0.041095 0.000000 0.000000
# 5 0.000000 0.000000 0.000000 0.000000 0.041096 0.000000
# 6 0.000000 0.000000 0.000000 0.000000 0.000000 0.041935
#
#
# Mechanical properties :
#
#
# Convention : Reuss Voigt Hill
#
# Bulk Modulus (GPa) = 41.45938 42.52653 41.99295
# Shear Modulus (GPa) = 27.37869 28.41596 27.89732
#
# Velocity S-wave (km/s) = 3.80813 3.87960 3.84403
# Velocity P-wave (km/s) = 6.42619 6.52639 6.47648
#
# Compressibility (1/GPa) = 0.02411999
#
# Stress axis : x y z
#
# Youngs Moduli (GPa) = 83.75286 83.75350 74.57398
#
# Poissons Ratio (x) = 0.29897 0.11242
# Poissons Ratio (y) = 0.29897 0.11242
# Poissons Ratio (z) = 0.12625 0.12626
#
# Static dielectric constant tensor:
#      x y z
#    x 3.390620 0.000000 0.000000 
#    y 0.000000 3.390610 0.000000 
#    z 0.000000 0.000000 3.770940 
# 
# 
# High freq. dielectric constant tensor:
#      x y z
#    x 1.713120 0.000000 0.000000 
#    y 0.000000 1.713120 0.000000 
#    z 0.000000 0.000000 1.764740 
# 
# From -- ./inp_files/476.got.cif
#   From: 2010.03.12/outbox.cif.g09.slc.cpg/sg137_1_cif.got.tgz:476.got - 2010.04.08 09:34:49.
