data_PCOD8318655
_publ_section_title
;
Structure prediction by ZEFSAII (Michael W. Deem and Ramdas Pophale) SiO2 
 PCOD8318655
Probable space group: P 42/N M C
;
_chemical_formula_sum "Si O2"
_cell_formula_units_Z 48
_cell_length_a 22.324510
_cell_length_b 22.324510
_cell_length_c 4.753968
_cell_angle_alpha 90.000000
_cell_angle_beta 90.000000
_cell_angle_gamma 90.000000
_cell_volume 2369.300384
_symmetry_space_group_name_H-M "P 42/N M C"
_symmetry_group_IT_number 137
_space_group.IT_coordinate_system_code '2'
_symmetry_cell_setting 'tetragonal'
loop_
_space_group_symop_operation_xyz
x,y,z
1/2-y,x,1/2+z
1/2-x,1/2-y,z
y,1/2-x,1/2+z
1/2+x,-y,-z
-x,1/2+y,-z
1/2+y,1/2+x,1/2-z
-y,-x,1/2-z
-x,-y,-z
1/2+y,-x,1/2-z
1/2+x,1/2+y,-z
-y,1/2+x,1/2-z
1/2-x,y,z
x,1/2-y,z
1/2-y,1/2-x,1/2+z
y,x,1/2+z
loop_
_atom_site_type_symbol
_atom_site_label
_atom_site_fract_x
_atom_site_fract_y
_atom_site_fract_z
Si Si1 0.626326 0.070133 0.501172
Si Si2 0.750000 0.958506 0.745199
Si Si3 0.935481 0.877008 0.150668
Si Si4 0.041816 0.750000 0.759813
O O1 0.578077 0.078077 0.250000
O O2 0.690919 0.078568 0.350523
O O3 0.616253 0.007248 0.664036
O O4 0.619180 0.119180 0.750000
O O5 0.689747 0.918799 0.766098
O O6 0.750000 0.978989 0.421427
O O7 0.750000 0.019581 0.935056
O O8 0.894208 0.921340 0.330106
#
# Coordination Sequence:
#
# PCOD8318655 Si02
#       4
#    16   8  16   8
#     4  11  22  36  57  84 114 148 186 233 286 341
#     4  10  20  38  58  77 108 153 196 222 261 340
#     4  11  22  36  57  84 114 148 184 231 286 338
#     4  10  20  38  58  77 108 153 196 222 261 338
#
# _framework density 20.259148
#
# number of rings (size 3 to 8) (size 9 to 14) (size 15 to 20)
#    0.000    1.333    0.000   10.000    0.000    4.000 
#    0.000    0.000    0.000    6.000    0.000    0.000 
#    0.000    0.000    0.000    0.000    0.000    0.000 
#
# Total GULP energy -594627.491165 kJ/mol
# GULP energy per Si atom -12388.072733 kJ/mol
# Density = 2.021304 g / cm^3
# Si number density = 20.259148 Si / 1000 Ang^3
#
#
#
# Elastic Constant Matrix: (Units=GPa)
#
#
# Indices 1 2 3 4 5 6 
#
# 1 88.6168 53.1738 31.4596 0.0000 0.0000 0.0000
# 2 53.1738 88.6168 31.4596 0.0000 0.0000 0.0000
# 3 31.4596 31.4596 90.6187 0.0000 0.0000 0.0000
# 4 0.0000 0.0000 0.0000 33.0860 0.0000 0.0000
# 5 0.0000 0.0000 0.0000 0.0000 33.0860 0.0000
# 6 0.0000 0.0000 0.0000 0.0000 0.0000 10.8287
#
#
#
# Elastic Compliance Matrix: (Units=1/GPa)
#
#
# Indices 1 2 3 4 5 6 
#
# 1 0.018276 -0.009939 -0.002894 0.000000 0.000000 0.000000
# 2 -0.009939 0.018276 -0.002894 0.000000 0.000000 0.000000
# 3 -0.002894 -0.002894 0.013045 0.000000 0.000000 0.000000
# 4 0.000000 0.000000 0.000000 0.030224 0.000000 0.000000
# 5 0.000000 0.000000 0.000000 0.000000 0.030224 0.000000
# 6 0.000000 0.000000 0.000000 0.000000 0.000000 0.092347
#
#
# Mechanical properties :
#
#
# Convention : Reuss Voigt Hill
#
# Bulk Modulus (GPa) = 55.12187 55.55977 55.34082
# Shear Modulus (GPa) = 20.84256 25.51742 23.17999
#
# Velocity S-wave (km/s) = 3.21097 3.55286 3.38623
# Velocity P-wave (km/s) = 6.40426 6.65692 6.53181
#
# Compressibility (1/GPa) = 0.01814162
#
# Stress axis : x y z
#
# Youngs Moduli (GPa) = 54.71759 54.71759 76.65862
#
# Poissons Ratio (x) = 0.54382 0.22187
# Poissons Ratio (y) = 0.54382 0.22187
# Poissons Ratio (z) = 0.15837 0.15837
#
# Static dielectric constant tensor:
#      x y z
#    x 3.701020 0.000000 0.000000 
#    y 0.000000 3.701020 0.000000 
#    z 0.000000 0.000000 3.737630 
# 
# 
# High freq. dielectric constant tensor:
#      x y z
#    x 1.766470 0.000000 0.000000 
#    y 0.000000 1.766470 0.000000 
#    z 0.000000 0.000000 1.819930 
# 
# From -- ./inp_files/310.got.cif
#   From: 2010.03.12/outbox.cif.g09.slc.cpg/sg137_1_cif.got.tgz:310.got - 2010.04.08 09:34:49.
