data_PCOD8318491
_publ_section_title
;
Structure prediction by ZEFSAII (Michael W. Deem and Ramdas Pophale) SiO2 
 PCOD8318491
Probable space group: P 42/N M C
;
_chemical_formula_sum "Si O2"
_cell_formula_units_Z 128
_cell_length_a 23.243892
_cell_length_b 23.243892
_cell_length_c 13.803679
_cell_angle_alpha 90.000000
_cell_angle_beta 90.000000
_cell_angle_gamma 90.000000
_cell_volume 7457.831196
_symmetry_space_group_name_H-M "P 42/N M C"
_symmetry_group_IT_number 137
_space_group.IT_coordinate_system_code '2'
_symmetry_cell_setting 'tetragonal'
loop_
_space_group_symop_operation_xyz
x,y,z
1/2-y,x,1/2+z
1/2-x,1/2-y,z
y,1/2-x,1/2+z
1/2+x,-y,-z
-x,1/2+y,-z
1/2+y,1/2+x,1/2-z
-y,-x,1/2-z
-x,-y,-z
1/2+y,-x,1/2-z
1/2+x,1/2+y,-z
-y,1/2+x,1/2-z
1/2-x,y,z
x,1/2-y,z
1/2-y,1/2-x,1/2+z
y,x,1/2+z
loop_
_atom_site_type_symbol
_atom_site_label
_atom_site_fract_x
_atom_site_fract_y
_atom_site_fract_z
Si Si1 0.816863 0.908290 0.893500
Si Si2 0.314270 0.026814 0.762991
Si Si3 0.568719 0.069961 0.497535
Si Si4 0.482555 0.685073 0.525975
Si Si5 0.515112 0.978312 0.145218
Si Si6 0.901764 0.878918 0.200370
Si Si7 0.315144 0.515486 0.558197
Si Si8 0.614479 0.815975 0.008685
O O1 0.750000 0.895340 0.880055
O O2 0.842327 0.927900 0.789439
O O3 0.846472 0.851182 0.934215
O O4 0.828027 0.958456 0.970596
O O5 0.250000 0.050924 0.758818
O O6 0.351975 0.083302 0.752341
O O7 0.325611 0.983746 0.673726
O O8 0.325749 0.992031 0.860611
O O9 0.565195 0.139187 0.507401
O O10 0.530840 0.047207 0.407736
O O11 0.539876 0.043629 0.593234
O O12 0.636425 0.055890 0.489217
O O13 0.460720 0.750000 0.504925
O O14 0.552775 0.920863 0.149389
O O15 0.501499 0.001499 0.250000
O O16 0.876204 0.836881 0.118841
O O17 0.250000 0.537359 0.533413
O O18 0.324102 0.451805 0.518225
O O19 0.633859 0.750000 0.001256
#
# Coordination Sequence:
#
# PCOD8318491 Si02
#       8
#    16  16  16  16  16  16  16  16
#     4  11  23  37  54  76 108 147 186 227 272 321
#     4  10  19  32  52  76 103 138 176 217 268 316
#     4  11  21  35  55  82 106 142 179 214 275 333
#     4  10  21  37  55  78 109 141 175 216 266 323
#     4  11  22  31  52  84 113 135 170 226 274 328
#     4  12  20  35  53  77 106 142 178 225 271 322
#     4  10  21  36  54  77 109 142 176 221 271 326
#     4  11  22  36  52  73 104 142 184 229 268 309
#
# _framework density 17.163167000000001
#
# number of rings (size 3 to 8) (size 9 to 14) (size 15 to 20)
#    0.000    1.250    5.000    1.875    1.750    0.250 
#    0.000    0.000    0.000    2.625    0.000    0.000 
#    0.000    3.000    0.000    1.500    0.000    0.000 
#
# Total GULP energy -1587206.124411 kJ/mol
# GULP energy per Si atom -12400.047847 kJ/mol
# Density = 1.712410 g / cm^3
# Si number density = 17.163167 Si / 1000 Ang^3
#
#
#
# Elastic Constant Matrix: (Units=GPa)
#
#
# Indices 1 2 3 4 5 6 
#
# 1 87.0713 48.4317 5.6865 0.0000 0.0000 0.0000
# 2 48.4317 87.0713 5.6865 0.0000 0.0000 0.0000
# 3 5.6865 5.6865 53.7326 0.0000 0.0000 0.0000
# 4 0.0000 0.0000 0.0000 18.7699 0.0000 0.0000
# 5 0.0000 0.0000 0.0000 0.0000 18.7699 0.0000
# 6 0.0000 0.0000 0.0000 0.0000 0.0000 22.5527
#
#
#
# Elastic Compliance Matrix: (Units=1/GPa)
#
#
# Indices 1 2 3 4 5 6 
#
# 1 0.016663 -0.009217 -0.000788 0.000000 0.000000 0.000000
# 2 -0.009217 0.016663 -0.000788 0.000000 0.000000 0.000000
# 3 -0.000788 -0.000788 0.018777 0.000000 0.000000 0.000000
# 4 0.000000 0.000000 0.000000 0.053277 0.000000 0.000000
# 5 0.000000 0.000000 0.000000 0.000000 0.053277 0.000000
# 6 0.000000 0.000000 0.000000 0.000000 0.000000 0.044341
#
#
# Mechanical properties :
#
#
# Convention : Reuss Voigt Hill
#
# Bulk Modulus (GPa) = 32.76806 38.60939 35.68873
# Shear Modulus (GPa) = 21.29864 23.22319 22.26091
#
# Velocity S-wave (km/s) = 3.52653 3.68242 3.60532
# Velocity P-wave (km/s) = 5.97624 6.37374 6.17819
#
# Compressibility (1/GPa) = 0.03051752
#
# Stress axis : x y z
#
# Youngs Moduli (GPa) = 60.01276 60.01276 53.25535
#
# Poissons Ratio (x) = 0.55314 0.04197
# Poissons Ratio (y) = 0.55314 0.04197
# Poissons Ratio (z) = 0.04729 0.04729
#
# Static dielectric constant tensor:
#      x y z
#    x 3.184880 0.000000 0.000000 
#    y 0.000000 3.184880 0.000000 
#    z 0.000000 0.000000 3.409500 
# 
# 
# High freq. dielectric constant tensor:
#      x y z
#    x 1.646650 0.000000 0.000000 
#    y 0.000000 1.646650 0.000000 
#    z 0.000000 0.000000 1.677310 
# 
# From -- ./inp_files/4027.got.cif
#   From: 2010.03.12/outbox.cif.g09.slc.cpg/sg137_3_cif.got.tgz:4027.got - 2010.04.08 09:34:49.
