data_PCOD8318564
_publ_section_title
;
Structure prediction by ZEFSAII (Michael W. Deem and Ramdas Pophale) SiO2 
 PCOD8318564
Probable space group: P 42/N M C
;
_chemical_formula_sum "Si O2"
_cell_formula_units_Z 112
_cell_length_a 14.918115
_cell_length_b 14.918115
_cell_length_c 23.890080
_cell_angle_alpha 90.000000
_cell_angle_beta 90.000000
_cell_angle_gamma 90.000000
_cell_volume 5316.741011
_symmetry_space_group_name_H-M "P 42/N M C"
_symmetry_group_IT_number 137
_space_group.IT_coordinate_system_code '2'
_symmetry_cell_setting 'tetragonal'
loop_
_space_group_symop_operation_xyz
x,y,z
1/2-y,x,1/2+z
1/2-x,1/2-y,z
y,1/2-x,1/2+z
1/2+x,-y,-z
-x,1/2+y,-z
1/2+y,1/2+x,1/2-z
-y,-x,1/2-z
-x,-y,-z
1/2+y,-x,1/2-z
1/2+x,1/2+y,-z
-y,1/2+x,1/2-z
1/2-x,y,z
x,1/2-y,z
1/2-y,1/2-x,1/2+z
y,x,1/2+z
loop_
_atom_site_type_symbol
_atom_site_label
_atom_site_fract_x
_atom_site_fract_y
_atom_site_fract_z
Si Si1 0.349901 0.581330 0.306813
Si Si2 0.152828 0.852023 0.426706
Si Si3 0.033646 0.355288 0.088629
Si Si4 0.468996 0.417485 0.287541
Si Si5 0.146344 0.150623 0.690891
Si Si6 0.476592 0.146600 0.513891
Si Si7 0.050915 0.650250 0.603029
O O1 0.362881 0.637120 0.250000
O O2 0.250000 0.540121 0.306487
O O3 0.364656 0.644528 0.360261
O O4 0.424186 0.505415 0.313353
O O5 0.250000 0.898037 0.441401
O O6 0.158806 0.750000 0.445449
O O7 0.070766 0.893574 0.461894
O O8 0.044078 0.250000 0.082403
O O9 0.087497 0.394788 0.142402
O O10 0.079887 0.399039 0.034390
O O11 0.928357 0.376156 0.096503
O O12 0.555036 0.444965 0.250000
O O13 0.395017 0.366772 0.250825
O O14 0.500020 0.354325 0.337853
O O15 0.250000 0.161905 0.678791
O O16 0.101004 0.250000 0.689959
O O17 0.459487 0.250000 0.533543
O O18 0.478364 0.140714 0.446696
O O19 0.095967 0.750000 0.599286
#
# Coordination Sequence:
#
# PCOD8318564 Si02
#       7
#    16  16  16  16  16  16  16
#     4  10  20  31  50  83 122 162 203 247 303 374
#     4   9  18  33  54  83 123 167 206 248 302 371
#     4  11  23  41  65  95 129 168 216 270 324 386
#     4  11  21  38  60  85 121 161 210 263 319 387
#     4  10  21  38  62  91 121 158 209 265 322 386
#     4  10  22  40  65  95 129 168 215 264 321 386
#     4  11  24  43  65  91 126 171 219 273 330 386
#
# _framework density 21.065536999999999
#
# number of rings (size 3 to 8) (size 9 to 14) (size 15 to 20)
#    0.000    1.714    1.429    3.000    2.000    2.429 
#    0.000    4.286    0.000    1.714    0.000    0.000 
#    0.000    0.000    0.000    0.000    0.000    0.000 
#
# Total GULP energy -1388450.131353 kJ/mol
# GULP energy per Si atom -12396.876173 kJ/mol
# Density = 2.101759 g / cm^3
# Si number density = 21.065537 Si / 1000 Ang^3
#
#
#
# Elastic Constant Matrix: (Units=GPa)
#
#
# Indices 1 2 3 4 5 6 
#
# 1 110.3932 37.0184 44.4450 0.0000 0.0000 0.0000
# 2 37.0184 110.3934 44.4450 0.0000 0.0000 0.0000
# 3 44.4450 44.4450 123.7941 0.0000 0.0000 0.0000
# 4 0.0000 0.0000 0.0000 24.1580 0.0000 0.0000
# 5 0.0000 0.0000 0.0000 0.0000 24.1580 0.0000
# 6 0.0000 0.0000 0.0000 0.0000 0.0000 23.4347
#
#
#
# Elastic Compliance Matrix: (Units=1/GPa)
#
#
# Indices 1 2 3 4 5 6 
#
# 1 0.011143 -0.002485 -0.003108 0.000000 0.000000 0.000000
# 2 -0.002485 0.011143 -0.003108 0.000000 0.000000 0.000000
# 3 -0.003108 -0.003108 0.010310 0.000000 0.000000 0.000000
# 4 0.000000 0.000000 0.000000 0.041394 0.000000 0.000000
# 5 0.000000 0.000000 0.000000 0.000000 0.041394 0.000000
# 6 0.000000 0.000000 0.000000 0.000000 0.000000 0.042672
#
#
# Mechanical properties :
#
#
# Convention : Reuss Voigt Hill
#
# Bulk Modulus (GPa) = 65.82261 66.26638 66.04450
# Shear Modulus (GPa) = 27.69694 28.92829 28.31262
#
# Velocity S-wave (km/s) = 3.62995 3.70976 3.67007
# Velocity P-wave (km/s) = 6.99165 7.06225 7.02704
#
# Compressibility (1/GPa) = 0.01519235
#
# Stress axis : x y z
#
# Youngs Moduli (GPa) = 89.73914 89.73945 96.99354
#
# Poissons Ratio (x) = 0.22302 0.30150
# Poissons Ratio (y) = 0.22302 0.30150
# Poissons Ratio (z) = 0.27895 0.27895
#
# Static dielectric constant tensor:
#      x y z
#    x 3.779150 0.000000 0.000000 
#    y 0.000000 3.779150 0.000000 
#    z 0.000000 0.000000 3.876790 
# 
# 
# High freq. dielectric constant tensor:
#      x y z
#    x 1.815430 0.000000 0.000000 
#    y 0.000000 1.815430 0.000000 
#    z 0.000000 0.000000 1.832360 
# 
# From -- ./inp_files/8975.got.cif
#   From: 2010.03.12/outbox.cif.g09.slc.cpg/sg137_5_cif.got.tgz:8975.got - 2010.04.08 09:34:49.
