data_PCOD8318317
_publ_section_title
;
Structure prediction by ZEFSAII (Michael W. Deem and Ramdas Pophale) SiO2 
 PCOD8318317
Probable space group: P 42/M N M
;
_chemical_formula_sum "Si O2"
_cell_formula_units_Z 56
_cell_length_a 12.106592
_cell_length_b 12.106592
_cell_length_c 18.327381
_cell_angle_alpha 90.000000
_cell_angle_beta 90.000000
_cell_angle_gamma 90.000000
_cell_volume 2686.236350
_symmetry_space_group_name_H-M "P 42/M N M"
_symmetry_group_IT_number 136
_symmetry_cell_setting 'tetragonal'
loop_
_space_group_symop_operation_xyz
x,y,z
1/2-y,1/2+x,1/2+z
-x,-y,z
1/2+y,1/2-x,1/2+z
1/2+x,1/2-y,1/2-z
1/2-x,1/2+y,1/2-z
y,x,-z
-y,-x,-z
-x,-y,-z
1/2+y,1/2-x,1/2-z
x,y,-z
1/2-y,1/2+x,1/2-z
1/2-x,1/2+y,1/2+z
1/2+x,1/2-y,1/2+z
-y,-x,z
y,x,z
loop_
_atom_site_type_symbol
_atom_site_label
_atom_site_fract_x
_atom_site_fract_y
_atom_site_fract_z
Si Si1 0.734409 0.083513 0.316595
Si Si2 0.087122 0.087122 0.085892
Si Si3 0.886474 0.703418 0.584835
Si Si4 0.991071 0.700179 0.835942
O O1 0.810956 0.189045 0.331214
O O2 0.605871 0.115199 0.317220
O O3 0.760392 0.993351 0.378916
O O4 0.759931 0.032419 0.237484
O O5 0.208958 0.055751 0.109895
O O6 0.083996 0.083996 0.000000
O O7 0.000000 0.000000 0.118821
O O8 0.910996 0.683546 0.500000
O O9 0.780634 0.780634 0.596592
O O10 0.865743 0.587874 0.624242
#
# Coordination Sequence:
#
# PCOD8318317 Si02
#       4
#    16   8  16  16
#     4  12  26  44  69 102 138 180 231 280 340 408
#     4  11  24  42  70 104 138 178 225 286 350 404
#     4  11  26  47  71 100 138 182 227 278 340 406
#     4  12  24  45  69 102 138 179 230 285 340 406
#
# _framework density 20.847010000000001
#
# number of rings (size 3 to 8) (size 9 to 14) (size 15 to 20)
#    0.000    0.429    4.286    4.286    2.000    6.857 
#    0.000    1.429    0.000    0.000    0.000    0.000 
#    0.000    0.000    0.000    0.000    0.000    0.000 
#
# Total GULP energy -694858.376723 kJ/mol
# GULP energy per Si atom -12408.185299 kJ/mol
# Density = 2.079956 g / cm^3
# Si number density = 20.847010 Si / 1000 Ang^3
#
#
#
# Elastic Constant Matrix: (Units=GPa)
#
#
# Indices 1 2 3 4 5 6 
#
# 1 99.0757 28.6445 43.0890 0.0000 0.0000 0.0000
# 2 28.6445 99.0757 43.0890 0.0000 0.0000 0.0000
# 3 43.0890 43.0890 128.8116 0.0000 0.0000 0.0000
# 4 0.0000 0.0000 0.0000 28.9758 0.0000 0.0000
# 5 0.0000 0.0000 0.0000 0.0000 28.9758 0.0000
# 6 0.0000 0.0000 0.0000 0.0000 0.0000 28.1850
#
#
#
# Elastic Compliance Matrix: (Units=1/GPa)
#
#
# Indices 1 2 3 4 5 6 
#
# 1 0.012155 -0.002043 -0.003383 0.000000 0.000000 0.000000
# 2 -0.002043 0.012155 -0.003383 0.000000 0.000000 0.000000
# 3 -0.003383 -0.003383 0.010026 0.000000 0.000000 0.000000
# 4 0.000000 0.000000 0.000000 0.034512 0.000000 0.000000
# 5 0.000000 0.000000 0.000000 0.000000 0.034512 0.000000
# 6 0.000000 0.000000 0.000000 0.000000 0.000000 0.035480
#
#
# Mechanical properties :
#
#
# Convention : Reuss Voigt Hill
#
# Bulk Modulus (GPa) = 59.80879 61.84534 60.82707
# Shear Modulus (GPa) = 30.85857 31.37000 31.11429
#
# Velocity S-wave (km/s) = 3.85156 3.88335 3.86749
# Velocity P-wave (km/s) = 6.96642 7.05959 7.01316
#
# Compressibility (1/GPa) = 0.01671995
#
# Stress axis : x y z
#
# Youngs Moduli (GPa) = 82.26987 82.26987 99.73769
#
# Poissons Ratio (x) = 0.16809 0.33737
# Poissons Ratio (y) = 0.16809 0.33737
# Poissons Ratio (z) = 0.27828 0.27828
#
# Static dielectric constant tensor:
#      x y z
#    x 4.472060 0.000000 0.000000 
#    y 0.000000 4.472060 0.000000 
#    z 0.000000 0.000000 3.890180 
# 
# 
# High freq. dielectric constant tensor:
#      x y z
#    x 1.824380 0.000000 0.000000 
#    y 0.000000 1.824380 0.000000 
#    z 0.000000 0.000000 1.828190 
# 
# From -- ./inp_files/6924.got.cif
#   From: 2010.03.12/outbox.cif.g09.slc.cpg/sg136_4_cif.got.tgz:6924.got - 2010.04.06 18:39:43.
