data_PCOD8318741
_publ_section_title
;
Structure prediction by ZEFSAII (Michael W. Deem and Ramdas Pophale) SiO2 
 PCOD8318741
Probable space group: P 42/N M C
;
_chemical_formula_sum "Si O2"
_cell_formula_units_Z 112
_cell_length_a 14.818847
_cell_length_b 14.818847
_cell_length_c 23.797797
_cell_angle_alpha 90.000000
_cell_angle_beta 90.000000
_cell_angle_gamma 90.000000
_cell_volume 5225.954014
_symmetry_space_group_name_H-M "P 42/N M C"
_symmetry_group_IT_number 137
_space_group.IT_coordinate_system_code '2'
_symmetry_cell_setting 'tetragonal'
loop_
_space_group_symop_operation_xyz
x,y,z
1/2-y,x,1/2+z
1/2-x,1/2-y,z
y,1/2-x,1/2+z
1/2+x,-y,-z
-x,1/2+y,-z
1/2+y,1/2+x,1/2-z
-y,-x,1/2-z
-x,-y,-z
1/2+y,-x,1/2-z
1/2+x,1/2+y,-z
-y,1/2+x,1/2-z
1/2-x,y,z
x,1/2-y,z
1/2-y,1/2-x,1/2+z
y,x,1/2+z
loop_
_atom_site_type_symbol
_atom_site_label
_atom_site_fract_x
_atom_site_fract_y
_atom_site_fract_z
Si Si1 0.500926 0.855218 0.366204
Si Si2 0.887855 0.646748 0.545960
Si Si3 0.511489 0.151978 0.874221
Si Si4 0.350681 0.922027 0.914189
Si Si5 0.850096 0.026127 0.213062
Si Si6 0.044564 0.348851 0.067120
Si Si7 0.349345 0.435053 0.256334
O O1 0.490837 0.750000 0.383022
O O2 0.590003 0.898040 0.391893
O O3 0.507247 0.869411 0.299545
O O4 0.419216 0.912647 0.393441
O O5 0.847511 0.750000 0.547576
O O6 0.862460 0.589487 0.601254
O O7 0.853021 0.586984 0.494649
O O8 0.995530 0.654478 0.542294
O O9 0.546872 0.250000 0.893391
O O10 0.506033 0.146964 0.807030
O O11 0.250000 0.874056 0.914594
O O12 0.373057 0.960623 0.852295
O O13 0.435615 0.862913 0.934054
O O14 0.918260 0.081741 0.250000
O O15 0.750000 0.060443 0.226319
O O16 0.857254 0.922171 0.231824
O O17 0.059050 0.250000 0.091803
O O18 0.250000 0.389645 0.251828
#
# Coordination Sequence:
#
# PCOD8318741 Si02
#       7
#    16  16  16  16  16  16  16
#     4  11  24  41  61  90 128 167 210 258 309 375
#     4  11  23  43  67  92 124 160 206 264 319 374
#     4  11  22  39  65  93 123 162 207 259 320 377
#     4  10  22  41  67  95 127 167 211 261 317 374
#     4  11  22  38  61  92 130 169 209 256 308 368
#     4  12  25  43  66  91 126 169 210 257 315 378
#     4  10  21  38  62  90 123 161 204 257 315 375
#
# _framework density 21.431491999999999
#
# number of rings (size 3 to 8) (size 9 to 14) (size 15 to 20)
#    0.000    1.143    2.857    3.429    0.000    5.286 
#    0.000    4.286    0.000    4.286    0.000    0.000 
#    0.000    0.000    0.000    0.000    0.000    0.000 
#
# Total GULP energy -1388053.155850 kJ/mol
# GULP energy per Si atom -12393.331749 kJ/mol
# Density = 2.138271 g / cm^3
# Si number density = 21.431492 Si / 1000 Ang^3
#
#
#
# Elastic Constant Matrix: (Units=GPa)
#
#
# Indices 1 2 3 4 5 6 
#
# 1 151.8421 76.0994 49.7833 0.0000 0.0000 0.0000
# 2 76.0994 151.8437 49.7830 0.0000 0.0000 0.0000
# 3 49.7833 49.7830 66.4853 0.0000 0.0000 0.0000
# 4 0.0000 0.0000 0.0000 2.9395 0.0000 0.0000
# 5 0.0000 0.0000 0.0000 0.0000 2.9448 0.0000
# 6 0.0000 0.0000 0.0000 0.0000 0.0000 -1.5595
#
#
#
# Elastic Compliance Matrix: (Units=1/GPa)
#
#
# Indices 1 2 3 4 5 6 
#
# 1 0.009861 -0.003342 -0.004882 0.000000 0.000000 0.000000
# 2 -0.003342 0.009861 -0.004882 0.000000 0.000000 0.000000
# 3 -0.004882 -0.004882 0.022351 0.000000 0.000000 0.000000
# 4 0.000000 0.000000 0.000000 0.340192 0.000000 0.000000
# 5 0.000000 0.000000 0.000000 0.000000 0.339581 0.000000
# 6 0.000000 0.000000 0.000000 0.000000 0.000000 -0.641234
#
#
# Mechanical properties :
#
#
# Convention : Reuss Voigt Hill
#
# Bulk Modulus (GPa) = 63.03663 80.16693 71.60178
# Shear Modulus (GPa) = 44.59902 13.83199 29.21551
#
# Velocity S-wave (km/s) = 4.56675 2.54324 3.69617
# Velocity P-wave (km/s) = 7.56861 6.79054 7.19011
#
# Compressibility (1/GPa) = 0.01586379
#
# Stress axis : x y z
#
# Youngs Moduli (GPa) = 101.40956 101.41130 44.73977
#
# Poissons Ratio (x) = 0.33887 0.21841
# Poissons Ratio (y) = 0.33886 0.21840
# Poissons Ratio (z) = 0.49505 0.49504
#
# Static dielectric constant tensor:
#      x y z
#    x 3.933400 0.000000 0.000000 
#    y 0.000000 3.933400 0.000000 
#    z 0.000000 0.000000 3.863300 
# 
# 
# High freq. dielectric constant tensor:
#      x y z
#    x 1.839950 0.000000 0.000000 
#    y 0.000000 1.839950 0.000000 
#    z 0.000000 0.000000 1.841480 
# 
# From -- ./inp_files/9000.got.cif
#   From: 2010.03.12/outbox.cif.g09.slc.cpg/sg137_5_cif.got.tgz:9000.got - 2010.04.08 09:34:49.
