data_PCOD8318550
_publ_section_title
;
Structure prediction by ZEFSAII (Michael W. Deem and Ramdas Pophale) SiO2 
 PCOD8318550
Probable space group: P 42/N M C
;
_chemical_formula_sum "Si O2"
_cell_formula_units_Z 58
_cell_length_a 10.493089
_cell_length_b 10.493089
_cell_length_c 26.820151
_cell_angle_alpha 90.000000
_cell_angle_beta 90.000000
_cell_angle_gamma 90.000000
_cell_volume 2953.030493
_symmetry_space_group_name_H-M "P 42/N M C"
_symmetry_group_IT_number 137
_space_group.IT_coordinate_system_code '2'
_symmetry_cell_setting 'tetragonal'
loop_
_space_group_symop_operation_xyz
x,y,z
1/2-y,x,1/2+z
1/2-x,1/2-y,z
y,1/2-x,1/2+z
1/2+x,-y,-z
-x,1/2+y,-z
1/2+y,1/2+x,1/2-z
-y,-x,1/2-z
-x,-y,-z
1/2+y,-x,1/2-z
1/2+x,1/2+y,-z
-y,1/2+x,1/2-z
1/2-x,y,z
x,1/2-y,z
1/2-y,1/2-x,1/2+z
y,x,1/2+z
loop_
_atom_site_type_symbol
_atom_site_label
_atom_site_fract_x
_atom_site_fract_y
_atom_site_fract_z
Si Si1 0.499372 0.958484 0.360706
Si Si2 0.750000 0.750000 0.444273
Si Si3 0.250000 0.392371 0.206301
Si Si4 0.750000 0.477531 0.943824
Si Si5 0.250000 0.750000 0.980156
Si Si6 0.029120 0.750000 0.901222
Si Si7 0.750000 0.989646 0.689444
Si Si8 0.750000 0.250000 0.750000
O O1 0.534423 0.873482 0.313104
O O2 0.466397 0.875029 0.409608
O O3 0.618136 0.055076 0.371211
O O4 0.373113 0.035691 0.345442
O O5 0.615183 0.750000 0.473414
O O6 0.750000 0.876950 0.410534
O O7 0.250000 0.250000 0.184895
O O8 0.250000 0.388024 0.266057
O O9 0.750000 0.373547 0.985945
O O10 0.379835 0.750000 0.948940
O O11 0.750000 0.130730 0.712835
#
# Coordination Sequence:
#
# PCOD8318550 Si02
#       8
#    16   4   8   8   4   8   8   2
#     4  10  19  36  60  84 118 157 199 234 302 358
#     4   8  18  36  60  84 100 150 208 220 284 358
#     4  11  19  33  57  84 116 159 195 235 288 364
#     4   9  19  35  60  88 113 152 194 248 300 360
#     4  12  24  39  56  90 124 146 198 260 315 336
#     4  10  22  40  61  78 117 170 194 234 292 384
#     4  12  20  32  56  95 118 140 196 260 281 332
#     4  12  16  26  52  92 120 128 164 260 314 288
#
# _framework density 19.640841999999999
#
# number of rings (size 3 to 8) (size 9 to 14) (size 15 to 20)
#    0.000    1.655    4.138    2.483    1.931    4.414 
#    2.483    1.379    0.000    0.000    3.586    0.000 
#    0.000    0.000    0.000    0.000    0.000    0.000 
#
# Total GULP energy -718761.180254 kJ/mol
# GULP energy per Si atom -12392.434142 kJ/mol
# Density = 1.959614 g / cm^3
# Si number density = 19.640842 Si / 1000 Ang^3
#
#
#
# Elastic Constant Matrix: (Units=GPa)
#
#
# Indices 1 2 3 4 5 6 
#
# 1 121.5571 22.9050 54.6636 0.0000 0.0000 0.0000
# 2 22.9050 121.5571 54.6636 0.0000 0.0000 0.0000
# 3 54.6636 54.6636 104.3424 0.0000 0.0000 0.0000
# 4 0.0000 0.0000 0.0000 -3.9764 0.0000 0.0000
# 5 0.0000 0.0000 0.0000 0.0000 -3.9764 0.0000
# 6 0.0000 0.0000 0.0000 0.0000 0.0000 5.6904
#
#
#
# Elastic Compliance Matrix: (Units=1/GPa)
#
#
# Indices 1 2 3 4 5 6 
#
# 1 0.010803 0.000666 -0.006009 0.000000 0.000000 0.000000
# 2 0.000666 0.010803 -0.006009 0.000000 0.000000 0.000000
# 3 -0.006009 -0.006009 0.015880 0.000000 0.000000 0.000000
# 4 0.000000 0.000000 0.000000 -0.251482 0.000000 0.000000
# 5 0.000000 0.000000 0.000000 0.000000 -0.251482 0.000000
# 6 0.000000 0.000000 0.000000 0.000000 0.000000 0.175735
#
#
# Mechanical properties :
#
#
# Convention : Reuss Voigt Hill
#
# Bulk Modulus (GPa) = 67.64174 67.99124 67.81649
# Shear Modulus (GPa) = -19.07572 13.89580 -2.58996
#
# Velocity S-wave (km/s) = -3.11983 2.66276 -1.14958
# Velocity P-wave (km/s) = 4.64072 6.64426 5.73073
#
# Compressibility (1/GPa) = 0.01478377
#
# Stress axis : x y z
#
# Youngs Moduli (GPa) = 92.56586 92.56586 62.97354
#
# Poissons Ratio (x) = -0.06169 0.37839
# Poissons Ratio (y) = -0.06169 0.37839
# Poissons Ratio (z) = 0.55621 0.55621
#
# Static dielectric constant tensor:
#      x y z
#    x 3.675990 0.000000 0.000000 
#    y 0.000000 3.675990 0.000000 
#    z 0.000000 0.000000 3.310510 
# 
# 
# High freq. dielectric constant tensor:
#      x y z
#    x 1.757150 0.000000 0.000000 
#    y 0.000000 1.757150 0.000000 
#    z 0.000000 0.000000 1.741770 
# 
# From -- ./inp_files/7443.got.cif
#   From: 2010.03.12/outbox.cif.g09.slc.cpg/sg137_4_cif.got.tgz:7443.got - 2010.04.08 09:34:49.
