data_PCOD8318030
_publ_section_title
;
Structure prediction by ZEFSAII (Michael W. Deem and Ramdas Pophale) SiO2 
 PCOD8318030
Probable space group: P 42/M N M
;
_chemical_formula_sum "Si O2"
_cell_formula_units_Z 98
_cell_length_a 14.829390
_cell_length_b 14.829390
_cell_length_c 24.525338
_cell_angle_alpha 90.000000
_cell_angle_beta 90.000000
_cell_angle_gamma 90.000000
_cell_volume 5393.386890
_symmetry_space_group_name_H-M "P 42/M N M"
_symmetry_group_IT_number 136
_symmetry_cell_setting 'tetragonal'
loop_
_space_group_symop_operation_xyz
x,y,z
1/2-y,1/2+x,1/2+z
-x,-y,z
1/2+y,1/2-x,1/2+z
1/2+x,1/2-y,1/2-z
1/2-x,1/2+y,1/2-z
y,x,-z
-y,-x,-z
-x,-y,-z
1/2+y,1/2-x,1/2-z
x,y,-z
1/2-y,1/2+x,1/2-z
1/2-x,1/2+y,1/2+z
1/2+x,1/2-y,1/2+z
-y,-x,z
y,x,z
loop_
_atom_site_type_symbol
_atom_site_label
_atom_site_fract_x
_atom_site_fract_y
_atom_site_fract_z
Si Si1 0.219836 0.366224 0.346724
Si Si2 0.769881 0.464468 0.857345
Si Si3 0.428075 0.571926 0.435300
Si Si4 0.567901 0.432100 0.890363
Si Si5 0.471691 0.145275 0.750828
Si Si6 0.089713 0.451004 0.063149
Si Si7 0.506664 0.236052 0.436821
Si Si8 0.500000 0.500000 0.000000
O O1 0.312612 0.312612 0.336867
O O2 0.138080 0.297121 0.347586
O O3 0.206764 0.440385 0.299557
O O4 0.219442 0.414310 0.405157
O O5 0.666139 0.463631 0.872106
O O6 0.789374 0.521126 0.802708
O O7 0.823485 0.512607 0.906046
O O8 0.500000 0.500000 0.411369
O O9 0.430621 0.569380 0.500000
O O10 0.450252 0.671805 0.414223
O O11 0.500000 0.500000 0.859330
O O12 0.557765 0.442236 0.955636
O O13 0.567442 0.100747 0.735497
O O14 0.000000 0.500000 0.086275
O O15 0.078872 0.343875 0.072253
O O16 0.102945 0.475523 0.000000
O O17 0.479432 0.243123 0.500000
#
# Coordination Sequence:
#
# PCOD8318030 Si02
#       8
#    16  16   8   8  16  16  16   2
#     4  11  21  35  58  89 118 144 195 248 293 351
#     4  11  21  38  62  83 114 157 193 242 309 345
#     4   9  18  34  54  74 116 163 192 219 271 350
#     4  10  24  44  61  81 116 159 206 249 284 351
#     4   9  20  36  60  86 115 151 188 239 298 364
#     4  10  20  33  56  89 122 146 182 244 300 352
#     4  10  20  36  55  85 119 156 194 236 290 360
#     4   8  24  48  60  76 116 160 212 246 276 340
#
# _framework density 18.170400000000001
#
# number of rings (size 3 to 8) (size 9 to 14) (size 15 to 20)
#    0.245    1.714    2.449    1.469    3.429    1.633 
#    1.469    0.816    8.980    0.980    0.000    0.000 
#    0.000    0.000    0.000    0.000    0.000    0.000 
#
# Total GULP energy -1214214.623223 kJ/mol
# GULP energy per Si atom -12389.945135 kJ/mol
# Density = 1.812904 g / cm^3
# Si number density = 18.170400 Si / 1000 Ang^3
#
#
#
# Elastic Constant Matrix: (Units=GPa)
#
#
# Indices 1 2 3 4 5 6 
#
# 1 113.4723 52.6797 54.1542 0.0000 0.0000 0.0000
# 2 52.6797 113.4721 54.1541 0.0000 0.0000 0.0000
# 3 54.1542 54.1541 98.4983 0.0000 0.0000 0.0000
# 4 0.0000 0.0000 0.0000 18.6776 0.0000 0.0000
# 5 0.0000 0.0000 0.0000 0.0000 18.6776 0.0000
# 6 0.0000 0.0000 0.0000 0.0000 0.0000 28.8020
#
#
#
# Elastic Compliance Matrix: (Units=1/GPa)
#
#
# Indices 1 2 3 4 5 6 
#
# 1 0.012915 -0.003534 -0.005157 0.000000 0.000000 0.000000
# 2 -0.003534 0.012915 -0.005157 0.000000 0.000000 0.000000
# 3 -0.005157 -0.005157 0.015823 0.000000 0.000000 0.000000
# 4 0.000000 0.000000 0.000000 0.053540 0.000000 0.000000
# 5 0.000000 0.000000 0.000000 0.000000 0.053540 0.000000
# 6 0.000000 0.000000 0.000000 0.000000 0.000000 0.034720
#
#
# Mechanical properties :
#
#
# Convention : Reuss Voigt Hill
#
# Bulk Modulus (GPa) = 71.65905 71.93542 71.79723
# Shear Modulus (GPa) = 23.16922 24.19508 23.68215
#
# Velocity S-wave (km/s) = 3.57474 3.65302 3.61409
# Velocity P-wave (km/s) = 7.52072 7.58077 7.55080
#
# Compressibility (1/GPa) = 0.01395497
#
# Stress axis : x y z
#
# Youngs Moduli (GPa) = 77.42978 77.42968 63.19717
#
# Poissons Ratio (x) = 0.27367 0.32593
# Poissons Ratio (y) = 0.27367 0.32593
# Poissons Ratio (z) = 0.39933 0.39933
#
# Static dielectric constant tensor:
#      x y z
#    x 3.380300 0.000000 0.000000 
#    y 0.000000 3.380300 0.000000 
#    z 0.000000 0.000000 3.304980 
# 
# 
# High freq. dielectric constant tensor:
#      x y z
#    x 1.700090 0.000000 0.000000 
#    y 0.000000 1.700090 0.000000 
#    z 0.000000 0.000000 1.701010 
# 
# From -- ./inp_files/8451.got.cif
#   From: 2010.03.12/outbox.cif.g09.slc.cpg/sg136_5_cif.got.tgz:8451.got - 2010.04.06 18:39:43.
