data_PCOD8318140
_publ_section_title
;
Structure prediction by ZEFSAII (Michael W. Deem and Ramdas Pophale) SiO2 
 PCOD8318140
Probable space group: P 42/M N M
;
_chemical_formula_sum "Si O2"
_cell_formula_units_Z 64
_cell_length_a 11.577506
_cell_length_b 11.577506
_cell_length_c 23.922676
_cell_angle_alpha 90.000000
_cell_angle_beta 90.000000
_cell_angle_gamma 90.000000
_cell_volume 3206.563080
_symmetry_space_group_name_H-M "P 42/M N M"
_symmetry_group_IT_number 136
_symmetry_cell_setting 'tetragonal'
loop_
_space_group_symop_operation_xyz
x,y,z
1/2-y,1/2+x,1/2+z
-x,-y,z
1/2+y,1/2-x,1/2+z
1/2+x,1/2-y,1/2-z
1/2-x,1/2+y,1/2-z
y,x,-z
-y,-x,-z
-x,-y,-z
1/2+y,1/2-x,1/2-z
x,y,-z
1/2-y,1/2+x,1/2-z
1/2-x,1/2+y,1/2+z
1/2+x,1/2-y,1/2+z
-y,-x,z
y,x,z
loop_
_atom_site_type_symbol
_atom_site_label
_atom_site_fract_x
_atom_site_fract_y
_atom_site_fract_z
Si Si1 0.635424 0.024938 0.436452
Si Si2 0.751097 0.059103 0.772434
Si Si3 0.584780 0.222194 0.828757
Si Si4 0.402728 0.597273 0.338417
Si Si5 0.787089 0.787089 0.063410
O O1 0.669375 0.991294 0.500000
O O2 0.678577 0.154701 0.423790
O O3 0.500000 0.000000 0.427201
O O4 0.703533 0.942193 0.393891
O O5 0.846491 0.153510 0.782873
O O6 0.634205 0.106162 0.799923
O O7 0.743633 0.032322 0.706362
O O8 0.788603 0.943845 0.805455
O O9 0.668956 0.331045 0.823724
O O10 0.500000 0.500000 0.341343
O O11 0.369422 0.630579 0.400976
O O12 0.817032 0.817032 0.000000
#
# Coordination Sequence:
#
# PCOD8318140 Si02
#       5
#    16  16  16   8   8
#     4  10  23  42  62  89 123 159 207 258 303 358
#     4  10  23  38  55  88 121 154 197 249 303 360
#     4  11  24  38  60  89 118 161 202 241 305 367
#     4  10  20  39  58  81 126 156 192 253 301 353
#     4  10  22  39  63  92 120 160 206 253 303 357
#
# _framework density 19.959064999999999
#
# number of rings (size 3 to 8) (size 9 to 14) (size 15 to 20)
#    0.000    1.750    1.250    1.500    8.750    0.750 
#    0.000    0.000    0.000   11.250    0.000    0.000 
#    0.000    0.000    0.000    0.000    0.000    0.000 
#
# Total GULP energy -793414.633683 kJ/mol
# GULP energy per Si atom -12397.103651 kJ/mol
# Density = 1.991364 g / cm^3
# Si number density = 19.959065 Si / 1000 Ang^3
#
#
#
# Elastic Constant Matrix: (Units=GPa)
#
#
# Indices 1 2 3 4 5 6 
#
# 1 49.6671 20.2618 28.0452 0.0000 0.0000 0.0000
# 2 20.2618 49.6671 28.0452 0.0000 0.0000 0.0000
# 3 28.0452 28.0452 140.4040 0.0000 0.0000 0.0000
# 4 0.0000 0.0000 0.0000 28.7502 0.0000 0.0000
# 5 0.0000 0.0000 0.0000 0.0000 28.7502 0.0000
# 6 0.0000 0.0000 0.0000 0.0000 0.0000 21.6168
#
#
#
# Elastic Compliance Matrix: (Units=1/GPa)
#
#
# Indices 1 2 3 4 5 6 
#
# 1 0.025518 -0.008490 -0.003401 0.000000 0.000000 0.000000
# 2 -0.008490 0.025518 -0.003401 0.000000 0.000000 0.000000
# 3 -0.003401 -0.003401 0.008481 0.000000 0.000000 0.000000
# 4 0.000000 0.000000 0.000000 0.034782 0.000000 0.000000
# 5 0.000000 0.000000 0.000000 0.000000 0.034782 0.000000
# 6 0.000000 0.000000 0.000000 0.000000 0.000000 0.046260
#
#
# Mechanical properties :
#
#
# Convention : Reuss Voigt Hill
#
# Bulk Modulus (GPa) = 34.56308 43.60475 39.08391
# Shear Modulus (GPa) = 23.19422 26.71584 24.95503
#
# Velocity S-wave (km/s) = 3.41264 3.66256 3.53981
# Velocity P-wave (km/s) = 5.73435 6.30717 6.02757
#
# Compressibility (1/GPa) = 0.02893261
#
# Stress axis : x y z
#
# Youngs Moduli (GPa) = 39.18801 39.18801 117.90880
#
# Poissons Ratio (x) = 0.33269 0.40105
# Poissons Ratio (y) = 0.33269 0.40105
# Poissons Ratio (z) = 0.13329 0.13329
#
# Static dielectric constant tensor:
#      x y z
#    x 3.696610 0.000000 0.000000 
#    y 0.000000 3.696610 0.000000 
#    z 0.000000 0.000000 3.691500 
# 
# 
# High freq. dielectric constant tensor:
#      x y z
#    x 1.776840 0.000000 0.000000 
#    y 0.000000 1.776840 0.000000 
#    z 0.000000 0.000000 1.789090 
# 
# From -- ./inp_files/8148.got.cif
#   From: 2010.03.12/outbox.cif.g09.slc.cpg/sg136_5_cif.got.tgz:8148.got - 2010.04.06 18:39:43.
