data_PCOD8318049
_publ_section_title
;
Structure prediction by ZEFSAII (Michael W. Deem and Ramdas Pophale) SiO2 
 PCOD8318049
Probable space group: P 42/M N M
;
_chemical_formula_sum "Si O2"
_cell_formula_units_Z 80
_cell_length_a 16.838320
_cell_length_b 16.838320
_cell_length_c 14.089530
_cell_angle_alpha 90.000000
_cell_angle_beta 90.000000
_cell_angle_gamma 90.000000
_cell_volume 3994.790639
_symmetry_space_group_name_H-M "P 42/M N M"
_symmetry_group_IT_number 136
_symmetry_cell_setting 'tetragonal'
loop_
_space_group_symop_operation_xyz
x,y,z
1/2-y,1/2+x,1/2+z
-x,-y,z
1/2+y,1/2-x,1/2+z
1/2+x,1/2-y,1/2-z
1/2-x,1/2+y,1/2-z
y,x,-z
-y,-x,-z
-x,-y,-z
1/2+y,1/2-x,1/2-z
x,y,-z
1/2-y,1/2+x,1/2-z
1/2-x,1/2+y,1/2+z
1/2+x,1/2-y,1/2+z
-y,-x,z
y,x,z
loop_
_atom_site_type_symbol
_atom_site_label
_atom_site_fract_x
_atom_site_fract_y
_atom_site_fract_z
Si Si1 0.174304 0.700251 0.776059
Si Si2 0.027382 0.743431 0.110666
Si Si3 0.907105 0.222904 0.604425
Si Si4 0.502388 0.369591 0.244429
Si Si5 0.954741 0.614054 0.770432
O O1 0.262574 0.737427 0.785600
O O2 0.139177 0.713906 0.669941
O O3 0.173215 0.604431 0.788285
O O4 0.118552 0.742068 0.853921
O O5 0.984705 0.659538 0.135708
O O6 0.983951 0.817842 0.160437
O O7 0.023787 0.757578 0.000000
O O8 0.927852 0.259203 0.500000
O O9 0.853049 0.146952 0.588717
O O10 0.986258 0.191869 0.658106
O O11 0.581993 0.418008 0.221397
O O12 0.428033 0.428033 0.260847
O O13 0.907530 0.531815 0.794623
#
# Coordination Sequence:
#
# PCOD8318049 Si02
#       5
#    16  16  16  16  16
#     4   9  18  33  53  77 106 137 170 215 267 318
#     4  10  20  34  54  78 104 139 181 219 262 322
#     4   8  14  26  46  72 101 136 179 223 267 315
#     4   9  18  31  47  73 111 149 183 223 268 313
#     4   9  19  37  56  76 103 137 178 225 274 316
#
# _framework density 20.026081000000001
#
# number of rings (size 3 to 8) (size 9 to 14) (size 15 to 20)
#    0.000    3.000    0.000    1.800    0.000    4.000 
#    0.000   11.000    0.000   19.200    0.000   16.800 
#    0.000    0.000    0.000    0.000    0.000    0.000 
#
# Total GULP energy -991132.911851 kJ/mol
# GULP energy per Si atom -12389.161398 kJ/mol
# Density = 1.998050 g / cm^3
# Si number density = 20.026081 Si / 1000 Ang^3
#
#
#
# Elastic Constant Matrix: (Units=GPa)
#
#
# Indices 1 2 3 4 5 6 
#
# 1 77.7539 32.4700 9.1901 0.0000 0.0000 0.0000
# 2 32.4700 77.7539 9.1901 0.0000 0.0000 0.0000
# 3 9.1901 9.1901 88.2534 0.0000 0.0000 0.0000
# 4 0.0000 0.0000 0.0000 15.5629 0.0000 0.0000
# 5 0.0000 0.0000 0.0000 0.0000 15.5629 0.0000
# 6 0.0000 0.0000 0.0000 0.0000 0.0000 34.6221
#
#
#
# Elastic Compliance Matrix: (Units=1/GPa)
#
#
# Indices 1 2 3 4 5 6 
#
# 1 0.015658 -0.006425 -0.000961 0.000000 0.000000 0.000000
# 2 -0.006425 0.015658 -0.000961 0.000000 0.000000 0.000000
# 3 -0.000961 -0.000961 0.011531 0.000000 0.000000 0.000000
# 4 0.000000 0.000000 0.000000 0.064255 0.000000 0.000000
# 5 0.000000 0.000000 0.000000 0.000000 0.064255 0.000000
# 6 0.000000 0.000000 0.000000 0.000000 0.000000 0.028883
#
#
# Mechanical properties :
#
#
# Convention : Reuss Voigt Hill
#
# Bulk Modulus (GPa) = 38.23938 38.38459 38.31199
# Shear Modulus (GPa) = 22.15782 26.01031 24.08406
#
# Velocity S-wave (km/s) = 3.32994 3.60783 3.47166
# Velocity P-wave (km/s) = 5.82417 6.04683 5.93654
#
# Compressibility (1/GPa) = 0.02615105
#
# Stress axis : x y z
#
# Youngs Moduli (GPa) = 63.86577 63.86577 86.72088
#
# Poissons Ratio (x) = 0.41034 0.08338
# Poissons Ratio (y) = 0.41034 0.08338
# Poissons Ratio (z) = 0.06140 0.06140
#
# Static dielectric constant tensor:
#      x y z
#    x 3.766780 0.000000 0.000000 
#    y 0.000000 3.766780 0.000000 
#    z 0.000000 0.000000 3.521320 
# 
# 
# High freq. dielectric constant tensor:
#      x y z
#    x 1.780490 0.000000 0.000000 
#    y 0.000000 1.780490 0.000000 
#    z 0.000000 0.000000 1.740460 
# 
# From -- ./inp_files/4903.got.cif
#   From: 2010.03.12/outbox.cif.g09.slc.cpg/sg136_3_cif.got.tgz:4903.got - 2010.04.06 18:39:43.
