data_PCOD8318719
_publ_section_title
;
Structure prediction by ZEFSAII (Michael W. Deem and Ramdas Pophale) SiO2 
 PCOD8318719
Probable space group: P 42/N M C
;
_chemical_formula_sum "Si O2"
_cell_formula_units_Z 96
_cell_length_a 15.455264
_cell_length_b 15.455264
_cell_length_c 20.003160
_cell_angle_alpha 90.000000
_cell_angle_beta 90.000000
_cell_angle_gamma 90.000000
_cell_volume 4778.058520
_symmetry_space_group_name_H-M "P 42/N M C"
_symmetry_group_IT_number 137
_space_group.IT_coordinate_system_code '2'
_symmetry_cell_setting 'tetragonal'
loop_
_space_group_symop_operation_xyz
x,y,z
1/2-y,x,1/2+z
1/2-x,1/2-y,z
y,1/2-x,1/2+z
1/2+x,-y,-z
-x,1/2+y,-z
1/2+y,1/2+x,1/2-z
-y,-x,1/2-z
-x,-y,-z
1/2+y,-x,1/2-z
1/2+x,1/2+y,-z
-y,1/2+x,1/2-z
1/2-x,y,z
x,1/2-y,z
1/2-y,1/2-x,1/2+z
y,x,1/2+z
loop_
_atom_site_type_symbol
_atom_site_label
_atom_site_fract_x
_atom_site_fract_y
_atom_site_fract_z
Si Si1 0.020209 0.420847 0.329495
Si Si2 0.148568 0.655263 0.042589
Si Si3 0.348009 0.349251 0.581991
Si Si4 0.151636 0.924330 0.313849
Si Si5 0.985652 0.653791 0.807287
Si Si6 0.015366 0.147434 0.474289
O O1 0.082741 0.499345 0.312317
O O2 0.036546 0.350467 0.271579
O O3 0.043123 0.383534 0.401438
O O4 0.918784 0.445419 0.327941
O O5 0.250000 0.657516 0.031274
O O6 0.109462 0.750000 0.022300
O O7 0.131341 0.634800 0.119868
O O8 0.108890 0.578388 0.996694
O O9 0.250000 0.360302 0.555530
O O10 0.370269 0.250000 0.597272
O O11 0.363104 0.398378 0.651320
O O12 0.411806 0.387143 0.525362
O O13 0.136897 0.863104 0.250000
O O14 0.250000 0.960135 0.312295
O O15 0.022878 0.750000 0.822820
O O16 0.012836 0.250000 0.475069
#
# Coordination Sequence:
#
# PCOD8318719 Si02
#       6
#    16  16  16  16  16  16
#     4  11  23  39  55  89 118 148 202 252 297 360
#     4   9  19  35  55  83 116 154 199 238 288 362
#     4   9  19  36  58  84 111 149 200 240 286 359
#     4  11  22  37  58  87 123 159 192 243 301 361
#     4  10  21  39  60  79 112 155 195 247 298 342
#     4  10  21  37  60  82 115 157 192 247 308 353
#
# _framework density 20.091843999999998
#
# number of rings (size 3 to 8) (size 9 to 14) (size 15 to 20)
#    0.000    2.000    1.667    2.000    0.000    5.500 
#    0.000    3.333    0.000   13.000    0.000    0.000 
#    0.000    0.000    0.000    0.000    0.000    0.000 
#
# Total GULP energy -1190177.780845 kJ/mol
# GULP energy per Si atom -12397.685217 kJ/mol
# Density = 2.004611 g / cm^3
# Si number density = 20.091844 Si / 1000 Ang^3
#
#
#
# Elastic Constant Matrix: (Units=GPa)
#
#
# Indices 1 2 3 4 5 6 
#
# 1 78.6381 44.5644 43.6914 0.0000 0.0000 0.0000
# 2 44.5644 78.6381 43.6920 0.0000 0.0000 0.0000
# 3 43.6914 43.6920 142.5011 0.0000 0.0000 0.0000
# 4 0.0000 0.0000 0.0000 24.5389 0.0000 0.0000
# 5 0.0000 0.0000 0.0000 0.0000 24.5390 0.0000
# 6 0.0000 0.0000 0.0000 0.0000 0.0000 17.8593
#
#
#
# Elastic Compliance Matrix: (Units=1/GPa)
#
#
# Indices 1 2 3 4 5 6 
#
# 1 0.019860 -0.009488 -0.003180 0.000000 0.000000 0.000000
# 2 -0.009488 0.019860 -0.003180 0.000000 0.000000 0.000000
# 3 -0.003180 -0.003180 0.008968 0.000000 0.000000 0.000000
# 4 0.000000 0.000000 0.000000 0.040752 0.000000 0.000000
# 5 0.000000 0.000000 0.000000 0.000000 0.040752 0.000000
# 6 0.000000 0.000000 0.000000 0.000000 0.000000 0.055993
#
#
# Mechanical properties :
#
#
# Convention : Reuss Voigt Hill
#
# Bulk Modulus (GPa) = 58.85317 62.63031 60.74174
# Shear Modulus (GPa) = 22.36685 24.57606 23.47146
#
# Velocity S-wave (km/s) = 3.34013 3.50120 3.42161
# Velocity P-wave (km/s) = 6.65064 6.89813 6.77551
#
# Compressibility (1/GPa) = 0.01699144
#
# Stress axis : x y z
#
# Youngs Moduli (GPa) = 50.35196 50.35166 111.51207
#
# Poissons Ratio (x) = 0.47773 0.35462
# Poissons Ratio (y) = 0.47774 0.35464
# Poissons Ratio (z) = 0.16013 0.16013
#
# Static dielectric constant tensor:
#      x y z
#    x 3.707360 0.000000 0.000000 
#    y 0.000000 3.707360 0.000000 
#    z 0.000000 0.000000 3.864210 
# 
# 
# High freq. dielectric constant tensor:
#      x y z
#    x 1.779600 0.000000 0.000000 
#    y 0.000000 1.779600 0.000000 
#    z 0.000000 0.000000 1.790950 
# 
# From -- ./inp_files/7856.got.cif
#   From: 2010.03.12/outbox.cif.g09.slc.cpg/sg137_4_cif.got.tgz:7856.got - 2010.04.08 09:34:49.
