data_PCOD8318324
_publ_section_title
;
Structure prediction by ZEFSAII (Michael W. Deem and Ramdas Pophale) SiO2 
 PCOD8318324
Probable space group: P 42/M N M
;
_chemical_formula_sum "Si O2"
_cell_formula_units_Z 72
_cell_length_a 10.314896
_cell_length_b 10.314896
_cell_length_c 29.952455
_cell_angle_alpha 90.000000
_cell_angle_beta 90.000000
_cell_angle_gamma 90.000000
_cell_volume 3186.853736
_symmetry_space_group_name_H-M "P 42/M N M"
_symmetry_group_IT_number 136
_symmetry_cell_setting 'tetragonal'
loop_
_space_group_symop_operation_xyz
x,y,z
1/2-y,1/2+x,1/2+z
-x,-y,z
1/2+y,1/2-x,1/2+z
1/2+x,1/2-y,1/2-z
1/2-x,1/2+y,1/2-z
y,x,-z
-y,-x,-z
-x,-y,-z
1/2+y,1/2-x,1/2-z
x,y,-z
1/2-y,1/2+x,1/2-z
1/2-x,1/2+y,1/2+z
1/2+x,1/2-y,1/2+z
-y,-x,z
y,x,z
loop_
_atom_site_type_symbol
_atom_site_label
_atom_site_fract_x
_atom_site_fract_y
_atom_site_fract_z
Si Si1 0.287092 0.506092 0.500000
Si Si2 0.896343 0.322414 0.085354
Si Si3 0.172510 0.388912 0.682858
Si Si4 0.707837 0.510200 0.049994
Si Si5 0.711991 0.505038 0.768448
O O1 0.390709 0.390709 0.500000
O O2 0.354841 0.645159 0.500000
O O3 0.200856 0.498762 0.545283
O O4 0.792067 0.207934 0.083315
O O5 0.961145 0.331629 0.134651
O O6 0.829156 0.463248 0.079164
O O7 0.276250 0.276250 0.679247
O O8 0.214443 0.489421 0.720927
O O9 0.034180 0.320137 0.694753
O O10 0.604387 0.395614 0.047781
O O11 0.638925 0.638925 0.070547
O O12 0.756991 0.540470 0.000000
O O13 0.605532 0.394469 0.763519
O O14 0.642102 0.642102 0.780776
#
# Coordination Sequence:
#
# PCOD8318324 Si02
#       5
#     8  16  16  16  16
#     4   9  16  24  35  55  89 132 174 216 260 307
#     4   9  15  24  37  57  87 124 169 213 254 312
#     4   9  18  30  47  69  95 134 177 217 270 329
#     4   8  12  18  30  49  77 116 159 204 254 304
#     4   9  18  33  50  71 101 132 169 221 272 322
#
# _framework density 22.592815999999999
#
# number of rings (size 3 to 8) (size 9 to 14) (size 15 to 20)
#    0.000    3.222    1.111    0.667    0.000    2.222 
#    0.000    8.889    0.000    0.000    0.000    0.000 
#    0.000    3.556    0.000    8.444    0.000   22.889 
#
# Total GULP energy -891980.926272 kJ/mol
# GULP energy per Si atom -12388.623976 kJ/mol
# Density = 2.254139 g / cm^3
# Si number density = 22.592816 Si / 1000 Ang^3
#
#
#
# Elastic Constant Matrix: (Units=GPa)
#
#
# Indices 1 2 3 4 5 6 
#
# 1 31.1031 21.4680 36.1599 0.0000 0.0000 0.0000
# 2 21.4680 31.1030 36.1596 0.0000 0.0000 0.0000
# 3 36.1599 36.1596 176.2176 0.0000 0.0000 0.0000
# 4 0.0000 0.0000 0.0000 19.6762 0.0000 0.0000
# 5 0.0000 0.0000 0.0000 0.0000 19.6762 0.0000
# 6 0.0000 0.0000 0.0000 0.0000 0.0000 24.6740
#
#
#
# Elastic Compliance Matrix: (Units=1/GPa)
#
#
# Indices 1 2 3 4 5 6 
#
# 1 0.065145 -0.038642 -0.005439 0.000000 0.000000 0.000000
# 2 -0.038642 0.065145 -0.005438 0.000000 0.000000 0.000000
# 3 -0.005439 -0.005438 0.007907 0.000000 0.000000 0.000000
# 4 0.000000 0.000000 0.000000 0.050823 0.000000 0.000000
# 5 0.000000 0.000000 0.000000 0.000000 0.050823 0.000000
# 6 0.000000 0.000000 0.000000 0.000000 0.000000 0.040528
#
#
# Mechanical properties :
#
#
# Convention : Reuss Voigt Hill
#
# Bulk Modulus (GPa) = 25.53658 47.33319 36.43488
# Shear Modulus (GPa) = 12.74009 22.44770 17.59390
#
# Velocity S-wave (km/s) = 2.37723 3.15553 2.79362
# Velocity P-wave (km/s) = 4.34310 5.85427 5.15437
#
# Compressibility (1/GPa) = 0.03915952
#
# Stress axis : x y z
#
# Youngs Moduli (GPa) = 15.35033 15.35035 126.47427
#
# Poissons Ratio (x) = 0.59317 0.68784
# Poissons Ratio (y) = 0.59316 0.68781
# Poissons Ratio (z) = 0.08348 0.08348
#
# Static dielectric constant tensor:
#      x y z
#    x 3.914950 0.000000 0.000000 
#    y 0.000000 3.914950 0.000000 
#    z 0.000000 0.000000 4.396250 
# 
# 
# High freq. dielectric constant tensor:
#      x y z
#    x 1.871250 0.000000 0.000000 
#    y 0.000000 1.871250 0.000000 
#    z 0.000000 0.000000 1.881080 
# 
# From -- ./inp_files/8938.got.cif
#   From: 2010.03.12/outbox.cif.g09.slc.cpg/sg136_5_cif.got.tgz:8938.got - 2010.04.06 18:39:43.
