data_PCOD8318242
_publ_section_title
;
Structure prediction by ZEFSAII (Michael W. Deem and Ramdas Pophale) SiO2 
 PCOD8318242
Probable space group: P 42/M N M
;
_chemical_formula_sum "Si O2"
_cell_formula_units_Z 96
_cell_length_a 14.352074
_cell_length_b 14.352074
_cell_length_c 23.009642
_cell_angle_alpha 90.000000
_cell_angle_beta 90.000000
_cell_angle_gamma 90.000000
_cell_volume 4739.572725
_symmetry_space_group_name_H-M "P 42/M N M"
_symmetry_group_IT_number 136
_symmetry_cell_setting 'tetragonal'
loop_
_space_group_symop_operation_xyz
x,y,z
1/2-y,1/2+x,1/2+z
-x,-y,z
1/2+y,1/2-x,1/2+z
1/2+x,1/2-y,1/2-z
1/2-x,1/2+y,1/2-z
y,x,-z
-y,-x,-z
-x,-y,-z
1/2+y,1/2-x,1/2-z
x,y,-z
1/2-y,1/2+x,1/2-z
1/2-x,1/2+y,1/2+z
1/2+x,1/2-y,1/2+z
-y,-x,z
y,x,z
loop_
_atom_site_type_symbol
_atom_site_label
_atom_site_fract_x
_atom_site_fract_y
_atom_site_fract_z
Si Si1 0.832569 0.021087 0.568174
Si Si2 0.725355 0.433377 0.647022
Si Si3 0.680450 0.167985 0.562891
Si Si4 0.272645 0.128462 0.367136
Si Si5 0.249413 0.903840 0.064820
Si Si6 0.351119 0.036222 0.744973
O O1 0.842237 0.004409 0.500000
O O2 0.928207 0.071794 0.590237
O O3 0.745644 0.085551 0.583928
O O4 0.810252 0.924123 0.598507
O O5 0.637866 0.362134 0.653091
O O6 0.815522 0.394772 0.612625
O O7 0.698326 0.522919 0.608168
O O8 0.765056 0.461656 0.709752
O O9 0.634643 0.144151 0.500000
O O10 0.737499 0.262502 0.555463
O O11 0.223293 0.223293 0.343276
O O12 0.361735 0.155208 0.407408
O O13 0.308470 0.063477 0.316263
O O14 0.180787 0.819214 0.056338
O O15 0.269846 0.946277 0.000000
O O16 0.432111 0.109099 0.761273
#
# Coordination Sequence:
#
# PCOD8318242 Si02
#       6
#    16  16  16  16  16  16
#     4   9  18  34  57  87 121 154 193 244 302 365
#     4  11  21  37  61  88 117 158 207 252 304 364
#     4   8  15  29  51  81 115 147 183 236 297 354
#     4  11  22  39  60  85 121 164 206 250 306 371
#     4  10  22  40  61  88 125 165 204 252 309 369
#     4  11  23  41  63  87 119 153 202 257 307 365
#
# _framework density 20.254989999999999
#
# number of rings (size 3 to 8) (size 9 to 14) (size 15 to 20)
#    0.000    2.000    1.667    3.500    0.000    2.667 
#    0.000    3.333    0.000    6.000    0.000    0.000 
#    0.000    0.000    0.000    0.000    0.000    0.000 
#
# Total GULP energy -1189522.414135 kJ/mol
# GULP energy per Si atom -12390.858481 kJ/mol
# Density = 2.020889 g / cm^3
# Si number density = 20.254990 Si / 1000 Ang^3
#
#
#
# Elastic Constant Matrix: (Units=GPa)
#
#
# Indices 1 2 3 4 5 6 
#
# 1 70.9830 23.2771 33.4828 0.0000 0.0000 0.0000
# 2 23.2771 70.9830 33.4828 0.0000 0.0000 0.0000
# 3 33.4828 33.4828 107.6709 0.0000 0.0000 0.0000
# 4 0.0000 0.0000 0.0000 36.0152 0.0000 0.0000
# 5 0.0000 0.0000 0.0000 0.0000 36.0152 0.0000
# 6 0.0000 0.0000 0.0000 0.0000 0.0000 34.8596
#
#
#
# Elastic Compliance Matrix: (Units=1/GPa)
#
#
# Indices 1 2 3 4 5 6 
#
# 1 0.017290 -0.003672 -0.004235 0.000000 0.000000 0.000000
# 2 -0.003672 0.017290 -0.004235 0.000000 0.000000 0.000000
# 3 -0.004235 -0.004235 0.011921 0.000000 0.000000 0.000000
# 4 0.000000 0.000000 0.000000 0.027766 0.000000 0.000000
# 5 0.000000 0.000000 0.000000 0.000000 0.027766 0.000000
# 6 0.000000 0.000000 0.000000 0.000000 0.000000 0.028686
#
#
# Mechanical properties :
#
#
# Convention : Reuss Voigt Hill
#
# Bulk Modulus (GPa) = 45.00960 47.79134 46.40047
# Shear Modulus (GPa) = 30.78669 32.00428 31.39549
#
# Velocity S-wave (km/s) = 3.90289 3.97932 3.94129
# Velocity P-wave (km/s) = 6.52532 6.69025 6.60830
#
# Compressibility (1/GPa) = 0.02221748
#
# Stress axis : x y z
#
# Youngs Moduli (GPa) = 57.83834 57.83834 83.88354
#
# Poissons Ratio (x) = 0.21239 0.35522
# Poissons Ratio (y) = 0.21239 0.35522
# Poissons Ratio (z) = 0.24492 0.24492
#
# Static dielectric constant tensor:
#      x y z
#    x 3.688820 0.000000 0.000000 
#    y 0.000000 3.688820 0.000000 
#    z 0.000000 0.000000 3.827200 
# 
# 
# High freq. dielectric constant tensor:
#      x y z
#    x 1.786140 0.000000 0.000000 
#    y 0.000000 1.786140 0.000000 
#    z 0.000000 0.000000 1.787970 
# 
# From -- ./inp_files/7474.got.cif
#   From: 2010.03.12/outbox.cif.g09.slc.cpg/sg136_4_cif.got.tgz:7474.got - 2010.04.06 18:39:43.
