data_PCOD8318186
_publ_section_title
;
Structure prediction by ZEFSAII (Michael W. Deem and Ramdas Pophale) SiO2 
 PCOD8318186
Probable space group: P 42/M N M
;
_chemical_formula_sum "Si O2"
_cell_formula_units_Z 112
_cell_length_a 15.240056
_cell_length_b 15.240056
_cell_length_c 24.057750
_cell_angle_alpha 90.000000
_cell_angle_beta 90.000000
_cell_angle_gamma 90.000000
_cell_volume 5587.636340
_symmetry_space_group_name_H-M "P 42/M N M"
_symmetry_group_IT_number 136
_symmetry_cell_setting 'tetragonal'
loop_
_space_group_symop_operation_xyz
x,y,z
1/2-y,1/2+x,1/2+z
-x,-y,z
1/2+y,1/2-x,1/2+z
1/2+x,1/2-y,1/2-z
1/2-x,1/2+y,1/2-z
y,x,-z
-y,-x,-z
-x,-y,-z
1/2+y,1/2-x,1/2-z
x,y,-z
1/2-y,1/2+x,1/2-z
1/2-x,1/2+y,1/2+z
1/2+x,1/2-y,1/2+z
-y,-x,z
y,x,z
loop_
_atom_site_type_symbol
_atom_site_label
_atom_site_fract_x
_atom_site_fract_y
_atom_site_fract_z
Si Si1 0.533903 0.328205 0.752791
Si Si2 0.575798 0.931918 0.840157
Si Si3 0.346139 0.209542 0.560982
Si Si4 0.177751 0.507977 0.064893
Si Si5 0.499692 0.642652 0.124693
Si Si6 0.267968 0.938306 0.834960
Si Si7 0.321331 0.818957 0.741628
O O1 0.576354 0.423647 0.745394
O O2 0.486167 0.322872 0.812316
O O3 0.465182 0.315244 0.702805
O O4 0.603562 0.251710 0.747619
O O5 0.549516 0.890134 0.899298
O O6 0.598682 0.851613 0.797537
O O7 0.500000 0.000000 0.818482
O O8 0.666163 0.982686 0.847474
O O9 0.388193 0.222132 0.500000
O O10 0.247154 0.247154 0.561625
O O11 0.404684 0.263689 0.604959
O O12 0.345000 0.108332 0.577896
O O13 0.277951 0.491363 0.081783
O O14 0.165698 0.484454 0.000000
O O15 0.404596 0.595405 0.119760
O O16 0.575548 0.575548 0.108334
O O17 0.313541 0.857496 0.803371
O O18 0.231171 0.768830 0.721746
#
# Coordination Sequence:
#
# PCOD8318186 Si02
#       7
#    16  16  16  16  16  16  16
#     4   9  20  37  56  82 115 150 186 233 294 367
#     4  11  24  37  56  87 122 157 193 257 310 366
#     4  10  21  37  57  80 106 142 193 248 297 353
#     4  11  23  39  57  80 115 159 203 248 307 374
#     4  10  21  38  60  88 122 159 204 257 312 377
#     4  11  21  34  59  83 112 150 192 239 296 358
#     4  10  22  38  59  85 118 157 198 241 301 377
#
# _framework density 20.044253000000001
#
# number of rings (size 3 to 8) (size 9 to 14) (size 15 to 20)
#    0.000    1.714    1.429    2.571    4.000    6.000 
#    0.000    0.714    0.000    0.429    0.000    5.000 
#    0.000    0.000    0.000    0.000    0.000    0.000 
#
# Total GULP energy -1388306.025134 kJ/mol
# GULP energy per Si atom -12395.589510 kJ/mol
# Density = 1.999863 g / cm^3
# Si number density = 20.044253 Si / 1000 Ang^3
#
#
#
# Elastic Constant Matrix: (Units=GPa)
#
#
# Indices 1 2 3 4 5 6 
#
# 1 66.4581 24.5691 37.6074 0.0000 0.0000 0.0000
# 2 24.5691 66.4581 37.6074 0.0000 0.0000 0.0000
# 3 37.6074 37.6074 127.1633 0.0000 0.0000 0.0000
# 4 0.0000 0.0000 0.0000 25.3978 0.0000 0.0000
# 5 0.0000 0.0000 0.0000 0.0000 25.3978 0.0000
# 6 0.0000 0.0000 0.0000 0.0000 0.0000 30.1203
#
#
#
# Elastic Compliance Matrix: (Units=1/GPa)
#
#
# Indices 1 2 3 4 5 6 
#
# 1 0.019206 -0.004667 -0.004300 0.000000 0.000000 0.000000
# 2 -0.004667 0.019206 -0.004300 0.000000 0.000000 0.000000
# 3 -0.004300 -0.004300 0.010407 0.000000 0.000000 0.000000
# 4 0.000000 0.000000 0.000000 0.039373 0.000000 0.000000
# 5 0.000000 0.000000 0.000000 0.000000 0.039373 0.000000
# 6 0.000000 0.000000 0.000000 0.000000 0.000000 0.033200
#
#
# Mechanical properties :
#
#
# Convention : Reuss Voigt Hill
#
# Bulk Modulus (GPa) = 44.87226 51.07195 47.97210
# Shear Modulus (GPa) = 25.67706 26.86956 26.27331
#
# Velocity S-wave (km/s) = 3.58301 3.66527 3.62438
# Velocity P-wave (km/s) = 6.28908 6.59145 6.44204
#
# Compressibility (1/GPa) = 0.02228548
#
# Stress axis : x y z
#
# Youngs Moduli (GPa) = 52.06834 52.06834 96.08869
#
# Poissons Ratio (x) = 0.24301 0.41315
# Poissons Ratio (y) = 0.24301 0.41315
# Poissons Ratio (z) = 0.22387 0.22387
#
# Static dielectric constant tensor:
#      x y z
#    x 3.760860 0.000000 0.000000 
#    y 0.000000 3.760860 0.000000 
#    z 0.000000 0.000000 3.686580 
# 
# 
# High freq. dielectric constant tensor:
#      x y z
#    x 1.778510 0.000000 0.000000 
#    y 0.000000 1.778510 0.000000 
#    z 0.000000 0.000000 1.776590 
# 
# From -- ./inp_files/8513.got.cif
#   From: 2010.03.12/outbox.cif.g09.slc.cpg/sg136_5_cif.got.tgz:8513.got - 2010.04.06 18:39:43.
