data_PCOD8318533
_publ_section_title
;
Structure prediction by ZEFSAII (Michael W. Deem and Ramdas Pophale) SiO2 
 PCOD8318533
Probable space group: P 42/N M C
;
_chemical_formula_sum "Si O2"
_cell_formula_units_Z 80
_cell_length_a 12.017964
_cell_length_b 12.017964
_cell_length_c 30.909937
_cell_angle_alpha 90.000000
_cell_angle_beta 90.000000
_cell_angle_gamma 90.000000
_cell_volume 4464.367289
_symmetry_space_group_name_H-M "P 42/N M C"
_symmetry_group_IT_number 137
_space_group.IT_coordinate_system_code '2'
_symmetry_cell_setting 'tetragonal'
loop_
_space_group_symop_operation_xyz
x,y,z
1/2-y,x,1/2+z
1/2-x,1/2-y,z
y,1/2-x,1/2+z
1/2+x,-y,-z
-x,1/2+y,-z
1/2+y,1/2+x,1/2-z
-y,-x,1/2-z
-x,-y,-z
1/2+y,-x,1/2-z
1/2+x,1/2+y,-z
-y,1/2+x,1/2-z
1/2-x,y,z
x,1/2-y,z
1/2-y,1/2-x,1/2+z
y,x,1/2+z
loop_
_atom_site_type_symbol
_atom_site_label
_atom_site_fract_x
_atom_site_fract_y
_atom_site_fract_z
Si Si1 0.126533 0.879695 0.992478
Si Si2 0.620750 0.549581 0.236640
Si Si3 0.882145 0.750000 0.293270
Si Si4 0.377795 0.380760 0.860902
Si Si5 0.750000 0.882419 0.891992
Si Si6 0.993678 0.970953 0.428796
O O1 0.250000 0.934822 0.989899
O O2 0.139903 0.750000 0.995799
O O3 0.057415 0.907074 0.949443
O O4 0.061995 0.917265 0.035181
O O5 0.566012 0.433989 0.250000
O O6 0.750000 0.532738 0.244531
O O7 0.570476 0.642320 0.268789
O O8 0.595324 0.584966 0.187883
O O9 0.750000 0.750000 0.289492
O O10 0.922348 0.750000 0.342490
O O11 0.250000 0.412067 0.872982
O O12 0.396335 0.250000 0.866827
O O13 0.466280 0.445118 0.890054
O O14 0.750000 0.750000 0.896788
O O15 0.638860 0.929591 0.913579
#
# Coordination Sequence:
#
# PCOD8318533 Si02
#       6
#    16  16   8  16   8  16
#     4  10  21  38  57  78 110 147 186 231 294 350
#     4  10  19  34  56  81 112 151 188 232 284 338
#     4   9  18  34  54  76 108 150 188 222 282 338
#     4  10  20  36  58  85 114 147 193 240 284 339
#     4  11  22  36  55  85 117 149 196 242 284 348
#     4  11  21  36  57  84 109 150 188 240 285 341
#
# _framework density 17.919671000000001
#
# number of rings (size 3 to 8) (size 9 to 14) (size 15 to 20)
#    0.000    1.800    2.000    3.000    0.000    0.200 
#    0.000    1.000    0.000    2.700    0.000    0.000 
#    0.000    0.000    0.000    0.000    0.000    0.000 
#
# Total GULP energy -991977.157030 kJ/mol
# GULP energy per Si atom -12399.714463 kJ/mol
# Density = 1.787889 g / cm^3
# Si number density = 17.919671 Si / 1000 Ang^3
#
#
#
# Elastic Constant Matrix: (Units=GPa)
#
#
# Indices 1 2 3 4 5 6 
#
# 1 86.1915 41.7059 43.4764 0.0000 0.0000 0.0000
# 2 41.7059 86.1940 43.4758 0.0000 0.0000 0.0000
# 3 43.4764 43.4758 101.4503 0.0000 0.0000 0.0000
# 4 0.0000 0.0000 0.0000 27.3148 0.0000 0.0000
# 5 0.0000 0.0000 0.0000 0.0000 27.3143 0.0000
# 6 0.0000 0.0000 0.0000 0.0000 0.0000 22.3717
#
#
#
# Elastic Compliance Matrix: (Units=1/GPa)
#
#
# Indices 1 2 3 4 5 6 
#
# 1 0.016756 -0.005723 -0.004728 0.000000 0.000000 0.000000
# 2 -0.005723 0.016756 -0.004728 0.000000 0.000000 0.000000
# 3 -0.004728 -0.004728 0.013910 0.000000 0.000000 0.000000
# 4 0.000000 0.000000 0.000000 0.036610 0.000000 0.000000
# 5 0.000000 0.000000 0.000000 0.000000 0.036611 0.000000
# 6 0.000000 0.000000 0.000000 0.000000 0.000000 0.044699
#
#
# Mechanical properties :
#
#
# Convention : Reuss Voigt Hill
#
# Bulk Modulus (GPa) = 58.60620 59.01687 58.81154
# Shear Modulus (GPa) = 24.82773 25.07866 24.95320
#
# Velocity S-wave (km/s) = 3.72627 3.74505 3.73567
# Velocity P-wave (km/s) = 7.16166 7.19070 7.17620
#
# Compressibility (1/GPa) = 0.01706304
#
# Stress axis : x y z
#
# Youngs Moduli (GPa) = 59.67917 59.68189 71.89293
#
# Poissons Ratio (x) = 0.34154 0.33994
# Poissons Ratio (y) = 0.34153 0.33991
# Poissons Ratio (z) = 0.28219 0.28218
#
# Static dielectric constant tensor:
#      x y z
#    x 3.389270 0.000000 0.000000 
#    y 0.000000 3.389260 0.000000 
#    z 0.000000 0.000000 3.427920 
# 
# 
# High freq. dielectric constant tensor:
#      x y z
#    x 1.694820 0.000000 0.000000 
#    y 0.000000 1.694820 0.000000 
#    z 0.000000 0.000000 1.705890 
# 
# From -- ./inp_files/10352.got.cif
#   From: 2010.03.12/outbox.cif.g09.slc.cpg/sg137_6_cif.got.tgz:10352.got - 2010.04.08 09:34:49.
