data_PCOD8318054
_publ_section_title
;
Structure prediction by ZEFSAII (Michael W. Deem and Ramdas Pophale) SiO2 
 PCOD8318054
Probable space group: P 42/M N M
;
_chemical_formula_sum "Si O2"
_cell_formula_units_Z 120
_cell_length_a 21.300606
_cell_length_b 21.300606
_cell_length_c 13.946331
_cell_angle_alpha 90.000000
_cell_angle_beta 90.000000
_cell_angle_gamma 90.000000
_cell_volume 6327.670949
_symmetry_space_group_name_H-M "P 42/M N M"
_symmetry_group_IT_number 136
_symmetry_cell_setting 'tetragonal'
loop_
_space_group_symop_operation_xyz
x,y,z
1/2-y,1/2+x,1/2+z
-x,-y,z
1/2+y,1/2-x,1/2+z
1/2+x,1/2-y,1/2-z
1/2-x,1/2+y,1/2-z
y,x,-z
-y,-x,-z
-x,-y,-z
1/2+y,1/2-x,1/2-z
x,y,-z
1/2-y,1/2+x,1/2-z
1/2-x,1/2+y,1/2+z
1/2+x,1/2-y,1/2+z
-y,-x,z
y,x,z
loop_
_atom_site_type_symbol
_atom_site_label
_atom_site_fract_x
_atom_site_fract_y
_atom_site_fract_z
Si Si1 0.552717 0.447284 0.390657
Si Si2 0.767324 0.549909 0.390101
Si Si3 0.174982 0.728802 0.798717
Si Si4 0.000019 0.217097 0.610742
Si Si5 0.626782 0.273982 0.779570
Si Si6 0.535062 0.639277 0.279970
Si Si7 0.616469 0.800558 0.108531
Si Si8 0.694914 0.916233 0.891296
O O1 0.500000 0.500000 0.395333
O O2 0.571646 0.428355 0.500000
O O3 0.526988 0.388337 0.330417
O O4 0.748485 0.552810 0.500000
O O5 0.797793 0.615403 0.357512
O O6 0.704257 0.548046 0.330287
O O7 0.814036 0.490948 0.368873
O O8 0.202681 0.797320 0.829980
O O9 0.227767 0.678452 0.821624
O O10 0.159979 0.735149 0.685024
O O11 0.002864 0.197785 0.500000
O O12 0.068690 0.232913 0.648961
O O13 0.975532 0.155537 0.667983
O O14 0.955743 0.279147 0.625959
O O15 0.655396 0.344605 0.775367
O O16 0.608166 0.252466 0.672774
O O17 0.593511 0.593511 0.291184
O O18 0.630180 0.876013 0.124497
O O19 0.636394 0.781662 0.000000
O O20 0.718213 0.908104 0.000000
#
# Coordination Sequence:
#
# PCOD8318054 Si02
#       8
#     8  16  16  16  16  16  16  16
#     4   9  20  38  57  77 107 149 188 230 285 337
#     4  11  21  34  55  83 113 145 180 226 287 348
#     4  10  20  34  54  82 115 149 183 228 285 347
#     4  11  23  38  57  79 108 152 197 236 282 332
#     4  10  21  37  56  80 114 151 189 233 283 340
#     4  11  22  37  55  80 112 145 191 238 280 335
#     4   9  18  34  56  80 107 144 190 237 283 333
#     4   9  18  34  57  84 112 143 184 233 288 343
#
# _framework density 18.964324000000001
#
# number of rings (size 3 to 8) (size 9 to 14) (size 15 to 20)
#    0.000    1.933    2.667    0.800    0.933    3.200 
#    0.000    5.333    0.000    2.000    0.000    7.467 
#    0.000    0.000    0.000    0.000    0.000    0.533 
#
# Total GULP energy -1486677.619814 kJ/mol
# GULP energy per Si atom -12388.980165 kJ/mol
# Density = 1.892116 g / cm^3
# Si number density = 18.964324 Si / 1000 Ang^3
#
#
#
# Elastic Constant Matrix: (Units=GPa)
#
#
# Indices 1 2 3 4 5 6 
#
# 1 93.4821 43.2113 35.5861 0.0000 0.0000 0.0000
# 2 43.2113 93.4820 35.5861 0.0000 0.0000 0.0000
# 3 35.5861 35.5861 104.5311 0.0000 0.0000 0.0000
# 4 0.0000 0.0000 0.0000 24.1715 0.0000 0.0000
# 5 0.0000 0.0000 0.0000 0.0000 24.1716 0.0000
# 6 0.0000 0.0000 0.0000 0.0000 0.0000 24.8482
#
#
#
# Elastic Compliance Matrix: (Units=1/GPa)
#
#
# Indices 1 2 3 4 5 6 
#
# 1 0.014392 -0.005500 -0.003027 0.000000 0.000000 0.000000
# 2 -0.005500 0.014392 -0.003027 0.000000 0.000000 0.000000
# 3 -0.003027 -0.003027 0.011628 0.000000 0.000000 0.000000
# 4 0.000000 0.000000 0.000000 0.041371 0.000000 0.000000
# 5 0.000000 0.000000 0.000000 0.000000 0.041371 0.000000
# 6 0.000000 0.000000 0.000000 0.000000 0.000000 0.040244
#
#
# Mechanical properties :
#
#
# Convention : Reuss Voigt Hill
#
# Bulk Modulus (GPa) = 57.79410 57.80691 57.80050
# Shear Modulus (GPa) = 26.00450 26.44569 26.22510
#
# Velocity S-wave (km/s) = 3.70703 3.73835 3.72272
# Velocity P-wave (km/s) = 6.99029 7.01297 7.00164
#
# Compressibility (1/GPa) = 0.01730280
#
# Stress axis : x y z
#
# Youngs Moduli (GPa) = 69.48294 69.48289 86.00247
#
# Poissons Ratio (x) = 0.38217 0.26034
# Poissons Ratio (y) = 0.38218 0.26034
# Poissons Ratio (z) = 0.21033 0.21033
#
# Static dielectric constant tensor:
#      x y z
#    x 3.697080 0.000000 0.000000 
#    y 0.000000 3.697080 0.000000 
#    z 0.000000 0.000000 3.660110 
# 
# 
# High freq. dielectric constant tensor:
#      x y z
#    x 1.726450 0.000000 0.000000 
#    y 0.000000 1.726450 0.000000 
#    z 0.000000 0.000000 1.744980 
# 
# From -- ./inp_files/5331.got.cif
#   From: 2010.03.12/outbox.cif.g09.slc.cpg/sg136_3_cif.got.tgz:5331.got - 2010.04.06 18:39:43.
