data_PCOD8318271
_publ_section_title
;
Structure prediction by ZEFSAII (Michael W. Deem and Ramdas Pophale) SiO2 
 PCOD8318271
Probable space group: P 42/M N M
;
_chemical_formula_sum "Si O2"
_cell_formula_units_Z 80
_cell_length_a 13.166539
_cell_length_b 13.166539
_cell_length_c 24.871372
_cell_angle_alpha 90.000000
_cell_angle_beta 90.000000
_cell_angle_gamma 90.000000
_cell_volume 4311.645070
_symmetry_space_group_name_H-M "P 42/M N M"
_symmetry_group_IT_number 136
_symmetry_cell_setting 'tetragonal'
loop_
_space_group_symop_operation_xyz
x,y,z
1/2-y,1/2+x,1/2+z
-x,-y,z
1/2+y,1/2-x,1/2+z
1/2+x,1/2-y,1/2-z
1/2-x,1/2+y,1/2-z
y,x,-z
-y,-x,-z
-x,-y,-z
1/2+y,1/2-x,1/2-z
x,y,-z
1/2-y,1/2+x,1/2-z
1/2-x,1/2+y,1/2+z
1/2+x,1/2-y,1/2+z
-y,-x,z
y,x,z
loop_
_atom_site_type_symbol
_atom_site_label
_atom_site_fract_x
_atom_site_fract_y
_atom_site_fract_z
Si Si1 0.621762 0.999760 0.826331
Si Si2 0.628451 0.201300 0.765781
Si Si3 0.035310 0.614300 0.942263
Si Si4 0.006291 0.836119 0.335463
Si Si5 0.763930 0.932882 0.441055
O O1 0.661930 0.105847 0.801965
O O2 0.662100 0.986441 0.888062
O O3 0.500000 0.000000 0.822872
O O4 0.664969 0.904013 0.793586
O O5 0.722833 0.277168 0.761511
O O6 0.528900 0.254520 0.791601
O O7 0.155305 0.618244 0.933445
O O8 0.000000 0.500000 0.947112
O O9 0.006909 0.668625 0.000000
O O10 0.924892 0.924892 0.338825
O O11 0.015502 0.783458 0.394342
O O12 0.116158 0.883843 0.319933
O O13 0.773514 0.985437 0.500000
O O14 0.842179 0.842179 0.434812
#
# Coordination Sequence:
#
# PCOD8318271 Si02
#       5
#    16  16  16  16  16
#     4  11  20  37  56  77 106 138 178 218 258 317
#     4  11  21  34  53  79 107 140 179 222 269 319
#     4   9  18  31  51  74  99 133 173 215 258 302
#     4   9  18  31  45  68 106 143 172 210 262 315
#     4   9  16  27  46  72 100 133 176 218 255 305
#
# _framework density 18.554403000000001
#
# number of rings (size 3 to 8) (size 9 to 14) (size 15 to 20)
#    0.000    2.200    4.000    0.000    0.000    1.200 
#    0.000    2.000    0.000    0.600    0.000    0.000 
#    0.000    0.000    0.000   11.800    0.000    0.000 
#
# Total GULP energy -991152.979513 kJ/mol
# GULP energy per Si atom -12389.412244 kJ/mol
# Density = 1.851217 g / cm^3
# Si number density = 18.554403 Si / 1000 Ang^3
#
#
#
# Elastic Constant Matrix: (Units=GPa)
#
#
# Indices 1 2 3 4 5 6 
#
# 1 42.9213 10.7958 29.6819 0.0000 0.0000 0.0000
# 2 10.7958 42.9213 29.6819 0.0000 0.0000 0.0000
# 3 29.6819 29.6819 169.7308 0.0000 0.0000 0.0000
# 4 0.0000 0.0000 0.0000 18.3092 0.0000 0.0000
# 5 0.0000 0.0000 0.0000 0.0000 18.3092 0.0000
# 6 0.0000 0.0000 0.0000 0.0000 0.0000 21.2085
#
#
#
# Elastic Compliance Matrix: (Units=1/GPa)
#
#
# Indices 1 2 3 4 5 6 
#
# 1 0.027102 -0.004026 -0.004035 0.000000 0.000000 0.000000
# 2 -0.004026 0.027102 -0.004035 0.000000 0.000000 0.000000
# 3 -0.004035 -0.004035 0.007303 0.000000 0.000000 0.000000
# 4 0.000000 0.000000 0.000000 0.054617 0.000000 0.000000
# 5 0.000000 0.000000 0.000000 0.000000 0.054617 0.000000
# 6 0.000000 0.000000 0.000000 0.000000 0.000000 0.047151
#
#
# Mechanical properties :
#
#
# Convention : Reuss Voigt Hill
#
# Bulk Modulus (GPa) = 26.80049 43.98806 35.39427
# Shear Modulus (GPa) = 19.64456 23.92632 21.78544
#
# Velocity S-wave (km/s) = 3.25738 3.59489 3.43029
# Velocity P-wave (km/s) = 5.35005 6.40235 5.89971
#
# Compressibility (1/GPa) = 0.03731275
#
# Stress axis : x y z
#
# Youngs Moduli (GPa) = 36.89801 36.89801 136.92890
#
# Poissons Ratio (x) = 0.14856 0.55256
# Poissons Ratio (y) = 0.14856 0.55256
# Poissons Ratio (z) = 0.14890 0.14890
#
# Static dielectric constant tensor:
#      x y z
#    x 3.286050 0.000000 0.000000 
#    y 0.000000 3.286050 0.000000 
#    z 0.000000 0.000000 4.155570 
# 
# 
# High freq. dielectric constant tensor:
#      x y z
#    x 1.688540 0.000000 0.000000 
#    y 0.000000 1.688540 0.000000 
#    z 0.000000 0.000000 1.744120 
# 
# From -- ./inp_files/8264.got.cif
#   From: 2010.03.12/outbox.cif.g09.slc.cpg/sg136_5_cif.got.tgz:8264.got - 2010.04.06 18:39:43.
