data_PCOD8318336
_publ_section_title
;
Structure prediction by ZEFSAII (Michael W. Deem and Ramdas Pophale) SiO2 
 PCOD8318336
Probable space group: P 42/M N M
;
_chemical_formula_sum "Si O2"
_cell_formula_units_Z 96
_cell_length_a 25.221864
_cell_length_b 25.221864
_cell_length_c 9.791716
_cell_angle_alpha 90.000000
_cell_angle_beta 90.000000
_cell_angle_gamma 90.000000
_cell_volume 6228.925948
_symmetry_space_group_name_H-M "P 42/M N M"
_symmetry_group_IT_number 136
_symmetry_cell_setting 'tetragonal'
loop_
_space_group_symop_operation_xyz
x,y,z
1/2-y,1/2+x,1/2+z
-x,-y,z
1/2+y,1/2-x,1/2+z
1/2+x,1/2-y,1/2-z
1/2-x,1/2+y,1/2-z
y,x,-z
-y,-x,-z
-x,-y,-z
1/2+y,1/2-x,1/2-z
x,y,-z
1/2-y,1/2+x,1/2-z
1/2-x,1/2+y,1/2+z
1/2+x,1/2-y,1/2+z
-y,-x,z
y,x,z
loop_
_atom_site_type_symbol
_atom_site_label
_atom_site_fract_x
_atom_site_fract_y
_atom_site_fract_z
Si Si1 0.185900 0.604965 0.659834
Si Si2 0.393808 0.691665 0.656708
Si Si3 0.512975 0.313016 0.848454
Si Si4 0.687873 0.604124 0.162767
Si Si5 0.194250 0.393502 0.161895
Si Si6 0.489851 0.812893 0.847953
O O1 0.176357 0.594294 0.500000
O O2 0.247136 0.617617 0.692260
O O3 0.152263 0.654972 0.714335
O O4 0.165364 0.553451 0.741581
O O5 0.411007 0.685396 0.500000
O O6 0.340192 0.659809 0.689329
O O7 0.441566 0.667165 0.745805
O O8 0.455008 0.331589 0.795425
O O9 0.512461 0.250042 0.854732
O O10 0.524718 0.335925 0.000000
O O11 0.646918 0.646918 0.224685
O O12 0.746710 0.616196 0.222660
O O13 0.689441 0.607622 0.000000
O O14 0.171291 0.451287 0.204802
O O15 0.198708 0.392069 0.000000
O O16 0.478740 0.836104 0.000000
#
# Coordination Sequence:
#
# PCOD8318336 Si02
#       6
#    16  16  16  16  16  16
#     4   9  16  26  41  61  82 103 130 163 195 229
#     4   9  17  27  39  58  83 107 130 159 195 233
#     4   8  14  25  41  59  77 101 134 164 189 225
#     4   8  13  22  39  63  85 102 125 161 201 236
#     4   8  14  24  39  59  82 106 129 157 197 240
#     4   8  14  26  41  56  77 105 134 160 189 229
#
# _framework density 15.411968
#
# number of rings (size 3 to 8) (size 9 to 14) (size 15 to 20)
#    0.000    3.667    0.000    2.000    0.000    1.000 
#    0.000    4.167    0.000    2.500    0.000    7.000 
#    0.000    0.000    0.000    0.000    0.000    0.000 
#
# Total GULP energy -1189627.217028 kJ/mol
# GULP energy per Si atom -12391.950177 kJ/mol
# Density = 1.537689 g / cm^3
# Si number density = 15.411968 Si / 1000 Ang^3
#
#
#
# Elastic Constant Matrix: (Units=GPa)
#
#
# Indices 1 2 3 4 5 6 
#
# 1 95.4281 60.2149 37.7477 0.0000 0.0000 0.0000
# 2 60.2149 95.4281 37.7477 0.0000 0.0000 0.0000
# 3 37.7477 37.7477 43.2837 0.0000 0.0000 0.0000
# 4 0.0000 0.0000 0.0000 18.2747 0.0000 0.0000
# 5 0.0000 0.0000 0.0000 0.0000 18.2747 0.0000
# 6 0.0000 0.0000 0.0000 0.0000 0.0000 6.6716
#
#
#
# Elastic Compliance Matrix: (Units=1/GPa)
#
#
# Indices 1 2 3 4 5 6 
#
# 1 0.019767 -0.008632 -0.009711 0.000000 0.000000 0.000000
# 2 -0.008632 0.019767 -0.009711 0.000000 0.000000 0.000000
# 3 -0.009711 -0.009711 0.040042 0.000000 0.000000 0.000000
# 4 0.000000 0.000000 0.000000 0.054721 0.000000 0.000000
# 5 0.000000 0.000000 0.000000 0.000000 0.054721 0.000000
# 6 0.000000 0.000000 0.000000 0.000000 0.000000 0.149888
#
#
# Mechanical properties :
#
#
# Convention : Reuss Voigt Hill
#
# Bulk Modulus (GPa) = 42.61178 56.17338 49.39258
# Shear Modulus (GPa) = 12.41203 15.20617 13.80910
#
# Velocity S-wave (km/s) = 2.84095 3.14450 2.99657
# Velocity P-wave (km/s) = 6.20241 7.05059 6.64006
#
# Compressibility (1/GPa) = 0.02346769
#
# Stress axis : x y z
#
# Youngs Moduli (GPa) = 50.58949 50.58949 24.97404
#
# Poissons Ratio (x) = 0.43666 0.24253
# Poissons Ratio (y) = 0.43666 0.24253
# Poissons Ratio (z) = 0.49128 0.49128
#
# Static dielectric constant tensor:
#      x y z
#    x 3.099550 0.000000 0.000000 
#    y 0.000000 3.099550 0.000000 
#    z 0.000000 0.000000 2.845200 
# 
# 
# High freq. dielectric constant tensor:
#      x y z
#    x 1.577670 0.000000 0.000000 
#    y 0.000000 1.577670 0.000000 
#    z 0.000000 0.000000 1.559050 
# 
# From -- ./inp_files/2128.got.cif
#   From: 2010.03.12/outbox.cif.g09.slc.cpg/sg136_2_cif.got.tgz:2128.got - 2010.04.06 18:39:43.
