data_PCOD8318735
_publ_section_title
;
Structure prediction by ZEFSAII (Michael W. Deem and Ramdas Pophale) SiO2 
 PCOD8318735
Probable space group: P 42/N M C
;
_chemical_formula_sum "Si O2"
_cell_formula_units_Z 96
_cell_length_a 21.022651
_cell_length_b 21.022651
_cell_length_c 12.151962
_cell_angle_alpha 90.000000
_cell_angle_beta 90.000000
_cell_angle_gamma 90.000000
_cell_volume 5370.582149
_symmetry_space_group_name_H-M "P 42/N M C"
_symmetry_group_IT_number 137
_space_group.IT_coordinate_system_code '2'
_symmetry_cell_setting 'tetragonal'
loop_
_space_group_symop_operation_xyz
x,y,z
1/2-y,x,1/2+z
1/2-x,1/2-y,z
y,1/2-x,1/2+z
1/2+x,-y,-z
-x,1/2+y,-z
1/2+y,1/2+x,1/2-z
-y,-x,1/2-z
-x,-y,-z
1/2+y,-x,1/2-z
1/2+x,1/2+y,-z
-y,1/2+x,1/2-z
1/2-x,y,z
x,1/2-y,z
1/2-y,1/2-x,1/2+z
y,x,1/2+z
loop_
_atom_site_type_symbol
_atom_site_label
_atom_site_fract_x
_atom_site_fract_y
_atom_site_fract_z
Si Si1 0.679064 0.750000 0.120639
Si Si2 0.076368 0.675636 0.749544
Si Si3 0.363899 0.131494 0.998885
Si Si4 0.495382 0.823827 0.523152
Si Si5 0.750000 0.820698 0.873496
Si Si6 0.504035 0.904530 0.924104
Si Si7 0.562786 0.037569 0.874391
O O1 0.750000 0.750000 0.068446
O O2 0.685946 0.750000 0.247004
O O3 0.640199 0.687463 0.088889
O O4 0.148314 0.648314 0.750000
O O5 0.076889 0.750000 0.780962
O O6 0.049181 0.664141 0.627658
O O7 0.036549 0.635980 0.838318
O O8 0.312382 0.140768 0.093881
O O9 0.432362 0.134991 0.054489
O O10 0.348724 0.064766 0.939008
O O11 0.495648 0.750000 0.488392
O O12 0.474038 0.865089 0.417081
O O13 0.750000 0.750000 0.926039
O O14 0.520800 0.973337 0.873278
O O15 0.468546 0.912148 0.041356
O O16 0.565147 0.065147 0.750000
#
# Coordination Sequence:
#
# PCOD8318735 Si02
#       7
#     8  16  16  16   8  16  16
#     4  11  22  36  52  72 114 160 200 245 283 331
#     4  11  23  41  66  90 119 148 195 251 308 363
#     4  11  21  37  53  80 114 154 199 237 283 340
#     4  10  21  38  61  86 114 153 191 238 292 354
#     4  11  22  36  52  72 114 162 202 247 281 337
#     4  10  23  36  59  89 119 150 196 238 294 359
#     4  10  21  38  62  85 120 156 185 238 292 349
#
# _framework density 17.875157999999999
#
# number of rings (size 3 to 8) (size 9 to 14) (size 15 to 20)
#    0.000    1.500    4.167    0.500    8.167    1.500 
#    0.000    0.833    0.000    0.000    0.000    0.000 
#    0.000    0.000    0.000    0.000    0.000    0.000 
#
# Total GULP energy -1190126.420682 kJ/mol
# GULP energy per Si atom -12397.150215 kJ/mol
# Density = 1.783447 g / cm^3
# Si number density = 17.875158 Si / 1000 Ang^3
#
#
#
# Elastic Constant Matrix: (Units=GPa)
#
#
# Indices 1 2 3 4 5 6 
#
# 1 101.0384 48.0149 39.9073 0.0000 0.0000 0.0000
# 2 48.0149 101.0384 39.9073 0.0000 0.0000 0.0000
# 3 39.9073 39.9073 112.7589 0.0000 0.0000 0.0000
# 4 0.0000 0.0000 0.0000 27.4053 0.0000 0.0000
# 5 0.0000 0.0000 0.0000 0.0000 27.4053 0.0000
# 6 0.0000 0.0000 0.0000 0.0000 0.0000 31.3575
#
#
#
# Elastic Compliance Matrix: (Units=1/GPa)
#
#
# Indices 1 2 3 4 5 6 
#
# 1 0.013569 -0.005291 -0.002930 0.000000 0.000000 0.000000
# 2 -0.005291 0.013569 -0.002930 0.000000 0.000000 0.000000
# 3 -0.002930 -0.002930 0.010942 0.000000 0.000000 0.000000
# 4 0.000000 0.000000 0.000000 0.036489 0.000000 0.000000
# 5 0.000000 0.000000 0.000000 0.000000 0.036489 0.000000
# 6 0.000000 0.000000 0.000000 0.000000 0.000000 0.031890
#
#
# Mechanical properties :
#
#
# Convention : Reuss Voigt Hill
#
# Bulk Modulus (GPa) = 63.37479 63.38829 63.38154
# Shear Modulus (GPa) = 29.32406 29.70071 29.51239
#
# Velocity S-wave (km/s) = 4.05469 4.08065 4.06769
# Velocity P-wave (km/s) = 7.57970 7.59874 7.58923
#
# Compressibility (1/GPa) = 0.01577914
#
# Stress axis : x y z
#
# Youngs Moduli (GPa) = 73.69922 73.69922 91.38953
#
# Poissons Ratio (x) = 0.38994 0.26774
# Poissons Ratio (y) = 0.38994 0.26774
# Poissons Ratio (z) = 0.21591 0.21591
#
# Static dielectric constant tensor:
#      x y z
#    x 3.430880 0.000000 0.000000 
#    y 0.000000 3.430880 0.000000 
#    z 0.000000 0.000000 3.181230 
# 
# 
# High freq. dielectric constant tensor:
#      x y z
#    x 1.689330 0.000000 0.000000 
#    y 0.000000 1.689330 0.000000 
#    z 0.000000 0.000000 1.695100 
# 
# From -- ./inp_files/3810.got.cif
#   From: 2010.03.12/outbox.cif.g09.slc.cpg/sg137_2_cif.got.tgz:3810.got - 2010.04.08 09:34:49.
