data_PCOD8318709
_publ_section_title
;
Structure prediction by ZEFSAII (Michael W. Deem and Ramdas Pophale) SiO2 
 PCOD8318709
Probable space group: P 42/N M C
;
_chemical_formula_sum "Si O2"
_cell_formula_units_Z 56
_cell_length_a 12.888268
_cell_length_b 12.888268
_cell_length_c 16.869470
_cell_angle_alpha 90.000000
_cell_angle_beta 90.000000
_cell_angle_gamma 90.000000
_cell_volume 2802.144679
_symmetry_space_group_name_H-M "P 42/N M C"
_symmetry_group_IT_number 137
_space_group.IT_coordinate_system_code '2'
_symmetry_cell_setting 'tetragonal'
loop_
_space_group_symop_operation_xyz
x,y,z
1/2-y,x,1/2+z
1/2-x,1/2-y,z
y,1/2-x,1/2+z
1/2+x,-y,-z
-x,1/2+y,-z
1/2+y,1/2+x,1/2-z
-y,-x,1/2-z
-x,-y,-z
1/2+y,-x,1/2-z
1/2+x,1/2+y,-z
-y,1/2+x,1/2-z
1/2-x,y,z
x,1/2-y,z
1/2-y,1/2-x,1/2+z
y,x,1/2+z
loop_
_atom_site_type_symbol
_atom_site_label
_atom_site_fract_x
_atom_site_fract_y
_atom_site_fract_z
Si Si1 0.750000 0.871218 0.292102
Si Si2 0.630606 0.130606 0.250000
Si Si3 0.628835 0.750000 0.615157
Si Si4 0.011707 0.424064 0.118216
Si Si5 0.974785 0.633075 0.057848
O O1 0.750000 0.750000 0.291307
O O2 0.750000 0.920685 0.203763
O O3 0.643211 0.903127 0.335469
O O4 0.605384 0.250000 0.236849
O O5 0.593046 0.074220 0.170125
O O6 0.750000 0.750000 0.629695
O O7 0.599864 0.646746 0.565327
O O8 0.041914 0.546404 0.106027
O O9 0.991694 0.370861 0.033587
O O10 0.995609 0.750000 0.090513
#
# Coordination Sequence:
#
# PCOD8318709 Si02
#       5
#     8   8   8  16  16
#     4  11  22  38  59  91 121 157 213 260 312 378
#     4  11  22  38  60  88 128 167 202 262 317 382
#     4   9  20  36  60  86 118 162 203 258 314 368
#     4  11  22  36  59  89 119 167 206 254 319 372
#     4  10  21  37  57  86 124 164 207 256 315 378
#
# _framework density 19.984691999999999
#
# number of rings (size 3 to 8) (size 9 to 14) (size 15 to 20)
#    0.000    1.571    2.857    1.714    4.000    0.000 
#    0.000    0.000    0.000    2.571    0.000    0.000 
#    0.000   16.000    0.000    0.000    0.000    0.000 
#
# Total GULP energy -693919.357045 kJ/mol
# GULP energy per Si atom -12391.417090 kJ/mol
# Density = 1.993921 g / cm^3
# Si number density = 19.984692 Si / 1000 Ang^3
#
#
#
# Elastic Constant Matrix: (Units=GPa)
#
#
# Indices 1 2 3 4 5 6 
#
# 1 103.2051 26.4781 43.8695 0.0000 0.0000 0.0000
# 2 26.4781 103.2051 43.8695 0.0000 0.0000 0.0000
# 3 43.8695 43.8695 139.2807 0.0000 0.0000 0.0000
# 4 0.0000 0.0000 0.0000 26.8876 0.0000 0.0000
# 5 0.0000 0.0000 0.0000 0.0000 26.8876 0.0000
# 6 0.0000 0.0000 0.0000 0.0000 0.0000 22.6775
#
#
#
# Elastic Compliance Matrix: (Units=1/GPa)
#
#
# Indices 1 2 3 4 5 6 
#
# 1 0.011416 -0.001617 -0.003087 0.000000 0.000000 0.000000
# 2 -0.001617 0.011416 -0.003087 0.000000 0.000000 0.000000
# 3 -0.003087 -0.003087 0.009124 0.000000 0.000000 0.000000
# 4 0.000000 0.000000 0.000000 0.037192 0.000000 0.000000
# 5 0.000000 0.000000 0.000000 0.000000 0.037192 0.000000
# 6 0.000000 0.000000 0.000000 0.000000 0.000000 0.044097
#
#
# Mechanical properties :
#
#
# Convention : Reuss Voigt Hill
#
# Bulk Modulus (GPa) = 61.06247 63.79168 62.42708
# Shear Modulus (GPa) = 29.15864 30.72213 29.94039
#
# Velocity S-wave (km/s) = 3.82389 3.92507 3.87481
# Velocity P-wave (km/s) = 7.07935 7.24784 7.16409
#
# Compressibility (1/GPa) = 0.01637667
#
# Stress axis : x y z
#
# Youngs Moduli (GPa) = 87.59429 87.59429 109.60021
#
# Poissons Ratio (x) = 0.14164 0.33828
# Poissons Ratio (y) = 0.14164 0.33828
# Poissons Ratio (z) = 0.27036 0.27036
#
# Static dielectric constant tensor:
#      x y z
#    x 3.721130 0.000000 0.000000 
#    y 0.000000 3.721130 0.000000 
#    z 0.000000 0.000000 3.746650 
# 
# 
# High freq. dielectric constant tensor:
#      x y z
#    x 1.773630 0.000000 0.000000 
#    y 0.000000 1.773630 0.000000 
#    z 0.000000 0.000000 1.784100 
# 
# From -- ./inp_files/4645.got.cif
#   From: 2010.03.12/outbox.cif.g09.slc.cpg/sg137_3_cif.got.tgz:4645.got - 2010.04.08 09:34:49.
