data_PCOD8318124
_publ_section_title
;
Structure prediction by ZEFSAII (Michael W. Deem and Ramdas Pophale) SiO2 
 PCOD8318124
Probable space group: P 42/M N M
;
_chemical_formula_sum "Si O2"
_cell_formula_units_Z 80
_cell_length_a 12.072452
_cell_length_b 12.072452
_cell_length_c 28.797752
_cell_angle_alpha 90.000000
_cell_angle_beta 90.000000
_cell_angle_gamma 90.000000
_cell_volume 4197.102369
_symmetry_space_group_name_H-M "P 42/M N M"
_symmetry_group_IT_number 136
_symmetry_cell_setting 'tetragonal'
loop_
_space_group_symop_operation_xyz
x,y,z
1/2-y,1/2+x,1/2+z
-x,-y,z
1/2+y,1/2-x,1/2+z
1/2+x,1/2-y,1/2-z
1/2-x,1/2+y,1/2-z
y,x,-z
-y,-x,-z
-x,-y,-z
1/2+y,1/2-x,1/2-z
x,y,-z
1/2-y,1/2+x,1/2-z
1/2-x,1/2+y,1/2+z
1/2+x,1/2-y,1/2+z
-y,-x,z
y,x,z
loop_
_atom_site_type_symbol
_atom_site_label
_atom_site_fract_x
_atom_site_fract_y
_atom_site_fract_z
Si Si1 0.625561 0.019245 0.618877
Si Si2 0.243598 0.064781 0.889520
Si Si3 0.732920 0.910099 0.298104
Si Si4 0.817752 0.637793 0.446756
Si Si5 0.048836 0.768024 0.791592
O O1 0.638623 0.145941 0.602331
O O2 0.500000 0.000000 0.636146
O O3 0.708839 0.997724 0.661290
O O4 0.652773 0.937746 0.576268
O O5 0.137304 0.137304 0.903225
O O6 0.245392 0.956885 0.921885
O O7 0.238691 0.029568 0.836027
O O8 0.827000 0.827000 0.316451
O O9 0.622091 0.841957 0.286741
O O10 0.777300 0.971912 0.253094
O O11 0.835015 0.603783 0.500000
O O12 0.752988 0.752988 0.441730
O O13 0.122516 0.877485 0.795376
#
# Coordination Sequence:
#
# PCOD8318124 Si02
#       5
#    16  16  16  16  16
#     4  10  20  37  59  82 113 151 197 244 289 343
#     4  11  23  38  58  87 122 157 191 240 302 359
#     4  11  22  35  55  80 109 150 200 242 285 344
#     4  10  21  39  64  91 117 153 200 248 299 353
#     4  11  23  37  55  82 117 156 198 245 297 352
#
# _framework density 19.060769000000001
#
# number of rings (size 3 to 8) (size 9 to 14) (size 15 to 20)
#    0.000    1.400    4.000    3.000    0.000    9.200 
#    0.000    1.000    0.000    1.800    0.000    1.400 
#    0.000    0.000    0.000    0.000    0.000    0.000 
#
# Total GULP energy -992296.958475 kJ/mol
# GULP energy per Si atom -12403.711981 kJ/mol
# Density = 1.901739 g / cm^3
# Si number density = 19.060769 Si / 1000 Ang^3
#
#
#
# Elastic Constant Matrix: (Units=GPa)
#
#
# Indices 1 2 3 4 5 6 
#
# 1 67.8222 29.4630 27.6906 0.0000 0.0000 0.0000
# 2 29.4630 67.8222 27.6906 0.0000 0.0000 0.0000
# 3 27.6906 27.6906 126.9609 0.0000 0.0000 0.0000
# 4 0.0000 0.0000 0.0000 18.4314 0.0000 0.0000
# 5 0.0000 0.0000 0.0000 0.0000 18.4314 0.0000
# 6 0.0000 0.0000 0.0000 0.0000 0.0000 26.0146
#
#
#
# Elastic Compliance Matrix: (Units=1/GPa)
#
#
# Indices 1 2 3 4 5 6 
#
# 1 0.018903 -0.007167 -0.002560 0.000000 0.000000 0.000000
# 2 -0.007167 0.018903 -0.002560 0.000000 0.000000 0.000000
# 3 -0.002560 -0.002560 0.008993 0.000000 0.000000 0.000000
# 4 0.000000 0.000000 0.000000 0.054255 0.000000 0.000000
# 5 0.000000 0.000000 0.000000 0.000000 0.054255 0.000000
# 6 0.000000 0.000000 0.000000 0.000000 0.000000 0.038440
#
#
# Mechanical properties :
#
#
# Convention : Reuss Voigt Hill
#
# Bulk Modulus (GPa) = 44.99115 48.03263 46.51189
# Shear Modulus (GPa) = 22.15034 24.42620 23.28827
#
# Velocity S-wave (km/s) = 3.41264 3.58368 3.49920
# Velocity P-wave (km/s) = 6.25967 6.50984 6.38598
#
# Compressibility (1/GPa) = 0.02222660
#
# Stress axis : x y z
#
# Youngs Moduli (GPa) = 52.90225 52.90225 111.19761
#
# Poissons Ratio (x) = 0.37913 0.28463
# Poissons Ratio (y) = 0.37913 0.28463
# Poissons Ratio (z) = 0.13541 0.13541
#
# Static dielectric constant tensor:
#      x y z
#    x 3.579050 0.000000 0.000000 
#    y 0.000000 3.579050 0.000000 
#    z 0.000000 0.000000 3.444500 
# 
# 
# High freq. dielectric constant tensor:
#      x y z
#    x 1.739140 0.000000 0.000000 
#    y 0.000000 1.739140 0.000000 
#    z 0.000000 0.000000 1.737620 
# 
# From -- ./inp_files/9507.got.cif
#   From: 2010.03.12/outbox.cif.g09.slc.cpg/sg136_5_cif.got.tgz:9507.got - 2010.04.06 18:39:43.
