data_PCOD8318378
_publ_section_title
;
Structure prediction by ZEFSAII (Michael W. Deem and Ramdas Pophale) SiO2 
 PCOD8318378
Probable space group: P 42/N M C
;
_chemical_formula_sum "Si O2"
_cell_formula_units_Z 96
_cell_length_a 17.578236
_cell_length_b 17.578236
_cell_length_c 17.198818
_cell_angle_alpha 90.000000
_cell_angle_beta 90.000000
_cell_angle_gamma 90.000000
_cell_volume 5314.338120
_symmetry_space_group_name_H-M "P 42/N M C"
_symmetry_group_IT_number 137
_space_group.IT_coordinate_system_code '2'
_symmetry_cell_setting 'tetragonal'
loop_
_space_group_symop_operation_xyz
x,y,z
1/2-y,x,1/2+z
1/2-x,1/2-y,z
y,1/2-x,1/2+z
1/2+x,-y,-z
-x,1/2+y,-z
1/2+y,1/2+x,1/2-z
-y,-x,1/2-z
-x,-y,-z
1/2+y,-x,1/2-z
1/2+x,1/2+y,-z
-y,1/2+x,1/2-z
1/2-x,y,z
x,1/2-y,z
1/2-y,1/2-x,1/2+z
y,x,1/2+z
loop_
_atom_site_type_symbol
_atom_site_label
_atom_site_fract_x
_atom_site_fract_y
_atom_site_fract_z
Si Si1 0.663605 0.960038 0.914158
Si Si2 0.116538 0.663480 0.836026
Si Si3 0.933185 0.547100 0.209539
Si Si4 0.164210 0.060641 0.649469
Si Si5 0.523218 0.335136 0.420318
Si Si6 0.045638 0.836542 0.254344
O O1 0.750000 0.928542 0.915381
O O2 0.605644 0.888835 0.911851
O O3 0.651122 0.014894 0.841206
O O4 0.645734 0.011064 0.989462
O O5 0.128334 0.628334 0.750000
O O6 0.147232 0.750000 0.837439
O O7 0.162242 0.612627 0.898176
O O8 0.029419 0.660742 0.863280
O O9 0.865133 0.578022 0.263637
O O10 0.898135 0.522714 0.127861
O O11 0.976164 0.476164 0.250000
O O12 0.992450 0.615682 0.195120
O O13 0.250000 0.091223 0.640628
O O14 0.493450 0.250000 0.401303
O O15 0.131374 0.868627 0.250000
O O16 0.046003 0.750000 0.227028
#
# Coordination Sequence:
#
# PCOD8318378 Si02
#       6
#    16  16  16  16  16  16
#     4   9  21  37  54  77 105 140 180 224 268 314
#     4  11  21  33  52  84 116 142 173 212 260 320
#     4  10  17  32  54  80 107 137 172 218 259 317
#     4  10  18  32  53  77 105 140 180 216 256 312
#     4  11  20  34  55  78 108 146 177 210 266 323
#     4   9  19  37  57  78 102 134 181 228 271 312
#
# _framework density 18.064337999999999
#
# number of rings (size 3 to 8) (size 9 to 14) (size 15 to 20)
#    0.000    2.000    3.333    1.000    0.000    2.333 
#    0.000    1.667    0.000    5.500    0.000    0.000 
#    0.000    0.000    0.000    0.000    0.000    0.000 
#
# Total GULP energy -1190101.183291 kJ/mol
# GULP energy per Si atom -12396.887326 kJ/mol
# Density = 1.802322 g / cm^3
# Si number density = 18.064338 Si / 1000 Ang^3
#
#
#
# Elastic Constant Matrix: (Units=GPa)
#
#
# Indices 1 2 3 4 5 6 
#
# 1 117.9213 53.1915 41.7281 0.0000 0.0000 0.0000
# 2 53.1915 117.9222 41.7278 0.0000 0.0000 0.0000
# 3 41.7281 41.7278 67.3835 0.0000 0.0000 0.0000
# 4 0.0000 0.0000 0.0000 22.0821 0.0000 0.0000
# 5 0.0000 0.0000 0.0000 0.0000 22.0822 0.0000
# 6 0.0000 0.0000 0.0000 0.0000 0.0000 24.3742
#
#
#
# Elastic Compliance Matrix: (Units=1/GPa)
#
#
# Indices 1 2 3 4 5 6 
#
# 1 0.011911 -0.003538 -0.005185 0.000000 0.000000 0.000000
# 2 -0.003538 0.011911 -0.005185 0.000000 0.000000 0.000000
# 3 -0.005185 -0.005185 0.021262 0.000000 0.000000 0.000000
# 4 0.000000 0.000000 0.000000 0.045286 0.000000 0.000000
# 5 0.000000 0.000000 0.000000 0.000000 0.045285 0.000000
# 6 0.000000 0.000000 0.000000 0.000000 0.000000 0.041027
#
#
# Mechanical properties :
#
#
# Convention : Reuss Voigt Hill
#
# Bulk Modulus (GPa) = 57.91074 64.05799 60.98436
# Shear Modulus (GPa) = 23.78079 24.81300 24.29690
#
# Velocity S-wave (km/s) = 3.63223 3.71022 3.67143
# Velocity P-wave (km/s) = 7.05113 7.34114 7.19759
#
# Compressibility (1/GPa) = 0.01726795
#
# Stress axis : x y z
#
# Youngs Moduli (GPa) = 83.95659 83.95773 47.03182
#
# Poissons Ratio (x) = 0.29703 0.24387
# Poissons Ratio (y) = 0.29703 0.24386
# Poissons Ratio (z) = 0.43532 0.43532
#
# Static dielectric constant tensor:
#      x y z
#    x 3.480630 0.000000 0.000000 
#    y 0.000000 3.480630 0.000000 
#    z 0.000000 0.000000 3.106040 
# 
# 
# High freq. dielectric constant tensor:
#      x y z
#    x 1.702180 0.000000 0.000000 
#    y 0.000000 1.702180 0.000000 
#    z 0.000000 0.000000 1.670670 
# 
# From -- ./inp_files/6500.got.cif
#   From: 2010.03.12/outbox.cif.g09.slc.cpg/sg137_4_cif.got.tgz:6500.got - 2010.04.08 09:34:49.
