data_PCOD8318731
_publ_section_title
;
Structure prediction by ZEFSAII (Michael W. Deem and Ramdas Pophale) SiO2 
 PCOD8318731
Probable space group: P 42/N M C
;
_chemical_formula_sum "Si O2"
_cell_formula_units_Z 112
_cell_length_a 14.270655
_cell_length_b 14.270655
_cell_length_c 25.924755
_cell_angle_alpha 90.000000
_cell_angle_beta 90.000000
_cell_angle_gamma 90.000000
_cell_volume 5279.617683
_symmetry_space_group_name_H-M "P 42/N M C"
_symmetry_group_IT_number 137
_space_group.IT_coordinate_system_code '2'
_symmetry_cell_setting 'tetragonal'
loop_
_space_group_symop_operation_xyz
x,y,z
1/2-y,x,1/2+z
1/2-x,1/2-y,z
y,1/2-x,1/2+z
1/2+x,-y,-z
-x,1/2+y,-z
1/2+y,1/2+x,1/2-z
-y,-x,1/2-z
-x,-y,-z
1/2+y,-x,1/2-z
1/2+x,1/2+y,-z
-y,1/2+x,1/2-z
1/2-x,y,z
x,1/2-y,z
1/2-y,1/2-x,1/2+z
y,x,1/2+z
loop_
_atom_site_type_symbol
_atom_site_label
_atom_site_fract_x
_atom_site_fract_y
_atom_site_fract_z
Si Si1 0.010497 0.641631 0.446366
Si Si2 0.357991 0.142754 0.877087
Si Si3 0.034397 0.643807 0.561955
Si Si4 0.351792 0.355034 0.195563
Si Si5 0.360391 0.024561 0.600422
Si Si6 0.977349 0.590915 0.216465
Si Si7 0.143592 0.643017 0.147162
O O1 0.985838 0.750000 0.440867
O O2 0.913965 0.584263 0.442981
O O3 0.054977 0.620608 0.502212
O O4 0.082215 0.608483 0.401726
O O5 0.250000 0.149802 0.861537
O O6 0.397547 0.250000 0.884667
O O7 0.410949 0.083616 0.832956
O O8 0.372487 0.077369 0.927462
O O9 0.061665 0.750000 0.575474
O O10 0.102126 0.581463 0.597802
O O11 0.250000 0.356235 0.167557
O O12 0.375428 0.250000 0.215133
O O13 0.431201 0.388707 0.155699
O O14 0.341034 0.424659 0.243751
O O15 0.250000 0.029968 0.590420
O O16 0.995296 0.495296 0.250000
O O17 0.079018 0.627171 0.197319
O O18 0.250000 0.615752 0.162560
O O19 0.137493 0.750000 0.129070
#
# Coordination Sequence:
#
# PCOD8318731 Si02
#       7
#    16  16  16  16  16  16  16
#     4  10  21  39  62  86 117 155 194 239 290 344
#     4  10  21  38  61  89 118 149 190 242 298 350
#     4  10  22  40  61  87 120 156 195 239 287 345
#     4  10  21  38  60  85 112 145 189 240 293 345
#     4  11  23  38  58  85 117 152 195 245 291 340
#     4  12  23  35  56  82 114 155 191 230 283 345
#     4  10  22  38  56  83 118 154 193 235 283 347
#
# _framework density 21.213657999999999
#
# number of rings (size 3 to 8) (size 9 to 14) (size 15 to 20)
#    0.000    1.571    0.000    5.143    0.000    6.286 
#    0.000    3.571    0.000    0.000    0.000    0.000 
#    0.000   19.429    0.000    0.000    0.000    0.000 
#
# Total GULP energy -1388076.168024 kJ/mol
# GULP energy per Si atom -12393.537214 kJ/mol
# Density = 2.116537 g / cm^3
# Si number density = 21.213658 Si / 1000 Ang^3
#
#
#
# Elastic Constant Matrix: (Units=GPa)
#
#
# Indices 1 2 3 4 5 6 
#
# 1 101.6914 46.1606 58.9389 0.0000 0.0000 0.0000
# 2 46.1606 101.6914 58.9389 0.0000 0.0000 0.0000
# 3 58.9389 58.9389 112.7449 0.0000 0.0000 0.0000
# 4 0.0000 0.0000 0.0000 29.6992 0.0000 0.0000
# 5 0.0000 0.0000 0.0000 0.0000 29.6992 0.0000
# 6 0.0000 0.0000 0.0000 0.0000 0.0000 26.8949
#
#
#
# Elastic Compliance Matrix: (Units=1/GPa)
#
#
# Indices 1 2 3 4 5 6 
#
# 1 0.014802 -0.003206 -0.006062 0.000000 0.000000 0.000000
# 2 -0.003206 0.014802 -0.006062 0.000000 0.000000 0.000000
# 3 -0.006062 -0.006062 0.015208 0.000000 0.000000 0.000000
# 4 0.000000 0.000000 0.000000 0.033671 0.000000 0.000000
# 5 0.000000 0.000000 0.000000 0.000000 0.033671 0.000000
# 6 0.000000 0.000000 0.000000 0.000000 0.000000 0.037182
#
#
# Mechanical properties :
#
#
# Convention : Reuss Voigt Hill
#
# Bulk Modulus (GPa) = 70.66092 71.57825 71.11959
# Shear Modulus (GPa) = 27.06876 27.39796 27.23336
#
# Velocity S-wave (km/s) = 3.57600 3.59768 3.58685
# Velocity P-wave (km/s) = 7.10154 7.14651 7.12406
#
# Compressibility (1/GPa) = 0.01415209
#
# Stress axis : x y z
#
# Youngs Moduli (GPa) = 67.55626 67.55626 65.75475
#
# Poissons Ratio (x) = 0.21656 0.39863
# Poissons Ratio (y) = 0.21656 0.39863
# Poissons Ratio (z) = 0.40956 0.40956
#
# Static dielectric constant tensor:
#      x y z
#    x 3.936240 0.000000 0.000000 
#    y 0.000000 3.936240 0.000000 
#    z 0.000000 0.000000 3.797890 
# 
# 
# High freq. dielectric constant tensor:
#      x y z
#    x 1.832930 0.000000 0.000000 
#    y 0.000000 1.832930 0.000000 
#    z 0.000000 0.000000 1.824310 
# 
# From -- ./inp_files/8988.got.cif
#   From: 2010.03.12/outbox.cif.g09.slc.cpg/sg137_5_cif.got.tgz:8988.got - 2010.04.08 09:34:49.
