data_PCOD8318897
_publ_section_title
;
Structure prediction by ZEFSAII (Michael W. Deem and Ramdas Pophale) SiO2 
 PCOD8318897
Probable space group: P 42/N C M
;
_chemical_formula_sum "Si O2"
_cell_formula_units_Z 48
_cell_length_a 16.305260
_cell_length_b 16.305260
_cell_length_c 9.212625
_cell_angle_alpha 90.000000
_cell_angle_beta 90.000000
_cell_angle_gamma 90.000000
_cell_volume 2449.282335
_symmetry_space_group_name_H-M "P 42/N C M"
_symmetry_group_IT_number 138
_space_group.IT_coordinate_system_code '2'
_symmetry_cell_setting 'tetragonal'
loop_
_space_group_symop_operation_xyz
x,y,z
1/2-y,x,1/2+z
1/2-x,1/2-y,z
y,1/2-x,1/2+z
1/2+x,-y,1/2-z
-x,1/2+y,1/2-z
1/2+y,1/2+x,-z
-y,-x,-z
-x,-y,-z
1/2+y,-x,1/2-z
1/2+x,1/2+y,-z
-y,1/2+x,1/2-z
1/2-x,y,1/2+z
x,1/2-y,1/2+z
1/2-y,1/2-x,z
y,x,z
loop_
_atom_site_type_symbol
_atom_site_label
_atom_site_fract_x
_atom_site_fract_y
_atom_site_fract_z
Si Si1 0.156533 0.343468 0.303766
Si Si2 0.187739 0.903730 0.162704
Si Si3 0.750000 0.250000 0.000000
Si Si4 0.527501 0.189286 0.366470
Si Si5 0.750000 0.750000 0.445878
O O1 0.170583 0.440153 0.298921
O O2 0.193796 0.306205 0.156759
O O3 0.194052 0.305949 0.450571
O O4 0.245892 0.829404 0.104583
O O5 0.093673 0.877958 0.187684
O O6 0.222234 0.940546 0.311064
O O7 0.190646 0.975349 0.040728
#
# Coordination Sequence:
#
# PCOD8318897 Si02
#       5
#     8  16   4  16   4
#     4  11  22  41  61  79 104 140 187 229 268 319
#     4  10  19  31  53  82 113 145 176 217 267 323
#     4   8  16  30  52  78 116 150 172 198 260 342
#     4  10  20  34  55  81 111 143 180 223 269 321
#     4  10  24  42  62  76 100 148 186 218 268 330
#
# _framework density 19.597579
#
# number of rings (size 3 to 8) (size 9 to 14) (size 15 to 20)
#    0.000    2.333    0.000    6.000    0.000    4.000 
#    0.000    3.333    0.000    9.000    0.000    0.000 
#    0.000    0.000    0.000    0.000    0.000    0.000 
#
# Total GULP energy -594962.464278 kJ/mol
# GULP energy per Si atom -12395.051339 kJ/mol
# Density = 1.955297 g / cm^3
# Si number density = 19.597579 Si / 1000 Ang^3
#
#
#
# Elastic Constant Matrix: (Units=GPa)
#
#
# Indices 1 2 3 4 5 6 
#
# 1 110.8294 56.4444 40.5081 0.0000 0.0000 0.0000
# 2 56.4444 110.8294 40.5081 0.0000 0.0000 0.0000
# 3 40.5081 40.5081 88.0816 0.0000 0.0000 0.0000
# 4 0.0000 0.0000 0.0000 16.8563 0.0000 0.0000
# 5 0.0000 0.0000 0.0000 0.0000 16.8563 0.0000
# 6 0.0000 0.0000 0.0000 0.0000 0.0000 21.9565
#
#
#
# Elastic Compliance Matrix: (Units=1/GPa)
#
#
# Indices 1 2 3 4 5 6 
#
# 1 0.013039 -0.005348 -0.003537 0.000000 0.000000 0.000000
# 2 -0.005348 0.013039 -0.003537 0.000000 0.000000 0.000000
# 3 -0.003537 -0.003537 0.014607 0.000000 0.000000 0.000000
# 4 0.000000 0.000000 0.000000 0.059325 0.000000 0.000000
# 5 0.000000 0.000000 0.000000 0.000000 0.059325 0.000000
# 6 0.000000 0.000000 0.000000 0.000000 0.000000 0.045545
#
#
# Mechanical properties :
#
#
# Convention : Reuss Voigt Hill
#
# Bulk Modulus (GPa) = 63.12925 64.96243 64.04584
# Shear Modulus (GPa) = 21.27614 22.61915 21.94765
#
# Velocity S-wave (km/s) = 3.29850 3.40101 3.35015
# Velocity P-wave (km/s) = 6.84028 6.97443 6.90768
#
# Compressibility (1/GPa) = 0.01584052
#
# Stress axis : x y z
#
# Youngs Moduli (GPa) = 76.69053 76.69053 68.46218
#
# Poissons Ratio (x) = 0.41014 0.24217
# Poissons Ratio (y) = 0.41014 0.24217
# Poissons Ratio (z) = 0.27127 0.27127
#
# Static dielectric constant tensor:
#      x y z
#    x 3.432410 0.000000 0.000000 
#    y 0.000000 3.432410 0.000000 
#    z 0.000000 0.000000 3.709150 
# 
# 
# High freq. dielectric constant tensor:
#      x y z
#    x 1.748860 0.000000 0.000000 
#    y 0.000000 1.748860 0.000000 
#    z 0.000000 0.000000 1.771280 
# 
# From -- ./inp_files/1055.got.cif
#   From: 2010.03.12/outbox.cif.g09.slc.cpg/sg138_1_cif.got.tgz:1055.got - 2010.04.08 09:41:05.
