data_PCOD8318070
_publ_section_title
;
Structure prediction by ZEFSAII (Michael W. Deem and Ramdas Pophale) SiO2 
 PCOD8318070
Probable space group: P 42/M N M
;
_chemical_formula_sum "Si O2"
_cell_formula_units_Z 72
_cell_length_a 21.731959
_cell_length_b 21.731959
_cell_length_c 9.206272
_cell_angle_alpha 90.000000
_cell_angle_beta 90.000000
_cell_angle_gamma 90.000000
_cell_volume 4347.920114
_symmetry_space_group_name_H-M "P 42/M N M"
_symmetry_group_IT_number 136
_symmetry_cell_setting 'tetragonal'
loop_
_space_group_symop_operation_xyz
x,y,z
1/2-y,1/2+x,1/2+z
-x,-y,z
1/2+y,1/2-x,1/2+z
1/2+x,1/2-y,1/2-z
1/2-x,1/2+y,1/2-z
y,x,-z
-y,-x,-z
-x,-y,-z
1/2+y,1/2-x,1/2-z
x,y,-z
1/2-y,1/2+x,1/2-z
1/2-x,1/2+y,1/2+z
1/2+x,1/2-y,1/2+z
-y,-x,z
y,x,z
loop_
_atom_site_type_symbol
_atom_site_label
_atom_site_fract_x
_atom_site_fract_y
_atom_site_fract_z
Si Si1 0.174831 0.518049 0.167332
Si Si2 0.501699 0.398365 0.500000
Si Si3 0.880605 0.371159 0.332037
Si Si4 0.475877 0.282965 0.659416
Si Si5 0.243998 0.342468 0.669909
O O1 0.131956 0.564628 0.254042
O O2 0.144734 0.451731 0.190827
O O3 0.244852 0.518232 0.228976
O O4 0.177723 0.537426 0.000000
O O5 0.445491 0.445491 0.500000
O O6 0.566623 0.433378 0.500000
O O7 0.497155 0.354618 0.643967
O O8 0.862889 0.376253 0.500000
O O9 0.838175 0.319065 0.259404
O O10 0.481261 0.250931 0.500000
O O11 0.404854 0.280805 0.709400
O O12 0.228753 0.338462 0.500000
O O13 0.285880 0.285880 0.720684
#
# Coordination Sequence:
#
# PCOD8318070 Si02
#       5
#    16   8  16  16  16
#     4  10  20  35  52  73 100 135 174 213 262 313
#     4   9  16  28  52  84 108 131 170 212 250 301
#     4  10  21  34  51  73 100 131 171 217 259 308
#     4   8  16  29  50  74 101 133 163 205 251 299
#     4   9  16  29  50  74  98 127 165 206 255 305
#
# _framework density 16.559642
#
# number of rings (size 3 to 8) (size 9 to 14) (size 15 to 20)
#    0.667    2.111    0.000    2.000    0.000    3.556 
#    0.000    3.333    0.000    4.000    0.000    1.556 
#    0.000    0.000    0.000    0.000    0.000    0.000 
#
# Total GULP energy -892455.081463 kJ/mol
# GULP energy per Si atom -12395.209465 kJ/mol
# Density = 1.652195 g / cm^3
# Si number density = 16.559642 Si / 1000 Ang^3
#
#
#
# Elastic Constant Matrix: (Units=GPa)
#
#
# Indices 1 2 3 4 5 6 
#
# 1 83.4030 51.0526 49.4744 0.0000 0.0000 0.0000
# 2 51.0526 83.4038 49.4745 0.0000 0.0000 0.0000
# 3 49.4744 49.4745 87.7769 0.0000 0.0000 0.0000
# 4 0.0000 0.0000 0.0000 23.2799 0.0000 0.0000
# 5 0.0000 0.0000 0.0000 0.0000 23.2802 0.0000
# 6 0.0000 0.0000 0.0000 0.0000 0.0000 27.5427
#
#
#
# Elastic Compliance Matrix: (Units=1/GPa)
#
#
# Indices 1 2 3 4 5 6 
#
# 1 0.021810 -0.009101 -0.007163 0.000000 0.000000 0.000000
# 2 -0.009101 0.021810 -0.007163 0.000000 0.000000 0.000000
# 3 -0.007163 -0.007163 0.019468 0.000000 0.000000 0.000000
# 4 0.000000 0.000000 0.000000 0.042955 0.000000 0.000000
# 5 0.000000 0.000000 0.000000 0.000000 0.042955 0.000000
# 6 0.000000 0.000000 0.000000 0.000000 0.000000 0.036307
#
#
# Mechanical properties :
#
#
# Convention : Reuss Voigt Hill
#
# Bulk Modulus (GPa) = 61.60526 61.62074 61.61300
# Shear Modulus (GPa) = 21.04631 21.79271 21.41951
#
# Velocity S-wave (km/s) = 3.56889 3.63163 3.60040
# Velocity P-wave (km/s) = 7.36651 7.40791 7.38724
#
# Compressibility (1/GPa) = 0.01623238
#
# Stress axis : x y z
#
# Youngs Moduli (GPa) = 45.85013 45.85075 51.36756
#
# Poissons Ratio (x) = 0.41729 0.36796
# Poissons Ratio (y) = 0.41728 0.36796
# Poissons Ratio (z) = 0.32844 0.32844
#
# Static dielectric constant tensor:
#      x y z
#    x 3.020470 0.000000 0.000000 
#    y 0.000000 3.020470 0.000000 
#    z 0.000000 0.000000 3.086110 
# 
# 
# High freq. dielectric constant tensor:
#      x y z
#    x 1.629700 0.000000 0.000000 
#    y 0.000000 1.629700 0.000000 
#    z 0.000000 0.000000 1.627830 
# 
# From -- ./inp_files/1570.got.cif
#   From: 2010.03.12/outbox.cif.g09.slc.cpg/sg136_1_cif.got.tgz:1570.got - 2010.04.06 18:39:43.
