data_PCOD8318064
_publ_section_title
;
Structure prediction by ZEFSAII (Michael W. Deem and Ramdas Pophale) SiO2 
 PCOD8318064
Probable space group: P 42/M N M
;
_chemical_formula_sum "Si O2"
_cell_formula_units_Z 56
_cell_length_a 11.267895
_cell_length_b 11.267895
_cell_length_c 24.030099
_cell_angle_alpha 90.000000
_cell_angle_beta 90.000000
_cell_angle_gamma 90.000000
_cell_volume 3050.992519
_symmetry_space_group_name_H-M "P 42/M N M"
_symmetry_group_IT_number 136
_symmetry_cell_setting 'tetragonal'
loop_
_space_group_symop_operation_xyz
x,y,z
1/2-y,1/2+x,1/2+z
-x,-y,z
1/2+y,1/2-x,1/2+z
1/2+x,1/2-y,1/2-z
1/2-x,1/2+y,1/2-z
y,x,-z
-y,-x,-z
-x,-y,-z
1/2+y,1/2-x,1/2-z
x,y,-z
1/2-y,1/2+x,1/2-z
1/2-x,1/2+y,1/2+z
1/2+x,1/2-y,1/2+z
-y,-x,z
y,x,z
loop_
_atom_site_type_symbol
_atom_site_label
_atom_site_fract_x
_atom_site_fract_y
_atom_site_fract_z
Si Si1 0.760012 0.432825 0.565042
Si Si2 0.842607 0.509627 0.782815
Si Si3 0.097734 0.902267 0.254263
Si Si4 0.000000 0.500000 0.118367
Si Si5 0.901483 0.098518 0.868989
O O1 0.744010 0.454256 0.500000
O O2 0.691114 0.308887 0.581560
O O3 0.898703 0.438075 0.580611
O O4 0.707650 0.545430 0.597148
O O5 0.868774 0.413545 0.733914
O O6 0.705272 0.540594 0.788675
O O7 0.891244 0.458852 0.841533
O O8 0.140038 0.859963 0.192725
O O9 0.000000 0.000000 0.247663
O O10 0.000000 0.000000 0.862313
#
# Coordination Sequence:
#
# PCOD8318064 Si02
#       5
#    16  16   8   8   8
#     4  10  20  34  56  82 108 138 186 237 279 330
#     4   9  20  36  51  77 109 145 184 228 268 329
#     4  11  22  33  56  82 108 150 182 216 273 337
#     4  10  20  36  54  76 108 154 178 220 288 324
#     4   9  17  32  53  80 106 135 174 230 286 317
#
# _framework density 18.354683000000001
#
# number of rings (size 3 to 8) (size 9 to 14) (size 15 to 20)
#    0.000    2.571    0.000    4.286    4.000    1.714 
#    2.571    0.000    0.000    0.000    0.000    0.000 
#    0.000    6.857    0.000    0.000    0.000    0.000 
#
# Total GULP energy -693807.443446 kJ/mol
# GULP energy per Si atom -12389.418633 kJ/mol
# Density = 1.831291 g / cm^3
# Si number density = 18.354683 Si / 1000 Ang^3
#
#
#
# Elastic Constant Matrix: (Units=GPa)
#
#
# Indices 1 2 3 4 5 6 
#
# 1 83.0440 31.9831 24.7894 0.0000 0.0000 0.0000
# 2 31.9831 83.0440 24.7894 0.0000 0.0000 0.0000
# 3 24.7894 24.7894 76.6072 0.0000 0.0000 0.0000
# 4 0.0000 0.0000 0.0000 23.4832 0.0000 0.0000
# 5 0.0000 0.0000 0.0000 0.0000 23.4832 0.0000
# 6 0.0000 0.0000 0.0000 0.0000 0.0000 26.6412
#
#
#
# Elastic Compliance Matrix: (Units=1/GPa)
#
#
# Indices 1 2 3 4 5 6 
#
# 1 0.014844 -0.004741 -0.003269 0.000000 0.000000 0.000000
# 2 -0.004741 0.014844 -0.003269 0.000000 0.000000 0.000000
# 3 -0.003269 -0.003269 0.015169 0.000000 0.000000 0.000000
# 4 0.000000 0.000000 0.000000 0.042584 0.000000 0.000000
# 5 0.000000 0.000000 0.000000 0.000000 0.042584 0.000000
# 6 0.000000 0.000000 0.000000 0.000000 0.000000 0.037536
#
#
# Mechanical properties :
#
#
# Convention : Reuss Voigt Hill
#
# Bulk Modulus (GPa) = 44.84681 45.09099 44.96890
# Shear Modulus (GPa) = 25.31000 25.46376 25.38688
#
# Velocity S-wave (km/s) = 3.71744 3.72871 3.72308
# Velocity P-wave (km/s) = 6.55075 6.56944 6.56010
#
# Compressibility (1/GPa) = 0.02229813
#
# Stress axis : x y z
#
# Youngs Moduli (GPa) = 67.36937 67.36937 65.92254
#
# Poissons Ratio (x) = 0.31939 0.21551
# Poissons Ratio (y) = 0.31939 0.21551
# Poissons Ratio (z) = 0.22024 0.22024
#
# Static dielectric constant tensor:
#      x y z
#    x 3.264570 0.000000 0.000000 
#    y 0.000000 3.264570 0.000000 
#    z 0.000000 0.000000 3.378630 
# 
# 
# High freq. dielectric constant tensor:
#      x y z
#    x 1.695580 0.000000 0.000000 
#    y 0.000000 1.695580 0.000000 
#    z 0.000000 0.000000 1.705100 
# 
# From -- ./inp_files/6987.got.cif
#   From: 2010.03.12/outbox.cif.g09.slc.cpg/sg136_4_cif.got.tgz:6987.got - 2010.04.06 18:39:43.
