data_PCOD8318905
_publ_section_title
;
Structure prediction by ZEFSAII (Michael W. Deem and Ramdas Pophale) SiO2 
 PCOD8318905
Probable space group: P 42/N C M
;
_chemical_formula_sum "Si O2"
_cell_formula_units_Z 112
_cell_length_a 15.140767
_cell_length_b 15.140767
_cell_length_c 28.672073
_cell_angle_alpha 90.000000
_cell_angle_beta 90.000000
_cell_angle_gamma 90.000000
_cell_volume 6572.867023
_symmetry_space_group_name_H-M "P 42/N C M"
_symmetry_group_IT_number 138
_space_group.IT_coordinate_system_code '2'
_symmetry_cell_setting 'tetragonal'
loop_
_space_group_symop_operation_xyz
x,y,z
1/2-y,x,1/2+z
1/2-x,1/2-y,z
y,1/2-x,1/2+z
1/2+x,-y,1/2-z
-x,1/2+y,1/2-z
1/2+y,1/2+x,-z
-y,-x,-z
-x,-y,-z
1/2+y,-x,1/2-z
1/2+x,1/2+y,-z
-y,1/2+x,1/2-z
1/2-x,y,1/2+z
x,1/2-y,1/2+z
1/2-y,1/2-x,z
y,x,z
loop_
_atom_site_type_symbol
_atom_site_label
_atom_site_fract_x
_atom_site_fract_y
_atom_site_fract_z
Si Si1 0.444911 0.687160 0.519278
Si Si2 0.891099 0.029546 0.045010
Si Si3 0.382528 0.700662 0.696503
Si Si4 0.690978 0.116177 0.299689
Si Si5 0.950578 0.091330 0.385763
Si Si6 0.995764 0.139301 0.115856
Si Si7 0.040371 0.181017 0.574706
O O1 0.347514 0.652487 0.500000
O O2 0.453325 0.788876 0.534185
O O3 0.473340 0.634432 0.564860
O O4 0.515204 0.666187 0.479160
O O5 0.915668 0.095556 0.087172
O O6 0.943961 0.056040 0.000000
O O7 0.928300 0.928300 0.055993
O O8 0.423069 0.678459 0.747471
O O9 0.379518 0.806271 0.690183
O O10 0.286493 0.658258 0.694456
O O11 0.441206 0.663649 0.654602
O O12 0.678141 0.037551 0.335605
O O13 0.862623 0.032428 0.391225
O O14 0.031997 0.031997 0.370053
O O15 0.043242 0.215568 0.085777
O O16 0.067993 0.067993 0.128564
O O17 0.135684 0.135684 0.582982
#
# Coordination Sequence:
#
# PCOD8318905 Si02
#       7
#    16  16  16  16  16  16  16
#     4  10  20  34  52  79 105 133 175 218 258 309
#     4  10  20  34  50  72 105 138 168 209 259 311
#     4   9  17  32  54  75 104 132 161 209 259 317
#     4   9  18  32  51  78 102 130 167 207 261 309
#     4  10  19  32  51  75 103 133 165 212 260 301
#     4  11  21  34  51  73 103 136 173 214 251 303
#     4  10  20  34  49  70 102 137 171 212 256 300
#
# _framework density 17.039747999999999
#
# number of rings (size 3 to 8) (size 9 to 14) (size 15 to 20)
#    0.000    2.143    2.857    2.143    0.000    2.857 
#    0.000    0.000    0.000    1.286    0.000    0.000 
#    0.000    0.000    0.000    0.000    0.000    0.000 
#
# Total GULP energy -1387833.387058 kJ/mol
# GULP energy per Si atom -12391.369527 kJ/mol
# Density = 1.700096 g / cm^3
# Si number density = 17.039748 Si / 1000 Ang^3
#
#
#
# Elastic Constant Matrix: (Units=GPa)
#
#
# Indices 1 2 3 4 5 6 
#
# 1 58.0054 24.7368 20.1199 0.0000 0.0000 0.0000
# 2 24.7368 58.0057 20.1202 0.0000 0.0000 0.0000
# 3 20.1199 20.1202 104.9297 0.0000 0.0000 0.0000
# 4 0.0000 0.0000 0.0000 20.3551 0.0000 0.0000
# 5 0.0000 0.0000 0.0000 0.0000 20.3554 0.0000
# 6 0.0000 0.0000 0.0000 0.0000 0.0000 18.6375
#
#
#
# Elastic Compliance Matrix: (Units=1/GPa)
#
#
# Indices 1 2 3 4 5 6 
#
# 1 0.021693 -0.008365 -0.002556 0.000000 0.000000 0.000000
# 2 -0.008365 0.021693 -0.002556 0.000000 0.000000 0.000000
# 3 -0.002556 -0.002556 0.010510 0.000000 0.000000 0.000000
# 4 0.000000 0.000000 0.000000 0.049128 0.000000 0.000000
# 5 0.000000 0.000000 0.000000 0.000000 0.049127 0.000000
# 6 0.000000 0.000000 0.000000 0.000000 0.000000 0.053655
#
#
# Mechanical properties :
#
#
# Convention : Reuss Voigt Hill
#
# Bulk Modulus (GPa) = 37.11313 38.98829 38.05071
# Shear Modulus (GPa) = 20.68327 22.26720 21.47523
#
# Velocity S-wave (km/s) = 3.48778 3.61886 3.55393
# Velocity P-wave (km/s) = 6.16823 6.35547 6.26255
#
# Compressibility (1/GPa) = 0.02694464
#
# Stress axis : x y z
#
# Youngs Moduli (GPa) = 46.09679 46.09693 95.14466
#
# Poissons Ratio (x) = 0.38559 0.24316
# Poissons Ratio (y) = 0.38559 0.24317
# Poissons Ratio (z) = 0.11781 0.11781
#
# Static dielectric constant tensor:
#      x y z
#    x 3.405950 0.000000 0.000000 
#    y 0.000000 3.405980 0.000000 
#    z 0.000000 0.000000 3.315270 
# 
# 
# High freq. dielectric constant tensor:
#      x y z
#    x 1.639530 0.000000 0.000000 
#    y 0.000000 1.639530 0.000000 
#    z 0.000000 0.000000 1.666640 
# 
# From -- ./inp_files/7587.got.cif
#   From: 2010.03.12/outbox.cif.g09.slc.cpg/sg138_4_cif.got.tgz:7587.got - 2010.04.08 09:41:05.
