data_PCOD8318837
_publ_section_title
;
Structure prediction by ZEFSAII (Michael W. Deem and Ramdas Pophale) SiO2 
 PCOD8318837
Probable space group: P 42/N C M
;
_chemical_formula_sum "Si O2"
_cell_formula_units_Z 112
_cell_length_a 18.533750
_cell_length_b 18.533750
_cell_length_c 18.468622
_cell_angle_alpha 90.000000
_cell_angle_beta 90.000000
_cell_angle_gamma 90.000000
_cell_volume 6343.969608
_symmetry_space_group_name_H-M "P 42/N C M"
_symmetry_group_IT_number 138
_space_group.IT_coordinate_system_code '2'
_symmetry_cell_setting 'tetragonal'
loop_
_space_group_symop_operation_xyz
x,y,z
1/2-y,x,1/2+z
1/2-x,1/2-y,z
y,1/2-x,1/2+z
1/2+x,-y,1/2-z
-x,1/2+y,1/2-z
1/2+y,1/2+x,-z
-y,-x,-z
-x,-y,-z
1/2+y,-x,1/2-z
1/2+x,1/2+y,-z
-y,1/2+x,1/2-z
1/2-x,y,1/2+z
x,1/2-y,1/2+z
1/2-y,1/2-x,z
y,x,z
loop_
_atom_site_type_symbol
_atom_site_label
_atom_site_fract_x
_atom_site_fract_y
_atom_site_fract_z
Si Si1 0.077786 0.303731 0.082615
Si Si2 0.557191 0.175396 0.983223
Si Si3 0.681032 0.939326 0.304048
Si Si4 0.344463 0.045962 0.855177
Si Si5 0.331016 0.968479 0.453604
Si Si6 0.768186 0.616378 0.559193
Si Si7 0.914252 0.469555 0.401804
O O1 0.126875 0.373126 0.100108
O O2 0.067178 0.258347 0.156336
O O3 0.116886 0.249859 0.026259
O O4 0.002261 0.331625 0.047420
O O5 0.524975 0.151528 0.905285
O O6 0.578612 0.260076 0.975019
O O7 0.627322 0.127322 0.000000
O O8 0.635964 0.864037 0.309030
O O9 0.695055 0.965142 0.221794
O O10 0.635657 0.005389 0.336596
O O11 0.426395 0.073606 0.841463
O O12 0.305108 0.112639 0.895862
O O13 0.375284 0.991131 0.524247
O O14 0.382620 0.924472 0.398753
O O15 0.309682 0.043680 0.416788
O O16 0.812606 0.687395 0.579629
O O17 0.991868 0.508133 0.398742
#
# Coordination Sequence:
#
# PCOD8318837 Si02
#       7
#    16  16  16  16  16  16  16
#     4  10  20  32  50  76 104 138 182 222 260 315
#     4  10  20  37  56  74 102 139 182 228 267 304
#     4  10  19  33  51  75 110 144 171 210 270 327
#     4   9  20  34  49  73 106 145 182 216 260 313
#     4   9  17  29  50  79 102 122 166 216 266 312
#     4  10  17  29  47  72 105 139 177 220 262 311
#     4  10  16  28  53  79 106 135 160 205 266 323
#
# _framework density 17.654561000000001
#
# number of rings (size 3 to 8) (size 9 to 14) (size 15 to 20)
#    0.000    2.571    2.857    3.857    0.000    3.714 
#    0.000    5.714    0.000    3.429    0.000    0.000 
#   17.143    0.000    0.000    0.000    0.000    0.000 
#
# Total GULP energy -1387684.406345 kJ/mol
# GULP energy per Si atom -12390.039342 kJ/mol
# Density = 1.761438 g / cm^3
# Si number density = 17.654561 Si / 1000 Ang^3
#
#
#
# Elastic Constant Matrix: (Units=GPa)
#
#
# Indices 1 2 3 4 5 6 
#
# 1 86.7922 58.7675 22.9773 0.0000 0.0000 0.0000
# 2 58.7675 86.7922 22.9773 0.0000 0.0000 0.0000
# 3 22.9773 22.9773 92.3444 0.0000 0.0000 0.0000
# 4 0.0000 0.0000 0.0000 15.4848 0.0000 0.0000
# 5 0.0000 0.0000 0.0000 0.0000 15.4848 0.0000
# 6 0.0000 0.0000 0.0000 0.0000 0.0000 35.9315
#
#
#
# Elastic Compliance Matrix: (Units=1/GPa)
#
#
# Indices 1 2 3 4 5 6 
#
# 1 0.021569 -0.014114 -0.001855 0.000000 0.000000 0.000000
# 2 -0.014114 0.021569 -0.001855 0.000000 0.000000 0.000000
# 3 -0.001855 -0.001855 0.011752 0.000000 0.000000 0.000000
# 4 0.000000 0.000000 0.000000 0.064579 0.000000 0.000000
# 5 0.000000 0.000000 0.000000 0.000000 0.064579 0.000000
# 6 0.000000 0.000000 0.000000 0.000000 0.000000 0.027831
#
#
# Mechanical properties :
#
#
# Convention : Reuss Voigt Hill
#
# Bulk Modulus (GPa) = 51.96676 52.81927 52.39302
# Shear Modulus (GPa) = 19.68952 24.12735 21.90843
#
# Velocity S-wave (km/s) = 3.34318 3.70081 3.52653
# Velocity P-wave (km/s) = 6.66346 6.94583 6.80611
#
# Compressibility (1/GPa) = 0.01924307
#
# Stress axis : x y z
#
# Youngs Moduli (GPa) = 46.36229 46.36229 85.09027
#
# Poissons Ratio (x) = 0.65434 0.15786
# Poissons Ratio (y) = 0.65434 0.15786
# Poissons Ratio (z) = 0.08601 0.08601
#
# Static dielectric constant tensor:
#      x y z
#    x 3.256410 0.000000 0.000000 
#    y 0.000000 3.256410 0.000000 
#    z 0.000000 0.000000 3.173780 
# 
# 
# High freq. dielectric constant tensor:
#      x y z
#    x 1.670780 0.000000 0.000000 
#    y 0.000000 1.670780 0.000000 
#    z 0.000000 0.000000 1.664220 
# 
# From -- ./inp_files/5403.got.cif
#   From: 2010.03.12/outbox.cif.g09.slc.cpg/sg138_3_cif.got.tgz:5403.got - 2010.04.08 09:41:05.
