data_PCOD8318159
_publ_section_title
;
Structure prediction by ZEFSAII (Michael W. Deem and Ramdas Pophale) SiO2 
 PCOD8318159
Probable space group: P 42/M N M
;
_chemical_formula_sum "Si O2"
_cell_formula_units_Z 72
_cell_length_a 20.989604
_cell_length_b 20.989604
_cell_length_c 9.232411
_cell_angle_alpha 90.000000
_cell_angle_beta 90.000000
_cell_angle_gamma 90.000000
_cell_volume 4067.463083
_symmetry_space_group_name_H-M "P 42/M N M"
_symmetry_group_IT_number 136
_symmetry_cell_setting 'tetragonal'
loop_
_space_group_symop_operation_xyz
x,y,z
1/2-y,1/2+x,1/2+z
-x,-y,z
1/2+y,1/2-x,1/2+z
1/2+x,1/2-y,1/2-z
1/2-x,1/2+y,1/2-z
y,x,-z
-y,-x,-z
-x,-y,-z
1/2+y,1/2-x,1/2-z
x,y,-z
1/2-y,1/2+x,1/2-z
1/2-x,1/2+y,1/2+z
1/2+x,1/2-y,1/2+z
-y,-x,z
y,x,z
loop_
_atom_site_type_symbol
_atom_site_label
_atom_site_fract_x
_atom_site_fract_y
_atom_site_fract_z
Si Si1 0.195647 0.961344 0.831434
Si Si2 0.165886 0.732778 0.840359
Si Si3 0.492025 0.814172 0.832000
Si Si4 0.627138 0.878406 0.833940
Si Si5 0.448366 0.448366 0.672328
O O1 0.216032 0.888669 0.803380
O O2 0.122730 0.968226 0.773804
O O3 0.244374 0.006438 0.742832
O O4 0.200088 0.980329 0.000000
O O5 0.233318 0.766683 0.839168
O O6 0.172633 0.677986 0.721201
O O7 0.152229 0.703285 0.000000
O O8 0.555987 0.853994 0.807855
O O9 0.440165 0.859734 0.760550
O O10 0.476893 0.803280 0.000000
O O11 0.641865 0.893800 0.000000
O O12 0.500000 0.500000 0.729951
O O13 0.446805 0.446805 0.500000
#
# Coordination Sequence:
#
# PCOD8318159 Si02
#       5
#    16  16  16  16   8
#     4   9  16  30  52  76 103 135 170 210 255 304
#     4   9  16  29  51  76 100 129 168 213 260 308
#     4  10  21  36  53  75 103 136 175 218 267 317
#     4  10  21  35  52  76 103 135 175 218 264 316
#     4   9  16  28  51  83 111 137 175 215 253 304
#
# _framework density 17.701450999999999
#
# number of rings (size 3 to 8) (size 9 to 14) (size 15 to 20)
#    0.000    2.556    1.111    1.333    0.000    3.556 
#    0.000    3.889    0.000    5.333    0.000    0.000 
#    0.000    0.000    0.000    0.000    0.000    0.000 
#
# Total GULP energy -892540.609148 kJ/mol
# GULP energy per Si atom -12396.397349 kJ/mol
# Density = 1.766116 g / cm^3
# Si number density = 17.701451 Si / 1000 Ang^3
#
#
#
# Elastic Constant Matrix: (Units=GPa)
#
#
# Indices 1 2 3 4 5 6 
#
# 1 80.6345 49.7865 53.4074 0.0000 0.0000 0.0000
# 2 49.7865 80.6345 53.4074 0.0000 0.0000 0.0000
# 3 53.4074 53.4074 94.2758 0.0000 0.0000 0.0000
# 4 0.0000 0.0000 0.0000 24.0490 0.0000 0.0000
# 5 0.0000 0.0000 0.0000 0.0000 24.0490 0.0000
# 6 0.0000 0.0000 0.0000 0.0000 0.0000 22.0552
#
#
#
# Elastic Compliance Matrix: (Units=1/GPa)
#
#
# Indices 1 2 3 4 5 6 
#
# 1 0.023361 -0.009057 -0.008103 0.000000 0.000000 0.000000
# 2 -0.009057 0.023361 -0.008103 0.000000 0.000000 0.000000
# 3 -0.008103 -0.008103 0.019788 0.000000 0.000000 0.000000
# 4 0.000000 0.000000 0.000000 0.041582 0.000000 0.000000
# 5 0.000000 0.000000 0.000000 0.000000 0.041582 0.000000
# 6 0.000000 0.000000 0.000000 0.000000 0.000000 0.045341
#
#
# Mechanical properties :
#
#
# Convention : Reuss Voigt Hill
#
# Bulk Modulus (GPa) = 62.56553 63.19413 62.87983
# Shear Modulus (GPa) = 19.93085 20.62687 20.27886
#
# Velocity S-wave (km/s) = 3.35915 3.41730 3.38835
# Velocity P-wave (km/s) = 7.10400 7.16576 7.13494
#
# Compressibility (1/GPa) = 0.01598324
#
# Stress axis : x y z
#
# Youngs Moduli (GPa) = 42.80721 42.80721 50.53517
#
# Poissons Ratio (x) = 0.38768 0.40950
# Poissons Ratio (y) = 0.38768 0.40950
# Poissons Ratio (z) = 0.34688 0.34688
#
# Static dielectric constant tensor:
#      x y z
#    x 3.242060 0.000000 0.000000 
#    y 0.000000 3.242060 0.000000 
#    z 0.000000 0.000000 3.339150 
# 
# 
# High freq. dielectric constant tensor:
#      x y z
#    x 1.675380 0.000000 0.000000 
#    y 0.000000 1.675380 0.000000 
#    z 0.000000 0.000000 1.677170 
# 
# From -- ./inp_files/1536.got.cif
#   From: 2010.03.12/outbox.cif.g09.slc.cpg/sg136_1_cif.got.tgz:1536.got - 2010.04.06 18:39:43.
