data_PCOD8318474
_publ_section_title
;
Structure prediction by ZEFSAII (Michael W. Deem and Ramdas Pophale) SiO2 
 PCOD8318474
Probable space group: P 42/N M C
;
_chemical_formula_sum "Si O2"
_cell_formula_units_Z 56
_cell_length_a 19.240687
_cell_length_b 19.240687
_cell_length_c 7.614875
_cell_angle_alpha 90.000000
_cell_angle_beta 90.000000
_cell_angle_gamma 90.000000
_cell_volume 2819.057460
_symmetry_space_group_name_H-M "P 42/N M C"
_symmetry_group_IT_number 137
_space_group.IT_coordinate_system_code '2'
_symmetry_cell_setting 'tetragonal'
loop_
_space_group_symop_operation_xyz
x,y,z
1/2-y,x,1/2+z
1/2-x,1/2-y,z
y,1/2-x,1/2+z
1/2+x,-y,-z
-x,1/2+y,-z
1/2+y,1/2+x,1/2-z
-y,-x,1/2-z
-x,-y,-z
1/2+y,-x,1/2-z
1/2+x,1/2+y,-z
-y,1/2+x,1/2-z
1/2-x,y,z
x,1/2-y,z
1/2-y,1/2-x,1/2+z
y,x,1/2+z
loop_
_atom_site_type_symbol
_atom_site_label
_atom_site_fract_x
_atom_site_fract_y
_atom_site_fract_z
Si Si1 0.331345 0.444327 0.249246
Si Si2 0.961171 0.331288 0.444994
Si Si3 0.563954 0.831404 0.853329
Si Si4 0.829335 0.170666 0.250000
O O1 0.250000 0.432905 0.220620
O O2 0.365631 0.372325 0.188450
O O3 0.348505 0.462481 0.450380
O O4 0.361014 0.507903 0.127899
O O5 0.971851 0.250000 0.451420
O O6 0.879401 0.348229 0.414852
O O7 0.004223 0.359265 0.277270
O O8 0.580208 0.750000 0.830129
O O9 0.750000 0.158725 0.314181
#
# Coordination Sequence:
#
# PCOD8318474 Si02
#       4
#    16  16  16   8
#     4  10  19  31  50  74 106 147 183 214 250 294
#     4   9  18  34  53  76 106 136 169 214 265 309
#     4  10  19  31  50  74 106 147 183 214 250 294
#     4   9  18  36  64  86  98 124 168 216 270 329
#
# _framework density 19.864796999999999
#
# number of rings (size 3 to 8) (size 9 to 14) (size 15 to 20)
#    0.000    2.429    2.857    0.000    0.000    0.571 
#    0.000    5.714    0.000    5.143    0.000   16.000 
#    0.000    0.000    0.000    0.000    0.000    0.000 
#
# Total GULP energy -693985.624065 kJ/mol
# GULP energy per Si atom -12392.600430 kJ/mol
# Density = 1.981958 g / cm^3
# Si number density = 19.864797 Si / 1000 Ang^3
#
#
#
# Elastic Constant Matrix: (Units=GPa)
#
#
# Indices 1 2 3 4 5 6 
#
# 1 60.9403 22.5450 24.5439 0.0000 0.0000 0.0000
# 2 22.5450 60.9439 24.5450 0.0000 0.0000 0.0000
# 3 24.5439 24.5450 123.0772 0.0000 0.0000 0.0000
# 4 0.0000 0.0000 0.0000 13.6684 0.0000 0.0000
# 5 0.0000 0.0000 0.0000 0.0000 13.6687 0.0000
# 6 0.0000 0.0000 0.0000 0.0000 0.0000 10.7428
#
#
#
# Elastic Compliance Matrix: (Units=1/GPa)
#
#
# Indices 1 2 3 4 5 6 
#
# 1 0.019807 -0.006237 -0.002706 0.000000 0.000000 0.000000
# 2 -0.006237 0.019806 -0.002706 0.000000 0.000000 0.000000
# 3 -0.002706 -0.002706 0.009204 0.000000 0.000000 0.000000
# 4 0.000000 0.000000 0.000000 0.073161 0.000000 0.000000
# 5 0.000000 0.000000 0.000000 0.000000 0.073160 0.000000
# 6 0.000000 0.000000 0.000000 0.000000 0.000000 0.093085
#
#
# Mechanical properties :
#
#
# Convention : Reuss Voigt Hill
#
# Bulk Modulus (GPa) = 39.18755 43.13656 41.16205
# Shear Modulus (GPa) = 15.62364 19.17116 17.39740
#
# Velocity S-wave (km/s) = 2.80750 3.10995 2.96259
# Velocity P-wave (km/s) = 5.50267 5.88710 5.69813
#
# Compressibility (1/GPa) = 0.02551831
#
# Stress axis : x y z
#
# Youngs Moduli (GPa) = 50.48761 50.49045 108.64551
#
# Poissons Ratio (x) = 0.31493 0.29399
# Poissons Ratio (y) = 0.31491 0.29399
# Poissons Ratio (z) = 0.13662 0.13663
#
# Static dielectric constant tensor:
#      x y z
#    x 3.546910 0.000000 0.000000 
#    y 0.000000 3.546890 0.000000 
#    z 0.000000 0.000000 4.036620 
# 
# 
# High freq. dielectric constant tensor:
#      x y z
#    x 1.760290 0.000000 0.000000 
#    y 0.000000 1.760290 0.000000 
#    z 0.000000 0.000000 1.776320 
# 
# From -- ./inp_files/1500.got.cif
#   From: 2010.03.12/outbox.cif.g09.slc.cpg/sg137_1_cif.got.tgz:1500.got - 2010.04.08 09:34:49.
