data_PCOD8318567
_publ_section_title
;
Structure prediction by ZEFSAII (Michael W. Deem and Ramdas Pophale) SiO2 
 PCOD8318567
Probable space group: P 42/N M C
;
_chemical_formula_sum "Si O2"
_cell_formula_units_Z 72
_cell_length_a 13.541345
_cell_length_b 13.541345
_cell_length_c 22.142237
_cell_angle_alpha 90.000000
_cell_angle_beta 90.000000
_cell_angle_gamma 90.000000
_cell_volume 4060.178255
_symmetry_space_group_name_H-M "P 42/N M C"
_symmetry_group_IT_number 137
_space_group.IT_coordinate_system_code '2'
_symmetry_cell_setting 'tetragonal'
loop_
_space_group_symop_operation_xyz
x,y,z
1/2-y,x,1/2+z
1/2-x,1/2-y,z
y,1/2-x,1/2+z
1/2+x,-y,-z
-x,1/2+y,-z
1/2+y,1/2+x,1/2-z
-y,-x,1/2-z
-x,-y,-z
1/2+y,-x,1/2-z
1/2+x,1/2+y,-z
-y,1/2+x,1/2-z
1/2-x,y,z
x,1/2-y,z
1/2-y,1/2-x,1/2+z
y,x,1/2+z
loop_
_atom_site_type_symbol
_atom_site_label
_atom_site_fract_x
_atom_site_fract_y
_atom_site_fract_z
Si Si1 0.542478 0.864801 0.434328
Si Si2 0.950960 0.362271 0.875111
Si Si3 0.042935 0.542935 0.250000
Si Si4 0.135826 0.133690 0.689367
Si Si5 0.863560 0.639412 0.554936
O O1 0.559072 0.750000 0.441554
O O2 0.428330 0.889053 0.421841
O O3 0.610210 0.901887 0.378600
O O4 0.577347 0.909111 0.498451
O O5 0.919252 0.250000 0.886773
O O6 0.924609 0.390974 0.806797
O O7 0.067992 0.379186 0.887519
O O8 0.928260 0.565988 0.264935
O O9 0.250000 0.113139 0.703201
O O10 0.109892 0.250000 0.698346
O O11 0.750000 0.642669 0.535161
O O12 0.900000 0.750000 0.572715
#
# Coordination Sequence:
#
# PCOD8318567 Si02
#       5
#    16  16   8  16  16
#     4   9  17  30  48  70  95 122 154 193 237 284
#     4  10  20  32  46  67  96 129 161 192 231 282
#     4  10  20  32  46  68  98 128 162 202 242 280
#     4   9  17  30  49  70  92 123 163 202 239 286
#     4   9  17  30  50  74  96 117 146 191 242 283
#
# _framework density 17.733212000000002
#
# number of rings (size 3 to 8) (size 9 to 14) (size 15 to 20)
#    0.000    2.667    0.000    2.000    0.000    4.889 
#    0.000    2.222    0.000    4.667    0.000    0.000 
#    0.000    0.000    0.000    0.000    0.000    0.000 
#
# Total GULP energy -892474.486387 kJ/mol
# GULP energy per Si atom -12395.478978 kJ/mol
# Density = 1.769285 g / cm^3
# Si number density = 17.733212 Si / 1000 Ang^3
#
#
#
# Elastic Constant Matrix: (Units=GPa)
#
#
# Indices 1 2 3 4 5 6 
#
# 1 58.2518 23.4520 24.9565 0.0000 0.0000 0.0000
# 2 23.4520 58.2518 24.9565 0.0000 0.0000 0.0000
# 3 24.9565 24.9565 74.0813 0.0000 0.0000 0.0000
# 4 0.0000 0.0000 0.0000 23.4214 0.0000 0.0000
# 5 0.0000 0.0000 0.0000 0.0000 23.4214 0.0000
# 6 0.0000 0.0000 0.0000 0.0000 0.0000 28.0763
#
#
#
# Elastic Compliance Matrix: (Units=1/GPa)
#
#
# Indices 1 2 3 4 5 6 
#
# 1 0.022073 -0.006662 -0.005192 0.000000 0.000000 0.000000
# 2 -0.006662 0.022073 -0.005192 0.000000 0.000000 0.000000
# 3 -0.005192 -0.005192 0.016997 0.000000 0.000000 0.000000
# 4 0.000000 0.000000 0.000000 0.042696 0.000000 0.000000
# 5 0.000000 0.000000 0.000000 0.000000 0.042696 0.000000
# 6 0.000000 0.000000 0.000000 0.000000 0.000000 0.035617
#
#
# Mechanical properties :
#
#
# Convention : Reuss Voigt Hill
#
# Bulk Modulus (GPa) = 36.96598 37.47944 37.22271
# Shear Modulus (GPa) = 22.19646 22.79849 22.49747
#
# Velocity S-wave (km/s) = 3.54176 3.58947 3.56569
# Velocity P-wave (km/s) = 6.13321 6.19355 6.16346
#
# Compressibility (1/GPa) = 0.02705190
#
# Stress axis : x y z
#
# Youngs Moduli (GPa) = 45.30348 45.30348 58.83527
#
# Poissons Ratio (x) = 0.30183 0.30545
# Poissons Ratio (y) = 0.30183 0.30545
# Poissons Ratio (z) = 0.23520 0.23520
#
# Static dielectric constant tensor:
#      x y z
#    x 3.246170 0.000000 0.000000 
#    y 0.000000 3.246170 0.000000 
#    z 0.000000 0.000000 3.394850 
# 
# 
# High freq. dielectric constant tensor:
#      x y z
#    x 1.672350 0.000000 0.000000 
#    y 0.000000 1.672350 0.000000 
#    z 0.000000 0.000000 1.686720 
# 
# From -- ./inp_files/6233.got.cif
#   From: 2010.03.12/outbox.cif.g09.slc.cpg/sg137_4_cif.got.tgz:6233.got - 2010.04.08 09:34:49.
