data_PCOD8318282
_publ_section_title
;
Structure prediction by ZEFSAII (Michael W. Deem and Ramdas Pophale) SiO2 
 PCOD8318282
Probable space group: P 42/M N M
;
_chemical_formula_sum "Si O2"
_cell_formula_units_Z 88
_cell_length_a 13.749153
_cell_length_b 13.749153
_cell_length_c 23.582561
_cell_angle_alpha 90.000000
_cell_angle_beta 90.000000
_cell_angle_gamma 90.000000
_cell_volume 4458.028659
_symmetry_space_group_name_H-M "P 42/M N M"
_symmetry_group_IT_number 136
_symmetry_cell_setting 'tetragonal'
loop_
_space_group_symop_operation_xyz
x,y,z
1/2-y,1/2+x,1/2+z
-x,-y,z
1/2+y,1/2-x,1/2+z
1/2+x,1/2-y,1/2-z
1/2-x,1/2+y,1/2-z
y,x,-z
-y,-x,-z
-x,-y,-z
1/2+y,1/2-x,1/2-z
x,y,-z
1/2-y,1/2+x,1/2-z
1/2-x,1/2+y,1/2+z
1/2+x,1/2-y,1/2+z
-y,-x,z
y,x,z
loop_
_atom_site_type_symbol
_atom_site_label
_atom_site_fract_x
_atom_site_fract_y
_atom_site_fract_z
Si Si1 0.034524 0.719013 0.628857
Si Si2 0.692111 0.846379 0.435384
Si Si3 0.342873 0.010822 0.251042
Si Si4 0.418200 0.418200 0.933329
Si Si5 0.269646 0.117043 0.854078
Si Si6 0.685165 0.531730 0.564546
O O1 0.046956 0.822013 0.598629
O O2 0.126401 0.647788 0.619486
O O3 0.940675 0.668832 0.601592
O O4 0.015724 0.727929 0.696458
O O5 0.709885 0.878661 0.500000
O O6 0.787922 0.787922 0.413809
O O7 0.598538 0.779460 0.430212
O O8 0.416122 0.097172 0.268613
O O9 0.277404 0.044089 0.198680
O O10 0.500000 0.500000 0.926727
O O11 0.397390 0.397390 0.000000
O O12 0.215329 0.215329 0.834324
O O13 0.202705 0.065606 0.900588
O O14 0.667435 0.500855 0.500000
O O15 0.590424 0.590424 0.586976
#
# Coordination Sequence:
#
# PCOD8318282 Si02
#       6
#    16  16  16   8  16  16
#     4  11  21  38  59  87 118 156 195 244 305 364
#     4   9  18  34  58  86 114 148 197 250 301 357
#     4   9  20  39  63  85 111 149 195 250 304 353
#     4  11  24  40  58  86 127 167 202 242 296 365
#     4  11  23  39  56  86 122 156 198 247 299 363
#     4   9  20  39  60  84 114 152 200 251 301 356
#
# _framework density 19.739666
#
# number of rings (size 3 to 8) (size 9 to 14) (size 15 to 20)
#    0.000    2.091    0.909    3.273    0.000    7.273 
#    1.636    4.545    0.000    0.000    0.000    0.000 
#    0.000    0.000    0.000    0.000    0.000    0.000 
#
# Total GULP energy -1091153.853975 kJ/mol
# GULP energy per Si atom -12399.475613 kJ/mol
# Density = 1.969474 g / cm^3
# Si number density = 19.739666 Si / 1000 Ang^3
#
#
#
# Elastic Constant Matrix: (Units=GPa)
#
#
# Indices 1 2 3 4 5 6 
#
# 1 88.2610 32.8679 51.5735 0.0000 0.0000 0.0000
# 2 32.8679 88.2610 51.5735 0.0000 0.0000 0.0000
# 3 51.5735 51.5735 100.6205 0.0000 0.0000 0.0000
# 4 0.0000 0.0000 0.0000 28.0284 0.0000 0.0000
# 5 0.0000 0.0000 0.0000 0.0000 28.0284 0.0000
# 6 0.0000 0.0000 0.0000 0.0000 0.0000 24.3715
#
#
#
# Elastic Compliance Matrix: (Units=1/GPa)
#
#
# Indices 1 2 3 4 5 6 
#
# 1 0.016351 -0.001701 -0.007509 0.000000 0.000000 0.000000
# 2 -0.001701 0.016351 -0.007509 0.000000 0.000000 0.000000
# 3 -0.007509 -0.007509 0.017636 0.000000 0.000000 0.000000
# 4 0.000000 0.000000 0.000000 0.035678 0.000000 0.000000
# 5 0.000000 0.000000 0.000000 0.000000 0.035678 0.000000
# 6 0.000000 0.000000 0.000000 0.000000 0.000000 0.041031
#
#
# Mechanical properties :
#
#
# Convention : Reuss Voigt Hill
#
# Bulk Modulus (GPa) = 59.17160 61.01913 60.09536
# Shear Modulus (GPa) = 24.77731 25.49416 25.13574
#
# Velocity S-wave (km/s) = 3.54673 3.59767 3.57229
# Velocity P-wave (km/s) = 6.84204 6.94526 6.89384
#
# Compressibility (1/GPa) = 0.01690000
#
# Stress axis : x y z
#
# Youngs Moduli (GPa) = 61.15730 61.15730 56.70323
#
# Poissons Ratio (x) = 0.10406 0.42577
# Poissons Ratio (y) = 0.10406 0.42577
# Poissons Ratio (z) = 0.45922 0.45922
#
# Static dielectric constant tensor:
#      x y z
#    x 3.586790 0.000000 0.000000 
#    y 0.000000 3.586790 0.000000 
#    z 0.000000 0.000000 3.600360 
# 
# 
# High freq. dielectric constant tensor:
#      x y z
#    x 1.771650 0.000000 0.000000 
#    y 0.000000 1.771650 0.000000 
#    z 0.000000 0.000000 1.762460 
# 
# From -- ./inp_files/7339.got.cif
#   From: 2010.03.12/outbox.cif.g09.slc.cpg/sg136_4_cif.got.tgz:7339.got - 2010.04.06 18:39:43.
