data_PCOD8318405
_publ_section_title
;
Structure prediction by ZEFSAII (Michael W. Deem and Ramdas Pophale) SiO2 
 PCOD8318405
Probable space group: P 42/N M C
;
_chemical_formula_sum "Si O2"
_cell_formula_units_Z 96
_cell_length_a 13.802890
_cell_length_b 13.802890
_cell_length_c 29.159000
_cell_angle_alpha 90.000000
_cell_angle_beta 90.000000
_cell_angle_gamma 90.000000
_cell_volume 5555.366042
_symmetry_space_group_name_H-M "P 42/N M C"
_symmetry_group_IT_number 137
_space_group.IT_coordinate_system_code '2'
_symmetry_cell_setting 'tetragonal'
loop_
_space_group_symop_operation_xyz
x,y,z
1/2-y,x,1/2+z
1/2-x,1/2-y,z
y,1/2-x,1/2+z
1/2+x,-y,-z
-x,1/2+y,-z
1/2+y,1/2+x,1/2-z
-y,-x,1/2-z
-x,-y,-z
1/2+y,-x,1/2-z
1/2+x,1/2+y,-z
-y,1/2+x,1/2-z
1/2-x,y,z
x,1/2-y,z
1/2-y,1/2-x,1/2+z
y,x,1/2+z
loop_
_atom_site_type_symbol
_atom_site_label
_atom_site_fract_x
_atom_site_fract_y
_atom_site_fract_z
Si Si1 0.497168 0.135704 0.545948
Si Si2 0.364822 0.142799 0.400744
Si Si3 0.986427 0.138958 0.653345
Si Si4 0.530327 0.864780 0.187812
Si Si5 0.136059 0.482736 0.486916
Si Si6 0.136576 0.142743 0.223923
O O1 0.490372 0.250000 0.534869
O O2 0.511127 0.116727 0.599662
O O3 0.399428 0.079509 0.530698
O O4 0.586396 0.088602 0.517310
O O5 0.250000 0.148634 0.400472
O O6 0.409547 0.250000 0.406626
O O7 0.402322 0.098788 0.353158
O O8 0.399207 0.076532 0.442481
O O9 0.957757 0.250000 0.662679
O O10 0.091534 0.115317 0.675252
O O11 0.906353 0.076609 0.679818
O O12 0.519750 0.750000 0.188237
O O13 0.577312 0.905554 0.234655
O O14 0.250000 0.498223 0.490478
O O15 0.250000 0.154222 0.232541
O O16 0.088679 0.250000 0.223549
#
# Coordination Sequence:
#
# PCOD8318405 Si02
#       6
#    16  16  16  16  16  16
#     4  10  21  35  52  76 106 139 176 216 264 322
#     4   9  16  27  46  71  97 126 163 208 256 300
#     4  10  20  33  49  73 105 138 167 202 252 313
#     4  10  18  30  48  73 103 134 168 205 247 303
#     4  10  20  35  53  75 102 135 177 221 264 314
#     4   9  18  32  49  69  96 131 169 207 244 285
#
# _framework density 17.280588999999999
#
# number of rings (size 3 to 8) (size 9 to 14) (size 15 to 20)
#    0.000    2.333    1.667    1.500    0.000    4.333 
#    0.000    3.333    0.000    3.000    0.000    0.000 
#    0.000   11.333    0.000    0.000    0.000    0.000 
#
# Total GULP energy -1190115.283671 kJ/mol
# GULP energy per Si atom -12397.034205 kJ/mol
# Density = 1.724126 g / cm^3
# Si number density = 17.280589 Si / 1000 Ang^3
#
#
#
# Elastic Constant Matrix: (Units=GPa)
#
#
# Indices 1 2 3 4 5 6 
#
# 1 84.9956 37.7168 36.1557 0.0000 0.0000 0.0000
# 2 37.7168 84.9956 36.1557 0.0000 0.0000 0.0000
# 3 36.1557 36.1557 54.3850 0.0000 0.0000 0.0000
# 4 0.0000 0.0000 0.0000 24.1790 0.0000 0.0000
# 5 0.0000 0.0000 0.0000 0.0000 24.1790 0.0000
# 6 0.0000 0.0000 0.0000 0.0000 0.0000 16.8310
#
#
#
# Elastic Compliance Matrix: (Units=1/GPa)
#
#
# Indices 1 2 3 4 5 6 
#
# 1 0.017274 -0.003877 -0.008907 0.000000 0.000000 0.000000
# 2 -0.003877 0.017274 -0.008907 0.000000 0.000000 0.000000
# 3 -0.008907 -0.008907 0.030230 0.000000 0.000000 0.000000
# 4 0.000000 0.000000 0.000000 0.041358 0.000000 0.000000
# 5 0.000000 0.000000 0.000000 0.000000 0.041358 0.000000
# 6 0.000000 0.000000 0.000000 0.000000 0.000000 0.059414
#
#
# Mechanical properties :
#
#
# Convention : Reuss Voigt Hill
#
# Bulk Modulus (GPa) = 46.73338 49.38138 48.05738
# Shear Modulus (GPa) = 19.42323 20.66102 20.04212
#
# Velocity S-wave (km/s) = 3.35624 3.46152 3.40929
# Velocity P-wave (km/s) = 6.49012 6.67941 6.58544
#
# Compressibility (1/GPa) = 0.02139798
#
# Stress axis : x y z
#
# Youngs Moduli (GPa) = 57.88894 57.88894 33.07939
#
# Poissons Ratio (x) = 0.22442 0.29464
# Poissons Ratio (y) = 0.22442 0.29464
# Poissons Ratio (z) = 0.51562 0.51562
#
# Static dielectric constant tensor:
#      x y z
#    x 3.142400 0.000000 0.000000 
#    y 0.000000 3.142400 0.000000 
#    z 0.000000 0.000000 3.357630 
# 
# 
# High freq. dielectric constant tensor:
#      x y z
#    x 1.649980 0.000000 0.000000 
#    y 0.000000 1.649980 0.000000 
#    z 0.000000 0.000000 1.677260 
# 
# From -- ./inp_files/10603.got.cif
#   From: 2010.03.12/outbox.cif.g09.slc.cpg/sg137_6_cif.got.tgz:10603.got - 2010.04.08 09:34:49.
