data_PCOD8318037
_publ_section_title
;
Structure prediction by ZEFSAII (Michael W. Deem and Ramdas Pophale) SiO2 
 PCOD8318037
Probable space group: P 42/M N M
;
_chemical_formula_sum "Si O2"
_cell_formula_units_Z 96
_cell_length_a 24.648226
_cell_length_b 24.648226
_cell_length_c 9.208131
_cell_angle_alpha 90.000000
_cell_angle_beta 90.000000
_cell_angle_gamma 90.000000
_cell_volume 5594.262281
_symmetry_space_group_name_H-M "P 42/M N M"
_symmetry_group_IT_number 136
_symmetry_cell_setting 'tetragonal'
loop_
_space_group_symop_operation_xyz
x,y,z
1/2-y,1/2+x,1/2+z
-x,-y,z
1/2+y,1/2-x,1/2+z
1/2+x,1/2-y,1/2-z
1/2-x,1/2+y,1/2-z
y,x,-z
-y,-x,-z
-x,-y,-z
1/2+y,1/2-x,1/2-z
x,y,-z
1/2-y,1/2+x,1/2-z
1/2-x,1/2+y,1/2+z
1/2+x,1/2-y,1/2+z
-y,-x,z
y,x,z
loop_
_atom_site_type_symbol
_atom_site_label
_atom_site_fract_x
_atom_site_fract_y
_atom_site_fract_z
Si Si1 0.108365 0.253694 0.835789
Si Si2 0.127804 0.578789 0.667806
Si Si3 0.575630 0.424371 0.827403
Si Si4 0.238059 0.983832 0.833081
Si Si5 0.663734 0.336267 0.170514
Si Si6 0.382929 0.470863 0.667568
Si Si7 0.529001 0.844889 0.171292
O O1 0.113605 0.317765 0.806318
O O2 0.148800 0.223035 0.728712
O O3 0.047655 0.234090 0.802447
O O4 0.124684 0.239156 0.000000
O O5 0.124119 0.560632 0.500000
O O6 0.128379 0.524974 0.764217
O O7 0.077891 0.615766 0.715585
O O8 0.619732 0.380269 0.775395
O O9 0.591839 0.482808 0.767218
O O10 0.572302 0.427699 0.000000
O O11 0.179713 0.958665 0.791030
O O12 0.285322 0.958065 0.735084
O O13 0.253419 0.972557 0.000000
O O14 0.666512 0.333489 0.000000
O O15 0.386820 0.489974 0.500000
O O16 0.415392 0.415392 0.694343
O O17 0.522553 0.839296 0.000000
#
# Coordination Sequence:
#
# PCOD8318037 Si02
#       7
#    16  16   8  16   8  16  16
#     4   9  17  32  53  71  94 133 172 205 248 302
#     4   9  20  37  54  79 109 137 170 206 249 306
#     4  11  22  32  45  72 110 138 162 218 274 306
#     4   9  18  33  52  74 100 133 171 210 252 301
#     4  11  21  30  46  75 104 128 166 220 264 301
#     4  10  20  34  52  72  97 136 181 216 251 309
#     4  10  20  34  56  81 106 135 168 208 253 303
#
# _framework density 17.160440000000001
#
# number of rings (size 3 to 8) (size 9 to 14) (size 15 to 20)
#    0.000    2.333    1.667    2.250    0.000    7.000 
#    0.000    1.667    1.833    0.000    0.000    0.000 
#    0.000    0.000    0.000    0.000    0.000    0.000 
#
# Total GULP energy -1190558.639969 kJ/mol
# GULP energy per Si atom -12401.652500 kJ/mol
# Density = 1.712138 g / cm^3
# Si number density = 17.160440 Si / 1000 Ang^3
#
#
#
# Elastic Constant Matrix: (Units=GPa)
#
#
# Indices 1 2 3 4 5 6 
#
# 1 107.1534 70.6826 52.7346 0.0000 0.0000 0.0000
# 2 70.6826 107.1535 52.7348 0.0000 0.0000 0.0000
# 3 52.7346 52.7348 72.9701 0.0000 0.0000 0.0000
# 4 0.0000 0.0000 0.0000 25.7749 0.0000 0.0000
# 5 0.0000 0.0000 0.0000 0.0000 25.7749 0.0000
# 6 0.0000 0.0000 0.0000 0.0000 0.0000 24.8631
#
#
#
# Elastic Compliance Matrix: (Units=1/GPa)
#
#
# Indices 1 2 3 4 5 6 
#
# 1 0.018630 -0.008789 -0.007112 0.000000 0.000000 0.000000
# 2 -0.008789 0.018630 -0.007112 0.000000 0.000000 0.000000
# 3 -0.007112 -0.007112 0.023984 0.000000 0.000000 0.000000
# 4 0.000000 0.000000 0.000000 0.038797 0.000000 0.000000
# 5 0.000000 0.000000 0.000000 0.000000 0.038797 0.000000
# 6 0.000000 0.000000 0.000000 0.000000 0.000000 0.040220
#
#
# Mechanical properties :
#
#
# Convention : Reuss Voigt Hill
#
# Bulk Modulus (GPa) = 65.71236 71.06454 68.38845
# Shear Modulus (GPa) = 21.72420 22.69092 22.20756
#
# Velocity S-wave (km/s) = 3.56187 3.64026 3.60128
# Velocity P-wave (km/s) = 7.43586 7.69223 7.56513
#
# Compressibility (1/GPa) = 0.01521784
#
# Stress axis : x y z
#
# Youngs Moduli (GPa) = 53.67656 53.67645 41.69470
#
# Poissons Ratio (x) = 0.47176 0.29653
# Poissons Ratio (y) = 0.47176 0.29654
# Poissons Ratio (z) = 0.38175 0.38175
#
# Static dielectric constant tensor:
#      x y z
#    x 3.202020 0.000000 0.000000 
#    y 0.000000 3.202020 0.000000 
#    z 0.000000 0.000000 3.175660 
# 
# 
# High freq. dielectric constant tensor:
#      x y z
#    x 1.653640 0.000000 0.000000 
#    y 0.000000 1.653640 0.000000 
#    z 0.000000 0.000000 1.664440 
# 
# From -- ./inp_files/2042.got.cif
#   From: 2010.03.12/outbox.cif.g09.slc.cpg/sg136_2_cif.got.tgz:2042.got - 2010.04.06 18:39:43.
