data_PCOD8318062
_publ_section_title
;
Structure prediction by ZEFSAII (Michael W. Deem and Ramdas Pophale) SiO2 
 PCOD8318062
Probable space group: P 42/M N M
;
_chemical_formula_sum "Si O2"
_cell_formula_units_Z 56
_cell_length_a 17.572965
_cell_length_b 17.572965
_cell_length_c 8.091141
_cell_angle_alpha 90.000000
_cell_angle_beta 90.000000
_cell_angle_gamma 90.000000
_cell_volume 2498.617961
_symmetry_space_group_name_H-M "P 42/M N M"
_symmetry_group_IT_number 136
_symmetry_cell_setting 'tetragonal'
loop_
_space_group_symop_operation_xyz
x,y,z
1/2-y,1/2+x,1/2+z
-x,-y,z
1/2+y,1/2-x,1/2+z
1/2+x,1/2-y,1/2-z
1/2-x,1/2+y,1/2-z
y,x,-z
-y,-x,-z
-x,-y,-z
1/2+y,1/2-x,1/2-z
x,y,-z
1/2-y,1/2+x,1/2-z
1/2-x,1/2+y,1/2+z
1/2+x,1/2-y,1/2+z
-y,-x,z
y,x,z
loop_
_atom_site_type_symbol
_atom_site_label
_atom_site_fract_x
_atom_site_fract_y
_atom_site_fract_z
Si Si1 0.442806 0.900786 0.687147
Si Si2 0.497718 0.625655 0.000000
Si Si3 0.819192 0.057230 0.179456
Si Si4 0.204997 0.323353 0.807993
O O1 0.470067 0.890354 0.500000
O O2 0.517854 0.898932 0.799597
O O3 0.384544 0.832568 0.737393
O O4 0.498689 0.677529 0.833579
O O5 0.571356 0.571356 0.000000
O O6 0.419650 0.580351 0.000000
O O7 0.898869 0.101132 0.173273
O O8 0.750638 0.116101 0.200406
O O9 0.807399 0.015747 0.000000
O O10 0.238134 0.238134 0.771440
O O11 0.217528 0.344130 0.000000
#
# Coordination Sequence:
#
# PCOD8318062 Si02
#       4
#    16   8  16  16
#     4  10  20  34  55  82 115 150 185 231 287 348
#     4   9  16  26  40  60  94 133 170 224 279 328
#     4   9  16  26  43  68  96 129 174 224 272 324
#     4   9  17  32  54  78 105 141 185 231 282 340
#
# _framework density 22.412389999999998
#
# number of rings (size 3 to 8) (size 9 to 14) (size 15 to 20)
#    0.000    2.714    1.429    1.714    0.000    2.857 
#    0.000    2.857    0.000    1.714    0.000    4.000 
#    0.000    0.000    0.000    0.000    0.000    0.000 
#
# Total GULP energy -693801.582029 kJ/mol
# GULP energy per Si atom -12389.313965 kJ/mol
# Density = 2.236138 g / cm^3
# Si number density = 22.412390 Si / 1000 Ang^3
#
#
#
# Elastic Constant Matrix: (Units=GPa)
#
#
# Indices 1 2 3 4 5 6 
#
# 1 47.1244 28.8520 2.7110 0.0000 0.0000 0.0000
# 2 28.8520 47.1241 2.7095 0.0000 0.0000 0.0000
# 3 2.7110 2.7095 116.9645 0.0000 0.0000 0.0000
# 4 0.0000 0.0000 0.0000 15.2177 0.0000 0.0000
# 5 0.0000 0.0000 0.0000 0.0000 15.2171 0.0000
# 6 0.0000 0.0000 0.0000 0.0000 0.0000 26.7383
#
#
#
# Elastic Compliance Matrix: (Units=1/GPa)
#
#
# Indices 1 2 3 4 5 6 
#
# 1 0.033956 -0.020772 -0.000306 0.000000 0.000000 0.000000
# 2 -0.020772 0.033956 -0.000305 0.000000 0.000000 0.000000
# 3 -0.000306 -0.000305 0.008564 0.000000 0.000000 0.000000
# 4 0.000000 0.000000 0.000000 0.065713 0.000000 0.000000
# 5 0.000000 0.000000 0.000000 0.000000 0.065715 0.000000
# 6 0.000000 0.000000 0.000000 0.000000 0.000000 0.037400
#
#
# Mechanical properties :
#
#
# Convention : Reuss Voigt Hill
#
# Bulk Modulus (GPa) = 29.66531 31.08422 30.37476
# Shear Modulus (GPa) = 16.70531 23.23064 19.96798
#
# Velocity S-wave (km/s) = 2.73309 3.22298 2.98809
# Velocity P-wave (km/s) = 4.81919 5.26777 5.04847
#
# Compressibility (1/GPa) = 0.03370940
#
# Stress axis : x y z
#
# Youngs Moduli (GPa) = 29.45010 29.44995 116.77110
#
# Poissons Ratio (x) = 0.61174 0.03571
# Poissons Ratio (y) = 0.61174 0.03563
# Poissons Ratio (z) = 0.00901 0.00899
#
# Static dielectric constant tensor:
#      x y z
#    x 3.756240 0.000000 0.000000 
#    y 0.000000 3.756240 0.000000 
#    z 0.000000 0.000000 4.272600 
# 
# 
# High freq. dielectric constant tensor:
#      x y z
#    x 1.846710 0.000000 0.000000 
#    y 0.000000 1.846710 0.000000 
#    z 0.000000 0.000000 1.891990 
# 
# From -- ./inp_files/1133.got.cif
#   From: 2010.03.12/outbox.cif.g09.slc.cpg/sg136_1_cif.got.tgz:1133.got - 2010.04.06 18:39:43.
