data_PCOD8318100
_publ_section_title
;
Structure prediction by ZEFSAII (Michael W. Deem and Ramdas Pophale) SiO2 
 PCOD8318100
Probable space group: P 42/M N M
;
_chemical_formula_sum "Si O2"
_cell_formula_units_Z 72
_cell_length_a 20.474227
_cell_length_b 20.474227
_cell_length_c 8.896425
_cell_angle_alpha 90.000000
_cell_angle_beta 90.000000
_cell_angle_gamma 90.000000
_cell_volume 3729.327726
_symmetry_space_group_name_H-M "P 42/M N M"
_symmetry_group_IT_number 136
_symmetry_cell_setting 'tetragonal'
loop_
_space_group_symop_operation_xyz
x,y,z
1/2-y,1/2+x,1/2+z
-x,-y,z
1/2+y,1/2-x,1/2+z
1/2+x,1/2-y,1/2-z
1/2-x,1/2+y,1/2-z
y,x,-z
-y,-x,-z
-x,-y,-z
1/2+y,1/2-x,1/2-z
x,y,-z
1/2-y,1/2+x,1/2-z
1/2-x,1/2+y,1/2+z
1/2+x,1/2-y,1/2+z
-y,-x,z
y,x,z
loop_
_atom_site_type_symbol
_atom_site_label
_atom_site_fract_x
_atom_site_fract_y
_atom_site_fract_z
Si Si1 0.545012 0.085711 0.678982
Si Si2 0.185815 0.957997 0.823466
Si Si3 0.554230 0.554230 0.168360
Si Si4 0.229661 0.577146 0.677928
Si Si5 0.211483 0.211483 0.178271
Si Si6 0.309259 0.309259 0.674551
O O1 0.544582 0.074734 0.500000
O O2 0.470690 0.085849 0.738751
O O3 0.578399 0.153890 0.726103
O O4 0.117043 0.975076 0.750061
O O5 0.207460 0.884289 0.783475
O O6 0.237983 0.010329 0.760376
O O7 0.176179 0.965031 0.000000
O O8 0.500000 0.500000 0.171746
O O9 0.573952 0.573952 0.000000
O O10 0.234748 0.577697 0.500000
O O11 0.267178 0.640677 0.743808
O O12 0.264536 0.264536 0.223801
O O13 0.208849 0.208849 0.000000
O O14 0.295323 0.295323 0.500000
#
# Coordination Sequence:
#
# PCOD8318100 Si02
#       6
#    16  16   8  16   8   8
#     4  10  20  36  57  83 112 143 183 226 273 327
#     4   9  19  37  59  80 102 141 190 226 262 318
#     4  10  21  35  52  79 113 139 168 221 276 320
#     4   9  20  36  57  83 110 142 184 232 273 323
#     4  10  21  37  56  81 111 143 183 227 277 332
#     4   9  19  35  56  82 110 137 179 228 275 326
#
# _framework density 19.306428
#
# number of rings (size 3 to 8) (size 9 to 14) (size 15 to 20)
#    0.000    2.556    0.000    2.333    4.667    2.667 
#    0.000    4.444    0.000    0.000    0.000    0.000 
#    0.000    0.000    0.000    0.000    0.000    0.000 
#
# Total GULP energy -892681.194599 kJ/mol
# GULP energy per Si atom -12398.349925 kJ/mol
# Density = 1.926249 g / cm^3
# Si number density = 19.306428 Si / 1000 Ang^3
#
#
#
# Elastic Constant Matrix: (Units=GPa)
#
#
# Indices 1 2 3 4 5 6 
#
# 1 111.9281 77.0621 17.4352 0.0000 0.0000 0.0000
# 2 77.0621 111.9281 17.4352 0.0000 0.0000 0.0000
# 3 17.4352 17.4352 34.4379 0.0000 0.0000 0.0000
# 4 0.0000 0.0000 0.0000 22.4938 0.0000 0.0000
# 5 0.0000 0.0000 0.0000 0.0000 22.4938 0.0000
# 6 0.0000 0.0000 0.0000 0.0000 0.0000 33.9152
#
#
#
# Elastic Compliance Matrix: (Units=1/GPa)
#
#
# Indices 1 2 3 4 5 6 
#
# 1 0.017259 -0.011422 -0.002955 0.000000 0.000000 0.000000
# 2 -0.011422 0.017259 -0.002955 0.000000 0.000000 0.000000
# 3 -0.002955 -0.002955 0.032030 0.000000 0.000000 0.000000
# 4 0.000000 0.000000 0.000000 0.044457 0.000000 0.000000
# 5 0.000000 0.000000 0.000000 0.000000 0.044457 0.000000
# 6 0.000000 0.000000 0.000000 0.000000 0.000000 0.029485
#
#
# Mechanical properties :
#
#
# Convention : Reuss Voigt Hill
#
# Bulk Modulus (GPa) = 31.36450 53.57324 42.46887
# Shear Modulus (GPa) = 21.71663 25.53800 23.62731
#
# Velocity S-wave (km/s) = 3.35750 3.64094 3.50209
# Velocity P-wave (km/s) = 5.59565 6.74421 6.19660
#
# Compressibility (1/GPa) = 0.03188318
#
# Stress axis : x y z
#
# Youngs Moduli (GPa) = 57.94122 57.94122 31.22092
#
# Poissons Ratio (x) = 0.66183 0.09225
# Poissons Ratio (y) = 0.66183 0.09225
# Poissons Ratio (z) = 0.17121 0.17121
#
# Static dielectric constant tensor:
#      x y z
#    x 3.835730 0.000000 0.000000 
#    y 0.000000 3.835730 0.000000 
#    z 0.000000 0.000000 3.328090 
# 
# 
# High freq. dielectric constant tensor:
#      x y z
#    x 1.757290 0.000000 0.000000 
#    y 0.000000 1.757290 0.000000 
#    z 0.000000 0.000000 1.727100 
# 
# From -- ./inp_files/1670.got.cif
#   From: 2010.03.12/outbox.cif.g09.slc.cpg/sg136_1_cif.got.tgz:1670.got - 2010.04.06 18:39:43.
