data_PCOD8318576
_publ_section_title
;
Structure prediction by ZEFSAII (Michael W. Deem and Ramdas Pophale) SiO2 
 PCOD8318576
Probable space group: P 42/N M C
;
_chemical_formula_sum "Si O2"
_cell_formula_units_Z 96
_cell_length_a 17.979446
_cell_length_b 17.979446
_cell_length_c 17.520426
_cell_angle_alpha 90.000000
_cell_angle_beta 90.000000
_cell_angle_gamma 90.000000
_cell_volume 5663.661292
_symmetry_space_group_name_H-M "P 42/N M C"
_symmetry_group_IT_number 137
_space_group.IT_coordinate_system_code '2'
_symmetry_cell_setting 'tetragonal'
loop_
_space_group_symop_operation_xyz
x,y,z
1/2-y,x,1/2+z
1/2-x,1/2-y,z
y,1/2-x,1/2+z
1/2+x,-y,-z
-x,1/2+y,-z
1/2+y,1/2+x,1/2-z
-y,-x,1/2-z
-x,-y,-z
1/2+y,-x,1/2-z
1/2+x,1/2+y,-z
-y,1/2+x,1/2-z
1/2-x,y,z
x,1/2-y,z
1/2-y,1/2-x,1/2+z
y,x,1/2+z
loop_
_atom_site_type_symbol
_atom_site_label
_atom_site_fract_x
_atom_site_fract_y
_atom_site_fract_z
Si Si1 0.164899 0.112345 0.495191
Si Si2 0.165632 0.934160 0.962410
Si Si3 0.427739 0.459751 0.713341
Si Si4 0.926451 0.663776 0.641681
Si Si5 0.664866 0.464853 0.416590
Si Si6 0.166326 0.040201 0.099703
O O1 0.250000 0.138574 0.500498
O O2 0.135410 0.122883 0.409541
O O3 0.118227 0.162141 0.554376
O O4 0.156005 0.025956 0.517215
O O5 0.250000 0.904673 0.962257
O O6 0.112530 0.864077 0.950599
O O7 0.153137 0.992273 0.894160
O O8 0.146191 0.973459 0.042261
O O9 0.494821 0.505180 0.750000
O O10 0.372440 0.425415 0.775400
O O11 0.381488 0.513090 0.657863
O O12 0.464071 0.390647 0.669159
O O13 0.904912 0.750000 0.648487
O O14 0.750000 0.454803 0.391489
O O15 0.250000 0.031664 0.131251
#
# Coordination Sequence:
#
# PCOD8318576 Si02
#       6
#    16  16  16  16  16  16
#     4   9  19  33  53  78 103 133 172 214 252 293
#     4   9  18  34  54  74 100 132 170 216 258 298
#     4  11  21  33  53  76 104 142 171 205 255 308
#     4  10  20  33  50  75 105 137 169 205 249 302
#     4  10  20  34  53  77 105 133 171 216 255 304
#     4   9  20  35  53  75 102 133 172 213 254 304
#
# _framework density 16.950164999999998
#
# number of rings (size 3 to 8) (size 9 to 14) (size 15 to 20)
#    0.000    2.333    1.667    2.000    2.333    5.000 
#    0.000    0.000    0.000    0.000    0.000    0.000 
#    0.000    0.000    0.000    0.000    0.000    0.000 
#
# Total GULP energy -1190631.902600 kJ/mol
# GULP energy per Si atom -12402.415652 kJ/mol
# Density = 1.691159 g / cm^3
# Si number density = 16.950165 Si / 1000 Ang^3
#
#
#
# Elastic Constant Matrix: (Units=GPa)
#
#
# Indices 1 2 3 4 5 6 
#
# 1 93.1860 57.6889 55.9111 0.0000 0.0000 0.0000
# 2 57.6889 93.1866 55.9112 0.0000 0.0000 0.0000
# 3 55.9111 55.9112 106.8733 0.0000 0.0000 0.0000
# 4 0.0000 0.0000 0.0000 21.2345 0.0000 0.0000
# 5 0.0000 0.0000 0.0000 0.0000 21.2337 0.0000
# 6 0.0000 0.0000 0.0000 0.0000 0.0000 24.8659
#
#
#
# Elastic Compliance Matrix: (Units=1/GPa)
#
#
# Indices 1 2 3 4 5 6 
#
# 1 0.019498 -0.008673 -0.005663 0.000000 0.000000 0.000000
# 2 -0.008673 0.019498 -0.005663 0.000000 0.000000 0.000000
# 3 -0.005663 -0.005663 0.015283 0.000000 0.000000 0.000000
# 4 0.000000 0.000000 0.000000 0.047093 0.000000 0.000000
# 5 0.000000 0.000000 0.000000 0.000000 0.047095 0.000000
# 6 0.000000 0.000000 0.000000 0.000000 0.000000 0.040216
#
#
# Mechanical properties :
#
#
# Convention : Reuss Voigt Hill
#
# Bulk Modulus (GPa) = 70.02847 70.25203 70.14025
# Shear Modulus (GPa) = 21.41861 21.71581 21.56721
#
# Velocity S-wave (km/s) = 3.55860 3.58321 3.57093
# Velocity P-wave (km/s) = 7.63472 7.65868 7.64671
#
# Compressibility (1/GPa) = 0.01427991
#
# Stress axis : x y z
#
# Youngs Moduli (GPa) = 51.28645 51.28683 65.43431
#
# Poissons Ratio (x) = 0.44480 0.37058
# Poissons Ratio (y) = 0.44480 0.37058
# Poissons Ratio (z) = 0.29046 0.29046
#
# Static dielectric constant tensor:
#      x y z
#    x 3.132410 0.000000 0.000000 
#    y 0.000000 3.132410 0.000000 
#    z 0.000000 0.000000 3.122440 
# 
# 
# High freq. dielectric constant tensor:
#      x y z
#    x 1.650590 0.000000 0.000000 
#    y 0.000000 1.650590 0.000000 
#    z 0.000000 0.000000 1.648020 
# 
# From -- ./inp_files/6458.got.cif
#   From: 2010.03.12/outbox.cif.g09.slc.cpg/sg137_4_cif.got.tgz:6458.got - 2010.04.08 09:34:49.
