data_PCOD8318215
_publ_section_title
;
Structure prediction by ZEFSAII (Michael W. Deem and Ramdas Pophale) SiO2 
 PCOD8318215
Probable space group: P 42/M N M
;
_chemical_formula_sum "Si O2"
_cell_formula_units_Z 96
_cell_length_a 23.237865
_cell_length_b 23.237865
_cell_length_c 8.838844
_cell_angle_alpha 90.000000
_cell_angle_beta 90.000000
_cell_angle_gamma 90.000000
_cell_volume 4772.961351
_symmetry_space_group_name_H-M "P 42/M N M"
_symmetry_group_IT_number 136
_symmetry_cell_setting 'tetragonal'
loop_
_space_group_symop_operation_xyz
x,y,z
1/2-y,1/2+x,1/2+z
-x,-y,z
1/2+y,1/2-x,1/2+z
1/2+x,1/2-y,1/2-z
1/2-x,1/2+y,1/2-z
y,x,-z
-y,-x,-z
-x,-y,-z
1/2+y,1/2-x,1/2-z
x,y,-z
1/2-y,1/2+x,1/2-z
1/2-x,1/2+y,1/2+z
1/2+x,1/2-y,1/2+z
-y,-x,z
y,x,z
loop_
_atom_site_type_symbol
_atom_site_label
_atom_site_fract_x
_atom_site_fract_y
_atom_site_fract_z
Si Si1 0.034613 0.875631 0.173981
Si Si2 0.346285 0.888632 0.829885
Si Si3 0.843736 0.843736 0.177932
Si Si4 0.015799 0.745337 0.823400
Si Si5 0.430536 0.569465 0.823058
Si Si6 0.605555 0.232558 0.172641
Si Si7 0.942857 0.443709 0.671302
O O1 0.100030 0.899971 0.189630
O O2 0.029722 0.810039 0.231023
O O3 0.995629 0.916031 0.278876
O O4 0.014030 0.879885 0.000000
O O5 0.288680 0.924300 0.788739
O O6 0.347329 0.819402 0.820914
O O7 0.390616 0.902075 0.697123
O O8 0.365621 0.907309 0.000000
O O9 0.890028 0.890028 0.225705
O O10 0.862754 0.782286 0.238112
O O11 0.840261 0.840261 0.000000
O O12 0.958816 0.719919 0.740184
O O13 0.001333 0.742926 0.000000
O O14 0.420697 0.579304 0.000000
O O15 0.595274 0.251225 0.000000
O O16 0.923452 0.493102 0.786797
O O17 0.939252 0.465820 0.500000
#
# Coordination Sequence:
#
# PCOD8318215 Si02
#       7
#    16  16   8  16   8  16  16
#     4  10  21  38  61  90 123 162 205 244 296 365
#     4  10  22  39  58  87 121 156 201 247 299 360
#     4  12  24  41  65  90 120 161 210 255 305 366
#     4  10  21  39  62  88 121 165 206 248 302 365
#     4  12  23  37  62  95 126 156 196 248 311 363
#     4  11  23  40  63  92 124 159 203 258 307 358
#     4  11  21  34  54  80 112 151 194 246 304 358
#
# _framework density 20.113299000000001
#
# number of rings (size 3 to 8) (size 9 to 14) (size 15 to 20)
#    0.000    1.333    1.667    5.250    0.000    6.000 
#    1.500    0.000    0.000    0.000    0.000    0.000 
#    0.000    0.000    0.000    0.000    0.000    0.000 
#
# Total GULP energy -1189615.236914 kJ/mol
# GULP energy per Si atom -12391.825385 kJ/mol
# Density = 2.006752 g / cm^3
# Si number density = 20.113299 Si / 1000 Ang^3
#
#
#
# Elastic Constant Matrix: (Units=GPa)
#
#
# Indices 1 2 3 4 5 6 
#
# 1 104.3238 45.1726 32.6989 0.0000 0.0000 0.0000
# 2 45.1726 104.3235 32.6991 0.0000 0.0000 0.0000
# 3 32.6989 32.6991 97.7837 0.0000 0.0000 0.0000
# 4 0.0000 0.0000 0.0000 26.5280 0.0000 0.0000
# 5 0.0000 0.0000 0.0000 0.0000 26.5280 0.0000
# 6 0.0000 0.0000 0.0000 0.0000 0.0000 42.1225
#
#
#
# Elastic Compliance Matrix: (Units=1/GPa)
#
#
# Indices 1 2 3 4 5 6 
#
# 1 0.012371 -0.004535 -0.002620 0.000000 0.000000 0.000000
# 2 -0.004535 0.012371 -0.002620 0.000000 0.000000 0.000000
# 3 -0.002620 -0.002620 0.011979 0.000000 0.000000 0.000000
# 4 0.000000 0.000000 0.000000 0.037696 0.000000 0.000000
# 5 0.000000 0.000000 0.000000 0.000000 0.037696 0.000000
# 6 0.000000 0.000000 0.000000 0.000000 0.000000 0.023740
#
#
# Mechanical properties :
#
#
# Convention : Reuss Voigt Hill
#
# Bulk Modulus (GPa) = 58.24421 58.61915 58.43168
# Shear Modulus (GPa) = 31.03146 32.09305 31.56226
#
# Velocity S-wave (km/s) = 3.93215 3.99885 3.96564
# Velocity P-wave (km/s) = 7.04533 7.10836 7.07692
#
# Compressibility (1/GPa) = 0.01716909
#
# Stress axis : x y z
#
# Youngs Moduli (GPa) = 80.83695 80.83663 83.47933
#
# Poissons Ratio (x) = 0.36662 0.21873
# Poissons Ratio (y) = 0.36662 0.21873
# Poissons Ratio (z) = 0.21180 0.21181
#
# Static dielectric constant tensor:
#      x y z
#    x 3.763850 0.000000 0.000000 
#    y 0.000000 3.763850 0.000000 
#    z 0.000000 0.000000 4.656040 
# 
# 
# High freq. dielectric constant tensor:
#      x y z
#    x 1.781720 0.000000 0.000000 
#    y 0.000000 1.781720 0.000000 
#    z 0.000000 0.000000 1.786080 
# 
# From -- ./inp_files/2023.got.cif
#   From: 2010.03.12/outbox.cif.g09.slc.cpg/sg136_2_cif.got.tgz:2023.got - 2010.04.06 18:39:43.
