data_PCOD8318288
_publ_section_title
;
Structure prediction by ZEFSAII (Michael W. Deem and Ramdas Pophale) SiO2 
 PCOD8318288
Probable space group: P 42/M N M
;
_chemical_formula_sum "Si O2"
_cell_formula_units_Z 80
_cell_length_a 17.116333
_cell_length_b 17.116333
_cell_length_c 13.813181
_cell_angle_alpha 90.000000
_cell_angle_beta 90.000000
_cell_angle_gamma 90.000000
_cell_volume 4046.831827
_symmetry_space_group_name_H-M "P 42/M N M"
_symmetry_group_IT_number 136
_symmetry_cell_setting 'tetragonal'
loop_
_space_group_symop_operation_xyz
x,y,z
1/2-y,1/2+x,1/2+z
-x,-y,z
1/2+y,1/2-x,1/2+z
1/2+x,1/2-y,1/2-z
1/2-x,1/2+y,1/2-z
y,x,-z
-y,-x,-z
-x,-y,-z
1/2+y,1/2-x,1/2-z
x,y,-z
1/2-y,1/2+x,1/2-z
1/2-x,1/2+y,1/2+z
1/2+x,1/2-y,1/2+z
-y,-x,z
y,x,z
loop_
_atom_site_type_symbol
_atom_site_label
_atom_site_fract_x
_atom_site_fract_y
_atom_site_fract_z
Si Si1 0.601727 0.268403 0.000000
Si Si2 0.906367 0.223888 0.206652
Si Si3 0.274157 0.858160 0.000000
Si Si4 0.911718 0.518599 0.605273
Si Si5 0.381783 0.858899 0.266196
Si Si6 0.803885 0.931297 0.706311
O O1 0.548496 0.286067 0.093869
O O2 0.674788 0.325213 0.000000
O O3 0.639744 0.181765 0.000000
O O4 0.843610 0.156391 0.214583
O O5 0.909012 0.263232 0.099248
O O6 0.887128 0.292601 0.284633
O O7 0.990141 0.187842 0.231582
O O8 0.206744 0.793257 0.000000
O O9 0.871894 0.539632 0.500000
O O10 0.869320 0.440782 0.644827
O O11 0.914504 0.591367 0.676851
O O12 0.000000 0.500000 0.583505
O O13 0.377558 0.767442 0.242014
O O14 0.883985 0.883985 0.719869
#
# Coordination Sequence:
#
# PCOD8318288 Si02
#       6
#     8  16   8  16  16  16
#     4   9  18  36  63  92 113 148 207 259 298 343
#     4  11  23  39  63  91 122 158 205 257 306 358
#     4   9  18  36  65  92 113 148 203 261 302 345
#     4  11  22  36  56  87 126 161 194 243 305 370
#     4  12  20  38  58  91 120 156 202 243 304 365
#     4  11  23  39  63  90 122 158 202 255 306 359
#
# _framework density 19.768550000000001
#
# number of rings (size 3 to 8) (size 9 to 14) (size 15 to 20)
#    0.000    1.200    6.000    0.600    2.800    0.400 
#    1.800    1.000    0.000    4.800    0.000    0.000 
#    0.000    0.000    0.000    0.000    0.000    0.000 
#
# Total GULP energy -991763.969384 kJ/mol
# GULP energy per Si atom -12397.049617 kJ/mol
# Density = 1.972356 g / cm^3
# Si number density = 19.768550 Si / 1000 Ang^3
#
#
#
# Elastic Constant Matrix: (Units=GPa)
#
#
# Indices 1 2 3 4 5 6 
#
# 1 81.2274 11.3789 32.9495 0.0000 0.0000 0.0000
# 2 11.3789 81.2256 32.9498 0.0000 0.0000 0.0000
# 3 32.9495 32.9498 98.1355 0.0000 0.0000 0.0000
# 4 0.0000 0.0000 0.0000 39.6278 0.0000 0.0000
# 5 0.0000 0.0000 0.0000 0.0000 39.6267 0.0000
# 6 0.0000 0.0000 0.0000 0.0000 0.0000 29.3248
#
#
#
# Elastic Compliance Matrix: (Units=1/GPa)
#
#
# Indices 1 2 3 4 5 6 
#
# 1 0.014253 -0.000064 -0.004764 0.000000 0.000000 0.000000
# 2 -0.000064 0.014253 -0.004764 0.000000 0.000000 0.000000
# 3 -0.004764 -0.004764 0.013389 0.000000 0.000000 0.000000
# 4 0.000000 0.000000 0.000000 0.025235 0.000000 0.000000
# 5 0.000000 0.000000 0.000000 0.000000 0.025235 0.000000
# 6 0.000000 0.000000 0.000000 0.000000 0.000000 0.034101
#
#
# Mechanical properties :
#
#
# Convention : Reuss Voigt Hill
#
# Bulk Modulus (GPa) = 44.03247 46.12724 45.07985
# Shear Modulus (GPa) = 32.63287 33.93654 33.28471
#
# Velocity S-wave (km/s) = 4.06735 4.14780 4.10777
# Velocity P-wave (km/s) = 6.66184 6.80612 6.73436
#
# Compressibility (1/GPa) = 0.02271051
#
# Stress axis : x y z
#
# Youngs Moduli (GPa) = 70.16301 70.16101 74.68798
#
# Poissons Ratio (x) = 0.00450 0.35580
# Poissons Ratio (y) = 0.00450 0.35581
# Poissons Ratio (z) = 0.33424 0.33425
#
# Static dielectric constant tensor:
#      x y z
#    x 3.650110 0.000000 0.000000 
#    y 0.000000 3.650110 0.000000 
#    z 0.000000 0.000000 4.086080 
# 
# 
# High freq. dielectric constant tensor:
#      x y z
#    x 1.771340 0.000000 0.000000 
#    y 0.000000 1.771340 0.000000 
#    z 0.000000 0.000000 1.763560 
# 
# From -- ./inp_files/4929.got.cif
#   From: 2010.03.12/outbox.cif.g09.slc.cpg/sg136_3_cif.got.tgz:4929.got - 2010.04.06 18:39:43.
