data_PCOD8318341
_publ_section_title
;
Structure prediction by ZEFSAII (Michael W. Deem and Ramdas Pophale) SiO2 
 PCOD8318341
Probable space group: P 42/M N M
;
_chemical_formula_sum "Si O2"
_cell_formula_units_Z 52
_cell_length_a 18.094965
_cell_length_b 18.094965
_cell_length_c 9.479160
_cell_angle_alpha 90.000000
_cell_angle_beta 90.000000
_cell_angle_gamma 90.000000
_cell_volume 3103.740110
_symmetry_space_group_name_H-M "P 42/M N M"
_symmetry_group_IT_number 136
_symmetry_cell_setting 'tetragonal'
loop_
_space_group_symop_operation_xyz
x,y,z
1/2-y,1/2+x,1/2+z
-x,-y,z
1/2+y,1/2-x,1/2+z
1/2+x,1/2-y,1/2-z
1/2-x,1/2+y,1/2-z
y,x,-z
-y,-x,-z
-x,-y,-z
1/2+y,1/2-x,1/2-z
x,y,-z
1/2-y,1/2+x,1/2-z
1/2-x,1/2+y,1/2+z
1/2+x,1/2-y,1/2+z
-y,-x,z
y,x,z
loop_
_atom_site_type_symbol
_atom_site_label
_atom_site_fract_x
_atom_site_fract_y
_atom_site_fract_z
Si Si1 0.993425 0.717261 0.332723
Si Si2 0.616439 0.895258 0.156271
Si Si3 0.500309 0.616557 0.832419
Si Si4 0.500000 0.000000 0.750000
O O1 0.981340 0.713368 0.500000
O O2 0.919966 0.681050 0.263200
O O3 0.070689 0.676965 0.290932
O O4 0.999459 0.800383 0.273013
O O5 0.558290 0.962061 0.145890
O O6 0.649741 0.881555 0.000000
O O7 0.427038 0.572963 0.781030
O O8 0.573214 0.573214 0.777447
O O9 0.501970 0.618937 0.000000
#
# Coordination Sequence:
#
# PCOD8318341 Si02
#       4
#    16  16  16   4
#     4   9  17  28  43  65  89 112 142 177 210 248
#     4   9  16  25  39  61  89 117 140 167 208 253
#     4   8  14  27  48  68  82 103 142 187 219 243
#     4   8  14  24  40  58  78 112 156 186 194 224
#
# _framework density 16.753979999999999
#
# number of rings (size 3 to 8) (size 9 to 14) (size 15 to 20)
#    0.000    3.385    0.000    1.385    0.000    7.385 
#    0.000    1.538    0.000    3.692    0.000    2.154 
#    0.000    0.000    0.000    0.000    0.000    0.000 
#
# Total GULP energy -644207.352613 kJ/mol
# GULP energy per Si atom -12388.602935 kJ/mol
# Density = 1.671585 g / cm^3
# Si number density = 16.753980 Si / 1000 Ang^3
#
#
#
# Elastic Constant Matrix: (Units=GPa)
#
#
# Indices 1 2 3 4 5 6 
#
# 1 134.1370 65.5380 27.6793 0.0000 0.0000 0.0000
# 2 65.5380 134.1370 27.6793 0.0000 0.0000 0.0000
# 3 27.6793 27.6793 35.1071 0.0000 0.0000 0.0000
# 4 0.0000 0.0000 0.0000 14.6924 0.0000 0.0000
# 5 0.0000 0.0000 0.0000 0.0000 14.6924 0.0000
# 6 0.0000 0.0000 0.0000 0.0000 0.0000 16.9277
#
#
#
# Elastic Compliance Matrix: (Units=1/GPa)
#
#
# Indices 1 2 3 4 5 6 
#
# 1 0.010493 -0.004084 -0.005053 0.000000 0.000000 0.000000
# 2 -0.004084 0.010493 -0.005053 0.000000 0.000000 0.000000
# 3 -0.005053 -0.005053 0.036452 0.000000 0.000000 0.000000
# 4 0.000000 0.000000 0.000000 0.068063 0.000000 0.000000
# 5 0.000000 0.000000 0.000000 0.000000 0.068063 0.000000
# 6 0.000000 0.000000 0.000000 0.000000 0.000000 0.059075
#
#
# Mechanical properties :
#
#
# Convention : Reuss Voigt Hill
#
# Bulk Modulus (GPa) = 34.41382 60.57490 47.49436
# Shear Modulus (GPa) = 17.19954 21.42812 19.31383
#
# Velocity S-wave (km/s) = 3.20753 3.58017 3.39896
# Velocity P-wave (km/s) = 5.85687 7.30234 6.61918
#
# Compressibility (1/GPa) = 0.02905810
#
# Stress axis : x y z
#
# Youngs Moduli (GPa) = 95.29920 95.29920 27.43317
#
# Poissons Ratio (x) = 0.38922 0.13862
# Poissons Ratio (y) = 0.38922 0.13862
# Poissons Ratio (z) = 0.48155 0.48155
#
# Static dielectric constant tensor:
#      x y z
#    x 3.287690 0.000000 0.000000 
#    y 0.000000 3.287690 0.000000 
#    z 0.000000 0.000000 2.754620 
# 
# 
# High freq. dielectric constant tensor:
#      x y z
#    x 1.634780 0.000000 0.000000 
#    y 0.000000 1.634780 0.000000 
#    z 0.000000 0.000000 1.607400 
# 
# From -- ./inp_files/992.got.cif
#   From: 2010.03.12/outbox.cif.g09.slc.cpg/sg136_1_cif.got.tgz:992.got - 2010.04.06 18:39:43.
