data_PCOD8318538
_publ_section_title
;
Structure prediction by ZEFSAII (Michael W. Deem and Ramdas Pophale) SiO2 
 PCOD8318538
Probable space group: P 42/N M C
;
_chemical_formula_sum "Si O2"
_cell_formula_units_Z 64
_cell_length_a 13.718532
_cell_length_b 13.718532
_cell_length_c 15.667375
_cell_angle_alpha 90.000000
_cell_angle_beta 90.000000
_cell_angle_gamma 90.000000
_cell_volume 2948.570524
_symmetry_space_group_name_H-M "P 42/N M C"
_symmetry_group_IT_number 137
_space_group.IT_coordinate_system_code '2'
_symmetry_cell_setting 'tetragonal'
loop_
_space_group_symop_operation_xyz
x,y,z
1/2-y,x,1/2+z
1/2-x,1/2-y,z
y,1/2-x,1/2+z
1/2+x,-y,-z
-x,1/2+y,-z
1/2+y,1/2+x,1/2-z
-y,-x,1/2-z
-x,-y,-z
1/2+y,-x,1/2-z
1/2+x,1/2+y,-z
-y,1/2+x,1/2-z
1/2-x,y,z
x,1/2-y,z
1/2-y,1/2-x,1/2+z
y,x,1/2+z
loop_
_atom_site_type_symbol
_atom_site_label
_atom_site_fract_x
_atom_site_fract_y
_atom_site_fract_z
Si Si1 0.141063 0.365338 0.907621
Si Si2 0.356018 0.635357 0.843963
Si Si3 0.477728 0.364630 0.745056
Si Si4 0.945495 0.634049 0.914169
O O1 0.250000 0.407314 0.905979
O O2 0.141815 0.250000 0.904678
O O3 0.085774 0.406141 0.824518
O O4 0.089250 0.401849 0.993648
O O5 0.394670 0.605331 0.750000
O O6 0.250000 0.588007 0.866898
O O7 0.342533 0.750000 0.844077
O O8 0.439994 0.603331 0.909784
O O9 0.581376 0.418625 0.750000
O O10 0.498547 0.250000 0.754518
O O11 0.419797 0.382474 0.657646
O O12 0.931444 0.750000 0.901193
#
# Coordination Sequence:
#
# PCOD8318538 Si02
#       4
#    16  16  16  16
#     4   9  19  37  61  90 122 152 188 242 302 354
#     4   8  14  26  46  77 120 162 194 230 281 341
#     4  11  24  41  60  83 114 155 202 249 300 358
#     4  10  19  34  61  93 121 153 194 240 296 360
#
# _framework density 21.705432999999999
#
# number of rings (size 3 to 8) (size 9 to 14) (size 15 to 20)
#    0.000    2.500    0.000    3.000    0.000    3.750 
#    0.000    2.500    0.000    4.500    0.000    0.000 
#    0.000    0.000    0.000    0.000    0.000    0.000 
#
# Total GULP energy -793426.539875 kJ/mol
# GULP energy per Si atom -12397.289686 kJ/mol
# Density = 2.165603 g / cm^3
# Si number density = 21.705433 Si / 1000 Ang^3
#
#
#
# Elastic Constant Matrix: (Units=GPa)
#
#
# Indices 1 2 3 4 5 6 
#
# 1 108.8012 34.6033 56.8170 0.0000 0.0000 0.0000
# 2 34.6033 108.8049 56.8185 0.0000 0.0000 0.0000
# 3 56.8170 56.8185 155.7680 0.0000 0.0000 0.0000
# 4 0.0000 0.0000 0.0000 28.0681 0.0000 0.0000
# 5 0.0000 0.0000 0.0000 0.0000 28.0663 0.0000
# 6 0.0000 0.0000 0.0000 0.0000 0.0000 18.3341
#
#
#
# Elastic Compliance Matrix: (Units=1/GPa)
#
#
# Indices 1 2 3 4 5 6 
#
# 1 0.011643 -0.001835 -0.003578 0.000000 0.000000 0.000000
# 2 -0.001835 0.011642 -0.003578 0.000000 0.000000 0.000000
# 3 -0.003578 -0.003578 0.009030 0.000000 0.000000 0.000000
# 4 0.000000 0.000000 0.000000 0.035628 0.000000 0.000000
# 5 0.000000 0.000000 0.000000 0.000000 0.035630 0.000000
# 6 0.000000 0.000000 0.000000 0.000000 0.000000 0.054543
#
#
# Mechanical properties :
#
#
# Convention : Reuss Voigt Hill
#
# Bulk Modulus (GPa) = 69.75673 74.42798 72.09236
# Shear Modulus (GPa) = 27.64362 29.90272 28.77317
#
# Velocity S-wave (km/s) = 3.57260 3.71571 3.64486
# Velocity P-wave (km/s) = 7.01610 7.26451 7.14139
#
# Compressibility (1/GPa) = 0.01433553
#
# Stress axis : x y z
#
# Youngs Moduli (GPa) = 85.89021 85.89266 110.74555
#
# Poissons Ratio (x) = 0.15757 0.39620
# Poissons Ratio (y) = 0.15757 0.39620
# Poissons Ratio (z) = 0.30728 0.30729
#
# Static dielectric constant tensor:
#      x y z
#    x 4.167140 0.000000 0.000000 
#    y 0.000000 4.166990 0.000000 
#    z 0.000000 0.000000 4.008970 
# 
# 
# High freq. dielectric constant tensor:
#      x y z
#    x 1.856240 0.000000 0.000000 
#    y 0.000000 1.856240 0.000000 
#    z 0.000000 0.000000 1.844380 
# 
# From -- ./inp_files/4726.got.cif
#   From: 2010.03.12/outbox.cif.g09.slc.cpg/sg137_3_cif.got.tgz:4726.got - 2010.04.08 09:34:49.
