data_PCOD8318473
_publ_section_title
;
Structure prediction by ZEFSAII (Michael W. Deem and Ramdas Pophale) SiO2 
 PCOD8318473
Probable space group: P 42/N M C
;
_chemical_formula_sum "Si O2"
_cell_formula_units_Z 96
_cell_length_a 17.518608
_cell_length_b 17.518608
_cell_length_c 18.819108
_cell_angle_alpha 90.000000
_cell_angle_beta 90.000000
_cell_angle_gamma 90.000000
_cell_volume 5775.614850
_symmetry_space_group_name_H-M "P 42/N M C"
_symmetry_group_IT_number 137
_space_group.IT_coordinate_system_code '2'
_symmetry_cell_setting 'tetragonal'
loop_
_space_group_symop_operation_xyz
x,y,z
1/2-y,x,1/2+z
1/2-x,1/2-y,z
y,1/2-x,1/2+z
1/2+x,-y,-z
-x,1/2+y,-z
1/2+y,1/2+x,1/2-z
-y,-x,1/2-z
-x,-y,-z
1/2+y,-x,1/2-z
1/2+x,1/2+y,-z
-y,1/2+x,1/2-z
1/2-x,y,z
x,1/2-y,z
1/2-y,1/2-x,1/2+z
y,x,1/2+z
loop_
_atom_site_type_symbol
_atom_site_label
_atom_site_fract_x
_atom_site_fract_y
_atom_site_fract_z
Si Si1 0.044892 0.084401 0.128960
Si Si2 0.339151 0.409961 0.236179
Si Si3 0.662491 0.750000 0.540209
Si Si4 0.750000 0.660530 0.196284
Si Si5 0.459729 0.840261 0.741671
Si Si6 0.443215 0.445072 0.352731
Si Si7 0.659950 0.585927 0.511461
O O1 0.133408 0.079124 0.154921
O O2 0.002269 0.136240 0.186234
O O3 0.037158 0.125279 0.052857
O O4 0.014156 0.998066 0.124469
O O5 0.250000 0.426324 0.243006
O O6 0.364973 0.325117 0.261420
O O7 0.387594 0.467626 0.286663
O O8 0.750000 0.750000 0.562183
O O9 0.621363 0.750000 0.617910
O O10 0.645093 0.675178 0.493573
O O11 0.750000 0.750000 0.191029
O O12 0.374283 0.874283 0.750000
O O13 0.456064 0.750000 0.732344
O O14 0.501856 0.875298 0.672025
O O15 0.385956 0.428559 0.416800
O O16 0.750000 0.567251 0.521885
#
# Coordination Sequence:
#
# PCOD8318473 Si02
#       7
#    16  16   8   8  16  16  16
#     4  10  22  33  46  71 104 130 156 206 250 289
#     4  10  19  31  50  72  97 129 161 195 237 287
#     4   9  18  30  44  72  96 121 161 195 226 278
#     4   9  16  28  46  70  94 125 161 189 224 284
#     4   9  19  34  52  72  94 127 165 204 248 287
#     4  10  20  34  50  68  97 135 167 196 237 296
#     4  11  21  32  50  71  99 133 166 201 236 288
#
# _framework density 16.621607999999998
#
# number of rings (size 3 to 8) (size 9 to 14) (size 15 to 20)
#    0.000    2.167    1.667    3.000    8.167    0.167 
#    0.000    0.000    0.000    0.000    0.000    0.000 
#    0.000   12.667    0.000    0.000    0.000    0.000 
#
# Total GULP energy -1189301.685344 kJ/mol
# GULP energy per Si atom -12388.559222 kJ/mol
# Density = 1.658378 g / cm^3
# Si number density = 16.621608 Si / 1000 Ang^3
#
#
#
# Elastic Constant Matrix: (Units=GPa)
#
#
# Indices 1 2 3 4 5 6 
#
# 1 87.8228 40.7873 30.3172 0.0000 0.0000 0.0000
# 2 40.7873 87.8228 30.3172 0.0000 0.0000 0.0000
# 3 30.3172 30.3172 85.0636 0.0000 0.0000 0.0000
# 4 0.0000 0.0000 0.0000 42.9540 0.0000 0.0000
# 5 0.0000 0.0000 0.0000 0.0000 42.9540 0.0000
# 6 0.0000 0.0000 0.0000 0.0000 0.0000 21.9464
#
#
#
# Elastic Compliance Matrix: (Units=1/GPa)
#
#
# Indices 1 2 3 4 5 6 
#
# 1 0.015303 -0.005957 -0.003331 0.000000 0.000000 0.000000
# 2 -0.005957 0.015303 -0.003331 0.000000 0.000000 0.000000
# 3 -0.003331 -0.003331 0.014130 0.000000 0.000000 0.000000
# 4 0.000000 0.000000 0.000000 0.023281 0.000000 0.000000
# 5 0.000000 0.000000 0.000000 0.000000 0.023281 0.000000
# 6 0.000000 0.000000 0.000000 0.000000 0.000000 0.045565
#
#
# Mechanical properties :
#
#
# Convention : Reuss Voigt Hill
#
# Bulk Modulus (GPa) = 51.28670 51.50585 51.39627
# Shear Modulus (GPa) = 29.65575 32.19004 30.92289
#
# Velocity S-wave (km/s) = 4.22852 4.40550 4.31792
# Velocity P-wave (km/s) = 7.40020 7.54536 7.47313
#
# Compressibility (1/GPa) = 0.01949823
#
# Stress axis : x y z
#
# Youngs Moduli (GPa) = 65.34582 65.34582 70.77021
#
# Poissons Ratio (x) = 0.38929 0.23573
# Poissons Ratio (y) = 0.38929 0.23573
# Poissons Ratio (z) = 0.21766 0.21766
#
# Static dielectric constant tensor:
#      x y z
#    x 3.009310 0.000000 0.000000 
#    y 0.000000 3.009310 0.000000 
#    z 0.000000 0.000000 3.080480 
# 
# 
# High freq. dielectric constant tensor:
#      x y z
#    x 1.626130 0.000000 0.000000 
#    y 0.000000 1.626130 0.000000 
#    z 0.000000 0.000000 1.640350 
# 
# From -- ./inp_files/6550.got.cif
#   From: 2010.03.12/outbox.cif.g09.slc.cpg/sg137_4_cif.got.tgz:6550.got - 2010.04.08 09:34:49.
