data_PCOD8318751
_publ_section_title
;
Structure prediction by ZEFSAII (Michael W. Deem and Ramdas Pophale) SiO2 
 PCOD8318751
Probable space group: P 42/N M C
;
_chemical_formula_sum "Si O2"
_cell_formula_units_Z 48
_cell_length_a 19.736157
_cell_length_b 19.736157
_cell_length_c 7.538661
_cell_angle_alpha 90.000000
_cell_angle_beta 90.000000
_cell_angle_gamma 90.000000
_cell_volume 2936.428272
_symmetry_space_group_name_H-M "P 42/N M C"
_symmetry_group_IT_number 137
_space_group.IT_coordinate_system_code '2'
_symmetry_cell_setting 'tetragonal'
loop_
_space_group_symop_operation_xyz
x,y,z
1/2-y,x,1/2+z
1/2-x,1/2-y,z
y,1/2-x,1/2+z
1/2+x,-y,-z
-x,1/2+y,-z
1/2+y,1/2+x,1/2-z
-y,-x,1/2-z
-x,-y,-z
1/2+y,-x,1/2-z
1/2+x,1/2+y,-z
-y,1/2+x,1/2-z
1/2-x,y,z
x,1/2-y,z
1/2-y,1/2-x,1/2+z
y,x,1/2+z
loop_
_atom_site_type_symbol
_atom_site_label
_atom_site_fract_x
_atom_site_fract_y
_atom_site_fract_z
Si Si1 0.171834 0.828167 0.250000
Si Si2 0.750000 0.970101 0.398936
Si Si3 0.750000 0.640696 0.693702
Si Si4 0.140576 0.250000 0.395842
Si Si5 0.675101 0.099930 0.397644
O O1 0.250000 0.841528 0.201455
O O2 0.147846 0.873841 0.414150
O O3 0.750000 0.926373 0.576800
O O4 0.750000 0.926727 0.220412
O O5 0.682857 0.018021 0.400112
O O6 0.683406 0.683485 0.649148
O O7 0.750000 0.619497 0.898897
O O8 0.621527 0.121527 0.250000
O O9 0.750000 0.132593 0.360462
#
# Coordination Sequence:
#
# PCOD8318751 Si02
#       5
#     8   8   8   8  16
#     4   9  16  28  50  76 104 138 180 230 274 298
#     4  10  22  33  51  92 104 150 176 214 278 330
#     4  11  19  35  60  87 108 132 165 234 283 338
#     4  11  19  35  62  83 116 124 169 230 295 314
#     4   9  19  32  50  76 116 139 189 217 267 311
#
# _framework density 16.346391000000001
#
# number of rings (size 3 to 8) (size 9 to 14) (size 15 to 20)
#    1.000    1.167    3.333    2.000    0.000    4.333 
#    0.000    0.000    0.000    2.000    0.000    0.000 
#    0.000    0.000    0.000    0.000    0.000    0.000 
#
# Total GULP energy -595005.361045 kJ/mol
# GULP energy per Si atom -12395.945022 kJ/mol
# Density = 1.630919 g / cm^3
# Si number density = 16.346391 Si / 1000 Ang^3
#
#
#
# Elastic Constant Matrix: (Units=GPa)
#
#
# Indices 1 2 3 4 5 6 
#
# 1 98.2931 38.4883 70.7266 0.0000 0.0000 0.0000
# 2 38.4883 98.2913 70.7271 0.0000 0.0000 0.0000
# 3 70.7266 70.7271 179.7336 0.0000 0.0000 0.0000
# 4 0.0000 0.0000 0.0000 3.6758 0.0000 0.0000
# 5 0.0000 0.0000 0.0000 0.0000 3.6734 0.0000
# 6 0.0000 0.0000 0.0000 0.0000 0.0000 9.8540
#
#
#
# Elastic Compliance Matrix: (Units=1/GPa)
#
#
# Indices 1 2 3 4 5 6 
#
# 1 0.014524 -0.002197 -0.004851 0.000000 0.000000 0.000000
# 2 -0.002197 0.014525 -0.004851 0.000000 0.000000 0.000000
# 3 -0.004851 -0.004851 0.009382 0.000000 0.000000 0.000000
# 4 0.000000 0.000000 0.000000 0.272049 0.000000 0.000000
# 5 0.000000 0.000000 0.000000 0.000000 0.272227 0.000000
# 6 0.000000 0.000000 0.000000 0.000000 0.000000 0.101481
#
#
# Mechanical properties :
#
#
# Convention : Reuss Voigt Hill
#
# Bulk Modulus (GPa) = 68.33905 81.80021 75.06963
# Shear Modulus (GPa) = 7.01395 16.53238 11.77317
#
# Velocity S-wave (km/s) = 2.07368 3.18367 2.68662
# Velocity P-wave (km/s) = 6.90153 7.97902 7.45975
#
# Compressibility (1/GPa) = 0.01463292
#
# Stress axis : x y z
#
# Youngs Moduli (GPa) = 68.84987 68.84775 106.59029
#
# Poissons Ratio (x) = 0.15124 0.51707
# Poissons Ratio (y) = 0.15124 0.51709
# Poissons Ratio (z) = 0.33399 0.33400
#
# Static dielectric constant tensor:
#      x y z
#    x 2.865920 0.000000 0.000000 
#    y 0.000000 2.865940 0.000000 
#    z 0.000000 0.000000 3.171080 
# 
# 
# High freq. dielectric constant tensor:
#      x y z
#    x 1.603820 0.000000 0.000000 
#    y 0.000000 1.603820 0.000000 
#    z 0.000000 0.000000 1.646670 
# 
# From -- ./inp_files/1681.got.cif
#   From: 2010.03.12/outbox.cif.g09.slc.cpg/sg137_1_cif.got.tgz:1681.got - 2010.04.08 09:34:49.
