data_PCOD8318518
_publ_section_title
;
Structure prediction by ZEFSAII (Michael W. Deem and Ramdas Pophale) SiO2 
 PCOD8318518
Probable space group: P 42/N M C
;
_chemical_formula_sum "Si O2"
_cell_formula_units_Z 64
_cell_length_a 17.452780
_cell_length_b 17.452780
_cell_length_c 10.579636
_cell_angle_alpha 90.000000
_cell_angle_beta 90.000000
_cell_angle_gamma 90.000000
_cell_volume 3222.552150
_symmetry_space_group_name_H-M "P 42/N M C"
_symmetry_group_IT_number 137
_space_group.IT_coordinate_system_code '2'
_symmetry_cell_setting 'tetragonal'
loop_
_space_group_symop_operation_xyz
x,y,z
1/2-y,x,1/2+z
1/2-x,1/2-y,z
y,1/2-x,1/2+z
1/2+x,-y,-z
-x,1/2+y,-z
1/2+y,1/2+x,1/2-z
-y,-x,1/2-z
-x,-y,-z
1/2+y,-x,1/2-z
1/2+x,1/2+y,-z
-y,1/2+x,1/2-z
1/2-x,y,z
x,1/2-y,z
1/2-y,1/2-x,1/2+z
y,x,1/2+z
loop_
_atom_site_type_symbol
_atom_site_label
_atom_site_fract_x
_atom_site_fract_y
_atom_site_fract_z
Si Si1 0.572918 0.660794 0.740225
Si Si2 0.663442 0.336559 0.750000
Si Si3 0.416030 0.591891 0.019874
Si Si4 0.590238 0.409763 0.250000
Si Si5 0.595880 0.583756 0.984718
O O1 0.550914 0.750000 0.753293
O O2 0.500232 0.604177 0.739117
O O3 0.622204 0.633804 0.862415
O O4 0.614150 0.645153 0.605445
O O5 0.750000 0.351175 0.792919
O O6 0.610671 0.353683 0.869197
O O7 0.386689 0.505545 0.043831
O O8 0.381410 0.624835 0.884725
O O9 0.507120 0.596514 0.015374
#
# Coordination Sequence:
#
# PCOD8318518 Si02
#       5
#    16   8  16   8  16
#     4  10  19  33  56  83 109 138 175 223 275 323
#     4  11  24  37  50  79 122 157 180 204 250 328
#     4   9  17  34  58  77 104 143 181 228 272 305
#     4   8  18  33  54  82 106 127 168 222 274 324
#     4   9  18  34  56  81 104 134 184 235 272 311
#
# _framework density 19.860035
#
# number of rings (size 3 to 8) (size 9 to 14) (size 15 to 20)
#    0.000    2.625    0.000    3.000    0.000   10.000 
#    0.000    1.250    0.000    4.125    0.000    0.000 
#    0.000    0.000    0.000    0.000    0.000    0.000 
#
# Total GULP energy -792850.522641 kJ/mol
# GULP energy per Si atom -12388.289416 kJ/mol
# Density = 1.981483 g / cm^3
# Si number density = 19.860035 Si / 1000 Ang^3
#
#
#
# Elastic Constant Matrix: (Units=GPa)
#
#
# Indices 1 2 3 4 5 6 
#
# 1 41.1345 28.8802 32.7029 0.0000 0.0000 0.0000
# 2 28.8802 41.1376 32.7046 0.0000 0.0000 0.0000
# 3 32.7029 32.7046 174.4526 0.0000 0.0000 0.0000
# 4 0.0000 0.0000 0.0000 14.5219 0.0000 0.0000
# 5 0.0000 0.0000 0.0000 0.0000 14.5197 0.0000
# 6 0.0000 0.0000 0.0000 0.0000 0.0000 15.7600
#
#
#
# Elastic Compliance Matrix: (Units=1/GPa)
#
#
# Indices 1 2 3 4 5 6 
#
# 1 0.049456 -0.032140 -0.003246 0.000000 0.000000 0.000000
# 2 -0.032140 0.049452 -0.003246 0.000000 0.000000 0.000000
# 3 -0.003246 -0.003246 0.006949 0.000000 0.000000 0.000000
# 4 0.000000 0.000000 0.000000 0.068862 0.000000 0.000000
# 5 0.000000 0.000000 0.000000 0.000000 0.068872 0.000000
# 6 0.000000 0.000000 0.000000 0.000000 0.000000 0.063452
#
#
# Mechanical properties :
#
#
# Convention : Reuss Voigt Hill
#
# Bulk Modulus (GPa) = 34.97126 49.47778 42.22452
# Shear Modulus (GPa) = 12.69561 19.78946 16.24253
#
# Velocity S-wave (km/s) = 2.53109 3.16008 2.86291
# Velocity P-wave (km/s) = 5.11752 6.18725 5.67764
#
# Compressibility (1/GPa) = 0.02859491
#
# Stress axis : x y z
#
# Youngs Moduli (GPa) = 20.22006 20.22144 143.90154
#
# Poissons Ratio (x) = 0.64991 0.46707
# Poissons Ratio (y) = 0.64986 0.46710
# Poissons Ratio (z) = 0.06563 0.06564
#
# Static dielectric constant tensor:
#      x y z
#    x 3.206270 0.000000 0.000000 
#    y 0.000000 3.206280 0.000000 
#    z 0.000000 0.000000 4.513850 
# 
# 
# High freq. dielectric constant tensor:
#      x y z
#    x 1.729810 0.000000 0.000000 
#    y 0.000000 1.729810 0.000000 
#    z 0.000000 0.000000 1.813370 
# 
# From -- ./inp_files/3371.got.cif
#   From: 2010.03.12/outbox.cif.g09.slc.cpg/sg137_2_cif.got.tgz:3371.got - 2010.04.08 09:34:49.
