data_PCOD8318319
_publ_section_title
;
Structure prediction by ZEFSAII (Michael W. Deem and Ramdas Pophale) SiO2 
 PCOD8318319
Probable space group: P 42/M N M
;
_chemical_formula_sum "Si O2"
_cell_formula_units_Z 44
_cell_length_a 9.442326
_cell_length_b 9.442326
_cell_length_c 23.036065
_cell_angle_alpha 90.000000
_cell_angle_beta 90.000000
_cell_angle_gamma 90.000000
_cell_volume 2053.838433
_symmetry_space_group_name_H-M "P 42/M N M"
_symmetry_group_IT_number 136
_symmetry_cell_setting 'tetragonal'
loop_
_space_group_symop_operation_xyz
x,y,z
1/2-y,1/2+x,1/2+z
-x,-y,z
1/2+y,1/2-x,1/2+z
1/2+x,1/2-y,1/2-z
1/2-x,1/2+y,1/2-z
y,x,-z
-y,-x,-z
-x,-y,-z
1/2+y,1/2-x,1/2-z
x,y,-z
1/2-y,1/2+x,1/2-z
1/2-x,1/2+y,1/2+z
1/2+x,1/2-y,1/2+z
-y,-x,z
y,x,z
loop_
_atom_site_type_symbol
_atom_site_label
_atom_site_fract_x
_atom_site_fract_y
_atom_site_fract_z
Si Si1 0.981277 0.655312 0.352461
Si Si2 0.000000 0.000000 0.912160
Si Si3 0.712710 0.287291 0.356949
Si Si4 0.724303 0.724303 0.435612
Si Si5 0.616462 0.383539 0.763086
O O1 0.857407 0.661344 0.400359
O O2 0.961990 0.766373 0.301205
O O3 0.000000 0.500000 0.324777
O O4 0.132070 0.683376 0.382689
O O5 0.098396 0.098396 0.874280
O O6 0.895529 0.104472 0.947072
O O7 0.700362 0.299639 0.287011
O O8 0.773491 0.773491 0.500000
O O9 0.500000 0.500000 0.741930
#
# Coordination Sequence:
#
# PCOD8318319 Si02
#       5
#    16   4   8   8   8
#     4  11  25  43  66  98 139 175 222 270 326 400
#     4  12  23  46  70 106 132 164 217 296 314 404
#     4  12  25  41  65 101 141 176 218 265 333 387
#     4  11  26  48  71  97 128 171 226 287 340 387
#     4  11  25  40  66  99 142 179 219 262 320 404
#
# _framework density 21.423300999999999
#
# number of rings (size 3 to 8) (size 9 to 14) (size 15 to 20)
#    0.000    0.727    6.364    0.273    5.091    0.727 
#    0.000    1.818    0.000    0.000    0.000    0.000 
#    0.000    0.000    0.000    0.000    0.000    0.000 
#
# Total GULP energy -545183.397122 kJ/mol
# GULP energy per Si atom -12390.531753 kJ/mol
# Density = 2.137454 g / cm^3
# Si number density = 21.423301 Si / 1000 Ang^3
#
#
#
# Elastic Constant Matrix: (Units=GPa)
#
#
# Indices 1 2 3 4 5 6 
#
# 1 152.1700 62.6522 24.7427 0.0000 0.0000 0.0000
# 2 62.6522 152.1700 24.7427 0.0000 0.0000 0.0000
# 3 24.7427 24.7427 74.0335 0.0000 0.0000 0.0000
# 4 0.0000 0.0000 0.0000 -3.1236 0.0000 0.0000
# 5 0.0000 0.0000 0.0000 0.0000 -3.1236 0.0000
# 6 0.0000 0.0000 0.0000 0.0000 0.0000 45.4688
#
#
#
# Elastic Compliance Matrix: (Units=1/GPa)
#
#
# Indices 1 2 3 4 5 6 
#
# 1 0.008107 -0.003064 -0.001686 0.000000 0.000000 0.000000
# 2 -0.003064 0.008107 -0.001686 0.000000 0.000000 0.000000
# 3 -0.001686 -0.001686 0.014634 0.000000 0.000000 0.000000
# 4 0.000000 0.000000 0.000000 -0.320140 0.000000 0.000000
# 5 0.000000 0.000000 0.000000 0.000000 -0.320140 0.000000
# 6 0.000000 0.000000 0.000000 0.000000 0.000000 0.021993
#
#
# Mechanical properties :
#
#
# Convention : Reuss Voigt Hill
#
# Bulk Modulus (GPa) = 55.62187 66.96095 61.29141
# Shear Modulus (GPa) = -8.79390 25.59336 8.39973
#
# Velocity S-wave (km/s) = -2.02824 3.46012 1.98226
# Velocity P-wave (km/s) = 4.53152 6.87657 5.82331
#
# Compressibility (1/GPa) = 0.01797854
#
# Stress axis : x y z
#
# Youngs Moduli (GPa) = 123.34829 123.34829 68.33392
#
# Poissons Ratio (x) = 0.37792 0.11518
# Poissons Ratio (y) = 0.37792 0.11518
# Poissons Ratio (z) = 0.20790 0.20790
#
# Static dielectric constant tensor:
#      x y z
#    x 4.209090 0.000000 0.000000 
#    y 0.000000 4.209090 0.000000 
#    z 0.000000 0.000000 3.405300 
# 
# 
# High freq. dielectric constant tensor:
#      x y z
#    x 1.864990 0.000000 0.000000 
#    y 0.000000 1.864990 0.000000 
#    z 0.000000 0.000000 1.800230 
# 
# From -- ./inp_files/9318.got.cif
#   From: 2010.03.12/outbox.cif.g09.slc.cpg/sg136_5_cif.got.tgz:9318.got - 2010.04.06 18:39:43.
