data_PCOD8318310
_publ_section_title
;
Structure prediction by ZEFSAII (Michael W. Deem and Ramdas Pophale) SiO2 
 PCOD8318310
Probable space group: P 42/M N M
;
_chemical_formula_sum "Si O2"
_cell_formula_units_Z 48
_cell_length_a 11.480979
_cell_length_b 11.480979
_cell_length_c 16.576382
_cell_angle_alpha 90.000000
_cell_angle_beta 90.000000
_cell_angle_gamma 90.000000
_cell_volume 2184.980631
_symmetry_space_group_name_H-M "P 42/M N M"
_symmetry_group_IT_number 136
_symmetry_cell_setting 'tetragonal'
loop_
_space_group_symop_operation_xyz
x,y,z
1/2-y,1/2+x,1/2+z
-x,-y,z
1/2+y,1/2-x,1/2+z
1/2+x,1/2-y,1/2-z
1/2-x,1/2+y,1/2-z
y,x,-z
-y,-x,-z
-x,-y,-z
1/2+y,1/2-x,1/2-z
x,y,-z
1/2-y,1/2+x,1/2-z
1/2-x,1/2+y,1/2+z
1/2+x,1/2-y,1/2+z
-y,-x,z
y,x,z
loop_
_atom_site_type_symbol
_atom_site_label
_atom_site_fract_x
_atom_site_fract_y
_atom_site_fract_z
Si Si1 0.306002 0.500965 0.500000
Si Si2 0.864904 0.467135 0.356276
Si Si3 0.098019 0.098019 0.590900
Si Si4 0.742745 0.557982 0.197472
O O1 0.393092 0.393092 0.500000
O O2 0.378275 0.621726 0.500000
O O3 0.222288 0.487900 0.423721
O O4 0.818572 0.516583 0.272276
O O5 0.858427 0.326469 0.354885
O O6 0.000000 0.500000 0.371835
O O7 0.135506 0.135506 0.500000
O O8 0.051005 0.208477 0.640816
O O9 0.000000 0.000000 0.584660
O O10 0.627718 0.627718 0.225507
#
# Coordination Sequence:
#
# PCOD8318310 Si02
#       4
#     8  16   8  16
#     4  11  27  48  74 105 141 187 242 296 357 433
#     4  12  24  46  67 102 143 182 235 293 357 428
#     4   9  22  42  66 103 139 178 237 293 349 422
#     4  11  23  41  70 100 139 186 233 295 355 422
#
# _framework density 21.968157000000001
#
# number of rings (size 3 to 8) (size 9 to 14) (size 15 to 20)
#    0.000    1.000    3.333    2.500    7.000    0.000 
#    3.000    0.000    0.000    0.000    0.000    0.000 
#    0.000    0.000    0.000    0.000    0.000    0.000 
#
# Total GULP energy -595051.685222 kJ/mol
# GULP energy per Si atom -12396.910109 kJ/mol
# Density = 2.191816 g / cm^3
# Si number density = 21.968157 Si / 1000 Ang^3
#
#
#
# Elastic Constant Matrix: (Units=GPa)
#
#
# Indices 1 2 3 4 5 6 
#
# 1 129.3530 51.0876 66.5109 0.0000 0.0000 0.0000
# 2 51.0876 129.3518 66.5104 0.0000 0.0000 0.0000
# 3 66.5109 66.5104 134.0530 0.0000 0.0000 0.0000
# 4 0.0000 0.0000 0.0000 34.7753 0.0000 0.0000
# 5 0.0000 0.0000 0.0000 0.0000 34.7750 0.0000
# 6 0.0000 0.0000 0.0000 0.0000 0.0000 42.1627
#
#
#
# Elastic Compliance Matrix: (Units=1/GPa)
#
#
# Indices 1 2 3 4 5 6 
#
# 1 0.010758 -0.002020 -0.004335 0.000000 0.000000 0.000000
# 2 -0.002020 0.010758 -0.004335 0.000000 0.000000 0.000000
# 3 -0.004335 -0.004335 0.011762 0.000000 0.000000 0.000000
# 4 0.000000 0.000000 0.000000 0.028756 0.000000 0.000000
# 5 0.000000 0.000000 0.000000 0.000000 0.028756 0.000000
# 6 0.000000 0.000000 0.000000 0.000000 0.000000 0.023718
#
#
# Mechanical properties :
#
#
# Convention : Reuss Voigt Hill
#
# Bulk Modulus (GPa) = 84.05977 84.55286 84.30631
# Shear Modulus (GPa) = 35.75176 36.25251 36.00214
#
# Velocity S-wave (km/s) = 4.03853 4.06671 4.05264
# Velocity P-wave (km/s) = 7.75201 7.78609 7.76907
#
# Compressibility (1/GPa) = 0.01189630
#
# Stress axis : x y z
#
# Youngs Moduli (GPa) = 92.95770 92.95697 85.02101
#
# Poissons Ratio (x) = 0.18773 0.36860
# Poissons Ratio (y) = 0.18773 0.36860
# Poissons Ratio (z) = 0.40301 0.40301
#
# Static dielectric constant tensor:
#      x y z
#    x 4.104570 0.000000 0.000000 
#    y 0.000000 4.104570 0.000000 
#    z 0.000000 0.000000 4.023980 
# 
# 
# High freq. dielectric constant tensor:
#      x y z
#    x 1.873130 0.000000 0.000000 
#    y 0.000000 1.873130 0.000000 
#    z 0.000000 0.000000 1.862680 
# 
# From -- ./inp_files/5741.got.cif
#   From: 2010.03.12/outbox.cif.g09.slc.cpg/sg136_3_cif.got.tgz:5741.got - 2010.04.06 18:39:43.
