data_PCOD8318162
_publ_section_title
;
Structure prediction by ZEFSAII (Michael W. Deem and Ramdas Pophale) SiO2 
 PCOD8318162
Probable space group: P 42/M N M
;
_chemical_formula_sum "Si O2"
_cell_formula_units_Z 96
_cell_length_a 24.065315
_cell_length_b 24.065315
_cell_length_c 8.503777
_cell_angle_alpha 90.000000
_cell_angle_beta 90.000000
_cell_angle_gamma 90.000000
_cell_volume 4924.872191
_symmetry_space_group_name_H-M "P 42/M N M"
_symmetry_group_IT_number 136
_symmetry_cell_setting 'tetragonal'
loop_
_space_group_symop_operation_xyz
x,y,z
1/2-y,1/2+x,1/2+z
-x,-y,z
1/2+y,1/2-x,1/2+z
1/2+x,1/2-y,1/2-z
1/2-x,1/2+y,1/2-z
y,x,-z
-y,-x,-z
-x,-y,-z
1/2+y,1/2-x,1/2-z
x,y,-z
1/2-y,1/2+x,1/2-z
1/2-x,1/2+y,1/2+z
1/2+x,1/2-y,1/2+z
-y,-x,z
y,x,z
loop_
_atom_site_type_symbol
_atom_site_label
_atom_site_fract_x
_atom_site_fract_y
_atom_site_fract_z
Si Si1 0.518888 0.290142 0.187100
Si Si2 0.000457 0.912288 0.687176
Si Si3 0.566107 0.802965 0.812551
Si Si4 0.579940 0.027686 0.815254
Si Si5 0.773674 0.687098 0.815957
Si Si6 0.768341 0.858287 0.319067
O O1 0.500025 0.349886 0.256555
O O2 0.478470 0.241854 0.247432
O O3 0.580235 0.276313 0.249236
O O4 0.518676 0.293188 0.000000
O O5 0.999628 0.910388 0.500000
O O6 0.946251 0.946251 0.746178
O O7 0.056296 0.943705 0.745313
O O8 0.553764 0.861863 0.734891
O O9 0.625075 0.779813 0.748744
O O10 0.565646 0.810035 0.000000
O O11 0.531124 0.070765 0.771095
O O12 0.578883 0.016981 0.000000
O O13 0.720749 0.720749 0.741420
O O14 0.830077 0.719983 0.781028
O O15 0.764600 0.683445 0.000000
O O16 0.749252 0.859029 0.500000
O O17 0.826519 0.826519 0.299163
#
# Coordination Sequence:
#
# PCOD8318162 Si02
#       6
#    16  16  16  16  16  16
#     4   9  17  28  44  69 101 135 172 214 260 312
#     4   8  13  22  39  66 101 139 176 216 264 315
#     4  10  21  35  52  79 111 145 184 224 269 323
#     4  11  23  41  63  85 110 140 177 222 275 331
#     4   9  19  35  52  71 101 140 179 220 265 312
#     4   9  17  30  50  74  98 129 171 217 263 309
#
# _framework density 19.492891
#
# number of rings (size 3 to 8) (size 9 to 14) (size 15 to 20)
#    0.000    2.667    0.000    3.000    2.333    3.333 
#    0.000    3.333    0.000    0.000    0.000    0.000 
#    0.000    2.000    0.000   11.833    0.000   11.000 
#
# Total GULP energy -1190154.326268 kJ/mol
# GULP energy per Si atom -12397.440899 kJ/mol
# Density = 1.944852 g / cm^3
# Si number density = 19.492891 Si / 1000 Ang^3
#
#
#
# Elastic Constant Matrix: (Units=GPa)
#
#
# Indices 1 2 3 4 5 6 
#
# 1 151.7397 80.8178 12.5457 0.0000 0.0000 0.0000
# 2 80.8178 151.7397 12.5457 0.0000 0.0000 0.0000
# 3 12.5457 12.5457 22.4044 0.0000 0.0000 0.0000
# 4 0.0000 0.0000 0.0000 17.2425 0.0000 0.0000
# 5 0.0000 0.0000 0.0000 0.0000 17.2425 0.0000
# 6 0.0000 0.0000 0.0000 0.0000 0.0000 22.3821
#
#
#
# Elastic Compliance Matrix: (Units=1/GPa)
#
#
# Indices 1 2 3 4 5 6 
#
# 1 0.009338 -0.004762 -0.002563 0.000000 0.000000 0.000000
# 2 -0.004762 0.009338 -0.002563 0.000000 0.000000 0.000000
# 3 -0.002563 -0.002563 0.047504 0.000000 0.000000 0.000000
# 4 0.000000 0.000000 0.000000 0.057996 0.000000 0.000000
# 5 0.000000 0.000000 0.000000 0.000000 0.057996 0.000000
# 6 0.000000 0.000000 0.000000 0.000000 0.000000 0.044679
#
#
# Mechanical properties :
#
#
# Convention : Reuss Voigt Hill
#
# Bulk Modulus (GPa) = 21.54873 59.74467 40.64670
# Shear Modulus (GPa) = 19.07708 26.03840 22.55774
#
# Velocity S-wave (km/s) = 3.13176 3.65881 3.40550
# Velocity P-wave (km/s) = 4.91486 6.96887 6.02997
#
# Compressibility (1/GPa) = 0.04640645
#
# Stress axis : x y z
#
# Youngs Moduli (GPa) = 107.08630 107.08630 21.05077
#
# Poissons Ratio (x) = 0.50992 0.05395
# Poissons Ratio (y) = 0.50992 0.05395
# Poissons Ratio (z) = 0.27443 0.27443
#
# Static dielectric constant tensor:
#      x y z
#    x 3.784080 0.000000 0.000000 
#    y 0.000000 3.784080 0.000000 
#    z 0.000000 0.000000 3.087120 
# 
# 
# High freq. dielectric constant tensor:
#      x y z
#    x 1.766960 0.000000 0.000000 
#    y 0.000000 1.766960 0.000000 
#    z 0.000000 0.000000 1.712610 
# 
# From -- ./inp_files/1989.got.cif
#   From: 2010.03.12/outbox.cif.g09.slc.cpg/sg136_1_cif.got.tgz:1989.got - 2010.04.06 18:39:43.
