data_PCOD8318548
_publ_section_title
;
Structure prediction by ZEFSAII (Michael W. Deem and Ramdas Pophale) SiO2 
 PCOD8318548
Probable space group: P 42/N M C
;
_chemical_formula_sum "Si O2"
_cell_formula_units_Z 44
_cell_length_a 16.951904
_cell_length_b 16.951904
_cell_length_c 8.577168
_cell_angle_alpha 90.000000
_cell_angle_beta 90.000000
_cell_angle_gamma 90.000000
_cell_volume 2464.795459
_symmetry_space_group_name_H-M "P 42/N M C"
_symmetry_group_IT_number 137
_space_group.IT_coordinate_system_code '2'
_symmetry_cell_setting 'tetragonal'
loop_
_space_group_symop_operation_xyz
x,y,z
1/2-y,x,1/2+z
1/2-x,1/2-y,z
y,1/2-x,1/2+z
1/2+x,-y,-z
-x,1/2+y,-z
1/2+y,1/2+x,1/2-z
-y,-x,1/2-z
-x,-y,-z
1/2+y,-x,1/2-z
1/2+x,1/2+y,-z
-y,1/2+x,1/2-z
1/2-x,y,z
x,1/2-y,z
1/2-y,1/2-x,1/2+z
y,x,1/2+z
loop_
_atom_site_type_symbol
_atom_site_label
_atom_site_fract_x
_atom_site_fract_y
_atom_site_fract_z
Si Si1 0.618615 0.486904 0.956927
Si Si2 0.473175 0.973175 0.750000
Si Si3 0.160214 0.839787 0.250000
Si Si4 0.250000 0.115709 0.060528
Si Si5 0.750000 0.750000 0.689588
O O1 0.544407 0.523119 0.869400
O O2 0.646406 0.402934 0.887466
O O3 0.677063 0.558181 0.935544
O O4 0.604696 0.473313 0.141675
O O5 0.250000 0.850669 0.314067
O O6 0.250000 0.170210 0.212133
O O7 0.250000 0.170305 0.909289
#
# Coordination Sequence:
#
# PCOD8318548 Si02
#       5
#    16   8   8   8   4
#     4  10  19  36  59  80 114 147 185 225 283 327
#     4   9  20  35  56  86 108 145 188 229 262 342
#     4  10  20  37  56  80 108 147 192 234 276 330
#     4  11  20  38  55  84 110 154 169 234 272 339
#     4  10  24  34  56  86 120 134 192 218 280 338
#
# _framework density 17.851381
#
# number of rings (size 3 to 8) (size 9 to 14) (size 15 to 20)
#    0.000    2.000    1.818    2.182    0.000    0.000 
#    3.273    0.000    0.000    2.182    0.000    0.000 
#    0.000    0.000    0.000    0.000    0.000    0.000 
#
# Total GULP energy -545264.179797 kJ/mol
# GULP energy per Si atom -12392.367723 kJ/mol
# Density = 1.781075 g / cm^3
# Si number density = 17.851381 Si / 1000 Ang^3
#
#
#
# Elastic Constant Matrix: (Units=GPa)
#
#
# Indices 1 2 3 4 5 6 
#
# 1 112.5718 54.5628 54.3107 0.0000 0.0000 0.0000
# 2 54.5628 112.5687 54.3103 0.0000 0.0000 0.0000
# 3 54.3107 54.3103 123.5652 0.0000 0.0000 0.0000
# 4 0.0000 0.0000 0.0000 64.2257 0.0000 0.0000
# 5 0.0000 0.0000 0.0000 0.0000 64.2188 0.0000
# 6 0.0000 0.0000 0.0000 0.0000 0.0000 25.5340
#
#
#
# Elastic Compliance Matrix: (Units=1/GPa)
#
#
# Indices 1 2 3 4 5 6 
#
# 1 0.012807 -0.004432 -0.003681 0.000000 0.000000 0.000000
# 2 -0.004432 0.012808 -0.003681 0.000000 0.000000 0.000000
# 3 -0.003681 -0.003681 0.011329 0.000000 0.000000 0.000000
# 4 0.000000 0.000000 0.000000 0.015570 0.000000 0.000000
# 5 0.000000 0.000000 0.000000 0.000000 0.015572 0.000000
# 6 0.000000 0.000000 0.000000 0.000000 0.000000 0.039163
#
#
# Mechanical properties :
#
#
# Convention : Reuss Voigt Hill
#
# Bulk Modulus (GPa) = 74.87798 75.00814 74.94306
# Shear Modulus (GPa) = 36.95761 43.16382 40.06072
#
# Velocity S-wave (km/s) = 4.55498 4.92260 4.74236
# Velocity P-wave (km/s) = 8.34866 8.62663 8.48878
#
# Compressibility (1/GPa) = 0.01335506
#
# Stress axis : x y z
#
# Youngs Moduli (GPa) = 78.08040 78.07800 88.26849
#
# Poissons Ratio (x) = 0.34602 0.32495
# Poissons Ratio (y) = 0.34603 0.32496
# Poissons Ratio (z) = 0.28744 0.28744
#
# Static dielectric constant tensor:
#      x y z
#    x 3.716850 0.000000 0.000000 
#    y 0.000000 3.716960 0.000000 
#    z 0.000000 0.000000 3.441020 
# 
# 
# High freq. dielectric constant tensor:
#      x y z
#    x 1.700610 0.000000 0.000000 
#    y 0.000000 1.700610 0.000000 
#    z 0.000000 0.000000 1.688480 
# 
# From -- ./inp_files/1363.got.cif
#   From: 2010.03.12/outbox.cif.g09.slc.cpg/sg137_1_cif.got.tgz:1363.got - 2010.04.08 09:34:49.
