data_PCOD8318977
_publ_section_title
;
Structure prediction by ZEFSAII (Michael W. Deem and Ramdas Pophale) SiO2 
 PCOD8318977
Probable space group: P 42/N C M
;
_chemical_formula_sum "Si O2"
_cell_formula_units_Z 96
_cell_length_a 26.526184
_cell_length_b 26.526184
_cell_length_c 9.686572
_cell_angle_alpha 90.000000
_cell_angle_beta 90.000000
_cell_angle_gamma 90.000000
_cell_volume 6815.844388
_symmetry_space_group_name_H-M "P 42/N C M"
_symmetry_group_IT_number 138
_space_group.IT_coordinate_system_code '2'
_symmetry_cell_setting 'tetragonal'
loop_
_space_group_symop_operation_xyz
x,y,z
1/2-y,x,1/2+z
1/2-x,1/2-y,z
y,1/2-x,1/2+z
1/2+x,-y,1/2-z
-x,1/2+y,1/2-z
1/2+y,1/2+x,-z
-y,-x,-z
-x,-y,-z
1/2+y,-x,1/2-z
1/2+x,1/2+y,-z
-y,1/2+x,1/2-z
1/2-x,y,1/2+z
x,1/2-y,1/2+z
1/2-y,1/2-x,z
y,x,z
loop_
_atom_site_type_symbol
_atom_site_label
_atom_site_fract_x
_atom_site_fract_y
_atom_site_fract_z
Si Si1 0.916700 0.498735 0.149093
Si Si2 0.830595 0.750681 0.974264
Si Si3 0.355850 0.439365 0.842833
Si Si4 0.147719 0.064032 0.166290
Si Si5 0.080061 0.995540 0.659286
Si Si6 0.102382 0.247601 0.773787
O O1 0.872992 0.514701 0.254929
O O2 0.959357 0.540644 0.153479
O O3 0.941283 0.445137 0.194540
O O4 0.894844 0.494176 0.993362
O O5 0.789832 0.710169 0.021044
O O6 0.806854 0.806854 0.984442
O O7 0.879604 0.746093 0.069027
O O8 0.847756 0.739983 0.818515
O O9 0.390738 0.390738 0.812880
O O10 0.378958 0.489847 0.774632
O O11 0.302037 0.432110 0.768736
O O12 0.350406 0.448785 0.005205
O O13 0.113405 0.113405 0.195410
O O14 0.203749 0.072239 0.223057
O O15 0.036483 0.036483 0.658723
#
# Coordination Sequence:
#
# PCOD8318977 Si02
#       6
#    16  16  16  16  16  16
#     4   8  15  28  46  66  83 100 126 161 205 258
#     4  11  22  34  46  56  72 104 146 190 230 261
#     4  10  20  32  44  60  82 107 137 175 218 261
#     4  10  20  32  44  60  82 107 137 175 218 261
#     4   8  15  28  46  66  83 100 126 161 205 258
#     4  12  22  33  44  60  82 106 142 185 224 266
#
# _framework density 14.084828999999999
#
# number of rings (size 3 to 8) (size 9 to 14) (size 15 to 20)
#    0.000    2.167    1.667    4.000    2.333    2.000 
#    0.000    3.333    0.000    0.000    0.000    0.000 
#    0.000    0.000    0.000    0.000    0.000    0.833 
#
# Total GULP energy -1190121.533418 kJ/mol
# GULP energy per Si atom -12397.099306 kJ/mol
# Density = 1.405277 g / cm^3
# Si number density = 14.084829 Si / 1000 Ang^3
#
#
#
# Elastic Constant Matrix: (Units=GPa)
#
#
# Indices 1 2 3 4 5 6 
#
# 1 63.6906 47.9658 44.2970 0.0000 0.0000 0.0000
# 2 47.9658 63.6906 44.2970 0.0000 0.0000 0.0000
# 3 44.2970 44.2970 80.9746 0.0000 0.0000 0.0000
# 4 0.0000 0.0000 0.0000 22.2573 0.0000 0.0000
# 5 0.0000 0.0000 0.0000 0.0000 22.2573 0.0000
# 6 0.0000 0.0000 0.0000 0.0000 0.0000 25.3671
#
#
#
# Elastic Compliance Matrix: (Units=1/GPa)
#
#
# Indices 1 2 3 4 5 6 
#
# 1 0.039709 -0.023884 -0.008657 0.000000 0.000000 0.000000
# 2 -0.023884 0.039709 -0.008657 0.000000 0.000000 0.000000
# 3 -0.008657 -0.008657 0.021821 0.000000 0.000000 0.000000
# 4 0.000000 0.000000 0.000000 0.044929 0.000000 0.000000
# 5 0.000000 0.000000 0.000000 0.000000 0.044929 0.000000
# 6 0.000000 0.000000 0.000000 0.000000 0.000000 0.039421
#
#
# Mechanical properties :
#
#
# Convention : Reuss Voigt Hill
#
# Bulk Modulus (GPa) = 53.06998 53.49723 53.28361
# Shear Modulus (GPa) = 15.66428 18.76272 17.21350
#
# Velocity S-wave (km/s) = 3.33849 3.65379 3.49969
# Velocity P-wave (km/s) = 7.25406 7.47428 7.36499
#
# Compressibility (1/GPa) = 0.01884304
#
# Stress axis : x y z
#
# Youngs Moduli (GPa) = 25.18293 25.18293 45.82708
#
# Poissons Ratio (x) = 0.60148 0.39673
# Poissons Ratio (y) = 0.60148 0.39673
# Poissons Ratio (z) = 0.21801 0.21801
#
# Static dielectric constant tensor:
#      x y z
#    x 2.683120 0.000000 0.000000 
#    y 0.000000 2.683120 0.000000 
#    z 0.000000 0.000000 2.928970 
# 
# 
# High freq. dielectric constant tensor:
#      x y z
#    x 1.503230 0.000000 0.000000 
#    y 0.000000 1.503230 0.000000 
#    z 0.000000 0.000000 1.554470 
# 
# From -- ./inp_files/1811.got.cif
#   From: 2010.03.12/outbox.cif.g09.slc.cpg/sg138_1_cif.got.tgz:1811.got - 2010.04.08 09:41:05.
