data_PCOD8318865
_publ_section_title
;
Structure prediction by ZEFSAII (Michael W. Deem and Ramdas Pophale) SiO2 
 PCOD8318865
Probable space group: P 42/N C M
;
_chemical_formula_sum "Si O2"
_cell_formula_units_Z 112
_cell_length_a 19.020341
_cell_length_b 19.020341
_cell_length_c 19.077052
_cell_angle_alpha 90.000000
_cell_angle_beta 90.000000
_cell_angle_gamma 90.000000
_cell_volume 6901.569425
_symmetry_space_group_name_H-M "P 42/N C M"
_symmetry_group_IT_number 138
_space_group.IT_coordinate_system_code '2'
_symmetry_cell_setting 'tetragonal'
loop_
_space_group_symop_operation_xyz
x,y,z
1/2-y,x,1/2+z
1/2-x,1/2-y,z
y,1/2-x,1/2+z
1/2+x,-y,1/2-z
-x,1/2+y,1/2-z
1/2+y,1/2+x,-z
-y,-x,-z
-x,-y,-z
1/2+y,-x,1/2-z
1/2+x,1/2+y,-z
-y,1/2+x,1/2-z
1/2-x,y,1/2+z
x,1/2-y,1/2+z
1/2-y,1/2-x,z
y,x,z
loop_
_atom_site_type_symbol
_atom_site_label
_atom_site_fract_x
_atom_site_fract_y
_atom_site_fract_z
Si Si1 0.308745 0.308745 0.676268
Si Si2 0.421640 0.824906 0.870565
Si Si3 0.195709 0.935398 0.387106
Si Si4 0.191044 0.308957 0.337617
Si Si5 0.290378 0.091925 0.916438
Si Si6 0.731980 0.139746 0.739546
Si Si7 0.683616 0.924692 0.927790
Si Si8 0.360815 0.745427 0.987792
O O1 0.250000 0.250000 0.674093
O O2 0.328252 0.328252 0.756802
O O3 0.279768 0.377449 0.633696
O O4 0.380558 0.897915 0.886082
O O5 0.418186 0.804644 0.789144
O O6 0.499691 0.832786 0.897396
O O7 0.386450 0.757908 0.908940
O O8 0.246331 0.900258 0.330173
O O9 0.234543 0.924425 0.460957
O O10 0.187918 0.019153 0.377729
O O11 0.250000 0.250000 0.337750
O O12 0.122779 0.279478 0.378894
O O13 0.354615 0.145386 0.905972
O O14 0.272832 0.078176 0.999081
O O15 0.675145 0.200460 0.722752
O O16 0.607021 0.892979 0.945593
O O17 0.295657 0.795657 0.000000
O O18 0.334892 0.665109 0.000000
#
# Coordination Sequence:
#
# PCOD8318865 Si02
#       8
#     8  16  16   8  16  16  16  16
#     4   9  20  36  56  77  95 126 168 214 254 291
#     4  10  18  31  45  71 105 132 167 202 242 302
#     4  10  19  29  48  71 100 135 167 201 246 301
#     4   9  20  36  56  76  96 120 164 220 253 287
#     4  10  20  34  51  74 100 128 161 203 256 302
#     4   9  18  31  48  70  99 136 172 210 250 287
#     4   9  20  31  50  74 101 132 155 199 253 304
#     4   9  16  27  44  66  95 127 163 204 237 276
#
# _framework density 16.228193000000001
#
# number of rings (size 3 to 8) (size 9 to 14) (size 15 to 20)
#    0.429    2.143    1.429    0.857    3.000    4.000 
#    0.000    1.429    0.000    0.000    0.000    0.500 
#    4.286    0.000    0.000    0.000    0.000    0.000 
#
# Total GULP energy -1387627.422975 kJ/mol
# GULP energy per Si atom -12389.530562 kJ/mol
# Density = 1.619126 g / cm^3
# Si number density = 16.228193 Si / 1000 Ang^3
#
#
#
# Elastic Constant Matrix: (Units=GPa)
#
#
# Indices 1 2 3 4 5 6 
#
# 1 71.0693 35.9322 33.1293 0.0000 0.0000 0.0000
# 2 35.9322 71.0698 33.1294 0.0000 0.0000 0.0000
# 3 33.1293 33.1294 92.0965 0.0000 0.0000 0.0000
# 4 0.0000 0.0000 0.0000 26.6189 0.0000 0.0000
# 5 0.0000 0.0000 0.0000 0.0000 26.6189 0.0000
# 6 0.0000 0.0000 0.0000 0.0000 0.0000 14.3166
#
#
#
# Elastic Compliance Matrix: (Units=1/GPa)
#
#
# Indices 1 2 3 4 5 6 
#
# 1 0.020242 -0.008218 -0.004325 0.000000 0.000000 0.000000
# 2 -0.008218 0.020242 -0.004325 0.000000 0.000000 0.000000
# 3 -0.004325 -0.004325 0.013970 0.000000 0.000000 0.000000
# 4 0.000000 0.000000 0.000000 0.037567 0.000000 0.000000
# 5 0.000000 0.000000 0.000000 0.000000 0.037567 0.000000
# 6 0.000000 0.000000 0.000000 0.000000 0.000000 0.069849
#
#
# Mechanical properties :
#
#
# Convention : Reuss Voigt Hill
#
# Bulk Modulus (GPa) = 48.27013 48.73525 48.50269
# Shear Modulus (GPa) = 20.82638 22.31385 21.57011
#
# Velocity S-wave (km/s) = 3.58627 3.71213 3.64974
# Velocity P-wave (km/s) = 6.85256 6.96201 6.90750
#
# Compressibility (1/GPa) = 0.02071675
#
# Stress axis : x y z
#
# Youngs Moduli (GPa) = 49.40234 49.40271 71.58177
#
# Poissons Ratio (x) = 0.40598 0.30962
# Poissons Ratio (y) = 0.40598 0.30961
# Poissons Ratio (z) = 0.21368 0.21368
#
# Static dielectric constant tensor:
#      x y z
#    x 2.933870 0.000000 0.000000 
#    y 0.000000 2.933870 0.000000 
#    z 0.000000 0.000000 3.261500 
# 
# 
# High freq. dielectric constant tensor:
#      x y z
#    x 1.601870 0.000000 0.000000 
#    y 0.000000 1.601870 0.000000 
#    z 0.000000 0.000000 1.636050 
# 
# From -- ./inp_files/5455.got.cif
#   From: 2010.03.12/outbox.cif.g09.slc.cpg/sg138_3_cif.got.tgz:5455.got - 2010.04.08 09:41:05.
