data_PCOD8318389
_publ_section_title
;
Structure prediction by ZEFSAII (Michael W. Deem and Ramdas Pophale) SiO2 
 PCOD8318389
Probable space group: P 42/N M C
;
_chemical_formula_sum "Si O2"
_cell_formula_units_Z 80
_cell_length_a 13.806276
_cell_length_b 13.806276
_cell_length_c 26.611686
_cell_angle_alpha 90.000000
_cell_angle_beta 90.000000
_cell_angle_gamma 90.000000
_cell_volume 5072.540142
_symmetry_space_group_name_H-M "P 42/N M C"
_symmetry_group_IT_number 137
_space_group.IT_coordinate_system_code '2'
_symmetry_cell_setting 'tetragonal'
loop_
_space_group_symop_operation_xyz
x,y,z
1/2-y,x,1/2+z
1/2-x,1/2-y,z
y,1/2-x,1/2+z
1/2+x,-y,-z
-x,1/2+y,-z
1/2+y,1/2+x,1/2-z
-y,-x,1/2-z
-x,-y,-z
1/2+y,-x,1/2-z
1/2+x,1/2+y,-z
-y,1/2+x,1/2-z
1/2-x,y,z
x,1/2-y,z
1/2-y,1/2-x,1/2+z
y,x,1/2+z
loop_
_atom_site_type_symbol
_atom_site_label
_atom_site_fract_x
_atom_site_fract_y
_atom_site_fract_z
Si Si1 0.031144 0.137409 0.456480
Si Si2 0.641759 0.640544 0.145544
Si Si3 0.967782 0.136526 0.997856
Si Si4 0.135556 0.643419 0.398095
Si Si5 0.637668 0.456502 0.703074
O O1 0.032043 0.250000 0.471962
O O2 0.066769 0.123143 0.399637
O O3 0.922488 0.092832 0.460124
O O4 0.101969 0.079712 0.495179
O O5 0.750000 0.629287 0.166887
O O6 0.623539 0.750000 0.124595
O O7 0.570278 0.621186 0.192122
O O8 0.959591 0.250000 0.010174
O O9 0.923655 0.104780 0.944183
O O10 0.250000 0.649453 0.396265
O O11 0.090189 0.750000 0.405598
O O12 0.098326 0.600367 0.345621
O O13 0.572722 0.427279 0.750000
O O14 0.750000 0.432445 0.714557
#
# Coordination Sequence:
#
# PCOD8318389 Si02
#       5
#    16  16  16  16  16
#     4  10  19  30  48  71  93 124 166 201 233 278
#     4   9  17  31  50  70  92 119 155 198 236 272
#     4  10  19  31  46  69 100 129 160 197 239 282
#     4   9  16  26  40  61  93 126 150 179 227 281
#     4  10  18  28  44  69  94 118 148 185 231 282
#
# _framework density 15.771190000000001
#
# number of rings (size 3 to 8) (size 9 to 14) (size 15 to 20)
#    0.000    2.400    2.000    1.800    0.000    3.400 
#    0.000    0.000    0.000    1.200    0.000    0.000 
#    0.000    0.000    0.000    0.000    0.000    0.000 
#
# Total GULP energy -991676.409614 kJ/mol
# GULP energy per Si atom -12395.955120 kJ/mol
# Density = 1.573529 g / cm^3
# Si number density = 15.771190 Si / 1000 Ang^3
#
#
#
# Elastic Constant Matrix: (Units=GPa)
#
#
# Indices 1 2 3 4 5 6 
#
# 1 108.2721 46.0690 41.2014 0.0000 0.0000 0.0000
# 2 46.0690 108.2719 41.2011 0.0000 0.0000 0.0000
# 3 41.2014 41.2011 69.7020 0.0000 0.0000 0.0000
# 4 0.0000 0.0000 0.0000 24.8008 0.0000 0.0000
# 5 0.0000 0.0000 0.0000 0.0000 24.8012 0.0000
# 6 0.0000 0.0000 0.0000 0.0000 0.0000 18.4553
#
#
#
# Elastic Compliance Matrix: (Units=1/GPa)
#
#
# Indices 1 2 3 4 5 6 
#
# 1 0.012772 -0.003305 -0.005596 0.000000 0.000000 0.000000
# 2 -0.003305 0.012772 -0.005596 0.000000 0.000000 0.000000
# 3 -0.005596 -0.005596 0.020962 0.000000 0.000000 0.000000
# 4 0.000000 0.000000 0.000000 0.040321 0.000000 0.000000
# 5 0.000000 0.000000 0.000000 0.000000 0.040321 0.000000
# 6 0.000000 0.000000 0.000000 0.000000 0.000000 0.054185
#
#
# Mechanical properties :
#
#
# Convention : Reuss Voigt Hill
#
# Bulk Modulus (GPa) = 57.10246 60.35434 58.72840
# Shear Modulus (GPa) = 23.13068 24.12974 23.63021
#
# Velocity S-wave (km/s) = 3.83383 3.91575 3.87501
# Velocity P-wave (km/s) = 7.47550 7.66785 7.57229
#
# Compressibility (1/GPa) = 0.01751238
#
# Stress axis : x y z
#
# Youngs Moduli (GPa) = 78.29865 78.29883 47.70467
#
# Poissons Ratio (x) = 0.25876 0.26695
# Poissons Ratio (y) = 0.25876 0.26695
# Poissons Ratio (z) = 0.43815 0.43815
#
# Static dielectric constant tensor:
#      x y z
#    x 3.117850 0.000000 0.000000 
#    y 0.000000 3.117850 0.000000 
#    z 0.000000 0.000000 2.773220 
# 
# 
# High freq. dielectric constant tensor:
#      x y z
#    x 1.602780 0.000000 0.000000 
#    y 0.000000 1.602780 0.000000 
#    z 0.000000 0.000000 1.574580 
# 
# From -- ./inp_files/7598.got.cif
#   From: 2010.03.12/outbox.cif.g09.slc.cpg/sg137_4_cif.got.tgz:7598.got - 2010.04.08 09:34:49.
