data_PCOD8318213
_publ_section_title
;
Structure prediction by ZEFSAII (Michael W. Deem and Ramdas Pophale) SiO2 
 PCOD8318213
Probable space group: P 42/M N M
;
_chemical_formula_sum "Si O2"
_cell_formula_units_Z 80
_cell_length_a 11.116494
_cell_length_b 11.116494
_cell_length_c 28.844560
_cell_angle_alpha 90.000000
_cell_angle_beta 90.000000
_cell_angle_gamma 90.000000
_cell_volume 3564.508005
_symmetry_space_group_name_H-M "P 42/M N M"
_symmetry_group_IT_number 136
_symmetry_cell_setting 'tetragonal'
loop_
_space_group_symop_operation_xyz
x,y,z
1/2-y,1/2+x,1/2+z
-x,-y,z
1/2+y,1/2-x,1/2+z
1/2+x,1/2-y,1/2-z
1/2-x,1/2+y,1/2-z
y,x,-z
-y,-x,-z
-x,-y,-z
1/2+y,1/2-x,1/2-z
x,y,-z
1/2-y,1/2+x,1/2-z
1/2-x,1/2+y,1/2+z
1/2+x,1/2-y,1/2+z
-y,-x,z
y,x,z
loop_
_atom_site_type_symbol
_atom_site_label
_atom_site_fract_x
_atom_site_fract_y
_atom_site_fract_z
Si Si1 0.695830 0.497224 0.616289
Si Si2 0.949859 0.763144 0.292497
Si Si3 0.851056 0.650061 0.448281
Si Si4 0.642767 0.029200 0.801359
Si Si5 0.193185 0.991434 0.389685
O O1 0.620975 0.379026 0.600927
O O2 0.604541 0.604541 0.629411
O O3 0.785162 0.536115 0.575028
O O4 0.777779 0.460578 0.660458
O O5 0.890125 0.890125 0.277978
O O6 0.846198 0.671976 0.311130
O O7 0.041008 0.776516 0.335931
O O8 0.013692 0.700232 0.249368
O O9 0.890822 0.611888 0.500000
O O10 0.761543 0.761543 0.450929
O O11 0.971430 0.689743 0.419838
O O12 0.500000 0.000000 0.803250
O O13 0.104855 0.104855 0.388108
O O14 0.125410 0.874591 0.411427
#
# Coordination Sequence:
#
# PCOD8318213 Si02
#       5
#    16  16  16  16  16
#     4  10  21  38  61  89 121 159 206 259 315 377
#     4  11  21  36  56  80 114 153 199 250 303 370
#     4   9  17  31  55  87 122 157 197 257 324 378
#     4  12  22  39  55  83 118 156 202 245 305 370
#     4   9  18  32  51  79 117 158 203 258 317 378
#
# _framework density 22.443491000000002
#
# number of rings (size 3 to 8) (size 9 to 14) (size 15 to 20)
#    0.000    1.800    4.000    1.200    0.000    2.400 
#    0.000    6.000    0.000    0.600    0.000    0.000 
#    0.000    0.000    0.000    0.000    0.000    0.000 
#
# Total GULP energy -991048.436417 kJ/mol
# GULP energy per Si atom -12388.105455 kJ/mol
# Density = 2.239241 g / cm^3
# Si number density = 22.443491 Si / 1000 Ang^3
#
#
#
# Elastic Constant Matrix: (Units=GPa)
#
#
# Indices 1 2 3 4 5 6 
#
# 1 84.7995 47.1807 59.6352 0.0000 0.0000 0.0000
# 2 47.1807 84.7995 59.6352 0.0000 0.0000 0.0000
# 3 59.6352 59.6352 163.2743 0.0000 0.0000 0.0000
# 4 0.0000 0.0000 0.0000 20.1988 0.0000 0.0000
# 5 0.0000 0.0000 0.0000 0.0000 20.1988 0.0000
# 6 0.0000 0.0000 0.0000 0.0000 0.0000 43.9777
#
#
#
# Elastic Compliance Matrix: (Units=1/GPa)
#
#
# Indices 1 2 3 4 5 6 
#
# 1 0.018946 -0.007636 -0.004131 0.000000 0.000000 0.000000
# 2 -0.007636 0.018946 -0.004131 0.000000 0.000000 0.000000
# 3 -0.004131 -0.004131 0.009142 0.000000 0.000000 0.000000
# 4 0.000000 0.000000 0.000000 0.049508 0.000000 0.000000
# 5 0.000000 0.000000 0.000000 0.000000 0.049508 0.000000
# 6 0.000000 0.000000 0.000000 0.000000 0.000000 0.022739
#
#
# Mechanical properties :
#
#
# Convention : Reuss Voigt Hill
#
# Bulk Modulus (GPa) = 65.62296 73.97507 69.79901
# Shear Modulus (GPa) = 24.31138 27.96987 26.14062
#
# Velocity S-wave (km/s) = 3.29481 3.53404 3.41652
# Velocity P-wave (km/s) = 6.61642 7.04874 6.83600
#
# Compressibility (1/GPa) = 0.01523857
#
# Stress axis : x y z
#
# Youngs Moduli (GPa) = 52.78095 52.78095 109.38195
#
# Poissons Ratio (x) = 0.40305 0.45185
# Poissons Ratio (y) = 0.40305 0.45185
# Poissons Ratio (z) = 0.21803 0.21803
#
# Static dielectric constant tensor:
#      x y z
#    x 4.033150 0.000000 0.000000 
#    y 0.000000 4.033150 0.000000 
#    z 0.000000 0.000000 4.104430 
# 
# 
# High freq. dielectric constant tensor:
#      x y z
#    x 1.871250 0.000000 0.000000 
#    y 0.000000 1.871250 0.000000 
#    z 0.000000 0.000000 1.873800 
# 
# From -- ./inp_files/9552.got.cif
#   From: 2010.03.12/outbox.cif.g09.slc.cpg/sg136_5_cif.got.tgz:9552.got - 2010.04.06 18:39:43.
