data_PCOD8318090
_publ_section_title
;
Structure prediction by ZEFSAII (Michael W. Deem and Ramdas Pophale) SiO2 
 PCOD8318090
Probable space group: P 42/M N M
;
_chemical_formula_sum "Si O2"
_cell_formula_units_Z 56
_cell_length_a 17.113140
_cell_length_b 17.113140
_cell_length_c 8.700055
_cell_angle_alpha 90.000000
_cell_angle_beta 90.000000
_cell_angle_gamma 90.000000
_cell_volume 2547.894285
_symmetry_space_group_name_H-M "P 42/M N M"
_symmetry_group_IT_number 136
_symmetry_cell_setting 'tetragonal'
loop_
_space_group_symop_operation_xyz
x,y,z
1/2-y,1/2+x,1/2+z
-x,-y,z
1/2+y,1/2-x,1/2+z
1/2+x,1/2-y,1/2-z
1/2-x,1/2+y,1/2-z
y,x,-z
-y,-x,-z
-x,-y,-z
1/2+y,1/2-x,1/2-z
x,y,-z
1/2-y,1/2+x,1/2-z
1/2-x,1/2+y,1/2+z
1/2+x,1/2-y,1/2+z
-y,-x,z
y,x,z
loop_
_atom_site_type_symbol
_atom_site_label
_atom_site_fract_x
_atom_site_fract_y
_atom_site_fract_z
Si Si1 0.161159 0.713158 0.320041
Si Si2 0.929768 0.593173 0.319444
Si Si3 0.174965 0.955079 0.170604
Si Si4 0.066103 0.066103 0.326920
O O1 0.162168 0.696676 0.500000
O O2 0.236852 0.763149 0.268003
O O3 0.161059 0.631152 0.228818
O O4 0.081840 0.759494 0.279783
O O5 0.946560 0.595485 0.500000
O O6 0.892832 0.509915 0.271701
O O7 0.102087 0.897914 0.158517
O O8 0.144487 0.036363 0.242088
O O9 0.209822 0.970043 0.000000
O O10 0.088535 0.088535 0.500000
O O11 0.000000 0.000000 0.325889
#
# Coordination Sequence:
#
# PCOD8318090 Si02
#       4
#    16  16  16   8
#     4  10  20  35  57  86 120 156 195 241 297 358
#     4  11  22  39  64  92 122 156 200 249 300 355
#     4   9  16  26  42  67  99 138 184 230 278 334
#     4   9  15  23  37  59  91 133 181 231 279 331
#
# _framework density 21.978933999999999
#
# number of rings (size 3 to 8) (size 9 to 14) (size 15 to 20)
#    0.000    2.143    0.000    5.571    0.000    6.857 
#    0.000    0.000    3.143    0.000    0.000    0.000 
#    0.000    0.000    0.000    0.000    0.000    0.000 
#
# Total GULP energy -694405.704967 kJ/mol
# GULP energy per Si atom -12400.101874 kJ/mol
# Density = 2.192891 g / cm^3
# Si number density = 21.978934 Si / 1000 Ang^3
#
#
#
# Elastic Constant Matrix: (Units=GPa)
#
#
# Indices 1 2 3 4 5 6 
#
# 1 44.3352 18.2127 8.8808 0.0000 0.0000 0.0000
# 2 18.2127 44.3352 8.8808 0.0000 0.0000 0.0000
# 3 8.8808 8.8808 104.1754 0.0000 0.0000 0.0000
# 4 0.0000 0.0000 0.0000 29.9761 0.0000 0.0000
# 5 0.0000 0.0000 0.0000 0.0000 29.9761 0.0000
# 6 0.0000 0.0000 0.0000 0.0000 0.0000 16.9394
#
#
#
# Elastic Compliance Matrix: (Units=1/GPa)
#
#
# Indices 1 2 3 4 5 6 
#
# 1 0.027333 -0.010948 -0.001397 0.000000 0.000000 0.000000
# 2 -0.010948 0.027333 -0.001397 0.000000 0.000000 0.000000
# 3 -0.001397 -0.001397 0.009837 0.000000 0.000000 0.000000
# 4 0.000000 0.000000 0.000000 0.033360 0.000000 0.000000
# 5 0.000000 0.000000 0.000000 0.000000 0.033360 0.000000
# 6 0.000000 0.000000 0.000000 0.000000 0.000000 0.059034
#
#
# Mechanical properties :
#
#
# Convention : Reuss Voigt Hill
#
# Bulk Modulus (GPa) = 27.01308 29.42161 28.21734
# Shear Modulus (GPa) = 21.73156 25.83642 23.78399
#
# Velocity S-wave (km/s) = 3.14784 3.43229 3.29314
# Velocity P-wave (km/s) = 5.05262 5.39655 5.22742
#
# Compressibility (1/GPa) = 0.03701910
#
# Stress axis : x y z
#
# Youngs Moduli (GPa) = 36.58610 36.58610 101.65349
#
# Poissons Ratio (x) = 0.40056 0.14198
# Poissons Ratio (y) = 0.40056 0.14198
# Poissons Ratio (z) = 0.05110 0.05110
#
# Static dielectric constant tensor:
#      x y z
#    x 3.811160 0.000000 0.000000 
#    y 0.000000 3.811160 0.000000 
#    z 0.000000 0.000000 4.046400 
# 
# 
# High freq. dielectric constant tensor:
#      x y z
#    x 1.843780 0.000000 0.000000 
#    y 0.000000 1.843780 0.000000 
#    z 0.000000 0.000000 1.874150 
# 
# From -- ./inp_files/1116.got.cif
#   From: 2010.03.12/outbox.cif.g09.slc.cpg/sg136_1_cif.got.tgz:1116.got - 2010.04.06 18:39:43.
