data_PCOD8318258
_publ_section_title
;
Structure prediction by ZEFSAII (Michael W. Deem and Ramdas Pophale) SiO2 
 PCOD8318258
Probable space group: P 42/M N M
;
_chemical_formula_sum "Si O2"
_cell_formula_units_Z 60
_cell_length_a 17.892853
_cell_length_b 17.892853
_cell_length_c 8.853431
_cell_angle_alpha 90.000000
_cell_angle_beta 90.000000
_cell_angle_gamma 90.000000
_cell_volume 2834.463017
_symmetry_space_group_name_H-M "P 42/M N M"
_symmetry_group_IT_number 136
_symmetry_cell_setting 'tetragonal'
loop_
_space_group_symop_operation_xyz
x,y,z
1/2-y,1/2+x,1/2+z
-x,-y,z
1/2+y,1/2-x,1/2+z
1/2+x,1/2-y,1/2-z
1/2-x,1/2+y,1/2-z
y,x,-z
-y,-x,-z
-x,-y,-z
1/2+y,1/2-x,1/2-z
x,y,-z
1/2-y,1/2+x,1/2-z
1/2-x,1/2+y,1/2+z
1/2+x,1/2-y,1/2+z
-y,-x,z
y,x,z
loop_
_atom_site_type_symbol
_atom_site_label
_atom_site_fract_x
_atom_site_fract_y
_atom_site_fract_z
Si Si1 0.677580 0.322421 0.333924
Si Si2 0.879331 0.996574 0.500000
Si Si3 0.265082 0.734919 0.000000
Si Si4 0.973195 0.604681 0.673603
Si Si5 0.770299 0.980508 0.238368
Si Si6 0.105203 0.776375 0.000000
O O1 0.709735 0.290266 0.500000
O O2 0.704683 0.295318 0.164197
O O3 0.693720 0.410418 0.347559
O O4 0.945583 0.054418 0.500000
O O5 0.828192 0.010116 0.358439
O O6 0.912248 0.912248 0.500000
O O7 0.175670 0.719093 0.000000
O O8 0.057021 0.586440 0.730463
O O9 0.966337 0.581123 0.500000
O O10 0.954892 0.691785 0.691349
O O11 0.758151 0.053841 0.140751
O O12 0.138267 0.861733 0.000000
#
# Coordination Sequence:
#
# PCOD8318258 Si02
#       6
#     8   8   4  16  16   8
#     4  12  26  46  77 110 147 196 251 303 374 447
#     4  11  23  43  71 103 140 189 238 295 361 438
#     4  10  28  52  72 103 153 200 244 312 372 428
#     4  11  26  43  69  99 133 181 233 298 360 431
#     4  12  24  45  71 103 144 185 243 296 368 439
#     4  10  26  47  67  99 144 192 239 302 363 431
#
# _framework density 21.168030999999999
#
# number of rings (size 3 to 8) (size 9 to 14) (size 15 to 20)
#    0.400    0.400    4.000    3.200    7.467    0.000 
#    2.400    0.667    0.000    0.000    0.000    0.000 
#    0.000    0.000    0.000    0.000    0.000    0.000 
#
# Total GULP energy -743308.455439 kJ/mol
# GULP energy per Si atom -12388.474257 kJ/mol
# Density = 2.111985 g / cm^3
# Si number density = 21.168031 Si / 1000 Ang^3
#
#
#
# Elastic Constant Matrix: (Units=GPa)
#
#
# Indices 1 2 3 4 5 6 
#
# 1 97.2517 9.7866 25.3140 0.0000 0.0000 0.0000
# 2 9.7866 97.2530 25.3146 0.0000 0.0000 0.0000
# 3 25.3140 25.3146 164.0717 0.0000 0.0000 0.0000
# 4 0.0000 0.0000 0.0000 8.0671 0.0000 0.0000
# 5 0.0000 0.0000 0.0000 0.0000 8.0756 0.0000
# 6 0.0000 0.0000 0.0000 0.0000 0.0000 31.1984
#
#
#
# Elastic Compliance Matrix: (Units=1/GPa)
#
#
# Indices 1 2 3 4 5 6 
#
# 1 0.010756 -0.000678 -0.001555 0.000000 0.000000 0.000000
# 2 -0.000678 0.010755 -0.001555 0.000000 0.000000 0.000000
# 3 -0.001555 -0.001555 0.006575 0.000000 0.000000 0.000000
# 4 0.000000 0.000000 0.000000 0.123960 0.000000 0.000000
# 5 0.000000 0.000000 0.000000 0.000000 0.123830 0.000000
# 6 0.000000 0.000000 0.000000 0.000000 0.000000 0.032053
#
#
# Mechanical properties :
#
#
# Convention : Reuss Voigt Hill
#
# Bulk Modulus (GPa) = 48.75475 53.26743 51.01109
# Shear Modulus (GPa) = 15.51154 29.34562 22.42858
#
# Velocity S-wave (km/s) = 2.70993 3.72737 3.25860
# Velocity P-wave (km/s) = 5.73358 6.61386 6.18939
#
# Compressibility (1/GPa) = 0.02051082
#
# Stress axis : x y z
#
# Youngs Moduli (GPa) = 92.97558 92.97673 152.09819
#
# Poissons Ratio (x) = 0.06300 0.23649
# Poissons Ratio (y) = 0.06300 0.23650
# Poissons Ratio (z) = 0.14457 0.14457
#
# Static dielectric constant tensor:
#      x y z
#    x 3.806510 0.000000 0.000000 
#    y 0.000000 3.806500 0.000000 
#    z 0.000000 0.000000 3.907500 
# 
# 
# High freq. dielectric constant tensor:
#      x y z
#    x 1.830760 0.000000 0.000000 
#    y 0.000000 1.830760 0.000000 
#    z 0.000000 0.000000 1.847560 
# 
# From -- ./inp_files/1207.got.cif
#   From: 2010.03.12/outbox.cif.g09.slc.cpg/sg136_1_cif.got.tgz:1207.got - 2010.04.06 18:39:43.
