data_PCOD8318346
_publ_section_title
;
Structure prediction by ZEFSAII (Michael W. Deem and Ramdas Pophale) SiO2 
 PCOD8318346
Probable space group: P 42/M N M
;
_chemical_formula_sum "Si O2"
_cell_formula_units_Z 80
_cell_length_a 19.660909
_cell_length_b 19.660909
_cell_length_c 14.752921
_cell_angle_alpha 90.000000
_cell_angle_beta 90.000000
_cell_angle_gamma 90.000000
_cell_volume 5702.761421
_symmetry_space_group_name_H-M "P 42/M N M"
_symmetry_group_IT_number 136
_symmetry_cell_setting 'tetragonal'
loop_
_space_group_symop_operation_xyz
x,y,z
1/2-y,1/2+x,1/2+z
-x,-y,z
1/2+y,1/2-x,1/2+z
1/2+x,1/2-y,1/2-z
1/2-x,1/2+y,1/2-z
y,x,-z
-y,-x,-z
-x,-y,-z
1/2+y,1/2-x,1/2-z
x,y,-z
1/2-y,1/2+x,1/2-z
1/2-x,1/2+y,1/2+z
1/2+x,1/2-y,1/2+z
-y,-x,z
y,x,z
loop_
_atom_site_type_symbol
_atom_site_label
_atom_site_fract_x
_atom_site_fract_y
_atom_site_fract_z
Si Si1 0.207397 0.792604 0.392735
Si Si2 0.094996 0.556148 0.249922
Si Si3 0.956240 0.849427 0.392141
Si Si4 0.800826 0.474239 0.896964
Si Si5 0.162216 0.371417 0.103543
Si Si6 0.599884 0.599884 0.108393
O O1 0.202160 0.797841 0.500000
O O2 0.284007 0.813684 0.363008
O O3 0.153797 0.846204 0.351275
O O4 0.087646 0.477456 0.278307
O O5 0.141580 0.562429 0.161586
O O6 0.129882 0.595610 0.333426
O O7 0.959223 0.851599 0.500000
O O8 0.892514 0.892514 0.354546
O O9 0.948387 0.771761 0.359947
O O10 0.025557 0.881631 0.353467
O O11 0.801001 0.555803 0.889337
O O12 0.813676 0.451349 0.000000
O O13 0.138952 0.357711 0.000000
O O14 0.600872 0.600872 0.000000
#
# Coordination Sequence:
#
# PCOD8318346 Si02
#       6
#     8  16  16  16  16   8
#     4   9  14  23  40  59  77  99 129 159 192 235
#     4   9  18  30  42  58  78 101 135 171 199 234
#     4   9  15  22  34  54  80 107 132 156 184 226
#     4   9  16  27  41  56  78 107 132 159 195 232
#     4   9  16  27  43  59  77 101 130 165 201 231
#     4   9  13  20  35  56  78 103 131 155 184 229
#
# _framework density 14.028290999999999
#
# number of rings (size 3 to 8) (size 9 to 14) (size 15 to 20)
#    0.000    3.000    2.000    0.300    0.000    2.000 
#    1.800    4.000    0.000    0.000    0.000    0.000 
#    0.000    0.000    0.000    0.100    0.000    2.700 
#
# Total GULP energy -991619.373161 kJ/mol
# GULP energy per Si atom -12395.242165 kJ/mol
# Density = 1.399636 g / cm^3
# Si number density = 14.028291 Si / 1000 Ang^3
#
#
#
# Elastic Constant Matrix: (Units=GPa)
#
#
# Indices 1 2 3 4 5 6 
#
# 1 88.1959 55.0898 41.6531 0.0000 0.0000 0.0000
# 2 55.0898 88.1957 41.6532 0.0000 0.0000 0.0000
# 3 41.6531 41.6532 52.3692 0.0000 0.0000 0.0000
# 4 0.0000 0.0000 0.0000 11.4855 0.0000 0.0000
# 5 0.0000 0.0000 0.0000 0.0000 11.4855 0.0000
# 6 0.0000 0.0000 0.0000 0.0000 0.0000 20.2207
#
#
#
# Elastic Compliance Matrix: (Units=1/GPa)
#
#
# Indices 1 2 3 4 5 6 
#
# 1 0.021594 -0.008612 -0.010326 0.000000 0.000000 0.000000
# 2 -0.008612 0.021594 -0.010326 0.000000 0.000000 0.000000
# 3 -0.010326 -0.010326 0.035521 0.000000 0.000000 0.000000
# 4 0.000000 0.000000 0.000000 0.087066 0.000000 0.000000
# 5 0.000000 0.000000 0.000000 0.000000 0.087066 0.000000
# 6 0.000000 0.000000 0.000000 0.000000 0.000000 0.049454
#
#
# Mechanical properties :
#
#
# Convention : Reuss Voigt Hill
#
# Bulk Modulus (GPa) = 49.54812 56.17258 52.86035
# Shear Modulus (GPa) = 13.60351 14.66266 14.13309
#
# Velocity S-wave (km/s) = 3.11741 3.23649 3.17751
# Velocity P-wave (km/s) = 6.95374 7.35499 7.15717
#
# Compressibility (1/GPa) = 0.02018240
#
# Stress axis : x y z
#
# Youngs Moduli (GPa) = 46.30857 46.30831 28.15197
#
# Poissons Ratio (x) = 0.39879 0.29070
# Poissons Ratio (y) = 0.39879 0.29070
# Poissons Ratio (z) = 0.47818 0.47819
#
# Static dielectric constant tensor:
#      x y z
#    x 2.832370 0.000000 0.000000 
#    y 0.000000 2.832360 0.000000 
#    z 0.000000 0.000000 2.404560 
# 
# 
# High freq. dielectric constant tensor:
#      x y z
#    x 1.534280 0.000000 0.000000 
#    y 0.000000 1.534280 0.000000 
#    z 0.000000 0.000000 1.482900 
# 
# From -- ./inp_files/6240.got.cif
#   From: 2010.03.12/outbox.cif.g09.slc.cpg/sg136_4_cif.got.tgz:6240.got - 2010.04.06 18:39:43.
