data_PCOD8318399
_publ_section_title
;
Structure prediction by ZEFSAII (Michael W. Deem and Ramdas Pophale) SiO2 
 PCOD8318399
Probable space group: P 42/N M C
;
_chemical_formula_sum "Si O2"
_cell_formula_units_Z 128
_cell_length_a 17.341713
_cell_length_b 17.341713
_cell_length_c 25.315664
_cell_angle_alpha 90.000000
_cell_angle_beta 90.000000
_cell_angle_gamma 90.000000
_cell_volume 7613.306460
_symmetry_space_group_name_H-M "P 42/N M C"
_symmetry_group_IT_number 137
_space_group.IT_coordinate_system_code '2'
_symmetry_cell_setting 'tetragonal'
loop_
_space_group_symop_operation_xyz
x,y,z
1/2-y,x,1/2+z
1/2-x,1/2-y,z
y,1/2-x,1/2+z
1/2+x,-y,-z
-x,1/2+y,-z
1/2+y,1/2+x,1/2-z
-y,-x,1/2-z
-x,-y,-z
1/2+y,-x,1/2-z
1/2+x,1/2+y,-z
-y,1/2+x,1/2-z
1/2-x,y,z
x,1/2-y,z
1/2-y,1/2-x,1/2+z
y,x,1/2+z
loop_
_atom_site_type_symbol
_atom_site_label
_atom_site_fract_x
_atom_site_fract_y
_atom_site_fract_z
Si Si1 0.069693 0.163187 0.967257
Si Si2 0.661854 0.606339 0.124715
Si Si3 0.935192 0.841746 0.446985
Si Si4 0.158091 0.163653 0.150991
Si Si5 0.835340 0.658926 0.734698
Si Si6 0.934831 0.062543 0.989959
Si Si7 0.164039 0.658083 0.692400
Si Si8 0.661097 0.431220 0.092737
O O1 0.070493 0.250000 0.988522
O O2 0.124781 0.111999 0.003932
O O3 0.105533 0.160910 0.908651
O O4 0.980197 0.135327 0.965448
O O5 0.750000 0.636061 0.119746
O O6 0.635187 0.609591 0.186095
O O7 0.653713 0.521034 0.103059
O O8 0.936024 0.750000 0.451502
O O9 0.895541 0.871973 0.393306
O O10 0.023472 0.872934 0.449906
O O11 0.250000 0.166742 0.150521
O O12 0.125764 0.250000 0.139418
O O13 0.130558 0.131346 0.208461
O O14 0.750000 0.624009 0.724601
O O15 0.828423 0.750000 0.739756
O O16 0.891575 0.090736 0.042954
O O17 0.000000 0.000000 0.000000
O O18 0.131260 0.631260 0.750000
O O19 0.250000 0.625318 0.683295
O O20 0.165238 0.750000 0.693179
O O21 0.111884 0.627699 0.644380
O O22 0.750000 0.407786 0.081455
#
# Coordination Sequence:
#
# PCOD8318399 Si02
#       8
#    16  16  16  16  16  16  16  16
#     4  11  22  33  48  71  97 126 159 201 246 288
#     4  10  18  29  48  72  96 125 160 197 236 286
#     4  10  18  31  52  73  93 124 161 200 239 284
#     4   8  14  25  43  69  98 124 153 193 240 287
#     4   8  14  25  41  64  96 127 151 184 234 289
#     4  10  20  34  46  63  97 132 159 193 244 296
#     4   8  15  29  49  72  95 121 160 207 244 275
#     4  10  18  31  51  70  92 127 168 203 237 286
#
# _framework density 16.812669
#
# number of rings (size 3 to 8) (size 9 to 14) (size 15 to 20)
#    0.000    2.625    2.500    2.625    0.000    2.500 
#    0.000    2.500    0.000    5.625    0.000    0.000 
#    0.000    0.000    0.000    0.000    0.000   17.500 
#
# Total GULP energy -1586202.420158 kJ/mol
# GULP energy per Si atom -12392.206407 kJ/mol
# Density = 1.677440 g / cm^3
# Si number density = 16.812669 Si / 1000 Ang^3
#
#
#
# Elastic Constant Matrix: (Units=GPa)
#
#
# Indices 1 2 3 4 5 6 
#
# 1 53.9316 29.7109 36.3835 0.0000 0.0000 0.0000
# 2 29.7109 53.9316 36.3835 0.0000 0.0000 0.0000
# 3 36.3835 36.3835 133.5766 0.0000 0.0000 0.0000
# 4 0.0000 0.0000 0.0000 20.5898 0.0000 0.0000
# 5 0.0000 0.0000 0.0000 0.0000 20.5898 0.0000
# 6 0.0000 0.0000 0.0000 0.0000 0.0000 16.6476
#
#
#
# Elastic Compliance Matrix: (Units=1/GPa)
#
#
# Indices 1 2 3 4 5 6 
#
# 1 0.028478 -0.012809 -0.004268 0.000000 0.000000 0.000000
# 2 -0.012809 0.028478 -0.004268 0.000000 0.000000 0.000000
# 3 -0.004268 -0.004268 0.009811 0.000000 0.000000 0.000000
# 4 0.000000 0.000000 0.000000 0.048568 0.000000 0.000000
# 5 0.000000 0.000000 0.000000 0.000000 0.048568 0.000000
# 6 0.000000 0.000000 0.000000 0.000000 0.000000 0.060069
#
#
# Mechanical properties :
#
#
# Convention : Reuss Voigt Hill
#
# Bulk Modulus (GPa) = 41.53317 49.59953 45.56635
# Shear Modulus (GPa) = 18.20257 20.82955 19.51606
#
# Velocity S-wave (km/s) = 3.29396 3.52365 3.41074
# Velocity P-wave (km/s) = 6.26291 6.79118 6.53239
#
# Compressibility (1/GPa) = 0.02407714
#
# Stress axis : x y z
#
# Youngs Moduli (GPa) = 35.11510 35.11510 101.92375
#
# Poissons Ratio (x) = 0.44980 0.43499
# Poissons Ratio (y) = 0.44980 0.43499
# Poissons Ratio (z) = 0.14986 0.14986
#
# Static dielectric constant tensor:
#      x y z
#    x 3.158970 0.000000 0.000000 
#    y 0.000000 3.158970 0.000000 
#    z 0.000000 0.000000 3.546410 
# 
# 
# High freq. dielectric constant tensor:
#      x y z
#    x 1.619160 0.000000 0.000000 
#    y 0.000000 1.619160 0.000000 
#    z 0.000000 0.000000 1.655660 
# 
# From -- ./inp_files/9165.got.cif
#   From: 2010.03.12/outbox.cif.g09.slc.cpg/sg137_5_cif.got.tgz:9165.got - 2010.04.08 09:34:49.
