data_PCOD8318792
_publ_section_title
;
Structure prediction by ZEFSAII (Michael W. Deem and Ramdas Pophale) SiO2 
 PCOD8318792
Probable space group: P 42/N M C
;
_chemical_formula_sum "Si O2"
_cell_formula_units_Z 128
_cell_length_a 23.160618
_cell_length_b 23.160618
_cell_length_c 11.968145
_cell_angle_alpha 90.000000
_cell_angle_beta 90.000000
_cell_angle_gamma 90.000000
_cell_volume 6419.883239
_symmetry_space_group_name_H-M "P 42/N M C"
_symmetry_group_IT_number 137
_space_group.IT_coordinate_system_code '2'
_symmetry_cell_setting 'tetragonal'
loop_
_space_group_symop_operation_xyz
x,y,z
1/2-y,x,1/2+z
1/2-x,1/2-y,z
y,1/2-x,1/2+z
1/2+x,-y,-z
-x,1/2+y,-z
1/2+y,1/2+x,1/2-z
-y,-x,1/2-z
-x,-y,-z
1/2+y,-x,1/2-z
1/2+x,1/2+y,-z
-y,1/2+x,1/2-z
1/2-x,y,z
x,1/2-y,z
1/2-y,1/2-x,1/2+z
y,x,1/2+z
loop_
_atom_site_type_symbol
_atom_site_label
_atom_site_fract_x
_atom_site_fract_y
_atom_site_fract_z
Si Si1 0.073073 0.884861 0.988177
Si Si2 0.508297 0.373117 0.414893
Si Si3 0.594228 0.183914 0.805916
Si Si4 0.499763 0.816947 0.820635
Si Si5 0.451229 0.013586 0.349143
Si Si6 0.414201 0.185642 0.554055
Si Si7 0.399430 0.187048 0.014952
Si Si8 0.333917 0.040217 0.286299
O O1 0.095243 0.831844 0.063168
O O2 0.026056 0.923048 0.055488
O O3 0.047797 0.857915 0.875666
O O4 0.127601 0.924807 0.953061
O O5 0.495693 0.334247 0.308042
O O6 0.496713 0.441665 0.399642
O O7 0.470878 0.348015 0.515153
O O8 0.638050 0.138050 0.750000
O O9 0.615542 0.250000 0.788179
O O10 0.527855 0.178824 0.762911
O O11 0.482159 0.750000 0.831159
O O12 0.560705 0.829157 0.879898
O O13 0.401977 0.052222 0.291391
O O14 0.476476 0.976476 0.250000
O O15 0.410743 0.250000 0.503509
O O16 0.358392 0.152213 0.508577
O O17 0.419470 0.190836 0.688180
O O18 0.371321 0.250000 0.033755
O O19 0.439309 0.191608 0.904641
#
# Coordination Sequence:
#
# PCOD8318792 Si02
#       8
#    16  16  16  16  16  16  16  16
#     4  11  21  36  59  90 123 158 201 252 311 376
#     4  12  23  38  55  90 130 164 204 249 315 376
#     4  11  22  39  64  93 125 163 208 258 311 372
#     4  11  22  39  61  85 121 164 205 250 307 377
#     4  11  20  34  59  91 126 157 197 252 321 380
#     4  12  25  41  61  89 124 165 213 264 313 371
#     4  11  23  42  65  88 119 164 212 264 318 371
#     4  11  21  42  66  93 121 160 211 258 320 373
#
# _framework density 19.938057000000001
#
# number of rings (size 3 to 8) (size 9 to 14) (size 15 to 20)
#    0.000    0.750    3.750    7.125    0.000    0.375 
#    0.000    0.625    0.000    1.500    0.000    0.000 
#    0.000    3.000    0.000    0.000    0.000    0.000 
#
# Total GULP energy -1586938.308406 kJ/mol
# GULP energy per Si atom -12397.955534 kJ/mol
# Density = 1.989268 g / cm^3
# Si number density = 19.938057 Si / 1000 Ang^3
#
#
#
# Elastic Constant Matrix: (Units=GPa)
#
#
# Indices 1 2 3 4 5 6 
#
# 1 56.8649 73.5260 23.1213 0.0000 0.0000 0.0000
# 2 73.5260 56.8649 23.1213 0.0000 0.0000 0.0000
# 3 23.1213 23.1213 83.8515 0.0000 0.0000 0.0000
# 4 0.0000 0.0000 0.0000 4.8364 0.0000 0.0000
# 5 0.0000 0.0000 0.0000 0.0000 4.8364 0.0000
# 6 0.0000 0.0000 0.0000 0.0000 0.0000 9.7820
#
#
#
# Elastic Compliance Matrix: (Units=1/GPa)
#
#
# Indices 1 2 3 4 5 6 
#
# 1 -0.025760 0.034260 -0.002344 0.000000 0.000000 0.000000
# 2 0.034260 -0.025760 -0.002344 0.000000 0.000000 0.000000
# 3 -0.002344 -0.002344 0.013218 0.000000 0.000000 0.000000
# 4 0.000000 0.000000 0.000000 0.206767 0.000000 0.000000
# 5 0.000000 0.000000 0.000000 0.000000 0.206767 0.000000
# 6 0.000000 0.000000 0.000000 0.000000 0.000000 0.102229
#
#
# Mechanical properties :
#
#
# Convention : Reuss Voigt Hill
#
# Bulk Modulus (GPa) = 47.97603 48.56875 48.27239
# Shear Modulus (GPa) = 11.75737 9.07845 10.41791
#
# Velocity S-wave (km/s) = 2.43100 2.13617 2.28834
# Velocity P-wave (km/s) = 5.65636 5.52241 5.58979
#
# Compressibility (1/GPa) = 0.02084374
#
# Stress axis : x y z
#
# Youngs Moduli (GPa) = -38.82024 -38.82024 75.65163
#
# Poissons Ratio (x) = 1.32999 0.17732
# Poissons Ratio (y) = 1.32999 0.17732
# Poissons Ratio (z) = -0.09099 -0.09099
#
# Static dielectric constant tensor:
#      x y z
#    x 3.654680 0.000000 0.000000 
#    y 0.000000 3.654680 0.000000 
#    z 0.000000 0.000000 3.629350 
# 
# 
# High freq. dielectric constant tensor:
#      x y z
#    x 1.768180 0.000000 0.000000 
#    y 0.000000 1.768180 0.000000 
#    z 0.000000 0.000000 1.785470 
# 
# From -- ./inp_files/4010.got.cif
#   From: 2010.03.12/outbox.cif.g09.slc.cpg/sg137_3_cif.got.tgz:4010.got - 2010.04.08 09:34:49.
