data_PCOD8318485
_publ_section_title
;
Structure prediction by ZEFSAII (Michael W. Deem and Ramdas Pophale) SiO2 
 PCOD8318485
Probable space group: P 42/N M C
;
_chemical_formula_sum "Si O2"
_cell_formula_units_Z 96
_cell_length_a 18.330186
_cell_length_b 18.330186
_cell_length_c 16.167754
_cell_angle_alpha 90.000000
_cell_angle_beta 90.000000
_cell_angle_gamma 90.000000
_cell_volume 5432.296127
_symmetry_space_group_name_H-M "P 42/N M C"
_symmetry_group_IT_number 137
_space_group.IT_coordinate_system_code '2'
_symmetry_cell_setting 'tetragonal'
loop_
_space_group_symop_operation_xyz
x,y,z
1/2-y,x,1/2+z
1/2-x,1/2-y,z
y,1/2-x,1/2+z
1/2+x,-y,-z
-x,1/2+y,-z
1/2+y,1/2+x,1/2-z
-y,-x,1/2-z
-x,-y,-z
1/2+y,-x,1/2-z
1/2+x,1/2+y,-z
-y,1/2+x,1/2-z
1/2-x,y,z
x,1/2-y,z
1/2-y,1/2-x,1/2+z
y,x,1/2+z
loop_
_atom_site_type_symbol
_atom_site_label
_atom_site_fract_x
_atom_site_fract_y
_atom_site_fract_z
Si Si1 0.450935 0.166084 0.406062
Si Si2 0.663897 0.104080 0.663848
Si Si3 0.832685 0.049375 0.243737
Si Si4 0.666044 0.954822 0.580021
Si Si5 0.911679 0.166751 0.503828
Si Si6 0.167335 0.542203 0.574468
O O1 0.426634 0.250000 0.395734
O O2 0.495576 0.137781 0.326188
O O3 0.378806 0.118000 0.404494
O O4 0.500729 0.156632 0.489036
O O5 0.629430 0.129430 0.750000
O O6 0.750000 0.125693 0.658492
O O7 0.615707 0.144439 0.594436
O O8 0.655027 0.016859 0.650849
O O9 0.876398 0.123603 0.250000
O O10 0.750000 0.071175 0.223378
O O11 0.839055 0.009509 0.333427
O O12 0.750000 0.930940 0.575355
O O13 0.636136 0.985328 0.492338
O O14 0.889972 0.250000 0.487335
O O15 0.873839 0.119271 0.432355
O O16 0.250000 0.558717 0.548032
#
# Coordination Sequence:
#
# PCOD8318485 Si02
#       6
#    16  16  16  16  16  16
#     4  10  21  36  54  78 107 135 172 223 270 318
#     4  10  21  36  54  80 112 146 181 216 256 308
#     4  10  19  33  50  76 110 140 171 205 250 310
#     4   9  20  39  57  76 100 132 180 226 268 316
#     4  10  19  32  50  77 109 139 175 214 253 306
#     4   9  18  32  52  75 104 139 171 207 250 306
#
# _framework density 17.672084000000002
#
# number of rings (size 3 to 8) (size 9 to 14) (size 15 to 20)
#    0.000    2.333    1.667    2.000    0.000    6.000 
#    3.000    1.667    0.000    0.000    0.000    4.667 
#    0.000    0.000    0.000    0.000    0.000    0.000 
#
# Total GULP energy -1189732.953568 kJ/mol
# GULP energy per Si atom -12393.051600 kJ/mol
# Density = 1.763186 g / cm^3
# Si number density = 17.672084 Si / 1000 Ang^3
#
#
#
# Elastic Constant Matrix: (Units=GPa)
#
#
# Indices 1 2 3 4 5 6 
#
# 1 94.0026 64.7816 42.6275 0.0000 0.0000 0.0000
# 2 64.7816 93.9999 42.6275 0.0000 0.0000 0.0000
# 3 42.6275 42.6275 110.4783 0.0000 0.0000 0.0000
# 4 0.0000 0.0000 0.0000 18.6254 0.0000 0.0000
# 5 0.0000 0.0000 0.0000 0.0000 18.6258 0.0000
# 6 0.0000 0.0000 0.0000 0.0000 0.0000 34.2093
#
#
#
# Elastic Compliance Matrix: (Units=1/GPa)
#
#
# Indices 1 2 3 4 5 6 
#
# 1 0.021083 -0.013140 -0.003065 0.000000 0.000000 0.000000
# 2 -0.013140 0.021084 -0.003065 0.000000 0.000000 0.000000
# 3 -0.003065 -0.003065 0.011417 0.000000 0.000000 0.000000
# 4 0.000000 0.000000 0.000000 0.053690 0.000000 0.000000
# 5 0.000000 0.000000 0.000000 0.000000 0.053689 0.000000
# 6 0.000000 0.000000 0.000000 0.000000 0.000000 0.029232
#
#
# Mechanical properties :
#
#
# Convention : Reuss Voigt Hill
#
# Bulk Modulus (GPa) = 66.47177 66.50600 66.48888
# Shear Modulus (GPa) = 21.39043 24.18838 22.78941
#
# Velocity S-wave (km/s) = 3.48287 3.70365 3.59496
# Velocity P-wave (km/s) = 7.33958 7.48361 7.41195
#
# Compressibility (1/GPa) = 0.01504398
#
# Stress axis : x y z
#
# Youngs Moduli (GPa) = 47.43122 47.42953 87.59044
#
# Poissons Ratio (x) = 0.62322 0.26845
# Poissons Ratio (y) = 0.62324 0.26848
# Poissons Ratio (z) = 0.14537 0.14538
#
# Static dielectric constant tensor:
#      x y z
#    x 3.120860 0.000000 0.000000 
#    y 0.000000 3.120860 0.000000 
#    z 0.000000 0.000000 3.542460 
# 
# 
# High freq. dielectric constant tensor:
#      x y z
#    x 1.669630 0.000000 0.000000 
#    y 0.000000 1.669630 0.000000 
#    z 0.000000 0.000000 1.691550 
# 
# From -- ./inp_files/6502.got.cif
#   From: 2010.03.12/outbox.cif.g09.slc.cpg/sg137_4_cif.got.tgz:6502.got - 2010.04.08 09:34:49.
