data_PCOD8318753
_publ_section_title
;
Structure prediction by ZEFSAII (Michael W. Deem and Ramdas Pophale) SiO2 
 PCOD8318753
Probable space group: P 42/N M C
;
_chemical_formula_sum "Si O2"
_cell_formula_units_Z 96
_cell_length_a 14.313425
_cell_length_b 14.313425
_cell_length_c 20.918554
_cell_angle_alpha 90.000000
_cell_angle_beta 90.000000
_cell_angle_gamma 90.000000
_cell_volume 4285.670661
_symmetry_space_group_name_H-M "P 42/N M C"
_symmetry_group_IT_number 137
_space_group.IT_coordinate_system_code '2'
_symmetry_cell_setting 'tetragonal'
loop_
_space_group_symop_operation_xyz
x,y,z
1/2-y,x,1/2+z
1/2-x,1/2-y,z
y,1/2-x,1/2+z
1/2+x,-y,-z
-x,1/2+y,-z
1/2+y,1/2+x,1/2-z
-y,-x,1/2-z
-x,-y,-z
1/2+y,-x,1/2-z
1/2+x,1/2+y,-z
-y,1/2+x,1/2-z
1/2-x,y,z
x,1/2-y,z
1/2-y,1/2-x,1/2+z
y,x,1/2+z
loop_
_atom_site_type_symbol
_atom_site_label
_atom_site_fract_x
_atom_site_fract_y
_atom_site_fract_z
Si Si1 0.598139 0.352194 0.443355
Si Si2 0.458689 0.859728 0.692229
Si Si3 0.150142 0.542590 0.435965
Si Si4 0.641990 0.644158 0.256760
Si Si5 0.108259 0.350697 0.488690
Si Si6 0.471726 0.358273 0.617592
O O1 0.647219 0.250000 0.436759
O O2 0.582170 0.401778 0.374072
O O3 0.653954 0.417864 0.491552
O O4 0.499103 0.336232 0.474545
O O5 0.401544 0.901544 0.750000
O O6 0.441483 0.750000 0.690196
O O7 0.570183 0.879863 0.700066
O O8 0.250000 0.569064 0.403488
O O9 0.150489 0.430286 0.443869
O O10 0.064864 0.579037 0.392904
O O11 0.750000 0.635710 0.278758
O O12 0.620904 0.750000 0.233003
O O13 0.574464 0.615637 0.315012
O O14 0.159572 0.250000 0.477239
O O15 0.107840 0.378164 0.564054
O O16 0.502762 0.250000 0.616048
#
# Coordination Sequence:
#
# PCOD8318753 Si02
#       6
#    16  16  16  16  16  16
#     4   9  19  37  56  77 109 149 191 239 290 341
#     4  10  22  36  57  85 115 155 198 241 287 341
#     4  11  22  33  55  87 120 159 196 232 291 362
#     4   9  19  37  62  89 113 146 194 246 300 350
#     4   9  19  35  54  76 108 145 186 239 290 337
#     4   9  18  34  57  84 115 146 186 241 291 343
#
# _framework density 22.400227999999998
#
# number of rings (size 3 to 8) (size 9 to 14) (size 15 to 20)
#    0.000    2.500    0.000    3.500    4.667    3.167 
#    0.000    4.167    0.000    4.000    0.000    4.667 
#    0.000    0.000    0.000    0.000    0.000    0.000 
#
# Total GULP energy -1189349.304062 kJ/mol
# GULP energy per Si atom -12389.055251 kJ/mol
# Density = 2.234924 g / cm^3
# Si number density = 22.400228 Si / 1000 Ang^3
#
#
#
# Elastic Constant Matrix: (Units=GPa)
#
#
# Indices 1 2 3 4 5 6 
#
# 1 75.3417 30.5936 11.1107 0.0000 0.0000 0.0000
# 2 30.5936 75.3417 11.1107 0.0000 0.0000 0.0000
# 3 11.1107 11.1107 45.7596 0.0000 0.0000 0.0000
# 4 0.0000 0.0000 0.0000 17.6877 0.0000 0.0000
# 5 0.0000 0.0000 0.0000 0.0000 17.6877 0.0000
# 6 0.0000 0.0000 0.0000 0.0000 0.0000 -1.8096
#
#
#
# Elastic Compliance Matrix: (Units=1/GPa)
#
#
# Indices 1 2 3 4 5 6 
#
# 1 0.016147 -0.006200 -0.002415 0.000000 0.000000 0.000000
# 2 -0.006200 0.016147 -0.002415 0.000000 0.000000 0.000000
# 3 -0.002415 -0.002415 0.023026 0.000000 0.000000 0.000000
# 4 0.000000 0.000000 0.000000 0.056536 0.000000 0.000000
# 5 0.000000 0.000000 0.000000 0.000000 0.056536 0.000000
# 6 0.000000 0.000000 0.000000 0.000000 0.000000 -0.552595
#
#
# Mechanical properties :
#
#
# Convention : Reuss Voigt Hill
#
# Bulk Modulus (GPa) = 30.06739 33.56367 31.81553
# Shear Modulus (GPa) = -14.24279 16.28836 1.02279
#
# Velocity S-wave (km/s) = -2.52431 2.69950 0.67645
# Velocity P-wave (km/s) = 2.22616 4.97318 3.85281
#
# Compressibility (1/GPa) = 0.03325863
#
# Stress axis : x y z
#
# Youngs Moduli (GPa) = 61.93177 61.93177 43.42896
#
# Poissons Ratio (x) = 0.38401 0.10488
# Poissons Ratio (y) = 0.38401 0.10488
# Poissons Ratio (z) = 0.14957 0.14957
#
# Static dielectric constant tensor:
#      x y z
#    x 4.276360 0.000000 0.000000 
#    y 0.000000 4.276360 0.000000 
#    z 0.000000 0.000000 4.158110 
# 
# 
# High freq. dielectric constant tensor:
#      x y z
#    x 1.878610 0.000000 0.000000 
#    y 0.000000 1.878610 0.000000 
#    z 0.000000 0.000000 1.863180 
# 
# From -- ./inp_files/7837.got.cif
#   From: 2010.03.12/outbox.cif.g09.slc.cpg/sg137_4_cif.got.tgz:7837.got - 2010.04.08 09:34:49.
