data_PCOD8318426
_publ_section_title
;
Structure prediction by ZEFSAII (Michael W. Deem and Ramdas Pophale) SiO2 
 PCOD8318426
Probable space group: P 42/N M C
;
_chemical_formula_sum "Si O2"
_cell_formula_units_Z 112
_cell_length_a 14.914630
_cell_length_b 14.914630
_cell_length_c 26.328473
_cell_angle_alpha 90.000000
_cell_angle_beta 90.000000
_cell_angle_gamma 90.000000
_cell_volume 5856.668456
_symmetry_space_group_name_H-M "P 42/N M C"
_symmetry_group_IT_number 137
_space_group.IT_coordinate_system_code '2'
_symmetry_cell_setting 'tetragonal'
loop_
_space_group_symop_operation_xyz
x,y,z
1/2-y,x,1/2+z
1/2-x,1/2-y,z
y,1/2-x,1/2+z
1/2+x,-y,-z
-x,1/2+y,-z
1/2+y,1/2+x,1/2-z
-y,-x,1/2-z
-x,-y,-z
1/2+y,-x,1/2-z
1/2+x,1/2+y,-z
-y,1/2+x,1/2-z
1/2-x,y,z
x,1/2-y,z
1/2-y,1/2-x,1/2+z
y,x,1/2+z
loop_
_atom_site_type_symbol
_atom_site_label
_atom_site_fract_x
_atom_site_fract_y
_atom_site_fract_z
Si Si1 0.976814 0.353006 0.782300
Si Si2 0.352995 0.090762 0.128919
Si Si3 0.569642 0.473499 0.611718
Si Si4 0.845578 0.855720 0.477964
Si Si5 0.994497 0.855127 0.556628
Si Si6 0.646194 0.844567 0.762494
Si Si7 0.352988 0.645490 0.021286
O O1 0.898116 0.398116 0.750000
O O2 0.971629 0.250000 0.765749
O O3 0.976564 0.357008 0.843567
O O4 0.070244 0.399384 0.764107
O O5 0.250000 0.061103 0.121264
O O6 0.391174 0.139525 0.078922
O O7 0.364617 0.154858 0.176752
O O8 0.411963 0.003837 0.138193
O O9 0.527006 0.572905 0.600919
O O10 0.610741 0.424193 0.562566
O O11 0.750000 0.894468 0.497871
O O12 0.841031 0.750000 0.476935
O O13 0.925116 0.887002 0.513531
O O14 0.980454 0.750000 0.573817
O O15 0.092984 0.867937 0.532067
O O16 0.750000 0.845280 0.747325
O O17 0.603092 0.750000 0.743708
O O18 0.250000 0.628348 0.039933
O O19 0.369696 0.750000 0.010398
#
# Coordination Sequence:
#
# PCOD8318426 Si02
#       7
#    16  16  16  16  16  16  16
#     4  11  24  40  58  82 117 153 190 235 284 344
#     4  10  18  31  54  81 110 139 177 233 289 337
#     4  12  22  36  57  84 114 151 192 237 285 335
#     4   9  17  30  50  77 109 143 179 225 281 334
#     4  10  22  39  56  80 116 156 195 238 281 330
#     4   9  18  35  58  81 107 142 183 232 290 344
#     4  10  21  38  59  83 116 158 196 231 279 342
#
# _framework density 19.123501000000001
#
# number of rings (size 3 to 8) (size 9 to 14) (size 15 to 20)
#    0.000    1.857    2.857    1.714    0.000    4.143 
#    0.000    0.714    0.000    0.000    0.000    0.000 
#    0.000    0.286    0.000    0.000    0.000    0.000 
#
# Total GULP energy -1387670.383148 kJ/mol
# GULP energy per Si atom -12389.914135 kJ/mol
# Density = 1.907997 g / cm^3
# Si number density = 19.123501 Si / 1000 Ang^3
#
#
#
# Elastic Constant Matrix: (Units=GPa)
#
#
# Indices 1 2 3 4 5 6 
#
# 1 101.5810 34.3759 24.9526 0.0000 0.0000 0.0000
# 2 34.3759 101.5810 24.9526 0.0000 0.0000 0.0000
# 3 24.9526 24.9526 63.0740 0.0000 0.0000 0.0000
# 4 0.0000 0.0000 0.0000 48.3416 0.0000 0.0000
# 5 0.0000 0.0000 0.0000 0.0000 48.3416 0.0000
# 6 0.0000 0.0000 0.0000 0.0000 0.0000 15.5568
#
#
#
# Elastic Compliance Matrix: (Units=1/GPa)
#
#
# Indices 1 2 3 4 5 6 
#
# 1 0.011742 -0.003138 -0.003404 0.000000 0.000000 0.000000
# 2 -0.003138 0.011742 -0.003404 0.000000 0.000000 0.000000
# 3 -0.003404 -0.003404 0.018548 0.000000 0.000000 0.000000
# 4 0.000000 0.000000 0.000000 0.020686 0.000000 0.000000
# 5 0.000000 0.000000 0.000000 0.000000 0.020686 0.000000
# 6 0.000000 0.000000 0.000000 0.000000 0.000000 0.064281
#
#
# Mechanical properties :
#
#
# Convention : Reuss Voigt Hill
#
# Bulk Modulus (GPa) = 45.16528 48.31088 46.73808
# Shear Modulus (GPa) = 28.57845 34.57833 31.57839
#
# Velocity S-wave (km/s) = 3.86996 4.25686 4.06801
# Velocity P-wave (km/s) = 6.60589 7.03410 6.82335
#
# Compressibility (1/GPa) = 0.02214090
#
# Stress axis : x y z
#
# Youngs Moduli (GPa) = 85.16209 85.16209 53.91477
#
# Poissons Ratio (x) = 0.26720 0.18353
# Poissons Ratio (y) = 0.26720 0.18353
# Poissons Ratio (z) = 0.28990 0.28990
#
# Static dielectric constant tensor:
#      x y z
#    x 4.089830 0.000000 0.000000 
#    y 0.000000 4.089830 0.000000 
#    z 0.000000 0.000000 3.326450 
# 
# 
# High freq. dielectric constant tensor:
#      x y z
#    x 1.738830 0.000000 0.000000 
#    y 0.000000 1.738830 0.000000 
#    z 0.000000 0.000000 1.723680 
# 
# From -- ./inp_files/9804.got.cif
#   From: 2010.03.12/outbox.cif.g09.slc.cpg/sg137_5_cif.got.tgz:9804.got - 2010.04.08 09:34:49.
