data_PCOD8318185
_publ_section_title
;
Structure prediction by ZEFSAII (Michael W. Deem and Ramdas Pophale) SiO2 
 PCOD8318185
Probable space group: P 42/M N M
;
_chemical_formula_sum "Si O2"
_cell_formula_units_Z 72
_cell_length_a 18.641052
_cell_length_b 18.641052
_cell_length_c 11.714166
_cell_angle_alpha 90.000000
_cell_angle_beta 90.000000
_cell_angle_gamma 90.000000
_cell_volume 4070.541717
_symmetry_space_group_name_H-M "P 42/M N M"
_symmetry_group_IT_number 136
_symmetry_cell_setting 'tetragonal'
loop_
_space_group_symop_operation_xyz
x,y,z
1/2-y,1/2+x,1/2+z
-x,-y,z
1/2+y,1/2-x,1/2+z
1/2+x,1/2-y,1/2-z
1/2-x,1/2+y,1/2-z
y,x,-z
-y,-x,-z
-x,-y,-z
1/2+y,1/2-x,1/2-z
x,y,-z
1/2-y,1/2+x,1/2-z
1/2-x,1/2+y,1/2+z
1/2+x,1/2-y,1/2+z
-y,-x,z
y,x,z
loop_
_atom_site_type_symbol
_atom_site_label
_atom_site_fract_x
_atom_site_fract_y
_atom_site_fract_z
Si Si1 0.127637 0.246661 0.751094
Si Si2 0.712890 0.529881 0.711127
Si Si3 0.235472 0.646674 0.000000
Si Si4 0.766266 0.647593 0.867457
Si Si5 0.123393 0.755347 0.000000
Si Si6 0.440215 0.440215 0.367349
O O1 0.178069 0.178069 0.776916
O O2 0.104508 0.250138 0.617247
O O3 0.167287 0.318371 0.796162
O O4 0.051194 0.238642 0.811081
O O5 0.744485 0.567645 0.825477
O O6 0.743815 0.576436 0.610909
O O7 0.626835 0.529925 0.703953
O O8 0.155134 0.675694 0.000000
O O9 0.282924 0.717077 0.000000
O O10 0.697059 0.697059 0.847859
O O11 0.788474 0.643545 0.000000
O O12 0.181336 0.818665 0.000000
O O13 0.500000 0.500000 0.368339
O O14 0.419826 0.419826 0.500000
#
# Coordination Sequence:
#
# PCOD8318185 Si02
#       6
#    16  16   8  16   8   8
#     4  10  22  36  55  83 114 144 183 235 279 329
#     4  12  20  35  57  82 114 148 185 229 282 337
#     4   9  18  36  58  76 106 142 195 242 267 317
#     4  10  21  37  56  79 110 149 191 231 277 332
#     4  11  18  34  60  85 101 147 200 232 269 331
#     4  11  22  34  53  85 121 155 188 226 279 342
#
# _framework density 17.688064000000001
#
# number of rings (size 3 to 8) (size 9 to 14) (size 15 to 20)
#    0.000    1.444    5.556    0.667    3.111    0.000 
#    0.000    0.000    0.000    1.333    0.000    3.111 
#    0.000    0.000    0.000    0.000    0.000    0.000 
#
# Total GULP energy -892325.787453 kJ/mol
# GULP energy per Si atom -12393.413715 kJ/mol
# Density = 1.764781 g / cm^3
# Si number density = 17.688064 Si / 1000 Ang^3
#
#
#
# Elastic Constant Matrix: (Units=GPa)
#
#
# Indices 1 2 3 4 5 6 
#
# 1 75.7962 44.2367 16.6233 0.0000 0.0000 0.0000
# 2 44.2367 75.7953 16.6237 0.0000 0.0000 0.0000
# 3 16.6233 16.6237 77.7147 0.0000 0.0000 0.0000
# 4 0.0000 0.0000 0.0000 57.6154 0.0000 0.0000
# 5 0.0000 0.0000 0.0000 0.0000 57.6191 0.0000
# 6 0.0000 0.0000 0.0000 0.0000 0.0000 22.0231
#
#
#
# Elastic Compliance Matrix: (Units=1/GPa)
#
#
# Indices 1 2 3 4 5 6 
#
# 1 0.020271 -0.011415 -0.001894 0.000000 0.000000 0.000000
# 2 -0.011415 0.020271 -0.001894 0.000000 0.000000 0.000000
# 3 -0.001894 -0.001894 0.013678 0.000000 0.000000 0.000000
# 4 0.000000 0.000000 0.000000 0.017356 0.000000 0.000000
# 5 0.000000 0.000000 0.000000 0.000000 0.017355 0.000000
# 6 0.000000 0.000000 0.000000 0.000000 0.000000 0.045407
#
#
# Mechanical properties :
#
#
# Convention : Reuss Voigt Hill
#
# Bulk Modulus (GPa) = 41.99501 42.69708 42.34605
# Shear Modulus (GPa) = 28.95454 37.57304 33.26379
#
# Velocity S-wave (km/s) = 4.05032 4.61391 4.34127
# Velocity P-wave (km/s) = 6.75773 7.25090 7.00866
#
# Compressibility (1/GPa) = 0.02381235
#
# Stress axis : x y z
#
# Youngs Moduli (GPa) = 49.33140 49.33068 73.11028
#
# Poissons Ratio (x) = 0.56313 0.13848
# Poissons Ratio (y) = 0.56314 0.13850
# Poissons Ratio (z) = 0.09344 0.09345
#
# Static dielectric constant tensor:
#      x y z
#    x 3.240180 0.000000 0.000000 
#    y 0.000000 3.240250 0.000000 
#    z 0.000000 0.000000 1.662910 
# 
# 
# High freq. dielectric constant tensor:
#      x y z
#    x 1.668820 0.000000 0.000000 
#    y 0.000000 1.668820 0.000000 
#    z 0.000000 0.000000 1.693250 
# 
# From -- ./inp_files/3493.got.cif
#   From: 2010.03.12/outbox.cif.g09.slc.cpg/sg136_2_cif.got.tgz:3493.got - 2010.04.06 18:39:43.
