data_PCOD8318553
_publ_section_title
;
Structure prediction by ZEFSAII (Michael W. Deem and Ramdas Pophale) SiO2 
 PCOD8318553
Probable space group: P 42/N M C
;
_chemical_formula_sum "Si O2"
_cell_formula_units_Z 96
_cell_length_a 14.995138
_cell_length_b 14.995138
_cell_length_c 20.254440
_cell_angle_alpha 90.000000
_cell_angle_beta 90.000000
_cell_angle_gamma 90.000000
_cell_volume 4554.295166
_symmetry_space_group_name_H-M "P 42/N M C"
_symmetry_group_IT_number 137
_space_group.IT_coordinate_system_code '2'
_symmetry_cell_setting 'tetragonal'
loop_
_space_group_symop_operation_xyz
x,y,z
1/2-y,x,1/2+z
1/2-x,1/2-y,z
y,1/2-x,1/2+z
1/2+x,-y,-z
-x,1/2+y,-z
1/2+y,1/2+x,1/2-z
-y,-x,1/2-z
-x,-y,-z
1/2+y,-x,1/2-z
1/2+x,1/2+y,-z
-y,1/2+x,1/2-z
1/2-x,y,z
x,1/2-y,z
1/2-y,1/2-x,1/2+z
y,x,1/2+z
loop_
_atom_site_type_symbol
_atom_site_label
_atom_site_fract_x
_atom_site_fract_y
_atom_site_fract_z
Si Si1 0.032727 0.509339 0.319630
Si Si2 0.527574 0.345589 0.576327
Si Si3 0.852614 0.852818 0.630362
Si Si4 0.919839 0.350368 0.184017
Si Si5 0.891625 0.151034 0.039199
Si Si6 0.399164 0.150464 0.020427
O O1 0.056496 0.556496 0.250000
O O2 0.063482 0.574970 0.377888
O O3 0.083012 0.414888 0.325998
O O4 0.925335 0.496673 0.317364
O O5 0.547244 0.250000 0.610117
O O6 0.577237 0.345947 0.505927
O O7 0.421454 0.350279 0.565828
O O8 0.750000 0.873130 0.648807
O O9 0.876456 0.750000 0.645272
O O10 0.870689 0.874898 0.554601
O O11 0.859819 0.359819 0.250000
O O12 0.961425 0.250000 0.183065
O O13 0.863266 0.363504 0.115984
O O14 0.862395 0.250000 0.015754
O O15 0.996804 0.139215 0.032323
O O16 0.366512 0.250000 0.039546
#
# Coordination Sequence:
#
# PCOD8318553 Si02
#       6
#    16  16  16  16  16  16
#     4  11  24  41  62  85 122 168 210 261 317 372
#     4  12  24  38  60  92 126 163 211 257 308 375
#     4  10  21  39  66  96 121 154 206 264 321 376
#     4  10  22  39  61  88 123 168 209 244 296 369
#     4  10  20  38  65  91 124 166 207 256 312 366
#     4  10  19  36  63  92 126 160 196 254 317 366
#
# _framework density 21.079004000000001
#
# number of rings (size 3 to 8) (size 9 to 14) (size 15 to 20)
#    0.000    1.500    3.333    2.000    0.000    5.500 
#    0.000    1.667    0.000    0.000    0.000    1.167 
#    0.000    0.000    0.000    0.000    0.000    0.000 
#
# Total GULP energy -1189982.067796 kJ/mol
# GULP energy per Si atom -12395.646540 kJ/mol
# Density = 2.103103 g / cm^3
# Si number density = 21.079004 Si / 1000 Ang^3
#
#
#
# Elastic Constant Matrix: (Units=GPa)
#
#
# Indices 1 2 3 4 5 6 
#
# 1 97.8485 46.2913 47.8825 0.0000 0.0000 0.0000
# 2 46.2913 97.8485 47.8825 0.0000 0.0000 0.0000
# 3 47.8825 47.8825 120.5837 0.0000 0.0000 0.0000
# 4 0.0000 0.0000 0.0000 17.2672 0.0000 0.0000
# 5 0.0000 0.0000 0.0000 0.0000 17.2672 0.0000
# 6 0.0000 0.0000 0.0000 0.0000 0.0000 7.1216
#
#
#
# Elastic Compliance Matrix: (Units=1/GPa)
#
#
# Indices 1 2 3 4 5 6 
#
# 1 0.014410 -0.004986 -0.003742 0.000000 0.000000 0.000000
# 2 -0.004986 0.014410 -0.003742 0.000000 0.000000 0.000000
# 3 -0.003742 -0.003742 0.011265 0.000000 0.000000 0.000000
# 4 0.000000 0.000000 0.000000 0.057913 0.000000 0.000000
# 5 0.000000 0.000000 0.000000 0.000000 0.057913 0.000000
# 6 0.000000 0.000000 0.000000 0.000000 0.000000 0.140418
#
#
# Mechanical properties :
#
#
# Convention : Reuss Voigt Hill
#
# Bulk Modulus (GPa) = 66.03174 66.71038 66.37106
# Shear Modulus (GPa) = 15.32251 19.94619 17.63435
#
# Velocity S-wave (km/s) = 2.69905 3.07947 2.89551
# Velocity P-wave (km/s) = 6.41147 6.66038 6.53711
#
# Compressibility (1/GPa) = 0.01514423
#
# Stress axis : x y z
#
# Youngs Moduli (GPa) = 69.39654 69.39654 88.77110
#
# Poissons Ratio (x) = 0.34601 0.33219
# Poissons Ratio (y) = 0.34601 0.33219
# Poissons Ratio (z) = 0.25969 0.25969
#
# Static dielectric constant tensor:
#      x y z
#    x 3.801000 0.000000 0.000000 
#    y 0.000000 3.801000 0.000000 
#    z 0.000000 0.000000 3.956960 
# 
# 
# High freq. dielectric constant tensor:
#      x y z
#    x 1.818720 0.000000 0.000000 
#    y 0.000000 1.818720 0.000000 
#    z 0.000000 0.000000 1.818050 
# 
# From -- ./inp_files/7849.got.cif
#   From: 2010.03.12/outbox.cif.g09.slc.cpg/sg137_4_cif.got.tgz:7849.got - 2010.04.08 09:34:49.
