data_PCOD8318674
_publ_section_title
;
Structure prediction by ZEFSAII (Michael W. Deem and Ramdas Pophale) SiO2 
 PCOD8318674
Probable space group: P 42/N M C
;
_chemical_formula_sum "Si O2"
_cell_formula_units_Z 96
_cell_length_a 13.272319
_cell_length_b 13.272319
_cell_length_c 30.233135
_cell_angle_alpha 90.000000
_cell_angle_beta 90.000000
_cell_angle_gamma 90.000000
_cell_volume 5325.701317
_symmetry_space_group_name_H-M "P 42/N M C"
_symmetry_group_IT_number 137
_space_group.IT_coordinate_system_code '2'
_symmetry_cell_setting 'tetragonal'
loop_
_space_group_symop_operation_xyz
x,y,z
1/2-y,x,1/2+z
1/2-x,1/2-y,z
y,1/2-x,1/2+z
1/2+x,-y,-z
-x,1/2+y,-z
1/2+y,1/2+x,1/2-z
-y,-x,1/2-z
-x,-y,-z
1/2+y,-x,1/2-z
1/2+x,1/2+y,-z
-y,1/2+x,1/2-z
1/2-x,y,z
x,1/2-y,z
1/2-y,1/2-x,1/2+z
y,x,1/2+z
loop_
_atom_site_type_symbol
_atom_site_label
_atom_site_fract_x
_atom_site_fract_y
_atom_site_fract_z
Si Si1 0.371020 0.514807 0.446085
Si Si2 0.639876 0.367783 0.405770
Si Si3 0.865620 0.013084 0.011260
Si Si4 0.636801 0.868359 0.316949
Si Si5 0.015692 0.016809 0.855875
Si Si6 0.136053 0.367665 0.784184
O O1 0.250000 0.526789 0.449191
O O2 0.408608 0.423845 0.478176
O O3 0.433363 0.611638 0.464220
O O4 0.402419 0.500206 0.395079
O O5 0.750000 0.418502 0.400394
O O6 0.651516 0.250000 0.403478
O O7 0.594731 0.401302 0.452654
O O8 0.565316 0.399798 0.367023
O O9 0.750000 0.984019 0.014084
O O10 0.750000 0.899767 0.332780
O O11 0.624154 0.750000 0.321390
O O12 0.547657 0.915451 0.346300
O O13 0.623038 0.902938 0.266275
O O14 0.053162 0.075276 0.812935
O O15 0.250000 0.391277 0.800522
O O16 0.114107 0.250000 0.788683
#
# Coordination Sequence:
#
# PCOD8318674 Si02
#       6
#    16  16  16  16  16  16
#     4  10  21  34  51  78 106 130 164 209 255 302
#     4   9  17  29  47  71  97 126 159 195 241 300
#     4   9  19  36  54  70  96 136 173 202 241 295
#     4   9  19  35  52  70  96 134 176 211 245 293
#     4  11  19  30  50  76 103 129 161 207 259 303
#     4   9  18  33  52  73  98 130 168 208 253 306
#
# _framework density 18.025796
#
# number of rings (size 3 to 8) (size 9 to 14) (size 15 to 20)
#    0.000    2.500    0.000    3.500    0.000    2.667 
#    0.000    0.833    0.000    1.500    0.000   11.667 
#    0.000    0.000    0.000    0.000    0.000    0.000 
#
# Total GULP energy -1189789.149814 kJ/mol
# GULP energy per Si atom -12393.636977 kJ/mol
# Density = 1.798477 g / cm^3
# Si number density = 18.025796 Si / 1000 Ang^3
#
#
#
# Elastic Constant Matrix: (Units=GPa)
#
#
# Indices 1 2 3 4 5 6 
#
# 1 69.2279 32.1260 27.1441 0.0000 0.0000 0.0000
# 2 32.1260 69.2279 27.1441 0.0000 0.0000 0.0000
# 3 27.1441 27.1441 52.6911 0.0000 0.0000 0.0000
# 4 0.0000 0.0000 0.0000 24.7210 0.0000 0.0000
# 5 0.0000 0.0000 0.0000 0.0000 24.7210 0.0000
# 6 0.0000 0.0000 0.0000 0.0000 0.0000 26.7900
#
#
#
# Elastic Compliance Matrix: (Units=1/GPa)
#
#
# Indices 1 2 3 4 5 6 
#
# 1 0.020290 -0.006663 -0.007020 0.000000 0.000000 0.000000
# 2 -0.006663 0.020290 -0.007020 0.000000 0.000000 0.000000
# 3 -0.007020 -0.007020 0.026211 0.000000 0.000000 0.000000
# 4 0.000000 0.000000 0.000000 0.040451 0.000000 0.000000
# 5 0.000000 0.000000 0.000000 0.000000 0.040451 0.000000
# 6 0.000000 0.000000 0.000000 0.000000 0.000000 0.037327
#
#
# Mechanical properties :
#
#
# Convention : Reuss Voigt Hill
#
# Bulk Modulus (GPa) = 39.39341 40.44171 39.91756
# Shear Modulus (GPa) = 21.28679 22.22857 21.75768
#
# Velocity S-wave (km/s) = 3.44016 3.51544 3.47800
# Velocity P-wave (km/s) = 6.13848 6.24195 6.19043
#
# Compressibility (1/GPa) = 0.02538496
#
# Stress axis : x y z
#
# Youngs Moduli (GPa) = 49.28632 49.28632 38.15192
#
# Poissons Ratio (x) = 0.32841 0.26782
# Poissons Ratio (y) = 0.32841 0.26782
# Poissons Ratio (z) = 0.34598 0.34598
#
# Static dielectric constant tensor:
#      x y z
#    x 2.543660 0.000000 0.000000 
#    y 0.000000 2.543660 0.000000 
#    z 0.000000 0.000000 3.346490 
# 
# 
# High freq. dielectric constant tensor:
#      x y z
#    x 1.694170 0.000000 0.000000 
#    y 0.000000 1.694170 0.000000 
#    z 0.000000 0.000000 1.694420 
# 
# From -- ./inp_files/10616.got.cif
#   From: 2010.03.12/outbox.cif.g09.slc.cpg/sg137_6_cif.got.tgz:10616.got - 2010.04.08 09:34:49.
