data_PCOD8318265
_publ_section_title
;
Structure prediction by ZEFSAII (Michael W. Deem and Ramdas Pophale) SiO2 
 PCOD8318265
Probable space group: P 42/M N M
;
_chemical_formula_sum "Si O2"
_cell_formula_units_Z 64
_cell_length_a 18.635017
_cell_length_b 18.635017
_cell_length_c 11.263085
_cell_angle_alpha 90.000000
_cell_angle_beta 90.000000
_cell_angle_gamma 90.000000
_cell_volume 3911.262357
_symmetry_space_group_name_H-M "P 42/M N M"
_symmetry_group_IT_number 136
_symmetry_cell_setting 'tetragonal'
loop_
_space_group_symop_operation_xyz
x,y,z
1/2-y,1/2+x,1/2+z
-x,-y,z
1/2+y,1/2-x,1/2+z
1/2+x,1/2-y,1/2-z
1/2-x,1/2+y,1/2-z
y,x,-z
-y,-x,-z
-x,-y,-z
1/2+y,1/2-x,1/2-z
x,y,-z
1/2-y,1/2+x,1/2-z
1/2-x,1/2+y,1/2+z
1/2+x,1/2-y,1/2+z
-y,-x,z
y,x,z
loop_
_atom_site_type_symbol
_atom_site_label
_atom_site_fract_x
_atom_site_fract_y
_atom_site_fract_z
Si Si1 0.743040 0.375421 0.363288
Si Si2 0.445023 0.445023 0.137957
Si Si3 0.197469 0.983399 0.236866
Si Si4 0.998828 0.885572 0.000000
Si Si5 0.858708 0.260720 0.635558
O O1 0.736660 0.404947 0.500000
O O2 0.680495 0.319505 0.337723
O O3 0.735760 0.438575 0.265246
O O4 0.819118 0.336588 0.344694
O O5 0.500000 0.500000 0.202818
O O6 0.364712 0.469830 0.167492
O O7 0.452592 0.452592 0.000000
O O8 0.257325 0.923732 0.269433
O O9 0.161776 0.976304 0.109692
O O10 0.042701 0.957300 0.000000
O O11 0.914406 0.914406 0.000000
O O12 0.887121 0.256548 0.500000
O O13 0.804858 0.195142 0.659852
#
# Coordination Sequence:
#
# PCOD8318265 Si02
#       5
#    16   8  16   8  16
#     4   9  18  32  52  76 101 132 175 220 259 303
#     4  11  22  31  45  73 109 140 171 200 253 324
#     4  12  19  30  52  75 103 134 170 214 258 312
#     4  11  20  28  44  76 110 135 156 199 263 324
#     4   9  18  34  53  73  99 137 180 214 252 312
#
# _framework density 16.363002999999999
#
# number of rings (size 3 to 8) (size 9 to 14) (size 15 to 20)
#    0.000    1.750    3.750    4.500    0.000    0.000 
#    0.000    0.000    5.500    0.750    0.000    3.500 
#    0.000    0.000    0.000    0.000    0.000    0.000 
#
# Total GULP energy -792936.503936 kJ/mol
# GULP energy per Si atom -12389.632874 kJ/mol
# Density = 1.632576 g / cm^3
# Si number density = 16.363003 Si / 1000 Ang^3
#
#
#
# Elastic Constant Matrix: (Units=GPa)
#
#
# Indices 1 2 3 4 5 6 
#
# 1 92.9045 50.1918 40.6075 0.0000 0.0000 0.0000
# 2 50.1918 92.9043 40.6075 0.0000 0.0000 0.0000
# 3 40.6075 40.6075 69.5561 0.0000 0.0000 0.0000
# 4 0.0000 0.0000 0.0000 23.2111 0.0000 0.0000
# 5 0.0000 0.0000 0.0000 0.0000 23.2113 0.0000
# 6 0.0000 0.0000 0.0000 0.0000 0.0000 30.5523
#
#
#
# Elastic Compliance Matrix: (Units=1/GPa)
#
#
# Indices 1 2 3 4 5 6 
#
# 1 0.016932 -0.006481 -0.006102 0.000000 0.000000 0.000000
# 2 -0.006481 0.016932 -0.006102 0.000000 0.000000 0.000000
# 3 -0.006102 -0.006102 0.021501 0.000000 0.000000 0.000000
# 4 0.000000 0.000000 0.000000 0.043083 0.000000 0.000000
# 5 0.000000 0.000000 0.000000 0.000000 0.043082 0.000000
# 6 0.000000 0.000000 0.000000 0.000000 0.000000 0.032731
#
#
# Mechanical properties :
#
#
# Convention : Reuss Voigt Hill
#
# Bulk Modulus (GPa) = 55.56325 57.57540 56.56933
# Shear Modulus (GPa) = 22.97507 23.65881 23.31694
#
# Velocity S-wave (km/s) = 3.75118 3.80659 3.77898
# Velocity P-wave (km/s) = 7.26582 7.38802 7.32718
#
# Compressibility (1/GPa) = 0.01799751
#
# Stress axis : x y z
#
# Youngs Moduli (GPa) = 59.06061 59.06042 46.50915
#
# Poissons Ratio (x) = 0.38274 0.28378
# Poissons Ratio (y) = 0.38274 0.28378
# Poissons Ratio (z) = 0.36036 0.36036
#
# Static dielectric constant tensor:
#      x y z
#    x 3.223890 0.000000 0.000000 
#    y 0.000000 3.223900 0.000000 
#    z 0.000000 0.000000 2.939460 
# 
# 
# High freq. dielectric constant tensor:
#      x y z
#    x 1.618840 0.000000 0.000000 
#    y 0.000000 1.618840 0.000000 
#    z 0.000000 0.000000 1.616870 
# 
# From -- ./inp_files/3570.got.cif
#   From: 2010.03.12/outbox.cif.g09.slc.cpg/sg136_2_cif.got.tgz:3570.got - 2010.04.06 18:39:43.
