data_PCOD8318330
_publ_section_title
;
Structure prediction by ZEFSAII (Michael W. Deem and Ramdas Pophale) SiO2 
 PCOD8318330
Probable space group: P 42/M N M
;
_chemical_formula_sum "Si O2"
_cell_formula_units_Z 64
_cell_length_a 10.348224
_cell_length_b 10.348224
_cell_length_c 28.956344
_cell_angle_alpha 90.000000
_cell_angle_beta 90.000000
_cell_angle_gamma 90.000000
_cell_volume 3100.811524
_symmetry_space_group_name_H-M "P 42/M N M"
_symmetry_group_IT_number 136
_symmetry_cell_setting 'tetragonal'
loop_
_space_group_symop_operation_xyz
x,y,z
1/2-y,1/2+x,1/2+z
-x,-y,z
1/2+y,1/2-x,1/2+z
1/2+x,1/2-y,1/2-z
1/2-x,1/2+y,1/2-z
y,x,-z
-y,-x,-z
-x,-y,-z
1/2+y,1/2-x,1/2-z
x,y,-z
1/2-y,1/2+x,1/2-z
1/2-x,1/2+y,1/2+z
1/2+x,1/2-y,1/2+z
-y,-x,z
y,x,z
loop_
_atom_site_type_symbol
_atom_site_label
_atom_site_fract_x
_atom_site_fract_y
_atom_site_fract_z
Si Si1 0.711529 0.494095 0.051132
Si Si2 0.392590 0.174651 0.863693
Si Si3 0.209475 0.991175 0.823226
Si Si4 0.208420 0.006686 0.721307
O O1 0.641816 0.358185 0.062870
O O2 0.605388 0.605388 0.052050
O O3 0.821680 0.524004 0.089184
O O4 0.775172 0.487882 0.000000
O O5 0.289133 0.289133 0.863603
O O6 0.487230 0.187717 0.819505
O O7 0.319413 0.036251 0.859569
O O8 0.144443 0.855558 0.839240
O O9 0.271462 0.980438 0.771757
O O10 0.098422 0.098422 0.819334
O O11 0.092024 0.907977 0.713802
O O12 0.152615 0.152615 0.717619
#
# Coordination Sequence:
#
# PCOD8318330 Si02
#       4
#    16  16  16  16
#     4   8  13  20  30  48  75 103 136 184 233 273
#     4   9  14  20  34  51  68 101 141 171 214 273
#     4   8  14  23  33  48  72 100 132 172 215 264
#     4   8  13  21  33  50  71  95 130 174 212 253
#
# _framework density 20.639759999999999
#
# number of rings (size 3 to 8) (size 9 to 14) (size 15 to 20)
#    0.000    3.750    0.000    3.000    0.000    3.000 
#    0.000    0.000    0.000    1.500    0.000    5.250 
#    0.000    0.000    0.000    4.500    0.000   49.500 
#
# Total GULP energy -792911.376991 kJ/mol
# GULP energy per Si atom -12389.240265 kJ/mol
# Density = 2.059278 g / cm^3
# Si number density = 20.639760 Si / 1000 Ang^3
#
#
#
# Elastic Constant Matrix: (Units=GPa)
#
#
# Indices 1 2 3 4 5 6 
#
# 1 44.9995 40.6489 61.9015 0.0000 0.0000 0.0000
# 2 40.6489 44.9995 61.9015 0.0000 0.0000 0.0000
# 3 61.9015 61.9015 168.2562 0.0000 0.0000 0.0000
# 4 0.0000 0.0000 0.0000 13.9880 0.0000 0.0000
# 5 0.0000 0.0000 0.0000 0.0000 13.9880 0.0000
# 6 0.0000 0.0000 0.0000 0.0000 0.0000 24.3277
#
#
#
# Elastic Compliance Matrix: (Units=1/GPa)
#
#
# Indices 1 2 3 4 5 6 
#
# 1 0.127394 -0.102457 -0.009174 0.000000 0.000000 0.000000
# 2 -0.102457 0.127394 -0.009174 0.000000 0.000000 0.000000
# 3 -0.009174 -0.009174 0.012694 0.000000 0.000000 0.000000
# 4 0.000000 0.000000 0.000000 0.071490 0.000000 0.000000
# 5 0.000000 0.000000 0.000000 0.000000 0.071490 0.000000
# 6 0.000000 0.000000 0.000000 0.000000 0.000000 0.041105
#
#
# Mechanical properties :
#
#
# Convention : Reuss Voigt Hill
#
# Bulk Modulus (GPa) = 38.65424 65.23989 51.94707
# Shear Modulus (GPa) = 7.12451 16.71427 11.91939
#
# Velocity S-wave (km/s) = 1.85993 2.84880 2.40572
# Velocity P-wave (km/s) = 4.83541 6.51908 5.73932
#
# Compressibility (1/GPa) = 0.02587038
#
# Stress axis : x y z
#
# Youngs Moduli (GPa) = 7.84965 7.84965 78.77883
#
# Poissons Ratio (x) = 0.80425 0.72274
# Poissons Ratio (y) = 0.80425 0.72274
# Poissons Ratio (z) = 0.07201 0.07201
#
# Static dielectric constant tensor:
#      x y z
#    x 3.516250 0.000000 0.000000 
#    y 0.000000 3.516250 0.000000 
#    z 0.000000 0.000000 3.950290 
# 
# 
# High freq. dielectric constant tensor:
#      x y z
#    x 1.775480 0.000000 0.000000 
#    y 0.000000 1.775480 0.000000 
#    z 0.000000 0.000000 1.786340 
# 
# From -- ./inp_files/8106.got.cif
#   From: 2010.03.12/outbox.cif.g09.slc.cpg/sg136_5_cif.got.tgz:8106.got - 2010.04.06 18:39:43.
