data_PCOD8318370
_publ_section_title
;
Structure prediction by ZEFSAII (Michael W. Deem and Ramdas Pophale) SiO2 
 PCOD8318370
Probable space group: P 42/N M C
;
_chemical_formula_sum "Si O2"
_cell_formula_units_Z 96
_cell_length_a 19.417739
_cell_length_b 19.417739
_cell_length_c 14.768816
_cell_angle_alpha 90.000000
_cell_angle_beta 90.000000
_cell_angle_gamma 90.000000
_cell_volume 5568.561217
_symmetry_space_group_name_H-M "P 42/N M C"
_symmetry_group_IT_number 137
_space_group.IT_coordinate_system_code '2'
_symmetry_cell_setting 'tetragonal'
loop_
_space_group_symop_operation_xyz
x,y,z
1/2-y,x,1/2+z
1/2-x,1/2-y,z
y,1/2-x,1/2+z
1/2+x,-y,-z
-x,1/2+y,-z
1/2+y,1/2+x,1/2-z
-y,-x,1/2-z
-x,-y,-z
1/2+y,-x,1/2-z
1/2+x,1/2+y,-z
-y,1/2+x,1/2-z
1/2-x,y,z
x,1/2-y,z
1/2-y,1/2-x,1/2+z
y,x,1/2+z
loop_
_atom_site_type_symbol
_atom_site_label
_atom_site_fract_x
_atom_site_fract_y
_atom_site_fract_z
Si Si1 0.419523 0.172313 0.366387
Si Si2 0.172800 0.533616 0.012976
Si Si3 0.409858 0.010790 0.714394
Si Si4 0.973068 0.422495 0.018908
Si Si5 0.825390 0.953817 0.617982
Si Si6 0.976612 0.127084 0.716479
O O1 0.393562 0.250000 0.351756
O O2 0.461217 0.165590 0.460320
O O3 0.466075 0.152398 0.279181
O O4 0.353263 0.123709 0.372652
O O5 0.250000 0.564258 0.993958
O O6 0.164263 0.525030 0.120117
O O7 0.110378 0.581414 0.977712
O O8 0.471497 0.063998 0.714936
O O9 0.437546 0.937546 0.750000
O O10 0.387608 0.001960 0.610072
O O11 0.000000 0.500000 0.000000
O O12 0.998921 0.377221 0.937043
O O13 0.750000 0.949643 0.572936
O O14 0.817595 0.992127 0.714088
O O15 0.901979 0.098022 0.750000
#
# Coordination Sequence:
#
# PCOD8318370 Si02
#       6
#    16  16  16  16  16  16
#     4  10  21  35  52  79 113 150 186 223 279 338
#     4  11  20  32  53  81 110 142 180 224 280 338
#     4  10  17  29  53  78 105 137 181 235 277 317
#     4  12  18  35  57  81 108 144 185 240 286 322
#     4  11  22  34  53  82 113 147 186 229 278 333
#     4  10  17  31  53  76 103 137 177 224 272 320
#
# _framework density 17.239640999999999
#
# number of rings (size 3 to 8) (size 9 to 14) (size 15 to 20)
#    0.000    1.333    6.667    1.500    0.000    1.000 
#    0.000    0.000    0.000    0.500    0.000    5.833 
#    0.000    0.333    0.000    0.000    0.000    0.000 
#
# Total GULP energy -1189714.815825 kJ/mol
# GULP energy per Si atom -12392.862665 kJ/mol
# Density = 1.720040 g / cm^3
# Si number density = 17.239641 Si / 1000 Ang^3
#
#
#
# Elastic Constant Matrix: (Units=GPa)
#
#
# Indices 1 2 3 4 5 6 
#
# 1 97.3785 43.8488 24.2027 0.0000 0.0000 0.0000
# 2 43.8488 97.3775 24.2028 0.0000 0.0000 0.0000
# 3 24.2027 24.2028 100.2844 0.0000 0.0000 0.0000
# 4 0.0000 0.0000 0.0000 13.4078 0.0000 0.0000
# 5 0.0000 0.0000 0.0000 0.0000 13.4087 0.0000
# 6 0.0000 0.0000 0.0000 0.0000 0.0000 6.4625
#
#
#
# Elastic Compliance Matrix: (Units=1/GPa)
#
#
# Indices 1 2 3 4 5 6 
#
# 1 0.013200 -0.005481 -0.001863 0.000000 0.000000 0.000000
# 2 -0.005481 0.013200 -0.001863 0.000000 0.000000 0.000000
# 3 -0.001863 -0.001863 0.010871 0.000000 0.000000 0.000000
# 4 0.000000 0.000000 0.000000 0.074584 0.000000 0.000000
# 5 0.000000 0.000000 0.000000 0.000000 0.074578 0.000000
# 6 0.000000 0.000000 0.000000 0.000000 0.000000 0.154740
#
#
# Mechanical properties :
#
#
# Convention : Reuss Voigt Hill
#
# Bulk Modulus (GPa) = 53.02904 53.28322 53.15613
# Shear Modulus (GPa) = 13.66594 20.17486 16.92040
#
# Velocity S-wave (km/s) = 2.81855 3.42462 3.13626
# Velocity P-wave (km/s) = 6.43576 6.82729 6.63441
#
# Compressibility (1/GPa) = 0.01885759
#
# Stress axis : x y z
#
# Youngs Moduli (GPa) = 75.75583 75.75507 91.98889
#
# Poissons Ratio (x) = 0.41521 0.17137
# Poissons Ratio (y) = 0.41522 0.17138
# Poissons Ratio (z) = 0.14113 0.14113
#
# Static dielectric constant tensor:
#      x y z
#    x 3.346970 0.000000 0.000000 
#    y 0.000000 3.347070 0.000000 
#    z 0.000000 0.000000 3.640050 
# 
# 
# High freq. dielectric constant tensor:
#      x y z
#    x 1.641830 0.000000 0.000000 
#    y 0.000000 1.641830 0.000000 
#    z 0.000000 0.000000 1.684620 
# 
# From -- ./inp_files/5265.got.cif
#   From: 2010.03.12/outbox.cif.g09.slc.cpg/sg137_3_cif.got.tgz:5265.got - 2010.04.08 09:34:49.
