data_PCOD8318196
_publ_section_title
;
Structure prediction by ZEFSAII (Michael W. Deem and Ramdas Pophale) SiO2 
 PCOD8318196
Probable space group: P 42/M N M
;
_chemical_formula_sum "Si O2"
_cell_formula_units_Z 72
_cell_length_a 18.580617
_cell_length_b 18.580617
_cell_length_c 11.643238
_cell_angle_alpha 90.000000
_cell_angle_beta 90.000000
_cell_angle_gamma 90.000000
_cell_volume 4019.703664
_symmetry_space_group_name_H-M "P 42/M N M"
_symmetry_group_IT_number 136
_symmetry_cell_setting 'tetragonal'
loop_
_space_group_symop_operation_xyz
x,y,z
1/2-y,1/2+x,1/2+z
-x,-y,z
1/2+y,1/2-x,1/2+z
1/2+x,1/2-y,1/2-z
1/2-x,1/2+y,1/2-z
y,x,-z
-y,-x,-z
-x,-y,-z
1/2+y,1/2-x,1/2-z
x,y,-z
1/2-y,1/2+x,1/2-z
1/2-x,1/2+y,1/2+z
1/2+x,1/2-y,1/2+z
-y,-x,z
y,x,z
loop_
_atom_site_type_symbol
_atom_site_label
_atom_site_fract_x
_atom_site_fract_y
_atom_site_fract_z
Si Si1 0.225180 0.656759 0.766156
Si Si2 0.173142 0.706125 0.000000
Si Si3 0.441294 0.558707 0.864537
Si Si4 0.799741 0.988052 0.236291
Si Si5 0.874422 0.242943 0.368490
Si Si6 0.057046 0.821711 0.000000
O O1 0.299476 0.700525 0.777201
O O2 0.183089 0.657074 0.887535
O O3 0.241902 0.575782 0.728849
O O4 0.175049 0.690297 0.667838
O O5 0.230425 0.769576 0.000000
O O6 0.094837 0.743352 0.000000
O O7 0.500000 0.500000 0.828726
O O8 0.465304 0.635155 0.817194
O O9 0.433860 0.566141 0.000000
O O10 0.758828 0.056029 0.289113
O O11 0.829521 0.006136 0.110414
O O12 0.897281 0.252991 0.500000
O O13 0.831419 0.168582 0.349611
O O14 0.114615 0.885386 0.000000
#
# Coordination Sequence:
#
# PCOD8318196 Si02
#       6
#    16   8   8  16  16   8
#     4  10  21  37  58  86 115 149 197 251 290 342
#     4   9  18  36  61  81 111 151 199 254 290 343
#     4  11  24  39  55  83 127 162 195 232 289 366
#     4  12  23  37  60  89 118 156 201 244 297 358
#     4  10  21  38  59  81 116 156 197 240 294 348
#     4  11  22  39  60  86 122 163 203 237 304 371
#
# _framework density 17.911767999999999
#
# number of rings (size 3 to 8) (size 9 to 14) (size 15 to 20)
#    0.000    1.444    3.333    2.667    4.667    2.222 
#    0.000    1.111    0.000    0.667    0.000    3.111 
#    0.000    0.000    0.000    0.000    0.000    0.000 
#
# Total GULP energy -893167.057898 kJ/mol
# GULP energy per Si atom -12405.098026 kJ/mol
# Density = 1.787100 g / cm^3
# Si number density = 17.911768 Si / 1000 Ang^3
#
#
#
# Elastic Constant Matrix: (Units=GPa)
#
#
# Indices 1 2 3 4 5 6 
#
# 1 69.7916 36.2531 22.3923 0.0000 0.0000 0.0000
# 2 36.2531 69.7921 22.3932 0.0000 0.0000 0.0000
# 3 22.3923 22.3932 93.0796 0.0000 0.0000 0.0000
# 4 0.0000 0.0000 0.0000 23.0848 0.0000 0.0000
# 5 0.0000 0.0000 0.0000 0.0000 23.0849 0.0000
# 6 0.0000 0.0000 0.0000 0.0000 0.0000 19.8760
#
#
#
# Elastic Compliance Matrix: (Units=1/GPa)
#
#
# Indices 1 2 3 4 5 6 
#
# 1 0.020156 -0.009660 -0.002525 0.000000 0.000000 0.000000
# 2 -0.009660 0.020156 -0.002525 0.000000 0.000000 0.000000
# 3 -0.002525 -0.002525 0.011958 0.000000 0.000000 0.000000
# 4 0.000000 0.000000 0.000000 0.043318 0.000000 0.000000
# 5 0.000000 0.000000 0.000000 0.000000 0.043318 0.000000
# 6 0.000000 0.000000 0.000000 0.000000 0.000000 0.050312
#
#
# Mechanical properties :
#
#
# Convention : Reuss Voigt Hill
#
# Bulk Modulus (GPa) = 43.76259 43.86006 43.81133
# Shear Modulus (GPa) = 22.09872 23.31745 22.70808
#
# Velocity S-wave (km/s) = 3.51629 3.61195 3.56444
# Velocity P-wave (km/s) = 6.40087 6.47571 6.43840
#
# Compressibility (1/GPa) = 0.02285057
#
# Stress axis : x y z
#
# Youngs Moduli (GPa) = 49.61217 49.61226 83.62257
#
# Poissons Ratio (x) = 0.47925 0.21115
# Poissons Ratio (y) = 0.47925 0.21117
# Poissons Ratio (z) = 0.12527 0.12529
#
# Static dielectric constant tensor:
#      x y z
#    x 3.260340 0.000000 0.000000 
#    y 0.000000 3.260350 0.000000 
#    z 0.000000 0.000000 3.490780 
# 
# 
# High freq. dielectric constant tensor:
#      x y z
#    x 1.678030 0.000000 0.000000 
#    y 0.000000 1.678030 0.000000 
#    z 0.000000 0.000000 1.712120 
# 
# From -- ./inp_files/3470.got.cif
#   From: 2010.03.12/outbox.cif.g09.slc.cpg/sg136_2_cif.got.tgz:3470.got - 2010.04.06 18:39:43.
