data_PCOD8318502
_publ_section_title
;
Structure prediction by ZEFSAII (Michael W. Deem and Ramdas Pophale) SiO2 
 PCOD8318502
Probable space group: P 42/N M C
;
_chemical_formula_sum "Si O2"
_cell_formula_units_Z 112
_cell_length_a 15.170043
_cell_length_b 15.170043
_cell_length_c 28.080902
_cell_angle_alpha 90.000000
_cell_angle_beta 90.000000
_cell_angle_gamma 90.000000
_cell_volume 6462.263723
_symmetry_space_group_name_H-M "P 42/N M C"
_symmetry_group_IT_number 137
_space_group.IT_coordinate_system_code '2'
_symmetry_cell_setting 'tetragonal'
loop_
_space_group_symop_operation_xyz
x,y,z
1/2-y,x,1/2+z
1/2-x,1/2-y,z
y,1/2-x,1/2+z
1/2+x,-y,-z
-x,1/2+y,-z
1/2+y,1/2+x,1/2-z
-y,-x,1/2-z
-x,-y,-z
1/2+y,-x,1/2-z
1/2+x,1/2+y,-z
-y,1/2+x,1/2-z
1/2-x,y,z
x,1/2-y,z
1/2-y,1/2-x,1/2+z
y,x,1/2+z
loop_
_atom_site_type_symbol
_atom_site_label
_atom_site_fract_x
_atom_site_fract_y
_atom_site_fract_z
Si Si1 0.983120 0.569333 0.600399
Si Si2 0.849203 0.617381 0.964388
Si Si3 0.850435 0.645933 0.676463
Si Si4 0.846403 0.002227 0.532810
Si Si5 0.559020 0.345727 0.487246
Si Si6 0.653549 0.854244 0.782951
Si Si7 0.648250 0.956511 0.372356
O O1 0.925087 0.604874 0.643406
O O2 0.921470 0.497835 0.573329
O O3 0.007557 0.645446 0.562854
O O4 0.077234 0.532231 0.617372
O O5 0.750000 0.653281 0.971419
O O6 0.880860 0.644252 0.912056
O O7 0.910661 0.660977 0.004450
O O8 0.852591 0.511815 0.970074
O O9 0.750000 0.616444 0.662716
O O10 0.856956 0.750000 0.671870
O O11 0.873600 0.614012 0.730010
O O12 0.750000 0.021486 0.555231
O O13 0.868895 0.078194 0.494312
O O14 0.605432 0.250000 0.488258
O O15 0.750000 0.893658 0.795597
O O16 0.660495 0.750000 0.782959
O O17 0.583225 0.884321 0.822071
O O18 0.750000 0.992416 0.369588
#
# Coordination Sequence:
#
# PCOD8318502 Si02
#       7
#    16  16  16  16  16  16  16
#     4  11  20  34  50  77 105 132 173 219 259 304
#     4  10  19  33  52  74 102 131 166 215 266 308
#     4   9  18  34  55  77 102 132 166 210 265 315
#     4  11  21  35  51  73 103 136 173 215 261 311
#     4  10  20  35  51  69  98 139 178 214 253 298
#     4   8  16  31  50  75 103 130 166 210 259 315
#     4  11  20  31  50  74 105 140 171 207 256 308
#
# _framework density 17.331389000000001
#
# number of rings (size 3 to 8) (size 9 to 14) (size 15 to 20)
#    0.000    2.000    2.857    3.429    0.000    3.143 
#    0.000    0.000    0.000    1.286    0.000    0.000 
#    0.000    6.857    0.000    6.571    0.000    0.000 
#
# Total GULP energy -1387873.030296 kJ/mol
# GULP energy per Si atom -12391.723485 kJ/mol
# Density = 1.729194 g / cm^3
# Si number density = 17.331389 Si / 1000 Ang^3
#
#
#
# Elastic Constant Matrix: (Units=GPa)
#
#
# Indices 1 2 3 4 5 6 
#
# 1 86.9488 46.7014 35.1005 0.0000 0.0000 0.0000
# 2 46.7014 86.9488 35.1005 0.0000 0.0000 0.0000
# 3 35.1005 35.1005 94.1877 0.0000 0.0000 0.0000
# 4 0.0000 0.0000 0.0000 23.2942 0.0000 0.0000
# 5 0.0000 0.0000 0.0000 0.0000 23.2942 0.0000
# 6 0.0000 0.0000 0.0000 0.0000 0.0000 11.1405
#
#
#
# Elastic Compliance Matrix: (Units=1/GPa)
#
#
# Indices 1 2 3 4 5 6 
#
# 1 0.017075 -0.007772 -0.003467 0.000000 0.000000 0.000000
# 2 -0.007772 0.017075 -0.003467 0.000000 0.000000 0.000000
# 3 -0.003467 -0.003467 0.013201 0.000000 0.000000 0.000000
# 4 0.000000 0.000000 0.000000 0.042929 0.000000 0.000000
# 5 0.000000 0.000000 0.000000 0.000000 0.042929 0.000000
# 6 0.000000 0.000000 0.000000 0.000000 0.000000 0.089763
#
#
# Mechanical properties :
#
#
# Convention : Reuss Voigt Hill
#
# Bulk Modulus (GPa) = 55.74229 55.76557 55.75393
# Shear Modulus (GPa) = 19.35264 21.62465 20.48865
#
# Velocity S-wave (km/s) = 3.34522 3.53613 3.44200
# Velocity P-wave (km/s) = 6.86681 6.99416 6.93078
#
# Compressibility (1/GPa) = 0.01793970
#
# Stress axis : x y z
#
# Youngs Moduli (GPa) = 58.56573 58.56573 75.75086
#
# Poissons Ratio (x) = 0.45515 0.26263
# Poissons Ratio (y) = 0.45515 0.26263
# Poissons Ratio (z) = 0.20305 0.20305
#
# Static dielectric constant tensor:
#      x y z
#    x 3.150880 0.000000 0.000000 
#    y 0.000000 3.150880 0.000000 
#    z 0.000000 0.000000 3.415730 
# 
# 
# High freq. dielectric constant tensor:
#      x y z
#    x 1.655450 0.000000 0.000000 
#    y 0.000000 1.655450 0.000000 
#    z 0.000000 0.000000 1.665710 
# 
# From -- ./inp_files/9750.got.cif
#   From: 2010.03.12/outbox.cif.g09.slc.cpg/sg137_5_cif.got.tgz:9750.got - 2010.04.08 09:34:49.
