data_PCOD8318222
_publ_section_title
;
Structure prediction by ZEFSAII (Michael W. Deem and Ramdas Pophale) SiO2 
 PCOD8318222
Probable space group: P 42/M N M
;
_chemical_formula_sum "Si O2"
_cell_formula_units_Z 80
_cell_length_a 11.649848
_cell_length_b 11.649848
_cell_length_c 29.485947
_cell_angle_alpha 90.000000
_cell_angle_beta 90.000000
_cell_angle_gamma 90.000000
_cell_volume 4001.802015
_symmetry_space_group_name_H-M "P 42/M N M"
_symmetry_group_IT_number 136
_symmetry_cell_setting 'tetragonal'
loop_
_space_group_symop_operation_xyz
x,y,z
1/2-y,1/2+x,1/2+z
-x,-y,z
1/2+y,1/2-x,1/2+z
1/2+x,1/2-y,1/2-z
1/2-x,1/2+y,1/2-z
y,x,-z
-y,-x,-z
-x,-y,-z
1/2+y,1/2-x,1/2-z
x,y,-z
1/2-y,1/2+x,1/2-z
1/2-x,1/2+y,1/2+z
1/2+x,1/2-y,1/2+z
-y,-x,z
y,x,z
loop_
_atom_site_type_symbol
_atom_site_label
_atom_site_fract_x
_atom_site_fract_y
_atom_site_fract_z
Si Si1 0.977050 0.680891 0.643227
Si Si2 0.404102 0.595899 0.196722
Si Si3 0.454575 0.271743 0.450054
Si Si4 0.310366 0.027667 0.857914
Si Si5 0.095396 0.095396 0.199888
Si Si6 0.237962 0.579841 0.951562
O O1 0.952248 0.789702 0.673903
O O2 0.866487 0.598141 0.647349
O O3 0.001823 0.717396 0.591105
O O4 0.095204 0.620831 0.656929
O O5 0.500000 0.500000 0.192356
O O6 0.374351 0.625650 0.248426
O O7 0.515780 0.277522 0.500000
O O8 0.394591 0.394591 0.439247
O O9 0.542603 0.238564 0.409491
O O10 0.357945 0.176409 0.452375
O O11 0.208130 0.044194 0.823100
O O12 0.000000 0.000000 0.196972
O O13 0.362160 0.637841 0.945931
O O14 0.232994 0.512214 0.000000
#
# Coordination Sequence:
#
# PCOD8318222 Si02
#       6
#    16   8  16  16   8  16
#     4  10  21  39  63  91 122 158 198 247 303 362
#     4  11  26  44  65  86 114 156 201 252 315 367
#     4   8  14  27  52  86 123 162 200 237 286 350
#     4  10  22  38  62  93 123 156 198 250 301 355
#     4  11  26  44  63  88 116 153 200 254 311 368
#     4   8  13  25  51  85 118 158 201 235 276 345
#
# _framework density 19.990994000000001
#
# number of rings (size 3 to 8) (size 9 to 14) (size 15 to 20)
#    0.000    2.600    1.000    1.800    4.200    2.400 
#    0.000    6.500    0.000    3.000    0.000    0.000 
#    0.000    0.000    0.000    0.000    0.000    0.000 
#
# Total GULP energy -991268.888434 kJ/mol
# GULP energy per Si atom -12390.861105 kJ/mol
# Density = 1.994549 g / cm^3
# Si number density = 19.990994 Si / 1000 Ang^3
#
#
#
# Elastic Constant Matrix: (Units=GPa)
#
#
# Indices 1 2 3 4 5 6 
#
# 1 71.1185 28.7271 59.7663 0.0000 0.0000 0.0000
# 2 28.7271 71.1185 59.7663 0.0000 0.0000 0.0000
# 3 59.7663 59.7663 172.3416 0.0000 0.0000 0.0000
# 4 0.0000 0.0000 0.0000 17.3311 0.0000 0.0000
# 5 0.0000 0.0000 0.0000 0.0000 17.3311 0.0000
# 6 0.0000 0.0000 0.0000 0.0000 0.0000 19.4261
#
#
#
# Elastic Compliance Matrix: (Units=1/GPa)
#
#
# Indices 1 2 3 4 5 6 
#
# 1 0.020358 -0.003232 -0.005939 0.000000 0.000000 0.000000
# 2 -0.003232 0.020358 -0.005939 0.000000 0.000000 0.000000
# 3 -0.005939 -0.005939 0.009922 0.000000 0.000000 0.000000
# 4 0.000000 0.000000 0.000000 0.057700 0.000000 0.000000
# 5 0.000000 0.000000 0.000000 0.000000 0.057700 0.000000
# 6 0.000000 0.000000 0.000000 0.000000 0.000000 0.051477
#
#
# Mechanical properties :
#
#
# Convention : Reuss Voigt Hill
#
# Bulk Modulus (GPa) = 48.97960 67.89979 58.43970
# Shear Modulus (GPa) = 19.64337 21.90558 20.77448
#
# Velocity S-wave (km/s) = 3.13806 3.31384 3.22715
# Velocity P-wave (km/s) = 6.13873 6.97717 6.57134
#
# Compressibility (1/GPa) = 0.02041666
#
# Stress axis : x y z
#
# Youngs Moduli (GPa) = 49.12183 49.12183 100.79079
#
# Poissons Ratio (x) = 0.15877 0.59859
# Poissons Ratio (y) = 0.15877 0.59859
# Poissons Ratio (z) = 0.29173 0.29173
#
# Static dielectric constant tensor:
#      x y z
#    x 3.431810 0.000000 0.000000 
#    y 0.000000 3.431810 0.000000 
#    z 0.000000 0.000000 4.165230 
# 
# 
# High freq. dielectric constant tensor:
#      x y z
#    x 1.759190 0.000000 0.000000 
#    y 0.000000 1.759190 0.000000 
#    z 0.000000 0.000000 1.791090 
# 
# From -- ./inp_files/9585.got.cif
#   From: 2010.03.12/outbox.cif.g09.slc.cpg/sg136_5_cif.got.tgz:9585.got - 2010.04.06 18:39:43.
