data_PCOD8318190
_publ_section_title
;
Structure prediction by ZEFSAII (Michael W. Deem and Ramdas Pophale) SiO2 
 PCOD8318190
Probable space group: P 42/M N M
;
_chemical_formula_sum "Si O2"
_cell_formula_units_Z 64
_cell_length_a 11.906259
_cell_length_b 11.906259
_cell_length_c 23.315343
_cell_angle_alpha 90.000000
_cell_angle_beta 90.000000
_cell_angle_gamma 90.000000
_cell_volume 3305.159787
_symmetry_space_group_name_H-M "P 42/M N M"
_symmetry_group_IT_number 136
_symmetry_cell_setting 'tetragonal'
loop_
_space_group_symop_operation_xyz
x,y,z
1/2-y,1/2+x,1/2+z
-x,-y,z
1/2+y,1/2-x,1/2+z
1/2+x,1/2-y,1/2-z
1/2-x,1/2+y,1/2-z
y,x,-z
-y,-x,-z
-x,-y,-z
1/2+y,1/2-x,1/2-z
x,y,-z
1/2-y,1/2+x,1/2-z
1/2-x,1/2+y,1/2+z
1/2+x,1/2-y,1/2+z
-y,-x,z
y,x,z
loop_
_atom_site_type_symbol
_atom_site_label
_atom_site_fract_x
_atom_site_fract_y
_atom_site_fract_z
Si Si1 0.682275 0.499406 0.753141
Si Si2 0.146314 0.330240 0.934048
Si Si3 0.741959 0.561267 0.628042
Si Si4 0.372707 0.021502 0.656036
O O1 0.612001 0.388000 0.768113
O O2 0.610271 0.610271 0.766636
O O3 0.716048 0.495710 0.686809
O O4 0.794004 0.504786 0.790401
O O5 0.251965 0.251965 0.920787
O O6 0.159459 0.442506 0.897073
O O7 0.031784 0.263597 0.920198
O O8 0.142481 0.366994 0.000000
O O9 0.637128 0.637128 0.608564
O O10 0.850022 0.641563 0.635998
O O11 0.500000 0.000000 0.676076
#
# Coordination Sequence:
#
# PCOD8318190 Si02
#       4
#    16  16  16  16
#     4  10  21  37  57  82 115 152 189 233 284 339
#     4  10  22  40  61  83 111 151 195 238 282 334
#     4  10  22  36  55  85 117 150 189 235 287 343
#     4  10  22  35  57  84 115 147 189 233 286 339
#
# _framework density 19.363662000000001
#
# number of rings (size 3 to 8) (size 9 to 14) (size 15 to 20)
#    0.000    2.000    0.000    2.250    7.000    6.500 
#    0.000    1.250    0.000    2.250    0.000    8.750 
#    0.000    0.000    0.000    0.000    0.000    0.000 
#
# Total GULP energy -793861.184398 kJ/mol
# GULP energy per Si atom -12404.081006 kJ/mol
# Density = 1.931959 g / cm^3
# Si number density = 19.363662 Si / 1000 Ang^3
#
#
#
# Elastic Constant Matrix: (Units=GPa)
#
#
# Indices 1 2 3 4 5 6 
#
# 1 82.7505 28.8433 34.2259 0.0000 0.0000 0.0000
# 2 28.8433 82.7505 34.2259 0.0000 0.0000 0.0000
# 3 34.2259 34.2259 47.8203 0.0000 0.0000 0.0000
# 4 0.0000 0.0000 0.0000 29.5629 0.0000 0.0000
# 5 0.0000 0.0000 0.0000 0.0000 29.5629 0.0000
# 6 0.0000 0.0000 0.0000 0.0000 0.0000 19.9229
#
#
#
# Elastic Compliance Matrix: (Units=1/GPa)
#
#
# Indices 1 2 3 4 5 6 
#
# 1 0.017262 -0.001288 -0.011433 0.000000 0.000000 0.000000
# 2 -0.001288 0.017262 -0.011433 0.000000 0.000000 0.000000
# 3 -0.011433 -0.011433 0.037277 0.000000 0.000000 0.000000
# 4 0.000000 0.000000 0.000000 0.033826 0.000000 0.000000
# 5 0.000000 0.000000 0.000000 0.000000 0.033826 0.000000
# 6 0.000000 0.000000 0.000000 0.000000 0.000000 0.050193
#
#
# Mechanical properties :
#
#
# Convention : Reuss Voigt Hill
#
# Bulk Modulus (GPa) = 42.56493 45.32353 43.94423
# Shear Modulus (GPa) = 20.34284 23.54483 21.94383
#
# Velocity S-wave (km/s) = 3.24476 3.49080 3.37003
# Velocity P-wave (km/s) = 6.00563 6.30118 6.15518
#
# Compressibility (1/GPa) = 0.02349352
#
# Stress axis : x y z
#
# Youngs Moduli (GPa) = 57.92997 57.92997 26.82604
#
# Poissons Ratio (x) = 0.07462 0.30670
# Poissons Ratio (y) = 0.07462 0.30670
# Poissons Ratio (z) = 0.66231 0.66231
#
# Static dielectric constant tensor:
#      x y z
#    x 3.674490 0.000000 0.000000 
#    y 0.000000 3.674490 0.000000 
#    z 0.000000 0.000000 3.333540 
# 
# 
# High freq. dielectric constant tensor:
#      x y z
#    x 1.761910 0.000000 0.000000 
#    y 0.000000 1.761910 0.000000 
#    z 0.000000 0.000000 1.742030 
# 
# From -- ./inp_files/7019.got.cif
#   From: 2010.03.12/outbox.cif.g09.slc.cpg/sg136_4_cif.got.tgz:7019.got - 2010.04.06 18:39:43.
