data_PCOD8318815
_publ_section_title
;
Structure prediction by ZEFSAII (Michael W. Deem and Ramdas Pophale) SiO2 
 PCOD8318815
Probable space group: P 42/N M C
;
_chemical_formula_sum "Si O2"
_cell_formula_units_Z 60
_cell_length_a 14.373373
_cell_length_b 14.373373
_cell_length_c 13.629340
_cell_angle_alpha 90.000000
_cell_angle_beta 90.000000
_cell_angle_gamma 90.000000
_cell_volume 2815.737843
_symmetry_space_group_name_H-M "P 42/N M C"
_symmetry_group_IT_number 137
_space_group.IT_coordinate_system_code '2'
_symmetry_cell_setting 'tetragonal'
loop_
_space_group_symop_operation_xyz
x,y,z
1/2-y,x,1/2+z
1/2-x,1/2-y,z
y,1/2-x,1/2+z
1/2+x,-y,-z
-x,1/2+y,-z
1/2+y,1/2+x,1/2-z
-y,-x,1/2-z
-x,-y,-z
1/2+y,-x,1/2-z
1/2+x,1/2+y,-z
-y,1/2+x,1/2-z
1/2-x,y,z
x,1/2-y,z
1/2-y,1/2-x,1/2+z
y,x,1/2+z
loop_
_atom_site_type_symbol
_atom_site_label
_atom_site_fract_x
_atom_site_fract_y
_atom_site_fract_z
Si Si1 0.978147 0.250000 0.000000
Si Si2 0.058770 0.250000 0.650335
Si Si3 0.105779 0.750000 0.789534
Si Si4 0.894221 0.250000 0.789534
Si Si5 0.409960 0.062794 1.000000
Si Si6 0.750000 0.941230 0.150335
Si Si7 0.750000 0.750000 0.250000
O O1 0.906982 0.250000 0.092737
O O2 0.050749 0.333770 0.000000
O O3 0.906982 0.250000 0.907263
O O4 0.039132 0.154553 0.592763
O O5 0.165266 0.250000 0.676701
O O6 0.997646 0.250000 0.747635
O O7 0.159313 0.659313 0.750000
O O8 0.002354 0.750000 0.747635
O O9 0.840687 0.340687 0.750000
O O10 0.345447 0.039132 0.907237
O O11 0.500000 0.000000 0.000000
O O12 0.750000 0.834734 0.176701
#
# Coordination Sequence:
#
# PCOD8318815 Si02
#       7
#     8   8   8   8  16   8   4
#     4  12  24  42  66  94 128 170 212 256 318 376
#     4  11  23  40  62  94 128 166 212 258 313 371
#     4  11  25  43  67  95 128 167 211 263 315 375
#     4  11  25  43  67  95 128 167 211 263 315 375
#     4  11  23  40  66  94 127 167 210 260 312 375
#     4  11  23  40  62  94 128 166 212 258 313 371
#     4  12  24  38  60  88 128 170 208 258 312 372
#
# _framework density 21.308802
#
# number of rings (size 3 to 8) (size 9 to 14) (size 15 to 20)
#    0.000    0.800    0.000    8.000    0.000    6.400 
#    0.000    5.333    0.000    0.000    0.000    0.000 
#    0.000    0.000    0.000    0.000    0.000    0.000 
#
# Total GULP energy -744001.054782 kJ/mol
# GULP energy per Si atom -12400.017580 kJ/mol
# Density = 2.126030 g / cm^3
# Si number density = 21.308802 Si / 1000 Ang^3
#
#
#
# Elastic Constant Matrix: (Units=GPa)
#
#
# Indices 1 2 3 4 5 6 
#
# 1 146.5547 64.5598 59.0864 0.0000 0.0000 0.0000
# 2 64.5598 146.5547 59.0864 0.0000 0.0000 0.0000
# 3 59.0864 59.0864 166.8565 0.0000 0.0000 0.0000
# 4 0.0000 0.0000 0.0000 314.1933 0.0000 0.0000
# 5 0.0000 0.0000 0.0000 0.0000 314.1933 0.0000
# 6 0.0000 0.0000 0.0000 0.0000 0.0000 46.7693
#
#
#
# Elastic Compliance Matrix: (Units=1/GPa)
#
#
# Indices 1 2 3 4 5 6 
#
# 1 0.009052 -0.003144 -0.002092 0.000000 0.000000 0.000000
# 2 -0.003144 0.009052 -0.002092 0.000000 0.000000 0.000000
# 3 -0.002092 -0.002092 0.007475 0.000000 0.000000 0.000000
# 4 0.000000 0.000000 0.000000 0.003183 0.000000 0.000000
# 5 0.000000 0.000000 0.000000 0.000000 0.003183 0.000000
# 6 0.000000 0.000000 0.000000 0.000000 0.000000 0.021382
#
#
# Mechanical properties :
#
#
# Convention : Reuss Voigt Hill
#
# Bulk Modulus (GPa) = 91.55618 91.71458 91.63538
# Shear Modulus (GPa) = 69.81039 153.51338 111.66189
#
# Velocity S-wave (km/s) = 5.72996 8.49698 7.24676
# Velocity P-wave (km/s) = 9.31859 11.80673 10.63568
#
# Compressibility (1/GPa) = 0.01092226
#
# Stress axis : x y z
#
# Youngs Moduli (GPa) = 110.47476 110.47476 133.78243
#
# Poissons Ratio (x) = 0.34734 0.27988
# Poissons Ratio (y) = 0.34734 0.27988
# Poissons Ratio (z) = 0.23112 0.23112
#
# Static dielectric constant tensor:
#      x y z
#    x 3.677180 0.000000 0.000000 
#    y 0.000000 3.677180 0.000000 
#    z 0.000000 0.000000 3.787670 
# 
# 
# High freq. dielectric constant tensor:
#      x y z
#    x 1.852020 0.000000 0.000000 
#    y 0.000000 1.852020 0.000000 
#    z 0.000000 0.000000 1.843720 
# 
# From -- ./inp_files/4807.got.cif
#   From: 2010.03.12/outbox.cif.g09.slc.cpg/sg137_3_cif.got.tgz:4807.got - 2010.04.08 09:34:49.
