data_PCOD8318613
_publ_section_title
;
Structure prediction by ZEFSAII (Michael W. Deem and Ramdas Pophale) SiO2 
 PCOD8318613
Probable space group: P 42/N M C
;
_chemical_formula_sum "Si O2"
_cell_formula_units_Z 64
_cell_length_a 15.000603
_cell_length_b 15.000603
_cell_length_c 14.882682
_cell_angle_alpha 90.000000
_cell_angle_beta 90.000000
_cell_angle_gamma 90.000000
_cell_volume 3348.872683
_symmetry_space_group_name_H-M "P 42/N M C"
_symmetry_group_IT_number 137
_space_group.IT_coordinate_system_code '2'
_symmetry_cell_setting 'tetragonal'
loop_
_space_group_symop_operation_xyz
x,y,z
1/2-y,x,1/2+z
1/2-x,1/2-y,z
y,1/2-x,1/2+z
1/2+x,-y,-z
-x,1/2+y,-z
1/2+y,1/2+x,1/2-z
-y,-x,1/2-z
-x,-y,-z
1/2+y,-x,1/2-z
1/2+x,1/2+y,-z
-y,1/2+x,1/2-z
1/2-x,y,z
x,1/2-y,z
1/2-y,1/2-x,1/2+z
y,x,1/2+z
loop_
_atom_site_type_symbol
_atom_site_label
_atom_site_fract_x
_atom_site_fract_y
_atom_site_fract_z
Si Si1 0.389501 0.848612 0.853433
Si Si2 0.149139 0.410600 0.588271
Si Si3 0.533549 0.851154 0.571299
Si Si4 0.645155 0.653173 0.227446
O O1 0.367000 0.867000 0.750000
O O2 0.350558 0.750000 0.879242
O O3 0.493833 0.846752 0.866428
O O4 0.351643 0.926106 0.919030
O O5 0.250000 0.383147 0.555223
O O6 0.074568 0.407650 0.510704
O O7 0.111227 0.350281 0.669722
O O8 0.565928 0.750000 0.556091
O O9 0.577341 0.893868 0.661393
O O10 0.750000 0.638151 0.232724
O O11 0.619555 0.750000 0.187590
#
# Coordination Sequence:
#
# PCOD8318613 Si02
#       4
#    16  16  16  16
#     4  11  22  38  57  79 111 152 197 241 281 329
#     4  10  20  35  55  81 114 149 187 235 290 346
#     4  11  21  34  54  82 113 149 189 233 290 343
#     4   9  17  30  49  76 111 147 182 222 275 343
#
# _framework density 19.110907999999998
#
# number of rings (size 3 to 8) (size 9 to 14) (size 15 to 20)
#    0.000    1.750    2.500    3.000    0.000    4.250 
#    0.000    0.000    0.000    0.000    0.000    0.000 
#    0.000    0.000    0.000    0.000    0.000    0.000 
#
# Total GULP energy -792871.439538 kJ/mol
# GULP energy per Si atom -12388.616243 kJ/mol
# Density = 1.906741 g / cm^3
# Si number density = 19.110908 Si / 1000 Ang^3
#
#
#
# Elastic Constant Matrix: (Units=GPa)
#
#
# Indices 1 2 3 4 5 6 
#
# 1 98.4885 18.5151 46.2811 0.0000 0.0000 0.0000
# 2 18.5151 98.4885 46.2811 0.0000 0.0000 0.0000
# 3 46.2811 46.2811 114.3267 0.0000 0.0000 0.0000
# 4 0.0000 0.0000 0.0000 25.6807 0.0000 0.0000
# 5 0.0000 0.0000 0.0000 0.0000 25.6807 0.0000
# 6 0.0000 0.0000 0.0000 0.0000 0.0000 17.2702
#
#
#
# Elastic Compliance Matrix: (Units=1/GPa)
#
#
# Indices 1 2 3 4 5 6 
#
# 1 0.012539 0.000035 -0.005090 0.000000 0.000000 0.000000
# 2 0.000035 0.012539 -0.005090 0.000000 0.000000 0.000000
# 3 -0.005090 -0.005090 0.012868 0.000000 0.000000 0.000000
# 4 0.000000 0.000000 0.000000 0.038940 0.000000 0.000000
# 5 0.000000 0.000000 0.000000 0.000000 0.038940 0.000000
# 6 0.000000 0.000000 0.000000 0.000000 0.000000 0.057903
#
#
# Mechanical properties :
#
#
# Convention : Reuss Voigt Hill
#
# Bulk Modulus (GPa) = 56.64117 59.27315 57.95716
# Shear Modulus (GPa) = 25.01209 27.07473 26.04341
#
# Velocity S-wave (km/s) = 3.62164 3.76801 3.69555
# Velocity P-wave (km/s) = 6.86956 7.07200 6.97152
#
# Compressibility (1/GPa) = 0.01765500
#
# Stress axis : x y z
#
# Youngs Moduli (GPa) = 79.75258 79.75258 77.71345
#
# Poissons Ratio (x) = -0.00276 0.39555
# Poissons Ratio (y) = -0.00276 0.39555
# Poissons Ratio (z) = 0.40593 0.40593
#
# Static dielectric constant tensor:
#      x y z
#    x 3.502290 0.000000 0.000000 
#    y 0.000000 3.502290 0.000000 
#    z 0.000000 0.000000 3.489020 
# 
# 
# High freq. dielectric constant tensor:
#      x y z
#    x 1.730550 0.000000 0.000000 
#    y 0.000000 1.730550 0.000000 
#    z 0.000000 0.000000 1.734940 
# 
# From -- ./inp_files/4705.got.cif
#   From: 2010.03.12/outbox.cif.g09.slc.cpg/sg137_3_cif.got.tgz:4705.got - 2010.04.08 09:34:49.
