data_PCOD8318611
_publ_section_title
;
Structure prediction by ZEFSAII (Michael W. Deem and Ramdas Pophale) SiO2 
 PCOD8318611
Probable space group: P 42/N M C
;
_chemical_formula_sum "Si O2"
_cell_formula_units_Z 64
_cell_length_a 14.140421
_cell_length_b 14.140421
_cell_length_c 17.176277
_cell_angle_alpha 90.000000
_cell_angle_beta 90.000000
_cell_angle_gamma 90.000000
_cell_volume 3434.422455
_symmetry_space_group_name_H-M "P 42/N M C"
_symmetry_group_IT_number 137
_space_group.IT_coordinate_system_code '2'
_symmetry_cell_setting 'tetragonal'
loop_
_space_group_symop_operation_xyz
x,y,z
1/2-y,x,1/2+z
1/2-x,1/2-y,z
y,1/2-x,1/2+z
1/2+x,-y,-z
-x,1/2+y,-z
1/2+y,1/2+x,1/2-z
-y,-x,1/2-z
-x,-y,-z
1/2+y,-x,1/2-z
1/2+x,1/2+y,-z
-y,1/2+x,1/2-z
1/2-x,y,z
x,1/2-y,z
1/2-y,1/2-x,1/2+z
y,x,1/2+z
loop_
_atom_site_type_symbol
_atom_site_label
_atom_site_fract_x
_atom_site_fract_y
_atom_site_fract_z
Si Si1 0.909797 0.358104 0.858597
Si Si2 0.536204 0.648575 0.275217
Si Si3 0.361803 0.960751 0.680370
Si Si4 0.860874 0.143539 0.471529
O O1 0.871384 0.250000 0.849277
O O2 0.841873 0.433885 0.817164
O O3 0.013442 0.368696 0.817065
O O4 0.914568 0.384182 0.949936
O O5 0.588191 0.750000 0.285910
O O6 0.599103 0.566542 0.311027
O O7 0.393850 0.893850 0.750000
O O8 0.250000 0.967653 0.680304
O O9 0.402856 0.915849 0.600771
O O10 0.750000 0.152964 0.458644
O O11 0.904524 0.250000 0.474724
#
# Coordination Sequence:
#
# PCOD8318611 Si02
#       4
#    16  16  16  16
#     4   9  17  33  56  81 111 138 173 224 275 322
#     4  10  20  35  54  82 113 144 180 219 274 339
#     4  11  22  38  56  77 107 145 189 232 273 321
#     4   9  18  32  54  84 111 139 179 228 277 320
#
# _framework density 18.634865999999999
#
# number of rings (size 3 to 8) (size 9 to 14) (size 15 to 20)
#    0.000    2.250    2.500    1.500    0.000    5.250 
#    0.000    5.000    0.000    0.000    0.000    7.000 
#    0.000    0.000    0.000    0.000    0.000    0.000 
#
# Total GULP energy -792905.764929 kJ/mol
# GULP energy per Si atom -12389.152577 kJ/mol
# Density = 1.859245 g / cm^3
# Si number density = 18.634866 Si / 1000 Ang^3
#
#
#
# Elastic Constant Matrix: (Units=GPa)
#
#
# Indices 1 2 3 4 5 6 
#
# 1 81.2545 38.6002 50.9466 0.0000 0.0000 0.0000
# 2 38.6002 81.2545 50.9466 0.0000 0.0000 0.0000
# 3 50.9466 50.9466 168.3483 0.0000 0.0000 0.0000
# 4 0.0000 0.0000 0.0000 22.3635 0.0000 0.0000
# 5 0.0000 0.0000 0.0000 0.0000 22.3635 0.0000
# 6 0.0000 0.0000 0.0000 0.0000 0.0000 23.5715
#
#
#
# Elastic Compliance Matrix: (Units=1/GPa)
#
#
# Indices 1 2 3 4 5 6 
#
# 1 0.017339 -0.006105 -0.003400 0.000000 0.000000 0.000000
# 2 -0.006105 0.017339 -0.003400 0.000000 0.000000 0.000000
# 3 -0.003400 -0.003400 0.007998 0.000000 0.000000 0.000000
# 4 0.000000 0.000000 0.000000 0.044716 0.000000 0.000000
# 5 0.000000 0.000000 0.000000 0.000000 0.044716 0.000000
# 6 0.000000 0.000000 0.000000 0.000000 0.000000 0.042424
#
#
# Mechanical properties :
#
#
# Convention : Reuss Voigt Hill
#
# Bulk Modulus (GPa) = 59.28918 67.98267 63.63592
# Shear Modulus (GPa) = 24.27632 26.35065 25.31348
#
# Velocity S-wave (km/s) = 3.61326 3.76447 3.68964
# Velocity P-wave (km/s) = 7.02089 7.44685 7.23700
#
# Compressibility (1/GPa) = 0.01686648
#
# Stress axis : x y z
#
# Youngs Moduli (GPa) = 57.67379 57.67379 125.03669
#
# Poissons Ratio (x) = 0.35212 0.42507
# Poissons Ratio (y) = 0.35212 0.42507
# Poissons Ratio (z) = 0.19607 0.19607
#
# Static dielectric constant tensor:
#      x y z
#    x 3.211860 0.000000 0.000000 
#    y 0.000000 3.211860 0.000000 
#    z 0.000000 0.000000 3.769950 
# 
# 
# High freq. dielectric constant tensor:
#      x y z
#    x 1.699850 0.000000 0.000000 
#    y 0.000000 1.699850 0.000000 
#    z 0.000000 0.000000 1.734770 
# 
# From -- ./inp_files/4702.got.cif
#   From: 2010.03.12/outbox.cif.g09.slc.cpg/sg137_3_cif.got.tgz:4702.got - 2010.04.08 09:34:49.
