data_PCOD8318007
_publ_section_title
;
Structure prediction by ZEFSAII (Michael W. Deem and Ramdas Pophale) SiO2 
 PCOD8318007
Probable space group: P 42/M N M
;
_chemical_formula_sum "Si O2"
_cell_formula_units_Z 72
_cell_length_a 20.469128
_cell_length_b 20.469128
_cell_length_c 8.559233
_cell_angle_alpha 90.000000
_cell_angle_beta 90.000000
_cell_angle_gamma 90.000000
_cell_volume 3586.191960
_symmetry_space_group_name_H-M "P 42/M N M"
_symmetry_group_IT_number 136
_symmetry_cell_setting 'tetragonal'
loop_
_space_group_symop_operation_xyz
x,y,z
1/2-y,1/2+x,1/2+z
-x,-y,z
1/2+y,1/2-x,1/2+z
1/2+x,1/2-y,1/2-z
1/2-x,1/2+y,1/2-z
y,x,-z
-y,-x,-z
-x,-y,-z
1/2+y,1/2-x,1/2-z
x,y,-z
1/2-y,1/2+x,1/2-z
1/2-x,1/2+y,1/2+z
1/2+x,1/2-y,1/2+z
-y,-x,z
y,x,z
loop_
_atom_site_type_symbol
_atom_site_label
_atom_site_fract_x
_atom_site_fract_y
_atom_site_fract_z
Si Si1 0.221333 0.404777 0.316321
Si Si2 0.339390 0.660611 0.686198
Si Si3 0.764179 0.235822 0.813388
Si Si4 0.051261 0.948740 0.814077
Si Si5 0.084053 0.452903 0.318889
Si Si6 0.182226 0.013101 0.814189
O O1 0.233339 0.402951 0.500000
O O2 0.248081 0.336597 0.247114
O O3 0.145256 0.408405 0.272029
O O4 0.255954 0.470969 0.251813
O O5 0.338058 0.661943 0.500000
O O6 0.287767 0.712234 0.750567
O O7 0.319977 0.587807 0.749094
O O8 0.761681 0.238320 0.000000
O O9 0.029266 0.878543 0.750575
O O10 0.051699 0.948302 0.000000
O O11 0.000000 0.000000 0.747539
O O12 0.085345 0.472303 0.500000
O O13 0.087586 0.519326 0.219721
O O14 0.180841 0.017337 0.000000
#
# Coordination Sequence:
#
# PCOD8318007 Si02
#       6
#    16   8   8   8  16  16
#     4   9  19  33  52  74 102 139 175 210 254 310
#     4  10  20  32  53  83 112 135 165 216 271 312
#     4  10  21  38  54  73 106 145 180 212 254 318
#     4   9  13  21  40  68 104 133 158 198 247 297
#     4  10  20  35  54  77 102 132 173 218 263 307
#     4   9  16  28  47  77 107 132 165 209 258 303
#
# _framework density 20.077007999999999
#
# number of rings (size 3 to 8) (size 9 to 14) (size 15 to 20)
#    0.000    2.556    1.111    2.000    3.111    2.667 
#    0.000    1.111    0.000    1.333    0.000    1.556 
#    0.000    0.000    0.000    0.000    0.000    0.000 
#
# Total GULP energy -892314.438625 kJ/mol
# GULP energy per Si atom -12393.256092 kJ/mol
# Density = 2.003131 g / cm^3
# Si number density = 20.077008 Si / 1000 Ang^3
#
#
#
# Elastic Constant Matrix: (Units=GPa)
#
#
# Indices 1 2 3 4 5 6 
#
# 1 144.1356 86.1458 13.3638 0.0000 0.0000 0.0000
# 2 86.1458 144.1355 13.3639 0.0000 0.0000 0.0000
# 3 13.3638 13.3639 14.2271 0.0000 0.0000 0.0000
# 4 0.0000 0.0000 0.0000 14.0391 0.0000 0.0000
# 5 0.0000 0.0000 0.0000 0.0000 14.0391 0.0000
# 6 0.0000 0.0000 0.0000 0.0000 0.0000 41.0558
#
#
#
# Elastic Compliance Matrix: (Units=1/GPa)
#
#
# Indices 1 2 3 4 5 6 
#
# 1 0.011059 -0.006185 -0.004578 0.000000 0.000000 0.000000
# 2 -0.006185 0.011059 -0.004578 0.000000 0.000000 0.000000
# 3 -0.004578 -0.004578 0.078889 0.000000 0.000000 0.000000
# 4 0.000000 0.000000 0.000000 0.071230 0.000000 0.000000
# 5 0.000000 0.000000 0.000000 0.000000 0.071230 0.000000
# 6 0.000000 0.000000 0.000000 0.000000 0.000000 0.024357
#
#
# Mechanical properties :
#
#
# Convention : Reuss Voigt Hill
#
# Bulk Modulus (GPa) = 14.21985 58.69392 36.45689
# Shear Modulus (GPa) = 15.53045 26.46845 20.99945
#
# Velocity S-wave (km/s) = 2.78428 3.63484 3.23762
# Velocity P-wave (km/s) = 4.17545 6.84938 5.67223
#
# Compressibility (1/GPa) = 0.07032421
#
# Stress axis : x y z
#
# Youngs Moduli (GPa) = 90.42293 90.42282 12.67603
#
# Poissons Ratio (x) = 0.55929 0.05803
# Poissons Ratio (y) = 0.55929 0.05803
# Poissons Ratio (z) = 0.41397 0.41397
#
# Static dielectric constant tensor:
#      x y z
#    x 3.858920 0.000000 0.000000 
#    y 0.000000 3.858900 0.000000 
#    z 0.000000 0.000000 3.064760 
# 
# 
# High freq. dielectric constant tensor:
#      x y z
#    x 1.796150 0.000000 0.000000 
#    y 0.000000 1.796150 0.000000 
#    z 0.000000 0.000000 1.717130 
# 
# From -- ./inp_files/1636.got.cif
#   From: 2010.03.12/outbox.cif.g09.slc.cpg/sg136_1_cif.got.tgz:1636.got - 2010.04.06 18:39:43.
