data_PCOD8318431
_publ_section_title
;
Structure prediction by ZEFSAII (Michael W. Deem and Ramdas Pophale) SiO2 
 PCOD8318431
Probable space group: P 42/N M C
;
_chemical_formula_sum "Si O2"
_cell_formula_units_Z 96
_cell_length_a 20.709732
_cell_length_b 20.709732
_cell_length_c 13.288036
_cell_angle_alpha 90.000000
_cell_angle_beta 90.000000
_cell_angle_gamma 90.000000
_cell_volume 5699.145618
_symmetry_space_group_name_H-M "P 42/N M C"
_symmetry_group_IT_number 137
_space_group.IT_coordinate_system_code '2'
_symmetry_cell_setting 'tetragonal'
loop_
_space_group_symop_operation_xyz
x,y,z
1/2-y,x,1/2+z
1/2-x,1/2-y,z
y,1/2-x,1/2+z
1/2+x,-y,-z
-x,1/2+y,-z
1/2+y,1/2+x,1/2-z
-y,-x,1/2-z
-x,-y,-z
1/2+y,-x,1/2-z
1/2+x,1/2+y,-z
-y,1/2+x,1/2-z
1/2-x,y,z
x,1/2-y,z
1/2-y,1/2-x,1/2+z
y,x,1/2+z
loop_
_atom_site_type_symbol
_atom_site_label
_atom_site_fract_x
_atom_site_fract_y
_atom_site_fract_z
Si Si1 0.353953 0.750000 0.728984
Si Si2 0.071988 0.750000 0.534788
Si Si3 0.540148 0.115712 0.526962
Si Si4 0.561385 0.750000 0.651010
Si Si5 0.060096 0.034189 0.199037
Si Si6 0.579641 0.889623 0.607363
Si Si7 0.485509 0.750000 0.850936
Si Si8 0.380453 0.497386 0.536471
O O1 0.314515 0.814515 0.750000
O O2 0.368758 0.750000 0.611154
O O3 0.417767 0.750000 0.794832
O O4 0.076980 0.815607 0.469457
O O5 0.004634 0.750000 0.591178
O O6 0.494789 0.114937 0.625710
O O7 0.495572 0.107995 0.426932
O O8 0.591520 0.056887 0.529372
O O9 0.601411 0.814277 0.618167
O O10 0.544508 0.750000 0.770635
O O11 0.090692 0.080317 0.282658
O O12 0.025419 0.974582 0.250000
O O13 0.009018 0.074012 0.133277
O O14 0.621777 0.930946 0.528319
O O15 0.488123 0.690459 0.926192
#
# Coordination Sequence:
#
# PCOD8318431 Si02
#       8
#     8   8  16   8  16  16   8  16
#     4  10  20  33  50  72 104 149 183 211 263 325
#     4   9  19  32  44  70 107 133 174 211 253 320
#     4  10  19  30  49  74 101 140 171 211 263 312
#     4   9  18  31  50  72 101 134 159 199 272 317
#     4  11  17  29  52  74 100 134 170 213 265 322
#     4  10  18  32  50  77 102 132 167 211 262 327
#     4  11  21  30  48  79 106 136 170 219 260 309
#     4  11  20  30  49  77 106 132 175 216 267 311
#
# _framework density 16.844629000000001
#
# number of rings (size 3 to 8) (size 9 to 14) (size 15 to 20)
#    0.000    1.750    5.000    2.000    0.000    0.667 
#    0.000    0.833    0.000    0.500    0.000    1.167 
#    0.000    0.000    0.000    0.000    0.000    0.000 
#
# Total GULP energy -1189985.947175 kJ/mol
# GULP energy per Si atom -12395.686950 kJ/mol
# Density = 1.680629 g / cm^3
# Si number density = 16.844629 Si / 1000 Ang^3
#
#
#
# Elastic Constant Matrix: (Units=GPa)
#
#
# Indices 1 2 3 4 5 6 
#
# 1 100.9479 41.5673 41.0923 0.0000 0.0000 0.0000
# 2 41.5673 100.9485 41.0924 0.0000 0.0000 0.0000
# 3 41.0923 41.0924 87.4945 0.0000 0.0000 0.0000
# 4 0.0000 0.0000 0.0000 20.3329 0.0000 0.0000
# 5 0.0000 0.0000 0.0000 0.0000 20.3336 0.0000
# 6 0.0000 0.0000 0.0000 0.0000 0.0000 8.2262
#
#
#
# Elastic Compliance Matrix: (Units=1/GPa)
#
#
# Indices 1 2 3 4 5 6 
#
# 1 0.013232 -0.003609 -0.004520 0.000000 0.000000 0.000000
# 2 -0.003609 0.013232 -0.004520 0.000000 0.000000 0.000000
# 3 -0.004520 -0.004520 0.015675 0.000000 0.000000 0.000000
# 4 0.000000 0.000000 0.000000 0.049181 0.000000 0.000000
# 5 0.000000 0.000000 0.000000 0.000000 0.049180 0.000000
# 6 0.000000 0.000000 0.000000 0.000000 0.000000 0.121562
#
#
# Mechanical properties :
#
#
# Convention : Reuss Voigt Hill
#
# Bulk Modulus (GPa) = 59.37345 59.65498 59.51422
# Shear Modulus (GPa) = 17.06652 20.82114 18.94383
#
# Velocity S-wave (km/s) = 3.18649 3.51959 3.35718
# Velocity P-wave (km/s) = 6.99017 7.21169 7.10179
#
# Compressibility (1/GPa) = 0.01684254
#
# Stress axis : x y z
#
# Youngs Moduli (GPa) = 75.57553 75.57605 63.79770
#
# Poissons Ratio (x) = 0.27273 0.28834
# Poissons Ratio (y) = 0.27273 0.28834
# Poissons Ratio (z) = 0.34157 0.34157
#
# Static dielectric constant tensor:
#      x y z
#    x 3.136910 0.000000 0.000000 
#    y 0.000000 3.136910 0.000000 
#    z 0.000000 0.000000 3.213380 
# 
# 
# High freq. dielectric constant tensor:
#      x y z
#    x 1.629490 0.000000 0.000000 
#    y 0.000000 1.629490 0.000000 
#    z 0.000000 0.000000 1.646650 
# 
# From -- ./inp_files/3823.got.cif
#   From: 2010.03.12/outbox.cif.g09.slc.cpg/sg137_2_cif.got.tgz:3823.got - 2010.04.08 09:34:49.
