data_PCOD8318588
_publ_section_title
;
Structure prediction by ZEFSAII (Michael W. Deem and Ramdas Pophale) SiO2 
 PCOD8318588
Probable space group: P 42/N M C
;
_chemical_formula_sum "Si O2"
_cell_formula_units_Z 104
_cell_length_a 20.130298
_cell_length_b 20.130298
_cell_length_c 15.575015
_cell_angle_alpha 90.000000
_cell_angle_beta 90.000000
_cell_angle_gamma 90.000000
_cell_volume 6311.446158
_symmetry_space_group_name_H-M "P 42/N M C"
_symmetry_group_IT_number 137
_space_group.IT_coordinate_system_code '2'
_symmetry_cell_setting 'tetragonal'
loop_
_space_group_symop_operation_xyz
x,y,z
1/2-y,x,1/2+z
1/2-x,1/2-y,z
y,1/2-x,1/2+z
1/2+x,-y,-z
-x,1/2+y,-z
1/2+y,1/2+x,1/2-z
-y,-x,1/2-z
-x,-y,-z
1/2+y,-x,1/2-z
1/2+x,1/2+y,-z
-y,1/2+x,1/2-z
1/2-x,y,z
x,1/2-y,z
1/2-y,1/2-x,1/2+z
y,x,1/2+z
loop_
_atom_site_type_symbol
_atom_site_label
_atom_site_fract_x
_atom_site_fract_y
_atom_site_fract_z
Si Si1 0.673453 0.326548 0.250000
Si Si2 0.583609 0.971362 0.072336
Si Si3 0.326983 0.595407 0.581701
Si Si4 0.929427 0.326289 0.517000
Si Si5 0.931552 0.172239 0.717973
Si Si6 0.086546 0.024099 0.584399
Si Si7 0.072538 0.038968 0.254457
O O1 0.750000 0.339288 0.226447
O O2 0.650137 0.370576 0.329696
O O3 0.589089 0.934745 0.164488
O O4 0.524737 0.024045 0.080120
O O5 0.568553 0.915060 0.001240
O O6 0.650435 0.009155 0.042819
O O7 0.250000 0.604335 0.564352
O O8 0.363761 0.631565 0.503593
O O9 0.345421 0.517832 0.586394
O O10 0.915557 0.250000 0.496518
O O11 0.943567 0.338935 0.616810
O O12 0.864585 0.135416 0.750000
O O13 0.925562 0.250000 0.741516
O O14 0.996678 0.140713 0.763294
O O15 0.083314 0.071176 0.668168
O O16 0.011906 0.988095 0.250000
#
# Coordination Sequence:
#
# PCOD8318588 Si02
#       7
#     8  16  16  16  16  16  16
#     4   9  18  32  44  58  90 132 168 196 225 274
#     4   9  17  30  48  70  91 119 157 204 251 287
#     4  10  21  31  44  68  97 130 161 194 237 286
#     4  10  20  34  51  69  95 131 170 203 231 280
#     4  10  21  35  50  70  98 133 168 203 238 281
#     4   9  17  29  46  68  91 118 157 200 249 291
#     4   9  17  30  50  69  92 123 157 204 252 291
#
# _framework density 16.477999000000001
#
# number of rings (size 3 to 8) (size 9 to 14) (size 15 to 20)
#    0.000    2.538    1.538    0.462   11.846    1.692 
#    0.000    1.538    0.000    0.000    0.000    0.000 
#    0.000    5.538    0.000    0.000    0.000    0.000 
#
# Total GULP energy -1289291.557742 kJ/mol
# GULP energy per Si atom -12397.034209 kJ/mol
# Density = 1.644049 g / cm^3
# Si number density = 16.477999 Si / 1000 Ang^3
#
#
#
# Elastic Constant Matrix: (Units=GPa)
#
#
# Indices 1 2 3 4 5 6 
#
# 1 48.0979 44.0789 27.6262 0.0000 0.0000 0.0000
# 2 44.0789 48.0981 27.6259 0.0000 0.0000 0.0000
# 3 27.6262 27.6259 93.9578 0.0000 0.0000 0.0000
# 4 0.0000 0.0000 0.0000 19.9495 0.0000 0.0000
# 5 0.0000 0.0000 0.0000 0.0000 19.9496 0.0000
# 6 0.0000 0.0000 0.0000 0.0000 0.0000 19.4095
#
#
#
# Elastic Compliance Matrix: (Units=1/GPa)
#
#
# Indices 1 2 3 4 5 6 
#
# 1 0.130991 -0.117821 -0.003873 0.000000 0.000000 0.000000
# 2 -0.117821 0.130990 -0.003872 0.000000 0.000000 0.000000
# 3 -0.003873 -0.003872 0.012920 0.000000 0.000000 0.000000
# 4 0.000000 0.000000 0.000000 0.050127 0.000000 0.000000
# 5 0.000000 0.000000 0.000000 0.000000 0.050126 0.000000
# 6 0.000000 0.000000 0.000000 0.000000 0.000000 0.051521
#
#
# Mechanical properties :
#
#
# Convention : Reuss Voigt Hill
#
# Bulk Modulus (GPa) = 42.06860 43.20177 42.63518
# Shear Modulus (GPa) = 7.29152 17.91659 12.60405
#
# Velocity S-wave (km/s) = 2.10585 3.30101 2.76869
# Velocity P-wave (km/s) = 5.61234 6.38777 6.01257
#
# Compressibility (1/GPa) = 0.02377070
#
# Stress axis : x y z
#
# Youngs Moduli (GPa) = 7.63412 7.63419 77.39837
#
# Poissons Ratio (x) = 0.89946 0.29976
# Poissons Ratio (y) = 0.89946 0.29966
# Poissons Ratio (z) = 0.02957 0.02956
#
# Static dielectric constant tensor:
#      x y z
#    x 2.891000 0.000000 0.000000 
#    y 0.000000 2.891010 0.000000 
#    z 0.000000 0.000000 3.403430 
# 
# 
# High freq. dielectric constant tensor:
#      x y z
#    x 1.601150 0.000000 0.000000 
#    y 0.000000 1.601150 0.000000 
#    z 0.000000 0.000000 1.652000 
# 
# From -- ./inp_files/5364.got.cif
#   From: 2010.03.12/outbox.cif.g09.slc.cpg/sg137_3_cif.got.tgz:5364.got - 2010.04.08 09:34:49.
