data_PCOD8318668
_publ_section_title
;
Structure prediction by ZEFSAII (Michael W. Deem and Ramdas Pophale) SiO2 
 PCOD8318668
Probable space group: P 42/N M C
;
_chemical_formula_sum "Si O2"
_cell_formula_units_Z 88
_cell_length_a 11.836575
_cell_length_b 11.836575
_cell_length_c 31.130829
_cell_angle_alpha 90.000000
_cell_angle_beta 90.000000
_cell_angle_gamma 90.000000
_cell_volume 4361.569472
_symmetry_space_group_name_H-M "P 42/N M C"
_symmetry_group_IT_number 137
_space_group.IT_coordinate_system_code '2'
_symmetry_cell_setting 'tetragonal'
loop_
_space_group_symop_operation_xyz
x,y,z
1/2-y,x,1/2+z
1/2-x,1/2-y,z
y,1/2-x,1/2+z
1/2+x,-y,-z
-x,1/2+y,-z
1/2+y,1/2+x,1/2-z
-y,-x,1/2-z
-x,-y,-z
1/2+y,-x,1/2-z
1/2+x,1/2+y,-z
-y,1/2+x,1/2-z
1/2-x,y,z
x,1/2-y,z
1/2-y,1/2-x,1/2+z
y,x,1/2+z
loop_
_atom_site_type_symbol
_atom_site_label
_atom_site_fract_x
_atom_site_fract_y
_atom_site_fract_z
Si Si1 0.542746 0.373523 0.037754
Si Si2 0.380704 0.250000 0.246203
Si Si3 0.382786 0.566558 0.052483
Si Si4 0.250000 0.616468 0.908083
Si Si5 0.997500 0.625594 0.139329
Si Si6 0.382995 0.006306 0.211710
Si Si7 0.556752 0.750000 0.658738
O O1 0.514143 0.250000 0.055445
O O2 0.425914 0.440936 0.041280
O O3 0.639327 0.430567 0.067353
O O4 0.590788 0.360174 0.989556
O O5 0.250000 0.250000 0.260271
O O6 0.409903 0.138773 0.218790
O O7 0.452902 0.250000 0.289830
O O8 0.250000 0.566167 0.063607
O O9 0.454498 0.616772 0.091490
O O10 0.250000 0.750000 0.907881
O O11 0.250000 0.570767 0.859572
O O12 0.029819 0.750000 0.157235
O O13 0.055324 0.528929 0.167992
O O14 0.861629 0.618433 0.140892
O O15 0.250000 0.984583 0.207573
O O16 0.430994 0.930994 0.250000
#
# Coordination Sequence:
#
# PCOD8318668 Si02
#       7
#    16   8  16   8  16  16   8
#     4  10  21  40  63  88 125 171 215 261 317 377
#     4  10  22  44  68  88 124 166 208 260 324 385
#     4  11  23  39  62  93 129 167 212 265 323 379
#     4  10  20  40  68  92 122 172 217 261 314 372
#     4  12  25  41  64  95 129 165 211 267 323 384
#     4  11  23  41  65  93 123 165 206 257 322 390
#     4  12  22  42  64  94 124 165 212 266 317 384
#
# _framework density 20.176224999999999
#
# number of rings (size 3 to 8) (size 9 to 14) (size 15 to 20)
#    0.000    1.091    4.545    2.455    0.000    3.455 
#    3.273    0.000    2.000    0.000    0.000    0.000 
#    0.000    0.000    0.000    0.000    0.000    0.000 
#
# Total GULP energy -1091162.813395 kJ/mol
# GULP energy per Si atom -12399.577425 kJ/mol
# Density = 2.013030 g / cm^3
# Si number density = 20.176225 Si / 1000 Ang^3
#
#
#
# Elastic Constant Matrix: (Units=GPa)
#
#
# Indices 1 2 3 4 5 6 
#
# 1 125.0375 45.8725 42.3847 0.0000 0.0000 0.0000
# 2 45.8725 125.0375 42.3847 0.0000 0.0000 0.0000
# 3 42.3847 42.3847 109.3178 0.0000 0.0000 0.0000
# 4 0.0000 0.0000 0.0000 28.6559 0.0000 0.0000
# 5 0.0000 0.0000 0.0000 0.0000 28.6559 0.0000
# 6 0.0000 0.0000 0.0000 0.0000 0.0000 20.8633
#
#
#
# Elastic Compliance Matrix: (Units=1/GPa)
#
#
# Indices 1 2 3 4 5 6 
#
# 1 0.009938 -0.002694 -0.002809 0.000000 0.000000 0.000000
# 2 -0.002694 0.009938 -0.002809 0.000000 0.000000 0.000000
# 3 -0.002809 -0.002809 0.011326 0.000000 0.000000 0.000000
# 4 0.000000 0.000000 0.000000 0.034897 0.000000 0.000000
# 5 0.000000 0.000000 0.000000 0.000000 0.034897 0.000000
# 6 0.000000 0.000000 0.000000 0.000000 0.000000 0.047931
#
#
# Mechanical properties :
#
#
# Convention : Reuss Voigt Hill
#
# Bulk Modulus (GPa) = 68.59143 68.96407 68.77775
# Shear Modulus (GPa) = 29.34128 30.88510 30.11319
#
# Velocity S-wave (km/s) = 3.81760 3.91675 3.86749
# Velocity P-wave (km/s) = 7.31451 7.39659 7.35567
#
# Compressibility (1/GPa) = 0.01457908
#
# Stress axis : x y z
#
# Youngs Moduli (GPa) = 100.62413 100.62413 88.29552
#
# Poissons Ratio (x) = 0.27107 0.24799
# Poissons Ratio (y) = 0.27107 0.24799
# Poissons Ratio (z) = 0.28262 0.28262
#
# Static dielectric constant tensor:
#      x y z
#    x 3.722840 0.000000 0.000000 
#    y 0.000000 3.722840 0.000000 
#    z 0.000000 0.000000 3.615820 
# 
# 
# High freq. dielectric constant tensor:
#      x y z
#    x 1.791300 0.000000 0.000000 
#    y 0.000000 1.791300 0.000000 
#    z 0.000000 0.000000 1.787720 
# 
# From -- ./inp_files/10502.got.cif
#   From: 2010.03.12/outbox.cif.g09.slc.cpg/sg137_6_cif.got.tgz:10502.got - 2010.04.08 09:34:49.
