data_PCOD8318178
_publ_section_title
;
Structure prediction by ZEFSAII (Michael W. Deem and Ramdas Pophale) SiO2 
 PCOD8318178
Probable space group: P 42/M N M
;
_chemical_formula_sum "Si O2"
_cell_formula_units_Z 104
_cell_length_a 15.066719
_cell_length_b 15.066719
_cell_length_c 24.504784
_cell_angle_alpha 90.000000
_cell_angle_beta 90.000000
_cell_angle_gamma 90.000000
_cell_volume 5562.733522
_symmetry_space_group_name_H-M "P 42/M N M"
_symmetry_group_IT_number 136
_symmetry_cell_setting 'tetragonal'
loop_
_space_group_symop_operation_xyz
x,y,z
1/2-y,1/2+x,1/2+z
-x,-y,z
1/2+y,1/2-x,1/2+z
1/2+x,1/2-y,1/2-z
1/2-x,1/2+y,1/2-z
y,x,-z
-y,-x,-z
-x,-y,-z
1/2+y,1/2-x,1/2-z
x,y,-z
1/2-y,1/2+x,1/2-z
1/2-x,1/2+y,1/2+z
1/2+x,1/2-y,1/2+z
-y,-x,z
y,x,z
loop_
_atom_site_type_symbol
_atom_site_label
_atom_site_fract_x
_atom_site_fract_y
_atom_site_fract_z
Si Si1 0.985842 0.740470 0.436574
Si Si2 0.196800 0.338406 0.439589
Si Si3 0.106447 0.251104 0.165373
Si Si4 0.674260 0.818282 0.061573
Si Si5 0.071532 0.071532 0.435051
Si Si6 0.592791 0.737689 0.669361
Si Si7 0.596794 0.894420 0.249214
O O1 0.003094 0.758185 0.500000
O O2 0.907425 0.670032 0.426837
O O3 0.959377 0.834468 0.409261
O O4 0.076654 0.699604 0.413129
O O5 0.211357 0.380124 0.500000
O O6 0.239819 0.239819 0.437699
O O7 0.242547 0.400342 0.395036
O O8 0.176366 0.176366 0.182539
O O9 0.112698 0.275498 0.101150
O O10 0.127898 0.340404 0.198484
O O11 0.009456 0.212374 0.179704
O O12 0.724343 0.724343 0.061445
O O13 0.671476 0.858469 0.000000
O O14 0.080239 0.080239 0.500000
O O15 0.000000 0.000000 0.416738
O O16 0.655908 0.655908 0.686876
O O17 0.619806 0.825983 0.702392
O O18 0.494603 0.884753 0.229680
#
# Coordination Sequence:
#
# PCOD8318178 Si02
#       7
#    16  16  16  16   8  16  16
#     4   9  15  25  41  65  98 137 176 213 255 304
#     4   9  17  30  47  72 106 139 172 213 261 309
#     4  10  21  37  57  79 105 139 178 221 265 308
#     4   9  18  31  47  71 105 142 177 214 260 313
#     4   9  14  20  36  62  94 136 183 219 247 295
#     4  10  21  36  57  81 105 138 177 219 267 314
#     4   9  19  36  58  84 110 134 167 211 260 319
#
# _framework density 18.695844000000001
#
# number of rings (size 3 to 8) (size 9 to 14) (size 15 to 20)
#    0.000    2.692    0.769    0.923    2.154    2.769 
#    0.000    0.000    0.000    2.769    0.000    4.308 
#    0.000    0.000    0.000    0.000    0.000    0.000 
#
# Total GULP energy -1289197.434716 kJ/mol
# GULP energy per Si atom -12396.129180 kJ/mol
# Density = 1.865329 g / cm^3
# Si number density = 18.695844 Si / 1000 Ang^3
#
#
#
# Elastic Constant Matrix: (Units=GPa)
#
#
# Indices 1 2 3 4 5 6 
#
# 1 92.8734 51.9163 35.5735 0.0000 0.0000 0.0000
# 2 51.9163 92.8734 35.5735 0.0000 0.0000 0.0000
# 3 35.5735 35.5735 73.5615 0.0000 0.0000 0.0000
# 4 0.0000 0.0000 0.0000 22.4448 0.0000 0.0000
# 5 0.0000 0.0000 0.0000 0.0000 22.4448 0.0000
# 6 0.0000 0.0000 0.0000 0.0000 0.0000 25.1675
#
#
#
# Elastic Compliance Matrix: (Units=1/GPa)
#
#
# Indices 1 2 3 4 5 6 
#
# 1 0.016738 -0.007678 -0.004381 0.000000 0.000000 0.000000
# 2 -0.007678 0.016738 -0.004381 0.000000 0.000000 0.000000
# 3 -0.004381 -0.004381 0.017831 0.000000 0.000000 0.000000
# 4 0.000000 0.000000 0.000000 0.044554 0.000000 0.000000
# 5 0.000000 0.000000 0.000000 0.000000 0.044554 0.000000
# 6 0.000000 0.000000 0.000000 0.000000 0.000000 0.039734
#
#
# Mechanical properties :
#
#
# Convention : Reuss Voigt Hill
#
# Bulk Modulus (GPa) = 54.27129 56.15944 55.21537
# Shear Modulus (GPa) = 22.81331 23.09439 22.95385
#
# Velocity S-wave (km/s) = 3.49698 3.51845 3.50773
# Velocity P-wave (km/s) = 6.73770 6.82713 6.78256
#
# Compressibility (1/GPa) = 0.01842595
#
# Stress axis : x y z
#
# Youngs Moduli (GPa) = 59.74588 59.74588 56.08127
#
# Poissons Ratio (x) = 0.45874 0.24569
# Poissons Ratio (y) = 0.45874 0.24569
# Poissons Ratio (z) = 0.26175 0.26175
#
# Static dielectric constant tensor:
#      x y z
#    x 3.338880 0.000000 0.000000 
#    y 0.000000 3.338880 0.000000 
#    z 0.000000 0.000000 3.201090 
# 
# 
# High freq. dielectric constant tensor:
#      x y z
#    x 1.719060 0.000000 0.000000 
#    y 0.000000 1.719060 0.000000 
#    z 0.000000 0.000000 1.698850 
# 
# From -- ./inp_files/8488.got.cif
#   From: 2010.03.12/outbox.cif.g09.slc.cpg/sg136_5_cif.got.tgz:8488.got - 2010.04.06 18:39:43.
