data_PCOD8318565
_publ_section_title
;
Structure prediction by ZEFSAII (Michael W. Deem and Ramdas Pophale) SiO2 
 PCOD8318565
Probable space group: P 42/N M C
;
_chemical_formula_sum "Si O2"
_cell_formula_units_Z 128
_cell_length_a 20.327222
_cell_length_b 20.327222
_cell_length_c 19.067117
_cell_angle_alpha 90.000000
_cell_angle_beta 90.000000
_cell_angle_gamma 90.000000
_cell_volume 7878.455603
_symmetry_space_group_name_H-M "P 42/N M C"
_symmetry_group_IT_number 137
_space_group.IT_coordinate_system_code '2'
_symmetry_cell_setting 'tetragonal'
loop_
_space_group_symop_operation_xyz
x,y,z
1/2-y,x,1/2+z
1/2-x,1/2-y,z
y,1/2-x,1/2+z
1/2+x,-y,-z
-x,1/2+y,-z
1/2+y,1/2+x,1/2-z
-y,-x,1/2-z
-x,-y,-z
1/2+y,-x,1/2-z
1/2+x,1/2+y,-z
-y,1/2+x,1/2-z
1/2-x,y,z
x,1/2-y,z
1/2-y,1/2-x,1/2+z
y,x,1/2+z
loop_
_atom_site_type_symbol
_atom_site_label
_atom_site_fract_x
_atom_site_fract_y
_atom_site_fract_z
Si Si1 0.375512 0.328127 0.559905
Si Si2 0.401205 0.512315 0.209864
Si Si3 0.675127 0.931031 0.539940
Si Si4 0.100892 0.503708 0.056256
Si Si5 0.173762 0.104425 0.700882
Si Si6 0.092670 0.983579 0.696305
Si Si7 0.585645 0.672858 0.196751
Si Si8 0.525655 0.082299 0.043019
O O1 0.362297 0.250000 0.564584
O O2 0.328624 0.361664 0.502009
O O3 0.449888 0.344273 0.534669
O O4 0.365670 0.363801 0.635023
O O5 0.421209 0.578792 0.250000
O O6 0.377237 0.532351 0.131928
O O7 0.463840 0.465674 0.200871
O O8 0.344632 0.476688 0.254646
O O9 0.750000 0.952721 0.546556
O O10 0.644449 0.923549 0.617985
O O11 0.640066 0.989956 0.499274
O O12 0.027072 0.474889 0.057636
O O13 0.092628 0.560657 0.997792
O O14 0.250000 0.115501 0.687058
O O15 0.158433 0.026696 0.711410
O O16 0.151961 0.141763 0.771330
O O17 0.103917 0.950688 0.620253
O O18 0.076278 0.923723 0.750000
O O19 0.595408 0.750000 0.194694
#
# Coordination Sequence:
#
# PCOD8318565 Si02
#       8
#    16  16  16  16  16  16  16  16
#     4  11  21  33  46  66  96 133 173 206 234 282
#     4   9  15  26  43  63  85 112 148 193 241 289
#     4  10  20  33  48  68  94 128 169 211 248 287
#     4   9  16  27  44  66  85 118 157 195 249 291
#     4  11  21  34  49  68  95 134 173 201 238 290
#     4   9  17  30  48  71  91 118 159 205 252 294
#     4  10  20  32  45  65  93 126 164 207 242 278
#     4   9  16  29  47  68  92 118 156 210 256 298
#
# _framework density 16.246838
#
# number of rings (size 3 to 8) (size 9 to 14) (size 15 to 20)
#    0.000    2.250    5.000    1.500    0.000    8.250 
#    0.000    1.250    0.000    0.000    0.000    0.000 
#    0.000    1.000    0.000    7.500    0.000    2.875 
#
# Total GULP energy -1585993.229879 kJ/mol
# GULP energy per Si atom -12390.572108 kJ/mol
# Density = 1.620986 g / cm^3
# Si number density = 16.246838 Si / 1000 Ang^3
#
#
#
# Elastic Constant Matrix: (Units=GPa)
#
#
# Indices 1 2 3 4 5 6 
#
# 1 40.6236 37.9481 31.7021 0.0000 0.0000 0.0000
# 2 37.9481 40.6236 31.7027 0.0000 0.0000 0.0000
# 3 31.7021 31.7027 137.4350 0.0000 0.0000 0.0000
# 4 0.0000 0.0000 0.0000 18.8050 0.0000 0.0000
# 5 0.0000 0.0000 0.0000 0.0000 18.8050 0.0000
# 6 0.0000 0.0000 0.0000 0.0000 0.0000 12.0548
#
#
#
# Elastic Compliance Matrix: (Units=1/GPa)
#
#
# Indices 1 2 3 4 5 6 
#
# 1 0.194697 -0.179059 -0.003606 0.000000 0.000000 0.000000
# 2 -0.179059 0.194698 -0.003608 0.000000 0.000000 0.000000
# 3 -0.003606 -0.003608 0.008940 0.000000 0.000000 0.000000
# 4 0.000000 0.000000 0.000000 0.053177 0.000000 0.000000
# 5 0.000000 0.000000 0.000000 0.000000 0.053177 0.000000
# 6 0.000000 0.000000 0.000000 0.000000 0.000000 0.082954
#
#
# Mechanical properties :
#
#
# Convention : Reuss Voigt Hill
#
# Bulk Modulus (GPa) = 38.77832 46.82088 42.79960
# Shear Modulus (GPa) = 5.16109 17.75492 11.45801
#
# Velocity S-wave (km/s) = 1.78426 3.30937 2.65853
# Velocity P-wave (km/s) = 5.30705 6.59421 5.98533
#
# Compressibility (1/GPa) = 0.02578760
#
# Stress axis : x y z
#
# Youngs Moduli (GPa) = 5.13619 5.13616 111.85220
#
# Poissons Ratio (x) = 0.91968 0.40338
# Poissons Ratio (y) = 0.91968 0.40359
# Poissons Ratio (z) = 0.01852 0.01853
#
# Static dielectric constant tensor:
#      x y z
#    x 2.836720 0.000000 0.000000 
#    y 0.000000 2.836720 0.000000 
#    z 0.000000 0.000000 3.600290 
# 
# 
# High freq. dielectric constant tensor:
#      x y z
#    x 1.584000 0.000000 0.000000 
#    y 0.000000 1.584000 0.000000 
#    z 0.000000 0.000000 1.647730 
# 
# From -- ./inp_files/6867.got.cif
#   From: 2010.03.12/outbox.cif.g09.slc.cpg/sg137_4_cif.got.tgz:6867.got - 2010.04.08 09:34:49.
