data_PCOD8318413
_publ_section_title
;
Structure prediction by ZEFSAII (Michael W. Deem and Ramdas Pophale) SiO2 
 PCOD8318413
Probable space group: P 42/N M C
;
_chemical_formula_sum "Si O2"
_cell_formula_units_Z 96
_cell_length_a 14.568417
_cell_length_b 14.568417
_cell_length_c 23.628719
_cell_angle_alpha 90.000000
_cell_angle_beta 90.000000
_cell_angle_gamma 90.000000
_cell_volume 5014.930349
_symmetry_space_group_name_H-M "P 42/N M C"
_symmetry_group_IT_number 137
_space_group.IT_coordinate_system_code '2'
_symmetry_cell_setting 'tetragonal'
loop_
_space_group_symop_operation_xyz
x,y,z
1/2-y,x,1/2+z
1/2-x,1/2-y,z
y,1/2-x,1/2+z
1/2+x,-y,-z
-x,1/2+y,-z
1/2+y,1/2+x,1/2-z
-y,-x,1/2-z
-x,-y,-z
1/2+y,-x,1/2-z
1/2+x,1/2+y,-z
-y,1/2+x,1/2-z
1/2-x,y,z
x,1/2-y,z
1/2-y,1/2-x,1/2+z
y,x,1/2+z
loop_
_atom_site_type_symbol
_atom_site_label
_atom_site_fract_x
_atom_site_fract_y
_atom_site_fract_z
Si Si1 0.640755 0.944928 0.488620
Si Si2 0.142415 0.555457 0.620732
Si Si3 0.444246 0.647643 0.094396
Si Si4 0.750000 0.947467 0.853163
Si Si5 0.997183 0.945045 0.311782
Si Si6 0.750000 0.143124 0.072284
Si Si7 0.397680 0.750000 0.445776
Si Si8 0.853930 0.750000 0.457312
O O1 0.750000 0.947076 0.489838
O O2 0.599932 0.842071 0.483534
O O3 0.607518 0.000391 0.433939
O O4 0.602769 0.993354 0.544945
O O5 0.250000 0.540602 0.633629
O O6 0.119521 0.662293 0.610921
O O7 0.084197 0.515904 0.673242
O O8 0.478136 0.750000 0.110372
O O9 0.456761 0.584763 0.148531
O O10 0.340095 0.657565 0.072884
O O11 0.750000 0.851201 0.887442
O O12 0.660329 0.961624 0.814797
O O13 0.750000 0.007229 0.911586
O O14 0.032875 0.967126 0.250000
O O15 0.750000 0.250000 0.054414
O O16 0.750000 0.086574 0.013564
O O17 0.750000 0.750000 0.477889
#
# Coordination Sequence:
#
# PCOD8318413 Si02
#       8
#    16  16  16   8  16   8   8   8
#     4   9  17  30  55  88 115 148 178 228 289 347
#     4  10  20  37  61  89 119 147 189 232 288 347
#     4  10  20  35  57  83 119 153 184 229 286 347
#     4  10  22  36  56  84 110 146 199 239 280 329
#     4  11  25  41  58  81 110 154 202 245 278 328
#     4  10  18  32  60  92 124 148 171 220 293 362
#     4  10  18  30  54  90 122 148 175 219 286 359
#     4  10  18  32  56  86 116 146 184 232 287 346
#
# _framework density 19.142837
#
# number of rings (size 3 to 8) (size 9 to 14) (size 15 to 20)
#    0.000    2.000    3.333    0.750    1.167    2.000 
#    1.500    0.000    0.000    0.000    0.000    0.000 
#    0.000    0.000    0.000    0.000    0.000    0.000 
#
# Total GULP energy -1190107.567658 kJ/mol
# GULP energy per Si atom -12396.953830 kJ/mol
# Density = 1.909927 g / cm^3
# Si number density = 19.142837 Si / 1000 Ang^3
#
#
#
# Elastic Constant Matrix: (Units=GPa)
#
#
# Indices 1 2 3 4 5 6 
#
# 1 107.3123 39.2150 50.9889 0.0000 0.0000 0.0000
# 2 39.2150 107.3121 50.9890 0.0000 0.0000 0.0000
# 3 50.9889 50.9890 121.1578 0.0000 0.0000 0.0000
# 4 0.0000 0.0000 0.0000 26.8960 0.0000 0.0000
# 5 0.0000 0.0000 0.0000 0.0000 26.8961 0.0000
# 6 0.0000 0.0000 0.0000 0.0000 0.0000 18.0562
#
#
#
# Elastic Compliance Matrix: (Units=1/GPa)
#
#
# Indices 1 2 3 4 5 6 
#
# 1 0.012168 -0.002517 -0.004062 0.000000 0.000000 0.000000
# 2 -0.002517 0.012168 -0.004062 0.000000 0.000000 0.000000
# 3 -0.004062 -0.004062 0.011673 0.000000 0.000000 0.000000
# 4 0.000000 0.000000 0.000000 0.037180 0.000000 0.000000
# 5 0.000000 0.000000 0.000000 0.000000 0.037180 0.000000
# 6 0.000000 0.000000 0.000000 0.000000 0.000000 0.055383
#
#
# Mechanical properties :
#
#
# Convention : Reuss Voigt Hill
#
# Bulk Modulus (GPa) = 67.89642 68.68532 68.29087
# Shear Modulus (GPa) = 26.04952 27.34228 26.69590
#
# Velocity S-wave (km/s) = 3.69290 3.78342 3.73844
# Velocity P-wave (km/s) = 7.32998 7.41917 7.37471
#
# Compressibility (1/GPa) = 0.01472832
#
# Stress axis : x y z
#
# Youngs Moduli (GPa) = 82.18139 82.18110 85.67121
#
# Poissons Ratio (x) = 0.20682 0.34798
# Poissons Ratio (y) = 0.20682 0.34798
# Poissons Ratio (z) = 0.33381 0.33381
#
# Static dielectric constant tensor:
#      x y z
#    x 3.646560 0.000000 0.000000 
#    y 0.000000 3.646560 0.000000 
#    z 0.000000 0.000000 3.181210 
# 
# 
# High freq. dielectric constant tensor:
#      x y z
#    x 1.751580 0.000000 0.000000 
#    y 0.000000 1.751580 0.000000 
#    z 0.000000 0.000000 1.707880 
# 
# From -- ./inp_files/8916.got.cif
#   From: 2010.03.12/outbox.cif.g09.slc.cpg/sg137_5_cif.got.tgz:8916.got - 2010.04.08 09:34:49.
