data_PCOD8318928
_publ_section_title
;
Structure prediction by ZEFSAII (Michael W. Deem and Ramdas Pophale) SiO2 
 PCOD8318928
Probable space group: P 42/N C M
;
_chemical_formula_sum "Si O2"
_cell_formula_units_Z 112
_cell_length_a 15.198060
_cell_length_b 15.198060
_cell_length_c 27.032546
_cell_angle_alpha 90.000000
_cell_angle_beta 90.000000
_cell_angle_gamma 90.000000
_cell_volume 6244.005258
_symmetry_space_group_name_H-M "P 42/N C M"
_symmetry_group_IT_number 138
_space_group.IT_coordinate_system_code '2'
_symmetry_cell_setting 'tetragonal'
loop_
_space_group_symop_operation_xyz
x,y,z
1/2-y,x,1/2+z
1/2-x,1/2-y,z
y,1/2-x,1/2+z
1/2+x,-y,1/2-z
-x,1/2+y,1/2-z
1/2+y,1/2+x,-z
-y,-x,-z
-x,-y,-z
1/2+y,-x,1/2-z
1/2+x,1/2+y,-z
-y,1/2+x,1/2-z
1/2-x,y,1/2+z
x,1/2-y,1/2+z
1/2-y,1/2-x,z
y,x,z
loop_
_atom_site_type_symbol
_atom_site_label
_atom_site_fract_x
_atom_site_fract_y
_atom_site_fract_z
Si Si1 0.251121 0.391480 0.229100
Si Si2 0.228674 0.558385 0.786874
Si Si3 0.247521 0.105602 0.037299
Si Si4 0.909503 0.051254 0.630492
Si Si5 0.511570 0.364317 0.473777
Si Si6 0.271024 0.999383 0.131548
Si Si7 0.698121 0.158581 0.314709
O O1 0.176798 0.323203 0.244670
O O2 0.343487 0.343487 0.219011
O O3 0.262123 0.455545 0.275973
O O4 0.222859 0.442377 0.180405
O O5 0.144089 0.577626 0.820815
O O6 0.316003 0.594361 0.814848
O O7 0.221932 0.614004 0.736971
O O8 0.327083 0.172918 0.046858
O O9 0.160218 0.160218 0.020354
O O10 0.225606 0.055606 0.088368
O O11 0.275711 0.031059 0.997243
O O12 0.845205 0.032352 0.583915
O O13 0.974827 0.130191 0.615452
O O14 0.965261 0.965261 0.643302
O O15 0.602170 0.397831 0.500000
O O16 0.442000 0.442000 0.478124
O O17 0.215963 0.909794 0.140979
O O18 0.750000 0.250000 0.322331
#
# Coordination Sequence:
#
# PCOD8318928 Si02
#       7
#    16  16  16  16  16  16  16
#     4  10  21  35  49  72 109 146 177 218 274 330
#     4  11  19  34  53  73 102 143 184 220 266 314
#     4  10  19  33  54  82 115 146 175 220 285 341
#     4  11  20  30  51  81 105 133 181 226 268 321
#     4   9  17  31  49  74 107 137 174 223 272 323
#     4  11  20  30  53  79 107 140 177 223 278 330
#     4  11  19  34  52  76 105 141 176 226 271 306
#
# _framework density 17.937204000000001
#
# number of rings (size 3 to 8) (size 9 to 14) (size 15 to 20)
#    0.000    1.571    4.286    3.000    0.000    1.143 
#    0.000    4.286    0.000    3.429    0.000    1.000 
#    0.000    0.000    0.000    0.000    0.000    0.000 
#
# Total GULP energy -1388398.556477 kJ/mol
# GULP energy per Si atom -12396.415683 kJ/mol
# Density = 1.789638 g / cm^3
# Si number density = 17.937204 Si / 1000 Ang^3
#
#
#
# Elastic Constant Matrix: (Units=GPa)
#
#
# Indices 1 2 3 4 5 6 
#
# 1 88.8094 42.0873 32.5503 0.0000 0.0000 0.0000
# 2 42.0873 88.8097 32.5504 0.0000 0.0000 0.0000
# 3 32.5503 32.5504 57.2873 0.0000 0.0000 0.0000
# 4 0.0000 0.0000 0.0000 24.0632 0.0000 0.0000
# 5 0.0000 0.0000 0.0000 0.0000 24.0631 0.0000
# 6 0.0000 0.0000 0.0000 0.0000 0.0000 31.2567
#
#
#
# Elastic Compliance Matrix: (Units=1/GPa)
#
#
# Indices 1 2 3 4 5 6 
#
# 1 0.016026 -0.005377 -0.006051 0.000000 0.000000 0.000000
# 2 -0.005377 0.016026 -0.006051 0.000000 0.000000 0.000000
# 3 -0.006051 -0.006051 0.024332 0.000000 0.000000 0.000000
# 4 0.000000 0.000000 0.000000 0.041557 0.000000 0.000000
# 5 0.000000 0.000000 0.000000 0.000000 0.041557 0.000000
# 6 0.000000 0.000000 0.000000 0.000000 0.000000 0.031993
#
#
# Mechanical properties :
#
#
# Convention : Reuss Voigt Hill
#
# Bulk Modulus (GPa) = 46.67017 49.92025 48.29521
# Shear Modulus (GPa) = 23.40929 24.39116 23.90022
#
# Velocity S-wave (km/s) = 3.61649 3.69156 3.65422
# Velocity P-wave (km/s) = 6.59650 6.78683 6.69234
#
# Compressibility (1/GPa) = 0.02142696
#
# Stress axis : x y z
#
# Youngs Moduli (GPa) = 62.39869 62.39883 41.09858
#
# Poissons Ratio (x) = 0.33553 0.24867
# Poissons Ratio (y) = 0.33553 0.24867
# Poissons Ratio (z) = 0.37755 0.37755
#
# Static dielectric constant tensor:
#      x y z
#    x 3.427040 0.000000 0.000000 
#    y 0.000000 3.427040 0.000000 
#    z 0.000000 0.000000 3.247320 
# 
# 
# High freq. dielectric constant tensor:
#      x y z
#    x 1.684720 0.000000 0.000000 
#    y 0.000000 1.684720 0.000000 
#    z 0.000000 0.000000 1.679980 
# 
# From -- ./inp_files/8235.got.cif
#   From: 2010.03.12/outbox.cif.g09.slc.cpg/sg138_5_cif.got.tgz:8235.got - 2010.04.08 09:41:05.
