data_PCOD8318981
_publ_section_title
;
Structure prediction by ZEFSAII (Michael W. Deem and Ramdas Pophale) SiO2 
 PCOD8318981
Probable space group: P 42/N C M
;
_chemical_formula_sum "Si O2"
_cell_formula_units_Z 128
_cell_length_a 18.412123
_cell_length_b 18.412123
_cell_length_c 20.003594
_cell_angle_alpha 90.000000
_cell_angle_beta 90.000000
_cell_angle_gamma 90.000000
_cell_volume 6781.343856
_symmetry_space_group_name_H-M "P 42/N C M"
_symmetry_group_IT_number 138
_space_group.IT_coordinate_system_code '2'
_symmetry_cell_setting 'tetragonal'
loop_
_space_group_symop_operation_xyz
x,y,z
1/2-y,x,1/2+z
1/2-x,1/2-y,z
y,1/2-x,1/2+z
1/2+x,-y,1/2-z
-x,1/2+y,1/2-z
1/2+y,1/2+x,-z
-y,-x,-z
-x,-y,-z
1/2+y,-x,1/2-z
1/2+x,1/2+y,-z
-y,1/2+x,1/2-z
1/2-x,y,1/2+z
x,1/2-y,1/2+z
1/2-y,1/2-x,z
y,x,z
loop_
_atom_site_type_symbol
_atom_site_label
_atom_site_fract_x
_atom_site_fract_y
_atom_site_fract_z
Si Si1 0.599241 0.477388 0.944789
Si Si2 0.789813 0.588636 0.490256
Si Si3 0.533920 0.088136 0.322545
Si Si4 0.975584 0.097137 0.298312
Si Si5 0.578477 0.043790 0.927986
Si Si6 0.814047 0.569694 0.879153
Si Si7 0.696800 0.577753 0.138230
Si Si8 0.416073 0.204930 0.742659
O O1 0.538798 0.538798 0.949585
O O2 0.676194 0.514990 0.958811
O O3 0.597346 0.437543 0.873230
O O4 0.583899 0.416102 0.000000
O O5 0.844157 0.655844 0.486391
O O6 0.720397 0.606746 0.445020
O O7 0.763262 0.573358 0.566316
O O8 0.569053 0.090043 0.248874
O O9 0.502100 0.167656 0.339922
O O10 0.469193 0.030808 0.326131
O O11 0.945735 0.104732 0.373802
O O12 0.008562 0.171239 0.269461
O O13 0.039453 0.039453 0.296966
O O14 0.520440 0.979561 0.933070
O O15 0.653973 0.008559 0.901821
O O16 0.584066 0.084066 0.000000
O O17 0.878335 0.621666 0.852200
O O18 0.754008 0.564186 0.820936
O O19 0.627668 0.627668 0.126684
O O20 0.747685 0.612946 0.194965
O O21 0.355047 0.144954 0.722836
#
# Coordination Sequence:
#
# PCOD8318981 Si02
#       8
#    16  16  16  16  16  16  16  16
#     4   9  14  25  45  69  99 134 166 214 276 316
#     4  10  20  32  48  76 109 143 182 217 257 317
#     4   9  15  27  48  71  96 127 164 214 274 318
#     4   9  18  32  52  75  98 129 172 225 277 314
#     4   9  19  36  57  77  99 135 182 231 281 318
#     4  11  23  37  54  75 108 151 186 219 256 316
#     4  10  20  32  48  71 102 140 179 216 255 311
#     4  11  23  36  51  73 106 145 182 221 263 315
#
# _framework density 18.875315000000001
#
# number of rings (size 3 to 8) (size 9 to 14) (size 15 to 20)
#    0.000    2.250    1.250    2.250    1.750    6.250 
#    0.000    1.250    0.000    0.000    0.000    0.000 
#    0.000   23.500    0.000    0.000    0.000    0.000 
#
# Total GULP energy -1586382.299952 kJ/mol
# GULP energy per Si atom -12393.611718 kJ/mol
# Density = 1.883235 g / cm^3
# Si number density = 18.875315 Si / 1000 Ang^3
#
#
#
# Elastic Constant Matrix: (Units=GPa)
#
#
# Indices 1 2 3 4 5 6 
#
# 1 41.7988 34.7133 38.0605 0.0000 0.0000 0.0000
# 2 34.7133 41.7990 38.0605 0.0000 0.0000 0.0000
# 3 38.0605 38.0605 164.5156 0.0000 0.0000 0.0000
# 4 0.0000 0.0000 0.0000 27.0558 0.0000 0.0000
# 5 0.0000 0.0000 0.0000 0.0000 27.0558 0.0000
# 6 0.0000 0.0000 0.0000 0.0000 0.0000 19.5325
#
#
#
# Elastic Compliance Matrix: (Units=1/GPa)
#
#
# Indices 1 2 3 4 5 6 
#
# 1 0.079055 -0.062077 -0.003928 0.000000 0.000000 0.000000
# 2 -0.062077 0.079055 -0.003928 0.000000 0.000000 0.000000
# 3 -0.003928 -0.003928 0.007896 0.000000 0.000000 0.000000
# 4 0.000000 0.000000 0.000000 0.036961 0.000000 0.000000
# 5 0.000000 0.000000 0.000000 0.000000 0.036961 0.000000
# 6 0.000000 0.000000 0.000000 0.000000 0.000000 0.051197
#
#
# Mechanical properties :
#
#
# Convention : Reuss Voigt Hill
#
# Bulk Modulus (GPa) = 38.25580 52.19801 45.22691
# Shear Modulus (GPa) = 11.37132 23.88075 17.62604
#
# Velocity S-wave (km/s) = 2.45714 3.56080 3.05915
# Velocity P-wave (km/s) = 5.32557 6.67981 6.04076
#
# Compressibility (1/GPa) = 0.02613983
#
# Stress axis : x y z
#
# Youngs Moduli (GPa) = 12.64940 12.64948 126.64965
#
# Poissons Ratio (x) = 0.78525 0.49745
# Poissons Ratio (y) = 0.78524 0.49744
# Poissons Ratio (z) = 0.04968 0.04968
#
# Static dielectric constant tensor:
#      x y z
#    x 3.231330 0.000000 0.000000 
#    y 0.000000 3.231330 0.000000 
#    z 0.000000 0.000000 3.803150 
# 
# 
# High freq. dielectric constant tensor:
#      x y z
#    x 1.693320 0.000000 0.000000 
#    y 0.000000 1.693320 0.000000 
#    z 0.000000 0.000000 1.759700 
# 
# From -- ./inp_files/5488.got.cif
#   From: 2010.03.12/outbox.cif.g09.slc.cpg/sg138_3_cif.got.tgz:5488.got - 2010.04.08 09:41:05.
