data_PCOD8318680
_publ_section_title
;
Structure prediction by ZEFSAII (Michael W. Deem and Ramdas Pophale) SiO2 
 PCOD8318680
Probable space group: P 42/N M C
;
_chemical_formula_sum "Si O2"
_cell_formula_units_Z 96
_cell_length_a 24.906262
_cell_length_b 24.906262
_cell_length_c 8.900965
_cell_angle_alpha 90.000000
_cell_angle_beta 90.000000
_cell_angle_gamma 90.000000
_cell_volume 5521.463403
_symmetry_space_group_name_H-M "P 42/N M C"
_symmetry_group_IT_number 137
_space_group.IT_coordinate_system_code '2'
_symmetry_cell_setting 'tetragonal'
loop_
_space_group_symop_operation_xyz
x,y,z
1/2-y,x,1/2+z
1/2-x,1/2-y,z
y,1/2-x,1/2+z
1/2+x,-y,-z
-x,1/2+y,-z
1/2+y,1/2+x,1/2-z
-y,-x,1/2-z
-x,-y,-z
1/2+y,-x,1/2-z
1/2+x,1/2+y,-z
-y,1/2+x,1/2-z
1/2-x,y,z
x,1/2-y,z
1/2-y,1/2-x,1/2+z
y,x,1/2+z
loop_
_atom_site_type_symbol
_atom_site_label
_atom_site_fract_x
_atom_site_fract_y
_atom_site_fract_z
Si Si1 0.808978 0.348186 0.106358
Si Si2 0.690378 0.468065 0.099314
Si Si3 0.979663 0.189121 0.047397
Si Si4 0.808577 0.373502 0.642071
Si Si5 0.001473 0.916000 0.438801
Si Si6 0.007291 0.416858 0.913447
O O1 0.847593 0.347593 0.250000
O O2 0.750000 0.332453 0.162513
O O3 0.810672 0.407687 0.036870
O O4 0.827114 0.305548 0.982524
O O5 0.750000 0.493073 0.065703
O O6 0.680357 0.467165 0.278054
O O7 0.643573 0.498150 0.009945
O O8 0.002257 0.250000 0.021091
O O9 0.928422 0.179206 0.941868
O O10 0.018221 0.141230 0.991431
O O11 0.858400 0.358400 0.750000
O O12 0.750000 0.374811 0.723646
O O13 0.986553 0.911026 0.264717
O O14 0.954987 0.946024 0.528117
O O15 0.057335 0.949174 0.458211
#
# Coordination Sequence:
#
# PCOD8318680 Si02
#       6
#    16  16  16  16  16  16
#     4  11  21  33  48  65  87 123 169 215 261 304
#     4  10  21  36  53  74 100 133 169 209 259 314
#     4  10  21  36  53  73 101 134 168 209 259 314
#     4  11  23  35  46  63  89 125 167 216 266 305
#     4  10  21  35  55  80 105 135 171 217 262 312
#     4  10  21  35  54  80 105 135 173 214 265 309
#
# _framework density 17.386695
#
# number of rings (size 3 to 8) (size 9 to 14) (size 15 to 20)
#    0.000    1.667    1.667    3.000    4.667    4.000 
#    0.000    0.000    0.000    0.000    0.000    0.000 
#    0.000    0.667    0.000    7.000    0.000    3.000 
#
# Total GULP energy -1189568.545103 kJ/mol
# GULP energy per Si atom -12391.339011 kJ/mol
# Density = 1.734712 g / cm^3
# Si number density = 17.386695 Si / 1000 Ang^3
#
#
#
# Elastic Constant Matrix: (Units=GPa)
#
#
# Indices 1 2 3 4 5 6 
#
# 1 84.0556 33.2210 29.0169 0.0000 0.0000 0.0000
# 2 33.2210 84.0556 29.0169 0.0000 0.0000 0.0000
# 3 29.0169 29.0169 69.8268 0.0000 0.0000 0.0000
# 4 0.0000 0.0000 0.0000 -61.5068 0.0000 0.0000
# 5 0.0000 0.0000 0.0000 0.0000 -61.5068 0.0000
# 6 0.0000 0.0000 0.0000 0.0000 0.0000 21.5997
#
#
#
# Elastic Compliance Matrix: (Units=1/GPa)
#
#
# Indices 1 2 3 4 5 6 
#
# 1 0.015203 -0.004469 -0.004461 0.000000 0.000000 0.000000
# 2 -0.004469 0.015203 -0.004461 0.000000 0.000000 0.000000
# 3 -0.004461 -0.004461 0.018028 0.000000 0.000000 0.000000
# 4 0.000000 0.000000 0.000000 -0.016258 0.000000 0.000000
# 5 0.000000 0.000000 0.000000 0.000000 -0.016258 0.000000
# 6 0.000000 0.000000 0.000000 0.000000 0.000000 0.046297
#
#
# Mechanical properties :
#
#
# Convention : Reuss Voigt Hill
#
# Bulk Modulus (GPa) = 46.18039 46.71641 46.44840
# Shear Modulus (GPa) = 51.96818 -10.50393 20.73212
#
# Velocity S-wave (km/s) = 5.47307 -2.46058 3.45688
# Velocity P-wave (km/s) = 8.15829 4.34221 6.53500
#
# Compressibility (1/GPa) = 0.02165421
#
# Stress axis : x y z
#
# Youngs Moduli (GPa) = 65.77680 65.77680 55.46790
#
# Poissons Ratio (x) = 0.29394 0.24742
# Poissons Ratio (y) = 0.29394 0.24742
# Poissons Ratio (z) = 0.29341 0.29341
#
# Static dielectric constant tensor:
#      x y z
#    x 3.116770 0.000000 0.000000 
#    y 0.000000 3.116770 0.000000 
#    z 0.000000 0.000000 3.327980 
# 
# 
# High freq. dielectric constant tensor:
#      x y z
#    x 1.644250 0.000000 0.000000 
#    y 0.000000 1.644250 0.000000 
#    z 0.000000 0.000000 1.689920 
# 
# From -- ./inp_files/2185.got.cif
#   From: 2010.03.12/outbox.cif.g09.slc.cpg/sg137_2_cif.got.tgz:2185.got - 2010.04.08 09:34:49.
