data_PCOD8318600
_publ_section_title
;
Structure prediction by ZEFSAII (Michael W. Deem and Ramdas Pophale) SiO2 
 PCOD8318600
Probable space group: P 42/N M C
;
_chemical_formula_sum "Si O2"
_cell_formula_units_Z 112
_cell_length_a 15.403873
_cell_length_b 15.403873
_cell_length_c 24.496937
_cell_angle_alpha 90.000000
_cell_angle_beta 90.000000
_cell_angle_gamma 90.000000
_cell_volume 5812.616147
_symmetry_space_group_name_H-M "P 42/N M C"
_symmetry_group_IT_number 137
_space_group.IT_coordinate_system_code '2'
_symmetry_cell_setting 'tetragonal'
loop_
_space_group_symop_operation_xyz
x,y,z
1/2-y,x,1/2+z
1/2-x,1/2-y,z
y,1/2-x,1/2+z
1/2+x,-y,-z
-x,1/2+y,-z
1/2+y,1/2+x,1/2-z
-y,-x,1/2-z
-x,-y,-z
1/2+y,-x,1/2-z
1/2+x,1/2+y,-z
-y,1/2+x,1/2-z
1/2-x,y,z
x,1/2-y,z
1/2-y,1/2-x,1/2+z
y,x,1/2+z
loop_
_atom_site_type_symbol
_atom_site_label
_atom_site_fract_x
_atom_site_fract_y
_atom_site_fract_z
Si Si1 0.408848 0.152899 0.957843
Si Si2 0.597606 0.154212 0.696718
Si Si3 0.346247 0.602029 0.416872
Si Si4 0.652222 0.965417 0.948677
Si Si5 0.069877 0.062178 0.744017
Si Si6 0.348107 0.348790 0.842172
Si Si7 0.653104 0.850061 0.348782
O O1 0.379646 0.250000 0.978277
O O2 0.506679 0.157653 0.939290
O O3 0.352715 0.123222 0.905534
O O4 0.403298 0.077959 0.003199
O O5 0.659199 0.159199 0.750000
O O6 0.583449 0.250000 0.671928
O O7 0.639389 0.097644 0.648354
O O8 0.507154 0.117134 0.717322
O O9 0.250000 0.645717 0.428445
O O10 0.429468 0.647274 0.445815
O O11 0.750000 0.937464 0.961038
O O12 0.622086 0.920614 0.892197
O O13 0.091021 0.091635 0.805139
O O14 0.148472 0.082759 0.702534
O O15 0.038697 0.961304 0.750000
O O16 0.250000 0.359529 0.821673
O O17 0.380406 0.250000 0.836164
O O18 0.750000 0.860723 0.373792
O O19 0.639317 0.750000 0.329472
#
# Coordination Sequence:
#
# PCOD8318600 Si02
#       7
#    16  16  16  16  16  16  16
#     4  10  21  38  58  82 110 144 186 233 287 340
#     4  11  21  33  50  75 109 150 192 227 267 323
#     4  11  23  38  55  80 115 153 190 230 277 336
#     4  11  22  37  58  84 112 147 189 234 281 335
#     4  11  21  33  51  77 113 149 185 227 281 342
#     4  10  20  34  55  82 111 145 186 234 287 340
#     4  10  20  35  57  84 114 150 191 238 292 342
#
# _framework density 19.268432000000001
#
# number of rings (size 3 to 8) (size 9 to 14) (size 15 to 20)
#    0.000    1.429    1.429    5.571    0.000    5.571 
#    0.000    0.000    0.000    0.000    0.000    0.000 
#    0.000    4.571    0.000    0.000    0.000    0.000 
#
# Total GULP energy -1387875.556398 kJ/mol
# GULP energy per Si atom -12391.746039 kJ/mol
# Density = 1.922458 g / cm^3
# Si number density = 19.268432 Si / 1000 Ang^3
#
#
#
# Elastic Constant Matrix: (Units=GPa)
#
#
# Indices 1 2 3 4 5 6 
#
# 1 84.9159 20.4145 39.7588 0.0000 0.0000 0.0000
# 2 20.4145 84.9167 39.7589 0.0000 0.0000 0.0000
# 3 39.7588 39.7589 114.4951 0.0000 0.0000 0.0000
# 4 0.0000 0.0000 0.0000 -38.5078 0.0000 0.0000
# 5 0.0000 0.0000 0.0000 0.0000 -38.4652 0.0000
# 6 0.0000 0.0000 0.0000 0.0000 0.0000 25.2114
#
#
#
# Elastic Compliance Matrix: (Units=1/GPa)
#
#
# Indices 1 2 3 4 5 6 
#
# 1 0.014185 -0.001318 -0.004468 0.000000 0.000000 0.000000
# 2 -0.001318 0.014185 -0.004468 0.000000 0.000000 0.000000
# 3 -0.004468 -0.004468 0.011837 0.000000 0.000000 0.000000
# 4 0.000000 0.000000 0.000000 -0.025969 0.000000 0.000000
# 5 0.000000 0.000000 0.000000 0.000000 -0.025998 0.000000
# 6 0.000000 0.000000 0.000000 0.000000 0.000000 0.039665
#
#
# Mechanical properties :
#
#
# Convention : Reuss Voigt Hill
#
# Bulk Modulus (GPa) = 50.76474 53.79913 52.28194
# Shear Modulus (GPa) = 90.94020 1.94070 46.44045
#
# Velocity S-wave (km/s) = 6.87742 1.00468 4.91469
# Velocity P-wave (km/s) = 9.45878 5.41547 7.70700
#
# Compressibility (1/GPa) = 0.01969871
#
# Stress axis : x y z
#
# Youngs Moduli (GPa) = 70.49544 70.49610 84.47978
#
# Poissons Ratio (x) = 0.09293 0.37747
# Poissons Ratio (y) = 0.09293 0.37747
# Poissons Ratio (z) = 0.31498 0.31498
#
# Static dielectric constant tensor:
#      x y z
#    x 3.724510 0.000000 0.000000 
#    y 0.000000 3.724520 0.000000 
#    z 0.000000 0.000000 3.628190 
# 
# 
# High freq. dielectric constant tensor:
#      x y z
#    x 1.737760 0.000000 0.000000 
#    y 0.000000 1.737760 0.000000 
#    z 0.000000 0.000000 1.748470 
# 
# From -- ./inp_files/8948.got.cif
#   From: 2010.03.12/outbox.cif.g09.slc.cpg/sg137_5_cif.got.tgz:8948.got - 2010.04.08 09:34:49.
