data_PCOD8318430
_publ_section_title
;
Structure prediction by ZEFSAII (Michael W. Deem and Ramdas Pophale) SiO2 
 PCOD8318430
Probable space group: P 42/N M C
;
_chemical_formula_sum "Si O2"
_cell_formula_units_Z 120
_cell_length_a 17.605928
_cell_length_b 17.605928
_cell_length_c 21.450473
_cell_angle_alpha 90.000000
_cell_angle_beta 90.000000
_cell_angle_gamma 90.000000
_cell_volume 6648.975246
_symmetry_space_group_name_H-M "P 42/N M C"
_symmetry_group_IT_number 137
_space_group.IT_coordinate_system_code '2'
_symmetry_cell_setting 'tetragonal'
loop_
_space_group_symop_operation_xyz
x,y,z
1/2-y,x,1/2+z
1/2-x,1/2-y,z
y,1/2-x,1/2+z
1/2+x,-y,-z
-x,1/2+y,-z
1/2+y,1/2+x,1/2-z
-y,-x,1/2-z
-x,-y,-z
1/2+y,-x,1/2-z
1/2+x,1/2+y,-z
-y,1/2+x,1/2-z
1/2-x,y,z
x,1/2-y,z
1/2-y,1/2-x,1/2+z
y,x,1/2+z
loop_
_atom_site_type_symbol
_atom_site_label
_atom_site_fract_x
_atom_site_fract_y
_atom_site_fract_z
Si Si1 0.661417 0.833533 0.900009
Si Si2 0.414743 0.403990 0.713595
Si Si3 0.454493 0.838620 0.726681
Si Si4 0.408927 0.931962 0.145677
Si Si5 0.161413 0.462588 0.896424
Si Si6 0.943560 0.660894 0.154583
Si Si7 0.164119 0.835882 0.250000
Si Si8 0.839763 0.981758 0.965287
O O1 0.750000 0.824877 0.910341
O O2 0.623578 0.750000 0.911324
O O3 0.647287 0.862433 0.830159
O O4 0.628876 0.897639 0.946981
O O5 0.365644 0.476428 0.731147
O O6 0.490991 0.434962 0.680418
O O7 0.436660 0.350934 0.771492
O O8 0.378033 0.878033 0.750000
O O9 0.441809 0.750000 0.735592
O O10 0.473658 0.859581 0.654811
O O11 0.478603 0.876766 0.131415
O O12 0.349773 0.889908 0.190852
O O13 0.373066 0.952459 0.078758
O O14 0.250000 0.444346 0.896312
O O15 0.123675 0.381430 0.881921
O O16 0.135432 0.496066 0.963279
O O17 0.941769 0.750000 0.138383
O O18 0.250000 0.849571 0.272662
O O19 0.750000 0.984319 0.956263
#
# Coordination Sequence:
#
# PCOD8318430 Si02
#       8
#    16  16  16  16  16  16   8  16
#     4   9  17  28  46  74 105 138 179 224 265 311
#     4  10  18  32  50  74 105 141 175 217 267 321
#     4  10  20  35  57  80 102 128 167 219 276 330
#     4  11  20  33  55  78 107 144 183 223 261 316
#     4   9  20  38  56  77 104 139 182 222 268 333
#     4  11  21  32  50  77 109 141 177 223 274 322
#     4  11  22  34  52  82 116 146 179 220 262 308
#     4   9  19  35  55  75 102 143 183 219 265 322
#
# _framework density 18.047893999999999
#
# number of rings (size 3 to 8) (size 9 to 14) (size 15 to 20)
#    0.000    2.067    1.333    3.200    0.000    3.067 
#    0.000    1.333    0.000    4.800    0.000    3.733 
#    0.000    0.000    0.000    0.000    0.000    0.000 
#
# Total GULP energy -1487777.491366 kJ/mol
# GULP energy per Si atom -12398.145761 kJ/mol
# Density = 1.800682 g / cm^3
# Si number density = 18.047894 Si / 1000 Ang^3
#
#
#
# Elastic Constant Matrix: (Units=GPa)
#
#
# Indices 1 2 3 4 5 6 
#
# 1 92.1689 50.5757 51.1183 0.0000 0.0000 0.0000
# 2 50.5757 92.1690 51.1185 0.0000 0.0000 0.0000
# 3 51.1183 51.1185 125.6140 0.0000 0.0000 0.0000
# 4 0.0000 0.0000 0.0000 21.4419 0.0000 0.0000
# 5 0.0000 0.0000 0.0000 0.0000 21.4416 0.0000
# 6 0.0000 0.0000 0.0000 0.0000 0.0000 29.1195
#
#
#
# Elastic Compliance Matrix: (Units=1/GPa)
#
#
# Indices 1 2 3 4 5 6 
#
# 1 0.016965 -0.007078 -0.004024 0.000000 0.000000 0.000000
# 2 -0.007078 0.016965 -0.004024 0.000000 0.000000 0.000000
# 3 -0.004024 -0.004024 0.011236 0.000000 0.000000 0.000000
# 4 0.000000 0.000000 0.000000 0.046638 0.000000 0.000000
# 5 0.000000 0.000000 0.000000 0.000000 0.046638 0.000000
# 6 0.000000 0.000000 0.000000 0.000000 0.000000 0.034341
#
#
# Mechanical properties :
#
#
# Convention : Reuss Voigt Hill
#
# Bulk Modulus (GPa) = 67.04276 68.39741 67.72009
# Shear Modulus (GPa) = 24.03799 24.87657 24.45728
#
# Velocity S-wave (km/s) = 3.65348 3.71666 3.68521
# Velocity P-wave (km/s) = 7.41788 7.50987 7.46402
#
# Compressibility (1/GPa) = 0.01491585
#
# Stress axis : x y z
#
# Youngs Moduli (GPa) = 58.94551 58.94541 89.00195
#
# Poissons Ratio (x) = 0.41719 0.35811
# Poissons Ratio (y) = 0.41719 0.35811
# Poissons Ratio (z) = 0.23717 0.23718
#
# Static dielectric constant tensor:
#      x y z
#    x 3.347450 0.000000 0.000000 
#    y 0.000000 3.347470 0.000000 
#    z 0.000000 0.000000 3.436810 
# 
# 
# High freq. dielectric constant tensor:
#      x y z
#    x 1.693300 0.000000 0.000000 
#    y 0.000000 1.693300 0.000000 
#    z 0.000000 0.000000 1.694700 
# 
# From -- ./inp_files/8162.got.cif
#   From: 2010.03.12/outbox.cif.g09.slc.cpg/sg137_5_cif.got.tgz:8162.got - 2010.04.08 09:34:49.
