data_PCOD8318277
_publ_section_title
;
Structure prediction by ZEFSAII (Michael W. Deem and Ramdas Pophale) SiO2 
 PCOD8318277
Probable space group: P 42/M N M
;
_chemical_formula_sum "Si O2"
_cell_formula_units_Z 56
_cell_length_a 19.812530
_cell_length_b 19.812530
_cell_length_c 7.797480
_cell_angle_alpha 90.000000
_cell_angle_beta 90.000000
_cell_angle_gamma 90.000000
_cell_volume 3060.794299
_symmetry_space_group_name_H-M "P 42/M N M"
_symmetry_group_IT_number 136
_symmetry_cell_setting 'tetragonal'
loop_
_space_group_symop_operation_xyz
x,y,z
1/2-y,1/2+x,1/2+z
-x,-y,z
1/2+y,1/2-x,1/2+z
1/2+x,1/2-y,1/2-z
1/2-x,1/2+y,1/2-z
y,x,-z
-y,-x,-z
-x,-y,-z
1/2+y,1/2-x,1/2-z
x,y,-z
1/2-y,1/2+x,1/2-z
1/2-x,1/2+y,1/2+z
1/2+x,1/2-y,1/2+z
-y,-x,z
y,x,z
loop_
_atom_site_type_symbol
_atom_site_label
_atom_site_fract_x
_atom_site_fract_y
_atom_site_fract_z
Si Si1 0.891348 0.003257 0.000000
Si Si2 0.637992 0.747785 0.297881
Si Si3 0.245918 0.648668 0.201415
Si Si4 0.210114 0.004575 0.304951
O O1 0.851439 0.996940 0.824235
O O2 0.947477 0.947477 0.000000
O O3 0.922095 0.077906 0.000000
O O4 0.624398 0.749809 0.500000
O O5 0.680281 0.680281 0.249649
O O6 0.679090 0.813243 0.229280
O O7 0.565461 0.750898 0.205100
O O8 0.313576 0.686425 0.273576
O O9 0.244491 0.569477 0.250654
O O10 0.244879 0.659063 0.000000
O O11 0.184002 0.015182 0.500000
#
# Coordination Sequence:
#
# PCOD8318277 Si02
#       4
#     8  16  16  16
#     4  11  24  38  52  76 112 151 184 216 264 329
#     4   9  17  33  55  77 105 140 178 223 272 321
#     4   8  16  32  54  77 103 139 180 223 269 316
#     4  11  21  35  56  80 108 142 182 226 272 321
#
# _framework density 18.295902999999999
#
# number of rings (size 3 to 8) (size 9 to 14) (size 15 to 20)
#    0.000    2.429    1.429    3.429    0.000    4.000 
#    2.571    1.429    0.000    0.857    0.000    6.000 
#    0.000    0.000    0.000    0.000    0.000    0.000 
#
# Total GULP energy -693914.815578 kJ/mol
# GULP energy per Si atom -12391.335992 kJ/mol
# Density = 1.825426 g / cm^3
# Si number density = 18.295903 Si / 1000 Ang^3
#
#
#
# Elastic Constant Matrix: (Units=GPa)
#
#
# Indices 1 2 3 4 5 6 
#
# 1 118.8276 83.3277 26.9150 0.0000 0.0000 0.0000
# 2 83.3277 118.8510 26.9214 0.0000 0.0000 0.0000
# 3 26.9150 26.9214 70.6698 0.0000 0.0000 0.0000
# 4 0.0000 0.0000 0.0000 17.7173 0.0000 0.0000
# 5 0.0000 0.0000 0.0000 0.0000 17.7162 0.0000
# 6 0.0000 0.0000 0.0000 0.0000 0.0000 22.3031
#
#
#
# Elastic Compliance Matrix: (Units=1/GPa)
#
#
# Indices 1 2 3 4 5 6 
#
# 1 0.016834 -0.011327 -0.002096 0.000000 0.000000 0.000000
# 2 -0.011327 0.016831 -0.002098 0.000000 0.000000 0.000000
# 3 -0.002096 -0.002098 0.015748 0.000000 0.000000 0.000000
# 4 0.000000 0.000000 0.000000 0.056442 0.000000 0.000000
# 5 0.000000 0.000000 0.000000 0.000000 0.056446 0.000000
# 6 0.000000 0.000000 0.000000 0.000000 0.000000 0.044837
#
#
# Mechanical properties :
#
#
# Convention : Reuss Voigt Hill
#
# Bulk Modulus (GPa) = 54.43629 64.74183 59.58906
# Shear Modulus (GPa) = 20.46647 22.95961 21.71304
#
# Velocity S-wave (km/s) = 3.34823 3.54631 3.44869
# Velocity P-wave (km/s) = 6.69069 7.22711 6.96407
#
# Compressibility (1/GPa) = 0.01837010
#
# Stress axis : x y z
#
# Youngs Moduli (GPa) = 59.40469 59.41482 63.50157
#
# Poissons Ratio (x) = 0.67302 0.13310
# Poissons Ratio (y) = 0.67291 0.13319
# Poissons Ratio (z) = 0.12451 0.12462
#
# Static dielectric constant tensor:
#      x y z
#    x 3.582360 0.000000 0.000000 
#    y 0.000000 3.582360 0.000000 
#    z 0.000000 0.000000 3.214350 
# 
# 
# High freq. dielectric constant tensor:
#      x y z
#    x 1.699930 0.000000 0.000000 
#    y 0.000000 1.699930 0.000000 
#    z 0.000000 0.000000 1.701950 
# 
# From -- ./inp_files/1304.got.cif
#   From: 2010.03.12/outbox.cif.g09.slc.cpg/sg136_1_cif.got.tgz:1304.got - 2010.04.06 18:39:43.
