data_PCOD8318903
_publ_section_title
;
Structure prediction by ZEFSAII (Michael W. Deem and Ramdas Pophale) SiO2 
 PCOD8318903
Probable space group: P 42/N C M
;
_chemical_formula_sum "Si O2"
_cell_formula_units_Z 96
_cell_length_a 19.628670
_cell_length_b 19.628670
_cell_length_c 13.394832
_cell_angle_alpha 90.000000
_cell_angle_beta 90.000000
_cell_angle_gamma 90.000000
_cell_volume 5160.823641
_symmetry_space_group_name_H-M "P 42/N C M"
_symmetry_group_IT_number 138
_space_group.IT_coordinate_system_code '2'
_symmetry_cell_setting 'tetragonal'
loop_
_space_group_symop_operation_xyz
x,y,z
1/2-y,x,1/2+z
1/2-x,1/2-y,z
y,1/2-x,1/2+z
1/2+x,-y,1/2-z
-x,1/2+y,1/2-z
1/2+y,1/2+x,-z
-y,-x,-z
-x,-y,-z
1/2+y,-x,1/2-z
1/2+x,1/2+y,-z
-y,1/2+x,1/2-z
1/2-x,y,1/2+z
x,1/2-y,1/2+z
1/2-y,1/2-x,z
y,x,z
loop_
_atom_site_type_symbol
_atom_site_label
_atom_site_fract_x
_atom_site_fract_y
_atom_site_fract_z
Si Si1 0.031090 0.808543 0.876000
Si Si2 0.248777 0.637392 0.985773
Si Si3 0.436023 0.544178 0.816177
Si Si4 0.724123 0.481165 0.657229
Si Si5 0.338049 0.447176 0.939961
Si Si6 0.536678 0.073764 0.897315
O O1 0.069325 0.879049 0.853948
O O2 0.011084 0.768967 0.775939
O O3 0.080499 0.755007 0.929501
O O4 0.966011 0.828497 0.943815
O O5 0.249231 0.594453 0.881158
O O6 0.178419 0.678419 0.000000
O O7 0.312077 0.687924 0.000000
O O8 0.511364 0.511364 0.832402
O O9 0.382635 0.502450 0.880583
O O10 0.419649 0.544041 0.696661
O O11 0.764687 0.545985 0.611962
O O12 0.646903 0.493051 0.627762
O O13 0.372283 0.372283 0.931358
O O14 0.471294 0.028707 0.919513
O O15 0.579930 0.079930 0.000000
#
# Coordination Sequence:
#
# PCOD8318903 Si02
#       6
#    16  16  16  16  16  16
#     4  10  19  32  51  72 100 135 175 221 266 309
#     4  10  21  34  47  69 105 147 184 214 252 311
#     4   9  17  30  51  78 104 133 173 220 267 314
#     4  10  21  34  52  77 104 137 176 220 268 323
#     4  10  20  34  53  78 107 137 172 218 273 328
#     4   9  18  33  54  80 109 140 176 223 274 320
#
# _framework density 18.601680999999999
#
# number of rings (size 3 to 8) (size 9 to 14) (size 15 to 20)
#    0.000    2.333    0.000    3.500    0.000    8.667 
#    0.000    1.667    0.000    0.500    0.000    0.000 
#    0.000    0.000    0.000    0.000    0.000    0.000 
#
# Total GULP energy -1189482.095594 kJ/mol
# GULP energy per Si atom -12390.438496 kJ/mol
# Density = 1.855934 g / cm^3
# Si number density = 18.601681 Si / 1000 Ang^3
#
#
#
# Elastic Constant Matrix: (Units=GPa)
#
#
# Indices 1 2 3 4 5 6 
#
# 1 54.4298 24.3100 38.4664 0.0000 0.0000 0.0000
# 2 24.3100 54.4300 38.4661 0.0000 0.0000 0.0000
# 3 38.4664 38.4661 153.5017 0.0000 0.0000 0.0000
# 4 0.0000 0.0000 0.0000 23.3880 0.0000 0.0000
# 5 0.0000 0.0000 0.0000 0.0000 23.3871 0.0000
# 6 0.0000 0.0000 0.0000 0.0000 0.0000 34.3271
#
#
#
# Elastic Compliance Matrix: (Units=1/GPa)
#
#
# Indices 1 2 3 4 5 6 
#
# 1 0.025009 -0.008192 -0.004214 0.000000 0.000000 0.000000
# 2 -0.008192 0.025009 -0.004214 0.000000 0.000000 0.000000
# 3 -0.004214 -0.004214 0.008627 0.000000 0.000000 0.000000
# 4 0.000000 0.000000 0.000000 0.042757 0.000000 0.000000
# 5 0.000000 0.000000 0.000000 0.000000 0.042759 0.000000
# 6 0.000000 0.000000 0.000000 0.000000 0.000000 0.029132
#
#
# Mechanical properties :
#
#
# Convention : Reuss Voigt Hill
#
# Bulk Modulus (GPa) = 39.36293 51.64962 45.50627
# Shear Modulus (GPa) = 23.25571 26.96169 25.10870
#
# Velocity S-wave (km/s) = 3.53964 3.81126 3.67796
# Velocity P-wave (km/s) = 6.15730 6.86979 6.52328
#
# Compressibility (1/GPa) = 0.02540461
#
# Stress axis : x y z
#
# Youngs Moduli (GPa) = 39.98513 39.98551 115.91846
#
# Poissons Ratio (x) = 0.32754 0.48853
# Poissons Ratio (y) = 0.32754 0.48852
# Poissons Ratio (z) = 0.16851 0.16851
#
# Static dielectric constant tensor:
#      x y z
#    x 3.359480 0.000000 0.000000 
#    y 0.000000 3.359480 0.000000 
#    z 0.000000 0.000000 3.833780 
# 
# 
# High freq. dielectric constant tensor:
#      x y z
#    x 1.701190 0.000000 0.000000 
#    y 0.000000 1.701190 0.000000 
#    z 0.000000 0.000000 1.738720 
# 
# From -- ./inp_files/3104.got.cif
#   From: 2010.03.12/outbox.cif.g09.slc.cpg/sg138_2_cif.got.tgz:3104.got - 2010.04.08 09:41:05.
