data_PCOD8318283
_publ_section_title
;
Structure prediction by ZEFSAII (Michael W. Deem and Ramdas Pophale) SiO2 
 PCOD8318283
Probable space group: P 42/M N M
;
_chemical_formula_sum "Si O2"
_cell_formula_units_Z 48
_cell_length_a 13.039887
_cell_length_b 13.039887
_cell_length_c 13.859213
_cell_angle_alpha 90.000000
_cell_angle_beta 90.000000
_cell_angle_gamma 90.000000
_cell_volume 2356.601910
_symmetry_space_group_name_H-M "P 42/M N M"
_symmetry_group_IT_number 136
_symmetry_cell_setting 'tetragonal'
loop_
_space_group_symop_operation_xyz
x,y,z
1/2-y,1/2+x,1/2+z
-x,-y,z
1/2+y,1/2-x,1/2+z
1/2+x,1/2-y,1/2-z
1/2-x,1/2+y,1/2-z
y,x,-z
-y,-x,-z
-x,-y,-z
1/2+y,1/2-x,1/2-z
x,y,-z
1/2-y,1/2+x,1/2-z
1/2-x,1/2+y,1/2+z
1/2+x,1/2-y,1/2+z
-y,-x,z
y,x,z
loop_
_atom_site_type_symbol
_atom_site_label
_atom_site_fract_x
_atom_site_fract_y
_atom_site_fract_z
Si Si1 0.665831 0.506211 0.892666
Si Si2 0.500286 0.121484 0.389672
Si Si3 0.868922 0.697156 0.274014
O O1 0.579985 0.420016 0.896628
O O2 0.613636 0.613636 0.858687
O O3 0.754154 0.472523 0.819748
O O4 0.713437 0.519278 0.000000
O O5 0.505952 0.158876 0.500000
O O6 0.600668 0.162877 0.333894
O O7 0.397311 0.165942 0.340946
O O8 0.500000 0.000000 0.379920
O O9 0.776157 0.776157 0.268554
#
# Coordination Sequence:
#
# PCOD8318283 Si02
#       3
#    16  16  16
#     4   8  15  29  51  83 120 153 190 239 290 343
#     4  11  23  43  64  86 122 163 206 256 305 362
#     4  11  21  38  64  92 123 164 207 249 311 377
#
# _framework density 20.368310000000001
#
# number of rings (size 3 to 8) (size 9 to 14) (size 15 to 20)
#    0.000    2.000    3.333    2.000    0.000    4.000 
#    0.000    0.000    0.000    0.000    0.000    7.000 
#    0.000    0.000    0.000    0.000    0.000    0.000 
#
# Total GULP energy -595135.461412 kJ/mol
# GULP energy per Si atom -12398.655446 kJ/mol
# Density = 2.032195 g / cm^3
# Si number density = 20.368310 Si / 1000 Ang^3
#
#
#
# Elastic Constant Matrix: (Units=GPa)
#
#
# Indices 1 2 3 4 5 6 
#
# 1 67.9405 20.7240 47.0226 0.0000 0.0000 0.0000
# 2 20.7240 67.9405 47.0226 0.0000 0.0000 0.0000
# 3 47.0226 47.0226 162.5615 0.0000 0.0000 0.0000
# 4 0.0000 0.0000 0.0000 21.2285 0.0000 0.0000
# 5 0.0000 0.0000 0.0000 0.0000 21.2285 0.0000
# 6 0.0000 0.0000 0.0000 0.0000 0.0000 35.8070
#
#
#
# Elastic Compliance Matrix: (Units=1/GPa)
#
#
# Indices 1 2 3 4 5 6 
#
# 1 0.018725 -0.002454 -0.004706 0.000000 0.000000 0.000000
# 2 -0.002454 0.018725 -0.004706 0.000000 0.000000 0.000000
# 3 -0.004706 -0.004706 0.008874 0.000000 0.000000 0.000000
# 4 0.000000 0.000000 0.000000 0.047106 0.000000 0.000000
# 5 0.000000 0.000000 0.000000 0.000000 0.047106 0.000000
# 6 0.000000 0.000000 0.000000 0.000000 0.000000 0.027928
#
#
# Mechanical properties :
#
#
# Convention : Reuss Voigt Hill
#
# Bulk Modulus (GPa) = 44.26812 58.66455 51.46633
# Shear Modulus (GPa) = 25.03400 27.89768 26.46584
#
# Velocity S-wave (km/s) = 3.50961 3.70491 3.60858
# Velocity P-wave (km/s) = 6.18095 6.86776 6.53339
#
# Compressibility (1/GPa) = 0.02258962
#
# Stress axis : x y z
#
# Youngs Moduli (GPa) = 53.40518 53.40518 112.68526
#
# Poissons Ratio (x) = 0.13107 0.53034
# Poissons Ratio (y) = 0.13107 0.53034
# Poissons Ratio (z) = 0.25135 0.25135
#
# Static dielectric constant tensor:
#      x y z
#    x 3.670970 0.000000 0.000000 
#    y 0.000000 3.670970 0.000000 
#    z 0.000000 0.000000 3.898080 
# 
# 
# High freq. dielectric constant tensor:
#      x y z
#    x 1.789360 0.000000 0.000000 
#    y 0.000000 1.789360 0.000000 
#    z 0.000000 0.000000 1.795000 
# 
# From -- ./inp_files/2853.got.cif
#   From: 2010.03.12/outbox.cif.g09.slc.cpg/sg136_2_cif.got.tgz:2853.got - 2010.04.06 18:39:43.
