data_PCOD8318303
_publ_section_title
;
Structure prediction by ZEFSAII (Michael W. Deem and Ramdas Pophale) SiO2 
 PCOD8318303
Probable space group: P 42/M N M
;
_chemical_formula_sum "Si O2"
_cell_formula_units_Z 96
_cell_length_a 23.965717
_cell_length_b 23.965717
_cell_length_c 8.475604
_cell_angle_alpha 90.000000
_cell_angle_beta 90.000000
_cell_angle_gamma 90.000000
_cell_volume 4868.010547
_symmetry_space_group_name_H-M "P 42/M N M"
_symmetry_group_IT_number 136
_symmetry_cell_setting 'tetragonal'
loop_
_space_group_symop_operation_xyz
x,y,z
1/2-y,1/2+x,1/2+z
-x,-y,z
1/2+y,1/2-x,1/2+z
1/2+x,1/2-y,1/2-z
1/2-x,1/2+y,1/2-z
y,x,-z
-y,-x,-z
-x,-y,-z
1/2+y,1/2-x,1/2-z
x,y,-z
1/2-y,1/2+x,1/2-z
1/2-x,1/2+y,1/2+z
1/2+x,1/2-y,1/2+z
-y,-x,z
y,x,z
loop_
_atom_site_type_symbol
_atom_site_label
_atom_site_fract_x
_atom_site_fract_y
_atom_site_fract_z
Si Si1 0.788114 0.015826 0.188380
Si Si2 0.695152 0.931391 0.816177
Si Si3 0.725353 0.638867 0.687289
Si Si4 0.183713 0.274419 0.315704
Si Si5 0.500318 0.411837 0.687676
Si Si6 0.076949 0.536011 0.815669
O O1 0.772961 0.076761 0.256269
O O2 0.740142 0.975138 0.251894
O O3 0.848975 0.998544 0.255725
O O4 0.789476 0.015181 0.000000
O O5 0.723213 0.871630 0.787699
O O6 0.636926 0.938747 0.726496
O O7 0.684042 0.940921 0.000000
O O8 0.721952 0.637483 0.500000
O O9 0.670635 0.670635 0.752972
O O10 0.780342 0.672211 0.738580
O O11 0.168770 0.277886 0.500000
O O12 0.217559 0.217559 0.279182
O O13 0.499769 0.410182 0.500000
O O14 0.555502 0.444499 0.747602
O O15 0.444910 0.444910 0.745744
O O16 0.072512 0.471035 0.768651
O O17 0.066920 0.542243 0.000000
#
# Coordination Sequence:
#
# PCOD8318303 Si02
#       6
#    16  16  16  16  16  16
#     4   9  17  27  42  69 104 138 176 220 268 326
#     4  11  23  35  52  84 118 153 190 226 281 347
#     4   8  14  27  49  73  94 126 176 229 276 319
#     4   9  19  36  56  76 101 142 193 239 286 337
#     4   8  13  22  38  62  96 139 181 221 269 322
#     4  11  23  42  65  88 115 147 187 236 288 346
#
# _framework density 19.720580000000002
#
# number of rings (size 3 to 8) (size 9 to 14) (size 15 to 20)
#    0.000    2.667    0.000    4.500    2.333    3.000 
#    0.000    1.667    0.000    0.000    0.000    0.000 
#    0.000    8.000    0.000   14.667    0.000   12.000 
#
# Total GULP energy -1190113.541174 kJ/mol
# GULP energy per Si atom -12397.016054 kJ/mol
# Density = 1.967570 g / cm^3
# Si number density = 19.720580 Si / 1000 Ang^3
#
#
#
# Elastic Constant Matrix: (Units=GPa)
#
#
# Indices 1 2 3 4 5 6 
#
# 1 129.7880 59.1570 10.1548 0.0000 0.0000 0.0000
# 2 59.1570 129.7880 10.1548 0.0000 0.0000 0.0000
# 3 10.1548 10.1548 28.7262 0.0000 0.0000 0.0000
# 4 0.0000 0.0000 0.0000 17.4108 0.0000 0.0000
# 5 0.0000 0.0000 0.0000 0.0000 17.4108 0.0000
# 6 0.0000 0.0000 0.0000 0.0000 0.0000 26.4792
#
#
#
# Elastic Compliance Matrix: (Units=1/GPa)
#
#
# Indices 1 2 3 4 5 6 
#
# 1 0.009830 -0.004328 -0.001945 0.000000 0.000000 0.000000
# 2 -0.004328 0.009830 -0.001945 0.000000 0.000000 0.000000
# 3 -0.001945 -0.001945 0.036186 0.000000 0.000000 0.000000
# 4 0.000000 0.000000 0.000000 0.057436 0.000000 0.000000
# 5 0.000000 0.000000 0.000000 0.000000 0.057436 0.000000
# 6 0.000000 0.000000 0.000000 0.000000 0.000000 0.037765
#
#
# Mechanical properties :
#
#
# Convention : Reuss Voigt Hill
#
# Bulk Modulus (GPa) = 25.37411 49.69285 37.53348
# Shear Modulus (GPa) = 21.00351 26.18254 23.59302
#
# Velocity S-wave (km/s) = 3.26706 3.64768 3.46260
# Velocity P-wave (km/s) = 5.20829 6.55698 5.92116
#
# Compressibility (1/GPa) = 0.03941025
#
# Stress axis : x y z
#
# Youngs Moduli (GPa) = 101.73103 101.73103 27.63469
#
# Poissons Ratio (x) = 0.44032 0.05374
# Poissons Ratio (y) = 0.44032 0.05374
# Poissons Ratio (z) = 0.19785 0.19785
#
# Static dielectric constant tensor:
#      x y z
#    x 3.807220 0.000000 0.000000 
#    y 0.000000 3.807220 0.000000 
#    z 0.000000 0.000000 3.035850 
# 
# 
# High freq. dielectric constant tensor:
#      x y z
#    x 1.776390 0.000000 0.000000 
#    y 0.000000 1.776390 0.000000 
#    z 0.000000 0.000000 1.717220 
# 
# From -- ./inp_files/1987.got.cif
#   From: 2010.03.12/outbox.cif.g09.slc.cpg/sg136_1_cif.got.tgz:1987.got - 2010.04.06 18:39:43.
