data_PCOD8318106
_publ_section_title
;
Structure prediction by ZEFSAII (Michael W. Deem and Ramdas Pophale) SiO2 
 PCOD8318106
Probable space group: P 42/M N M
;
_chemical_formula_sum "Si O2"
_cell_formula_units_Z 72
_cell_length_a 20.396198
_cell_length_b 20.396198
_cell_length_c 8.593423
_cell_angle_alpha 90.000000
_cell_angle_beta 90.000000
_cell_angle_gamma 90.000000
_cell_volume 3574.906014
_symmetry_space_group_name_H-M "P 42/M N M"
_symmetry_group_IT_number 136
_symmetry_cell_setting 'tetragonal'
loop_
_space_group_symop_operation_xyz
x,y,z
1/2-y,1/2+x,1/2+z
-x,-y,z
1/2+y,1/2-x,1/2+z
1/2+x,1/2-y,1/2-z
1/2-x,1/2+y,1/2-z
y,x,-z
-y,-x,-z
-x,-y,-z
1/2+y,1/2-x,1/2-z
x,y,-z
1/2-y,1/2+x,1/2-z
1/2-x,1/2+y,1/2+z
1/2+x,1/2-y,1/2+z
-y,-x,z
y,x,z
loop_
_atom_site_type_symbol
_atom_site_label
_atom_site_fract_x
_atom_site_fract_y
_atom_site_fract_z
Si Si1 0.906484 0.724798 0.183320
Si Si2 0.086399 0.543764 0.681186
Si Si3 0.235166 0.235166 0.186001
Si Si4 0.553808 0.446193 0.172090
Si Si5 0.841246 0.158755 0.683990
Si Si6 0.676273 0.515474 0.683451
O O1 0.914452 0.649265 0.230394
O O2 0.837017 0.748229 0.253571
O O3 0.969399 0.764773 0.246712
O O4 0.903789 0.735013 0.000000
O O5 0.086985 0.476837 0.779154
O O6 0.086973 0.525468 0.500000
O O7 0.288298 0.288298 0.246743
O O8 0.235711 0.235711 0.000000
O O9 0.500000 0.500000 0.143237
O O10 0.522764 0.388999 0.273090
O O11 0.577746 0.422255 0.000000
O O12 0.842462 0.157539 0.500000
O O13 0.913252 0.179942 0.739544
O O14 0.679204 0.526100 0.500000
#
# Coordination Sequence:
#
# PCOD8318106 Si02
#       6
#    16  16   8   8   8  16
#     4   9  20  37  60  87 114 152 198 239 285 348
#     4  10  20  36  58  85 115 148 191 242 291 342
#     4   9  19  38  59  82 116 155 195 236 290 355
#     4  11  22  37  57  83 119 151 190 243 288 337
#     4  11  23  37  59  90 123 155 191 241 298 355
#     4  11  22  38  62  88 116 154 199 242 287 348
#
# _framework density 20.140391000000001
#
# number of rings (size 3 to 8) (size 9 to 14) (size 15 to 20)
#    0.000    1.889    1.111    3.333    3.111    2.222 
#    0.000    3.333    0.000    8.000    0.000    0.000 
#    0.000    0.000    0.000    0.000    0.000    0.000 
#
# Total GULP energy -892706.718029 kJ/mol
# GULP energy per Si atom -12398.704417 kJ/mol
# Density = 2.009455 g / cm^3
# Si number density = 20.140391 Si / 1000 Ang^3
#
#
#
# Elastic Constant Matrix: (Units=GPa)
#
#
# Indices 1 2 3 4 5 6 
#
# 1 137.4545 102.7670 23.2087 0.0000 0.0000 0.0000
# 2 102.7670 137.4553 23.2091 0.0000 0.0000 0.0000
# 3 23.2087 23.2091 48.4018 0.0000 0.0000 0.0000
# 4 0.0000 0.0000 0.0000 25.3739 0.0000 0.0000
# 5 0.0000 0.0000 0.0000 0.0000 25.3741 0.0000
# 6 0.0000 0.0000 0.0000 0.0000 0.0000 41.2825
#
#
#
# Elastic Compliance Matrix: (Units=1/GPa)
#
#
# Indices 1 2 3 4 5 6 
#
# 1 0.016708 -0.012120 -0.002200 0.000000 0.000000 0.000000
# 2 -0.012120 0.016708 -0.002200 0.000000 0.000000 0.000000
# 3 -0.002200 -0.002200 0.022770 0.000000 0.000000 0.000000
# 4 0.000000 0.000000 0.000000 0.039411 0.000000 0.000000
# 5 0.000000 0.000000 0.000000 0.000000 0.039410 0.000000
# 6 0.000000 0.000000 0.000000 0.000000 0.000000 0.024223
#
#
# Mechanical properties :
#
#
# Convention : Reuss Voigt Hill
#
# Bulk Modulus (GPa) = 43.20354 69.07570 56.13962
# Shear Modulus (GPa) = 25.00170 30.01456 27.50813
#
# Velocity S-wave (km/s) = 3.52713 3.86459 3.69971
# Velocity P-wave (km/s) = 6.17133 7.36783 6.79596
#
# Compressibility (1/GPa) = 0.02314625
#
# Stress axis : x y z
#
# Youngs Moduli (GPa) = 59.85072 59.85091 43.91717
#
# Poissons Ratio (x) = 0.72541 0.09661
# Poissons Ratio (y) = 0.72541 0.09662
# Poissons Ratio (z) = 0.13166 0.13167
#
# Static dielectric constant tensor:
#      x y z
#    x 3.861940 0.000000 0.000000 
#    y 0.000000 3.861940 0.000000 
#    z 0.000000 0.000000 3.552640 
# 
# 
# High freq. dielectric constant tensor:
#      x y z
#    x 1.796820 0.000000 0.000000 
#    y 0.000000 1.796820 0.000000 
#    z 0.000000 0.000000 1.763350 
# 
# From -- ./inp_files/1622.got.cif
#   From: 2010.03.12/outbox.cif.g09.slc.cpg/sg136_1_cif.got.tgz:1622.got - 2010.04.06 18:39:43.
