data_PCOD8318754
_publ_section_title
;
Structure prediction by ZEFSAII (Michael W. Deem and Ramdas Pophale) SiO2 
 PCOD8318754
Probable space group: P 42/N M C
;
_chemical_formula_sum "Si O2"
_cell_formula_units_Z 128
_cell_length_a 23.156019
_cell_length_b 23.156019
_cell_length_c 13.264248
_cell_angle_alpha 90.000000
_cell_angle_beta 90.000000
_cell_angle_gamma 90.000000
_cell_volume 7112.305906
_symmetry_space_group_name_H-M "P 42/N M C"
_symmetry_group_IT_number 137
_space_group.IT_coordinate_system_code '2'
_symmetry_cell_setting 'tetragonal'
loop_
_space_group_symop_operation_xyz
x,y,z
1/2-y,x,1/2+z
1/2-x,1/2-y,z
y,1/2-x,1/2+z
1/2+x,-y,-z
-x,1/2+y,-z
1/2+y,1/2+x,1/2-z
-y,-x,1/2-z
-x,-y,-z
1/2+y,-x,1/2-z
1/2+x,1/2+y,-z
-y,1/2+x,1/2-z
1/2-x,y,z
x,1/2-y,z
1/2-y,1/2-x,1/2+z
y,x,1/2+z
loop_
_atom_site_type_symbol
_atom_site_label
_atom_site_fract_x
_atom_site_fract_y
_atom_site_fract_z
Si Si1 0.397951 0.526899 0.316344
Si Si2 0.682697 0.685028 0.554365
Si Si3 0.401628 0.892146 0.505419
Si Si4 0.895474 0.895216 0.191188
Si Si5 0.031926 0.685281 0.365160
Si Si6 0.682853 0.112803 0.316502
Si Si7 0.686360 0.902073 0.870947
Si Si8 0.103577 0.526312 0.804383
O O1 0.453747 0.546254 0.250000
O O2 0.392048 0.557703 0.423872
O O3 0.400564 0.460487 0.348341
O O4 0.343726 0.538193 0.244236
O O5 0.750000 0.665533 0.542644
O O6 0.680644 0.750000 0.599754
O O7 0.646407 0.641730 0.621787
O O8 0.649915 0.684164 0.448973
O O9 0.419898 0.835592 0.443660
O O10 0.343772 0.882183 0.570878
O O11 0.454797 0.905634 0.580026
O O12 0.890665 0.867179 0.299777
O O13 0.873963 0.960810 0.199472
O O14 0.047757 0.750000 0.342092
O O15 0.967408 0.677841 0.413576
O O16 0.670579 0.170579 0.250000
O O17 0.750000 0.101346 0.328665
O O18 0.653908 0.061006 0.253381
O O19 0.750000 0.899997 0.817580
O O20 0.042070 0.542070 0.750000
#
# Coordination Sequence:
#
# PCOD8318754 Si02
#       8
#    16  16  16  16  16  16  16  16
#     4   9  19  33  50  76 108 137 168 207 253 305
#     4  10  22  37  51  72 101 132 172 219 261 304
#     4   9  18  33  51  74 105 137 161 199 260 303
#     4  11  20  33  55  78 100 133 176 214 251 302
#     4   9  17  31  52  76  99 129 172 211 245 296
#     4   9  20  37  54  75 103 132 167 208 249 302
#     4   9  19  35  52  71  99 134 170 211 256 299
#     4   9  20  34  50  76 107 136 167 207 255 305
#
# _framework density 17.996976
#
# number of rings (size 3 to 8) (size 9 to 14) (size 15 to 20)
#    0.000    2.875    0.000    1.500    0.000    6.625 
#    0.000    2.500    0.000    0.000    0.000    0.000 
#    0.000    0.000    0.000    0.000    0.000    0.000 
#
# Total GULP energy -1585679.028167 kJ/mol
# GULP energy per Si atom -12388.117408 kJ/mol
# Density = 1.795601 g / cm^3
# Si number density = 17.996976 Si / 1000 Ang^3
#
#
#
# Elastic Constant Matrix: (Units=GPa)
#
#
# Indices 1 2 3 4 5 6 
#
# 1 126.9972 62.2283 52.6131 0.0000 0.0000 0.0000
# 2 62.2283 126.9982 52.6119 0.0000 0.0000 0.0000
# 3 52.6131 52.6119 92.6354 0.0000 0.0000 0.0000
# 4 0.0000 0.0000 0.0000 35.3410 0.0000 0.0000
# 5 0.0000 0.0000 0.0000 0.0000 35.3421 0.0000
# 6 0.0000 0.0000 0.0000 0.0000 0.0000 22.9480
#
#
#
# Elastic Compliance Matrix: (Units=1/GPa)
#
#
# Indices 1 2 3 4 5 6 
#
# 1 0.011582 -0.003858 -0.004387 0.000000 0.000000 0.000000
# 2 -0.003858 0.011582 -0.004387 0.000000 0.000000 0.000000
# 3 -0.004387 -0.004387 0.015778 0.000000 0.000000 0.000000
# 4 0.000000 0.000000 0.000000 0.028296 0.000000 0.000000
# 5 0.000000 0.000000 0.000000 0.000000 0.028295 0.000000
# 6 0.000000 0.000000 0.000000 0.000000 0.000000 0.043577
#
#
# Mechanical properties :
#
#
# Convention : Reuss Voigt Hill
#
# Bulk Modulus (GPa) = 73.10643 75.72638 74.41641
# Shear Modulus (GPa) = 29.59772 30.67137 30.13455
#
# Velocity S-wave (km/s) = 4.05976 4.13274 4.09641
# Velocity P-wave (km/s) = 7.91740 8.05862 7.98832
#
# Compressibility (1/GPa) = 0.01367869
#
# Stress axis : x y z
#
# Youngs Moduli (GPa) = 86.34131 86.34336 63.37863
#
# Poissons Ratio (x) = 0.33308 0.27805
# Poissons Ratio (y) = 0.33307 0.27803
# Poissons Ratio (z) = 0.37879 0.37877
#
# Static dielectric constant tensor:
#      x y z
#    x 3.484280 0.000000 0.000000 
#    y 0.000000 3.484280 0.000000 
#    z 0.000000 0.000000 3.335990 
# 
# 
# High freq. dielectric constant tensor:
#      x y z
#    x 1.695670 0.000000 0.000000 
#    y 0.000000 1.695670 0.000000 
#    z 0.000000 0.000000 1.693120 
# 
# From -- ./inp_files/4002.got.cif
#   From: 2010.03.12/outbox.cif.g09.slc.cpg/sg137_3_cif.got.tgz:4002.got - 2010.04.08 09:34:49.
