data_PCOD8318775
_publ_section_title
;
Structure prediction by ZEFSAII (Michael W. Deem and Ramdas Pophale) SiO2 
 PCOD8318775
Probable space group: P 42/N M C
;
_chemical_formula_sum "Si O2"
_cell_formula_units_Z 60
_cell_length_a 18.064968
_cell_length_b 18.064968
_cell_length_c 8.908965
_cell_angle_alpha 90.000000
_cell_angle_beta 90.000000
_cell_angle_gamma 90.000000
_cell_volume 2907.378978
_symmetry_space_group_name_H-M "P 42/N M C"
_symmetry_group_IT_number 137
_space_group.IT_coordinate_system_code '2'
_symmetry_cell_setting 'tetragonal'
loop_
_space_group_symop_operation_xyz
x,y,z
1/2-y,x,1/2+z
1/2-x,1/2-y,z
y,1/2-x,1/2+z
1/2+x,-y,-z
-x,1/2+y,-z
1/2+y,1/2+x,1/2-z
-y,-x,1/2-z
-x,-y,-z
1/2+y,-x,1/2-z
1/2+x,1/2+y,-z
-y,1/2+x,1/2-z
1/2-x,y,z
x,1/2-y,z
1/2-y,1/2-x,1/2+z
y,x,1/2+z
loop_
_atom_site_type_symbol
_atom_site_label
_atom_site_fract_x
_atom_site_fract_y
_atom_site_fract_z
Si Si1 0.071600 0.571600 0.750000
Si Si2 0.165314 0.973725 0.503105
Si Si3 0.571260 0.428741 0.750000
Si Si4 0.096667 0.453260 0.004109
Si Si5 0.125701 0.250000 0.487458
Si Si6 0.750000 0.750000 0.762453
O O1 0.148952 0.568333 0.660000
O O2 0.066357 0.505244 0.870921
O O3 0.250000 0.993600 0.487706
O O4 0.122391 0.051158 0.500629
O O5 0.139306 0.921722 0.365857
O O6 0.493338 0.420077 0.661955
O O7 0.181633 0.430883 0.986140
O O8 0.176260 0.250000 0.338751
O O9 0.176321 0.250000 0.636093
#
# Coordination Sequence:
#
# PCOD8318775 Si02
#       6
#     8  16   8  16   8   4
#     4  10  23  44  62  95 130 159 222 272 314 371
#     4  11  23  38  68  91 123 168 209 267 323 381
#     4  10  23  44  62  95 130 159 222 272 314 371
#     4  11  23  40  65  97 130 171 211 273 313 392
#     4  11  28  40  70  90 143 182 220 250 339 388
#     4  10  28  50  52 102 148 182 204 262 308 430
#
# _framework density 20.637143999999999
#
# number of rings (size 3 to 8) (size 9 to 14) (size 15 to 20)
#    0.000    1.333    0.000    6.400   14.933    0.000 
#    0.000    0.000    0.000    2.400    0.000    0.000 
#    0.000    0.000    0.000    0.000    0.000    0.000 
#
# Total GULP energy -743969.030301 kJ/mol
# GULP energy per Si atom -12399.483838 kJ/mol
# Density = 2.059017 g / cm^3
# Si number density = 20.637144 Si / 1000 Ang^3
#
#
#
# Elastic Constant Matrix: (Units=GPa)
#
#
# Indices 1 2 3 4 5 6 
#
# 1 112.1705 36.7899 23.4582 0.0000 0.0000 0.0000
# 2 36.7899 112.1733 23.4597 0.0000 0.0000 0.0000
# 3 23.4582 23.4597 116.4104 0.0000 0.0000 0.0000
# 4 0.0000 0.0000 0.0000 15.4241 0.0000 0.0000
# 5 0.0000 0.0000 0.0000 0.0000 15.4234 0.0000
# 6 0.0000 0.0000 0.0000 0.0000 0.0000 21.0165
#
#
#
# Elastic Compliance Matrix: (Units=1/GPa)
#
#
# Indices 1 2 3 4 5 6 
#
# 1 0.010217 -0.003049 -0.001444 0.000000 0.000000 0.000000
# 2 -0.003049 0.010217 -0.001445 0.000000 0.000000 0.000000
# 3 -0.001444 -0.001445 0.009172 0.000000 0.000000 0.000000
# 4 0.000000 0.000000 0.000000 0.064834 0.000000 0.000000
# 5 0.000000 0.000000 0.000000 0.000000 0.064837 0.000000
# 6 0.000000 0.000000 0.000000 0.000000 0.000000 0.047582
#
#
# Mechanical properties :
#
#
# Convention : Reuss Voigt Hill
#
# Bulk Modulus (GPa) = 56.39952 56.46333 56.43142
# Shear Modulus (GPa) = 22.25740 27.50921 24.88330
#
# Velocity S-wave (km/s) = 3.28763 3.65498 3.47616
# Velocity P-wave (km/s) = 6.46528 6.72542 6.59663
#
# Compressibility (1/GPa) = 0.01773065
#
# Stress axis : x y z
#
# Youngs Moduli (GPa) = 97.87576 97.87774 109.02163
#
# Poissons Ratio (x) = 0.29841 0.15748
# Poissons Ratio (y) = 0.29841 0.15749
# Poissons Ratio (z) = 0.14138 0.14139
#
# Static dielectric constant tensor:
#      x y z
#    x 3.578660 0.000000 0.000000 
#    y 0.000000 3.578660 0.000000 
#    z 0.000000 0.000000 4.334430 
# 
# 
# High freq. dielectric constant tensor:
#      x y z
#    x 1.790870 0.000000 0.000000 
#    y 0.000000 1.790870 0.000000 
#    z 0.000000 0.000000 1.840960 
# 
# From -- ./inp_files/1619.got.cif
#   From: 2010.03.12/outbox.cif.g09.slc.cpg/sg137_1_cif.got.tgz:1619.got - 2010.04.08 09:34:49.
