data_PCOD8318802
_publ_section_title
;
Structure prediction by ZEFSAII (Michael W. Deem and Ramdas Pophale) SiO2 
 PCOD8318802
Probable space group: P 42/N M C
;
_chemical_formula_sum "Si O2"
_cell_formula_units_Z 96
_cell_length_a 23.797159
_cell_length_b 23.797159
_cell_length_c 9.131943
_cell_angle_alpha 90.000000
_cell_angle_beta 90.000000
_cell_angle_gamma 90.000000
_cell_volume 5171.462939
_symmetry_space_group_name_H-M "P 42/N M C"
_symmetry_group_IT_number 137
_space_group.IT_coordinate_system_code '2'
_symmetry_cell_setting 'tetragonal'
loop_
_space_group_symop_operation_xyz
x,y,z
1/2-y,x,1/2+z
1/2-x,1/2-y,z
y,1/2-x,1/2+z
1/2+x,-y,-z
-x,1/2+y,-z
1/2+y,1/2+x,1/2-z
-y,-x,1/2-z
-x,-y,-z
1/2+y,-x,1/2-z
1/2+x,1/2+y,-z
-y,1/2+x,1/2-z
1/2-x,y,z
x,1/2-y,z
1/2-y,1/2-x,1/2+z
y,x,1/2+z
loop_
_atom_site_type_symbol
_atom_site_label
_atom_site_fract_x
_atom_site_fract_y
_atom_site_fract_z
Si Si1 0.864033 0.559219 0.932774
Si Si2 0.930124 0.373246 0.612259
Si Si3 0.750000 0.563358 0.787764
Si Si4 0.556709 0.750000 0.957028
Si Si5 0.250000 0.930617 0.165389
Si Si6 0.359687 0.051399 0.717877
Si Si7 0.750000 0.074607 0.509740
Si Si8 0.635960 0.422683 0.368399
O O1 0.873910 0.496919 0.870397
O O2 0.806478 0.585934 0.867469
O O3 0.917539 0.591291 0.868776
O O4 0.861156 0.563639 0.108858
O O5 0.897322 0.397322 0.750000
O O6 0.912525 0.307462 0.581952
O O7 0.913799 0.416167 0.485127
O O8 0.750000 0.585611 0.618523
O O9 0.750000 0.496907 0.808113
O O10 0.573714 0.802818 0.857492
O O11 0.491970 0.750000 0.997506
O O12 0.250000 0.902573 0.325391
O O13 0.365425 0.984877 0.696903
O O14 0.805181 0.097454 0.432555
O O15 0.624389 0.375612 0.250000
#
# Coordination Sequence:
#
# PCOD8318802 Si02
#       8
#    16  16   8   8   8  16   8  16
#     4  11  23  37  57  87 118 155 190 234 282 340
#     4  11  22  36  59  81 115 148 193 236 291 345
#     4   9  19  37  59  82 113 148 197 230 277 331
#     4   9  19  37  59  82 111 152 192 235 274 334
#     4   9  18  34  56  81 100 148 192 232 276 342
#     4  11  23  37  58  85 121 152 192 231 285 336
#     4   9  18  34  58  75 108 144 191 231 279 339
#     4  11  22  38  55  85 112 151 188 237 290 342
#
# _framework density 18.563412
#
# number of rings (size 3 to 8) (size 9 to 14) (size 15 to 20)
#    0.000    1.667    3.333    1.500    4.667    2.000 
#    0.000    0.000    0.000    3.500    0.000    3.500 
#    0.000    0.000    0.000    0.000    0.000    0.000 
#
# Total GULP energy -1189648.463817 kJ/mol
# GULP energy per Si atom -12392.171498 kJ/mol
# Density = 1.852116 g / cm^3
# Si number density = 18.563412 Si / 1000 Ang^3
#
#
#
# Elastic Constant Matrix: (Units=GPa)
#
#
# Indices 1 2 3 4 5 6 
#
# 1 85.8094 24.6335 30.0133 0.0000 0.0000 0.0000
# 2 24.6335 85.8102 30.0148 0.0000 0.0000 0.0000
# 3 30.0133 30.0148 112.7513 0.0000 0.0000 0.0000
# 4 0.0000 0.0000 0.0000 28.6150 0.0000 0.0000
# 5 0.0000 0.0000 0.0000 0.0000 28.6152 0.0000
# 6 0.0000 0.0000 0.0000 0.0000 0.0000 4.4538
#
#
#
# Elastic Compliance Matrix: (Units=1/GPa)
#
#
# Indices 1 2 3 4 5 6 
#
# 1 0.013466 -0.002880 -0.002818 0.000000 0.000000 0.000000
# 2 -0.002880 0.013466 -0.002818 0.000000 0.000000 0.000000
# 3 -0.002818 -0.002818 0.010369 0.000000 0.000000 0.000000
# 4 0.000000 0.000000 0.000000 0.034947 0.000000 0.000000
# 5 0.000000 0.000000 0.000000 0.000000 0.034946 0.000000
# 6 0.000000 0.000000 0.000000 0.000000 0.000000 0.224527
#
#
# Mechanical properties :
#
#
# Convention : Reuss Voigt Hill
#
# Bulk Modulus (GPa) = 49.33511 50.41047 49.87279
# Shear Modulus (GPa) = 14.06430 25.65074 19.85752
#
# Velocity S-wave (km/s) = 2.75550 3.72128 3.27419
# Velocity P-wave (km/s) = 6.06283 6.75860 6.42015
#
# Compressibility (1/GPa) = 0.02026954
#
# Stress axis : x y z
#
# Youngs Moduli (GPa) = 74.26041 74.26037 96.43810
#
# Poissons Ratio (x) = 0.21388 0.27175
# Poissons Ratio (y) = 0.21388 0.27177
# Poissons Ratio (z) = 0.20926 0.20927
#
# Static dielectric constant tensor:
#      x y z
#    x 3.417560 0.000000 0.000000 
#    y 0.000000 3.417560 0.000000 
#    z 0.000000 0.000000 3.141150 
# 
# 
# High freq. dielectric constant tensor:
#      x y z
#    x 1.705350 0.000000 0.000000 
#    y 0.000000 1.705350 0.000000 
#    z 0.000000 0.000000 1.737100 
# 
# From -- ./inp_files/2227.got.cif
#   From: 2010.03.12/outbox.cif.g09.slc.cpg/sg137_2_cif.got.tgz:2227.got - 2010.04.08 09:34:49.
