data_PCOD8318229
_publ_section_title
;
Structure prediction by ZEFSAII (Michael W. Deem and Ramdas Pophale) SiO2 
 PCOD8318229
Probable space group: P 42/M N M
;
_chemical_formula_sum "Si O2"
_cell_formula_units_Z 40
_cell_length_a 14.656038
_cell_length_b 14.656038
_cell_length_c 11.532109
_cell_angle_alpha 90.000000
_cell_angle_beta 90.000000
_cell_angle_gamma 90.000000
_cell_volume 2477.090669
_symmetry_space_group_name_H-M "P 42/M N M"
_symmetry_group_IT_number 136
_symmetry_cell_setting 'tetragonal'
loop_
_space_group_symop_operation_xyz
x,y,z
1/2-y,1/2+x,1/2+z
-x,-y,z
1/2+y,1/2-x,1/2+z
1/2+x,1/2-y,1/2-z
1/2-x,1/2+y,1/2-z
y,x,-z
-y,-x,-z
-x,-y,-z
1/2+y,1/2-x,1/2-z
x,y,-z
1/2-y,1/2+x,1/2-z
1/2-x,1/2+y,1/2+z
1/2+x,1/2-y,1/2+z
-y,-x,z
y,x,z
loop_
_atom_site_type_symbol
_atom_site_label
_atom_site_fract_x
_atom_site_fract_y
_atom_site_fract_z
Si Si1 0.895081 0.895081 0.000000
Si Si2 0.196200 0.803801 0.227760
Si Si3 0.110152 0.889849 0.000000
Si Si4 0.965079 0.178238 0.630879
Si Si5 0.155147 0.155147 0.250872
O O1 0.849041 0.849041 0.112034
O O2 0.002134 0.873031 0.000000
O O3 0.156591 0.843410 0.109412
O O4 0.239179 0.888798 0.301879
O O5 0.271677 0.728324 0.205809
O O6 0.978058 0.214273 0.500000
O O7 0.926633 0.073368 0.631443
O O8 0.059039 0.185292 0.697927
#
# Coordination Sequence:
#
# PCOD8318229 Si02
#       5
#     4   8   4  16   8
#     4  11  20  34  60  76 112 141 176 226 290 311
#     4  10  22  34  50  81 114 136 175 222 267 317
#     4  11  20  38  50  84 117 132 168 246 275 314
#     4   9  19  36  52  76 108 136 176 217 255 316
#     4  12  21  32  57  83 103 144 176 213 277 317
#
# _framework density 16.147974999999999
#
# number of rings (size 3 to 8) (size 9 to 14) (size 15 to 20)
#    1.200    0.600    4.000    1.200    8.400    1.600 
#    0.000    0.000    0.000    1.200    0.000    5.600 
#    0.000    0.000    0.000    0.000    0.000    0.000 
#
# Total GULP energy -495575.131753 kJ/mol
# GULP energy per Si atom -12389.378294 kJ/mol
# Density = 1.611122 g / cm^3
# Si number density = 16.147975 Si / 1000 Ang^3
#
#
#
# Elastic Constant Matrix: (Units=GPa)
#
#
# Indices 1 2 3 4 5 6 
#
# 1 55.7593 67.3140 32.2816 0.0000 0.0000 0.0000
# 2 67.3140 55.7608 32.2822 0.0000 0.0000 0.0000
# 3 32.2816 32.2822 135.2017 0.0000 0.0000 0.0000
# 4 0.0000 0.0000 0.0000 11.4592 0.0000 0.0000
# 5 0.0000 0.0000 0.0000 0.0000 11.4576 0.0000
# 6 0.0000 0.0000 0.0000 0.0000 0.0000 31.7001
#
#
#
# Elastic Compliance Matrix: (Units=1/GPa)
#
#
# Indices 1 2 3 4 5 6 
#
# 1 -0.038631 0.047919 -0.002218 0.000000 0.000000 0.000000
# 2 0.047919 -0.038630 -0.002218 0.000000 0.000000 0.000000
# 3 -0.002218 -0.002218 0.008455 0.000000 0.000000 0.000000
# 4 0.000000 0.000000 0.000000 0.087266 0.000000 0.000000
# 5 0.000000 0.000000 0.000000 0.000000 0.087278 0.000000
# 6 0.000000 0.000000 0.000000 0.000000 0.000000 0.031546
#
#
# Mechanical properties :
#
#
# Convention : Reuss Voigt Hill
#
# Bulk Modulus (GPa) = 55.06179 56.71971 55.89075
# Shear Modulus (GPa) = 88.69914 18.57965 53.63939
#
# Velocity S-wave (km/s) = 7.41945 3.39571 5.76971
# Velocity P-wave (km/s) = 10.37159 7.11166 8.89229
#
# Compressibility (1/GPa) = 0.01816141
#
# Stress axis : x y z
#
# Youngs Moduli (GPa) = -25.88578 -25.88641 118.26683
#
# Poissons Ratio (x) = 1.24046 0.26231
# Poissons Ratio (y) = 1.24043 0.26229
# Poissons Ratio (z) = -0.05741 -0.05741
#
# Static dielectric constant tensor:
#      x y z
#    x 2.760940 0.000000 0.000000 
#    y 0.000000 2.760930 0.000000 
#    z 0.000000 0.000000 3.318140 
# 
# 
# High freq. dielectric constant tensor:
#      x y z
#    x 1.589900 0.000000 0.000000 
#    y 0.000000 1.589900 0.000000 
#    z 0.000000 0.000000 1.651000 
# 
# From -- ./inp_files/2837.got.cif
#   From: 2010.03.12/outbox.cif.g09.slc.cpg/sg136_2_cif.got.tgz:2837.got - 2010.04.06 18:39:43.
