data_PCOD8318248
_publ_section_title
;
Structure prediction by ZEFSAII (Michael W. Deem and Ramdas Pophale) SiO2 
 PCOD8318248
Probable space group: P 42/M N M
;
_chemical_formula_sum "Si O2"
_cell_formula_units_Z 64
_cell_length_a 12.679161
_cell_length_b 12.679161
_cell_length_c 17.894146
_cell_angle_alpha 90.000000
_cell_angle_beta 90.000000
_cell_angle_gamma 90.000000
_cell_volume 2876.683018
_symmetry_space_group_name_H-M "P 42/M N M"
_symmetry_group_IT_number 136
_symmetry_cell_setting 'tetragonal'
loop_
_space_group_symop_operation_xyz
x,y,z
1/2-y,1/2+x,1/2+z
-x,-y,z
1/2+y,1/2-x,1/2+z
1/2+x,1/2-y,1/2-z
1/2-x,1/2+y,1/2-z
y,x,-z
-y,-x,-z
-x,-y,-z
1/2+y,1/2-x,1/2-z
x,y,-z
1/2-y,1/2+x,1/2-z
1/2-x,1/2+y,1/2+z
1/2+x,1/2-y,1/2+z
-y,-x,z
y,x,z
loop_
_atom_site_type_symbol
_atom_site_label
_atom_site_fract_x
_atom_site_fract_y
_atom_site_fract_z
Si Si1 0.254545 0.077678 0.347039
Si Si2 0.204552 0.367905 0.913035
Si Si3 0.996951 0.166204 0.800125
Si Si4 0.466914 0.165504 0.588905
O O1 0.170711 0.170711 0.366062
O O2 0.248763 0.043660 0.260120
O O3 0.373956 0.106116 0.367706
O O4 0.228569 0.972812 0.394239
O O5 0.265836 0.265836 0.877299
O O6 0.082118 0.380123 0.887750
O O7 0.203474 0.350327 0.000000
O O8 0.085472 0.085472 0.823829
O O9 0.962983 0.217278 0.878528
O O10 0.895454 0.104547 0.766012
O O11 0.446544 0.162100 0.500000
#
# Coordination Sequence:
#
# PCOD8318248 Si02
#       4
#    16  16  16  16
#     4  11  24  41  65  97 135 178 222 276 335 397
#     4  10  22  41  66  95 132 177 223 275 333 397
#     4  10  23  42  64  95 135 179 227 278 332 397
#     4  11  24  43  68  99 134 174 222 278 339 400
#
# _framework density 22.247847
#
# number of rings (size 3 to 8) (size 9 to 14) (size 15 to 20)
#    0.000    1.500    0.000    3.750    3.500    8.500 
#    0.000    2.500    0.000    0.000    0.000    0.000 
#    0.000    0.000    0.000    0.000    0.000    0.000 
#
# Total GULP energy -792841.980253 kJ/mol
# GULP energy per Si atom -12388.155941 kJ/mol
# Density = 2.219721 g / cm^3
# Si number density = 22.247847 Si / 1000 Ang^3
#
#
#
# Elastic Constant Matrix: (Units=GPa)
#
#
# Indices 1 2 3 4 5 6 
#
# 1 -8.0922 189.9593 39.6392 0.0000 0.0000 0.0000
# 2 189.9593 -8.0922 39.6392 0.0000 0.0000 0.0000
# 3 39.6392 39.6392 63.4494 0.0000 0.0000 0.0000
# 4 0.0000 0.0000 0.0000 34.3348 0.0000 0.0000
# 5 0.0000 0.0000 0.0000 0.0000 34.3348 0.0000
# 6 0.0000 0.0000 0.0000 0.0000 0.0000 8.0378
#
#
#
# Elastic Compliance Matrix: (Units=1/GPa)
#
#
# Indices 1 2 3 4 5 6 
#
# 1 0.001254 0.006303 -0.004721 0.000000 0.000000 0.000000
# 2 0.006303 0.001254 -0.004721 0.000000 0.000000 0.000000
# 3 -0.004721 -0.004721 0.021659 0.000000 0.000000 0.000000
# 4 0.000000 0.000000 0.000000 0.029125 0.000000 0.000000
# 5 0.000000 0.000000 0.000000 0.000000 0.029125 0.000000
# 6 0.000000 0.000000 0.000000 0.000000 0.000000 0.124412
#
#
# Mechanical properties :
#
#
# Convention : Reuss Voigt Hill
#
# Bulk Modulus (GPa) = 55.90089 65.08225 60.49157
# Shear Modulus (GPa) = 22.82389 0.54330 11.68359
#
# Velocity S-wave (km/s) = 3.20643 0.49470 2.29411
# Velocity P-wave (km/s) = 6.23612 5.44455 5.85373
#
# Compressibility (1/GPa) = 0.01788880
#
# Stress axis : x y z
#
# Youngs Moduli (GPa) = 797.71452 797.71452 46.17012
#
# Poissons Ratio (x) = -5.02781 0.21796
# Poissons Ratio (y) = -5.02781 0.21796
# Poissons Ratio (z) = 3.76580 3.76580
#
# Static dielectric constant tensor:
#      x y z
#    x 4.636160 0.000000 0.000000 
#    y 0.000000 4.636160 0.000000 
#    z 0.000000 0.000000 3.808020 
# 
# 
# High freq. dielectric constant tensor:
#      x y z
#    x 1.887740 0.000000 0.000000 
#    y 0.000000 1.887740 0.000000 
#    z 0.000000 0.000000 1.861090 
# 
# From -- ./inp_files/7044.got.cif
#   From: 2010.03.12/outbox.cif.g09.slc.cpg/sg136_4_cif.got.tgz:7044.got - 2010.04.06 18:39:43.
