data_PCOD8318595
_publ_section_title
;
Structure prediction by ZEFSAII (Michael W. Deem and Ramdas Pophale) SiO2 
 PCOD8318595
Probable space group: P 42/N M C
;
_chemical_formula_sum "Si O2"
_cell_formula_units_Z 80
_cell_length_a 23.273900
_cell_length_b 23.273900
_cell_length_c 8.779735
_cell_angle_alpha 90.000000
_cell_angle_beta 90.000000
_cell_angle_gamma 90.000000
_cell_volume 4755.757875
_symmetry_space_group_name_H-M "P 42/N M C"
_symmetry_group_IT_number 137
_space_group.IT_coordinate_system_code '2'
_symmetry_cell_setting 'tetragonal'
loop_
_space_group_symop_operation_xyz
x,y,z
1/2-y,x,1/2+z
1/2-x,1/2-y,z
y,1/2-x,1/2+z
1/2+x,-y,-z
-x,1/2+y,-z
1/2+y,1/2+x,1/2-z
-y,-x,1/2-z
-x,-y,-z
1/2+y,-x,1/2-z
1/2+x,1/2+y,-z
-y,1/2+x,1/2-z
1/2-x,y,z
x,1/2-y,z
1/2-y,1/2-x,1/2+z
y,x,1/2+z
loop_
_atom_site_type_symbol
_atom_site_label
_atom_site_fract_x
_atom_site_fract_y
_atom_site_fract_z
Si Si1 0.661590 0.750000 0.290209
Si Si2 0.626187 0.963622 0.569460
Si Si3 0.575154 0.750000 0.048016
Si Si4 0.126840 0.461686 0.068674
Si Si5 0.923284 0.750000 0.524387
Si Si6 0.846168 0.750000 0.784145
Si Si7 0.955749 0.045268 0.431972
O O1 0.597365 0.750000 0.221327
O O2 0.643728 0.750000 0.467295
O O3 0.694389 0.808002 0.247146
O O4 0.692698 0.961373 0.518842
O O5 0.591673 0.909466 0.499255
O O6 0.617798 0.962585 0.750509
O O7 0.605427 0.024739 0.499246
O O8 0.636235 0.750000 0.960390
O O9 0.193475 0.457672 0.024600
O O10 0.106586 0.522670 0.995756
O O11 0.908976 0.750000 0.704303
O O12 0.954923 0.045078 0.250000
O O13 0.000000 0.000000 0.500000
#
# Coordination Sequence:
#
# PCOD8318595 Si02
#       7
#     8  16   8  16   8   8  16
#     4  11  20  40  44  70  94 142 180 221 246 300
#     4  11  21  36  53  74 101 133 172 216 262 311
#     4  12  24  33  52  74 100 135 178 220 260 304
#     4  11  21  36  53  74 101 133 172 216 262 311
#     4  12  24  33  52  74 100 135 178 220 260 304
#     4  11  24  32  52  62 102 138 184 217 258 280
#     4  10  20  34  54  76  96 127 166 213 266 318
#
# _framework density 16.821714
#
# number of rings (size 3 to 8) (size 9 to 14) (size 15 to 20)
#    0.000    1.000    2.000    9.000    5.600    1.600 
#    0.000    0.000    0.000    0.000    0.000    0.000 
#    0.000    0.800    0.000    5.800    0.000    1.600 
#
# Total GULP energy -991528.502108 kJ/mol
# GULP energy per Si atom -12394.106276 kJ/mol
# Density = 1.678343 g / cm^3
# Si number density = 16.821714 Si / 1000 Ang^3
#
#
#
# Elastic Constant Matrix: (Units=GPa)
#
#
# Indices 1 2 3 4 5 6 
#
# 1 103.9787 68.8308 41.5562 0.0000 0.0000 0.0000
# 2 68.8308 103.9792 41.5564 0.0000 0.0000 0.0000
# 3 41.5562 41.5564 107.4951 0.0000 0.0000 0.0000
# 4 0.0000 0.0000 0.0000 24.1010 0.0000 0.0000
# 5 0.0000 0.0000 0.0000 0.0000 24.1009 0.0000
# 6 0.0000 0.0000 0.0000 0.0000 0.0000 19.0478
#
#
#
# Elastic Compliance Matrix: (Units=1/GPa)
#
#
# Indices 1 2 3 4 5 6 
#
# 1 0.017780 -0.010671 -0.002748 0.000000 0.000000 0.000000
# 2 -0.010671 0.017780 -0.002748 0.000000 0.000000 0.000000
# 3 -0.002748 -0.002748 0.011427 0.000000 0.000000 0.000000
# 4 0.000000 0.000000 0.000000 0.041492 0.000000 0.000000
# 5 0.000000 0.000000 0.000000 0.000000 0.041492 0.000000
# 6 0.000000 0.000000 0.000000 0.000000 0.000000 0.052500
#
#
# Mechanical properties :
#
#
# Convention : Reuss Voigt Hill
#
# Bulk Modulus (GPa) = 68.24941 68.81552 68.53247
# Shear Modulus (GPa) = 22.75942 24.35059 23.55500
#
# Velocity S-wave (km/s) = 3.68228 3.80882 3.74608
# Velocity P-wave (km/s) = 7.66415 7.76791 7.71620
#
# Compressibility (1/GPa) = 0.01465214
#
# Stress axis : x y z
#
# Youngs Moduli (GPa) = 56.24385 56.24407 87.50865
#
# Poissons Ratio (x) = 0.60020 0.24047
# Poissons Ratio (y) = 0.60020 0.24047
# Poissons Ratio (z) = 0.15456 0.15456
#
# Static dielectric constant tensor:
#      x y z
#    x 3.316620 0.000000 0.000000 
#    y 0.000000 3.316620 0.000000 
#    z 0.000000 0.000000 3.367910 
# 
# 
# High freq. dielectric constant tensor:
#      x y z
#    x 1.620070 0.000000 0.000000 
#    y 0.000000 1.620070 0.000000 
#    z 0.000000 0.000000 1.680660 
# 
# From -- ./inp_files/2100.got.cif
#   From: 2010.03.12/outbox.cif.g09.slc.cpg/sg137_2_cif.got.tgz:2100.got - 2010.04.08 09:34:49.
