data_PCOD8318091
_publ_section_title
;
Structure prediction by ZEFSAII (Michael W. Deem and Ramdas Pophale) SiO2 
 PCOD8318091
Probable space group: P 42/M N M
;
_chemical_formula_sum "Si O2"
_cell_formula_units_Z 64
_cell_length_a 17.041804
_cell_length_b 17.041804
_cell_length_c 8.803828
_cell_angle_alpha 90.000000
_cell_angle_beta 90.000000
_cell_angle_gamma 90.000000
_cell_volume 2556.834875
_symmetry_space_group_name_H-M "P 42/M N M"
_symmetry_group_IT_number 136
_symmetry_cell_setting 'tetragonal'
loop_
_space_group_symop_operation_xyz
x,y,z
1/2-y,1/2+x,1/2+z
-x,-y,z
1/2+y,1/2-x,1/2+z
1/2+x,1/2-y,1/2-z
1/2-x,1/2+y,1/2-z
y,x,-z
-y,-x,-z
-x,-y,-z
1/2+y,1/2-x,1/2-z
x,y,-z
1/2-y,1/2+x,1/2-z
1/2-x,1/2+y,1/2+z
1/2+x,1/2-y,1/2+z
-y,-x,z
y,x,z
loop_
_atom_site_type_symbol
_atom_site_label
_atom_site_fract_x
_atom_site_fract_y
_atom_site_fract_z
Si Si1 0.890633 0.456027 0.820702
Si Si2 0.626321 0.494515 0.169172
Si Si3 0.713599 0.838613 0.176817
Si Si4 0.399411 0.271898 0.664503
O O1 0.898374 0.538495 0.732115
O O2 0.806754 0.416737 0.774403
O O3 0.895281 0.471085 0.000000
O O4 0.583097 0.416904 0.235005
O O5 0.565713 0.565713 0.161254
O O6 0.700124 0.515000 0.276589
O O7 0.657786 0.477510 0.000000
O O8 0.795034 0.795034 0.228592
O O9 0.640917 0.780585 0.207444
O O10 0.716196 0.858953 0.000000
O O11 0.407730 0.228005 0.500000
O O12 0.349334 0.349334 0.637318
#
# Coordination Sequence:
#
# PCOD8318091 Si02
#       4
#    16  16  16  16
#     4  11  22  39  64  94 129 166 210 260 315 377
#     4   8  13  21  33  50  76 115 164 217 273 333
#     4  10  20  35  57  86 121 160 202 249 305 369
#     4   9  16  25  39  63  95 131 174 224 278 336
#
# _framework density 25.030946
#
# number of rings (size 3 to 8) (size 9 to 14) (size 15 to 20)
#    0.000    2.500    0.000    5.250    0.000    5.000 
#    0.000    2.500    0.000    1.500    0.000    0.000 
#    0.000    0.000    0.000    0.000    0.000    0.000 
#
# Total GULP energy -792985.900921 kJ/mol
# GULP energy per Si atom -12390.404702 kJ/mol
# Density = 2.497397 g / cm^3
# Si number density = 25.030946 Si / 1000 Ang^3
#
#
#
# Elastic Constant Matrix: (Units=GPa)
#
#
# Indices 1 2 3 4 5 6 
#
# 1 27.2603 52.0659 23.3566 0.0000 0.0000 0.0000
# 2 52.0659 27.2603 23.3566 0.0000 0.0000 0.0000
# 3 23.3566 23.3566 127.2042 0.0000 0.0000 0.0000
# 4 0.0000 0.0000 0.0000 29.9747 0.0000 0.0000
# 5 0.0000 0.0000 0.0000 0.0000 29.9747 0.0000
# 6 0.0000 0.0000 0.0000 0.0000 0.0000 55.7398
#
#
#
# Elastic Compliance Matrix: (Units=1/GPa)
#
#
# Indices 1 2 3 4 5 6 
#
# 1 -0.013090 0.027224 -0.002595 0.000000 0.000000 0.000000
# 2 0.027224 -0.013090 -0.002595 0.000000 0.000000 0.000000
# 3 -0.002595 -0.002595 0.008814 0.000000 0.000000 0.000000
# 4 0.000000 0.000000 0.000000 0.033361 0.000000 0.000000
# 5 0.000000 0.000000 0.000000 0.000000 0.033361 0.000000
# 6 0.000000 0.000000 0.000000 0.000000 0.000000 0.017941
#
#
# Mechanical properties :
#
#
# Convention : Reuss Voigt Hill
#
# Bulk Modulus (GPa) = 37.45009 42.14255 39.79632
# Shear Modulus (GPa) = 155.60472 28.66756 92.13614
#
# Velocity S-wave (km/s) = 7.89303 3.38788 6.07362
# Velocity P-wave (km/s) = 9.90255 5.67242 8.06960
#
# Compressibility (1/GPa) = 0.02670220
#
# Stress axis : x y z
#
# Youngs Moduli (GPa) = -76.39688 -76.39688 113.45012
#
# Poissons Ratio (x) = 2.07983 0.29444
# Poissons Ratio (y) = 2.07983 0.29444
# Poissons Ratio (z) = -0.19827 -0.19827
#
# Static dielectric constant tensor:
#      x y z
#    x 4.555660 0.000000 0.000000 
#    y 0.000000 4.555660 0.000000 
#    z 0.000000 0.000000 4.620640 
# 
# 
# High freq. dielectric constant tensor:
#      x y z
#    x 1.993430 0.000000 0.000000 
#    y 0.000000 1.993430 0.000000 
#    z 0.000000 0.000000 1.987450 
# 
# From -- ./inp_files/1426.got.cif
#   From: 2010.03.12/outbox.cif.g09.slc.cpg/sg136_1_cif.got.tgz:1426.got - 2010.04.06 18:39:43.
