data_PCOD8318685
_publ_section_title
;
Structure prediction by ZEFSAII (Michael W. Deem and Ramdas Pophale) SiO2 
 PCOD8318685
Probable space group: P 42/N M C
;
_chemical_formula_sum "Si O2"
_cell_formula_units_Z 96
_cell_length_a 21.773938
_cell_length_b 21.773938
_cell_length_c 10.334704
_cell_angle_alpha 90.000000
_cell_angle_beta 90.000000
_cell_angle_gamma 90.000000
_cell_volume 4899.728391
_symmetry_space_group_name_H-M "P 42/N M C"
_symmetry_group_IT_number 137
_space_group.IT_coordinate_system_code '2'
_symmetry_cell_setting 'tetragonal'
loop_
_space_group_symop_operation_xyz
x,y,z
1/2-y,x,1/2+z
1/2-x,1/2-y,z
y,1/2-x,1/2+z
1/2+x,-y,-z
-x,1/2+y,-z
1/2+y,1/2+x,1/2-z
-y,-x,1/2-z
-x,-y,-z
1/2+y,-x,1/2-z
1/2+x,1/2+y,-z
-y,1/2+x,1/2-z
1/2-x,y,z
x,1/2-y,z
1/2-y,1/2-x,1/2+z
y,x,1/2+z
loop_
_atom_site_type_symbol
_atom_site_label
_atom_site_fract_x
_atom_site_fract_y
_atom_site_fract_z
Si Si1 0.130650 0.381878 0.433615
Si Si2 0.500676 0.905658 0.939453
Si Si3 0.427003 0.516917 0.131262
Si Si4 0.320027 0.319558 0.188254
Si Si5 0.179973 0.579584 0.739242
Si Si6 0.992780 0.818448 0.522996
O O1 0.123112 0.455736 0.448130
O O2 0.162007 0.360579 0.566309
O O3 0.171191 0.365411 0.309196
O O4 0.064962 0.350676 0.408775
O O5 0.467339 0.852506 0.859663
O O6 0.542287 0.949628 0.846452
O O7 0.450682 0.950792 0.000741
O O8 0.438178 0.561823 0.250000
O O9 0.354234 0.509030 0.109626
O O10 0.250000 0.323632 0.143053
O O11 0.337218 0.250000 0.230732
O O12 0.143880 0.643880 0.750000
O O13 0.250000 0.591963 0.691997
O O14 0.181129 0.549792 0.880193
O O15 0.974689 0.750000 0.481481
#
# Coordination Sequence:
#
# PCOD8318685 Si02
#       6
#    16  16  16  16  16  16
#     4  11  23  36  58  87 116 154 196 247 292 347
#     4  10  22  36  58  88 119 150 190 239 301 353
#     4  10  21  35  60  85 119 154 188 231 286 354
#     4  11  23  39  56  76 113 161 204 243 285 341
#     4  11  22  40  63  89 120 152 197 251 310 364
#     4  10  21  37  60  86 117 152 189 239 291 351
#
# _framework density 19.592922000000002
#
# number of rings (size 3 to 8) (size 9 to 14) (size 15 to 20)
#    0.000    1.500    1.667    3.500    9.333    4.167 
#    0.000    0.833    0.000    0.000    0.000    0.000 
#    0.000    0.000    0.000    0.000    0.000    0.000 
#
# Total GULP energy -1190450.848297 kJ/mol
# GULP energy per Si atom -12400.529670 kJ/mol
# Density = 1.954833 g / cm^3
# Si number density = 19.592922 Si / 1000 Ang^3
#
#
#
# Elastic Constant Matrix: (Units=GPa)
#
#
# Indices 1 2 3 4 5 6 
#
# 1 111.8975 36.6466 14.1430 0.0000 0.0000 0.0000
# 2 36.6466 111.8972 14.1428 0.0000 0.0000 0.0000
# 3 14.1430 14.1428 53.6512 0.0000 0.0000 0.0000
# 4 0.0000 0.0000 0.0000 30.5480 0.0000 0.0000
# 5 0.0000 0.0000 0.0000 0.0000 30.5483 0.0000
# 6 0.0000 0.0000 0.0000 0.0000 0.0000 29.4941
#
#
#
# Elastic Compliance Matrix: (Units=1/GPa)
#
#
# Indices 1 2 3 4 5 6 
#
# 1 0.010188 -0.003101 -0.001868 0.000000 0.000000 0.000000
# 2 -0.003101 0.010188 -0.001868 0.000000 0.000000 0.000000
# 3 -0.001868 -0.001868 0.019624 0.000000 0.000000 0.000000
# 4 0.000000 0.000000 0.000000 0.032735 0.000000 0.000000
# 5 0.000000 0.000000 0.000000 0.000000 0.032735 0.000000
# 6 0.000000 0.000000 0.000000 0.000000 0.000000 0.033905
#
#
# Mechanical properties :
#
#
# Convention : Reuss Voigt Hill
#
# Bulk Modulus (GPa) = 37.98534 45.25674 41.62104
# Shear Modulus (GPa) = 30.89734 32.28564 31.59149
#
# Velocity S-wave (km/s) = 3.97541 4.06374 4.01982
# Velocity P-wave (km/s) = 6.36406 6.72066 6.54479
#
# Compressibility (1/GPa) = 0.02632595
#
# Stress axis : x y z
#
# Youngs Moduli (GPa) = 98.15147 98.15127 50.95811
#
# Poissons Ratio (x) = 0.30432 0.09521
# Poissons Ratio (y) = 0.30432 0.09521
# Poissons Ratio (z) = 0.18339 0.18338
#
# Static dielectric constant tensor:
#      x y z
#    x 3.712360 0.000000 0.000000 
#    y 0.000000 3.712360 0.000000 
#    z 0.000000 0.000000 3.303210 
# 
# 
# High freq. dielectric constant tensor:
#      x y z
#    x 1.761730 0.000000 0.000000 
#    y 0.000000 1.761730 0.000000 
#    z 0.000000 0.000000 1.750440 
# 
# From -- ./inp_files/3777.got.cif
#   From: 2010.03.12/outbox.cif.g09.slc.cpg/sg137_2_cif.got.tgz:3777.got - 2010.04.08 09:34:49.
