data_PCOD8318412
_publ_section_title
;
Structure prediction by ZEFSAII (Michael W. Deem and Ramdas Pophale) SiO2 
 PCOD8318412
Probable space group: P 42/N M C
;
_chemical_formula_sum "Si O2"
_cell_formula_units_Z 96
_cell_length_a 17.990584
_cell_length_b 17.990584
_cell_length_c 17.180124
_cell_angle_alpha 90.000000
_cell_angle_beta 90.000000
_cell_angle_gamma 90.000000
_cell_volume 5560.538049
_symmetry_space_group_name_H-M "P 42/N M C"
_symmetry_group_IT_number 137
_space_group.IT_coordinate_system_code '2'
_symmetry_cell_setting 'tetragonal'
loop_
_space_group_symop_operation_xyz
x,y,z
1/2-y,x,1/2+z
1/2-x,1/2-y,z
y,1/2-x,1/2+z
1/2+x,-y,-z
-x,1/2+y,-z
1/2+y,1/2+x,1/2-z
-y,-x,1/2-z
-x,-y,-z
1/2+y,-x,1/2-z
1/2+x,1/2+y,-z
-y,1/2+x,1/2-z
1/2-x,y,z
x,1/2-y,z
1/2-y,1/2-x,1/2+z
y,x,1/2+z
loop_
_atom_site_type_symbol
_atom_site_label
_atom_site_fract_x
_atom_site_fract_y
_atom_site_fract_z
Si Si1 0.335456 0.044457 0.620755
Si Si2 0.169521 0.018138 0.912998
Si Si3 0.428559 0.552931 0.507285
Si Si4 0.359738 0.329623 0.978973
Si Si5 0.553581 0.567089 0.730039
Si Si6 0.995983 0.167150 0.875039
O O1 0.250000 0.021655 0.639233
O O2 0.338412 0.119012 0.569324
O O3 0.377987 0.068429 0.698798
O O4 0.375144 0.975800 0.576622
O O5 0.250000 0.987582 0.887083
O O6 0.185679 0.099075 0.951331
O O7 0.114968 0.023357 0.841001
O O8 0.134805 0.959501 0.973677
O O9 0.500000 0.500000 0.500000
O O10 0.385025 0.560775 0.424474
O O11 0.317081 0.250000 0.966976
O O12 0.435473 0.325269 0.932105
O O13 0.490978 0.509022 0.750000
O O14 0.628183 0.522026 0.705421
O O15 0.963416 0.250000 0.856922
#
# Coordination Sequence:
#
# PCOD8318412 Si02
#       6
#    16  16  16  16  16  16
#     4  10  18  30  52  77 103 138 174 213 259 308
#     4  11  21  31  49  79 110 137 174 218 264 312
#     4  11  16  33  55  77  99 133 181 224 251 298
#     4   8  16  31  50  73 102 138 173 207 255 312
#     4  11  19  32  53  78 108 140 175 214 254 311
#     4   9  18  32  54  77 100 131 173 219 264 306
#
# _framework density 17.264517000000001
#
# number of rings (size 3 to 8) (size 9 to 14) (size 15 to 20)
#    0.000    2.000    6.667    2.000    0.000    0.333 
#    0.000    0.833    0.000    4.500    0.000    1.167 
#    0.000    0.000    0.000    0.000    0.000    0.000 
#
# Total GULP energy -1189404.556435 kJ/mol
# GULP energy per Si atom -12389.630796 kJ/mol
# Density = 1.722522 g / cm^3
# Si number density = 17.264517 Si / 1000 Ang^3
#
#
#
# Elastic Constant Matrix: (Units=GPa)
#
#
# Indices 1 2 3 4 5 6 
#
# 1 92.5569 44.3540 43.7837 0.0000 0.0000 0.0000
# 2 44.3540 92.5569 43.7837 0.0000 0.0000 0.0000
# 3 43.7837 43.7837 90.7505 0.0000 0.0000 0.0000
# 4 0.0000 0.0000 0.0000 10.1462 0.0000 0.0000
# 5 0.0000 0.0000 0.0000 0.0000 10.1462 0.0000
# 6 0.0000 0.0000 0.0000 0.0000 0.0000 4.3958
#
#
#
# Elastic Compliance Matrix: (Units=1/GPa)
#
#
# Indices 1 2 3 4 5 6 
#
# 1 0.015655 -0.005091 -0.005097 0.000000 0.000000 0.000000
# 2 -0.005091 0.015655 -0.005097 0.000000 0.000000 0.000000
# 3 -0.005097 -0.005097 0.015937 0.000000 0.000000 0.000000
# 4 0.000000 0.000000 0.000000 0.098559 0.000000 0.000000
# 5 0.000000 0.000000 0.000000 0.000000 0.098559 0.000000
# 6 0.000000 0.000000 0.000000 0.000000 0.000000 0.227491
#
#
# Mechanical properties :
#
#
# Convention : Reuss Voigt Hill
#
# Bulk Modulus (GPa) = 59.95868 59.96744 59.96306
# Shear Modulus (GPa) = 9.84285 14.53384 12.18835
#
# Velocity S-wave (km/s) = 2.39031 2.90458 2.65990
# Velocity P-wave (km/s) = 6.51329 6.78666 6.65138
#
# Compressibility (1/GPa) = 0.01667815
#
# Stress axis : x y z
#
# Youngs Moduli (GPa) = 63.87851 63.87851 62.74674
#
# Poissons Ratio (x) = 0.32520 0.31980
# Poissons Ratio (y) = 0.32520 0.31980
# Poissons Ratio (z) = 0.32557 0.32557
#
# Static dielectric constant tensor:
#      x y z
#    x 3.411050 0.000000 0.000000 
#    y 0.000000 3.411050 0.000000 
#    z 0.000000 0.000000 3.379120 
# 
# 
# High freq. dielectric constant tensor:
#      x y z
#    x 1.651670 0.000000 0.000000 
#    y 0.000000 1.651670 0.000000 
#    z 0.000000 0.000000 1.662610 
# 
# From -- ./inp_files/6480.got.cif
#   From: 2010.03.12/outbox.cif.g09.slc.cpg/sg137_4_cif.got.tgz:6480.got - 2010.04.08 09:34:49.
