data_PCOD8318949
_publ_section_title
;
Structure prediction by ZEFSAII (Michael W. Deem and Ramdas Pophale) SiO2 
 PCOD8318949
Probable space group: P 42/N C M
;
_chemical_formula_sum "Si O2"
_cell_formula_units_Z 112
_cell_length_a 14.300388
_cell_length_b 14.300388
_cell_length_c 28.014884
_cell_angle_alpha 90.000000
_cell_angle_beta 90.000000
_cell_angle_gamma 90.000000
_cell_volume 5729.074509
_symmetry_space_group_name_H-M "P 42/N C M"
_symmetry_group_IT_number 138
_space_group.IT_coordinate_system_code '2'
_symmetry_cell_setting 'tetragonal'
loop_
_space_group_symop_operation_xyz
x,y,z
1/2-y,x,1/2+z
1/2-x,1/2-y,z
y,1/2-x,1/2+z
1/2+x,-y,1/2-z
-x,1/2+y,1/2-z
1/2+y,1/2+x,-z
-y,-x,-z
-x,-y,-z
1/2+y,-x,1/2-z
1/2+x,1/2+y,-z
-y,1/2+x,1/2-z
1/2-x,y,1/2+z
x,1/2-y,1/2+z
1/2-y,1/2-x,z
y,x,z
loop_
_atom_site_type_symbol
_atom_site_label
_atom_site_fract_x
_atom_site_fract_y
_atom_site_fract_z
Si Si1 0.808223 0.452540 0.114934
Si Si2 0.868884 0.017196 0.246610
Si Si3 0.846181 0.496744 0.012126
Si Si4 0.326440 0.678100 0.177696
Si Si5 0.395409 0.251346 0.316408
Si Si6 0.462885 0.817079 0.854758
Si Si7 0.250846 0.400077 0.068491
O O1 0.787701 0.475791 0.060013
O O2 0.726096 0.391846 0.138444
O O3 0.807022 0.550849 0.142294
O O4 0.908345 0.399884 0.117499
O O5 0.867293 0.120001 0.222972
O O6 0.859443 0.017828 0.303007
O O7 0.779408 0.963475 0.225898
O O8 0.965722 0.965722 0.232881
O O9 0.918102 0.581899 0.019910
O O10 0.902595 0.402595 0.000000
O O11 0.767067 0.521269 0.972324
O O12 0.250000 0.750000 0.198660
O O13 0.276713 0.596989 0.148376
O O14 0.338506 0.161495 0.337452
O O15 0.323482 0.323482 0.292537
O O16 0.557122 0.785230 0.881317
O O17 0.186401 0.313600 0.055470
O O18 0.358180 0.358180 0.070725
#
# Coordination Sequence:
#
# PCOD8318949 Si02
#       7
#    16  16  16  16  16  16  16
#     4  10  20  36  58  84 111 144 190 238 288 340
#     4  10  22  36  54  83 115 151 198 241 283 339
#     4  10  19  34  59  85 110 142 186 240 287 336
#     4   9  22  37  58  82 114 154 195 240 287 344
#     4   9  19  35  53  79 114 146 182 235 293 344
#     4  11  22  36  57  82 115 154 196 238 285 342
#     4  10  22  39  58  85 119 151 187 234 293 358
#
# _framework density 19.549406000000001
#
# number of rings (size 3 to 8) (size 9 to 14) (size 15 to 20)
#    0.000    2.143    1.429    0.857    6.000    3.429 
#    0.000    3.571    0.000    0.857    0.000    0.000 
#    0.000    0.000    0.000    0.000    0.000    0.000 
#
# Total GULP energy -1388187.719367 kJ/mol
# GULP energy per Si atom -12394.533209 kJ/mol
# Density = 1.950491 g / cm^3
# Si number density = 19.549406 Si / 1000 Ang^3
#
#
#
# Elastic Constant Matrix: (Units=GPa)
#
#
# Indices 1 2 3 4 5 6 
#
# 1 75.8622 35.2926 26.5529 0.0000 0.0000 0.0000
# 2 35.2926 75.8622 26.5529 0.0000 0.0000 0.0000
# 3 26.5529 26.5529 108.1633 0.0000 0.0000 0.0000
# 4 0.0000 0.0000 0.0000 23.1156 0.0000 0.0000
# 5 0.0000 0.0000 0.0000 0.0000 23.1156 0.0000
# 6 0.0000 0.0000 0.0000 0.0000 0.0000 33.2154
#
#
#
# Elastic Compliance Matrix: (Units=1/GPa)
#
#
# Indices 1 2 3 4 5 6 
#
# 1 0.017420 -0.007229 -0.002502 0.000000 0.000000 0.000000
# 2 -0.007229 0.017420 -0.002502 0.000000 0.000000 0.000000
# 3 -0.002502 -0.002502 0.010474 0.000000 0.000000 0.000000
# 4 0.000000 0.000000 0.000000 0.043261 0.000000 0.000000
# 5 0.000000 0.000000 0.000000 0.000000 0.043261 0.000000
# 6 0.000000 0.000000 0.000000 0.000000 0.000000 0.030106
#
#
# Mechanical properties :
#
#
# Convention : Reuss Voigt Hill
#
# Bulk Modulus (GPa) = 47.96297 48.52050 48.24174
# Shear Modulus (GPa) = 25.85883 27.32195 26.59039
#
# Velocity S-wave (km/s) = 3.64090 3.74248 3.69204
# Velocity P-wave (km/s) = 6.50095 6.59911 6.55021
#
# Compressibility (1/GPa) = 0.02084942
#
# Stress axis : x y z
#
# Youngs Moduli (GPa) = 57.40393 57.40393 95.47718
#
# Poissons Ratio (x) = 0.41495 0.23888
# Poissons Ratio (y) = 0.41495 0.23888
# Poissons Ratio (z) = 0.14362 0.14362
#
# Static dielectric constant tensor:
#      x y z
#    x 3.718420 0.000000 0.000000 
#    y 0.000000 3.718420 0.000000 
#    z 0.000000 0.000000 3.431580 
# 
# 
# High freq. dielectric constant tensor:
#      x y z
#    x 1.758330 0.000000 0.000000 
#    y 0.000000 1.758330 0.000000 
#    z 0.000000 0.000000 1.753420 
# 
# From -- ./inp_files/7078.got.cif
#   From: 2010.03.12/outbox.cif.g09.slc.cpg/sg138_4_cif.got.tgz:7078.got - 2010.04.08 09:41:05.
