data_PCOD8318167
_publ_section_title
;
Structure prediction by ZEFSAII (Michael W. Deem and Ramdas Pophale) SiO2 
 PCOD8318167
Probable space group: P 42/M N M
;
_chemical_formula_sum "Si O2"
_cell_formula_units_Z 80
_cell_length_a 13.601812
_cell_length_b 13.601812
_cell_length_c 21.735031
_cell_angle_alpha 90.000000
_cell_angle_beta 90.000000
_cell_angle_gamma 90.000000
_cell_volume 4021.182647
_symmetry_space_group_name_H-M "P 42/M N M"
_symmetry_group_IT_number 136
_symmetry_cell_setting 'tetragonal'
loop_
_space_group_symop_operation_xyz
x,y,z
1/2-y,1/2+x,1/2+z
-x,-y,z
1/2+y,1/2-x,1/2+z
1/2+x,1/2-y,1/2-z
1/2-x,1/2+y,1/2-z
y,x,-z
-y,-x,-z
-x,-y,-z
1/2+y,1/2-x,1/2-z
x,y,-z
1/2-y,1/2+x,1/2-z
1/2-x,1/2+y,1/2+z
1/2+x,1/2-y,1/2+z
-y,-x,z
y,x,z
loop_
_atom_site_type_symbol
_atom_site_label
_atom_site_fract_x
_atom_site_fract_y
_atom_site_fract_z
Si Si1 0.695065 0.147851 0.376223
Si Si2 0.217062 0.495658 0.569591
Si Si3 0.343342 0.496302 0.318571
Si Si4 0.548741 0.101365 0.865119
Si Si5 0.715415 0.872204 0.253587
O O1 0.800972 0.199029 0.393513
O O2 0.610740 0.198672 0.416814
O O3 0.676499 0.160932 0.303945
O O4 0.684919 0.029865 0.387784
O O5 0.254081 0.483015 0.500000
O O6 0.299864 0.458621 0.616752
O O7 0.119812 0.428337 0.578501
O O8 0.405849 0.594152 0.332503
O O9 0.409661 0.409661 0.290195
O O10 0.260361 0.522841 0.268471
O O11 0.613072 0.139685 0.808463
O O12 0.500000 0.000000 0.841372
O O13 0.801405 0.801405 0.278424
#
# Coordination Sequence:
#
# PCOD8318167 Si02
#       5
#    16  16  16  16  16
#     4   9  20  34  51  76 102 137 185 231 274 326
#     4  10  21  36  52  76 112 147 179 226 282 331
#     4   9  19  35  54  79 110 146 187 228 272 333
#     4  10  22  33  53  79 108 144 189 231 277 329
#     4   9  19  34  50  74 108 140 174 222 280 328
#
# _framework density 19.894642999999999
#
# number of rings (size 3 to 8) (size 9 to 14) (size 15 to 20)
#    0.000    2.600    0.000    1.800    8.400    7.200 
#    0.000    1.000    0.000    0.000    0.000    0.000 
#    0.000    0.000    0.000   16.000    0.000    0.000 
#
# Total GULP energy -991473.648571 kJ/mol
# GULP energy per Si atom -12393.420607 kJ/mol
# Density = 1.984936 g / cm^3
# Si number density = 19.894643 Si / 1000 Ang^3
#
#
#
# Elastic Constant Matrix: (Units=GPa)
#
#
# Indices 1 2 3 4 5 6 
#
# 1 64.8073 20.3821 12.6605 0.0000 0.0000 0.0000
# 2 20.3821 64.8073 12.6605 0.0000 0.0000 0.0000
# 3 12.6605 12.6605 67.3578 0.0000 0.0000 0.0000
# 4 0.0000 0.0000 0.0000 15.1361 0.0000 0.0000
# 5 0.0000 0.0000 0.0000 0.0000 15.1361 0.0000
# 6 0.0000 0.0000 0.0000 0.0000 0.0000 34.1160
#
#
#
# Elastic Compliance Matrix: (Units=1/GPa)
#
#
# Indices 1 2 3 4 5 6 
#
# 1 0.017471 -0.005038 -0.002337 0.000000 0.000000 0.000000
# 2 -0.005038 0.017471 -0.002337 0.000000 0.000000 0.000000
# 3 -0.002337 -0.002337 0.015725 0.000000 0.000000 0.000000
# 4 0.000000 0.000000 0.000000 0.066067 0.000000 0.000000
# 5 0.000000 0.000000 0.000000 0.000000 0.066067 0.000000
# 6 0.000000 0.000000 0.000000 0.000000 0.000000 0.029312
#
#
# Mechanical properties :
#
#
# Convention : Reuss Voigt Hill
#
# Bulk Modulus (GPa) = 32.00697 32.04208 32.02452
# Shear Modulus (GPa) = 20.66525 22.96228 21.81377
#
# Velocity S-wave (km/s) = 3.22644 3.40103 3.31488
# Velocity P-wave (km/s) = 5.47750 5.61814 5.54827
#
# Compressibility (1/GPa) = 0.03124319
#
# Stress axis : x y z
#
# Youngs Moduli (GPa) = 57.23618 57.23618 63.59471
#
# Poissons Ratio (x) = 0.28837 0.14862
# Poissons Ratio (y) = 0.28837 0.14862
# Poissons Ratio (z) = 0.13376 0.13376
#
# Static dielectric constant tensor:
#      x y z
#    x 3.718910 0.000000 0.000000 
#    y 0.000000 3.718910 0.000000 
#    z 0.000000 0.000000 3.192180 
# 
# 
# High freq. dielectric constant tensor:
#      x y z
#    x 1.769560 0.000000 0.000000 
#    y 0.000000 1.769560 0.000000 
#    z 0.000000 0.000000 1.738720 
# 
# From -- ./inp_files/7266.got.cif
#   From: 2010.03.12/outbox.cif.g09.slc.cpg/sg136_4_cif.got.tgz:7266.got - 2010.04.06 18:39:43.
