data_PCOD8318647
_publ_section_title
;
Structure prediction by ZEFSAII (Michael W. Deem and Ramdas Pophale) SiO2 
 PCOD8318647
Probable space group: P 42/N M C
;
_chemical_formula_sum "Si O2"
_cell_formula_units_Z 96
_cell_length_a 21.606605
_cell_length_b 21.606605
_cell_length_c 11.646103
_cell_angle_alpha 90.000000
_cell_angle_beta 90.000000
_cell_angle_gamma 90.000000
_cell_volume 5436.929376
_symmetry_space_group_name_H-M "P 42/N M C"
_symmetry_group_IT_number 137
_space_group.IT_coordinate_system_code '2'
_symmetry_cell_setting 'tetragonal'
loop_
_space_group_symop_operation_xyz
x,y,z
1/2-y,x,1/2+z
1/2-x,1/2-y,z
y,1/2-x,1/2+z
1/2+x,-y,-z
-x,1/2+y,-z
1/2+y,1/2+x,1/2-z
-y,-x,1/2-z
-x,-y,-z
1/2+y,-x,1/2-z
1/2+x,1/2+y,-z
-y,1/2+x,1/2-z
1/2-x,y,z
x,1/2-y,z
1/2-y,1/2-x,1/2+z
y,x,1/2+z
loop_
_atom_site_type_symbol
_atom_site_label
_atom_site_fract_x
_atom_site_fract_y
_atom_site_fract_z
Si Si1 0.821569 0.418117 0.227730
Si Si2 0.179947 0.988706 0.000091
Si Si3 0.180253 0.389916 0.857089
Si Si4 0.821656 0.561616 0.601191
Si Si5 0.406822 0.004244 0.205345
Si Si6 0.036650 0.367001 0.151099
O O1 0.850879 0.350879 0.250000
O O2 0.750000 0.416902 0.264351
O O3 0.858033 0.467067 0.305585
O O4 0.828772 0.435303 0.094113
O O5 0.250000 0.988725 0.046922
O O6 0.133783 0.975129 0.103641
O O7 0.164390 0.055310 0.945603
O O8 0.250000 0.365769 0.872163
O O9 0.135061 0.333011 0.883926
O O10 0.172043 0.415277 0.728051
O O11 0.750000 0.547390 0.623034
O O12 0.862162 0.524985 0.692909
O O13 0.841655 0.539630 0.476566
O O14 0.447600 0.060530 0.156738
O O15 0.451347 0.951347 0.250000
#
# Coordination Sequence:
#
# PCOD8318647 Si02
#       6
#    16  16  16  16  16  16
#     4  10  21  36  59  83 107 142 179 225 279 334
#     4   9  18  37  57  76 108 146 181 219 273 326
#     4   9  18  35  56  76 107 146 182 220 262 319
#     4  11  22  35  54  80 112 147 185 230 271 318
#     4  11  23  35  55  83 111 146 186 230 274 331
#     4  10  20  37  54  81 112 141 178 226 284 318
#
# _framework density 17.657025999999998
#
# number of rings (size 3 to 8) (size 9 to 14) (size 15 to 20)
#    0.000    2.000    1.667    3.500    2.333    1.167 
#    0.000    0.000    0.000    2.000    0.000    0.000 
#    0.000    3.000    0.000    0.000    0.000    0.000 
#
# Total GULP energy -1190671.981819 kJ/mol
# GULP energy per Si atom -12402.833144 kJ/mol
# Density = 1.761684 g / cm^3
# Si number density = 17.657026 Si / 1000 Ang^3
#
#
#
# Elastic Constant Matrix: (Units=GPa)
#
#
# Indices 1 2 3 4 5 6 
#
# 1 90.7998 63.4536 32.6043 0.0000 0.0000 0.0000
# 2 63.4536 90.7998 32.6043 0.0000 0.0000 0.0000
# 3 32.6043 32.6043 63.6181 0.0000 0.0000 0.0000
# 4 0.0000 0.0000 0.0000 23.7742 0.0000 0.0000
# 5 0.0000 0.0000 0.0000 0.0000 23.7742 0.0000
# 6 0.0000 0.0000 0.0000 0.0000 0.0000 25.6083
#
#
#
# Elastic Compliance Matrix: (Units=1/GPa)
#
#
# Indices 1 2 3 4 5 6 
#
# 1 0.022422 -0.014146 -0.004241 0.000000 0.000000 0.000000
# 2 -0.014146 0.022422 -0.004241 0.000000 0.000000 0.000000
# 3 -0.004241 -0.004241 0.020066 0.000000 0.000000 0.000000
# 4 0.000000 0.000000 0.000000 0.042062 0.000000 0.000000
# 5 0.000000 0.000000 0.000000 0.000000 0.042062 0.000000
# 6 0.000000 0.000000 0.000000 0.000000 0.000000 0.039050
#
#
# Mechanical properties :
#
#
# Convention : Reuss Voigt Hill
#
# Bulk Modulus (GPa) = 50.88440 55.83803 53.36121
# Shear Modulus (GPa) = 20.84259 22.40171 21.62215
#
# Velocity S-wave (km/s) = 3.43944 3.56576 3.50317
# Velocity P-wave (km/s) = 6.68235 6.97461 6.83005
#
# Compressibility (1/GPa) = 0.01965239
#
# Stress axis : x y z
#
# Youngs Moduli (GPa) = 44.59910 44.59910 49.83500
#
# Poissons Ratio (x) = 0.63091 0.21137
# Poissons Ratio (y) = 0.63091 0.21137
# Poissons Ratio (z) = 0.18916 0.18916
#
# Static dielectric constant tensor:
#      x y z
#    x 3.176260 0.000000 0.000000 
#    y 0.000000 3.176260 0.000000 
#    z 0.000000 0.000000 3.310460 
# 
# 
# High freq. dielectric constant tensor:
#      x y z
#    x 1.674150 0.000000 0.000000 
#    y 0.000000 1.674150 0.000000 
#    z 0.000000 0.000000 1.689230 
# 
# From -- ./inp_files/3733.got.cif
#   From: 2010.03.12/outbox.cif.g09.slc.cpg/sg137_2_cif.got.tgz:3733.got - 2010.04.08 09:34:49.
