data_PCOD8318034
_publ_section_title
;
Structure prediction by ZEFSAII (Michael W. Deem and Ramdas Pophale) SiO2 
 PCOD8318034
Probable space group: P 42/M N M
;
_chemical_formula_sum "Si O2"
_cell_formula_units_Z 96
_cell_length_a 24.046622
_cell_length_b 24.046622
_cell_length_c 9.205663
_cell_angle_alpha 90.000000
_cell_angle_beta 90.000000
_cell_angle_gamma 90.000000
_cell_volume 5323.082846
_symmetry_space_group_name_H-M "P 42/M N M"
_symmetry_group_IT_number 136
_symmetry_cell_setting 'tetragonal'
loop_
_space_group_symop_operation_xyz
x,y,z
1/2-y,1/2+x,1/2+z
-x,-y,z
1/2+y,1/2-x,1/2+z
1/2+x,1/2-y,1/2-z
1/2-x,1/2+y,1/2-z
y,x,-z
-y,-x,-z
-x,-y,-z
1/2+y,1/2-x,1/2-z
x,y,-z
1/2-y,1/2+x,1/2-z
1/2-x,1/2+y,1/2+z
1/2+x,1/2-y,1/2+z
-y,-x,z
y,x,z
loop_
_atom_site_type_symbol
_atom_site_label
_atom_site_fract_x
_atom_site_fract_y
_atom_site_fract_z
Si Si1 0.550896 0.639041 0.331315
Si Si2 0.993914 0.578608 0.670740
Si Si3 0.202170 0.480225 0.166872
Si Si4 0.259108 0.259108 0.326818
Si Si5 0.749390 0.616109 0.670273
Si Si6 0.810087 0.954243 0.328983
Si Si7 0.670108 0.329892 0.172867
O O1 0.535848 0.642481 0.500000
O O2 0.580856 0.580856 0.292977
O O3 0.593297 0.688391 0.288761
O O4 0.493457 0.642973 0.242611
O O5 0.051036 0.557192 0.743417
O O6 0.992634 0.562999 0.500000
O O7 0.989116 0.644202 0.694759
O O8 0.204439 0.422753 0.255450
O O9 0.249567 0.523281 0.217508
O O10 0.210231 0.463992 0.000000
O O11 0.259287 0.259287 0.500000
O O12 0.320986 0.243743 0.271093
O O13 0.214643 0.214643 0.264538
O O14 0.759960 0.614045 0.500000
O O15 0.819776 0.955879 0.500000
O O16 0.814831 0.891428 0.270007
O O17 0.672265 0.327736 0.000000
#
# Coordination Sequence:
#
# PCOD8318034 Si02
#       7
#    16  16  16   8  16  16   8
#     4   9  16  29  50  74  99 123 152 199 249 289
#     4  10  20  34  51  71  97 128 164 206 249 294
#     4   9  19  33  49  72 102 130 160 201 248 297
#     4   9  16  28  49  76 100 126 163 208 251 289
#     4   9  16  28  49  76 101 124 160 203 243 293
#     4   9  18  33  50  70  96 128 165 198 237 289
#     4   9  18  32  50  70  97 132 167 203 236 279
#
# _framework density 18.034661
#
# number of rings (size 3 to 8) (size 9 to 14) (size 15 to 20)
#    0.000    2.833    0.833    1.000    0.000    3.000 
#    0.000    4.583    0.000    4.500    0.000    0.000 
#    0.000    0.000    0.000    0.000    0.000    0.000 
#
# Total GULP energy -1190199.165125 kJ/mol
# GULP energy per Si atom -12397.907970 kJ/mol
# Density = 1.799361 g / cm^3
# Si number density = 18.034661 Si / 1000 Ang^3
#
#
#
# Elastic Constant Matrix: (Units=GPa)
#
#
# Indices 1 2 3 4 5 6 
#
# 1 120.7148 52.4157 29.0217 0.0000 0.0000 0.0000
# 2 52.4157 120.7147 29.0216 0.0000 0.0000 0.0000
# 3 29.0217 29.0216 41.4898 0.0000 0.0000 0.0000
# 4 0.0000 0.0000 0.0000 23.7277 0.0000 0.0000
# 5 0.0000 0.0000 0.0000 0.0000 23.7277 0.0000
# 6 0.0000 0.0000 0.0000 0.0000 0.0000 21.2317
#
#
#
# Elastic Compliance Matrix: (Units=1/GPa)
#
#
# Indices 1 2 3 4 5 6 
#
# 1 0.011093 -0.003548 -0.005278 0.000000 0.000000 0.000000
# 2 -0.003548 0.011093 -0.005278 0.000000 0.000000 0.000000
# 3 -0.005278 -0.005278 0.031486 0.000000 0.000000 0.000000
# 4 0.000000 0.000000 0.000000 0.042145 0.000000 0.000000
# 5 0.000000 0.000000 0.000000 0.000000 0.042145 0.000000
# 6 0.000000 0.000000 0.000000 0.000000 0.000000 0.047099
#
#
# Mechanical properties :
#
#
# Convention : Reuss Voigt Hill
#
# Bulk Modulus (GPa) = 39.26938 55.98191 47.62565
# Shear Modulus (GPa) = 22.54708 25.23480 23.89094
#
# Velocity S-wave (km/s) = 3.53966 3.74470 3.64362
# Velocity P-wave (km/s) = 6.20704 7.05731 6.64579
#
# Compressibility (1/GPa) = 0.02546514
#
# Stress axis : x y z
#
# Youngs Moduli (GPa) = 90.14303 90.14309 31.76010
#
# Poissons Ratio (x) = 0.31983 0.16763
# Poissons Ratio (y) = 0.31983 0.16763
# Poissons Ratio (z) = 0.47577 0.47577
#
# Static dielectric constant tensor:
#      x y z
#    x 3.391140 0.000000 0.000000 
#    y 0.000000 3.391150 0.000000 
#    z 0.000000 0.000000 3.144910 
# 
# 
# High freq. dielectric constant tensor:
#      x y z
#    x 1.694390 0.000000 0.000000 
#    y 0.000000 1.694390 0.000000 
#    z 0.000000 0.000000 1.675850 
# 
# From -- ./inp_files/2059.got.cif
#   From: 2010.03.12/outbox.cif.g09.slc.cpg/sg136_2_cif.got.tgz:2059.got - 2010.04.06 18:39:43.
