data_PCOD8318225
_publ_section_title
;
Structure prediction by ZEFSAII (Michael W. Deem and Ramdas Pophale) SiO2 
 PCOD8318225
Probable space group: P 42/M N M
;
_chemical_formula_sum "Si O2"
_cell_formula_units_Z 120
_cell_length_a 26.835147
_cell_length_b 26.835147
_cell_length_c 7.992042
_cell_angle_alpha 90.000000
_cell_angle_beta 90.000000
_cell_angle_gamma 90.000000
_cell_volume 5755.270160
_symmetry_space_group_name_H-M "P 42/M N M"
_symmetry_group_IT_number 136
_symmetry_cell_setting 'tetragonal'
loop_
_space_group_symop_operation_xyz
x,y,z
1/2-y,1/2+x,1/2+z
-x,-y,z
1/2+y,1/2-x,1/2+z
1/2+x,1/2-y,1/2-z
1/2-x,1/2+y,1/2-z
y,x,-z
-y,-x,-z
-x,-y,-z
1/2+y,1/2-x,1/2-z
x,y,-z
1/2-y,1/2+x,1/2-z
1/2-x,1/2+y,1/2+z
1/2+x,1/2-y,1/2+z
-y,-x,z
y,x,z
loop_
_atom_site_type_symbol
_atom_site_label
_atom_site_fract_x
_atom_site_fract_y
_atom_site_fract_z
Si Si1 0.500370 0.582738 0.500000
Si Si2 0.390259 0.918371 0.310579
Si Si3 0.171157 0.249974 0.191748
Si Si4 0.978017 0.646091 0.691736
Si Si5 0.250198 0.561256 0.195313
Si Si6 0.644371 0.805297 0.314530
Si Si7 0.301063 0.380971 0.805989
Si Si8 0.489712 0.342633 0.805139
O O1 0.551362 0.551362 0.500000
O O2 0.452688 0.547313 0.500000
O O3 0.497295 0.614484 0.671879
O O4 0.409304 0.924943 0.500000
O O5 0.434712 0.894504 0.205096
O O6 0.342382 0.882379 0.313706
O O7 0.375229 0.971248 0.226059
O O8 0.201131 0.201131 0.251383
O O9 0.113166 0.238627 0.215807
O O10 0.191585 0.296389 0.295916
O O11 0.182165 0.262131 0.000000
O O12 0.991089 0.656666 0.500000
O O13 0.961939 0.699114 0.772505
O O14 0.295852 0.524946 0.231674
O O15 0.242647 0.571619 0.000000
O O16 0.630453 0.823466 0.500000
O O17 0.624538 0.749621 0.294521
O O18 0.339239 0.339239 0.742171
O O19 0.325637 0.433861 0.769430
O O20 0.288661 0.374227 0.000000
O O21 0.495722 0.360883 0.000000
#
# Coordination Sequence:
#
# PCOD8318225 Si02
#       8
#     8  16  16  16  16  16  16  16
#     4  11  26  46  70 102 140 178 226 287 342 406
#     4  11  23  40  63  88 121 163 211 262 315 377
#     4  11  24  40  60  88 125 168 211 258 317 386
#     4  10  22  41  63  90 124 163 209 263 318 373
#     4  10  21  40  65  92 126 167 215 269 324 386
#     4  12  24  38  59  91 129 166 209 259 316 387
#     4  10  21  39  64  93 127 166 209 260 319 388
#     4  10  23  44  70  99 134 178 225 277 340 403
#
# _framework density 20.850453999999999
#
# number of rings (size 3 to 8) (size 9 to 14) (size 15 to 20)
#    0.000    1.400    1.333    3.600    1.867    8.000 
#    0.000    3.333    0.000    0.000    0.000    0.000 
#    0.000    0.000    0.000    0.000    0.000    0.000 
#
# Total GULP energy -1488309.136281 kJ/mol
# GULP energy per Si atom -12402.576136 kJ/mol
# Density = 2.080300 g / cm^3
# Si number density = 20.850454 Si / 1000 Ang^3
#
#
#
# Elastic Constant Matrix: (Units=GPa)
#
#
# Indices 1 2 3 4 5 6 
#
# 1 139.3674 59.3468 31.5304 0.0000 0.0000 0.0000
# 2 59.3468 139.3678 31.5306 0.0000 0.0000 0.0000
# 3 31.5304 31.5306 67.7647 0.0000 0.0000 0.0000
# 4 0.0000 0.0000 0.0000 25.3511 0.0000 0.0000
# 5 0.0000 0.0000 0.0000 0.0000 25.3495 0.0000
# 6 0.0000 0.0000 0.0000 0.0000 0.0000 25.7619
#
#
#
# Elastic Compliance Matrix: (Units=1/GPa)
#
#
# Indices 1 2 3 4 5 6 
#
# 1 0.009200 -0.003296 -0.002747 0.000000 0.000000 0.000000
# 2 -0.003296 0.009200 -0.002747 0.000000 0.000000 0.000000
# 3 -0.002747 -0.002747 0.017313 0.000000 0.000000 0.000000
# 4 0.000000 0.000000 0.000000 0.039446 0.000000 0.000000
# 5 0.000000 0.000000 0.000000 0.000000 0.039448 0.000000
# 6 0.000000 0.000000 0.000000 0.000000 0.000000 0.038817
#
#
# Mechanical properties :
#
#
# Convention : Reuss Voigt Hill
#
# Bulk Modulus (GPa) = 55.14788 65.70171 60.42480
# Shear Modulus (GPa) = 28.24038 30.23198 29.23618
#
# Velocity S-wave (km/s) = 3.68424 3.81194 3.74864
# Velocity P-wave (km/s) = 6.67869 7.13820 6.91226
#
# Compressibility (1/GPa) = 0.01813306
#
# Stress axis : x y z
#
# Youngs Moduli (GPa) = 108.69024 108.69042 57.75867
#
# Poissons Ratio (x) = 0.35828 0.15867
# Poissons Ratio (y) = 0.35828 0.15867
# Poissons Ratio (z) = 0.29859 0.29859
#
# Static dielectric constant tensor:
#      x y z
#    x 3.830370 0.000000 0.000000 
#    y 0.000000 3.830370 0.000000 
#    z 0.000000 0.000000 3.469310 
# 
# 
# High freq. dielectric constant tensor:
#      x y z
#    x 1.823770 0.000000 0.000000 
#    y 0.000000 1.823770 0.000000 
#    z 0.000000 0.000000 1.810550 
# 
# From -- ./inp_files/2340.got.cif
#   From: 2010.03.12/outbox.cif.g09.slc.cpg/sg136_2_cif.got.tgz:2340.got - 2010.04.06 18:39:43.
