data_PCOD8318456
_publ_section_title
;
Structure prediction by ZEFSAII (Michael W. Deem and Ramdas Pophale) SiO2 
 PCOD8318456
Probable space group: P 42/N M C
;
_chemical_formula_sum "Si O2"
_cell_formula_units_Z 64
_cell_length_a 19.442001
_cell_length_b 19.442001
_cell_length_c 7.543576
_cell_angle_alpha 90.000000
_cell_angle_beta 90.000000
_cell_angle_gamma 90.000000
_cell_volume 2851.406875
_symmetry_space_group_name_H-M "P 42/N M C"
_symmetry_group_IT_number 137
_space_group.IT_coordinate_system_code '2'
_symmetry_cell_setting 'tetragonal'
loop_
_space_group_symop_operation_xyz
x,y,z
1/2-y,x,1/2+z
1/2-x,1/2-y,z
y,1/2-x,1/2+z
1/2+x,-y,-z
-x,1/2+y,-z
1/2+y,1/2+x,1/2-z
-y,-x,1/2-z
-x,-y,-z
1/2+y,-x,1/2-z
1/2+x,1/2+y,-z
-y,1/2+x,1/2-z
1/2-x,y,z
x,1/2-y,z
1/2-y,1/2-x,1/2+z
y,x,1/2+z
loop_
_atom_site_type_symbol
_atom_site_label
_atom_site_fract_x
_atom_site_fract_y
_atom_site_fract_z
Si Si1 0.434262 0.329831 0.326209
Si Si2 0.825203 0.331326 0.450039
Si Si3 0.459322 0.668582 0.378780
Si Si4 0.057031 0.329738 0.922803
O O1 0.415613 0.250000 0.355693
O O2 0.492980 0.356036 0.458725
O O3 0.365723 0.372789 0.362988
O O4 0.461348 0.343087 0.127093
O O5 0.848498 0.348498 0.250000
O O6 0.750000 0.364952 0.494910
O O7 0.817927 0.250000 0.468705
O O8 0.882101 0.361316 0.586559
O O9 0.453795 0.750000 0.384420
O O10 0.492481 0.642477 0.194294
O O11 0.069582 0.250000 0.881532
#
# Coordination Sequence:
#
# PCOD8318456 Si02
#       4
#    16  16  16  16
#     4  10  19  30  46  70 100 140 187 229 272 320
#     4   8  14  27  52  83 106 128 165 215 273 335
#     4   9  17  30  48  72 103 137 174 218 271 326
#     4  10  19  30  46  70 100 140 187 229 272 320
#
# _framework density 22.445062
#
# number of rings (size 3 to 8) (size 9 to 14) (size 15 to 20)
#    0.000    2.750    2.500    0.750    0.000    0.500 
#    0.000    2.500    0.000    4.500    0.000   17.500 
#    0.000   12.000    0.000    0.000    0.000    0.000 
#
# Total GULP energy -793332.983898 kJ/mol
# GULP energy per Si atom -12395.827873 kJ/mol
# Density = 2.239398 g / cm^3
# Si number density = 22.445062 Si / 1000 Ang^3
#
#
#
# Elastic Constant Matrix: (Units=GPa)
#
#
# Indices 1 2 3 4 5 6 
#
# 1 66.9543 22.9192 26.5227 0.0000 0.0000 0.0000
# 2 22.9192 66.9543 26.5227 0.0000 0.0000 0.0000
# 3 26.5227 26.5227 127.6659 0.0000 0.0000 0.0000
# 4 0.0000 0.0000 0.0000 13.9630 0.0000 0.0000
# 5 0.0000 0.0000 0.0000 0.0000 13.9630 0.0000
# 6 0.0000 0.0000 0.0000 0.0000 0.0000 5.9624
#
#
#
# Elastic Compliance Matrix: (Units=1/GPa)
#
#
# Indices 1 2 3 4 5 6 
#
# 1 0.017695 -0.005014 -0.002635 0.000000 0.000000 0.000000
# 2 -0.005014 0.017695 -0.002635 0.000000 0.000000 0.000000
# 3 -0.002635 -0.002635 0.008928 0.000000 0.000000 0.000000
# 4 0.000000 0.000000 0.000000 0.071618 0.000000 0.000000
# 5 0.000000 0.000000 0.000000 0.000000 0.071618 0.000000
# 6 0.000000 0.000000 0.000000 0.000000 0.000000 0.167719
#
#
# Mechanical properties :
#
#
# Convention : Reuss Voigt Hill
#
# Bulk Modulus (GPa) = 42.10065 45.94486 44.02275
# Shear Modulus (GPa) = 13.02909 19.15167 16.09038
#
# Velocity S-wave (km/s) = 2.41195 2.92425 2.68036
# Velocity P-wave (km/s) = 5.15311 5.64942 5.40696
#
# Compressibility (1/GPa) = 0.02375260
#
# Stress axis : x y z
#
# Youngs Moduli (GPa) = 56.51162 56.51162 112.01153
#
# Poissons Ratio (x) = 0.28333 0.29511
# Poissons Ratio (y) = 0.28333 0.29511
# Poissons Ratio (z) = 0.14889 0.14889
#
# Static dielectric constant tensor:
#      x y z
#    x 4.026930 0.000000 0.000000 
#    y 0.000000 4.026930 0.000000 
#    z 0.000000 0.000000 4.429810 
# 
# 
# High freq. dielectric constant tensor:
#      x y z
#    x 1.862100 0.000000 0.000000 
#    y 0.000000 1.862100 0.000000 
#    z 0.000000 0.000000 1.906490 
# 
# From -- ./inp_files/1802.got.cif
#   From: 2010.03.12/outbox.cif.g09.slc.cpg/sg137_1_cif.got.tgz:1802.got - 2010.04.08 09:34:49.
