data_PCOD8318669
_publ_section_title
;
Structure prediction by ZEFSAII (Michael W. Deem and Ramdas Pophale) SiO2 
 PCOD8318669
Probable space group: P 42/N M C
;
_chemical_formula_sum "Si O2"
_cell_formula_units_Z 54
_cell_length_a 10.548568
_cell_length_b 10.548568
_cell_length_c 22.186127
_cell_angle_alpha 90.000000
_cell_angle_beta 90.000000
_cell_angle_gamma 90.000000
_cell_volume 2468.701088
_symmetry_space_group_name_H-M "P 42/N M C"
_symmetry_group_IT_number 137
_space_group.IT_coordinate_system_code '2'
_symmetry_cell_setting 'tetragonal'
loop_
_space_group_symop_operation_xyz
x,y,z
1/2-y,x,1/2+z
1/2-x,1/2-y,z
y,1/2-x,1/2+z
1/2+x,-y,-z
-x,1/2+y,-z
1/2+y,1/2+x,1/2-z
-y,-x,1/2-z
-x,-y,-z
1/2+y,-x,1/2-z
1/2+x,1/2+y,-z
-y,1/2+x,1/2-z
1/2-x,y,z
x,1/2-y,z
1/2-y,1/2-x,1/2+z
y,x,1/2+z
loop_
_atom_site_type_symbol
_atom_site_label
_atom_site_fract_x
_atom_site_fract_y
_atom_site_fract_z
Si Si1 0.890075 0.750000 0.940432
Si Si2 0.525316 0.995768 0.875082
Si Si3 0.896840 0.103161 0.750000
Si Si4 0.500820 0.750000 0.067588
Si Si5 0.250000 0.520791 0.840013
Si Si6 0.250000 0.750000 0.750000
Si Si7 0.250000 0.250000 0.853576
O O1 0.750000 0.750000 0.968301
O O2 0.902972 0.626039 0.899467
O O3 0.988337 0.750000 0.995488
O O4 0.561619 0.016213 0.805583
O O5 0.570095 0.119959 0.913039
O O6 0.374866 0.965911 0.881444
O O7 0.750000 0.078728 0.733610
O O8 0.631841 0.750000 0.102514
O O9 0.250000 0.623022 0.788037
O O10 0.250000 0.376697 0.812083
#
# Coordination Sequence:
#
# PCOD8318669 Si02
#       7
#     8  16   8   8   8   2   4
#     4  12  25  42  69 102 141 168 233 292 339 406
#     4  11  23  43  68 100 132 184 231 276 351 406
#     4  11  23  42  67  93 140 184 230 280 334 411
#     4  10  20  43  67  94 131 181 226 281 339 408
#     4  10  22  38  64  87 133 165 214 270 328 407
#     4  12  20  36  56 100 128 168 212 284 344 378
#     4   8  18  38  64  86 118 176 218 252 330 392
#
# _framework density 21.873851999999999
#
# number of rings (size 3 to 8) (size 9 to 14) (size 15 to 20)
#    0.000    1.333    2.222    3.556    0.000    1.185 
#    0.000    1.481    6.519    0.000    0.000    0.000 
#    0.000    0.000    0.000    0.000    0.000    0.000 
#
# Total GULP energy -669520.599253 kJ/mol
# GULP energy per Si atom -12398.529616 kJ/mol
# Density = 2.182407 g / cm^3
# Si number density = 21.873852 Si / 1000 Ang^3
#
#
#
# Elastic Constant Matrix: (Units=GPa)
#
#
# Indices 1 2 3 4 5 6 
#
# 1 118.0637 30.6077 38.7888 0.0000 0.0000 0.0000
# 2 30.6077 118.0641 38.7887 0.0000 0.0000 0.0000
# 3 38.7888 38.7887 137.4900 0.0000 0.0000 0.0000
# 4 0.0000 0.0000 0.0000 18.5118 0.0000 0.0000
# 5 0.0000 0.0000 0.0000 0.0000 18.5116 0.0000
# 6 0.0000 0.0000 0.0000 0.0000 0.0000 14.5664
#
#
#
# Elastic Compliance Matrix: (Units=1/GPa)
#
#
# Indices 1 2 3 4 5 6 
#
# 1 0.009661 -0.001773 -0.002225 0.000000 0.000000 0.000000
# 2 -0.001773 0.009661 -0.002225 0.000000 0.000000 0.000000
# 3 -0.002225 -0.002225 0.008529 0.000000 0.000000 0.000000
# 4 0.000000 0.000000 0.000000 0.054020 0.000000 0.000000
# 5 0.000000 0.000000 0.000000 0.000000 0.054020 0.000000
# 6 0.000000 0.000000 0.000000 0.000000 0.000000 0.068651
#
#
# Mechanical properties :
#
#
# Convention : Reuss Voigt Hill
#
# Bulk Modulus (GPa) = 64.92344 65.55424 65.23884
# Shear Modulus (GPa) = 22.51000 28.01345 25.26172
#
# Velocity S-wave (km/s) = 3.21141 3.58254 3.40204
# Velocity P-wave (km/s) = 6.59516 6.86638 6.73213
#
# Compressibility (1/GPa) = 0.01540276
#
# Stress axis : x y z
#
# Youngs Moduli (GPa) = 103.51064 103.51108 117.24983
#
# Poissons Ratio (x) = 0.18357 0.26090
# Poissons Ratio (y) = 0.18357 0.26090
# Poissons Ratio (z) = 0.23033 0.23033
#
# Static dielectric constant tensor:
#      x y z
#    x 4.145120 0.000000 0.000000 
#    y 0.000000 4.145090 0.000000 
#    z 0.000000 0.000000 3.558320 
# 
# 
# High freq. dielectric constant tensor:
#      x y z
#    x 1.869340 0.000000 0.000000 
#    y 0.000000 1.869340 0.000000 
#    z 0.000000 0.000000 1.837850 
# 
# From -- ./inp_files/7325.got.cif
#   From: 2010.03.12/outbox.cif.g09.slc.cpg/sg137_4_cif.got.tgz:7325.got - 2010.04.08 09:34:49.
