data_PCOD8318747
_publ_section_title
;
Structure prediction by ZEFSAII (Michael W. Deem and Ramdas Pophale) SiO2 
 PCOD8318747
Probable space group: P 42/N M C
;
_chemical_formula_sum "Si O2"
_cell_formula_units_Z 96
_cell_length_a 14.042618
_cell_length_b 14.042618
_cell_length_c 24.380469
_cell_angle_alpha 90.000000
_cell_angle_beta 90.000000
_cell_angle_gamma 90.000000
_cell_volume 4807.709517
_symmetry_space_group_name_H-M "P 42/N M C"
_symmetry_group_IT_number 137
_space_group.IT_coordinate_system_code '2'
_symmetry_cell_setting 'tetragonal'
loop_
_space_group_symop_operation_xyz
x,y,z
1/2-y,x,1/2+z
1/2-x,1/2-y,z
y,1/2-x,1/2+z
1/2+x,-y,-z
-x,1/2+y,-z
1/2+y,1/2+x,1/2-z
-y,-x,1/2-z
-x,-y,-z
1/2+y,-x,1/2-z
1/2+x,1/2+y,-z
-y,1/2+x,1/2-z
1/2-x,y,z
x,1/2-y,z
1/2-y,1/2-x,1/2+z
y,x,1/2+z
loop_
_atom_site_type_symbol
_atom_site_label
_atom_site_fract_x
_atom_site_fract_y
_atom_site_fract_z
Si Si1 0.140189 0.467738 0.459625
Si Si2 0.999686 0.142416 0.385448
Si Si3 0.362003 0.481915 0.583759
Si Si4 0.952804 0.640282 0.326766
Si Si5 0.641902 0.356880 0.883710
Si Si6 0.858876 0.992559 0.240032
O O1 0.250000 0.437658 0.457964
O O2 0.084361 0.389545 0.424999
O O3 0.101705 0.467492 0.521720
O O4 0.123772 0.573018 0.435037
O O5 0.970436 0.250000 0.399874
O O6 0.037287 0.134462 0.323323
O O7 0.906691 0.077751 0.391731
O O8 0.250000 0.494302 0.586561
O O9 0.395362 0.391806 0.619182
O O10 0.929997 0.750000 0.316517
O O11 0.920054 0.583822 0.273467
O O12 0.065835 0.621360 0.336117
O O13 0.750000 0.368614 0.905459
O O14 0.625469 0.250000 0.859778
O O15 0.750000 0.993797 0.260925
O O16 0.902599 0.097402 0.250000
#
# Coordination Sequence:
#
# PCOD8318747 Si02
#       6
#    16  16  16  16  16  16
#     4  10  21  39  62  89 125 162 200 252 308 365
#     4  11  24  40  62  89 121 162 207 252 305 364
#     4  11  23  40  62  90 125 161 204 254 307 366
#     4  11  23  40  65  92 123 163 206 257 312 367
#     4   9  18  35  62  94 125 161 205 250 304 368
#     4  11  23  41  63  88 121 161 208 257 308 363
#
# _framework density 19.967928000000001
#
# number of rings (size 3 to 8) (size 9 to 14) (size 15 to 20)
#    0.000    1.500    3.333    1.000    0.000    4.167 
#    0.000    7.500    0.000    0.000    0.000    4.667 
#    0.000    0.000    0.000    0.000    0.000    0.000 
#
# Total GULP energy -1190671.984393 kJ/mol
# GULP energy per Si atom -12402.833171 kJ/mol
# Density = 1.992248 g / cm^3
# Si number density = 19.967928 Si / 1000 Ang^3
#
#
#
# Elastic Constant Matrix: (Units=GPa)
#
#
# Indices 1 2 3 4 5 6 
#
# 1 103.8148 50.6132 52.1942 0.0000 0.0000 0.0000
# 2 50.6132 103.8130 52.1944 0.0000 0.0000 0.0000
# 3 52.1942 52.1944 115.7984 0.0000 0.0000 0.0000
# 4 0.0000 0.0000 0.0000 25.7550 0.0000 0.0000
# 5 0.0000 0.0000 0.0000 0.0000 25.7551 0.0000
# 6 0.0000 0.0000 0.0000 0.0000 0.0000 19.8845
#
#
#
# Elastic Compliance Matrix: (Units=1/GPa)
#
#
# Indices 1 2 3 4 5 6 
#
# 1 0.014055 -0.004742 -0.004198 0.000000 0.000000 0.000000
# 2 -0.004742 0.014055 -0.004198 0.000000 0.000000 0.000000
# 3 -0.004198 -0.004198 0.012420 0.000000 0.000000 0.000000
# 4 0.000000 0.000000 0.000000 0.038827 0.000000 0.000000
# 5 0.000000 0.000000 0.000000 0.000000 0.038827 0.000000
# 6 0.000000 0.000000 0.000000 0.000000 0.000000 0.050290
#
#
# Mechanical properties :
#
#
# Convention : Reuss Voigt Hill
#
# Bulk Modulus (GPa) = 70.15036 70.38108 70.26572
# Shear Modulus (GPa) = 25.06254 25.50722 25.28488
#
# Velocity S-wave (km/s) = 3.54664 3.57796 3.56234
# Velocity P-wave (km/s) = 7.20967 7.23828 7.22399
#
# Compressibility (1/GPa) = 0.01425509
#
# Stress axis : x y z
#
# Youngs Moduli (GPa) = 71.15032 71.14857 80.51654
#
# Poissons Ratio (x) = 0.33737 0.33798
# Poissons Ratio (y) = 0.33738 0.33799
# Poissons Ratio (z) = 0.29866 0.29867
#
# Static dielectric constant tensor:
#      x y z
#    x 3.754620 0.000000 0.000000 
#    y 0.000000 3.754620 0.000000 
#    z 0.000000 0.000000 3.680460 
# 
# 
# High freq. dielectric constant tensor:
#      x y z
#    x 1.784780 0.000000 0.000000 
#    y 0.000000 1.784780 0.000000 
#    z 0.000000 0.000000 1.779110 
# 
# From -- ./inp_files/7822.got.cif
#   From: 2010.03.12/outbox.cif.g09.slc.cpg/sg137_4_cif.got.tgz:7822.got - 2010.04.08 09:34:49.
