data_PCOD8318348
_publ_section_title
;
Structure prediction by ZEFSAII (Michael W. Deem and Ramdas Pophale) SiO2 
 PCOD8318348
Probable space group: P 42/M N M
;
_chemical_formula_sum "Si O2"
_cell_formula_units_Z 56
_cell_length_a 12.696519
_cell_length_b 12.696519
_cell_length_c 18.625749
_cell_angle_alpha 90.000000
_cell_angle_beta 90.000000
_cell_angle_gamma 90.000000
_cell_volume 3002.500442
_symmetry_space_group_name_H-M "P 42/M N M"
_symmetry_group_IT_number 136
_symmetry_cell_setting 'tetragonal'
loop_
_space_group_symop_operation_xyz
x,y,z
1/2-y,1/2+x,1/2+z
-x,-y,z
1/2+y,1/2-x,1/2+z
1/2+x,1/2-y,1/2-z
1/2-x,1/2+y,1/2-z
y,x,-z
-y,-x,-z
-x,-y,-z
1/2+y,1/2-x,1/2-z
x,y,-z
1/2-y,1/2+x,1/2-z
1/2-x,1/2+y,1/2+z
1/2+x,1/2-y,1/2+z
-y,-x,z
y,x,z
loop_
_atom_site_type_symbol
_atom_site_label
_atom_site_fract_x
_atom_site_fract_y
_atom_site_fract_z
Si Si1 0.554409 0.268921 0.336878
Si Si2 0.874528 0.302057 0.419416
Si Si3 0.411057 0.411057 0.419137
Si Si4 0.998093 0.827885 0.684601
O O1 0.641455 0.358546 0.343399
O O2 0.597432 0.160860 0.371769
O O3 0.451305 0.305338 0.380435
O O4 0.524684 0.253928 0.253384
O O5 0.905831 0.337935 0.500000
O O6 0.779135 0.220866 0.423700
O O7 0.974965 0.247265 0.382233
O O8 0.500000 0.500000 0.416087
O O9 0.381533 0.381533 0.500000
O O10 0.095089 0.904912 0.704314
O O11 0.896096 0.896096 0.662989
#
# Coordination Sequence:
#
# PCOD8318348 Si02
#       4
#    16  16   8  16
#     4   9  15  25  40  62  92 124 158 195 237 284
#     4   9  17  27  41  66  98 125 156 200 242 283
#     4   9  14  20  36  62  91 121 149 188 244 291
#     4   9  16  27  43  64  93 127 161 199 238 283
#
# _framework density 18.651122999999998
#
# number of rings (size 3 to 8) (size 9 to 14) (size 15 to 20)
#    0.000    3.000    1.429    0.857    0.000    4.000 
#    0.000    2.857    0.000    0.857    0.000    6.000 
#    0.000    0.000    0.000    0.000    0.000    0.000 
#
# Total GULP energy -694164.133437 kJ/mol
# GULP energy per Si atom -12395.788097 kJ/mol
# Density = 1.860867 g / cm^3
# Si number density = 18.651123 Si / 1000 Ang^3
#
#
#
# Elastic Constant Matrix: (Units=GPa)
#
#
# Indices 1 2 3 4 5 6 
#
# 1 49.9694 39.5840 53.8461 0.0000 0.0000 0.0000
# 2 39.5840 49.9694 53.8461 0.0000 0.0000 0.0000
# 3 53.8461 53.8461 153.1209 0.0000 0.0000 0.0000
# 4 0.0000 0.0000 0.0000 20.1727 0.0000 0.0000
# 5 0.0000 0.0000 0.0000 0.0000 20.1727 0.0000
# 6 0.0000 0.0000 0.0000 0.0000 0.0000 28.3158
#
#
#
# Elastic Compliance Matrix: (Units=1/GPa)
#
#
# Indices 1 2 3 4 5 6 
#
# 1 0.057819 -0.038470 -0.006804 0.000000 0.000000 0.000000
# 2 -0.038470 0.057819 -0.006804 0.000000 0.000000 0.000000
# 3 -0.006804 -0.006804 0.011316 0.000000 0.000000 0.000000
# 4 0.000000 0.000000 0.000000 0.049572 0.000000 0.000000
# 5 0.000000 0.000000 0.000000 0.000000 0.049572 0.000000
# 6 0.000000 0.000000 0.000000 0.000000 0.000000 0.035316
#
#
# Mechanical properties :
#
#
# Convention : Reuss Voigt Hill
#
# Bulk Modulus (GPa) = 43.86489 60.84579 52.35534
# Shear Modulus (GPa) = 13.39873 20.78449 17.09161
#
# Velocity S-wave (km/s) = 2.68318 3.34186 3.03047
# Velocity P-wave (km/s) = 5.75925 6.89816 6.35427
#
# Compressibility (1/GPa) = 0.02279728
#
# Stress axis : x y z
#
# Youngs Moduli (GPa) = 17.29538 17.29538 88.36852
#
# Poissons Ratio (x) = 0.66535 0.60127
# Poissons Ratio (y) = 0.66535 0.60127
# Poissons Ratio (z) = 0.11768 0.11768
#
# Static dielectric constant tensor:
#      x y z
#    x 3.129220 0.000000 0.000000 
#    y 0.000000 3.129220 0.000000 
#    z 0.000000 0.000000 3.596970 
# 
# 
# High freq. dielectric constant tensor:
#      x y z
#    x 1.680680 0.000000 0.000000 
#    y 0.000000 1.680680 0.000000 
#    z 0.000000 0.000000 1.735150 
# 
# From -- ./inp_files/5842.got.cif
#   From: 2010.03.12/outbox.cif.g09.slc.cpg/sg136_3_cif.got.tgz:5842.got - 2010.04.06 18:39:43.
