data_PCOD8318848
_publ_section_title
;
Structure prediction by ZEFSAII (Michael W. Deem and Ramdas Pophale) SiO2 
 PCOD8318848
Probable space group: P 42/N C M
;
_chemical_formula_sum "Si O2"
_cell_formula_units_Z 104
_cell_length_a 16.817776
_cell_length_b 16.817776
_cell_length_c 19.033049
_cell_angle_alpha 90.000000
_cell_angle_beta 90.000000
_cell_angle_gamma 90.000000
_cell_volume 5383.261702
_symmetry_space_group_name_H-M "P 42/N C M"
_symmetry_group_IT_number 138
_space_group.IT_coordinate_system_code '2'
_symmetry_cell_setting 'tetragonal'
loop_
_space_group_symop_operation_xyz
x,y,z
1/2-y,x,1/2+z
1/2-x,1/2-y,z
y,1/2-x,1/2+z
1/2+x,-y,1/2-z
-x,1/2+y,1/2-z
1/2+y,1/2+x,-z
-y,-x,-z
-x,-y,-z
1/2+y,-x,1/2-z
1/2+x,1/2+y,-z
-y,1/2+x,1/2-z
1/2-x,y,1/2+z
x,1/2-y,1/2+z
1/2-y,1/2-x,z
y,x,z
loop_
_atom_site_type_symbol
_atom_site_label
_atom_site_fract_x
_atom_site_fract_y
_atom_site_fract_z
Si Si1 0.673142 0.957949 0.826997
Si Si2 0.025951 0.759811 0.951364
Si Si3 0.049416 0.580030 0.143541
Si Si4 0.871852 0.371852 0.000000
Si Si5 0.053234 0.570292 0.416885
Si Si6 0.820352 0.549010 0.589460
Si Si7 0.065026 0.198426 0.290699
O O1 0.622592 0.877409 0.820144
O O2 0.749629 0.951745 0.777858
O O3 0.701371 0.970059 0.906830
O O4 0.618968 0.036138 0.811564
O O5 0.109165 0.718573 0.975957
O O6 0.049202 0.835629 0.902780
O O7 0.971234 0.777683 0.017368
O O8 0.981043 0.518958 0.124706
O O9 0.015252 0.649489 0.193168
O O10 0.073459 0.612765 0.067590
O O11 0.058940 0.558940 0.500000
O O12 0.131056 0.528950 0.381906
O O13 0.973215 0.526786 0.388368
O O14 0.882820 0.617181 0.571982
O O15 0.757838 0.581966 0.645187
O O16 0.141125 0.141125 0.279546
#
# Coordination Sequence:
#
# PCOD8318848 Si02
#       7
#    16  16  16   8  16  16  16
#     4  10  23  39  56  82 118 154 191 238 295 357
#     4  10  19  34  58  85 115 151 196 245 294 348
#     4   9  19  37  61  84 110 154 201 239 289 352
#     4  10  17  32  59  90 118 142 189 259 300 342
#     4   8  16  32  53  78 109 148 191 230 271 337
#     4  10  20  36  58  83 115 152 194 241 287 344
#     4  11  23  39  60  86 116 152 195 245 301 356
#
# _framework density 19.319141999999999
#
# number of rings (size 3 to 8) (size 9 to 14) (size 15 to 20)
#    0.000    2.308    1.538    2.077    0.000    4.923 
#    0.000    6.538    0.000    2.308    0.000    0.000 
#    0.000    0.000    0.000    0.000    0.000    0.000 
#
# Total GULP energy -1288814.688161 kJ/mol
# GULP energy per Si atom -12392.448925 kJ/mol
# Density = 1.927517 g / cm^3
# Si number density = 19.319142 Si / 1000 Ang^3
#
#
#
# Elastic Constant Matrix: (Units=GPa)
#
#
# Indices 1 2 3 4 5 6 
#
# 1 118.9182 55.0807 42.8350 0.0000 0.0000 0.0000
# 2 55.0807 118.9182 42.8350 0.0000 0.0000 0.0000
# 3 42.8350 42.8350 68.0177 0.0000 0.0000 0.0000
# 4 0.0000 0.0000 0.0000 27.2669 0.0000 0.0000
# 5 0.0000 0.0000 0.0000 0.0000 27.2669 0.0000
# 6 0.0000 0.0000 0.0000 0.0000 0.0000 26.9281
#
#
#
# Elastic Compliance Matrix: (Units=1/GPa)
#
#
# Indices 1 2 3 4 5 6 
#
# 1 0.011997 -0.003667 -0.005246 0.000000 0.000000 0.000000
# 2 -0.003667 0.011997 -0.005246 0.000000 0.000000 0.000000
# 3 -0.005246 -0.005246 0.021309 0.000000 0.000000 0.000000
# 4 0.000000 0.000000 0.000000 0.036675 0.000000 0.000000
# 5 0.000000 0.000000 0.000000 0.000000 0.036675 0.000000
# 6 0.000000 0.000000 0.000000 0.000000 0.000000 0.037136
#
#
# Mechanical properties :
#
#
# Convention : Reuss Voigt Hill
#
# Bulk Modulus (GPa) = 58.87288 65.26174 62.06731
# Shear Modulus (GPa) = 26.34772 27.29927 26.82349
#
# Velocity S-wave (km/s) = 3.69699 3.76316 3.73022
# Velocity P-wave (km/s) = 6.98310 7.26196 7.12389
#
# Compressibility (1/GPa) = 0.01698575
#
# Stress axis : x y z
#
# Youngs Moduli (GPa) = 83.35127 83.35127 46.92754
#
# Poissons Ratio (x) = 0.30568 0.24618
# Poissons Ratio (y) = 0.30568 0.24618
# Poissons Ratio (z) = 0.43726 0.43726
#
# Static dielectric constant tensor:
#      x y z
#    x 3.834030 0.000000 0.000000 
#    y 0.000000 3.834030 0.000000 
#    z 0.000000 0.000000 3.329770 
# 
# 
# High freq. dielectric constant tensor:
#      x y z
#    x 1.753230 0.000000 0.000000 
#    y 0.000000 1.753230 0.000000 
#    z 0.000000 0.000000 1.737140 
# 
# From -- ./inp_files/5301.got.cif
#   From: 2010.03.12/outbox.cif.g09.slc.cpg/sg138_3_cif.got.tgz:5301.got - 2010.04.08 09:41:05.
