data_PCOD8318849
_publ_section_title
;
Structure prediction by ZEFSAII (Michael W. Deem and Ramdas Pophale) SiO2 
 PCOD8318849
Probable space group: P 42/N C M
;
_chemical_formula_sum "Si O2"
_cell_formula_units_Z 64
_cell_length_a 20.413164
_cell_length_b 20.413164
_cell_length_c 8.913051
_cell_angle_alpha 90.000000
_cell_angle_beta 90.000000
_cell_angle_gamma 90.000000
_cell_volume 3714.043970
_symmetry_space_group_name_H-M "P 42/N C M"
_symmetry_group_IT_number 138
_space_group.IT_coordinate_system_code '2'
_symmetry_cell_setting 'tetragonal'
loop_
_space_group_symop_operation_xyz
x,y,z
1/2-y,x,1/2+z
1/2-x,1/2-y,z
y,1/2-x,1/2+z
1/2+x,-y,1/2-z
-x,1/2+y,1/2-z
1/2+y,1/2+x,-z
-y,-x,-z
-x,-y,-z
1/2+y,-x,1/2-z
1/2+x,1/2+y,-z
-y,1/2+x,1/2-z
1/2-x,y,1/2+z
x,1/2-y,1/2+z
1/2-y,1/2-x,z
y,x,z
loop_
_atom_site_type_symbol
_atom_site_label
_atom_site_fract_x
_atom_site_fract_y
_atom_site_fract_z
Si Si1 0.479102 0.258077 0.441346
Si Si2 0.569979 0.204651 0.193048
Si Si3 0.658786 0.949044 0.321856
Si Si4 0.398426 0.651997 0.842315
O O1 0.525424 0.211857 0.341076
O O2 0.523801 0.304232 0.547697
O O3 0.434631 0.209935 0.543115
O O4 0.434553 0.304711 0.336566
O O5 0.616134 0.141471 0.209418
O O6 0.613454 0.270305 0.172803
O O7 0.596092 0.903909 0.340681
O O8 0.636135 0.024634 0.324752
O O9 0.372255 0.627746 0.000000
#
# Coordination Sequence:
#
# PCOD8318849 Si02
#       4
#    16  16  16  16
#     4   8  18  35  54  75 113 142 172 215 279 334
#     4  10  17  33  51  73 109 154 183 222 261 296
#     4  10  20  36  61  82 104 141 178 221 272 330
#     4  10  19  34  51  79 111 146 190 224 261 310
#
# _framework density 17.23189
#
# number of rings (size 3 to 8) (size 9 to 14) (size 15 to 20)
#    0.000    3.000    5.000    0.000    0.000    5.000 
#    0.000    8.750    0.000    2.250    0.000    0.000 
#    0.000    0.000    0.000    0.000    0.000    0.000 
#
# Total GULP energy -793149.309217 kJ/mol
# GULP energy per Si atom -12392.957957 kJ/mol
# Density = 1.719267 g / cm^3
# Si number density = 17.231890 Si / 1000 Ang^3
#
#
#
# Elastic Constant Matrix: (Units=GPa)
#
#
# Indices 1 2 3 4 5 6 
#
# 1 73.4069 54.5718 34.0760 0.0000 0.0000 0.0000
# 2 54.5718 73.4047 34.0755 0.0000 0.0000 0.0000
# 3 34.0760 34.0755 110.7779 0.0000 0.0000 0.0000
# 4 0.0000 0.0000 0.0000 17.1014 0.0000 0.0000
# 5 0.0000 0.0000 0.0000 0.0000 17.1018 0.0000
# 6 0.0000 0.0000 0.0000 0.0000 0.0000 19.9384
#
#
#
# Elastic Compliance Matrix: (Units=1/GPa)
#
#
# Indices 1 2 3 4 5 6 
#
# 1 0.031220 -0.021875 -0.002874 0.000000 0.000000 0.000000
# 2 -0.021875 0.031220 -0.002874 0.000000 0.000000 0.000000
# 3 -0.002874 -0.002874 0.010795 0.000000 0.000000 0.000000
# 4 0.000000 0.000000 0.000000 0.058475 0.000000 0.000000
# 5 0.000000 0.000000 0.000000 0.000000 0.058473 0.000000
# 6 0.000000 0.000000 0.000000 0.000000 0.000000 0.050154
#
#
# Mechanical properties :
#
#
# Convention : Reuss Voigt Hill
#
# Bulk Modulus (GPa) = 55.59607 55.89288 55.74447
# Shear Modulus (GPa) = 16.57924 19.81941 18.19932
#
# Velocity S-wave (km/s) = 3.10518 3.39508 3.25336
# Velocity P-wave (km/s) = 6.72233 6.91917 6.82146
#
# Compressibility (1/GPa) = 0.01798688
#
# Stress axis : x y z
#
# Youngs Moduli (GPa) = 32.03124 32.03026 92.63160
#
# Poissons Ratio (x) = 0.70068 0.26626
# Poissons Ratio (y) = 0.70070 0.26627
# Poissons Ratio (z) = 0.09207 0.09207
#
# Static dielectric constant tensor:
#      x y z
#    x 2.970980 0.000000 0.000000 
#    y 0.000000 2.970980 0.000000 
#    z 0.000000 0.000000 3.716210 
# 
# 
# High freq. dielectric constant tensor:
#      x y z
#    x 1.635340 0.000000 0.000000 
#    y 0.000000 1.635340 0.000000 
#    z 0.000000 0.000000 1.690810 
# 
# From -- ./inp_files/1410.got.cif
#   From: 2010.03.12/outbox.cif.g09.slc.cpg/sg138_1_cif.got.tgz:1410.got - 2010.04.08 09:41:05.
