data_PCOD8318025
_publ_section_title
;
Structure prediction by ZEFSAII (Michael W. Deem and Ramdas Pophale) SiO2 
 PCOD8318025
Probable space group: P 42/M N M
;
_chemical_formula_sum "Si O2"
_cell_formula_units_Z 96
_cell_length_a 17.161311
_cell_length_b 17.161311
_cell_length_c 17.038711
_cell_angle_alpha 90.000000
_cell_angle_beta 90.000000
_cell_angle_gamma 90.000000
_cell_volume 5018.080919
_symmetry_space_group_name_H-M "P 42/M N M"
_symmetry_group_IT_number 136
_symmetry_cell_setting 'tetragonal'
loop_
_space_group_symop_operation_xyz
x,y,z
1/2-y,1/2+x,1/2+z
-x,-y,z
1/2+y,1/2-x,1/2+z
1/2+x,1/2-y,1/2-z
1/2-x,1/2+y,1/2-z
y,x,-z
-y,-x,-z
-x,-y,-z
1/2+y,1/2-x,1/2-z
x,y,-z
1/2-y,1/2+x,1/2-z
1/2-x,1/2+y,1/2+z
1/2+x,1/2-y,1/2+z
-y,-x,z
y,x,z
loop_
_atom_site_type_symbol
_atom_site_label
_atom_site_fract_x
_atom_site_fract_y
_atom_site_fract_z
Si Si1 0.728603 0.397897 0.214017
Si Si2 0.495917 0.822050 0.909246
Si Si3 0.123030 0.000617 0.817671
Si Si4 0.769557 0.105329 0.910167
Si Si5 0.389790 0.877158 0.685007
Si Si6 0.557853 0.888233 0.651451
O O1 0.676771 0.323230 0.190758
O O2 0.766507 0.435073 0.136321
O O3 0.675654 0.467200 0.247625
O O4 0.791815 0.370031 0.279712
O O5 0.582942 0.822695 0.869838
O O6 0.459710 0.909170 0.900519
O O7 0.502017 0.796512 0.000000
O O8 0.068025 0.931976 0.782984
O O9 0.176752 0.967786 0.886762
O O10 0.070130 0.070130 0.853484
O O11 0.813669 0.186332 0.893854
O O12 0.689750 0.108720 0.862346
O O13 0.747678 0.094303 0.000000
O O14 0.467664 0.872488 0.631391
O O15 0.405669 0.936392 0.756191
#
# Coordination Sequence:
#
# PCOD8318025 Si02
#       6
#    16  16  16  16  16  16
#     4  10  21  39  62  87 116 155 200 248 300 353
#     4  11  24  37  57  87 117 152 193 240 298 354
#     4   9  17  33  58  85 111 147 198 243 285 346
#     4  10  20  33  51  81 119 150 181 231 293 346
#     4  11  20  36  58  80 110 151 191 241 283 344
#     4  11  20  35  56  80 110 149 194 237 277 337
#
# _framework density 19.130821000000001
#
# number of rings (size 3 to 8) (size 9 to 14) (size 15 to 20)
#    0.000    1.667    5.000    1.000    0.000    5.333 
#    0.000    2.500    0.000    2.000    0.000    2.333 
#    0.000    0.000    0.000    0.000    0.000    0.000 
#
# Total GULP energy -1189862.055290 kJ/mol
# GULP energy per Si atom -12394.396409 kJ/mol
# Density = 1.908728 g / cm^3
# Si number density = 19.130821 Si / 1000 Ang^3
#
#
#
# Elastic Constant Matrix: (Units=GPa)
#
#
# Indices 1 2 3 4 5 6 
#
# 1 93.1329 31.6258 39.5409 0.0000 0.0000 0.0000
# 2 31.6258 93.1329 39.5409 0.0000 0.0000 0.0000
# 3 39.5409 39.5409 84.7869 0.0000 0.0000 0.0000
# 4 0.0000 0.0000 0.0000 20.0299 0.0000 0.0000
# 5 0.0000 0.0000 0.0000 0.0000 20.0299 0.0000
# 6 0.0000 0.0000 0.0000 0.0000 0.0000 28.0826
#
#
#
# Elastic Compliance Matrix: (Units=1/GPa)
#
#
# Indices 1 2 3 4 5 6 
#
# 1 0.013819 -0.002439 -0.005307 0.000000 0.000000 0.000000
# 2 -0.002439 0.013819 -0.005307 0.000000 0.000000 0.000000
# 3 -0.005307 -0.005307 0.016744 0.000000 0.000000 0.000000
# 4 0.000000 0.000000 0.000000 0.049925 0.000000 0.000000
# 5 0.000000 0.000000 0.000000 0.000000 0.049925 0.000000
# 6 0.000000 0.000000 0.000000 0.000000 0.000000 0.035609
#
#
# Mechanical properties :
#
#
# Convention : Reuss Voigt Hill
#
# Bulk Modulus (GPa) = 54.71835 54.71865 54.71850
# Shear Modulus (GPa) = 23.58049 24.31815 23.94932
#
# Velocity S-wave (km/s) = 3.51464 3.56919 3.54202
# Velocity P-wave (km/s) = 6.71822 6.75647 6.73737
#
# Compressibility (1/GPa) = 0.01827541
#
# Stress axis : x y z
#
# Youngs Moduli (GPa) = 72.36504 72.36504 59.72283
#
# Poissons Ratio (x) = 0.17653 0.31694
# Poissons Ratio (y) = 0.17653 0.31694
# Poissons Ratio (z) = 0.38403 0.38403
#
# Static dielectric constant tensor:
#      x y z
#    x 3.609460 0.000000 0.000000 
#    y 0.000000 3.609460 0.000000 
#    z 0.000000 0.000000 3.183440 
# 
# 
# High freq. dielectric constant tensor:
#      x y z
#    x 1.745040 0.000000 0.000000 
#    y 0.000000 1.745040 0.000000 
#    z 0.000000 0.000000 1.712980 
# 
# From -- ./inp_files/6301.got.cif
#   From: 2010.03.12/outbox.cif.g09.slc.cpg/sg136_4_cif.got.tgz:6301.got - 2010.04.06 18:39:43.
