data_PCOD8318082
_publ_section_title
;
Structure prediction by ZEFSAII (Michael W. Deem and Ramdas Pophale) SiO2 
 PCOD8318082
Probable space group: P 42/M N M
;
_chemical_formula_sum "Si O2"
_cell_formula_units_Z 96
_cell_length_a 15.450189
_cell_length_b 15.450189
_cell_length_c 19.855670
_cell_angle_alpha 90.000000
_cell_angle_beta 90.000000
_cell_angle_gamma 90.000000
_cell_volume 4739.714028
_symmetry_space_group_name_H-M "P 42/M N M"
_symmetry_group_IT_number 136
_symmetry_cell_setting 'tetragonal'
loop_
_space_group_symop_operation_xyz
x,y,z
1/2-y,1/2+x,1/2+z
-x,-y,z
1/2+y,1/2-x,1/2+z
1/2+x,1/2-y,1/2-z
1/2-x,1/2+y,1/2-z
y,x,-z
-y,-x,-z
-x,-y,-z
1/2+y,1/2-x,1/2-z
x,y,-z
1/2-y,1/2+x,1/2-z
1/2-x,1/2+y,1/2+z
1/2+x,1/2-y,1/2+z
-y,-x,z
y,x,z
loop_
_atom_site_type_symbol
_atom_site_label
_atom_site_fract_x
_atom_site_fract_y
_atom_site_fract_z
Si Si1 0.819039 0.681421 0.193123
Si Si2 0.540591 0.677989 0.786544
Si Si3 0.737300 0.878510 0.334993
Si Si4 0.924961 0.434047 0.924371
Si Si5 0.440818 0.794422 0.426529
Si Si6 0.497629 0.364364 0.642144
O O1 0.773326 0.773326 0.180083
O O2 0.752640 0.603803 0.189264
O O3 0.866238 0.685668 0.265056
O O4 0.883312 0.663373 0.131676
O O5 0.583583 0.583583 0.800222
O O6 0.450500 0.687589 0.826013
O O7 0.527412 0.693075 0.706752
O O8 0.788696 0.788696 0.356792
O O9 0.665675 0.919142 0.385248
O O10 0.000000 0.500000 0.894409
O O11 0.966246 0.339515 0.926194
O O12 0.901774 0.467031 0.000000
O O13 0.395697 0.805083 0.500000
O O14 0.459951 0.693524 0.415371
O O15 0.566743 0.433258 0.668903
O O16 0.413231 0.413231 0.612566
#
# Coordination Sequence:
#
# PCOD8318082 Si02
#       6
#    16  16  16  16  16  16
#     4  10  21  36  54  85 123 157 204 256 302 357
#     4  10  20  36  58  83 116 156 200 256 314 368
#     4  11  22  37  61  91 120 157 208 262 313 373
#     4  10  23  43  63  87 121 158 199 251 311 375
#     4  11  22  37  58  84 119 162 202 243 299 366
#     4  10  20  35  55  82 118 155 193 240 294 356
#
# _framework density 20.254387000000001
#
# number of rings (size 3 to 8) (size 9 to 14) (size 15 to 20)
#    0.000    1.667    1.667    3.000    0.000    5.000 
#    0.000    2.500    0.000    1.500    0.000    1.167 
#    0.000    0.000    0.000    0.000    0.000    0.000 
#
# Total GULP energy -1189573.249380 kJ/mol
# GULP energy per Si atom -12391.388014 kJ/mol
# Density = 2.020829 g / cm^3
# Si number density = 20.254387 Si / 1000 Ang^3
#
#
#
# Elastic Constant Matrix: (Units=GPa)
#
#
# Indices 1 2 3 4 5 6 
#
# 1 85.1335 25.8514 36.7664 0.0000 0.0000 0.0000
# 2 25.8514 85.1335 36.7664 0.0000 0.0000 0.0000
# 3 36.7664 36.7664 97.3972 0.0000 0.0000 0.0000
# 4 0.0000 0.0000 0.0000 25.0046 0.0000 0.0000
# 5 0.0000 0.0000 0.0000 0.0000 25.0046 0.0000
# 6 0.0000 0.0000 0.0000 0.0000 0.0000 33.2676
#
#
#
# Elastic Compliance Matrix: (Units=1/GPa)
#
#
# Indices 1 2 3 4 5 6 
#
# 1 0.014442 -0.002427 -0.004536 0.000000 0.000000 0.000000
# 2 -0.002427 0.014442 -0.004536 0.000000 0.000000 0.000000
# 3 -0.004536 -0.004536 0.013692 0.000000 0.000000 0.000000
# 4 0.000000 0.000000 0.000000 0.039993 0.000000 0.000000
# 5 0.000000 0.000000 0.000000 0.000000 0.039993 0.000000
# 6 0.000000 0.000000 0.000000 0.000000 0.000000 0.030059
#
#
# Mechanical properties :
#
#
# Convention : Reuss Voigt Hill
#
# Bulk Modulus (GPa) = 51.07362 51.82585 51.44974
# Shear Modulus (GPa) = 27.45107 27.87402 27.66255
#
# Velocity S-wave (km/s) = 3.68545 3.71374 3.69962
# Velocity P-wave (km/s) = 6.58642 6.63567 6.61109
#
# Compressibility (1/GPa) = 0.01957958
#
# Stress axis : x y z
#
# Youngs Moduli (GPa) = 69.24289 69.24289 73.03773
#
# Poissons Ratio (x) = 0.16802 0.33127
# Poissons Ratio (y) = 0.16802 0.33127
# Poissons Ratio (z) = 0.31406 0.31406
#
# Static dielectric constant tensor:
#      x y z
#    x 3.758570 0.000000 0.000000 
#    y 0.000000 3.758570 0.000000 
#    z 0.000000 0.000000 3.507900 
# 
# 
# High freq. dielectric constant tensor:
#      x y z
#    x 1.797490 0.000000 0.000000 
#    y 0.000000 1.797490 0.000000 
#    z 0.000000 0.000000 1.764030 
# 
# From -- ./inp_files/7481.got.cif
#   From: 2010.03.12/outbox.cif.g09.slc.cpg/sg136_4_cif.got.tgz:7481.got - 2010.04.06 18:39:43.
