data_PCOD8318619
_publ_section_title
;
Structure prediction by ZEFSAII (Michael W. Deem and Ramdas Pophale) SiO2 
 PCOD8318619
Probable space group: P 42/N M C
;
_chemical_formula_sum "Si O2"
_cell_formula_units_Z 48
_cell_length_a 7.797059
_cell_length_b 7.797059
_cell_length_c 37.655807
_cell_angle_alpha 90.000000
_cell_angle_beta 90.000000
_cell_angle_gamma 90.000000
_cell_volume 2289.251990
_symmetry_space_group_name_H-M "P 42/N M C"
_symmetry_group_IT_number 137
_space_group.IT_coordinate_system_code '2'
_symmetry_cell_setting 'tetragonal'
loop_
_space_group_symop_operation_xyz
x,y,z
1/2-y,x,1/2+z
1/2-x,1/2-y,z
y,1/2-x,1/2+z
1/2+x,-y,-z
-x,1/2+y,-z
1/2+y,1/2+x,1/2-z
-y,-x,1/2-z
-x,-y,-z
1/2+y,-x,1/2-z
1/2+x,1/2+y,-z
-y,1/2+x,1/2-z
1/2-x,y,z
x,1/2-y,z
1/2-y,1/2-x,1/2+z
y,x,1/2+z
loop_
_atom_site_type_symbol
_atom_site_label
_atom_site_fract_x
_atom_site_fract_y
_atom_site_fract_z
Si Si1 0.952281 0.439890 0.961028
Si Si2 0.052656 0.250000 0.084084
Si Si3 0.452756 0.750000 0.835657
Si Si4 0.941243 0.551806 0.712969
O O1 0.750000 0.429464 0.956980
O O2 0.030858 0.250000 0.953638
O O3 0.030755 0.577513 0.932904
O O4 0.000000 0.500000 0.000000
O O5 0.250000 0.250000 0.072978
O O6 0.036569 0.250000 0.126084
O O7 0.250000 0.750000 0.840068
O O8 0.518396 0.580395 0.815040
O O9 0.750000 0.524760 0.697135
O O10 0.980013 0.750000 0.721115
O O11 0.952052 0.452052 0.750000
#
# Coordination Sequence:
#
# PCOD8318619 Si02
#       4
#    16   8   8  16
#     4  10  20  35  57  83 110 146 194 243 293 353
#     4  10  22  38  54  80 118 154 190 238 302 354
#     4  10  22  38  58  84 122 158 196 246 302 348
#     4  10  20  36  61  88 115 152 198 244 296 357
#
# _framework density 20.967547
#
# number of rings (size 3 to 8) (size 9 to 14) (size 15 to 20)
#    0.000    2.000    3.333    0.000    0.000    4.333 
#    0.000    0.000    0.000    0.000    0.000    0.000 
#    0.000    0.000    0.000    0.000    0.000    0.000 
#
# Total GULP energy -595097.559042 kJ/mol
# GULP energy per Si atom -12397.865813 kJ/mol
# Density = 2.091982 g / cm^3
# Si number density = 20.967547 Si / 1000 Ang^3
#
#
#
# Elastic Constant Matrix: (Units=GPa)
#
#
# Indices 1 2 3 4 5 6 
#
# 1 114.6635 31.1900 50.0365 0.0000 0.0000 0.0000
# 2 31.1900 114.6635 50.0365 0.0000 0.0000 0.0000
# 3 50.0365 50.0365 151.4600 0.0000 0.0000 0.0000
# 4 0.0000 0.0000 0.0000 28.6883 0.0000 0.0000
# 5 0.0000 0.0000 0.0000 0.0000 28.6883 0.0000
# 6 0.0000 0.0000 0.0000 0.0000 0.0000 14.4944
#
#
#
# Elastic Compliance Matrix: (Units=1/GPa)
#
#
# Indices 1 2 3 4 5 6 
#
# 1 0.010423 -0.001557 -0.002929 0.000000 0.000000 0.000000
# 2 -0.001557 0.010423 -0.002929 0.000000 0.000000 0.000000
# 3 -0.002929 -0.002929 0.008538 0.000000 0.000000 0.000000
# 4 0.000000 0.000000 0.000000 0.034857 0.000000 0.000000
# 5 0.000000 0.000000 0.000000 0.000000 0.034857 0.000000
# 6 0.000000 0.000000 0.000000 0.000000 0.000000 0.068992
#
#
# Mechanical properties :
#
#
# Convention : Reuss Voigt Hill
#
# Bulk Modulus (GPa) = 68.71193 71.47924 70.09559
# Shear Modulus (GPa) = 26.62821 31.00916 28.81868
#
# Velocity S-wave (km/s) = 3.56753 3.84983 3.71137
# Velocity P-wave (km/s) = 7.05772 7.34344 7.20200
#
# Compressibility (1/GPa) = 0.01455351
#
# Stress axis : x y z
#
# Youngs Moduli (GPa) = 95.94341 95.94341 117.12893
#
# Poissons Ratio (x) = 0.14939 0.34306
# Poissons Ratio (y) = 0.14939 0.34306
# Poissons Ratio (z) = 0.28101 0.28101
#
# Static dielectric constant tensor:
#      x y z
#    x 3.995960 0.000000 0.000000 
#    y 0.000000 3.995960 0.000000 
#    z 0.000000 0.000000 3.535160 
# 
# 
# High freq. dielectric constant tensor:
#      x y z
#    x 1.821200 0.000000 0.000000 
#    y 0.000000 1.821200 0.000000 
#    z 0.000000 0.000000 1.803640 
# 
# From -- ./inp_files/10037.got.cif
#   From: 2010.03.12/outbox.cif.g09.slc.cpg/sg137_6_cif.got.tgz:10037.got - 2010.04.08 09:34:49.
