data_PCOD8318104
_publ_section_title
;
Structure prediction by ZEFSAII (Michael W. Deem and Ramdas Pophale) SiO2 
 PCOD8318104
Probable space group: P 42/M N M
;
_chemical_formula_sum "Si O2"
_cell_formula_units_Z 72
_cell_length_a 20.965556
_cell_length_b 20.965556
_cell_length_c 8.801990
_cell_angle_alpha 90.000000
_cell_angle_beta 90.000000
_cell_angle_gamma 90.000000
_cell_volume 3868.954651
_symmetry_space_group_name_H-M "P 42/M N M"
_symmetry_group_IT_number 136
_symmetry_cell_setting 'tetragonal'
loop_
_space_group_symop_operation_xyz
x,y,z
1/2-y,1/2+x,1/2+z
-x,-y,z
1/2+y,1/2-x,1/2+z
1/2+x,1/2-y,1/2-z
1/2-x,1/2+y,1/2-z
y,x,-z
-y,-x,-z
-x,-y,-z
1/2+y,1/2-x,1/2-z
x,y,-z
1/2-y,1/2+x,1/2-z
1/2-x,1/2+y,1/2+z
1/2+x,1/2-y,1/2+z
-y,-x,z
y,x,z
loop_
_atom_site_type_symbol
_atom_site_label
_atom_site_fract_x
_atom_site_fract_y
_atom_site_fract_z
Si Si1 0.144430 0.396338 0.175543
Si Si2 0.730643 0.626374 0.327339
Si Si3 0.962857 0.685009 0.677349
Si Si4 0.684635 0.487974 0.677140
Si Si5 0.448116 0.551885 0.820026
O O1 0.210869 0.361868 0.213991
O O2 0.152442 0.470164 0.221156
O O3 0.089650 0.366257 0.277330
O O4 0.127279 0.386785 0.000000
O O5 0.756110 0.622161 0.500000
O O6 0.685572 0.685572 0.301863
O O7 0.691739 0.562721 0.286811
O O8 0.959372 0.700200 0.500000
O O9 0.951871 0.751813 0.764487
O O10 0.676174 0.473428 0.500000
O O11 0.622238 0.464611 0.763207
O O12 0.500000 0.500000 0.759230
O O13 0.447923 0.552078 0.000000
#
# Coordination Sequence:
#
# PCOD8318104 Si02
#       5
#    16  16  16  16   8
#     4  10  21  36  56  82 110 143 183 227 275 330
#     4   9  18  34  56  81 108 141 181 224 274 326
#     4  10  21  38  58  81 112 146 182 228 282 334
#     4  10  20  36  58  82 111 145 184 232 278 327
#     4  11  23  37  55  83 117 153 191 229 277 336
#
# _framework density 18.609677999999999
#
# number of rings (size 3 to 8) (size 9 to 14) (size 15 to 20)
#    0.000    2.111    0.000    3.000    0.000    6.222 
#    2.000    2.222    0.000    0.000    0.000    0.000 
#    0.000    0.000    0.000    0.000    0.000    0.000 
#
# Total GULP energy -892993.617021 kJ/mol
# GULP energy per Si atom -12402.689125 kJ/mol
# Density = 1.856732 g / cm^3
# Si number density = 18.609678 Si / 1000 Ang^3
#
#
#
# Elastic Constant Matrix: (Units=GPa)
#
#
# Indices 1 2 3 4 5 6 
#
# 1 94.3833 67.9312 38.5378 0.0000 0.0000 0.0000
# 2 67.9312 94.3837 38.5381 0.0000 0.0000 0.0000
# 3 38.5378 38.5381 63.7053 0.0000 0.0000 0.0000
# 4 0.0000 0.0000 0.0000 33.6907 0.0000 0.0000
# 5 0.0000 0.0000 0.0000 0.0000 33.6907 0.0000
# 6 0.0000 0.0000 0.0000 0.0000 0.0000 25.4978
#
#
#
# Elastic Compliance Matrix: (Units=1/GPa)
#
#
# Indices 1 2 3 4 5 6 
#
# 1 0.023224 -0.014580 -0.005229 0.000000 0.000000 0.000000
# 2 -0.014580 0.023224 -0.005229 0.000000 0.000000 0.000000
# 3 -0.005229 -0.005229 0.022024 0.000000 0.000000 0.000000
# 4 0.000000 0.000000 0.000000 0.029682 0.000000 0.000000
# 5 0.000000 0.000000 0.000000 0.000000 0.029682 0.000000
# 6 0.000000 0.000000 0.000000 0.000000 0.000000 0.039219
#
#
# Mechanical properties :
#
#
# Convention : Reuss Voigt Hill
#
# Bulk Modulus (GPa) = 54.36139 60.27630 57.31885
# Shear Modulus (GPa) = 22.39517 25.74017 24.06767
#
# Velocity S-wave (km/s) = 3.47279 3.72312 3.60013
# Velocity P-wave (km/s) = 6.73462 7.13738 6.93893
#
# Compressibility (1/GPa) = 0.01839541
#
# Stress axis : x y z
#
# Youngs Moduli (GPa) = 43.05904 43.05907 45.40539
#
# Poissons Ratio (x) = 0.62780 0.23742
# Poissons Ratio (y) = 0.62780 0.23743
# Poissons Ratio (z) = 0.22515 0.22516
#
# Static dielectric constant tensor:
#      x y z
#    x 3.397310 0.000000 0.000000 
#    y 0.000000 3.397310 0.000000 
#    z 0.000000 0.000000 3.510720 
# 
# 
# High freq. dielectric constant tensor:
#      x y z
#    x 1.721920 0.000000 0.000000 
#    y 0.000000 1.721920 0.000000 
#    z 0.000000 0.000000 1.732550 
# 
# From -- ./inp_files/1537.got.cif
#   From: 2010.03.12/outbox.cif.g09.slc.cpg/sg136_1_cif.got.tgz:1537.got - 2010.04.06 18:39:43.
