data_PCOD8318520
_publ_section_title
;
Structure prediction by ZEFSAII (Michael W. Deem and Ramdas Pophale) SiO2 
 PCOD8318520
Probable space group: P 42/N M C
;
_chemical_formula_sum "Si O2"
_cell_formula_units_Z 96
_cell_length_a 14.637711
_cell_length_b 14.637711
_cell_length_c 20.292403
_cell_angle_alpha 90.000000
_cell_angle_beta 90.000000
_cell_angle_gamma 90.000000
_cell_volume 4347.902689
_symmetry_space_group_name_H-M "P 42/N M C"
_symmetry_group_IT_number 137
_space_group.IT_coordinate_system_code '2'
_symmetry_cell_setting 'tetragonal'
loop_
_space_group_symop_operation_xyz
x,y,z
1/2-y,x,1/2+z
1/2-x,1/2-y,z
y,1/2-x,1/2+z
1/2+x,-y,-z
-x,1/2+y,-z
1/2+y,1/2+x,1/2-z
-y,-x,1/2-z
-x,-y,-z
1/2+y,-x,1/2-z
1/2+x,1/2+y,-z
-y,1/2+x,1/2-z
1/2-x,y,z
x,1/2-y,z
1/2-y,1/2-x,1/2+z
y,x,1/2+z
loop_
_atom_site_type_symbol
_atom_site_label
_atom_site_fract_x
_atom_site_fract_y
_atom_site_fract_z
Si Si1 0.351845 0.469318 0.332167
Si Si2 0.150248 0.894504 0.953964
Si Si3 0.401834 0.147413 0.451677
Si Si4 0.141863 0.648936 0.395961
Si Si5 0.642040 0.856110 0.789628
Si Si6 0.452638 0.148499 0.079355
O O1 0.250000 0.491342 0.309047
O O2 0.344650 0.405585 0.396722
O O3 0.398634 0.567984 0.349194
O O4 0.398006 0.415148 0.271639
O O5 0.250000 0.847199 0.938706
O O6 0.063478 0.846015 0.920461
O O7 0.153145 0.995739 0.924702
O O8 0.136998 0.901221 0.032366
O O9 0.362082 0.250000 0.463163
O O10 0.406592 0.088566 0.518481
O O11 0.250000 0.636603 0.404233
O O12 0.118067 0.750000 0.366744
O O13 0.750000 0.869885 0.801195
O O14 0.620115 0.750000 0.775060
O O15 0.586340 0.893237 0.852877
O O16 0.413232 0.250000 0.072612
#
# Coordination Sequence:
#
# PCOD8318520 Si02
#       6
#    16  16  16  16  16  16
#     4  10  19  33  56  85 116 157 199 242 301 364
#     4  10  21  36  55  83 120 155 192 246 303 354
#     4  11  22  34  54  84 118 153 197 250 300 356
#     4   9  17  31  54  85 118 152 193 241 294 357
#     4   9  19  35  54  81 121 160 198 250 312 374
#     4  11  21  35  57  86 118 156 199 244 301 366
#
# _framework density 22.079609999999999
#
# number of rings (size 3 to 8) (size 9 to 14) (size 15 to 20)
#    0.000    2.000    1.667    2.500    0.000    3.667 
#    0.000    0.833    0.000    0.000    0.000    7.000 
#    0.000   29.333    0.000    0.000    0.000    0.667 
#
# Total GULP energy -1189699.903927 kJ/mol
# GULP energy per Si atom -12392.707333 kJ/mol
# Density = 2.202936 g / cm^3
# Si number density = 22.079610 Si / 1000 Ang^3
#
#
#
# Elastic Constant Matrix: (Units=GPa)
#
#
# Indices 1 2 3 4 5 6 
#
# 1 107.4451 16.5537 44.5353 0.0000 0.0000 0.0000
# 2 16.5537 107.4451 44.5353 0.0000 0.0000 0.0000
# 3 44.5353 44.5353 132.3089 0.0000 0.0000 0.0000
# 4 0.0000 0.0000 0.0000 21.8536 0.0000 0.0000
# 5 0.0000 0.0000 0.0000 0.0000 21.8536 0.0000
# 6 0.0000 0.0000 0.0000 0.0000 0.0000 18.4279
#
#
#
# Elastic Compliance Matrix: (Units=1/GPa)
#
#
# Indices 1 2 3 4 5 6 
#
# 1 0.010819 -0.000183 -0.003580 0.000000 0.000000 0.000000
# 2 -0.000183 0.010819 -0.003580 0.000000 0.000000 0.000000
# 3 -0.003580 -0.003580 0.009968 0.000000 0.000000 0.000000
# 4 0.000000 0.000000 0.000000 0.045759 0.000000 0.000000
# 5 0.000000 0.000000 0.000000 0.000000 0.045759 0.000000
# 6 0.000000 0.000000 0.000000 0.000000 0.000000 0.054265
#
#
# Mechanical properties :
#
#
# Convention : Reuss Voigt Hill
#
# Bulk Modulus (GPa) = 59.10126 62.04977 60.57552
# Shear Modulus (GPa) = 25.28868 28.53201 26.91034
#
# Velocity S-wave (km/s) = 3.38796 3.59866 3.49490
# Velocity P-wave (km/s) = 6.49075 6.74025 6.61667
#
# Compressibility (1/GPa) = 0.01692011
#
# Stress axis : x y z
#
# Youngs Moduli (GPa) = 92.42801 92.42801 100.31835
#
# Poissons Ratio (x) = 0.01691 0.35916
# Poissons Ratio (y) = 0.01691 0.35916
# Poissons Ratio (z) = 0.33091 0.33091
#
# Static dielectric constant tensor:
#      x y z
#    x 4.019390 0.000000 0.000000 
#    y 0.000000 4.019390 0.000000 
#    z 0.000000 0.000000 3.760420 
# 
# 
# High freq. dielectric constant tensor:
#      x y z
#    x 1.868080 0.000000 0.000000 
#    y 0.000000 1.868080 0.000000 
#    z 0.000000 0.000000 1.838910 
# 
# From -- ./inp_files/7811.got.cif
#   From: 2010.03.12/outbox.cif.g09.slc.cpg/sg137_4_cif.got.tgz:7811.got - 2010.04.08 09:34:49.
