data_PCOD8318290
_publ_section_title
;
Structure prediction by ZEFSAII (Michael W. Deem and Ramdas Pophale) SiO2 
 PCOD8318290
Probable space group: P 42/M N M
;
_chemical_formula_sum "Si O2"
_cell_formula_units_Z 56
_cell_length_a 12.007100
_cell_length_b 12.007100
_cell_length_c 17.639023
_cell_angle_alpha 90.000000
_cell_angle_beta 90.000000
_cell_angle_gamma 90.000000
_cell_volume 2543.025891
_symmetry_space_group_name_H-M "P 42/M N M"
_symmetry_group_IT_number 136
_symmetry_cell_setting 'tetragonal'
loop_
_space_group_symop_operation_xyz
x,y,z
1/2-y,1/2+x,1/2+z
-x,-y,z
1/2+y,1/2-x,1/2+z
1/2+x,1/2-y,1/2-z
1/2-x,1/2+y,1/2-z
y,x,-z
-y,-x,-z
-x,-y,-z
1/2+y,1/2-x,1/2-z
x,y,-z
1/2-y,1/2+x,1/2-z
1/2-x,1/2+y,1/2+z
1/2+x,1/2-y,1/2+z
-y,-x,z
y,x,z
loop_
_atom_site_type_symbol
_atom_site_label
_atom_site_fract_x
_atom_site_fract_y
_atom_site_fract_z
Si Si1 0.319740 0.499532 0.281354
Si Si2 0.914767 0.085234 0.413702
Si Si3 0.177536 0.485926 0.141289
Si Si4 0.979322 0.332926 0.089276
O O1 0.382303 0.617698 0.277410
O O2 0.400517 0.400517 0.251946
O O3 0.207811 0.503412 0.230068
O O4 0.285660 0.473775 0.368363
O O5 0.935705 0.064296 0.500000
O O6 0.788031 0.056046 0.398281
O O7 0.000000 0.000000 0.369750
O O8 0.135846 0.601200 0.103748
O O9 0.082050 0.395679 0.128667
O O10 0.999231 0.316171 0.000000
#
# Coordination Sequence:
#
# PCOD8318290 Si02
#       4
#    16   8  16  16
#     4  11  25  44  66  96 133 178 229 283 338 402
#     4  11  22  36  64 102 134 170 216 279 346 398
#     4  11  22  43  68  96 133 172 224 286 336 400
#     4  11  25  43  66  99 138 178 222 276 344 415
#
# _framework density 22.021008999999999
#
# number of rings (size 3 to 8) (size 9 to 14) (size 15 to 20)
#    0.000    1.000    1.429    6.000    2.000    8.000 
#    0.000    1.429    0.000    0.000    0.000    0.000 
#    0.000    0.000    0.000    0.000    0.000    0.000 
#
# Total GULP energy -694327.804618 kJ/mol
# GULP energy per Si atom -12398.710797 kJ/mol
# Density = 2.197089 g / cm^3
# Si number density = 22.021009 Si / 1000 Ang^3
#
#
#
# Elastic Constant Matrix: (Units=GPa)
#
#
# Indices 1 2 3 4 5 6 
#
# 1 114.1721 52.1954 47.8859 0.0000 0.0000 0.0000
# 2 52.1954 114.1722 47.8860 0.0000 0.0000 0.0000
# 3 47.8859 47.8860 159.5660 0.0000 0.0000 0.0000
# 4 0.0000 0.0000 0.0000 26.3418 0.0000 0.0000
# 5 0.0000 0.0000 0.0000 0.0000 26.3415 0.0000
# 6 0.0000 0.0000 0.0000 0.0000 0.0000 23.5674
#
#
#
# Elastic Compliance Matrix: (Units=1/GPa)
#
#
# Indices 1 2 3 4 5 6 
#
# 1 0.011701 -0.004435 -0.002181 0.000000 0.000000 0.000000
# 2 -0.004435 0.011701 -0.002181 0.000000 0.000000 0.000000
# 3 -0.002181 -0.002181 0.007576 0.000000 0.000000 0.000000
# 4 0.000000 0.000000 0.000000 0.037963 0.000000 0.000000
# 5 0.000000 0.000000 0.000000 0.000000 0.037963 0.000000
# 6 0.000000 0.000000 0.000000 0.000000 0.000000 0.042432
#
#
# Mechanical properties :
#
#
# Convention : Reuss Voigt Hill
#
# Bulk Modulus (GPa) = 74.70673 75.98276 75.34474
# Shear Modulus (GPa) = 29.17373 31.24633 30.21003
#
# Velocity S-wave (km/s) = 3.64375 3.77096 3.70790
# Velocity P-wave (km/s) = 7.19037 7.31709 7.25400
#
# Compressibility (1/GPa) = 0.01338568
#
# Stress axis : x y z
#
# Youngs Moduli (GPa) = 85.46596 85.46597 131.99980
#
# Poissons Ratio (x) = 0.37900 0.28783
# Poissons Ratio (y) = 0.37900 0.28783
# Poissons Ratio (z) = 0.18636 0.18636
#
# Static dielectric constant tensor:
#      x y z
#    x 3.965810 0.000000 0.000000 
#    y 0.000000 3.965810 0.000000 
#    z 0.000000 0.000000 4.105600 
# 
# 
# High freq. dielectric constant tensor:
#      x y z
#    x 1.866350 0.000000 0.000000 
#    y 0.000000 1.866350 0.000000 
#    z 0.000000 0.000000 1.880670 
# 
# From -- ./inp_files/7043.got.cif
#   From: 2010.03.12/outbox.cif.g09.slc.cpg/sg136_4_cif.got.tgz:7043.got - 2010.04.06 18:39:43.
