data_PCOD8318739
_publ_section_title
;
Structure prediction by ZEFSAII (Michael W. Deem and Ramdas Pophale) SiO2 
 PCOD8318739
Probable space group: P 42/N M C
;
_chemical_formula_sum "Si O2"
_cell_formula_units_Z 64
_cell_length_a 15.494327
_cell_length_b 15.494327
_cell_length_c 13.591305
_cell_angle_alpha 90.000000
_cell_angle_beta 90.000000
_cell_angle_gamma 90.000000
_cell_volume 3262.921256
_symmetry_space_group_name_H-M "P 42/N M C"
_symmetry_group_IT_number 137
_space_group.IT_coordinate_system_code '2'
_symmetry_cell_setting 'tetragonal'
loop_
_space_group_symop_operation_xyz
x,y,z
1/2-y,x,1/2+z
1/2-x,1/2-y,z
y,1/2-x,1/2+z
1/2+x,-y,-z
-x,1/2+y,-z
1/2+y,1/2+x,1/2-z
-y,-x,1/2-z
-x,-y,-z
1/2+y,-x,1/2-z
1/2+x,1/2+y,-z
-y,1/2+x,1/2-z
1/2-x,y,z
x,1/2-y,z
1/2-y,1/2-x,1/2+z
y,x,1/2+z
loop_
_atom_site_type_symbol
_atom_site_label
_atom_site_fract_x
_atom_site_fract_y
_atom_site_fract_z
Si Si1 0.049542 0.434681 0.817304
Si Si2 0.996157 0.651985 0.986082
Si Si3 0.850024 0.846563 0.339898
Si Si4 0.600492 0.347873 0.355000
O O1 0.094967 0.355963 0.760032
O O2 0.125564 0.501286 0.842558
O O3 0.976560 0.476560 0.750000
O O4 0.002162 0.404030 0.915620
O O5 0.977528 0.750000 0.015290
O O6 0.918614 0.617127 0.916962
O O7 0.087956 0.645771 0.932012
O O8 0.750000 0.862317 0.314953
O O9 0.864765 0.750000 0.382317
O O10 0.647850 0.352150 0.250000
O O11 0.606584 0.250000 0.395203
#
# Coordination Sequence:
#
# PCOD8318739 Si02
#       4
#    16  16  16  16
#     4  11  22  39  60  87 124 160 204 251 304 366
#     4  11  23  41  60  89 124 159 206 254 306 370
#     4  10  21  38  61  90 123 160 203 252 307 365
#     4  11  22  38  64  92 123 160 204 255 308 363
#
# _framework density 19.614325999999998
#
# number of rings (size 3 to 8) (size 9 to 14) (size 15 to 20)
#    0.000    1.250    5.000    3.000    0.000    3.750 
#    0.000    3.750    0.000    0.000    0.000    0.000 
#    0.000    0.000    0.000    0.000    0.000    0.000 
#
# Total GULP energy -793746.651298 kJ/mol
# GULP energy per Si atom -12402.291427 kJ/mol
# Density = 1.956968 g / cm^3
# Si number density = 19.614326 Si / 1000 Ang^3
#
#
#
# Elastic Constant Matrix: (Units=GPa)
#
#
# Indices 1 2 3 4 5 6 
#
# 1 112.7665 23.4633 53.0993 0.0000 0.0000 0.0000
# 2 23.4633 112.7665 53.0993 0.0000 0.0000 0.0000
# 3 53.0993 53.0993 127.8463 0.0000 0.0000 0.0000
# 4 0.0000 0.0000 0.0000 15.1429 0.0000 0.0000
# 5 0.0000 0.0000 0.0000 0.0000 15.1429 0.0000
# 6 0.0000 0.0000 0.0000 0.0000 0.0000 22.7703
#
#
#
# Elastic Compliance Matrix: (Units=1/GPa)
#
#
# Indices 1 2 3 4 5 6 
#
# 1 0.011027 -0.000171 -0.004509 0.000000 0.000000 0.000000
# 2 -0.000171 0.011027 -0.004509 0.000000 0.000000 0.000000
# 3 -0.004509 -0.004509 0.011567 0.000000 0.000000 0.000000
# 4 0.000000 0.000000 0.000000 0.066038 0.000000 0.000000
# 5 0.000000 0.000000 0.000000 0.000000 0.066038 0.000000
# 6 0.000000 0.000000 0.000000 0.000000 0.000000 0.043917
#
#
# Mechanical properties :
#
#
# Convention : Reuss Voigt Hill
#
# Bulk Modulus (GPa) = 65.60308 68.07814 66.84061
# Shear Modulus (GPa) = 21.45277 25.52571 23.48924
#
# Velocity S-wave (km/s) = 3.31075 3.61138 3.46433
# Velocity P-wave (km/s) = 6.93786 7.22310 7.08191
#
# Compressibility (1/GPa) = 0.01524319
#
# Stress axis : x y z
#
# Youngs Moduli (GPa) = 90.69049 90.69049 86.45244
#
# Poissons Ratio (x) = 0.01553 0.38978
# Poissons Ratio (y) = 0.01553 0.38978
# Poissons Ratio (z) = 0.40889 0.40889
#
# Static dielectric constant tensor:
#      x y z
#    x 3.551120 0.000000 0.000000 
#    y 0.000000 3.551120 0.000000 
#    z 0.000000 0.000000 3.472470 
# 
# 
# High freq. dielectric constant tensor:
#      x y z
#    x 1.764180 0.000000 0.000000 
#    y 0.000000 1.764180 0.000000 
#    z 0.000000 0.000000 1.752770 
# 
# From -- ./inp_files/4707.got.cif
#   From: 2010.03.12/outbox.cif.g09.slc.cpg/sg137_3_cif.got.tgz:4707.got - 2010.04.08 09:34:49.
