data_PCOD8318036
_publ_section_title
;
Structure prediction by ZEFSAII (Michael W. Deem and Ramdas Pophale) SiO2 
 PCOD8318036
Probable space group: P 42/M N M
;
_chemical_formula_sum "Si O2"
_cell_formula_units_Z 96
_cell_length_a 21.669665
_cell_length_b 21.669665
_cell_length_c 11.605430
_cell_angle_alpha 90.000000
_cell_angle_beta 90.000000
_cell_angle_gamma 90.000000
_cell_volume 5449.612611
_symmetry_space_group_name_H-M "P 42/M N M"
_symmetry_group_IT_number 136
_symmetry_cell_setting 'tetragonal'
loop_
_space_group_symop_operation_xyz
x,y,z
1/2-y,1/2+x,1/2+z
-x,-y,z
1/2+y,1/2-x,1/2+z
1/2+x,1/2-y,1/2-z
1/2-x,1/2+y,1/2-z
y,x,-z
-y,-x,-z
-x,-y,-z
1/2+y,1/2-x,1/2-z
x,y,-z
1/2-y,1/2+x,1/2-z
1/2-x,1/2+y,1/2+z
1/2+x,1/2-y,1/2+z
-y,-x,z
y,x,z
loop_
_atom_site_type_symbol
_atom_site_label
_atom_site_fract_x
_atom_site_fract_y
_atom_site_fract_z
Si Si1 0.873694 0.653028 0.630955
Si Si2 0.542154 0.793830 0.363235
Si Si3 0.332746 0.500836 0.734190
Si Si4 0.900998 0.002523 0.000000
Si Si5 0.885512 0.786651 0.631372
Si Si6 0.051662 0.948339 0.637239
Si Si7 0.018840 0.404706 0.253786
O O1 0.858174 0.665182 0.500000
O O2 0.819153 0.609061 0.677767
O O3 0.874268 0.720012 0.691210
O O4 0.941323 0.622257 0.640827
O O5 0.538747 0.778739 0.500000
O O6 0.531891 0.733697 0.283753
O O7 0.493813 0.849277 0.336582
O O8 0.359944 0.511817 0.609303
O O9 0.324785 0.566124 0.794607
O O10 0.380738 0.463080 0.812693
O O11 0.926757 0.073244 0.000000
O O12 0.958984 0.958984 0.000000
O O13 0.910664 0.781384 0.500000
O O14 0.820484 0.820484 0.634245
O O15 0.055099 0.944902 0.500000
O O16 0.000000 0.000000 0.674850
O O17 0.062928 0.457212 0.195173
#
# Coordination Sequence:
#
# PCOD8318036 Si02
#       7
#    16  16  16   8  16   8  16
#     4   9  18  33  52  75 106 140 179 223 267 317
#     4  10  20  34  51  79 114 144 178 219 267 326
#     4  12  21  36  57  82 110 144 179 221 274 328
#     4  11  22  36  54  80 112 143 178 222 272 326
#     4  10  20  35  55  80 104 135 178 225 272 318
#     4  11  24  41  61  85 109 138 179 235 287 328
#     4   9  17  31  53  78 105 140 180 222 270 316
#
# _framework density 17.615931
#
# number of rings (size 3 to 8) (size 9 to 14) (size 15 to 20)
#    0.000    1.833    3.333    2.000    0.000    2.000 
#    1.500    3.333    0.000    0.000    0.000    0.000 
#    0.000    0.000    0.000    0.000    0.000    0.000 
#
# Total GULP energy -1189486.738848 kJ/mol
# GULP energy per Si atom -12390.486863 kJ/mol
# Density = 1.757584 g / cm^3
# Si number density = 17.615931 Si / 1000 Ang^3
#
#
#
# Elastic Constant Matrix: (Units=GPa)
#
#
# Indices 1 2 3 4 5 6 
#
# 1 120.4831 61.0084 35.1400 0.0000 0.0000 0.0000
# 2 61.0084 120.4823 35.1399 0.0000 0.0000 0.0000
# 3 35.1400 35.1399 68.4161 0.0000 0.0000 0.0000
# 4 0.0000 0.0000 0.0000 27.1030 0.0000 0.0000
# 5 0.0000 0.0000 0.0000 0.0000 27.1030 0.0000
# 6 0.0000 0.0000 0.0000 0.0000 0.0000 26.2220
#
#
#
# Elastic Compliance Matrix: (Units=1/GPa)
#
#
# Indices 1 2 3 4 5 6 
#
# 1 0.011846 -0.004968 -0.003533 0.000000 0.000000 0.000000
# 2 -0.004968 0.011846 -0.003533 0.000000 0.000000 0.000000
# 3 -0.003533 -0.003533 0.018245 0.000000 0.000000 0.000000
# 4 0.000000 0.000000 0.000000 0.036896 0.000000 0.000000
# 5 0.000000 0.000000 0.000000 0.000000 0.036896 0.000000
# 6 0.000000 0.000000 0.000000 0.000000 0.000000 0.038136
#
#
# Mechanical properties :
#
#
# Convention : Reuss Voigt Hill
#
# Bulk Modulus (GPa) = 55.95795 63.55090 59.75443
# Shear Modulus (GPa) = 27.19031 27.95849 27.57440
#
# Velocity S-wave (km/s) = 3.93301 3.98818 3.96069
# Velocity P-wave (km/s) = 7.24288 7.57374 7.41016
#
# Compressibility (1/GPa) = 0.01787056
#
# Stress axis : x y z
#
# Youngs Moduli (GPa) = 84.41747 84.41697 54.80867
#
# Poissons Ratio (x) = 0.41939 0.19362
# Poissons Ratio (y) = 0.41939 0.19362
# Poissons Ratio (z) = 0.29821 0.29821
#
# Static dielectric constant tensor:
#      x y z
#    x 3.508900 0.000000 0.000000 
#    y 0.000000 3.508910 0.000000 
#    z 0.000000 0.000000 3.112060 
# 
# 
# High freq. dielectric constant tensor:
#      x y z
#    x 1.688330 0.000000 0.000000 
#    y 0.000000 1.688330 0.000000 
#    z 0.000000 0.000000 1.657940 
# 
# From -- ./inp_files/3835.got.cif
#   From: 2010.03.12/outbox.cif.g09.slc.cpg/sg136_2_cif.got.tgz:3835.got - 2010.04.06 18:39:43.
