data_PCOD8318391
_publ_section_title
;
Structure prediction by ZEFSAII (Michael W. Deem and Ramdas Pophale) SiO2 
 PCOD8318391
Probable space group: P 42/N M C
;
_chemical_formula_sum "Si O2"
_cell_formula_units_Z 92
_cell_length_a 24.237513
_cell_length_b 24.237513
_cell_length_c 9.272010
_cell_angle_alpha 90.000000
_cell_angle_beta 90.000000
_cell_angle_gamma 90.000000
_cell_volume 5446.907516
_symmetry_space_group_name_H-M "P 42/N M C"
_symmetry_group_IT_number 137
_space_group.IT_coordinate_system_code '2'
_symmetry_cell_setting 'tetragonal'
loop_
_space_group_symop_operation_xyz
x,y,z
1/2-y,x,1/2+z
1/2-x,1/2-y,z
y,1/2-x,1/2+z
1/2+x,-y,-z
-x,1/2+y,-z
1/2+y,1/2+x,1/2-z
-y,-x,1/2-z
-x,-y,-z
1/2+y,-x,1/2-z
1/2+x,1/2+y,-z
-y,1/2+x,1/2-z
1/2-x,y,z
x,1/2-y,z
1/2-y,1/2-x,1/2+z
y,x,1/2+z
loop_
_atom_site_type_symbol
_atom_site_label
_atom_site_fract_x
_atom_site_fract_y
_atom_site_fract_z
Si Si1 0.250000 0.250000 0.382674
Si Si2 0.835000 0.750000 0.867110
Si Si3 0.964744 0.313866 0.128258
Si Si4 0.062040 0.896304 0.111639
Si Si5 0.031363 0.596650 0.645525
Si Si6 0.065479 0.088368 0.821198
Si Si7 0.849099 0.913068 0.412975
O O1 0.302689 0.250000 0.281390
O O2 0.250000 0.302562 0.484254
O O3 0.867668 0.693360 0.863510
O O4 0.946517 0.250000 0.140824
O O5 0.946241 0.347979 0.271449
O O6 0.030013 0.319877 0.126662
O O7 0.939468 0.339009 0.978740
O O8 0.103503 0.896498 0.250000
O O9 0.001117 0.913435 0.169484
O O10 0.089096 0.941512 0.008669
O O11 0.045223 0.545223 0.750000
O O12 0.966658 0.593788 0.616492
O O13 0.090824 0.095954 0.661826
O O14 0.088010 0.139174 0.916716
#
# Coordination Sequence:
#
# PCOD8318391 Si02
#       7
#     4   8  16  16  16  16  16
#     4  10  24  34  52  62  76 122 164 254 268 280
#     4  11  20  38  48  64  88 114 182 220 277 291
#     4   9  18  33  48  68  95 137 164 190 228 289
#     4  10  18  29  48  73 104 126 155 199 243 292
#     4   9  17  29  48  71 100 132 164 193 234 291
#     4  10  18  28  46  75  97 128 157 196 255 302
#     4  10  19  30  50  65  93 125 162 206 253 306
#
# _framework density 16.890317
#
# number of rings (size 3 to 8) (size 9 to 14) (size 15 to 20)
#    0.000    2.261    0.870    4.174    0.000    0.000 
#    0.000    0.870    0.000    0.000    0.000    0.000 
#    0.000   41.043    0.000    0.000    0.000    0.000 
#
# Total GULP energy -1139754.420454 kJ/mol
# GULP energy per Si atom -12388.635005 kJ/mol
# Density = 1.685187 g / cm^3
# Si number density = 16.890317 Si / 1000 Ang^3
#
#
#
# Elastic Constant Matrix: (Units=GPa)
#
#
# Indices 1 2 3 4 5 6 
#
# 1 76.0635 26.4544 29.7897 0.0000 0.0000 0.0000
# 2 26.4544 76.0640 29.7901 0.0000 0.0000 0.0000
# 3 29.7897 29.7901 93.6963 0.0000 0.0000 0.0000
# 4 0.0000 0.0000 0.0000 24.8933 0.0000 0.0000
# 5 0.0000 0.0000 0.0000 0.0000 24.8930 0.0000
# 6 0.0000 0.0000 0.0000 0.0000 0.0000 26.1582
#
#
#
# Elastic Compliance Matrix: (Units=1/GPa)
#
#
# Indices 1 2 3 4 5 6 
#
# 1 0.016061 -0.004096 -0.003804 0.000000 0.000000 0.000000
# 2 -0.004096 0.016061 -0.003804 0.000000 0.000000 0.000000
# 3 -0.003804 -0.003804 0.013092 0.000000 0.000000 0.000000
# 4 0.000000 0.000000 0.000000 0.040171 0.000000 0.000000
# 5 0.000000 0.000000 0.000000 0.000000 0.040172 0.000000
# 6 0.000000 0.000000 0.000000 0.000000 0.000000 0.038229
#
#
# Mechanical properties :
#
#
# Convention : Reuss Voigt Hill
#
# Bulk Modulus (GPa) = 45.86027 46.43246 46.14637
# Shear Modulus (GPa) = 25.71161 25.84153 25.77657
#
# Velocity S-wave (km/s) = 3.90586 3.91572 3.91079
# Velocity P-wave (km/s) = 6.89578 6.92777 6.91179
#
# Compressibility (1/GPa) = 0.02180537
#
# Stress axis : x y z
#
# Youngs Moduli (GPa) = 62.26107 62.26134 76.38349
#
# Poissons Ratio (x) = 0.25503 0.29058
# Poissons Ratio (y) = 0.25503 0.29058
# Poissons Ratio (z) = 0.23685 0.23686
#
# Static dielectric constant tensor:
#      x y z
#    x 3.020160 0.000000 0.000000 
#    y 0.000000 3.020150 0.000000 
#    z 0.000000 0.000000 3.278130 
# 
# 
# High freq. dielectric constant tensor:
#      x y z
#    x 1.628460 0.000000 0.000000 
#    y 0.000000 1.628460 0.000000 
#    z 0.000000 0.000000 1.662780 
# 
# From -- ./inp_files/2212.got.cif
#   From: 2010.03.12/outbox.cif.g09.slc.cpg/sg137_2_cif.got.tgz:2212.got - 2010.04.08 09:34:49.
