data_PCOD8318854
_publ_section_title
;
Structure prediction by ZEFSAII (Michael W. Deem and Ramdas Pophale) SiO2 
 PCOD8318854
Probable space group: P 42/N C M
;
_chemical_formula_sum "Si O2"
_cell_formula_units_Z 64
_cell_length_a 16.501289
_cell_length_b 16.501289
_cell_length_c 15.254022
_cell_angle_alpha 90.000000
_cell_angle_beta 90.000000
_cell_angle_gamma 90.000000
_cell_volume 4153.556375
_symmetry_space_group_name_H-M "P 42/N C M"
_symmetry_group_IT_number 138
_space_group.IT_coordinate_system_code '2'
_symmetry_cell_setting 'tetragonal'
loop_
_space_group_symop_operation_xyz
x,y,z
1/2-y,x,1/2+z
1/2-x,1/2-y,z
y,1/2-x,1/2+z
1/2+x,-y,1/2-z
-x,1/2+y,1/2-z
1/2+y,1/2+x,-z
-y,-x,-z
-x,-y,-z
1/2+y,-x,1/2-z
1/2+x,1/2+y,-z
-y,1/2+x,1/2-z
1/2-x,y,1/2+z
x,1/2-y,1/2+z
1/2-y,1/2-x,z
y,x,z
loop_
_atom_site_type_symbol
_atom_site_label
_atom_site_fract_x
_atom_site_fract_y
_atom_site_fract_z
Si Si1 0.064055 0.929864 0.901743
Si Si2 0.245314 0.119130 0.504301
Si Si3 0.687317 0.947395 0.665782
Si Si4 0.446480 0.310297 0.176506
O O1 0.031642 0.853661 0.846038
O O2 0.133436 0.971999 0.843719
O O3 0.094706 0.905295 0.000000
O O4 0.988758 0.988758 0.916188
O O5 0.310066 0.189935 0.502666
O O6 0.155101 0.155101 0.495015
O O7 0.262892 0.059637 0.424184
O O8 0.251673 0.072564 0.595490
O O9 0.631545 0.868456 0.684114
O O10 0.752768 0.959121 0.741032
O O11 0.374183 0.374183 0.195141
#
# Coordination Sequence:
#
# PCOD8318854 Si02
#       4
#    16  16  16  16
#     4   9  16  30  48  66  91 126 166 196 225 276
#     4   9  16  25  39  64  98 126 146 179 231 285
#     4  10  18  28  45  69  96 125 157 194 234 279
#     4  10  18  28  45  69  96 125 157 194 234 279
#
# _framework density 15.408481999999999
#
# number of rings (size 3 to 8) (size 9 to 14) (size 15 to 20)
#    0.000    2.500    2.500    1.500    0.000    2.500 
#    0.000    0.000    0.000    2.250    0.000    8.750 
#    0.000    0.000    0.000    0.000    0.000    0.000 
#
# Total GULP energy -793298.880455 kJ/mol
# GULP energy per Si atom -12395.295007 kJ/mol
# Density = 1.537341 g / cm^3
# Si number density = 15.408482 Si / 1000 Ang^3
#
#
#
# Elastic Constant Matrix: (Units=GPa)
#
#
# Indices 1 2 3 4 5 6 
#
# 1 49.2709 28.0305 25.0477 0.0000 0.0000 0.0000
# 2 28.0305 49.2710 25.0477 0.0000 0.0000 0.0000
# 3 25.0477 25.0477 91.9025 0.0000 0.0000 0.0000
# 4 0.0000 0.0000 0.0000 2.2727 0.0000 0.0000
# 5 0.0000 0.0000 0.0000 0.0000 2.2723 0.0000
# 6 0.0000 0.0000 0.0000 0.0000 0.0000 27.8846
#
#
#
# Elastic Compliance Matrix: (Units=1/GPa)
#
#
# Indices 1 2 3 4 5 6 
#
# 1 0.031396 -0.015684 -0.004282 0.000000 0.000000 0.000000
# 2 -0.015684 0.031396 -0.004282 0.000000 0.000000 0.000000
# 3 -0.004282 -0.004282 0.013215 0.000000 0.000000 0.000000
# 4 0.000000 0.000000 0.000000 0.440008 0.000000 0.000000
# 5 0.000000 0.000000 0.000000 0.000000 0.440080 0.000000
# 6 0.000000 0.000000 0.000000 0.000000 0.000000 0.035862
#
#
# Mechanical properties :
#
#
# Convention : Reuss Voigt Hill
#
# Bulk Modulus (GPa) = 36.35087 38.52181 37.43634
# Shear Modulus (GPa) = 4.76361 13.97381 9.36871
#
# Velocity S-wave (km/s) = 1.76019 3.01473 2.46849
# Velocity P-wave (km/s) = 5.27008 6.09695 5.69853
#
# Compressibility (1/GPa) = 0.02750966
#
# Stress axis : x y z
#
# Youngs Moduli (GPa) = 31.85146 31.85150 75.67023
#
# Poissons Ratio (x) = 0.49957 0.32403
# Poissons Ratio (y) = 0.49957 0.32403
# Poissons Ratio (z) = 0.13639 0.13639
#
# Static dielectric constant tensor:
#      x y z
#    x 2.870840 0.000000 0.000000 
#    y 0.000000 2.870840 0.000000 
#    z 0.000000 0.000000 3.015940 
# 
# 
# High freq. dielectric constant tensor:
#      x y z
#    x 1.561430 0.000000 0.000000 
#    y 0.000000 1.561430 0.000000 
#    z 0.000000 0.000000 1.600800 
# 
# From -- ./inp_files/2678.got.cif
#   From: 2010.03.12/outbox.cif.g09.slc.cpg/sg138_2_cif.got.tgz:2678.got - 2010.04.08 09:41:05.
