data_PCOD8318164
_publ_section_title
;
Structure prediction by ZEFSAII (Michael W. Deem and Ramdas Pophale) SiO2 
 PCOD8318164
Probable space group: P 42/M N M
;
_chemical_formula_sum "Si O2"
_cell_formula_units_Z 96
_cell_length_a 23.862477
_cell_length_b 23.862477
_cell_length_c 8.785075
_cell_angle_alpha 90.000000
_cell_angle_beta 90.000000
_cell_angle_gamma 90.000000
_cell_volume 5002.378155
_symmetry_space_group_name_H-M "P 42/M N M"
_symmetry_group_IT_number 136
_symmetry_cell_setting 'tetragonal'
loop_
_space_group_symop_operation_xyz
x,y,z
1/2-y,1/2+x,1/2+z
-x,-y,z
1/2+y,1/2-x,1/2+z
1/2+x,1/2-y,1/2-z
1/2-x,1/2+y,1/2-z
y,x,-z
-y,-x,-z
-x,-y,-z
1/2+y,1/2-x,1/2-z
x,y,-z
1/2-y,1/2+x,1/2-z
1/2-x,1/2+y,1/2+z
1/2+x,1/2-y,1/2+z
-y,-x,z
y,x,z
loop_
_atom_site_type_symbol
_atom_site_label
_atom_site_fract_x
_atom_site_fract_y
_atom_site_fract_z
Si Si1 0.207612 0.985066 0.319797
Si Si2 0.589868 0.500964 0.321420
Si Si3 0.968332 0.578674 0.181665
Si Si4 0.933425 0.694886 0.678703
Si Si5 0.308081 0.781111 0.176824
Si Si6 0.727096 0.638276 0.819968
O O1 0.205063 0.985039 0.500000
O O2 0.219196 0.923505 0.252295
O O3 0.148489 0.007472 0.261620
O O4 0.258625 0.023200 0.262500
O O5 0.600336 0.502971 0.500000
O O6 0.551984 0.448017 0.276492
O O7 0.558005 0.558005 0.269026
O O8 0.927834 0.530268 0.247272
O O9 0.942582 0.638269 0.227308
O O10 0.971552 0.573288 0.000000
O O11 0.940338 0.681503 0.500000
O O12 0.873392 0.722543 0.715732
O O13 0.275603 0.724398 0.230956
O O14 0.285031 0.835742 0.262461
O O15 0.297848 0.790859 0.000000
O O16 0.675708 0.675708 0.759183
O O17 0.728597 0.636428 0.000000
#
# Coordination Sequence:
#
# PCOD8318164 Si02
#       6
#    16  16  16  16  16  16
#     4  10  21  35  54  82 114 144 182 233 284 335
#     4   9  19  36  56  79 111 150 190 235 286 340
#     4  11  23  41  64  88 116 150 191 237 289 344
#     4  10  22  38  56  85 120 153 190 234 284 338
#     4   9  19  36  56  77 106 147 190 228 271 327
#     4   9  18  33  53  78 107 139 179 229 281 328
#
# _framework density 19.190871000000001
#
# number of rings (size 3 to 8) (size 9 to 14) (size 15 to 20)
#    0.000    2.333    0.000    3.000    2.333    4.000 
#    0.000    4.167    0.000    2.000    0.000    0.000 
#    0.000    0.000    0.000    0.000    0.000    0.000 
#
# Total GULP energy -1190450.893296 kJ/mol
# GULP energy per Si atom -12400.530138 kJ/mol
# Density = 1.914719 g / cm^3
# Si number density = 19.190871 Si / 1000 Ang^3
#
#
#
# Elastic Constant Matrix: (Units=GPa)
#
#
# Indices 1 2 3 4 5 6 
#
# 1 120.2673 59.6402 30.3259 0.0000 0.0000 0.0000
# 2 59.6402 120.2673 30.3259 0.0000 0.0000 0.0000
# 3 30.3259 30.3259 45.8843 0.0000 0.0000 0.0000
# 4 0.0000 0.0000 0.0000 28.6951 0.0000 0.0000
# 5 0.0000 0.0000 0.0000 0.0000 28.6951 0.0000
# 6 0.0000 0.0000 0.0000 0.0000 0.0000 24.0020
#
#
#
# Elastic Compliance Matrix: (Units=1/GPa)
#
#
# Indices 1 2 3 4 5 6 
#
# 1 0.011823 -0.004671 -0.004727 0.000000 0.000000 0.000000
# 2 -0.004671 0.011823 -0.004727 0.000000 0.000000 0.000000
# 3 -0.004727 -0.004727 0.028042 0.000000 0.000000 0.000000
# 4 0.000000 0.000000 0.000000 0.034849 0.000000 0.000000
# 5 0.000000 0.000000 0.000000 0.000000 0.034849 0.000000
# 6 0.000000 0.000000 0.000000 0.000000 0.000000 0.041663
#
#
# Mechanical properties :
#
#
# Convention : Reuss Voigt Hill
#
# Bulk Modulus (GPa) = 42.66475 58.55586 50.61030
# Shear Modulus (GPa) = 25.11141 27.35357 26.23249
#
# Velocity S-wave (km/s) = 3.62126 3.77947 3.70121
# Velocity P-wave (km/s) = 6.30593 7.04446 6.68540
#
# Compressibility (1/GPa) = 0.02343855
#
# Stress axis : x y z
#
# Youngs Moduli (GPa) = 84.57998 84.57998 35.66055
#
# Poissons Ratio (x) = 0.39509 0.16856
# Poissons Ratio (y) = 0.39509 0.16856
# Poissons Ratio (z) = 0.39980 0.39980
#
# Static dielectric constant tensor:
#      x y z
#    x 3.655590 0.000000 0.000000 
#    y 0.000000 3.655590 0.000000 
#    z 0.000000 0.000000 3.340650 
# 
# 
# High freq. dielectric constant tensor:
#      x y z
#    x 1.751800 0.000000 0.000000 
#    y 0.000000 1.751800 0.000000 
#    z 0.000000 0.000000 1.734150 
# 
# From -- ./inp_files/1973.got.cif
#   From: 2010.03.12/outbox.cif.g09.slc.cpg/sg136_1_cif.got.tgz:1973.got - 2010.04.06 18:39:43.
