data_PCOD8318736
_publ_section_title
;
Structure prediction by ZEFSAII (Michael W. Deem and Ramdas Pophale) SiO2 
 PCOD8318736
Probable space group: P 42/N M C
;
_chemical_formula_sum "Si O2"
_cell_formula_units_Z 112
_cell_length_a 14.873327
_cell_length_b 14.873327
_cell_length_c 24.189829
_cell_angle_alpha 90.000000
_cell_angle_beta 90.000000
_cell_angle_gamma 90.000000
_cell_volume 5351.173730
_symmetry_space_group_name_H-M "P 42/N M C"
_symmetry_group_IT_number 137
_space_group.IT_coordinate_system_code '2'
_symmetry_cell_setting 'tetragonal'
loop_
_space_group_symop_operation_xyz
x,y,z
1/2-y,x,1/2+z
1/2-x,1/2-y,z
y,1/2-x,1/2+z
1/2+x,-y,-z
-x,1/2+y,-z
1/2+y,1/2+x,1/2-z
-y,-x,1/2-z
-x,-y,-z
1/2+y,-x,1/2-z
1/2+x,1/2+y,-z
-y,1/2+x,1/2-z
1/2-x,y,z
x,1/2-y,z
1/2-y,1/2-x,1/2+z
y,x,1/2+z
loop_
_atom_site_type_symbol
_atom_site_label
_atom_site_fract_x
_atom_site_fract_y
_atom_site_fract_z
Si Si1 0.145777 0.146303 0.942962
Si Si2 0.650797 0.848239 0.753953
Si Si3 0.646416 0.960043 0.446883
Si Si4 0.973851 0.585749 0.347080
Si Si5 0.846917 0.149157 0.094240
Si Si6 0.388746 0.482229 0.842000
Si Si7 0.347659 0.854270 0.311177
O O1 0.250000 0.125637 0.957637
O O2 0.134583 0.250000 0.925401
O O3 0.111113 0.083184 0.894519
O O4 0.081076 0.122562 0.994047
O O5 0.750000 0.862217 0.726483
O O6 0.645818 0.750000 0.782304
O O7 0.642194 0.922810 0.800766
O O8 0.572333 0.847013 0.708446
O O9 0.750000 0.939680 0.431526
O O10 0.581869 0.910017 0.403583
O O11 0.627596 0.068279 0.445971
O O12 0.986057 0.486444 0.324134
O O13 0.075475 0.622790 0.355986
O O14 0.750000 0.145400 0.062208
O O15 0.860083 0.250000 0.119330
O O16 0.838607 0.075604 0.143351
O O17 0.383211 0.883211 0.250000
O O18 0.250000 0.900346 0.325335
O O19 0.330199 0.750000 0.310221
#
# Coordination Sequence:
#
# PCOD8318736 Si02
#       7
#    16  16  16  16  16  16  16
#     4  10  21  38  61  87 116 153 196 244 297 348
#     4  11  23  38  59  88 121 155 192 239 295 351
#     4   9  20  38  59  86 117 149 192 240 288 350
#     4  11  22  35  56  84 117 154 189 231 288 351
#     4   9  18  34  57  82 111 152 196 240 294 349
#     4  11  22  37  58  86 118 153 195 244 289 339
#     4   9  18  33  52  74 104 145 192 237 278 329
#
# _framework density 20.929987000000001
#
# number of rings (size 3 to 8) (size 9 to 14) (size 15 to 20)
#    0.000    2.000    0.000    4.286    0.000    7.429 
#    0.000    1.429    0.000    3.429    0.000   16.000 
#    0.000    0.000    0.000    0.000    0.000    0.000 
#
# Total GULP energy -1387624.343053 kJ/mol
# GULP energy per Si atom -12389.503063 kJ/mol
# Density = 2.088235 g / cm^3
# Si number density = 20.929987 Si / 1000 Ang^3
#
#
#
# Elastic Constant Matrix: (Units=GPa)
#
#
# Indices 1 2 3 4 5 6 
#
# 1 98.0284 29.9558 35.3874 0.0000 0.0000 0.0000
# 2 29.9558 98.0284 35.3874 0.0000 0.0000 0.0000
# 3 35.3874 35.3874 70.7655 0.0000 0.0000 0.0000
# 4 0.0000 0.0000 0.0000 21.1642 0.0000 0.0000
# 5 0.0000 0.0000 0.0000 0.0000 21.1642 0.0000
# 6 0.0000 0.0000 0.0000 0.0000 0.0000 33.1409
#
#
#
# Elastic Compliance Matrix: (Units=1/GPa)
#
#
# Indices 1 2 3 4 5 6 
#
# 1 0.012745 -0.001945 -0.005401 0.000000 0.000000 0.000000
# 2 -0.001945 0.012745 -0.005401 0.000000 0.000000 0.000000
# 3 -0.005401 -0.005401 0.019533 0.000000 0.000000 0.000000
# 4 0.000000 0.000000 0.000000 0.047250 0.000000 0.000000
# 5 0.000000 0.000000 0.000000 0.000000 0.047250 0.000000
# 6 0.000000 0.000000 0.000000 0.000000 0.000000 0.030174
#
#
# Mechanical properties :
#
#
# Convention : Reuss Voigt Hill
#
# Bulk Modulus (GPa) = 51.20384 52.03151 51.61768
# Shear Modulus (GPa) = 24.78937 26.16664 25.47800
#
# Velocity S-wave (km/s) = 3.44524 3.53965 3.49276
# Velocity P-wave (km/s) = 6.35167 6.45130 6.40168
#
# Compressibility (1/GPa) = 0.01952978
#
# Stress axis : x y z
#
# Youngs Moduli (GPa) = 78.46136 78.46136 51.19634
#
# Poissons Ratio (x) = 0.15261 0.27650
# Poissons Ratio (y) = 0.15261 0.27650
# Poissons Ratio (z) = 0.42375 0.42375
#
# Static dielectric constant tensor:
#      x y z
#    x 2.756060 0.000000 0.000000 
#    y 0.000000 2.756060 0.000000 
#    z 0.000000 0.000000 3.533250 
# 
# 
# High freq. dielectric constant tensor:
#      x y z
#    x 1.840260 0.000000 0.000000 
#    y 0.000000 1.840260 0.000000 
#    z 0.000000 0.000000 1.767690 
# 
# From -- ./inp_files/8920.got.cif
#   From: 2010.03.12/outbox.cif.g09.slc.cpg/sg137_5_cif.got.tgz:8920.got - 2010.04.08 09:34:49.
