data_PCOD8318628
_publ_section_title
;
Structure prediction by ZEFSAII (Michael W. Deem and Ramdas Pophale) SiO2 
 PCOD8318628
Probable space group: P 42/N M C
;
_chemical_formula_sum "Si O2"
_cell_formula_units_Z 112
_cell_length_a 17.204946
_cell_length_b 17.204946
_cell_length_c 20.514476
_cell_angle_alpha 90.000000
_cell_angle_beta 90.000000
_cell_angle_gamma 90.000000
_cell_volume 6072.493464
_symmetry_space_group_name_H-M "P 42/N M C"
_symmetry_group_IT_number 137
_space_group.IT_coordinate_system_code '2'
_symmetry_cell_setting 'tetragonal'
loop_
_space_group_symop_operation_xyz
x,y,z
1/2-y,x,1/2+z
1/2-x,1/2-y,z
y,1/2-x,1/2+z
1/2+x,-y,-z
-x,1/2+y,-z
1/2+y,1/2+x,1/2-z
-y,-x,1/2-z
-x,-y,-z
1/2+y,-x,1/2-z
1/2+x,1/2+y,-z
-y,1/2+x,1/2-z
1/2-x,y,z
x,1/2-y,z
1/2-y,1/2-x,1/2+z
y,x,1/2+z
loop_
_atom_site_type_symbol
_atom_site_label
_atom_site_fract_x
_atom_site_fract_y
_atom_site_fract_z
Si Si1 0.895237 0.660794 0.797383
Si Si2 0.837652 0.074288 0.304116
Si Si3 0.573467 0.838777 0.032395
Si Si4 0.068438 0.340469 0.583380
Si Si5 0.341753 0.094718 0.850117
Si Si6 0.340991 0.928117 0.904669
Si Si7 0.935942 0.055717 0.970483
O O1 0.868356 0.750000 0.802886
O O2 0.843641 0.610879 0.846965
O O3 0.884526 0.630864 0.723175
O O4 0.984081 0.650810 0.818594
O O5 0.897373 0.102628 0.250000
O O6 0.750000 0.090993 0.279804
O O7 0.854390 0.118935 0.370833
O O8 0.568530 0.750000 0.010353
O O9 0.620179 0.845266 0.099911
O O10 0.484984 0.867573 0.047750
O O11 0.619320 0.883268 0.975044
O O12 0.054304 0.250000 0.565754
O O13 0.987126 0.389328 0.588591
O O14 0.250000 0.102031 0.855731
O O15 0.367734 0.007156 0.868320
O O16 0.250000 0.916842 0.901346
O O17 0.367893 0.927031 0.978606
O O18 0.000000 0.000000 0.000000
#
# Coordination Sequence:
#
# PCOD8318628 Si02
#       7
#    16  16  16  16  16  16  16
#     4  10  22  36  54  82 116 149 182 231 290 336
#     4  11  21  33  51  78 115 155 193 228 269 333
#     4  11  23  38  59  85 112 147 194 240 287 343
#     4  11  22  37  59  85 112 147 191 236 286 344
#     4  10  20  36  56  82 113 150 187 228 285 342
#     4  11  20  34  54  78 110 148 189 229 274 333
#     4  10  20  36  58  79 107 144 186 232 277 333
#
# _framework density 18.443823999999999
#
# number of rings (size 3 to 8) (size 9 to 14) (size 15 to 20)
#    0.000    1.429    4.286    3.429    0.000    5.286 
#    0.000    1.429    0.000    1.286    0.000    0.000 
#    0.000    0.000    0.000    5.143    0.000    0.000 
#
# Total GULP energy -1388498.618857 kJ/mol
# GULP energy per Si atom -12397.309097 kJ/mol
# Density = 1.840185 g / cm^3
# Si number density = 18.443824 Si / 1000 Ang^3
#
#
#
# Elastic Constant Matrix: (Units=GPa)
#
#
# Indices 1 2 3 4 5 6 
#
# 1 60.3514 35.2465 18.4537 0.0000 0.0000 0.0000
# 2 35.2465 60.3525 18.4537 0.0000 0.0000 0.0000
# 3 18.4537 18.4537 99.3249 0.0000 0.0000 0.0000
# 4 0.0000 0.0000 0.0000 29.0781 0.0000 0.0000
# 5 0.0000 0.0000 0.0000 0.0000 29.0774 0.0000
# 6 0.0000 0.0000 0.0000 0.0000 0.0000 19.9555
#
#
#
# Elastic Compliance Matrix: (Units=1/GPa)
#
#
# Indices 1 2 3 4 5 6 
#
# 1 0.025551 -0.014282 -0.002094 0.000000 0.000000 0.000000
# 2 -0.014282 0.025550 -0.002094 0.000000 0.000000 0.000000
# 3 -0.002094 -0.002094 0.010846 0.000000 0.000000 0.000000
# 4 0.000000 0.000000 0.000000 0.034390 0.000000 0.000000
# 5 0.000000 0.000000 0.000000 0.000000 0.034391 0.000000
# 6 0.000000 0.000000 0.000000 0.000000 0.000000 0.050111
#
#
# Mechanical properties :
#
#
# Convention : Reuss Voigt Hill
#
# Bulk Modulus (GPa) = 39.98590 40.48185 40.23388
# Shear Modulus (GPa) = 22.11282 25.48055 23.79669
#
# Velocity S-wave (km/s) = 3.46631 3.72092 3.59587
# Velocity P-wave (km/s) = 6.14388 6.36056 6.25316
#
# Compressibility (1/GPa) = 0.02500881
#
# Stress axis : x y z
#
# Youngs Moduli (GPa) = 39.13802 39.13879 92.20056
#
# Poissons Ratio (x) = 0.55897 0.19304
# Poissons Ratio (y) = 0.55896 0.19303
# Poissons Ratio (z) = 0.08194 0.08194
#
# Static dielectric constant tensor:
#      x y z
#    x 3.425680 0.000000 0.000000 
#    y 0.000000 3.425670 0.000000 
#    z 0.000000 0.000000 3.427880 
# 
# 
# High freq. dielectric constant tensor:
#      x y z
#    x 1.706250 0.000000 0.000000 
#    y 0.000000 1.706250 0.000000 
#    z 0.000000 0.000000 1.708340 
# 
# From -- ./inp_files/8063.got.cif
#   From: 2010.03.12/outbox.cif.g09.slc.cpg/sg137_5_cif.got.tgz:8063.got - 2010.04.08 09:34:49.
