data_PCOD8318166
_publ_section_title
;
Structure prediction by ZEFSAII (Michael W. Deem and Ramdas Pophale) SiO2 
 PCOD8318166
Probable space group: P 42/M N M
;
_chemical_formula_sum "Si O2"
_cell_formula_units_Z 112
_cell_length_a 14.725930
_cell_length_b 14.725930
_cell_length_c 27.199871
_cell_angle_alpha 90.000000
_cell_angle_beta 90.000000
_cell_angle_gamma 90.000000
_cell_volume 5898.374017
_symmetry_space_group_name_H-M "P 42/M N M"
_symmetry_group_IT_number 136
_symmetry_cell_setting 'tetragonal'
loop_
_space_group_symop_operation_xyz
x,y,z
1/2-y,1/2+x,1/2+z
-x,-y,z
1/2+y,1/2-x,1/2+z
1/2+x,1/2-y,1/2-z
1/2-x,1/2+y,1/2-z
y,x,-z
-y,-x,-z
-x,-y,-z
1/2+y,1/2-x,1/2-z
x,y,-z
1/2-y,1/2+x,1/2-z
1/2-x,1/2+y,1/2+z
1/2+x,1/2-y,1/2+z
-y,-x,z
y,x,z
loop_
_atom_site_type_symbol
_atom_site_label
_atom_site_fract_x
_atom_site_fract_y
_atom_site_fract_z
Si Si1 0.857873 0.004389 0.946752
Si Si2 0.421302 0.800926 0.610163
Si Si3 0.959706 0.319761 0.558068
Si Si4 0.664669 0.188651 0.713628
Si Si5 0.018264 0.283971 0.292671
Si Si6 0.926664 0.429853 0.869337
Si Si7 0.003141 0.148111 0.623419
O O1 0.944144 0.944144 0.956407
O O2 0.796064 0.945697 0.910810
O O3 0.809330 0.021416 0.000000
O O4 0.897809 0.102192 0.926438
O O5 0.364859 0.863010 0.571890
O O6 0.357129 0.792174 0.657067
O O7 0.522233 0.835998 0.623134
O O8 0.967637 0.308962 0.500000
O O9 0.975280 0.221828 0.582629
O O10 0.037840 0.386550 0.578206
O O11 0.755411 0.244590 0.728031
O O12 0.578789 0.226120 0.744201
O O13 0.678942 0.081188 0.722066
O O14 0.075643 0.349607 0.328434
O O15 0.008633 0.189703 0.321781
O O16 0.000000 0.500000 0.848377
O O17 0.924366 0.075635 0.624755
O O18 0.098979 0.098979 0.610119
#
# Coordination Sequence:
#
# PCOD8318166 Si02
#       7
#    16  16  16  16  16  16  16
#     4   9  19  36  56  79 113 158 198 235 292 358
#     4  11  20  36  59  86 119 148 197 251 298 353
#     4  10  21  35  56  88 121 152 196 251 298 353
#     4  12  24  37  61  92 119 154 203 253 305 368
#     4  11  22  39  61  83 119 151 197 245 308 358
#     4   9  18  36  56  84 111 152 188 233 296 356
#     4  10  21  40  61  80 114 161 202 244 298 363
#
# _framework density 18.988282999999999
#
# number of rings (size 3 to 8) (size 9 to 14) (size 15 to 20)
#    0.000    1.714    4.286    3.000    0.000    4.286 
#    0.000    7.143    0.000    3.429    0.000    0.000 
#    0.000    0.000    0.000    0.000    0.000    0.000 
#
# Total GULP energy -1387905.368058 kJ/mol
# GULP energy per Si atom -12392.012215 kJ/mol
# Density = 1.894506 g / cm^3
# Si number density = 18.988283 Si / 1000 Ang^3
#
#
#
# Elastic Constant Matrix: (Units=GPa)
#
#
# Indices 1 2 3 4 5 6 
#
# 1 89.5331 33.9453 22.7508 0.0000 0.0000 0.0000
# 2 33.9453 89.5331 22.7508 0.0000 0.0000 0.0000
# 3 22.7508 22.7508 77.9740 0.0000 0.0000 0.0000
# 4 0.0000 0.0000 0.0000 15.5374 0.0000 0.0000
# 5 0.0000 0.0000 0.0000 0.0000 15.5374 0.0000
# 6 0.0000 0.0000 0.0000 0.0000 0.0000 31.4933
#
#
#
# Elastic Compliance Matrix: (Units=1/GPa)
#
#
# Indices 1 2 3 4 5 6 
#
# 1 0.013532 -0.004458 -0.002648 0.000000 0.000000 0.000000
# 2 -0.004458 0.013532 -0.002648 0.000000 0.000000 0.000000
# 3 -0.002648 -0.002648 0.014370 0.000000 0.000000 0.000000
# 4 0.000000 0.000000 0.000000 0.064361 0.000000 0.000000
# 5 0.000000 0.000000 0.000000 0.000000 0.064361 0.000000
# 6 0.000000 0.000000 0.000000 0.000000 0.000000 0.031753
#
#
# Mechanical properties :
#
#
# Convention : Reuss Voigt Hill
#
# Bulk Modulus (GPa) = 45.60428 46.21487 45.90957
# Shear Modulus (GPa) = 21.86051 24.35318 23.10685
#
# Velocity S-wave (km/s) = 3.39671 3.58514 3.49219
# Velocity P-wave (km/s) = 6.28114 6.44431 6.36325
#
# Compressibility (1/GPa) = 0.02192777
#
# Stress axis : x y z
#
# Youngs Moduli (GPa) = 73.89945 73.89945 69.59035
#
# Poissons Ratio (x) = 0.32942 0.18425
# Poissons Ratio (y) = 0.32942 0.18425
# Poissons Ratio (z) = 0.19566 0.19566
#
# Static dielectric constant tensor:
#      x y z
#    x 3.832680 0.000000 0.000000 
#    y 0.000000 3.832680 0.000000 
#    z 0.000000 0.000000 3.359050 
# 
# 
# High freq. dielectric constant tensor:
#      x y z
#    x 1.738450 0.000000 0.000000 
#    y 0.000000 1.738450 0.000000 
#    z 0.000000 0.000000 1.729440 
# 
# From -- ./inp_files/9197.got.cif
#   From: 2010.03.12/outbox.cif.g09.slc.cpg/sg136_5_cif.got.tgz:9197.got - 2010.04.06 18:39:43.
