data_PCOD8318423
_publ_section_title
;
Structure prediction by ZEFSAII (Michael W. Deem and Ramdas Pophale) SiO2 
 PCOD8318423
Probable space group: P 42/N M C
;
_chemical_formula_sum "Si O2"
_cell_formula_units_Z 112
_cell_length_a 13.730279
_cell_length_b 13.730279
_cell_length_c 31.813684
_cell_angle_alpha 90.000000
_cell_angle_beta 90.000000
_cell_angle_gamma 90.000000
_cell_volume 5997.533568
_symmetry_space_group_name_H-M "P 42/N M C"
_symmetry_group_IT_number 137
_space_group.IT_coordinate_system_code '2'
_symmetry_cell_setting 'tetragonal'
loop_
_space_group_symop_operation_xyz
x,y,z
1/2-y,x,1/2+z
1/2-x,1/2-y,z
y,1/2-x,1/2+z
1/2+x,-y,-z
-x,1/2+y,-z
1/2+y,1/2+x,1/2-z
-y,-x,1/2-z
-x,-y,-z
1/2+y,-x,1/2-z
1/2+x,1/2+y,-z
-y,1/2+x,1/2-z
1/2-x,y,z
x,1/2-y,z
1/2-y,1/2-x,1/2+z
y,x,1/2+z
loop_
_atom_site_type_symbol
_atom_site_label
_atom_site_fract_x
_atom_site_fract_y
_atom_site_fract_z
Si Si1 0.860184 0.858731 0.248887
Si Si2 0.857858 0.135913 0.885950
Si Si3 0.477017 0.863828 0.536445
Si Si4 0.468793 0.860277 0.631288
Si Si5 0.361804 0.037099 0.335120
Si Si6 0.360570 0.549521 0.708071
Si Si7 0.634567 0.025787 0.532227
O O1 0.750000 0.865811 0.230302
O O2 0.881736 0.750000 0.265533
O O3 0.937375 0.888869 0.212848
O O4 0.871865 0.932849 0.287353
O O5 0.750000 0.087291 0.881768
O O6 0.843541 0.250000 0.891071
O O7 0.915679 0.097521 0.926683
O O8 0.923661 0.112316 0.844715
O O9 0.497873 0.750000 0.526835
O O10 0.434397 0.876109 0.583617
O O11 0.391836 0.905607 0.507094
O O12 0.577355 0.923302 0.529426
O O13 0.454365 0.750000 0.645903
O O14 0.581875 0.891052 0.633320
O O15 0.412952 0.926583 0.664691
O O16 0.250000 0.059055 0.344660
O O17 0.400440 0.599561 0.750000
O O18 0.250000 0.583035 0.703198
O O19 0.750000 0.004668 0.532766
#
# Coordination Sequence:
#
# PCOD8318423 Si02
#       7
#    16  16  16  16  16  16  16
#     4   9  18  34  57  81 105 138 181 230 283 334
#     4   9  17  30  51  79 108 141 182 222 268 334
#     4  10  22  37  57  85 116 148 186 233 285 338
#     4  11  22  36  54  81 113 142 179 229 278 330
#     4  10  18  31  52  79 109 138 173 226 284 329
#     4  11  22  36  55  76 107 147 188 231 274 330
#     4  10  20  37  59  83 114 150 188 230 277 335
#
# _framework density 18.674344000000001
#
# number of rings (size 3 to 8) (size 9 to 14) (size 15 to 20)
#    0.000    2.000    2.857    1.286    0.000    3.571 
#    0.000    3.571    0.000    0.857    0.000    2.000 
#    0.000    0.000    0.000    0.000    0.000    0.000 
#
# Total GULP energy -1388296.351639 kJ/mol
# GULP energy per Si atom -12395.503140 kJ/mol
# Density = 1.863184 g / cm^3
# Si number density = 18.674344 Si / 1000 Ang^3
#
#
#
# Elastic Constant Matrix: (Units=GPa)
#
#
# Indices 1 2 3 4 5 6 
#
# 1 90.8170 41.7464 49.7516 0.0000 0.0000 0.0000
# 2 41.7464 90.8170 49.7521 0.0000 0.0000 0.0000
# 3 49.7516 49.7521 89.8015 0.0000 0.0000 0.0000
# 4 0.0000 0.0000 0.0000 26.8787 0.0000 0.0000
# 5 0.0000 0.0000 0.0000 0.0000 26.8788 0.0000
# 6 0.0000 0.0000 0.0000 0.0000 0.0000 23.3542
#
#
#
# Elastic Compliance Matrix: (Units=1/GPa)
#
#
# Indices 1 2 3 4 5 6 
#
# 1 0.016646 -0.003732 -0.007154 0.000000 0.000000 0.000000
# 2 -0.003732 0.016646 -0.007155 0.000000 0.000000 0.000000
# 3 -0.007154 -0.007155 0.019063 0.000000 0.000000 0.000000
# 4 0.000000 0.000000 0.000000 0.037204 0.000000 0.000000
# 5 0.000000 0.000000 0.000000 0.000000 0.037204 0.000000
# 6 0.000000 0.000000 0.000000 0.000000 0.000000 0.042819
#
#
# Mechanical properties :
#
#
# Convention : Reuss Voigt Hill
#
# Bulk Modulus (GPa) = 61.45245 61.54839 61.50042
# Shear Modulus (GPa) = 23.68656 24.10137 23.89397
#
# Velocity S-wave (km/s) = 3.56533 3.59641 3.58090
# Velocity P-wave (km/s) = 7.06595 7.09055 7.07826
#
# Compressibility (1/GPa) = 0.01627275
#
# Stress axis : x y z
#
# Youngs Moduli (GPa) = 60.07367 60.07306 52.45720
#
# Poissons Ratio (x) = 0.22422 0.37530
# Poissons Ratio (y) = 0.22422 0.37531
# Poissons Ratio (z) = 0.42979 0.42980
#
# Static dielectric constant tensor:
#      x y z
#    x 3.574220 0.000000 0.000000 
#    y 0.000000 3.574220 0.000000 
#    z 0.000000 0.000000 3.338150 
# 
# 
# High freq. dielectric constant tensor:
#      x y z
#    x 1.722400 0.000000 0.000000 
#    y 0.000000 1.722400 0.000000 
#    z 0.000000 0.000000 1.714700 
# 
# From -- ./inp_files/8925.got.cif
#   From: 2010.03.12/outbox.cif.g09.slc.cpg/sg137_5_cif.got.tgz:8925.got - 2010.04.08 09:34:49.
