data_PCOD8318360
_publ_section_title
;
Structure prediction by ZEFSAII (Michael W. Deem and Ramdas Pophale) SiO2 
 PCOD8318360
Probable space group: P 42/N M C
;
_chemical_formula_sum "Si O2"
_cell_formula_units_Z 96
_cell_length_a 21.430808
_cell_length_b 21.430808
_cell_length_c 14.772553
_cell_angle_alpha 90.000000
_cell_angle_beta 90.000000
_cell_angle_gamma 90.000000
_cell_volume 6784.731221
_symmetry_space_group_name_H-M "P 42/N M C"
_symmetry_group_IT_number 137
_space_group.IT_coordinate_system_code '2'
_symmetry_cell_setting 'tetragonal'
loop_
_space_group_symop_operation_xyz
x,y,z
1/2-y,x,1/2+z
1/2-x,1/2-y,z
y,1/2-x,1/2+z
1/2+x,-y,-z
-x,1/2+y,-z
1/2+y,1/2+x,1/2-z
-y,-x,1/2-z
-x,-y,-z
1/2+y,-x,1/2-z
1/2+x,1/2+y,-z
-y,1/2+x,1/2-z
1/2-x,y,z
x,1/2-y,z
1/2-y,1/2-x,1/2+z
y,x,1/2+z
loop_
_atom_site_type_symbol
_atom_site_label
_atom_site_fract_x
_atom_site_fract_y
_atom_site_fract_z
Si Si1 0.678570 0.099483 0.318045
Si Si2 0.550465 0.046513 0.849624
Si Si3 0.594203 0.544343 0.103545
Si Si4 0.564728 0.914386 0.918358
Si Si5 0.087384 0.578684 0.534202
Si Si6 0.544170 0.677903 0.770128
O O1 0.647335 0.147335 0.250000
O O2 0.750000 0.117793 0.328844
O O3 0.648097 0.107451 0.417692
O O4 0.669265 0.029945 0.280260
O O5 0.570073 0.070073 0.750000
O O6 0.475279 0.046732 0.855521
O O7 0.579415 0.977604 0.863695
O O8 0.582811 0.091544 0.924675
O O9 0.612191 0.474239 0.073041
O O10 0.643874 0.566489 0.178549
O O11 0.601632 0.588568 0.014341
O O12 0.493036 0.919352 0.942777
O O13 0.578912 0.854092 0.856104
O O14 0.564085 0.750000 0.767024
#
# Coordination Sequence:
#
# PCOD8318360 Si02
#       6
#    16  16  16  16  16  16
#     4  10  18  27  38  52  78 113 143 174 197 229
#     4   9  13  20  38  58  77 103 129 166 203 237
#     4   9  14  23  36  53  81 106 131 164 198 242
#     4   8  15  22  34  55  79 105 130 163 196 237
#     4   8  15  23  34  54  77 102 135 167 203 240
#     4  10  17  24  38  59  84 111 131 159 204 246
#
# _framework density 14.149417
#
# number of rings (size 3 to 8) (size 9 to 14) (size 15 to 20)
#    0.000    3.000    3.333    2.000    0.000    0.167 
#    0.000    0.000    0.000    0.000    0.000    7.000 
#    0.000    2.000    0.000    0.000    0.000    0.000 
#
# Total GULP energy -1189411.063552 kJ/mol
# GULP energy per Si atom -12389.698579 kJ/mol
# Density = 1.411721 g / cm^3
# Si number density = 14.149417 Si / 1000 Ang^3
#
#
#
# Elastic Constant Matrix: (Units=GPa)
#
#
# Indices 1 2 3 4 5 6 
#
# 1 52.6093 19.2760 42.3412 0.0000 0.0000 0.0000
# 2 19.2760 52.6093 42.3412 0.0000 0.0000 0.0000
# 3 42.3412 42.3412 147.7684 0.0000 0.0000 0.0000
# 4 0.0000 0.0000 0.0000 15.8962 0.0000 0.0000
# 5 0.0000 0.0000 0.0000 0.0000 15.8962 0.0000
# 6 0.0000 0.0000 0.0000 0.0000 0.0000 8.7319
#
#
#
# Elastic Compliance Matrix: (Units=1/GPa)
#
#
# Indices 1 2 3 4 5 6 
#
# 1 0.025500 -0.004500 -0.006017 0.000000 0.000000 0.000000
# 2 -0.004500 0.025500 -0.006017 0.000000 0.000000 0.000000
# 3 -0.006017 -0.006017 0.010216 0.000000 0.000000 0.000000
# 4 0.000000 0.000000 0.000000 0.062908 0.000000 0.000000
# 5 0.000000 0.000000 0.000000 0.000000 0.062908 0.000000
# 6 0.000000 0.000000 0.000000 0.000000 0.000000 0.114523
#
#
# Mechanical properties :
#
#
# Convention : Reuss Voigt Hill
#
# Bulk Modulus (GPa) = 35.52924 51.21155 43.37039
# Shear Modulus (GPa) = 14.53470 18.04011 16.28740
#
# Velocity S-wave (km/s) = 3.20852 3.57455 3.39647
# Velocity P-wave (km/s) = 6.23624 7.30127 6.78967
#
# Compressibility (1/GPa) = 0.02814583
#
# Stress axis : x y z
#
# Youngs Moduli (GPa) = 39.21622 39.21622 97.88956
#
# Poissons Ratio (x) = 0.17649 0.58901
# Poissons Ratio (y) = 0.17649 0.58901
# Poissons Ratio (z) = 0.23597 0.23597
#
# Static dielectric constant tensor:
#      x y z
#    x 2.495100 0.000000 0.000000 
#    y 0.000000 2.495100 0.000000 
#    z 0.000000 0.000000 3.156930 
# 
# 
# High freq. dielectric constant tensor:
#      x y z
#    x 1.493080 0.000000 0.000000 
#    y 0.000000 1.493080 0.000000 
#    z 0.000000 0.000000 1.556450 
# 
# From -- ./inp_files/5258.got.cif
#   From: 2010.03.12/outbox.cif.g09.slc.cpg/sg137_3_cif.got.tgz:5258.got - 2010.04.08 09:34:49.
