data_PCOD8318035
_publ_section_title
;
Structure prediction by ZEFSAII (Michael W. Deem and Ramdas Pophale) SiO2 
 PCOD8318035
Probable space group: P 42/M N M
;
_chemical_formula_sum "Si O2"
_cell_formula_units_Z 72
_cell_length_a 21.377797
_cell_length_b 21.377797
_cell_length_c 8.766437
_cell_angle_alpha 90.000000
_cell_angle_beta 90.000000
_cell_angle_gamma 90.000000
_cell_volume 4006.351167
_symmetry_space_group_name_H-M "P 42/M N M"
_symmetry_group_IT_number 136
_symmetry_cell_setting 'tetragonal'
loop_
_space_group_symop_operation_xyz
x,y,z
1/2-y,1/2+x,1/2+z
-x,-y,z
1/2+y,1/2-x,1/2+z
1/2+x,1/2-y,1/2-z
1/2-x,1/2+y,1/2-z
y,x,-z
-y,-x,-z
-x,-y,-z
1/2+y,1/2-x,1/2-z
x,y,-z
1/2-y,1/2+x,1/2-z
1/2-x,1/2+y,1/2+z
1/2+x,1/2-y,1/2+z
-y,-x,z
y,x,z
loop_
_atom_site_type_symbol
_atom_site_label
_atom_site_fract_x
_atom_site_fract_y
_atom_site_fract_z
Si Si1 0.279602 0.625054 0.321201
Si Si2 0.948966 0.051035 0.818450
Si Si3 0.854938 0.405713 0.321382
Si Si4 0.534200 0.816872 0.180113
Si Si5 0.488924 0.311771 0.318668
O O1 0.291398 0.624254 0.500000
O O2 0.318480 0.681521 0.244364
O O3 0.206882 0.634855 0.284543
O O4 0.305250 0.559521 0.256646
O O5 0.878789 0.036088 0.759106
O O6 0.950947 0.049054 0.000000
O O7 0.000000 0.000000 0.756726
O O8 0.859675 0.422033 0.500000
O O9 0.912323 0.364407 0.262968
O O10 0.849905 0.470379 0.231154
O O11 0.547853 0.748331 0.251707
O O12 0.535559 0.809109 0.000000
O O13 0.484244 0.307746 0.500000
#
# Coordination Sequence:
#
# PCOD8318035 Si02
#       5
#    16   8  16  16  16
#     4   8  13  25  47  70  90 118 160 204 236 268
#     4   9  16  28  51  81 105 135 181 215 239 288
#     4   9  19  34  51  73  97 126 165 205 248 301
#     4  10  20  34  51  73 100 130 165 205 256 307
#     4   9  17  30  49  73 102 133 165 207 249 287
#
# _framework density 17.971464999999998
#
# number of rings (size 3 to 8) (size 9 to 14) (size 15 to 20)
#    0.000    3.000    0.000    2.667    0.000    4.889 
#    2.000    2.778    0.000   17.333    0.000    0.000 
#    0.000    0.000    0.000    0.000    0.000    0.000 
#
# Total GULP energy -892278.458238 kJ/mol
# GULP energy per Si atom -12392.756364 kJ/mol
# Density = 1.793056 g / cm^3
# Si number density = 17.971465 Si / 1000 Ang^3
#
#
#
# Elastic Constant Matrix: (Units=GPa)
#
#
# Indices 1 2 3 4 5 6 
#
# 1 121.8719 88.0520 21.5838 0.0000 0.0000 0.0000
# 2 88.0520 121.8718 21.5837 0.0000 0.0000 0.0000
# 3 21.5838 21.5837 26.7146 0.0000 0.0000 0.0000
# 4 0.0000 0.0000 0.0000 19.8441 0.0000 0.0000
# 5 0.0000 0.0000 0.0000 0.0000 19.8441 0.0000
# 6 0.0000 0.0000 0.0000 0.0000 0.0000 38.6689
#
#
#
# Elastic Compliance Matrix: (Units=1/GPa)
#
#
# Indices 1 2 3 4 5 6 
#
# 1 0.017641 -0.011928 -0.004616 0.000000 0.000000 0.000000
# 2 -0.011928 0.017641 -0.004615 0.000000 0.000000 0.000000
# 3 -0.004616 -0.004615 0.044891 0.000000 0.000000 0.000000
# 4 0.000000 0.000000 0.000000 0.050393 0.000000 0.000000
# 5 0.000000 0.000000 0.000000 0.000000 0.050393 0.000000
# 6 0.000000 0.000000 0.000000 0.000000 0.000000 0.025861
#
#
# Mechanical properties :
#
#
# Convention : Reuss Voigt Hill
#
# Bulk Modulus (GPa) = 26.41719 59.21080 42.81399
# Shear Modulus (GPa) = 19.10190 24.95401 22.02796
#
# Velocity S-wave (km/s) = 3.26375 3.73035 3.50482
# Velocity P-wave (km/s) = 5.37905 7.18141 6.34456
#
# Compressibility (1/GPa) = 0.03785414
#
# Stress axis : x y z
#
# Youngs Moduli (GPa) = 56.68749 56.68752 22.27627
#
# Poissons Ratio (x) = 0.67616 0.10282
# Poissons Ratio (y) = 0.67616 0.10282
# Poissons Ratio (z) = 0.26165 0.26164
#
# Static dielectric constant tensor:
#      x y z
#    x 3.533630 0.000000 0.000000 
#    y 0.000000 3.533630 0.000000 
#    z 0.000000 0.000000 2.933440 
# 
# 
# High freq. dielectric constant tensor:
#      x y z
#    x 1.699440 0.000000 0.000000 
#    y 0.000000 1.699440 0.000000 
#    z 0.000000 0.000000 1.657590 
# 
# From -- ./inp_files/1546.got.cif
#   From: 2010.03.12/outbox.cif.g09.slc.cpg/sg136_1_cif.got.tgz:1546.got - 2010.04.06 18:39:43.
