data_PCOD8318525
_publ_section_title
;
Structure prediction by ZEFSAII (Michael W. Deem and Ramdas Pophale) SiO2 
 PCOD8318525
Probable space group: P 42/N M C
;
_chemical_formula_sum "Si O2"
_cell_formula_units_Z 96
_cell_length_a 19.546408
_cell_length_b 19.546408
_cell_length_c 13.888398
_cell_angle_alpha 90.000000
_cell_angle_beta 90.000000
_cell_angle_gamma 90.000000
_cell_volume 5306.230029
_symmetry_space_group_name_H-M "P 42/N M C"
_symmetry_group_IT_number 137
_space_group.IT_coordinate_system_code '2'
_symmetry_cell_setting 'tetragonal'
loop_
_space_group_symop_operation_xyz
x,y,z
1/2-y,x,1/2+z
1/2-x,1/2-y,z
y,1/2-x,1/2+z
1/2+x,-y,-z
-x,1/2+y,-z
1/2+y,1/2+x,1/2-z
-y,-x,1/2-z
-x,-y,-z
1/2+y,-x,1/2-z
1/2+x,1/2+y,-z
-y,1/2+x,1/2-z
1/2-x,y,z
x,1/2-y,z
1/2-y,1/2-x,1/2+z
y,x,1/2+z
loop_
_atom_site_type_symbol
_atom_site_label
_atom_site_fract_x
_atom_site_fract_y
_atom_site_fract_z
Si Si1 0.672555 0.981170 0.061964
Si Si2 0.583710 0.616482 0.188114
Si Si3 0.493471 0.506530 0.750000
Si Si4 0.619630 0.827562 0.392117
Si Si5 0.328663 0.828663 0.750000
Si Si6 0.457224 0.175367 0.005297
Si Si7 0.075000 0.600514 0.896558
O O1 0.750000 0.999453 0.090814
O O2 0.628251 0.049511 0.053825
O O3 0.644008 0.932328 0.146878
O O4 0.668475 0.948996 0.955840
O O5 0.517390 0.570658 0.214025
O O6 0.606742 0.660520 0.279414
O O7 0.562852 0.669032 0.105832
O O8 0.437721 0.519689 0.668431
O O9 0.651008 0.750000 0.404036
O O10 0.666623 0.889119 0.429663
O O11 0.339925 0.750000 0.717173
O O12 0.381225 0.843621 0.837249
O O13 0.484230 0.250000 0.027087
O O14 0.524348 0.130276 0.023639
#
# Coordination Sequence:
#
# PCOD8318525 Si02
#       7
#    16  16   8  16   8  16  16
#     4   9  20  35  55  82 111 142 179 224 279 335
#     4  10  20  34  56  81 110 140 180 228 274 324
#     4   9  18  31  54  83 100 136 171 219 282 317
#     4  10  21  38  56  77 108 145 181 226 277 327
#     4  10  20  33  52  78 112 150 186 225 274 336
#     4  11  23  36  54  80 111 146 186 230 272 328
#     4  10  19  34  53  81 109 142 178 226 273 327
#
# _framework density 18.091940000000001
#
# number of rings (size 3 to 8) (size 9 to 14) (size 15 to 20)
#    0.000    2.083    1.667    1.500    2.333    3.000 
#    0.000    0.000    0.000    3.000    0.000    0.000 
#    0.000    0.000    0.000    0.000    0.000    0.000 
#
# Total GULP energy -1189704.269026 kJ/mol
# GULP energy per Si atom -12392.752802 kJ/mol
# Density = 1.805076 g / cm^3
# Si number density = 18.091940 Si / 1000 Ang^3
#
#
#
# Elastic Constant Matrix: (Units=GPa)
#
#
# Indices 1 2 3 4 5 6 
#
# 1 80.6364 50.7179 27.9333 0.0000 0.0000 0.0000
# 2 50.7179 80.6363 27.9302 0.0000 0.0000 0.0000
# 3 27.9333 27.9302 104.2054 0.0000 0.0000 0.0000
# 4 0.0000 0.0000 0.0000 14.6681 0.0000 0.0000
# 5 0.0000 0.0000 0.0000 0.0000 14.6680 0.0000
# 6 0.0000 0.0000 0.0000 0.0000 0.0000 21.9051
#
#
#
# Elastic Compliance Matrix: (Units=1/GPa)
#
#
# Indices 1 2 3 4 5 6 
#
# 1 0.021009 -0.012416 -0.002304 0.000000 0.000000 0.000000
# 2 -0.012416 0.021008 -0.002303 0.000000 0.000000 0.000000
# 3 -0.002304 -0.002303 0.010831 0.000000 0.000000 0.000000
# 4 0.000000 0.000000 0.000000 0.068175 0.000000 0.000000
# 5 0.000000 0.000000 0.000000 0.000000 0.068176 0.000000
# 6 0.000000 0.000000 0.000000 0.000000 0.000000 0.045652
#
#
# Mechanical properties :
#
#
# Convention : Reuss Voigt Hill
#
# Bulk Modulus (GPa) = 53.18173 53.18233 53.18203
# Shear Modulus (GPa) = 18.17107 20.84133 19.50620
#
# Velocity S-wave (km/s) = 3.17262 3.39775 3.28711
# Velocity P-wave (km/s) = 6.54827 6.69719 6.62315
#
# Compressibility (1/GPa) = 0.01880345
#
# Stress axis : x y z
#
# Youngs Moduli (GPa) = 47.59963 47.60065 92.32632
#
# Poissons Ratio (x) = 0.59100 0.21270
# Poissons Ratio (y) = 0.59099 0.21259
# Poissons Ratio (z) = 0.10966 0.10961
#
# Static dielectric constant tensor:
#      x y z
#    x 3.331350 0.000000 0.000000 
#    y 0.000000 3.331360 0.000000 
#    z 0.000000 0.000000 3.299280 
# 
# 
# High freq. dielectric constant tensor:
#      x y z
#    x 1.696660 0.000000 0.000000 
#    y 0.000000 1.696660 0.000000 
#    z 0.000000 0.000000 1.698320 
# 
# From -- ./inp_files/3811.got.cif
#   From: 2010.03.12/outbox.cif.g09.slc.cpg/sg137_2_cif.got.tgz:3811.got - 2010.04.08 09:34:49.
