data_PCOD8318470
_publ_section_title
;
Structure prediction by ZEFSAII (Michael W. Deem and Ramdas Pophale) SiO2 
 PCOD8318470
Probable space group: P 42/N M C
;
_chemical_formula_sum "Si O2"
_cell_formula_units_Z 112
_cell_length_a 15.029336
_cell_length_b 15.029336
_cell_length_c 25.404141
_cell_angle_alpha 90.000000
_cell_angle_beta 90.000000
_cell_angle_gamma 90.000000
_cell_volume 5738.311264
_symmetry_space_group_name_H-M "P 42/N M C"
_symmetry_group_IT_number 137
_space_group.IT_coordinate_system_code '2'
_symmetry_cell_setting 'tetragonal'
loop_
_space_group_symop_operation_xyz
x,y,z
1/2-y,x,1/2+z
1/2-x,1/2-y,z
y,1/2-x,1/2+z
1/2+x,-y,-z
-x,1/2+y,-z
1/2+y,1/2+x,1/2-z
-y,-x,1/2-z
-x,-y,-z
1/2+y,-x,1/2-z
1/2+x,1/2+y,-z
-y,1/2+x,1/2-z
1/2-x,y,z
x,1/2-y,z
1/2-y,1/2-x,1/2+z
y,x,1/2+z
loop_
_atom_site_type_symbol
_atom_site_label
_atom_site_fract_x
_atom_site_fract_y
_atom_site_fract_z
Si Si1 0.846988 0.027357 0.782751
Si Si2 0.590018 0.152753 0.198529
Si Si3 0.351755 0.526750 0.095063
Si Si4 0.850696 0.509452 0.135059
Si Si5 0.651680 0.850934 0.467068
Si Si6 0.479098 0.428621 0.956424
Si Si7 0.149831 0.406105 0.753701
O O1 0.920620 0.079381 0.750000
O O2 0.750000 0.071712 0.774448
O O3 0.873251 0.029533 0.843574
O O4 0.836487 0.925344 0.763157
O O5 0.652903 0.152903 0.250000
O O6 0.590145 0.250000 0.172904
O O7 0.624640 0.089404 0.152973
O O8 0.492850 0.126429 0.219598
O O9 0.250000 0.556490 0.082555
O O10 0.369044 0.425085 0.075948
O O11 0.422688 0.594895 0.067580
O O12 0.750000 0.510427 0.113111
O O13 0.917870 0.534006 0.089510
O O14 0.859487 0.575977 0.184168
O O15 0.750000 0.861144 0.440979
O O16 0.640376 0.750000 0.489344
O O17 0.649038 0.922667 0.515121
O O18 0.500000 0.500000 0.000000
O O19 0.250000 0.371233 0.741587
#
# Coordination Sequence:
#
# PCOD8318470 Si02
#       7
#    16  16  16  16  16  16  16
#     4  11  22  37  58  81 111 150 189 229 270 316
#     4   9  16  27  47  75 109 147 180 209 247 309
#     4   9  19  35  56  80 105 141 183 223 273 325
#     4  10  19  31  48  71 104 144 181 220 270 326
#     4   9  18  34  57  85 111 133 167 219 278 338
#     4  10  19  33  53  74  99 135 175 217 263 318
#     4   9  18  32  52  79 110 143 177 218 272 332
#
# _framework density 19.517937
#
# number of rings (size 3 to 8) (size 9 to 14) (size 15 to 20)
#    0.000    2.429    0.000    4.714    0.000    2.571 
#    0.000    8.571    0.000    2.143    0.000    0.000 
#    0.000    0.000    0.000    0.000    0.000    0.000 
#
# Total GULP energy -1387660.606155 kJ/mol
# GULP energy per Si atom -12389.826841 kJ/mol
# Density = 1.947351 g / cm^3
# Si number density = 19.517937 Si / 1000 Ang^3
#
#
#
# Elastic Constant Matrix: (Units=GPa)
#
#
# Indices 1 2 3 4 5 6 
#
# 1 74.4211 37.0317 33.0656 0.0000 0.0000 0.0000
# 2 37.0317 74.4213 33.0669 0.0000 0.0000 0.0000
# 3 33.0656 33.0669 75.3146 0.0000 0.0000 0.0000
# 4 0.0000 0.0000 0.0000 32.0481 0.0000 0.0000
# 5 0.0000 0.0000 0.0000 0.0000 32.0489 0.0000
# 6 0.0000 0.0000 0.0000 0.0000 0.0000 19.2968
#
#
#
# Elastic Compliance Matrix: (Units=1/GPa)
#
#
# Indices 1 2 3 4 5 6 
#
# 1 0.019439 -0.007306 -0.005327 0.000000 0.000000 0.000000
# 2 -0.007306 0.019440 -0.005327 0.000000 0.000000 0.000000
# 3 -0.005327 -0.005327 0.017955 0.000000 0.000000 0.000000
# 4 0.000000 0.000000 0.000000 0.031203 0.000000 0.000000
# 5 0.000000 0.000000 0.000000 0.000000 0.031202 0.000000
# 6 0.000000 0.000000 0.000000 0.000000 0.000000 0.051822
#
#
# Mechanical properties :
#
#
# Convention : Reuss Voigt Hill
#
# Bulk Modulus (GPa) = 47.81556 47.83171 47.82364
# Shear Modulus (GPa) = 23.36962 24.74494 24.05728
#
# Velocity S-wave (km/s) = 3.46401 3.56449 3.51461
# Velocity P-wave (km/s) = 6.36794 6.44209 6.40512
#
# Compressibility (1/GPa) = 0.02091369
#
# Stress axis : x y z
#
# Youngs Moduli (GPa) = 51.44239 51.44159 55.69418
#
# Poissons Ratio (x) = 0.37584 0.29667
# Poissons Ratio (y) = 0.37584 0.29670
# Poissons Ratio (z) = 0.27402 0.27405
#
# Static dielectric constant tensor:
#      x y z
#    x 3.632750 0.000000 0.000000 
#    y 0.000000 3.632750 0.000000 
#    z 0.000000 0.000000 3.494270 
# 
# 
# High freq. dielectric constant tensor:
#      x y z
#    x 1.752200 0.000000 0.000000 
#    y 0.000000 1.752200 0.000000 
#    z 0.000000 0.000000 1.749530 
# 
# From -- ./inp_files/9799.got.cif
#   From: 2010.03.12/outbox.cif.g09.slc.cpg/sg137_5_cif.got.tgz:9799.got - 2010.04.08 09:34:49.
