data_PCOD8318293
_publ_section_title
;
Structure prediction by ZEFSAII (Michael W. Deem and Ramdas Pophale) SiO2 
 PCOD8318293
Probable space group: P 42/M N M
;
_chemical_formula_sum "Si O2"
_cell_formula_units_Z 120
_cell_length_a 21.039122
_cell_length_b 21.039122
_cell_length_c 14.032368
_cell_angle_alpha 90.000000
_cell_angle_beta 90.000000
_cell_angle_gamma 90.000000
_cell_volume 6211.352686
_symmetry_space_group_name_H-M "P 42/M N M"
_symmetry_group_IT_number 136
_symmetry_cell_setting 'tetragonal'
loop_
_space_group_symop_operation_xyz
x,y,z
1/2-y,1/2+x,1/2+z
-x,-y,z
1/2+y,1/2-x,1/2+z
1/2+x,1/2-y,1/2-z
1/2-x,1/2+y,1/2-z
y,x,-z
-y,-x,-z
-x,-y,-z
1/2+y,1/2-x,1/2-z
x,y,-z
1/2-y,1/2+x,1/2-z
1/2-x,1/2+y,1/2+z
1/2+x,1/2-y,1/2+z
-y,-x,z
y,x,z
loop_
_atom_site_type_symbol
_atom_site_label
_atom_site_fract_x
_atom_site_fract_y
_atom_site_fract_z
Si Si1 0.183251 0.031465 0.281209
Si Si2 0.404924 0.982088 0.609496
Si Si3 0.794958 0.554904 0.764490
Si Si4 0.610116 0.285870 0.605391
Si Si5 0.517128 0.893862 0.389819
Si Si6 0.861077 0.758677 0.605526
Si Si7 0.446667 0.553334 0.887953
Si Si8 0.196087 0.299015 0.219827
O O1 0.177505 0.061785 0.175593
O O2 0.230181 0.070771 0.349001
O O3 0.115022 0.025599 0.332579
O O4 0.220957 0.965654 0.266479
O O5 0.399094 0.965989 0.500000
O O6 0.335968 0.979446 0.655027
O O7 0.453052 0.927958 0.651619
O O8 0.428277 0.053887 0.624859
O O9 0.829164 0.536349 0.664790
O O10 0.790580 0.627859 0.792714
O O11 0.580131 0.272209 0.500000
O O12 0.670743 0.329258 0.592115
O O13 0.635454 0.220870 0.654278
O O14 0.509274 0.875095 0.500000
O O15 0.867024 0.729243 0.500000
O O16 0.827720 0.827720 0.603944
O O17 0.820056 0.710759 0.668859
O O18 0.500000 0.500000 0.881628
O O19 0.431378 0.568623 0.000000
O O20 0.258337 0.258337 0.191616
#
# Coordination Sequence:
#
# PCOD8318293 Si02
#       8
#    16  16  16  16  16  16   8  16
#     4  11  22  37  58  94 122 148 199 249 295 353
#     4   9  20  37  54  77 116 162 208 254 295 349
#     4  12  24  33  55  86 119 160 198 251 295 355
#     4   9  18  37  64  85 110 148 195 250 299 346
#     4   9  20  38  55  78 117 164 211 253 296 350
#     4   9  17  34  61  83 107 141 185 248 302 348
#     4  11  24  46  73  95 123 159 192 240 309 374
#     4   9  21  38  52  79 115 152 193 231 298 367
#
# _framework density 19.319464
#
# number of rings (size 3 to 8) (size 9 to 14) (size 15 to 20)
#    0.000    2.200    1.333    2.800    7.467    4.267 
#    0.000    0.000    0.000    2.400    0.000    1.867 
#    0.000    0.000    0.000    0.000    0.000    0.000 
#
# Total GULP energy -1487106.049438 kJ/mol
# GULP energy per Si atom -12392.550412 kJ/mol
# Density = 1.927549 g / cm^3
# Si number density = 19.319464 Si / 1000 Ang^3
#
#
#
# Elastic Constant Matrix: (Units=GPa)
#
#
# Indices 1 2 3 4 5 6 
#
# 1 76.1843 32.5909 35.7960 0.0000 0.0000 0.0000
# 2 32.5909 76.1846 35.7961 0.0000 0.0000 0.0000
# 3 35.7960 35.7961 131.8980 0.0000 0.0000 0.0000
# 4 0.0000 0.0000 0.0000 16.8405 0.0000 0.0000
# 5 0.0000 0.0000 0.0000 0.0000 16.8405 0.0000
# 6 0.0000 0.0000 0.0000 0.0000 0.0000 20.3174
#
#
#
# Elastic Compliance Matrix: (Units=1/GPa)
#
#
# Indices 1 2 3 4 5 6 
#
# 1 0.017066 -0.005873 -0.003038 0.000000 0.000000 0.000000
# 2 -0.005873 0.017066 -0.003038 0.000000 0.000000 0.000000
# 3 -0.003038 -0.003038 0.009230 0.000000 0.000000 0.000000
# 4 0.000000 0.000000 0.000000 0.059381 0.000000 0.000000
# 5 0.000000 0.000000 0.000000 0.000000 0.059381 0.000000
# 6 0.000000 0.000000 0.000000 0.000000 0.000000 0.049219
#
#
# Mechanical properties :
#
#
# Convention : Reuss Voigt Hill
#
# Bulk Modulus (GPa) = 51.37399 54.73698 53.05549
# Shear Modulus (GPa) = 20.68446 22.80528 21.74487
#
# Velocity S-wave (km/s) = 3.27563 3.43947 3.35855
# Velocity P-wave (km/s) = 6.39968 6.64585 6.52393
#
# Compressibility (1/GPa) = 0.01946510
#
# Stress axis : x y z
#
# Youngs Moduli (GPa) = 58.59662 58.59679 108.33830
#
# Poissons Ratio (x) = 0.34416 0.32908
# Poissons Ratio (y) = 0.34416 0.32908
# Poissons Ratio (z) = 0.17799 0.17799
#
# Static dielectric constant tensor:
#      x y z
#    x 3.663260 0.000000 0.000000 
#    y 0.000000 3.663270 0.000000 
#    z 0.000000 0.000000 3.865800 
# 
# 
# High freq. dielectric constant tensor:
#      x y z
#    x 1.730260 0.000000 0.000000 
#    y 0.000000 1.730260 0.000000 
#    z 0.000000 0.000000 1.763720 
# 
# From -- ./inp_files/5311.got.cif
#   From: 2010.03.12/outbox.cif.g09.slc.cpg/sg136_3_cif.got.tgz:5311.got - 2010.04.06 18:39:43.
