data_PCOD8318074
_publ_section_title
;
Structure prediction by ZEFSAII (Michael W. Deem and Ramdas Pophale) SiO2 
 PCOD8318074
Probable space group: P 42/M N M
;
_chemical_formula_sum "Si O2"
_cell_formula_units_Z 96
_cell_length_a 23.916792
_cell_length_b 23.916792
_cell_length_c 8.739990
_cell_angle_alpha 90.000000
_cell_angle_beta 90.000000
_cell_angle_gamma 90.000000
_cell_volume 4999.387372
_symmetry_space_group_name_H-M "P 42/M N M"
_symmetry_group_IT_number 136
_symmetry_cell_setting 'tetragonal'
loop_
_space_group_symop_operation_xyz
x,y,z
1/2-y,1/2+x,1/2+z
-x,-y,z
1/2+y,1/2-x,1/2+z
1/2+x,1/2-y,1/2-z
1/2-x,1/2+y,1/2-z
y,x,-z
-y,-x,-z
-x,-y,-z
1/2+y,1/2-x,1/2-z
x,y,-z
1/2-y,1/2+x,1/2-z
1/2-x,1/2+y,1/2+z
1/2+x,1/2-y,1/2+z
-y,-x,z
y,x,z
loop_
_atom_site_type_symbol
_atom_site_label
_atom_site_fract_x
_atom_site_fract_y
_atom_site_fract_z
Si Si1 0.860298 0.628889 0.680263
Si Si2 0.928871 0.265812 0.320440
Si Si3 0.656161 0.432893 0.321678
Si Si4 0.726510 0.943547 0.680680
Si Si5 0.440611 0.350092 0.323217
Si Si6 0.065538 0.454528 0.824060
O O1 0.867247 0.621458 0.500000
O O2 0.795337 0.623672 0.729723
O O3 0.897846 0.680743 0.739915
O O4 0.877591 0.574542 0.778778
O O5 0.921896 0.276317 0.500000
O O6 0.921268 0.200642 0.283734
O O7 0.992192 0.284422 0.264519
O O8 0.666104 0.423413 0.500000
O O9 0.610200 0.389801 0.256911
O O10 0.714618 0.420775 0.239523
O O11 0.634118 0.495231 0.287533
O O12 0.727129 0.942714 0.500000
O O13 0.433485 0.332216 0.500000
O O14 0.404114 0.404114 0.282019
O O15 0.072140 0.519860 0.789744
O O16 0.049132 0.445704 0.000000
#
# Coordination Sequence:
#
# PCOD8318074 Si02
#       6
#    16  16  16  16  16  16
#     4  11  21  34  52  74 100 135 181 225 267 320
#     4  10  20  35  54  77 106 139 177 222 269 315
#     4   9  18  33  55  83 111 137 168 209 257 311
#     4   9  20  36  53  74 103 139 176 216 262 313
#     4   9  18  34  56  81 110 142 173 208 256 315
#     4  11  21  33  48  69  98 132 171 220 276 326
#
# _framework density 19.202352000000001
#
# number of rings (size 3 to 8) (size 9 to 14) (size 15 to 20)
#    0.000    2.167    0.000    4.000    0.000    4.333 
#    0.000    2.500    0.000    1.000    0.000    4.667 
#    0.000    0.000    0.000    0.000    0.000    0.000 
#
# Total GULP energy -1189717.535317 kJ/mol
# GULP energy per Si atom -12392.890993 kJ/mol
# Density = 1.915865 g / cm^3
# Si number density = 19.202352 Si / 1000 Ang^3
#
#
#
# Elastic Constant Matrix: (Units=GPa)
#
#
# Indices 1 2 3 4 5 6 
#
# 1 64.4879 88.9344 25.0937 0.0000 0.0000 0.0000
# 2 88.9344 64.4879 25.0937 0.0000 0.0000 0.0000
# 3 25.0937 25.0937 56.6170 0.0000 0.0000 0.0000
# 4 0.0000 0.0000 0.0000 28.0693 0.0000 0.0000
# 5 0.0000 0.0000 0.0000 0.0000 28.0693 0.0000
# 6 0.0000 0.0000 0.0000 0.0000 0.0000 38.7006
#
#
#
# Elastic Compliance Matrix: (Units=1/GPa)
#
#
# Indices 1 2 3 4 5 6 
#
# 1 -0.016641 0.024264 -0.003379 0.000000 0.000000 0.000000
# 2 0.024264 -0.016641 -0.003379 0.000000 0.000000 0.000000
# 3 -0.003379 -0.003379 0.020658 0.000000 0.000000 0.000000
# 4 0.000000 0.000000 0.000000 0.035626 0.000000 0.000000
# 5 0.000000 0.000000 0.000000 0.000000 0.035626 0.000000
# 6 0.000000 0.000000 0.000000 0.000000 0.000000 0.025839
#
#
# Mechanical properties :
#
#
# Convention : Reuss Voigt Hill
#
# Bulk Modulus (GPa) = 44.66478 51.53739 48.10109
# Shear Modulus (GPa) = 87.84930 22.06592 54.95761
#
# Velocity S-wave (km/s) = 6.77116 3.39355 5.35559
# Velocity P-wave (km/s) = 9.18923 6.50018 7.95909
#
# Compressibility (1/GPa) = 0.02238900
#
# Stress axis : x y z
#
# Youngs Moduli (GPa) = -60.09158 -60.09158 48.40835
#
# Poissons Ratio (x) = 1.45809 0.16356
# Poissons Ratio (y) = 1.45809 0.16356
# Poissons Ratio (z) = -0.20303 -0.20303
#
# Static dielectric constant tensor:
#      x y z
#    x 3.545850 0.000000 0.000000 
#    y 0.000000 3.545850 0.000000 
#    z 0.000000 0.000000 3.392510 
# 
# 
# High freq. dielectric constant tensor:
#      x y z
#    x 1.739310 0.000000 0.000000 
#    y 0.000000 1.739310 0.000000 
#    z 0.000000 0.000000 1.743350 
# 
# From -- ./inp_files/1966.got.cif
#   From: 2010.03.12/outbox.cif.g09.slc.cpg/sg136_1_cif.got.tgz:1966.got - 2010.04.06 18:39:43.
