data_PCOD8318506
_publ_section_title
;
Structure prediction by ZEFSAII (Michael W. Deem and Ramdas Pophale) SiO2 
 PCOD8318506
Probable space group: P 42/N M C
;
_chemical_formula_sum "Si O2"
_cell_formula_units_Z 128
_cell_length_a 18.448456
_cell_length_b 18.448456
_cell_length_c 21.406446
_cell_angle_alpha 90.000000
_cell_angle_beta 90.000000
_cell_angle_gamma 90.000000
_cell_volume 7285.588183
_symmetry_space_group_name_H-M "P 42/N M C"
_symmetry_group_IT_number 137
_space_group.IT_coordinate_system_code '2'
_symmetry_cell_setting 'tetragonal'
loop_
_space_group_symop_operation_xyz
x,y,z
1/2-y,x,1/2+z
1/2-x,1/2-y,z
y,1/2-x,1/2+z
1/2+x,-y,-z
-x,1/2+y,-z
1/2+y,1/2+x,1/2-z
-y,-x,1/2-z
-x,-y,-z
1/2+y,-x,1/2-z
1/2+x,1/2+y,-z
-y,1/2+x,1/2-z
1/2-x,y,z
x,1/2-y,z
1/2-y,1/2-x,1/2+z
y,x,1/2+z
loop_
_atom_site_type_symbol
_atom_site_label
_atom_site_fract_x
_atom_site_fract_y
_atom_site_fract_z
Si Si1 0.399132 0.977974 0.298498
Si Si2 0.834158 0.833210 0.014351
Si Si3 0.168209 0.669070 0.488477
Si Si4 0.043186 0.904415 0.954356
Si Si5 0.334647 0.414976 0.613752
Si Si6 0.903659 0.331604 0.642252
Si Si7 0.930449 0.551281 0.571670
Si Si8 0.669531 0.942340 0.808112
O O1 0.423386 0.020337 0.359330
O O2 0.340582 0.027042 0.262404
O O3 0.466446 0.966446 0.250000
O O4 0.368651 0.896749 0.316209
O O5 0.750000 0.852686 0.017478
O O6 0.849225 0.750000 0.033254
O O7 0.874827 0.884843 0.063813
O O8 0.860781 0.847501 0.943953
O O9 0.250000 0.651855 0.467520
O O10 0.161299 0.750000 0.515301
O O11 0.143563 0.615650 0.543375
O O12 0.117347 0.657895 0.429025
O O13 0.992705 0.869426 0.901576
O O14 0.066939 0.985561 0.939193
O O15 0.005731 0.899285 0.022062
O O16 0.250000 0.423307 0.630216
O O17 0.377018 0.384327 0.674061
O O18 0.881317 0.250000 0.665961
O O19 0.990711 0.341477 0.644045
O O20 0.750000 0.910317 0.812412
#
# Coordination Sequence:
#
# PCOD8318506 Si02
#       8
#    16  16  16  16  16  16  16  16
#     4  10  19  34  51  73 106 140 181 222 261 308
#     4   9  19  34  52  77 108 139 173 220 278 334
#     4  10  20  32  49  76 109 141 169 208 267 325
#     4  10  19  33  53  80 106 131 176 223 273 324
#     4  10  20  35  56  78 104 138 179 230 279 324
#     4   9  18  33  51  73 104 142 180 221 261 310
#     4  10  20  32  53  79 103 138 178 223 267 325
#     4  10  21  34  52  76 103 141 188 226 264 310
#
# _framework density 17.568930999999999
#
# number of rings (size 3 to 8) (size 9 to 14) (size 15 to 20)
#    0.000    2.250    1.250    2.250    3.500    2.750 
#    0.000    2.500    0.000    0.750    0.000    0.000 
#    0.000    0.000    0.000   10.125    0.000    0.000 
#
# Total GULP energy -1586760.048303 kJ/mol
# GULP energy per Si atom -12396.562877 kJ/mol
# Density = 1.752894 g / cm^3
# Si number density = 17.568931 Si / 1000 Ang^3
#
#
#
# Elastic Constant Matrix: (Units=GPa)
#
#
# Indices 1 2 3 4 5 6 
#
# 1 103.5575 53.9219 36.0041 0.0000 0.0000 0.0000
# 2 53.9219 103.5575 36.0041 0.0000 0.0000 0.0000
# 3 36.0041 36.0041 60.4306 0.0000 0.0000 0.0000
# 4 0.0000 0.0000 0.0000 24.3792 0.0000 0.0000
# 5 0.0000 0.0000 0.0000 0.0000 24.3792 0.0000
# 6 0.0000 0.0000 0.0000 0.0000 0.0000 28.5476
#
#
#
# Elastic Compliance Matrix: (Units=1/GPa)
#
#
# Indices 1 2 3 4 5 6 
#
# 1 0.014437 -0.005710 -0.005200 0.000000 0.000000 0.000000
# 2 -0.005710 0.014437 -0.005200 0.000000 0.000000 0.000000
# 3 -0.005200 -0.005200 0.022744 0.000000 0.000000 0.000000
# 4 0.000000 0.000000 0.000000 0.041019 0.000000 0.000000
# 5 0.000000 0.000000 0.000000 0.000000 0.041019 0.000000
# 6 0.000000 0.000000 0.000000 0.000000 0.000000 0.035029
#
#
# Mechanical properties :
#
#
# Convention : Reuss Voigt Hill
#
# Bulk Modulus (GPa) = 51.54683 57.71178 54.62930
# Shear Modulus (GPa) = 24.11144 24.90222 24.50683
#
# Velocity S-wave (km/s) = 3.70860 3.76892 3.73888
# Velocity P-wave (km/s) = 6.90954 7.20137 7.05697
#
# Compressibility (1/GPa) = 0.01939984
#
# Stress axis : x y z
#
# Youngs Moduli (GPa) = 69.26516 69.26516 43.96755
#
# Poissons Ratio (x) = 0.39547 0.22863
# Poissons Ratio (y) = 0.39547 0.22863
# Poissons Ratio (z) = 0.36017 0.36017
#
# Static dielectric constant tensor:
#      x y z
#    x 3.321750 0.000000 0.000000 
#    y 0.000000 3.321750 0.000000 
#    z 0.000000 0.000000 2.988400 
# 
# 
# High freq. dielectric constant tensor:
#      x y z
#    x 1.678710 0.000000 0.000000 
#    y 0.000000 1.678710 0.000000 
#    z 0.000000 0.000000 1.645440 
# 
# From -- ./inp_files/9196.got.cif
#   From: 2010.03.12/outbox.cif.g09.slc.cpg/sg137_5_cif.got.tgz:9196.got - 2010.04.08 09:34:49.
