data_PCOD8318093
_publ_section_title
;
Structure prediction by ZEFSAII (Michael W. Deem and Ramdas Pophale) SiO2 
 PCOD8318093
Probable space group: P 42/M N M
;
_chemical_formula_sum "Si O2"
_cell_formula_units_Z 96
_cell_length_a 24.021557
_cell_length_b 24.021557
_cell_length_c 8.708354
_cell_angle_alpha 90.000000
_cell_angle_beta 90.000000
_cell_angle_gamma 90.000000
_cell_volume 5025.026798
_symmetry_space_group_name_H-M "P 42/M N M"
_symmetry_group_IT_number 136
_symmetry_cell_setting 'tetragonal'
loop_
_space_group_symop_operation_xyz
x,y,z
1/2-y,1/2+x,1/2+z
-x,-y,z
1/2+y,1/2-x,1/2+z
1/2+x,1/2-y,1/2-z
1/2-x,1/2+y,1/2-z
y,x,-z
-y,-x,-z
-x,-y,-z
1/2+y,1/2-x,1/2-z
x,y,-z
1/2-y,1/2+x,1/2-z
1/2-x,1/2+y,1/2+z
1/2+x,1/2-y,1/2+z
-y,-x,z
y,x,z
loop_
_atom_site_type_symbol
_atom_site_label
_atom_site_fract_x
_atom_site_fract_y
_atom_site_fract_z
Si Si1 0.357207 0.730780 0.180427
Si Si2 0.855371 0.352293 0.819894
Si Si3 0.650869 0.438179 0.324531
Si Si4 0.864954 0.223460 0.175061
Si Si5 0.438272 0.941981 0.682737
Si Si6 0.857055 0.052760 0.673521
O O1 0.305122 0.694878 0.250034
O O2 0.361583 0.793148 0.245860
O O3 0.414874 0.700728 0.220546
O O4 0.348867 0.734595 0.000000
O O5 0.867576 0.288098 0.785578
O O6 0.898021 0.390874 0.727835
O O7 0.860174 0.366408 0.000000
O O8 0.668744 0.430527 0.500000
O O9 0.593990 0.406010 0.286510
O O10 0.640754 0.502123 0.289930
O O11 0.803022 0.196979 0.199915
O O12 0.908216 0.194965 0.288843
O O13 0.883733 0.212877 0.000000
O O14 0.442689 0.946160 0.500000
O O15 0.497601 0.922079 0.749877
O O16 0.850557 0.031111 0.500000
O O17 0.914178 0.085823 0.695943
#
# Coordination Sequence:
#
# PCOD8318093 Si02
#       6
#    16  16  16  16  16  16
#     4   9  18  34  56  81 111 145 179 219 266 314
#     4  10  20  35  58  87 113 141 180 219 260 317
#     4  10  21  36  54  77 106 141 181 225 272 320
#     4   9  18  34  56  81 111 145 179 219 266 314
#     4  11  23  41  62  82 108 141 177 220 271 320
#     4  10  21  36  54  77 106 141 181 225 272 320
#
# _framework density 19.104375999999998
#
# number of rings (size 3 to 8) (size 9 to 14) (size 15 to 20)
#    0.000    2.167    0.000    3.500    0.000    7.000 
#    0.000    1.667    0.000    5.000    0.000    0.000 
#    0.000    0.000    0.000    0.000    0.000    0.000 
#
# Total GULP energy -1190409.999985 kJ/mol
# GULP energy per Si atom -12400.104167 kJ/mol
# Density = 1.906089 g / cm^3
# Si number density = 19.104376 Si / 1000 Ang^3
#
#
#
# Elastic Constant Matrix: (Units=GPa)
#
#
# Indices 1 2 3 4 5 6 
#
# 1 242.8114 -65.9367 36.5034 0.0000 0.0000 0.0000
# 2 -65.9367 242.8114 36.5034 0.0000 0.0000 0.0000
# 3 36.5034 36.5034 65.2591 0.0000 0.0000 0.0000
# 4 0.0000 0.0000 0.0000 26.2298 0.0000 0.0000
# 5 0.0000 0.0000 0.0000 0.0000 26.2298 0.0000
# 6 0.0000 0.0000 0.0000 0.0000 0.0000 22.7213
#
#
#
# Elastic Compliance Matrix: (Units=1/GPa)
#
#
# Indices 1 2 3 4 5 6 
#
# 1 0.005295 0.002056 -0.004112 0.000000 0.000000 0.000000
# 2 0.002056 0.005295 -0.004112 0.000000 0.000000 0.000000
# 3 -0.004112 -0.004112 0.019923 0.000000 0.000000 0.000000
# 4 0.000000 0.000000 0.000000 0.038125 0.000000 0.000000
# 5 0.000000 0.000000 0.000000 0.000000 0.038125 0.000000
# 6 0.000000 0.000000 0.000000 0.000000 0.000000 0.044012
#
#
# Mechanical properties :
#
#
# Convention : Reuss Voigt Hill
#
# Bulk Modulus (GPa) = 55.01132 62.78024 58.89578
# Shear Modulus (GPa) = 29.55630 51.29030 40.42330
#
# Velocity S-wave (km/s) = 3.93758 5.18707 4.60490
# Velocity P-wave (km/s) = 7.03778 8.29502 7.69213
#
# Compressibility (1/GPa) = 0.01817808
#
# Stress axis : x y z
#
# Youngs Moduli (GPa) = 188.86110 188.86110 50.19201
#
# Poissons Ratio (x) = -0.38830 0.20638
# Poissons Ratio (y) = -0.38830 0.20638
# Poissons Ratio (z) = 0.77656 0.77656
#
# Static dielectric constant tensor:
#      x y z
#    x 3.499580 0.000000 0.000000 
#    y 0.000000 3.499580 0.000000 
#    z 0.000000 0.000000 3.421950 
# 
# 
# High freq. dielectric constant tensor:
#      x y z
#    x 1.744340 0.000000 0.000000 
#    y 0.000000 1.744340 0.000000 
#    z 0.000000 0.000000 1.739510 
# 
# From -- ./inp_files/1981.got.cif
#   From: 2010.03.12/outbox.cif.g09.slc.cpg/sg136_1_cif.got.tgz:1981.got - 2010.04.06 18:39:43.
