data_PCOD8318833
_publ_section_title
;
Structure prediction by ZEFSAII (Michael W. Deem and Ramdas Pophale) SiO2 
 PCOD8318833
Probable space group: P 42/N M C
;
_chemical_formula_sum "Si O2"
_cell_formula_units_Z 96
_cell_length_a 13.735235
_cell_length_b 13.735235
_cell_length_c 28.675630
_cell_angle_alpha 90.000000
_cell_angle_beta 90.000000
_cell_angle_gamma 90.000000
_cell_volume 5409.849167
_symmetry_space_group_name_H-M "P 42/N M C"
_symmetry_group_IT_number 137
_space_group.IT_coordinate_system_code '2'
_symmetry_cell_setting 'tetragonal'
loop_
_space_group_symop_operation_xyz
x,y,z
1/2-y,x,1/2+z
1/2-x,1/2-y,z
y,1/2-x,1/2+z
1/2+x,-y,-z
-x,1/2+y,-z
1/2+y,1/2+x,1/2-z
-y,-x,1/2-z
-x,-y,-z
1/2+y,-x,1/2-z
1/2+x,1/2+y,-z
-y,1/2+x,1/2-z
1/2-x,y,z
x,1/2-y,z
1/2-y,1/2-x,1/2+z
y,x,1/2+z
loop_
_atom_site_type_symbol
_atom_site_label
_atom_site_fract_x
_atom_site_fract_y
_atom_site_fract_z
Si Si1 0.538346 0.361071 0.596536
Si Si2 0.537695 0.543096 0.151689
Si Si3 0.861168 0.640162 0.234886
Si Si4 0.639709 0.453450 0.292821
Si Si5 0.640509 0.860282 0.467281
Si Si6 0.136464 0.030824 0.441157
O O1 0.570575 0.250000 0.603528
O O2 0.543706 0.419210 0.645795
O O3 0.428339 0.371940 0.577372
O O4 0.611998 0.414709 0.560080
O O5 0.567640 0.618566 0.191724
O O6 0.572492 0.433940 0.165099
O O7 0.582591 0.576746 0.101644
O O8 0.750000 0.628067 0.217447
O O9 0.880834 0.750000 0.252895
O O10 0.880915 0.564739 0.276745
O O11 0.619581 0.380420 0.250000
O O12 0.750000 0.439098 0.310350
O O13 0.750000 0.890625 0.452164
O O14 0.638593 0.750000 0.485706
O O15 0.601784 0.926470 0.509638
O O16 0.250000 0.050232 0.433359
#
# Coordination Sequence:
#
# PCOD8318833 Si02
#       6
#    16  16  16  16  16  16
#     4   9  19  32  47  69  97 131 163 194 232 282
#     4   9  19  30  48  73  98 124 156 198 240 281
#     4   9  17  31  51  72  95 122 154 197 243 283
#     4   9  18  33  50  72  97 126 160 193 237 291
#     4   9  17  31  51  73  96 122 158 203 247 286
#     4   9  18  31  48  70  95 129 165 197 237 283
#
# _framework density 17.745412000000002
#
# number of rings (size 3 to 8) (size 9 to 14) (size 15 to 20)
#    1.000    2.000    0.000    1.000    0.000    2.500 
#    0.000    1.667    0.000    0.000    0.000    0.000 
#    0.000    0.000    0.000    0.000    0.000    0.000 
#
# Total GULP energy -1189318.678392 kJ/mol
# GULP energy per Si atom -12388.736233 kJ/mol
# Density = 1.770502 g / cm^3
# Si number density = 17.745412 Si / 1000 Ang^3
#
#
#
# Elastic Constant Matrix: (Units=GPa)
#
#
# Indices 1 2 3 4 5 6 
#
# 1 74.1321 19.2393 20.3065 0.0000 0.0000 0.0000
# 2 19.2393 74.1335 20.3064 0.0000 0.0000 0.0000
# 3 20.3065 20.3064 38.7182 0.0000 0.0000 0.0000
# 4 0.0000 0.0000 0.0000 24.3942 0.0000 0.0000
# 5 0.0000 0.0000 0.0000 0.0000 24.3941 0.0000
# 6 0.0000 0.0000 0.0000 0.0000 0.0000 22.9360
#
#
#
# Elastic Compliance Matrix: (Units=1/GPa)
#
#
# Indices 1 2 3 4 5 6 
#
# 1 0.016046 -0.002171 -0.007277 0.000000 0.000000 0.000000
# 2 -0.002171 0.016046 -0.007277 0.000000 0.000000 0.000000
# 3 -0.007277 -0.007277 0.033461 0.000000 0.000000 0.000000
# 4 0.000000 0.000000 0.000000 0.040993 0.000000 0.000000
# 5 0.000000 0.000000 0.000000 0.000000 0.040994 0.000000
# 6 0.000000 0.000000 0.000000 0.000000 0.000000 0.043600
#
#
# Mechanical properties :
#
#
# Convention : Reuss Voigt Hill
#
# Bulk Modulus (GPa) = 31.14995 34.07647 32.61321
# Shear Modulus (GPa) = 21.25034 22.82030 22.03532
#
# Velocity S-wave (km/s) = 3.46426 3.58995 3.52767
# Velocity P-wave (km/s) = 5.79598 6.03559 5.91700
#
# Compressibility (1/GPa) = 0.03210278
#
# Stress axis : x y z
#
# Youngs Moduli (GPa) = 62.31992 62.32128 29.88579
#
# Poissons Ratio (x) = 0.13530 0.21748
# Poissons Ratio (y) = 0.13530 0.21748
# Poissons Ratio (z) = 0.45351 0.45351
#
# Static dielectric constant tensor:
#      x y z
#    x 3.291380 0.000000 0.000000 
#    y 0.000000 3.291380 0.000000 
#    z 0.000000 0.000000 2.994940 
# 
# 
# High freq. dielectric constant tensor:
#      x y z
#    x 1.680870 0.000000 0.000000 
#    y 0.000000 1.680870 0.000000 
#    z 0.000000 0.000000 1.660820 
# 
# From -- ./inp_files/10602.got.cif
#   From: 2010.03.12/outbox.cif.g09.slc.cpg/sg137_6_cif.got.tgz:10602.got - 2010.04.08 09:34:49.
