data_PCOD8318803
_publ_section_title
;
Structure prediction by ZEFSAII (Michael W. Deem and Ramdas Pophale) SiO2 
 PCOD8318803
Probable space group: P 42/N M C
;
_chemical_formula_sum "Si O2"
_cell_formula_units_Z 48
_cell_length_a 10.879071
_cell_length_b 10.879071
_cell_length_c 18.573142
_cell_angle_alpha 90.000000
_cell_angle_beta 90.000000
_cell_angle_gamma 90.000000
_cell_volume 2198.209100
_symmetry_space_group_name_H-M "P 42/N M C"
_symmetry_group_IT_number 137
_space_group.IT_coordinate_system_code '2'
_symmetry_cell_setting 'tetragonal'
loop_
_space_group_symop_operation_xyz
x,y,z
1/2-y,x,1/2+z
1/2-x,1/2-y,z
y,1/2-x,1/2+z
1/2+x,-y,-z
-x,1/2+y,-z
1/2+y,1/2+x,1/2-z
-y,-x,1/2-z
-x,-y,-z
1/2+y,-x,1/2-z
1/2+x,1/2+y,-z
-y,1/2+x,1/2-z
1/2-x,y,z
x,1/2-y,z
1/2-y,1/2-x,1/2+z
y,x,1/2+z
loop_
_atom_site_type_symbol
_atom_site_label
_atom_site_fract_x
_atom_site_fract_y
_atom_site_fract_z
Si Si1 0.250000 0.389828 0.452128
Si Si2 0.483565 0.458488 0.363664
Si Si3 0.388623 0.611377 0.250000
Si Si4 0.608965 0.750000 0.734945
Si Si5 0.250000 0.018562 0.607680
O O1 0.250000 0.250000 0.426194
O O2 0.377797 0.449870 0.424581
O O3 0.250000 0.395136 0.538179
O O4 0.471067 0.588189 0.321768
O O5 0.459511 0.365990 0.298236
O O6 0.622214 0.438892 0.394841
O O7 0.250000 0.585546 0.274132
O O8 0.750000 0.750000 0.711233
O O9 0.599332 0.750000 0.820759
#
# Coordination Sequence:
#
# PCOD8318803 Si02
#       5
#     8  16   8   8   8
#     4  12  25  48  70  94 143 191 231 282 365 431
#     4  12  23  44  70 100 140 180 231 294 346 418
#     4  11  22  38  70 103 132 176 242 289 336 402
#     4  12  21  43  75  96 134 189 240 279 345 434
#     4  12  27  39  68 111 138 180 236 295 352 426
#
# _framework density 21.835955999999999
#
# number of rings (size 3 to 8) (size 9 to 14) (size 15 to 20)
#    0.000    0.167    8.333    1.500    0.000    2.000 
#    0.000    1.667    3.667    0.000    0.000    0.000 
#    0.000    0.000    0.000    0.000    0.000    0.000 
#
# Total GULP energy -594827.189994 kJ/mol
# GULP energy per Si atom -12392.233125 kJ/mol
# Density = 2.178626 g / cm^3
# Si number density = 21.835956 Si / 1000 Ang^3
#
#
#
# Elastic Constant Matrix: (Units=GPa)
#
#
# Indices 1 2 3 4 5 6 
#
# 1 141.6350 38.6236 38.6052 0.0000 0.0000 0.0000
# 2 38.6236 141.6346 38.6046 0.0000 0.0000 0.0000
# 3 38.6052 38.6046 136.1638 0.0000 0.0000 0.0000
# 4 0.0000 0.0000 0.0000 35.5466 0.0000 0.0000
# 5 0.0000 0.0000 0.0000 0.0000 35.5436 0.0000
# 6 0.0000 0.0000 0.0000 0.0000 0.0000 24.5057
#
#
#
# Elastic Compliance Matrix: (Units=1/GPa)
#
#
# Indices 1 2 3 4 5 6 
#
# 1 0.008011 -0.001697 -0.001790 0.000000 0.000000 0.000000
# 2 -0.001697 0.008011 -0.001790 0.000000 0.000000 0.000000
# 3 -0.001790 -0.001790 0.008359 0.000000 0.000000 0.000000
# 4 0.000000 0.000000 0.000000 0.028132 0.000000 0.000000
# 5 0.000000 0.000000 0.000000 0.000000 0.028134 0.000000
# 6 0.000000 0.000000 0.000000 0.000000 0.000000 0.040807
#
#
# Mechanical properties :
#
#
# Convention : Reuss Voigt Hill
#
# Bulk Modulus (GPa) = 72.32202 72.34448 72.33325
# Shear Modulus (GPa) = 36.59839 39.35917 37.97878
#
# Velocity S-wave (km/s) = 4.09841 4.25018 4.17499
# Velocity P-wave (km/s) = 7.45577 7.56890 7.51255
#
# Compressibility (1/GPa) = 0.01382705
#
# Stress axis : x y z
#
# Youngs Moduli (GPa) = 124.82770 124.82761 119.62817
#
# Poissons Ratio (x) = 0.21179 0.21417
# Poissons Ratio (y) = 0.21179 0.21416
# Poissons Ratio (z) = 0.22347 0.22347
#
# Static dielectric constant tensor:
#      x y z
#    x 4.224310 0.000000 0.000000 
#    y 0.000000 4.224230 0.000000 
#    z 0.000000 0.000000 3.797220 
# 
# 
# High freq. dielectric constant tensor:
#      x y z
#    x 1.855820 0.000000 0.000000 
#    y 0.000000 1.855820 0.000000 
#    z 0.000000 0.000000 1.864280 
# 
# From -- ./inp_files/5837.got.cif
#   From: 2010.03.12/outbox.cif.g09.slc.cpg/sg137_3_cif.got.tgz:5837.got - 2010.04.08 09:34:49.
