data_PCOD8318109
_publ_section_title
;
Structure prediction by ZEFSAII (Michael W. Deem and Ramdas Pophale) SiO2 
 PCOD8318109
Probable space group: P 42/M N M
;
_chemical_formula_sum "Si O2"
_cell_formula_units_Z 96
_cell_length_a 24.678997
_cell_length_b 24.678997
_cell_length_c 7.884851
_cell_angle_alpha 90.000000
_cell_angle_beta 90.000000
_cell_angle_gamma 90.000000
_cell_volume 4802.291312
_symmetry_space_group_name_H-M "P 42/M N M"
_symmetry_group_IT_number 136
_symmetry_cell_setting 'tetragonal'
loop_
_space_group_symop_operation_xyz
x,y,z
1/2-y,1/2+x,1/2+z
-x,-y,z
1/2+y,1/2-x,1/2+z
1/2+x,1/2-y,1/2-z
1/2-x,1/2+y,1/2-z
y,x,-z
-y,-x,-z
-x,-y,-z
1/2+y,1/2-x,1/2-z
x,y,-z
1/2-y,1/2+x,1/2-z
1/2-x,1/2+y,1/2+z
1/2+x,1/2-y,1/2+z
-y,-x,z
y,x,z
loop_
_atom_site_type_symbol
_atom_site_label
_atom_site_fract_x
_atom_site_fract_y
_atom_site_fract_z
Si Si1 0.827661 0.740231 0.699937
Si Si2 0.074478 0.836953 0.500000
Si Si3 0.760719 0.050576 0.194733
Si Si4 0.043200 0.126991 0.500000
Si Si5 0.947171 0.438261 0.687177
Si Si6 0.658521 0.119347 0.802818
Si Si7 0.933564 0.798226 0.189939
O O1 0.837826 0.744461 0.500000
O O2 0.773909 0.773909 0.752038
O O3 0.820886 0.678113 0.761967
O O4 0.879597 0.763315 0.795847
O O5 0.127430 0.872571 0.500000
O O6 0.076166 0.802786 0.673123
O O7 0.021441 0.874964 0.500000
O O8 0.702186 0.073635 0.245044
O O9 0.759249 0.985648 0.217089
O O10 0.776151 0.066928 0.000000
O O11 0.065780 0.065780 0.500000
O O12 0.066344 0.155441 0.331284
O O13 0.926988 0.500614 0.695609
O O14 0.968426 0.426974 0.500000
O O15 0.896813 0.399015 0.724249
O O16 0.649030 0.123070 0.000000
O O17 0.935768 0.823883 0.000000
#
# Coordination Sequence:
#
# PCOD8318109 Si02
#       7
#    16   8  16   8  16  16  16
#     4  10  21  37  57  84 118 154 193 241 300 357
#     4  10  22  39  62  90 118 152 198 241 293 360
#     4   9  21  40  61  85 116 153 201 246 291 349
#     4  10  20  37  60  88 122 153 191 242 298 351
#     4  11  23  40  61  85 119 156 201 250 301 356
#     4  10  22  39  60  87 117 155 198 246 302 353
#     4  10  20  36  60  86 114 155 200 241 289 352
#
# _framework density 19.990456999999999
#
# number of rings (size 3 to 8) (size 9 to 14) (size 15 to 20)
#    0.000    2.000    0.833    2.500    3.500    3.167 
#    0.000    1.667    0.000    0.000    0.000    4.667 
#    0.000    0.000    0.000    0.000    0.000    0.000 
#
# Total GULP energy -1190219.598216 kJ/mol
# GULP energy per Si atom -12398.120815 kJ/mol
# Density = 1.994496 g / cm^3
# Si number density = 19.990457 Si / 1000 Ang^3
#
#
#
# Elastic Constant Matrix: (Units=GPa)
#
#
# Indices 1 2 3 4 5 6 
#
# 1 97.1157 66.7910 33.1599 0.0000 0.0000 0.0000
# 2 66.7910 97.1206 33.1621 0.0000 0.0000 0.0000
# 3 33.1599 33.1621 84.1219 0.0000 0.0000 0.0000
# 4 0.0000 0.0000 0.0000 20.7652 0.0000 0.0000
# 5 0.0000 0.0000 0.0000 0.0000 20.7661 0.0000
# 6 0.0000 0.0000 0.0000 0.0000 0.0000 32.7038
#
#
#
# Elastic Compliance Matrix: (Units=1/GPa)
#
#
# Indices 1 2 3 4 5 6 
#
# 1 0.020117 -0.012858 -0.002861 0.000000 0.000000 0.000000
# 2 -0.012858 0.020116 -0.002862 0.000000 0.000000 0.000000
# 3 -0.002861 -0.002862 0.014143 0.000000 0.000000 0.000000
# 4 0.000000 0.000000 0.000000 0.048157 0.000000 0.000000
# 5 0.000000 0.000000 0.000000 0.000000 0.048155 0.000000
# 6 0.000000 0.000000 0.000000 0.000000 0.000000 0.030577
#
#
# Mechanical properties :
#
#
# Convention : Reuss Voigt Hill
#
# Bulk Modulus (GPa) = 58.08785 60.50936 59.29860
# Shear Modulus (GPa) = 22.30495 24.53003 23.41749
#
# Velocity S-wave (km/s) = 3.34395 3.50678 3.42633
# Velocity P-wave (km/s) = 6.63553 6.83605 6.73653
#
# Compressibility (1/GPa) = 0.01721530
#
# Stress axis : x y z
#
# Youngs Moduli (GPa) = 49.71008 49.71197 70.70405
#
# Poissons Ratio (x) = 0.63917 0.20229
# Poissons Ratio (y) = 0.63915 0.20233
# Poissons Ratio (z) = 0.14223 0.14226
#
# Static dielectric constant tensor:
#      x y z
#    x 3.604870 0.000000 0.000000 
#    y 0.000000 3.604870 0.000000 
#    z 0.000000 0.000000 3.775920 
# 
# 
# High freq. dielectric constant tensor:
#      x y z
#    x 1.770310 0.000000 0.000000 
#    y 0.000000 1.770310 0.000000 
#    z 0.000000 0.000000 1.790480 
# 
# From -- ./inp_files/2092.got.cif
#   From: 2010.03.12/outbox.cif.g09.slc.cpg/sg136_2_cif.got.tgz:2092.got - 2010.04.06 18:39:43.
