data_PCOD8318230
_publ_section_title
;
Structure prediction by ZEFSAII (Michael W. Deem and Ramdas Pophale) SiO2 
 PCOD8318230
Probable space group: P 42/M N M
;
_chemical_formula_sum "Si O2"
_cell_formula_units_Z 120
_cell_length_a 22.051961
_cell_length_b 22.051961
_cell_length_c 13.975761
_cell_angle_alpha 90.000000
_cell_angle_beta 90.000000
_cell_angle_gamma 90.000000
_cell_volume 6796.258617
_symmetry_space_group_name_H-M "P 42/M N M"
_symmetry_group_IT_number 136
_symmetry_cell_setting 'tetragonal'
loop_
_space_group_symop_operation_xyz
x,y,z
1/2-y,1/2+x,1/2+z
-x,-y,z
1/2+y,1/2-x,1/2+z
1/2+x,1/2-y,1/2-z
1/2-x,1/2+y,1/2-z
y,x,-z
-y,-x,-z
-x,-y,-z
1/2+y,1/2-x,1/2-z
x,y,-z
1/2-y,1/2+x,1/2-z
1/2-x,1/2+y,1/2+z
1/2+x,1/2-y,1/2+z
-y,-x,z
y,x,z
loop_
_atom_site_type_symbol
_atom_site_label
_atom_site_fract_x
_atom_site_fract_y
_atom_site_fract_z
Si Si1 0.263788 0.639262 0.107060
Si Si2 0.328232 0.935088 0.774851
Si Si3 0.951270 0.048731 0.887215
Si Si4 0.859122 0.957357 0.886534
Si Si5 0.932509 0.512348 0.392406
Si Si6 0.115640 0.367472 0.107988
Si Si7 0.759444 0.662981 0.390494
Si Si8 0.235912 0.560630 0.281589
O O1 0.326529 0.673472 0.128930
O O2 0.208689 0.685174 0.119060
O O3 0.256941 0.584198 0.179151
O O4 0.264451 0.612390 0.000000
O O5 0.393441 0.938645 0.830905
O O6 0.338404 0.908212 0.669351
O O7 0.276731 0.896019 0.829106
O O8 0.303784 0.002018 0.761331
O O9 0.977266 0.113275 0.850276
O O10 0.948036 0.051965 0.000000
O O11 0.000000 0.000000 0.854230
O O12 0.901300 0.901300 0.852041
O O13 0.793023 0.954245 0.845257
O O14 0.854577 0.956211 0.000000
O O15 0.939021 0.539236 0.500000
O O16 0.897290 0.449836 0.396126
O O17 0.000000 0.500000 0.349040
O O18 0.110746 0.302456 0.160164
O O19 0.141298 0.359659 0.000000
O O20 0.750648 0.642155 0.500000
O O21 0.697396 0.697396 0.355889
#
# Coordination Sequence:
#
# PCOD8318230 Si02
#       8
#    16  16   8  16  16  16  16  16
#     4   9  18  34  57  82 104 129 172 231 279 312
#     4  11  22  34  52  75 106 145 176 219 264 319
#     4   7  12  26  48  76 109 137 161 199 252 314
#     4   9  17  31  53  80 111 142 170 207 262 326
#     4   9  20  34  52  75 100 133 174 220 266 315
#     4  10  22  36  48  71 106 139 174 219 259 304
#     4   9  18  35  57  77 101 136 179 227 274 315
#     4  11  21  34  53  77 107 141 176 221 261 317
#
# _framework density 17.656773000000001
#
# number of rings (size 3 to 8) (size 9 to 14) (size 15 to 20)
#    0.000    2.467    1.333    2.800    3.733    2.133 
#    1.200    0.000    0.000    1.200    0.000    0.467 
#    0.000    2.667    0.000    0.000    0.000    0.000 
#
# Total GULP energy -1487233.359325 kJ/mol
# GULP energy per Si atom -12393.611328 kJ/mol
# Density = 1.761659 g / cm^3
# Si number density = 17.656773 Si / 1000 Ang^3
#
#
#
# Elastic Constant Matrix: (Units=GPa)
#
#
# Indices 1 2 3 4 5 6 
#
# 1 71.3556 23.2263 40.0429 0.0000 0.0000 0.0000
# 2 23.2263 71.3557 40.0430 0.0000 0.0000 0.0000
# 3 40.0429 40.0430 104.1770 0.0000 0.0000 0.0000
# 4 0.0000 0.0000 0.0000 20.6354 0.0000 0.0000
# 5 0.0000 0.0000 0.0000 0.0000 20.6354 0.0000
# 6 0.0000 0.0000 0.0000 0.0000 0.0000 26.1521
#
#
#
# Elastic Compliance Matrix: (Units=1/GPa)
#
#
# Indices 1 2 3 4 5 6 
#
# 1 0.018226 -0.002552 -0.006025 0.000000 0.000000 0.000000
# 2 -0.002552 0.018226 -0.006025 0.000000 0.000000 0.000000
# 3 -0.006025 -0.006025 0.014231 0.000000 0.000000 0.000000
# 4 0.000000 0.000000 0.000000 0.048460 0.000000 0.000000
# 5 0.000000 0.000000 0.000000 0.000000 0.048460 0.000000
# 6 0.000000 0.000000 0.000000 0.000000 0.000000 0.038238
#
#
# Mechanical properties :
#
#
# Convention : Reuss Voigt Hill
#
# Bulk Modulus (GPa) = 46.55504 50.39031 48.47267
# Shear Modulus (GPa) = 22.50196 23.05633 22.77914
#
# Velocity S-wave (km/s) = 3.57376 3.61751 3.59570
# Velocity P-wave (km/s) = 6.59188 6.78596 6.68963
#
# Compressibility (1/GPa) = 0.02147995
#
# Stress axis : x y z
#
# Youngs Moduli (GPa) = 54.86731 54.86736 70.27127
#
# Poissons Ratio (x) = 0.14000 0.42337
# Poissons Ratio (y) = 0.14000 0.42337
# Poissons Ratio (z) = 0.33056 0.33056
#
# Static dielectric constant tensor:
#      x y z
#    x 3.348080 0.000000 0.000000 
#    y 0.000000 3.348080 0.000000 
#    z 0.000000 0.000000 3.312180 
# 
# 
# High freq. dielectric constant tensor:
#      x y z
#    x 1.673550 0.000000 0.000000 
#    y 0.000000 1.673550 0.000000 
#    z 0.000000 0.000000 1.669030 
# 
# From -- ./inp_files/5310.got.cif
#   From: 2010.03.12/outbox.cif.g09.slc.cpg/sg136_3_cif.got.tgz:5310.got - 2010.04.06 18:39:43.
