data_PCOD8318307
_publ_section_title
;
Structure prediction by ZEFSAII (Michael W. Deem and Ramdas Pophale) SiO2 
 PCOD8318307
Probable space group: P 42/M N M
;
_chemical_formula_sum "Si O2"
_cell_formula_units_Z 96
_cell_length_a 15.630408
_cell_length_b 15.630408
_cell_length_c 20.181645
_cell_angle_alpha 90.000000
_cell_angle_beta 90.000000
_cell_angle_gamma 90.000000
_cell_volume 4930.570712
_symmetry_space_group_name_H-M "P 42/M N M"
_symmetry_group_IT_number 136
_symmetry_cell_setting 'tetragonal'
loop_
_space_group_symop_operation_xyz
x,y,z
1/2-y,1/2+x,1/2+z
-x,-y,z
1/2+y,1/2-x,1/2+z
1/2+x,1/2-y,1/2-z
1/2-x,1/2+y,1/2-z
y,x,-z
-y,-x,-z
-x,-y,-z
1/2+y,1/2-x,1/2-z
x,y,-z
1/2-y,1/2+x,1/2-z
1/2-x,1/2+y,1/2+z
1/2+x,1/2-y,1/2+z
-y,-x,z
y,x,z
loop_
_atom_site_type_symbol
_atom_site_label
_atom_site_fract_x
_atom_site_fract_y
_atom_site_fract_z
Si Si1 0.072564 0.072564 0.667263
Si Si2 0.509855 0.138182 0.248931
Si Si3 0.803595 0.665155 0.576525
Si Si4 0.260707 0.395714 0.000000
Si Si5 0.929185 0.929185 0.182142
Si Si6 0.011912 0.248525 0.128761
Si Si7 0.754453 0.380670 0.500000
Si Si8 0.021143 0.256836 0.379142
O O1 0.095473 0.095473 0.742957
O O2 0.158049 0.042600 0.631285
O O3 0.000000 0.000000 0.660570
O O4 0.425812 0.086091 0.270983
O O5 0.543552 0.193439 0.310546
O O6 0.486034 0.200391 0.188102
O O7 0.799642 0.638594 0.500000
O O8 0.749379 0.749379 0.591691
O O9 0.763112 0.588896 0.619215
O O10 0.899789 0.686244 0.596740
O O11 0.241313 0.449171 0.065441
O O12 0.357757 0.357757 0.000000
O O13 0.197629 0.317343 0.000000
O O14 0.968314 0.849520 0.143562
O O15 0.000000 0.000000 0.184083
O O16 0.062501 0.275181 0.063614
O O17 0.657270 0.342731 0.500000
#
# Coordination Sequence:
#
# PCOD8318307 Si02
#       8
#     8  16  16   8   8  16   8  16
#     4  11  24  41  67  95 133 168 211 262 321 377
#     4  11  24  40  63  94 129 168 216 269 320 381
#     4  11  23  40  64  95 129 165 207 265 321 389
#     4  11  26  44  64  94 129 165 219 264 316 383
#     4  11  24  41  65  97 129 165 210 269 314 383
#     4  12  22  43  66  92 128 168 213 260 328 380
#     4  11  24  43  65  89 124 172 210 260 318 384
#     4  12  22  43  65  95 127 170 214 262 323 382
#
# _framework density 19.470364
#
# number of rings (size 3 to 8) (size 9 to 14) (size 15 to 20)
#    0.000    0.667    6.667    2.000    0.000    0.333 
#    0.000    2.083    1.833    0.000    0.000    0.000 
#    0.000    0.000    0.000    0.000    0.000    0.000 
#
# Total GULP energy -1190760.317940 kJ/mol
# GULP energy per Si atom -12403.753312 kJ/mol
# Density = 1.942605 g / cm^3
# Si number density = 19.470364 Si / 1000 Ang^3
#
#
#
# Elastic Constant Matrix: (Units=GPa)
#
#
# Indices 1 2 3 4 5 6 
#
# 1 80.9252 27.2993 38.1932 0.0000 0.0000 0.0000
# 2 27.2993 80.9251 38.1932 0.0000 0.0000 0.0000
# 3 38.1932 38.1932 124.6388 0.0000 0.0000 0.0000
# 4 0.0000 0.0000 0.0000 699.0533 0.0000 0.0000
# 5 0.0000 0.0000 0.0000 0.0000 692.1465 0.0000
# 6 0.0000 0.0000 0.0000 0.0000 0.0000 34.9016
#
#
#
# Elastic Compliance Matrix: (Units=1/GPa)
#
#
# Indices 1 2 3 4 5 6 
#
# 1 0.015219 -0.003429 -0.003613 0.000000 0.000000 0.000000
# 2 -0.003429 0.015219 -0.003613 0.000000 0.000000 0.000000
# 3 -0.003613 -0.003613 0.010237 0.000000 0.000000 0.000000
# 4 0.000000 0.000000 0.000000 0.001431 0.000000 0.000000
# 5 0.000000 0.000000 0.000000 0.000000 0.001445 0.000000
# 6 0.000000 0.000000 0.000000 0.000000 0.000000 0.028652
#
#
# Mechanical properties :
#
#
# Convention : Reuss Voigt Hill
#
# Bulk Modulus (GPa) = 51.63659 54.87338 53.25499
# Shear Modulus (GPa) = 50.01661 297.40719 173.71190
#
# Velocity S-wave (km/s) = 5.07389 12.37256 9.45581
# Velocity P-wave (km/s) = 7.80410 15.24307 12.10899
#
# Compressibility (1/GPa) = 0.01936611
#
# Stress axis : x y z
#
# Youngs Moduli (GPa) = 65.70790 65.70776 97.68142
#
# Poissons Ratio (x) = 0.22530 0.35291
# Poissons Ratio (y) = 0.22530 0.35291
# Poissons Ratio (z) = 0.23739 0.23739
#
# Static dielectric constant tensor:
#      x y z
#    x 3.568860 0.000000 0.000000 
#    y 0.000000 3.568860 0.000000 
#    z 0.000000 0.000000 3.783370 
# 
# 
# High freq. dielectric constant tensor:
#      x y z
#    x 1.764770 0.000000 0.000000 
#    y 0.000000 1.764770 0.000000 
#    z 0.000000 0.000000 1.771350 
# 
# From -- ./inp_files/7558.got.cif
#   From: 2010.03.12/outbox.cif.g09.slc.cpg/sg136_4_cif.got.tgz:7558.got - 2010.04.06 18:39:43.
