data_PCOD8318972
_publ_section_title
;
Structure prediction by ZEFSAII (Michael W. Deem and Ramdas Pophale) SiO2 
 PCOD8318972
Probable space group: P 42/N C M
;
_chemical_formula_sum "Si O2"
_cell_formula_units_Z 96
_cell_length_a 21.773989
_cell_length_b 21.773989
_cell_length_c 10.118652
_cell_angle_alpha 90.000000
_cell_angle_beta 90.000000
_cell_angle_gamma 90.000000
_cell_volume 4797.319666
_symmetry_space_group_name_H-M "P 42/N C M"
_symmetry_group_IT_number 138
_space_group.IT_coordinate_system_code '2'
_symmetry_cell_setting 'tetragonal'
loop_
_space_group_symop_operation_xyz
x,y,z
1/2-y,x,1/2+z
1/2-x,1/2-y,z
y,1/2-x,1/2+z
1/2+x,-y,1/2-z
-x,1/2+y,1/2-z
1/2+y,1/2+x,-z
-y,-x,-z
-x,-y,-z
1/2+y,-x,1/2-z
1/2+x,1/2+y,-z
-y,1/2+x,1/2-z
1/2-x,y,1/2+z
x,1/2-y,1/2+z
1/2-y,1/2-x,z
y,x,z
loop_
_atom_site_type_symbol
_atom_site_label
_atom_site_fract_x
_atom_site_fract_y
_atom_site_fract_z
Si Si1 0.486413 0.486413 0.852775
Si Si2 0.116846 0.930324 0.860464
Si Si3 0.924752 0.758302 0.886746
Si Si4 0.856636 0.856636 0.729192
Si Si5 0.051781 0.051781 0.367677
Si Si6 0.063916 0.872455 0.609157
Si Si7 0.260572 0.505763 0.859504
Si Si8 0.802316 0.697685 0.981248
O O1 0.415534 0.503833 0.823664
O O2 0.532844 0.532844 0.779739
O O3 0.500000 0.500000 0.000000
O O4 0.095255 0.881985 0.750964
O O5 0.189547 0.939958 0.863300
O O6 0.095419 0.904582 0.000000
O O7 0.903123 0.821541 0.823283
O O8 0.973182 0.730376 0.782640
O O9 0.865145 0.716354 0.909224
O O10 0.955981 0.772652 0.026474
O O11 0.896288 0.896288 0.627026
O O12 0.813145 0.813145 0.638716
O O13 0.990902 0.080532 0.434154
O O14 0.117301 0.882700 0.500000
O O15 0.037172 0.804334 0.612774
O O16 0.750000 0.750000 0.964988
#
# Coordination Sequence:
#
# PCOD8318972 Si02
#       8
#     8  16  16   8   8  16  16   8
#     4   8  18  32  55  87 113 150 193 258 327 365
#     4  10  22  39  63  92 127 164 209 270 329 392
#     4  12  25  41  64  92 128 177 223 268 313 374
#     4  12  24  40  59  92 131 173 217 274 314 369
#     4  10  19  38  61  86 124 160 210 259 328 378
#     4  11  22  40  64  94 129 168 209 268 336 392
#     4  12  25  42  67  98 128 168 222 273 331 396
#     4  12  26  42  59  87 134 180 225 260 306 360
#
# _framework density 20.011175999999999
#
# number of rings (size 3 to 8) (size 9 to 14) (size 15 to 20)
#    0.000    1.000    4.167    2.250    5.833    1.333 
#    0.000    1.667    0.000    3.000    0.000    0.000 
#    0.000    0.000    0.000    0.000    0.000    0.000 
#
# Total GULP energy -1189895.814686 kJ/mol
# GULP energy per Si atom -12394.748070 kJ/mol
# Density = 1.996563 g / cm^3
# Si number density = 20.011176 Si / 1000 Ang^3
#
#
#
# Elastic Constant Matrix: (Units=GPa)
#
#
# Indices 1 2 3 4 5 6 
#
# 1 102.3122 50.1958 25.5658 0.0000 0.0000 0.0000
# 2 50.1958 102.3133 25.5649 0.0000 0.0000 0.0000
# 3 25.5658 25.5649 91.0698 0.0000 0.0000 0.0000
# 4 0.0000 0.0000 0.0000 35.7299 0.0000 0.0000
# 5 0.0000 0.0000 0.0000 0.0000 35.7281 0.0000
# 6 0.0000 0.0000 0.0000 0.0000 0.0000 36.4311
#
#
#
# Elastic Compliance Matrix: (Units=1/GPa)
#
#
# Indices 1 2 3 4 5 6 
#
# 1 0.013213 -0.005975 -0.002032 0.000000 0.000000 0.000000
# 2 -0.005975 0.013213 -0.002032 0.000000 0.000000 0.000000
# 3 -0.002032 -0.002032 0.012121 0.000000 0.000000 0.000000
# 4 0.000000 0.000000 0.000000 0.027988 0.000000 0.000000
# 5 0.000000 0.000000 0.000000 0.000000 0.027989 0.000000
# 6 0.000000 0.000000 0.000000 0.000000 0.000000 0.027449
#
#
# Mechanical properties :
#
#
# Convention : Reuss Voigt Hill
#
# Bulk Modulus (GPa) = 54.14142 55.37203 54.75672
# Shear Modulus (GPa) = 33.73657 34.53574 34.13616
#
# Velocity S-wave (km/s) = 4.11041 4.15881 4.13468
# Velocity P-wave (km/s) = 7.04568 7.12682 7.08637
#
# Compressibility (1/GPa) = 0.01847015
#
# Stress axis : x y z
#
# Youngs Moduli (GPa) = 75.68276 75.68409 82.49871
#
# Poissons Ratio (x) = 0.45219 0.16764
# Poissons Ratio (y) = 0.45218 0.16762
# Poissons Ratio (z) = 0.15379 0.15378
#
# Static dielectric constant tensor:
#      x y z
#    x 2.924900 0.000000 0.000000 
#    y 0.000000 2.928560 0.000000 
#    z 0.000000 0.000000 3.734710 
# 
# 
# High freq. dielectric constant tensor:
#      x y z
#    x 1.771220 0.000000 0.000000 
#    y 0.000000 1.771220 0.000000 
#    z 0.000000 0.000000 1.794070 
# 
# From -- ./inp_files/3180.got.cif
#   From: 2010.03.12/outbox.cif.g09.slc.cpg/sg138_2_cif.got.tgz:3180.got - 2010.04.08 09:41:05.
