data_PCOD8318402
_publ_section_title
;
Structure prediction by ZEFSAII (Michael W. Deem and Ramdas Pophale) SiO2 
 PCOD8318402
Probable space group: P 42/N M C
;
_chemical_formula_sum "Si O2"
_cell_formula_units_Z 112
_cell_length_a 22.344293
_cell_length_b 22.344293
_cell_length_c 13.909097
_cell_angle_alpha 90.000000
_cell_angle_beta 90.000000
_cell_angle_gamma 90.000000
_cell_volume 6944.359108
_symmetry_space_group_name_H-M "P 42/N M C"
_symmetry_group_IT_number 137
_space_group.IT_coordinate_system_code '2'
_symmetry_cell_setting 'tetragonal'
loop_
_space_group_symop_operation_xyz
x,y,z
1/2-y,x,1/2+z
1/2-x,1/2-y,z
y,1/2-x,1/2+z
1/2+x,-y,-z
-x,1/2+y,-z
1/2+y,1/2+x,1/2-z
-y,-x,1/2-z
-x,-y,-z
1/2+y,-x,1/2-z
1/2+x,1/2+y,-z
-y,1/2+x,1/2-z
1/2-x,y,z
x,1/2-y,z
1/2-y,1/2-x,1/2+z
y,x,1/2+z
loop_
_atom_site_type_symbol
_atom_site_label
_atom_site_fract_x
_atom_site_fract_y
_atom_site_fract_z
Si Si1 0.883553 0.683303 0.181234
Si Si2 0.316659 0.182372 0.005462
Si Si3 0.901384 0.881786 0.361852
Si Si4 0.982340 0.317765 0.860239
Si Si5 0.975015 0.319248 0.639306
Si Si6 0.933227 0.429275 0.955295
Si Si7 0.996506 0.033003 0.142287
O O1 0.887101 0.750000 0.227162
O O2 0.869363 0.634132 0.261709
O O3 0.947058 0.669137 0.131432
O O4 0.828969 0.679619 0.107772
O O5 0.250000 0.157187 0.025349
O O6 0.321408 0.250000 0.043471
O O7 0.369054 0.144633 0.053672
O O8 0.917881 0.951288 0.363408
O O9 0.956374 0.836729 0.376578
O O10 0.967566 0.250000 0.891037
O O11 0.958978 0.329580 0.751450
O O12 0.948952 0.360371 0.935817
O O13 0.964240 0.250000 0.609459
O O14 0.936471 0.363098 0.570951
O O15 0.975668 0.468856 0.885636
O O16 0.944733 0.447772 0.066655
O O17 0.969743 0.030258 0.250000
#
# Coordination Sequence:
#
# PCOD8318402 Si02
#       7
#    16  16  16  16  16  16  16
#     4   9  17  28  42  60  84 116 153 192 228 267
#     4  10  20  31  43  62  89 123 163 199 231 275
#     4  10  18  30  47  63  88 119 155 196 236 277
#     4   9  16  28  47  70  93 118 152 188 225 276
#     4   9  17  28  46  70  93 120 154 189 225 277
#     4  10  18  30  49  69  94 124 149 186 237 285
#     4  10  20  31  47  72  95 117 152 197 245 292
#
# _framework density 16.128198999999999
#
# number of rings (size 3 to 8) (size 9 to 14) (size 15 to 20)
#    0.000    2.429    0.000    6.000    0.000    2.857 
#    0.000    1.429    0.000    2.143    0.000    2.000 
#    0.000    0.000    0.000    1.286    0.000    0.143 
#
# Total GULP energy -1388482.329723 kJ/mol
# GULP energy per Si atom -12397.163658 kJ/mol
# Density = 1.609149 g / cm^3
# Si number density = 16.128199 Si / 1000 Ang^3
#
#
#
# Elastic Constant Matrix: (Units=GPa)
#
#
# Indices 1 2 3 4 5 6 
#
# 1 65.6453 25.1256 33.7519 0.0000 0.0000 0.0000
# 2 25.1256 65.6453 33.7518 0.0000 0.0000 0.0000
# 3 33.7519 33.7518 79.0307 0.0000 0.0000 0.0000
# 4 0.0000 0.0000 0.0000 24.5694 0.0000 0.0000
# 5 0.0000 0.0000 0.0000 0.0000 24.5695 0.0000
# 6 0.0000 0.0000 0.0000 0.0000 0.0000 17.6437
#
#
#
# Elastic Compliance Matrix: (Units=1/GPa)
#
#
# Indices 1 2 3 4 5 6 
#
# 1 0.020412 -0.004268 -0.006895 0.000000 0.000000 0.000000
# 2 -0.004268 0.020412 -0.006895 0.000000 0.000000 0.000000
# 3 -0.006895 -0.006895 0.018542 0.000000 0.000000 0.000000
# 4 0.000000 0.000000 0.000000 0.040701 0.000000 0.000000
# 5 0.000000 0.000000 0.000000 0.000000 0.040701 0.000000
# 6 0.000000 0.000000 0.000000 0.000000 0.000000 0.056677
#
#
# Mechanical properties :
#
#
# Convention : Reuss Voigt Hill
#
# Bulk Modulus (GPa) = 43.00741 43.95333 43.48037
# Shear Modulus (GPa) = 20.72023 21.20264 20.96143
#
# Velocity S-wave (km/s) = 3.58819 3.62972 3.60901
# Velocity P-wave (km/s) = 6.62500 6.69911 6.66216
#
# Compressibility (1/GPa) = 0.02325181
#
# Stress axis : x y z
#
# Youngs Moduli (GPa) = 48.99135 48.99140 53.93039
#
# Poissons Ratio (x) = 0.20908 0.37184
# Poissons Ratio (y) = 0.20908 0.37183
# Poissons Ratio (z) = 0.33778 0.33778
#
# Static dielectric constant tensor:
#      x y z
#    x 2.958620 0.000000 0.000000 
#    y 0.000000 2.958620 0.000000 
#    z 0.000000 0.000000 2.948130 
# 
# 
# High freq. dielectric constant tensor:
#      x y z
#    x 1.602980 0.000000 0.000000 
#    y 0.000000 1.602980 0.000000 
#    z 0.000000 0.000000 1.609210 
# 
# From -- ./inp_files/3948.got.cif
#   From: 2010.03.12/outbox.cif.g09.slc.cpg/sg137_2_cif.got.tgz:3948.got - 2010.04.08 09:34:49.
