data_PCOD8318766
_publ_section_title
;
Structure prediction by ZEFSAII (Michael W. Deem and Ramdas Pophale) SiO2 
 PCOD8318766
Probable space group: P 42/N M C
;
_chemical_formula_sum "Si O2"
_cell_formula_units_Z 48
_cell_length_a 13.757146
_cell_length_b 13.757146
_cell_length_c 10.531176
_cell_angle_alpha 90.000000
_cell_angle_beta 90.000000
_cell_angle_gamma 90.000000
_cell_volume 1993.120534
_symmetry_space_group_name_H-M "P 42/N M C"
_symmetry_group_IT_number 137
_space_group.IT_coordinate_system_code '2'
_symmetry_cell_setting 'tetragonal'
loop_
_space_group_symop_operation_xyz
x,y,z
1/2-y,x,1/2+z
1/2-x,1/2-y,z
y,1/2-x,1/2+z
1/2+x,-y,-z
-x,1/2+y,-z
1/2+y,1/2+x,1/2-z
-y,-x,1/2-z
-x,-y,-z
1/2+y,-x,1/2-z
1/2+x,1/2+y,-z
-y,1/2+x,1/2-z
1/2-x,y,z
x,1/2-y,z
1/2-y,1/2-x,1/2+z
y,x,1/2+z
loop_
_atom_site_type_symbol
_atom_site_label
_atom_site_fract_x
_atom_site_fract_y
_atom_site_fract_z
Si Si1 0.864359 0.144225 0.607752
Si Si2 0.520031 0.861143 0.735855
Si Si3 0.863323 0.944673 0.508992
O O1 0.890454 0.109546 0.750000
O O2 0.750000 0.156619 0.596582
O O3 0.911985 0.250000 0.573723
O O4 0.902620 0.057386 0.518210
O O5 0.485027 0.750000 0.738662
O O6 0.580984 0.877309 0.608167
O O7 0.423645 0.923645 0.750000
O O8 0.586897 0.881798 0.862556
O O9 0.750000 0.939985 0.545649
#
# Coordination Sequence:
#
# PCOD8318766 Si02
#       3
#    16  16  16
#     4   8  14  27  52  87 122 155 195 246 306 375
#     4  11  25  44  66  95 133 175 220 270 326 390
#     4  10  22  41  66  96 129 167 214 268 327 392
#
# _framework density 24.082837000000001
#
# number of rings (size 3 to 8) (size 9 to 14) (size 15 to 20)
#    0.000    2.333    0.000    3.000    0.000    3.667 
#    0.000   10.000    0.000    0.000    0.000    0.000 
#    0.000    0.000    0.000    0.000    0.000    0.000 
#
# Total GULP energy -594887.036785 kJ/mol
# GULP energy per Si atom -12393.479933 kJ/mol
# Density = 2.402802 g / cm^3
# Si number density = 24.082837 Si / 1000 Ang^3
#
#
#
# Elastic Constant Matrix: (Units=GPa)
#
#
# Indices 1 2 3 4 5 6 
#
# 1 74.7465 33.3702 57.7804 0.0000 0.0000 0.0000
# 2 33.3702 74.7466 57.7802 0.0000 0.0000 0.0000
# 3 57.7804 57.7802 159.3993 0.0000 0.0000 0.0000
# 4 0.0000 0.0000 0.0000 -13.6023 0.0000 0.0000
# 5 0.0000 0.0000 0.0000 0.0000 -13.7077 0.0000
# 6 0.0000 0.0000 0.0000 0.0000 0.0000 16.5607
#
#
#
# Elastic Compliance Matrix: (Units=1/GPa)
#
#
# Indices 1 2 3 4 5 6 
#
# 1 0.019634 -0.004534 -0.005473 0.000000 0.000000 0.000000
# 2 -0.004534 0.019634 -0.005473 0.000000 0.000000 0.000000
# 3 -0.005473 -0.005473 0.010242 0.000000 0.000000 0.000000
# 4 0.000000 0.000000 0.000000 -0.073517 0.000000 0.000000
# 5 0.000000 0.000000 0.000000 0.000000 -0.072952 0.000000
# 6 0.000000 0.000000 0.000000 0.000000 0.000000 0.060384
#
#
# Mechanical properties :
#
#
# Convention : Reuss Voigt Hill
#
# Bulk Modulus (GPa) = 53.91687 67.41710 60.66698
# Shear Modulus (GPa) = 8782.30152 8.51425 4395.40788
#
# Velocity S-wave (km/s) = 60.45347 1.88231 42.76778
# Velocity P-wave (km/s) = 69.96618 5.72527 49.63892
#
# Compressibility (1/GPa) = 0.01854707
#
# Stress axis : x y z
#
# Youngs Moduli (GPa) = 50.93208 50.93228 97.64085
#
# Poissons Ratio (x) = 0.23095 0.53443
# Poissons Ratio (y) = 0.23095 0.53442
# Poissons Ratio (z) = 0.27877 0.27877
#
# Static dielectric constant tensor:
#      x y z
#    x 7.259140 0.000000 0.000000 
#    y 0.000000 7.249920 0.000000 
#    z 0.000000 0.000000 4.777560 
# 
# 
# High freq. dielectric constant tensor:
#      x y z
#    x 1.940150 0.000000 0.000000 
#    y 0.000000 1.940150 0.000000 
#    z 0.000000 0.000000 1.971010 
# 
# From -- ./inp_files/2898.got.cif
#   From: 2010.03.12/outbox.cif.g09.slc.cpg/sg137_2_cif.got.tgz:2898.got - 2010.04.08 09:34:49.
