data_PCOD8318163
_publ_section_title
;
Structure prediction by ZEFSAII (Michael W. Deem and Ramdas Pophale) SiO2 
 PCOD8318163
Probable space group: P 42/M N M
;
_chemical_formula_sum "Si O2"
_cell_formula_units_Z 80
_cell_length_a 12.207647
_cell_length_b 12.207647
_cell_length_c 28.142658
_cell_angle_alpha 90.000000
_cell_angle_beta 90.000000
_cell_angle_gamma 90.000000
_cell_volume 4194.005911
_symmetry_space_group_name_H-M "P 42/M N M"
_symmetry_group_IT_number 136
_symmetry_cell_setting 'tetragonal'
loop_
_space_group_symop_operation_xyz
x,y,z
1/2-y,1/2+x,1/2+z
-x,-y,z
1/2+y,1/2-x,1/2+z
1/2+x,1/2-y,1/2-z
1/2-x,1/2+y,1/2-z
y,x,-z
-y,-x,-z
-x,-y,-z
1/2+y,1/2-x,1/2-z
x,y,-z
1/2-y,1/2+x,1/2-z
1/2-x,1/2+y,1/2+z
1/2+x,1/2-y,1/2+z
-y,-x,z
y,x,z
loop_
_atom_site_type_symbol
_atom_site_label
_atom_site_fract_x
_atom_site_fract_y
_atom_site_fract_z
Si Si1 0.322806 0.496219 0.411308
Si Si2 0.895367 0.423858 0.448884
Si Si3 0.226037 0.045467 0.809579
Si Si4 0.498175 0.320959 0.792251
Si Si5 0.442893 0.118896 0.152180
O O1 0.389925 0.610076 0.414472
O O2 0.395957 0.395957 0.430337
O O3 0.214737 0.503546 0.443434
O O4 0.287766 0.471000 0.356671
O O5 0.887095 0.360082 0.500000
O O6 0.907933 0.348050 0.402040
O O7 0.000000 0.500000 0.451448
O O8 0.123808 0.123808 0.806180
O O9 0.337464 0.114522 0.813834
O O10 0.224929 0.975566 0.761041
O O11 0.609540 0.390461 0.795115
O O12 0.394529 0.394529 0.807884
O O13 0.515975 0.217818 0.827603
O O14 0.500000 0.000000 0.153267
#
# Coordination Sequence:
#
# PCOD8318163 Si02
#       5
#    16  16  16  16  16
#     4   9  17  31  53  82 111 133 163 213 270 326
#     4   9  19  37  55  73 103 142 180 217 265 320
#     4   9  18  32  51  76 107 143 174 207 259 318
#     4  10  21  36  54  76 106 146 183 214 255 310
#     4  10  21  35  53  79 107 137 178 224 264 308
#
# _framework density 19.074840999999999
#
# number of rings (size 3 to 8) (size 9 to 14) (size 15 to 20)
#    0.000    2.600    0.000    1.200    2.800    4.000 
#    0.000   10.000    0.000    1.800    0.000    1.400 
#    0.000    0.000    0.000    0.000    0.000    0.000 
#
# Total GULP energy -991223.178940 kJ/mol
# GULP energy per Si atom -12390.289737 kJ/mol
# Density = 1.903143 g / cm^3
# Si number density = 19.074841 Si / 1000 Ang^3
#
#
#
# Elastic Constant Matrix: (Units=GPa)
#
#
# Indices 1 2 3 4 5 6 
#
# 1 80.2634 14.4053 44.7354 0.0000 0.0000 0.0000
# 2 14.4053 80.2634 44.7354 0.0000 0.0000 0.0000
# 3 44.7354 44.7354 131.5047 0.0000 0.0000 0.0000
# 4 0.0000 0.0000 0.0000 24.3163 0.0000 0.0000
# 5 0.0000 0.0000 0.0000 0.0000 24.3163 0.0000
# 6 0.0000 0.0000 0.0000 0.0000 0.0000 16.4825
#
#
#
# Elastic Compliance Matrix: (Units=1/GPa)
#
#
# Indices 1 2 3 4 5 6 
#
# 1 0.015376 0.000192 -0.005296 0.000000 0.000000 0.000000
# 2 0.000192 0.015376 -0.005296 0.000000 0.000000 0.000000
# 3 -0.005296 -0.005296 0.011208 0.000000 0.000000 0.000000
# 4 0.000000 0.000000 0.000000 0.041125 0.000000 0.000000
# 5 0.000000 0.000000 0.000000 0.000000 0.041125 0.000000
# 6 0.000000 0.000000 0.000000 0.000000 0.000000 0.060670
#
#
# Mechanical properties :
#
#
# Convention : Reuss Voigt Hill
#
# Bulk Modulus (GPa) = 47.25879 55.53153 51.39516
# Shear Modulus (GPa) = 23.50359 25.56670 24.53514
#
# Velocity S-wave (km/s) = 3.51405 3.66503 3.59033
# Velocity P-wave (km/s) = 6.42604 6.86189 6.64754
#
# Compressibility (1/GPa) = 0.02116008
#
# Stress axis : x y z
#
# Youngs Moduli (GPa) = 65.03512 65.03512 89.22557
#
# Poissons Ratio (x) = -0.01250 0.47255
# Poissons Ratio (y) = -0.01250 0.47255
# Poissons Ratio (z) = 0.34443 0.34443
#
# Static dielectric constant tensor:
#      x y z
#    x 3.324320 0.000000 0.000000 
#    y 0.000000 3.324320 0.000000 
#    z 0.000000 0.000000 4.075700 
# 
# 
# High freq. dielectric constant tensor:
#      x y z
#    x 1.722350 0.000000 0.000000 
#    y 0.000000 1.722350 0.000000 
#    z 0.000000 0.000000 1.749170 
# 
# From -- ./inp_files/9519.got.cif
#   From: 2010.03.12/outbox.cif.g09.slc.cpg/sg136_5_cif.got.tgz:9519.got - 2010.04.06 18:39:43.
