data_PCOD8318023
_publ_section_title
;
Structure prediction by ZEFSAII (Michael W. Deem and Ramdas Pophale) SiO2 
 PCOD8318023
Probable space group: P 42/M N M
;
_chemical_formula_sum "Si O2"
_cell_formula_units_Z 96
_cell_length_a 16.569512
_cell_length_b 16.569512
_cell_length_c 18.583633
_cell_angle_alpha 90.000000
_cell_angle_beta 90.000000
_cell_angle_gamma 90.000000
_cell_volume 5102.112800
_symmetry_space_group_name_H-M "P 42/M N M"
_symmetry_group_IT_number 136
_symmetry_cell_setting 'tetragonal'
loop_
_space_group_symop_operation_xyz
x,y,z
1/2-y,1/2+x,1/2+z
-x,-y,z
1/2+y,1/2-x,1/2+z
1/2+x,1/2-y,1/2-z
1/2-x,1/2+y,1/2-z
y,x,-z
-y,-x,-z
-x,-y,-z
1/2+y,1/2-x,1/2-z
x,y,-z
1/2-y,1/2+x,1/2-z
1/2-x,1/2+y,1/2+z
1/2+x,1/2-y,1/2+z
-y,-x,z
y,x,z
loop_
_atom_site_type_symbol
_atom_site_label
_atom_site_fract_x
_atom_site_fract_y
_atom_site_fract_z
Si Si1 0.857166 0.427305 0.676473
Si Si2 0.071060 0.596653 0.085689
Si Si3 0.501945 0.368930 0.201963
Si Si4 0.494735 0.186637 0.827086
Si Si5 0.820109 0.948459 0.860382
Si Si6 0.106945 0.771560 0.081695
O O1 0.915319 0.486547 0.628394
O O2 0.901681 0.341006 0.679155
O O3 0.844846 0.459954 0.756536
O O4 0.769888 0.411914 0.641653
O O5 0.142046 0.534598 0.104494
O O6 0.099980 0.683750 0.116599
O O7 0.054103 0.594373 0.000000
O O8 0.577098 0.422903 0.172758
O O9 0.418639 0.418639 0.192116
O O10 0.497967 0.283311 0.160259
O O11 0.515981 0.349443 0.284932
O O12 0.879537 0.879537 0.889449
O O13 0.820694 0.023182 0.914892
O O14 0.177560 0.822441 0.121421
O O15 0.131679 0.759913 0.000000
#
# Coordination Sequence:
#
# PCOD8318023 Si02
#       6
#    16  16  16  16  16  16
#     4  10  20  33  51  77 107 137 172 217 262 306
#     4  10  21  35  53  78 108 141 173 212 261 311
#     4   9  19  35  53  75 103 135 174 219 264 309
#     4  11  20  33  55  78 104 138 174 216 263 310
#     4   9  18  32  48  71 104 137 172 215 261 310
#     4   9  18  32  49  72 103 138 177 217 257 305
#
# _framework density 18.815733999999999
#
# number of rings (size 3 to 8) (size 9 to 14) (size 15 to 20)
#    0.000    2.333    1.667    1.000    0.000    4.000 
#    0.000    0.833    0.000    0.500    0.000    3.500 
#    0.000    0.000    0.000    0.000    0.000    0.000 
#
# Total GULP energy -1189762.265046 kJ/mol
# GULP energy per Si atom -12393.356928 kJ/mol
# Density = 1.877291 g / cm^3
# Si number density = 18.815734 Si / 1000 Ang^3
#
#
#
# Elastic Constant Matrix: (Units=GPa)
#
#
# Indices 1 2 3 4 5 6 
#
# 1 105.3164 65.2470 8.7848 0.0000 0.0000 0.0000
# 2 65.2470 105.3164 8.7848 0.0000 0.0000 0.0000
# 3 8.7848 8.7848 39.6856 0.0000 0.0000 0.0000
# 4 0.0000 0.0000 0.0000 19.9508 0.0000 0.0000
# 5 0.0000 0.0000 0.0000 0.0000 19.9508 0.0000
# 6 0.0000 0.0000 0.0000 0.0000 0.0000 21.9405
#
#
#
# Elastic Compliance Matrix: (Units=1/GPa)
#
#
# Indices 1 2 3 4 5 6 
#
# 1 0.015478 -0.009478 -0.001328 0.000000 0.000000 0.000000
# 2 -0.009478 0.015478 -0.001328 0.000000 0.000000 0.000000
# 3 -0.001328 -0.001328 0.025786 0.000000 0.000000 0.000000
# 4 0.000000 0.000000 0.000000 0.050123 0.000000 0.000000
# 5 0.000000 0.000000 0.000000 0.000000 0.050123 0.000000
# 6 0.000000 0.000000 0.000000 0.000000 0.000000 0.045578
#
#
# Mechanical properties :
#
#
# Convention : Reuss Voigt Hill
#
# Bulk Modulus (GPa) = 30.79474 46.21683 38.50579
# Shear Modulus (GPa) = 21.03841 23.53521 22.28681
#
# Velocity S-wave (km/s) = 3.34747 3.54054 3.44536
# Velocity P-wave (km/s) = 5.59846 6.42885 6.02797
#
# Compressibility (1/GPa) = 0.03247307
#
# Stress axis : x y z
#
# Youngs Moduli (GPa) = 64.60688 64.60688 38.78074
#
# Poissons Ratio (x) = 0.61238 0.05150
# Poissons Ratio (y) = 0.61238 0.05150
# Poissons Ratio (z) = 0.08580 0.08580
#
# Static dielectric constant tensor:
#      x y z
#    x 3.750160 0.000000 0.000000 
#    y 0.000000 3.750160 0.000000 
#    z 0.000000 0.000000 3.109400 
# 
# 
# High freq. dielectric constant tensor:
#      x y z
#    x 1.733930 0.000000 0.000000 
#    y 0.000000 1.733930 0.000000 
#    z 0.000000 0.000000 1.695650 
# 
# From -- ./inp_files/6329.got.cif
#   From: 2010.03.12/outbox.cif.g09.slc.cpg/sg136_4_cif.got.tgz:6329.got - 2010.04.06 18:39:43.
