data_PCOD8318919
_publ_section_title
;
Structure prediction by ZEFSAII (Michael W. Deem and Ramdas Pophale) SiO2 
 PCOD8318919
Probable space group: P 42/N C M
;
_chemical_formula_sum "Si O2"
_cell_formula_units_Z 96
_cell_length_a 14.413333
_cell_length_b 14.413333
_cell_length_c 25.213828
_cell_angle_alpha 90.000000
_cell_angle_beta 90.000000
_cell_angle_gamma 90.000000
_cell_volume 5238.025724
_symmetry_space_group_name_H-M "P 42/N C M"
_symmetry_group_IT_number 138
_space_group.IT_coordinate_system_code '2'
_symmetry_cell_setting 'tetragonal'
loop_
_space_group_symop_operation_xyz
x,y,z
1/2-y,x,1/2+z
1/2-x,1/2-y,z
y,1/2-x,1/2+z
1/2+x,-y,1/2-z
-x,1/2+y,1/2-z
1/2+y,1/2+x,-z
-y,-x,-z
-x,-y,-z
1/2+y,-x,1/2-z
1/2+x,1/2+y,-z
-y,1/2+x,1/2-z
1/2-x,y,1/2+z
x,1/2-y,1/2+z
1/2-y,1/2-x,z
y,x,z
loop_
_atom_site_type_symbol
_atom_site_label
_atom_site_fract_x
_atom_site_fract_y
_atom_site_fract_z
Si Si1 0.322867 0.177134 0.645633
Si Si2 0.675185 0.675185 0.729514
Si Si3 0.128454 0.981197 0.877791
Si Si4 0.003680 0.350140 0.491982
Si Si5 0.465522 0.772003 0.212253
Si Si6 0.711226 0.355797 0.314532
Si Si7 0.477569 0.700419 0.897639
O O1 0.250000 0.250000 0.622514
O O2 0.322745 0.177255 0.708308
O O3 0.422311 0.213432 0.627533
O O4 0.750000 0.750000 0.706683
O O5 0.699472 0.572320 0.709684
O O6 0.185390 0.949947 0.826740
O O7 0.049119 0.905910 0.887803
O O8 0.190665 0.991071 0.932023
O O9 0.078846 0.078846 0.865812
O O10 0.107336 0.392665 0.498303
O O11 0.931776 0.431776 0.500000
O O12 0.985176 0.275863 0.539111
O O13 0.400498 0.854408 0.189877
O O14 0.427396 0.750165 0.270868
O O15 0.750000 0.250000 0.307067
O O16 0.734602 0.398487 0.371910
#
# Coordination Sequence:
#
# PCOD8318919 Si02
#       7
#     8   8  16  16  16  16  16
#     4  11  22  36  55  87 119 152 199 244 290 345
#     4  11  26  44  58  87 118 148 198 252 283 349
#     4  10  19  32  60  89 109 153 203 246 300 349
#     4   8  15  29  54  86 111 143 201 250 290 342
#     4  12  22  40  58  80 122 153 189 238 297 349
#     4  12  22  36  57  88 118 153 196 237 283 369
#     4  11  18  35  59  80 120 153 189 252 297 331
#
# _framework density 18.327514999999998
#
# number of rings (size 3 to 8) (size 9 to 14) (size 15 to 20)
#    0.000    1.333    6.667    1.500    0.000    0.000 
#    3.000    0.833    1.833    0.000    0.000    1.167 
#    0.000    0.000    0.000    0.000    0.000    0.000 
#
# Total GULP energy -1189478.409597 kJ/mol
# GULP energy per Si atom -12390.400100 kJ/mol
# Density = 1.828580 g / cm^3
# Si number density = 18.327515 Si / 1000 Ang^3
#
#
#
# Elastic Constant Matrix: (Units=GPa)
#
#
# Indices 1 2 3 4 5 6 
#
# 1 91.4263 27.1443 27.3662 0.0000 0.0000 0.0000
# 2 27.1443 91.4263 27.3662 0.0000 0.0000 0.0000
# 3 27.3662 27.3662 100.3916 0.0000 0.0000 0.0000
# 4 0.0000 0.0000 0.0000 19.3675 0.0000 0.0000
# 5 0.0000 0.0000 0.0000 0.0000 19.3675 0.0000
# 6 0.0000 0.0000 0.0000 0.0000 0.0000 26.0247
#
#
#
# Elastic Compliance Matrix: (Units=1/GPa)
#
#
# Indices 1 2 3 4 5 6 
#
# 1 0.012602 -0.002954 -0.002630 0.000000 0.000000 0.000000
# 2 -0.002954 0.012602 -0.002630 0.000000 0.000000 0.000000
# 3 -0.002630 -0.002630 0.011395 0.000000 0.000000 0.000000
# 4 0.000000 0.000000 0.000000 0.051633 0.000000 0.000000
# 5 0.000000 0.000000 0.000000 0.000000 0.051633 0.000000
# 6 0.000000 0.000000 0.000000 0.000000 0.000000 0.038425
#
#
# Mechanical properties :
#
#
# Convention : Reuss Voigt Hill
#
# Bulk Modulus (GPa) = 49.57703 49.66640 49.62171
# Shear Modulus (GPa) = 24.82104 26.37643 25.59873
#
# Velocity S-wave (km/s) = 3.68408 3.79776 3.74135
# Velocity P-wave (km/s) = 6.72353 6.81093 6.76737
#
# Compressibility (1/GPa) = 0.02017063
#
# Stress axis : x y z
#
# Youngs Moduli (GPa) = 79.35177 79.35177 87.75932
#
# Poissons Ratio (x) = 0.23443 0.23080
# Poissons Ratio (y) = 0.23443 0.23080
# Poissons Ratio (z) = 0.20869 0.20869
#
# Static dielectric constant tensor:
#      x y z
#    x 3.281690 0.000000 0.000000 
#    y 0.000000 3.281690 0.000000 
#    z 0.000000 0.000000 3.779360 
# 
# 
# High freq. dielectric constant tensor:
#      x y z
#    x 1.685850 0.000000 0.000000 
#    y 0.000000 1.685850 0.000000 
#    z 0.000000 0.000000 1.721530 
# 
# From -- ./inp_files/7007.got.cif
#   From: 2010.03.12/outbox.cif.g09.slc.cpg/sg138_4_cif.got.tgz:7007.got - 2010.04.08 09:41:05.
