data_PCOD8318607
_publ_section_title
;
Structure prediction by ZEFSAII (Michael W. Deem and Ramdas Pophale) SiO2 
 PCOD8318607
Probable space group: P 42/N M C
;
_chemical_formula_sum "Si O2"
_cell_formula_units_Z 96
_cell_length_a 14.113094
_cell_length_b 14.113094
_cell_length_c 27.327895
_cell_angle_alpha 90.000000
_cell_angle_beta 90.000000
_cell_angle_gamma 90.000000
_cell_volume 5443.154337
_symmetry_space_group_name_H-M "P 42/N M C"
_symmetry_group_IT_number 137
_space_group.IT_coordinate_system_code '2'
_symmetry_cell_setting 'tetragonal'
loop_
_space_group_symop_operation_xyz
x,y,z
1/2-y,x,1/2+z
1/2-x,1/2-y,z
y,1/2-x,1/2+z
1/2+x,-y,-z
-x,1/2+y,-z
1/2+y,1/2+x,1/2-z
-y,-x,1/2-z
-x,-y,-z
1/2+y,-x,1/2-z
1/2+x,1/2+y,-z
-y,1/2+x,1/2-z
1/2-x,y,z
x,1/2-y,z
1/2-y,1/2-x,1/2+z
y,x,1/2+z
loop_
_atom_site_type_symbol
_atom_site_label
_atom_site_fract_x
_atom_site_fract_y
_atom_site_fract_z
Si Si1 0.637602 0.750000 0.709935
Si Si2 0.750000 0.139650 0.973955
Si Si3 0.365294 0.250000 0.402320
Si Si4 0.250000 0.859317 0.132436
Si Si5 0.426445 0.556633 0.327308
Si Si6 0.562203 0.857692 0.257914
Si Si7 0.448080 0.450005 0.928218
Si Si8 0.138510 0.553080 0.517214
O O1 0.750000 0.750000 0.710367
O O2 0.603760 0.750000 0.654193
O O3 0.597599 0.660058 0.738951
O O4 0.750000 0.250000 0.964235
O O5 0.750000 0.088114 0.920709
O O6 0.839966 0.110482 0.005140
O O7 0.250000 0.250000 0.409498
O O8 0.416270 0.160329 0.427024
O O9 0.250000 0.750000 0.121482
O O10 0.159291 0.884983 0.163452
O O11 0.356683 0.508004 0.288558
O O12 0.528825 0.573830 0.301963
O O13 0.431810 0.495144 0.375985
O O14 0.573424 0.750000 0.276912
O O15 0.469243 0.561446 0.940308
O O16 0.492045 0.380610 0.968891
O O17 0.250000 0.540435 0.533317
#
# Coordination Sequence:
#
# PCOD8318607 Si02
#       8
#     8   8   8   8  16  16  16  16
#     4   9  18  33  55  76 104 141 182 223 267 310
#     4   9  17  31  55  77 102 142 175 210 266 323
#     4  11  21  35  58  84 109 141 186 233 270 311
#     4  11  20  31  51  80 112 145 169 208 272 329
#     4  11  21  34  52  78 112 139 175 220 266 326
#     4  10  20  35  53  78 106 141 179 218 265 323
#     4  11  22  36  57  82 108 145 185 227 275 322
#     4  10  21  37  56  81 112 143 181 226 272 326
#
# _framework density 17.636832999999999
#
# number of rings (size 3 to 8) (size 9 to 14) (size 15 to 20)
#    0.000    1.667    4.167    1.500    0.000    1.333 
#    1.500    0.000    0.000    0.000    0.000    0.000 
#    0.000    0.000    0.000    0.000    0.000    0.000 
#
# Total GULP energy -1189728.984792 kJ/mol
# GULP energy per Si atom -12393.010258 kJ/mol
# Density = 1.759669 g / cm^3
# Si number density = 17.636833 Si / 1000 Ang^3
#
#
#
# Elastic Constant Matrix: (Units=GPa)
#
#
# Indices 1 2 3 4 5 6 
#
# 1 84.6901 17.8538 18.8734 0.0000 0.0000 0.0000
# 2 17.8538 84.6901 18.8734 0.0000 0.0000 0.0000
# 3 18.8734 18.8734 60.7185 0.0000 0.0000 0.0000
# 4 0.0000 0.0000 0.0000 16.3995 0.0000 0.0000
# 5 0.0000 0.0000 0.0000 0.0000 16.3995 0.0000
# 6 0.0000 0.0000 0.0000 0.0000 0.0000 18.3592
#
#
#
# Elastic Compliance Matrix: (Units=1/GPa)
#
#
# Indices 1 2 3 4 5 6 
#
# 1 0.012987 -0.001975 -0.003423 0.000000 0.000000 0.000000
# 2 -0.001975 0.012987 -0.003423 0.000000 0.000000 0.000000
# 3 -0.003423 -0.003423 0.018597 0.000000 0.000000 0.000000
# 4 0.000000 0.000000 0.000000 0.060978 0.000000 0.000000
# 5 0.000000 0.000000 0.000000 0.000000 0.060978 0.000000
# 6 0.000000 0.000000 0.000000 0.000000 0.000000 0.054469
#
#
# Mechanical properties :
#
#
# Convention : Reuss Voigt Hill
#
# Bulk Modulus (GPa) = 37.13383 37.92221 37.52802
# Shear Modulus (GPa) = 20.19279 21.86483 21.02881
#
# Velocity S-wave (km/s) = 3.38734 3.52479 3.45675
# Velocity P-wave (km/s) = 6.03317 6.17365 6.10382
#
# Compressibility (1/GPa) = 0.02692962
#
# Stress axis : x y z
#
# Youngs Moduli (GPa) = 77.00066 77.00066 53.77117
#
# Poissons Ratio (x) = 0.15208 0.18405
# Poissons Ratio (y) = 0.15208 0.18405
# Poissons Ratio (z) = 0.26356 0.26356
#
# Static dielectric constant tensor:
#      x y z
#    x 3.232130 0.000000 0.000000 
#    y 0.000000 3.232130 0.000000 
#    z 0.000000 0.000000 3.308320 
# 
# 
# High freq. dielectric constant tensor:
#      x y z
#    x 1.677460 0.000000 0.000000 
#    y 0.000000 1.677460 0.000000 
#    z 0.000000 0.000000 1.678940 
# 
# From -- ./inp_files/9739.got.cif
#   From: 2010.03.12/outbox.cif.g09.slc.cpg/sg137_5_cif.got.tgz:9739.got - 2010.04.08 09:34:49.
