data_PCOD8318910
_publ_section_title
;
Structure prediction by ZEFSAII (Michael W. Deem and Ramdas Pophale) SiO2 
 PCOD8318910
Probable space group: P 42/N C M
;
_chemical_formula_sum "Si O2"
_cell_formula_units_Z 80
_cell_length_a 13.684310
_cell_length_b 13.684310
_cell_length_c 25.177009
_cell_angle_alpha 90.000000
_cell_angle_beta 90.000000
_cell_angle_gamma 90.000000
_cell_volume 4714.655270
_symmetry_space_group_name_H-M "P 42/N C M"
_symmetry_group_IT_number 138
_space_group.IT_coordinate_system_code '2'
_symmetry_cell_setting 'tetragonal'
loop_
_space_group_symop_operation_xyz
x,y,z
1/2-y,x,1/2+z
1/2-x,1/2-y,z
y,1/2-x,1/2+z
1/2+x,-y,1/2-z
-x,1/2+y,1/2-z
1/2+y,1/2+x,-z
-y,-x,-z
-x,-y,-z
1/2+y,-x,1/2-z
1/2+x,1/2+y,-z
-y,1/2+x,1/2-z
1/2-x,y,1/2+z
x,1/2-y,1/2+z
1/2-y,1/2-x,z
y,x,z
loop_
_atom_site_type_symbol
_atom_site_label
_atom_site_fract_x
_atom_site_fract_y
_atom_site_fract_z
Si Si1 0.864480 0.218455 0.369228
Si Si2 0.590517 0.751453 0.440278
Si Si3 0.162330 0.001694 0.659858
Si Si4 0.905722 0.251796 0.485275
Si Si5 0.726487 0.406175 0.239846
O O1 0.750000 0.250000 0.367616
O O2 0.919892 0.251342 0.422078
O O3 0.929458 0.270527 0.323039
O O4 0.868355 0.102482 0.363294
O O5 0.644980 0.855021 0.442874
O O6 0.663234 0.663234 0.453386
O O7 0.547904 0.740568 0.380781
O O8 0.508254 0.748338 0.485204
O O9 0.065478 0.065478 0.663622
O O10 0.209228 0.995810 0.719371
O O11 0.851379 0.351379 0.500000
O O12 0.842530 0.157471 0.500000
O O13 0.830855 0.360661 0.252441
#
# Coordination Sequence:
#
# PCOD8318910 Si02
#       5
#    16  16  16  16  16
#     4  11  17  32  54  79 104 141 173 216 279 326
#     4  10  22  39  56  76 109 152 190 228 277 328
#     4  10  19  32  52  79 104 134 184 229 262 319
#     4  11  20  32  56  85 112 137 182 231 276 327
#     4   9  16  29  53  73  99 138 170 209 268 323
#
# _framework density 16.968366
#
# number of rings (size 3 to 8) (size 9 to 14) (size 15 to 20)
#    0.000    1.800    8.000    0.000    0.000    1.600 
#    0.000    5.000    0.000    0.000    0.000    2.800 
#    0.000    0.000    0.000    0.000    0.000    0.000 
#
# Total GULP energy -991476.819074 kJ/mol
# GULP energy per Si atom -12393.460238 kJ/mol
# Density = 1.692975 g / cm^3
# Si number density = 16.968366 Si / 1000 Ang^3
#
#
#
# Elastic Constant Matrix: (Units=GPa)
#
#
# Indices 1 2 3 4 5 6 
#
# 1 81.8064 37.0638 57.7858 0.0000 0.0000 0.0000
# 2 37.0638 81.8062 57.7856 0.0000 0.0000 0.0000
# 3 57.7858 57.7856 181.4650 0.0000 0.0000 0.0000
# 4 0.0000 0.0000 0.0000 25.9946 0.0000 0.0000
# 5 0.0000 0.0000 0.0000 0.0000 25.9947 0.0000
# 6 0.0000 0.0000 0.0000 0.0000 0.0000 48.0738
#
#
#
# Elastic Compliance Matrix: (Units=1/GPa)
#
#
# Indices 1 2 3 4 5 6 
#
# 1 0.017268 -0.005083 -0.003880 0.000000 0.000000 0.000000
# 2 -0.005083 0.017268 -0.003880 0.000000 0.000000 0.000000
# 3 -0.003880 -0.003880 0.007982 0.000000 0.000000 0.000000
# 4 0.000000 0.000000 0.000000 0.038469 0.000000 0.000000
# 5 0.000000 0.000000 0.000000 0.000000 0.038469 0.000000
# 6 0.000000 0.000000 0.000000 0.000000 0.000000 0.020801
#
#
# Mechanical properties :
#
#
# Convention : Reuss Voigt Hill
#
# Bulk Modulus (GPa) = 59.41333 72.26087 65.83710
# Shear Modulus (GPa) = 29.14539 32.84211 30.99375
#
# Velocity S-wave (km/s) = 4.14893 4.40419 4.27846
# Velocity P-wave (km/s) = 7.61851 8.27893 7.95557
#
# Compressibility (1/GPa) = 0.01683124
#
# Stress axis : x y z
#
# Youngs Moduli (GPa) = 57.91197 57.91193 125.28287
#
# Poissons Ratio (x) = 0.29434 0.48613
# Poissons Ratio (y) = 0.29434 0.48612
# Poissons Ratio (z) = 0.22471 0.22471
#
# Static dielectric constant tensor:
#      x y z
#    x 3.021780 0.000000 0.000000 
#    y 0.000000 3.021770 0.000000 
#    z 0.000000 0.000000 3.757560 
# 
# 
# High freq. dielectric constant tensor:
#      x y z
#    x 1.630740 0.000000 0.000000 
#    y 0.000000 1.630740 0.000000 
#    z 0.000000 0.000000 1.677530 
# 
# From -- ./inp_files/7855.got.cif
#   From: 2010.03.12/outbox.cif.g09.slc.cpg/sg138_4_cif.got.tgz:7855.got - 2010.04.08 09:41:05.
