data_PCOD8318479
_publ_section_title
;
Structure prediction by ZEFSAII (Michael W. Deem and Ramdas Pophale) SiO2 
 PCOD8318479
Probable space group: P 42/N M C
;
_chemical_formula_sum "Si O2"
_cell_formula_units_Z 96
_cell_length_a 14.635980
_cell_length_b 14.635980
_cell_length_c 24.706305
_cell_angle_alpha 90.000000
_cell_angle_beta 90.000000
_cell_angle_gamma 90.000000
_cell_volume 5292.384797
_symmetry_space_group_name_H-M "P 42/N M C"
_symmetry_group_IT_number 137
_space_group.IT_coordinate_system_code '2'
_symmetry_cell_setting 'tetragonal'
loop_
_space_group_symop_operation_xyz
x,y,z
1/2-y,x,1/2+z
1/2-x,1/2-y,z
y,1/2-x,1/2+z
1/2+x,-y,-z
-x,1/2+y,-z
1/2+y,1/2+x,1/2-z
-y,-x,1/2-z
-x,-y,-z
1/2+y,-x,1/2-z
1/2+x,1/2+y,-z
-y,1/2+x,1/2-z
1/2-x,y,z
x,1/2-y,z
1/2-y,1/2-x,1/2+z
y,x,1/2+z
loop_
_atom_site_type_symbol
_atom_site_label
_atom_site_fract_x
_atom_site_fract_y
_atom_site_fract_z
Si Si1 0.983989 0.645105 0.603435
Si Si2 0.647992 0.641589 0.926623
Si Si3 0.356463 0.035024 0.471932
Si Si4 0.993178 0.357241 0.272553
Si Si5 0.351885 0.358692 0.193268
Si Si6 0.148074 0.646061 0.976144
O O1 0.950136 0.750000 0.597621
O O2 0.082385 0.632320 0.575697
O O3 0.909591 0.577248 0.578300
O O4 0.992394 0.616001 0.665407
O O5 0.750000 0.606156 0.940312
O O6 0.646589 0.750000 0.926970
O O7 0.618235 0.607037 0.866855
O O8 0.579953 0.604261 0.972587
O O9 0.250000 0.056961 0.463462
O O10 0.374961 0.926104 0.476874
O O11 0.981899 0.250000 0.264864
O O12 0.078654 0.396723 0.238150
O O13 0.901084 0.401084 0.250000
O O14 0.250000 0.395083 0.206644
O O15 0.351264 0.250000 0.194372
O O16 0.250000 0.632038 0.000566
O O17 0.134254 0.750000 0.955322
#
# Coordination Sequence:
#
# PCOD8318479 Si02
#       6
#    16  16  16  16  16  16
#     4  10  21  35  50  75 106 135 171 217 264 312
#     4   8  14  25  44  72 100 125 160 203 249 309
#     4  10  19  31  53  80 106 137 166 208 269 321
#     4  10  22  36  52  74 104 141 178 214 253 303
#     4   8  15  30  50  70  95 130 172 216 260 304
#     4   9  19  35  52  71 100 140 179 210 249 307
#
# _framework density 18.13927
#
# number of rings (size 3 to 8) (size 9 to 14) (size 15 to 20)
#    0.000    2.833    0.000    2.000    2.333    2.500 
#    0.000    3.333    0.000    0.000    0.000    0.000 
#    0.000    0.333    0.000    0.000    0.000    0.000 
#
# Total GULP energy -1190064.649810 kJ/mol
# GULP energy per Si atom -12396.506769 kJ/mol
# Density = 1.809798 g / cm^3
# Si number density = 18.139270 Si / 1000 Ang^3
#
#
#
# Elastic Constant Matrix: (Units=GPa)
#
#
# Indices 1 2 3 4 5 6 
#
# 1 82.2669 44.8094 59.0676 0.0000 0.0000 0.0000
# 2 44.8094 82.2669 59.0676 0.0000 0.0000 0.0000
# 3 59.0676 59.0676 126.1532 0.0000 0.0000 0.0000
# 4 0.0000 0.0000 0.0000 24.5498 0.0000 0.0000
# 5 0.0000 0.0000 0.0000 0.0000 24.5498 0.0000
# 6 0.0000 0.0000 0.0000 0.0000 0.0000 20.1975
#
#
#
# Elastic Compliance Matrix: (Units=1/GPa)
#
#
# Indices 1 2 3 4 5 6 
#
# 1 0.020316 -0.006381 -0.006525 0.000000 0.000000 0.000000
# 2 -0.006381 0.020316 -0.006525 0.000000 0.000000 0.000000
# 3 -0.006525 -0.006525 0.014037 0.000000 0.000000 0.000000
# 4 0.000000 0.000000 0.000000 0.040733 0.000000 0.000000
# 5 0.000000 0.000000 0.000000 0.000000 0.040733 0.000000
# 6 0.000000 0.000000 0.000000 0.000000 0.000000 0.049511
#
#
# Mechanical properties :
#
#
# Convention : Reuss Voigt Hill
#
# Bulk Modulus (GPa) = 63.25887 68.50847 65.88367
# Shear Modulus (GPa) = 21.76032 22.37561 22.06796
#
# Velocity S-wave (km/s) = 3.46732 3.51600 3.49174
# Velocity P-wave (km/s) = 7.13999 7.37109 7.25646
#
# Compressibility (1/GPa) = 0.01580806
#
# Stress axis : x y z
#
# Youngs Moduli (GPa) = 49.22269 49.22269 71.24170
#
# Poissons Ratio (x) = 0.31409 0.46482
# Poissons Ratio (y) = 0.31409 0.46482
# Poissons Ratio (z) = 0.32116 0.32116
#
# Static dielectric constant tensor:
#      x y z
#    x 3.336430 0.000000 0.000000 
#    y 0.000000 3.336430 0.000000 
#    z 0.000000 0.000000 3.383950 
# 
# 
# High freq. dielectric constant tensor:
#      x y z
#    x 1.691660 0.000000 0.000000 
#    y 0.000000 1.691660 0.000000 
#    z 0.000000 0.000000 1.688860 
# 
# From -- ./inp_files/7794.got.cif
#   From: 2010.03.12/outbox.cif.g09.slc.cpg/sg137_4_cif.got.tgz:7794.got - 2010.04.08 09:34:49.
