data_PCOD8318805
_publ_section_title
;
Structure prediction by ZEFSAII (Michael W. Deem and Ramdas Pophale) SiO2 
 PCOD8318805
Probable space group: P 42/N M C
;
_chemical_formula_sum "Si O2"
_cell_formula_units_Z 48
_cell_length_a 9.311712
_cell_length_b 9.311712
_cell_length_c 26.606637
_cell_angle_alpha 90.000000
_cell_angle_beta 90.000000
_cell_angle_gamma 90.000000
_cell_volume 2307.007759
_symmetry_space_group_name_H-M "P 42/N M C"
_symmetry_group_IT_number 137
_space_group.IT_coordinate_system_code '2'
_symmetry_cell_setting 'tetragonal'
loop_
_space_group_symop_operation_xyz
x,y,z
1/2-y,x,1/2+z
1/2-x,1/2-y,z
y,1/2-x,1/2+z
1/2+x,-y,-z
-x,1/2+y,-z
1/2+y,1/2+x,1/2-z
-y,-x,1/2-z
-x,-y,-z
1/2+y,-x,1/2-z
1/2+x,1/2+y,-z
-y,1/2+x,1/2-z
1/2-x,y,z
x,1/2-y,z
1/2-y,1/2-x,1/2+z
y,x,1/2+z
loop_
_atom_site_type_symbol
_atom_site_label
_atom_site_fract_x
_atom_site_fract_y
_atom_site_fract_z
Si Si1 0.250000 0.577701 0.079450
Si Si2 0.409171 0.414578 0.788680
Si Si3 0.977578 0.421681 0.114122
Si Si4 0.750000 0.082340 0.033083
O O1 0.250000 0.750000 0.081885
O O2 0.378982 0.511501 0.110366
O O3 0.250000 0.513921 0.022518
O O4 0.526865 0.473136 0.750000
O O5 0.250000 0.418676 0.763930
O O6 0.449509 0.250000 0.803000
O O7 0.399273 0.517814 0.836925
O O8 0.999786 0.250000 0.118586
O O9 0.889308 0.463894 0.064281
O O10 0.750000 0.250000 0.025040
#
# Coordination Sequence:
#
# PCOD8318805 Si02
#       4
#     8  16  16   8
#     4  11  23  39  61  95 137 175 215 265 322 375
#     4  11  25  44  67  95 125 164 212 266 328 390
#     4  11  22  41  66  94 129 170 219 266 321 385
#     4   9  20  39  65  95 129 171 219 267 314 381
#
# _framework density 20.806173000000001
#
# number of rings (size 3 to 8) (size 9 to 14) (size 15 to 20)
#    0.000    1.333    1.667    3.500    2.333    2.000 
#    0.000    5.000    0.000    0.000    0.000    0.000 
#    0.000    0.000    0.000    0.000    0.000    0.000 
#
# Total GULP energy -595055.038171 kJ/mol
# GULP energy per Si atom -12396.979962 kJ/mol
# Density = 2.075882 g / cm^3
# Si number density = 20.806173 Si / 1000 Ang^3
#
#
#
# Elastic Constant Matrix: (Units=GPa)
#
#
# Indices 1 2 3 4 5 6 
#
# 1 128.5585 48.9384 24.9599 0.0000 0.0000 0.0000
# 2 48.9384 128.5595 24.9603 0.0000 0.0000 0.0000
# 3 24.9599 24.9603 71.6014 0.0000 0.0000 0.0000
# 4 0.0000 0.0000 0.0000 31.5999 0.0000 0.0000
# 5 0.0000 0.0000 0.0000 0.0000 31.5999 0.0000
# 6 0.0000 0.0000 0.0000 0.0000 0.0000 16.8063
#
#
#
# Elastic Compliance Matrix: (Units=1/GPa)
#
#
# Indices 1 2 3 4 5 6 
#
# 1 0.009403 -0.003157 -0.002177 0.000000 0.000000 0.000000
# 2 -0.003157 0.009403 -0.002177 0.000000 0.000000 0.000000
# 3 -0.002177 -0.002177 0.015484 0.000000 0.000000 0.000000
# 4 0.000000 0.000000 0.000000 0.031646 0.000000 0.000000
# 5 0.000000 0.000000 0.000000 0.000000 0.031646 0.000000
# 6 0.000000 0.000000 0.000000 0.000000 0.000000 0.059502
#
#
# Mechanical properties :
#
#
# Convention : Reuss Voigt Hill
#
# Bulk Modulus (GPa) = 51.90190 58.49293 55.19741
# Shear Modulus (GPa) = 28.00672 31.32526 29.66599
#
# Velocity S-wave (km/s) = 3.67287 3.88438 3.78011
# Velocity P-wave (km/s) = 6.55639 6.94926 6.75568
#
# Compressibility (1/GPa) = 0.01926712
#
# Stress axis : x y z
#
# Youngs Moduli (GPa) = 106.34968 106.35026 64.58147
#
# Poissons Ratio (x) = 0.33571 0.14062
# Poissons Ratio (y) = 0.33571 0.14062
# Poissons Ratio (z) = 0.23157 0.23157
#
# Static dielectric constant tensor:
#      x y z
#    x 3.731350 0.000000 0.000000 
#    y 0.000000 3.731350 0.000000 
#    z 0.000000 0.000000 3.914620 
# 
# 
# High freq. dielectric constant tensor:
#      x y z
#    x 1.818860 0.000000 0.000000 
#    y 0.000000 1.818860 0.000000 
#    z 0.000000 0.000000 1.816790 
# 
# From -- ./inp_files/10029.got.cif
#   From: 2010.03.12/outbox.cif.g09.slc.cpg/sg137_6_cif.got.tgz:10029.got - 2010.04.08 09:34:49.
