data_PCOD8318112
_publ_section_title
;
Structure prediction by ZEFSAII (Michael W. Deem and Ramdas Pophale) SiO2 
 PCOD8318112
Probable space group: P 42/M N M
;
_chemical_formula_sum "Si O2"
_cell_formula_units_Z 72
_cell_length_a 16.710812
_cell_length_b 16.710812
_cell_length_c 12.978433
_cell_angle_alpha 90.000000
_cell_angle_beta 90.000000
_cell_angle_gamma 90.000000
_cell_volume 3624.243479
_symmetry_space_group_name_H-M "P 42/M N M"
_symmetry_group_IT_number 136
_symmetry_cell_setting 'tetragonal'
loop_
_space_group_symop_operation_xyz
x,y,z
1/2-y,1/2+x,1/2+z
-x,-y,z
1/2+y,1/2-x,1/2+z
1/2+x,1/2-y,1/2-z
1/2-x,1/2+y,1/2-z
y,x,-z
-y,-x,-z
-x,-y,-z
1/2+y,1/2-x,1/2-z
x,y,-z
1/2-y,1/2+x,1/2-z
1/2-x,1/2+y,1/2+z
1/2+x,1/2-y,1/2+z
-y,-x,z
y,x,z
loop_
_atom_site_type_symbol
_atom_site_label
_atom_site_fract_x
_atom_site_fract_y
_atom_site_fract_z
Si Si1 0.323618 0.803437 0.879013
Si Si2 0.626349 0.496285 0.000000
Si Si3 0.233543 0.017429 0.313349
Si Si4 0.998973 0.131328 0.883350
Si Si5 0.384145 0.948636 0.247211
O O1 0.235345 0.764656 0.855029
O O2 0.388068 0.743890 0.829084
O O3 0.338324 0.892567 0.835292
O O4 0.338410 0.807984 0.000000
O O5 0.674090 0.517561 0.102631
O O6 0.549518 0.549518 0.000000
O O7 0.596392 0.403609 0.000000
O O8 0.203432 0.001696 0.197342
O O9 0.317328 0.970293 0.332465
O O10 0.916212 0.083789 0.869586
O O11 0.003782 0.165812 0.000000
O O12 0.072642 0.072642 0.861233
O O13 0.462975 0.908796 0.299119
#
# Coordination Sequence:
#
# PCOD8318112 Si02
#       5
#    16   8  16  16  16
#     4  10  20  36  61  90 115 148 198 255 308 360
#     4  11  22  34  54  87 124 164 203 244 306 378
#     4  11  20  35  57  84 119 157 198 251 302 364
#     4   9  18  32  52  81 119 162 204 248 300 359
#     4   9  21  41  58  82 115 158 206 248 302 362
#
# _framework density 19.866216000000001
#
# number of rings (size 3 to 8) (size 9 to 14) (size 15 to 20)
#    0.000    2.111    1.111    3.333    0.000    4.444 
#    2.000    4.444    2.444    0.000    0.000    0.000 
#    0.000    0.000    0.000    0.000    0.000    0.000 
#
# Total GULP energy -892017.603088 kJ/mol
# GULP energy per Si atom -12389.133376 kJ/mol
# Density = 1.982100 g / cm^3
# Si number density = 19.866216 Si / 1000 Ang^3
#
#
#
# Elastic Constant Matrix: (Units=GPa)
#
#
# Indices 1 2 3 4 5 6 
#
# 1 111.5290 63.7395 53.5953 0.0000 0.0000 0.0000
# 2 63.7395 111.5305 53.5955 0.0000 0.0000 0.0000
# 3 53.5953 53.5955 105.4781 0.0000 0.0000 0.0000
# 4 0.0000 0.0000 0.0000 19.7421 0.0000 0.0000
# 5 0.0000 0.0000 0.0000 0.0000 19.7414 0.0000
# 6 0.0000 0.0000 0.0000 0.0000 0.0000 30.6942
#
#
#
# Elastic Compliance Matrix: (Units=1/GPa)
#
#
# Indices 1 2 3 4 5 6 
#
# 1 0.014601 -0.006323 -0.004206 0.000000 0.000000 0.000000
# 2 -0.006323 0.014601 -0.004206 0.000000 0.000000 0.000000
# 3 -0.004206 -0.004206 0.013755 0.000000 0.000000 0.000000
# 4 0.000000 0.000000 0.000000 0.050653 0.000000 0.000000
# 5 0.000000 0.000000 0.000000 0.000000 0.050655 0.000000
# 6 0.000000 0.000000 0.000000 0.000000 0.000000 0.032579
#
#
# Mechanical properties :
#
#
# Convention : Reuss Voigt Hill
#
# Bulk Modulus (GPa) = 74.14951 74.48871 74.31911
# Shear Modulus (GPa) = 23.71778 24.54268 24.13023
#
# Velocity S-wave (km/s) = 3.45900 3.51864 3.48894
# Velocity P-wave (km/s) = 7.30468 7.35420 7.32948
#
# Compressibility (1/GPa) = 0.01348627
#
# Stress axis : x y z
#
# Youngs Moduli (GPa) = 68.48633 68.48736 72.70035
#
# Poissons Ratio (x) = 0.43308 0.30579
# Poissons Ratio (y) = 0.43307 0.30579
# Poissons Ratio (z) = 0.28807 0.28807
#
# Static dielectric constant tensor:
#      x y z
#    x 3.783900 0.000000 0.000000 
#    y 0.000000 3.783890 0.000000 
#    z 0.000000 0.000000 3.405040 
# 
# 
# High freq. dielectric constant tensor:
#      x y z
#    x 1.783820 0.000000 0.000000 
#    y 0.000000 1.783820 0.000000 
#    z 0.000000 0.000000 1.746440 
# 
# From -- ./inp_files/3466.got.cif
#   From: 2010.03.12/outbox.cif.g09.slc.cpg/sg136_2_cif.got.tgz:3466.got - 2010.04.06 18:39:43.
