data_PCOD8318152
_publ_section_title
;
Structure prediction by ZEFSAII (Michael W. Deem and Ramdas Pophale) SiO2 
 PCOD8318152
Probable space group: P 42/M N M
;
_chemical_formula_sum "Si O2"
_cell_formula_units_Z 80
_cell_length_a 12.692649
_cell_length_b 12.692649
_cell_length_c 27.895170
_cell_angle_alpha 90.000000
_cell_angle_beta 90.000000
_cell_angle_gamma 90.000000
_cell_volume 4494.005019
_symmetry_space_group_name_H-M "P 42/M N M"
_symmetry_group_IT_number 136
_symmetry_cell_setting 'tetragonal'
loop_
_space_group_symop_operation_xyz
x,y,z
1/2-y,1/2+x,1/2+z
-x,-y,z
1/2+y,1/2-x,1/2+z
1/2+x,1/2-y,1/2-z
1/2-x,1/2+y,1/2-z
y,x,-z
-y,-x,-z
-x,-y,-z
1/2+y,1/2-x,1/2-z
x,y,-z
1/2-y,1/2+x,1/2-z
1/2-x,1/2+y,1/2+z
1/2+x,1/2-y,1/2+z
-y,-x,z
y,x,z
loop_
_atom_site_type_symbol
_atom_site_label
_atom_site_fract_x
_atom_site_fract_y
_atom_site_fract_z
Si Si1 0.466372 0.696936 0.180680
Si Si2 0.397734 0.070252 0.446291
Si Si3 0.330997 0.494823 0.922853
Si Si4 0.799907 0.633799 0.644694
Si Si5 0.333310 0.972227 0.238924
O O1 0.408123 0.591878 0.198543
O O2 0.534328 0.673798 0.133445
O O3 0.382520 0.784018 0.165088
O O4 0.538189 0.734828 0.224851
O O5 0.406215 0.117166 0.500000
O O6 0.403879 0.164586 0.407955
O O7 0.500000 0.000000 0.435196
O O8 0.287236 0.004881 0.443666
O O9 0.394179 0.605822 0.930547
O O10 0.398132 0.398132 0.946781
O O11 0.684643 0.684643 0.639728
O O12 0.796024 0.539971 0.683787
O O13 0.413009 0.883072 0.256548
#
# Coordination Sequence:
#
# PCOD8318152 Si02
#       5
#    16  16  16  16  16
#     4   8  15  28  44  68 102 132 160 196 245 304
#     4  10  21  34  52  73  98 133 172 218 263 309
#     4   9  18  32  52  79 109 139 167 203 260 326
#     4   9  18  30  46  68  97 127 164 206 247 303
#     4   9  17  26  45  70  94 135 168 204 242 294
#
# _framework density 17.801494000000002
#
# number of rings (size 3 to 8) (size 9 to 14) (size 15 to 20)
#    0.000    3.000    0.000    1.800    8.400    2.800 
#    0.000    1.000    0.000    0.000    0.000    0.000 
#    0.000    2.400    0.000   19.400    0.000    0.000 
#
# Total GULP energy -991107.348814 kJ/mol
# GULP energy per Si atom -12388.841860 kJ/mol
# Density = 1.776098 g / cm^3
# Si number density = 17.801494 Si / 1000 Ang^3
#
#
#
# Elastic Constant Matrix: (Units=GPa)
#
#
# Indices 1 2 3 4 5 6 
#
# 1 67.1454 33.2972 39.9732 0.0000 0.0000 0.0000
# 2 33.2972 67.1454 39.9732 0.0000 0.0000 0.0000
# 3 39.9732 39.9732 145.7770 0.0000 0.0000 0.0000
# 4 0.0000 0.0000 0.0000 -2.6941 0.0000 0.0000
# 5 0.0000 0.0000 0.0000 0.0000 -2.6941 0.0000
# 6 0.0000 0.0000 0.0000 0.0000 0.0000 10.8213
#
#
#
# Elastic Compliance Matrix: (Units=1/GPa)
#
#
# Indices 1 2 3 4 5 6 
#
# 1 0.021140 -0.008404 -0.003492 0.000000 0.000000 0.000000
# 2 -0.008404 0.021140 -0.003492 0.000000 0.000000 0.000000
# 3 -0.003492 -0.003492 0.008775 0.000000 0.000000 0.000000
# 4 0.000000 0.000000 0.000000 -0.371178 0.000000 0.000000
# 5 0.000000 0.000000 0.000000 0.000000 -0.371178 0.000000
# 6 0.000000 0.000000 0.000000 0.000000 0.000000 0.092411
#
#
# Mechanical properties :
#
#
# Convention : Reuss Voigt Hill
#
# Bulk Modulus (GPa) = 49.31631 56.28387 52.80009
# Shear Modulus (GPa) = -8.90701 12.20821 1.65060
#
# Velocity S-wave (km/s) = -2.23928 2.62161 0.96397
# Velocity P-wave (km/s) = 4.59105 6.39140 5.56452
#
# Compressibility (1/GPa) = 0.02027727
#
# Stress axis : x y z
#
# Youngs Moduli (GPa) = 47.30458 47.30458 113.96064
#
# Poissons Ratio (x) = 0.39755 0.39797
# Poissons Ratio (y) = 0.39755 0.39797
# Poissons Ratio (z) = 0.16520 0.16520
#
# Static dielectric constant tensor:
#      x y z
#    x 3.301940 0.000000 0.000000 
#    y 0.000000 3.301940 0.000000 
#    z 0.000000 0.000000 3.622550 
# 
# 
# High freq. dielectric constant tensor:
#      x y z
#    x 1.664100 0.000000 0.000000 
#    y 0.000000 1.664100 0.000000 
#    z 0.000000 0.000000 1.696420 
# 
# From -- ./inp_files/9516.got.cif
#   From: 2010.03.12/outbox.cif.g09.slc.cpg/sg136_5_cif.got.tgz:9516.got - 2010.04.06 18:39:43.
