data_PCOD8318133
_publ_section_title
;
Structure prediction by ZEFSAII (Michael W. Deem and Ramdas Pophale) SiO2 
 PCOD8318133
Probable space group: P 42/M N M
;
_chemical_formula_sum "Si O2"
_cell_formula_units_Z 120
_cell_length_a 17.858440
_cell_length_b 17.858440
_cell_length_c 20.118280
_cell_angle_alpha 90.000000
_cell_angle_beta 90.000000
_cell_angle_gamma 90.000000
_cell_volume 6416.199901
_symmetry_space_group_name_H-M "P 42/M N M"
_symmetry_group_IT_number 136
_symmetry_cell_setting 'tetragonal'
loop_
_space_group_symop_operation_xyz
x,y,z
1/2-y,1/2+x,1/2+z
-x,-y,z
1/2+y,1/2-x,1/2+z
1/2+x,1/2-y,1/2-z
1/2-x,1/2+y,1/2-z
y,x,-z
-y,-x,-z
-x,-y,-z
1/2+y,1/2-x,1/2-z
x,y,-z
1/2-y,1/2+x,1/2-z
1/2-x,1/2+y,1/2+z
1/2+x,1/2-y,1/2+z
-y,-x,z
y,x,z
loop_
_atom_site_type_symbol
_atom_site_label
_atom_site_fract_x
_atom_site_fract_y
_atom_site_fract_z
Si Si1 0.338731 0.779765 0.200491
Si Si2 0.994926 0.881763 0.000000
Si Si3 0.007697 0.270799 0.771049
Si Si4 0.153670 0.584324 0.925126
Si Si5 0.751749 0.130376 0.693430
Si Si6 0.875803 0.001727 0.142778
Si Si7 0.341994 0.912045 0.576371
Si Si8 0.499768 0.084360 0.641225
O O1 0.301248 0.698753 0.191727
O O2 0.408157 0.774413 0.248606
O O3 0.360212 0.807323 0.127091
O O4 0.283410 0.834834 0.239594
O O5 0.010482 0.839439 0.931166
O O6 0.044186 0.955815 0.000000
O O7 0.908459 0.908459 0.000000
O O8 0.958040 0.251784 0.706573
O O9 0.985845 0.351463 0.803108
O O10 0.999263 0.199066 0.816493
O O11 0.181872 0.498979 0.916705
O O12 0.065162 0.586930 0.913299
O O13 0.170751 0.612579 0.000000
O O14 0.834735 0.165266 0.684264
O O15 0.708713 0.141407 0.623420
O O16 0.926746 0.926746 0.149935
O O17 0.926344 0.073657 0.161955
O O18 0.333615 0.885444 0.500000
O O19 0.425892 0.898508 0.600678
O O20 0.500000 0.000000 0.673844
#
# Coordination Sequence:
#
# PCOD8318133 Si02
#       8
#    16   8  16  16  16  16  16  16
#     4  11  23  38  56  84 116 148 190 237 280 334
#     4   7  12  28  52  76 105 140 180 222 265 324
#     4  12  21  37  57  83 111 151 188 234 283 339
#     4  10  20  38  61  85 112 147 190 233 284 341
#     4  11  23  38  56  84 116 148 190 237 280 334
#     4   9  18  34  56  81 110 147 189 232 281 339
#     4  10  20  38  61  85 112 147 190 233 284 341
#     4  10  21  37  59  85 115 144 186 236 280 338
#
# _framework density 18.702660000000002
#
# number of rings (size 3 to 8) (size 9 to 14) (size 15 to 20)
#    0.000    1.800    4.000    2.000    0.000    2.133 
#    4.800    0.000    0.000    0.000    0.000    0.000 
#    0.000    2.133    0.000    0.000    0.000    0.000 
#
# Total GULP energy -1486701.137022 kJ/mol
# GULP energy per Si atom -12389.176142 kJ/mol
# Density = 1.866009 g / cm^3
# Si number density = 18.702660 Si / 1000 Ang^3
#
#
#
# Elastic Constant Matrix: (Units=GPa)
#
#
# Indices 1 2 3 4 5 6 
#
# 1 62.7254 12.6445 26.4761 0.0000 0.0000 0.0000
# 2 12.6445 62.7252 26.4762 0.0000 0.0000 0.0000
# 3 26.4761 26.4762 111.2463 0.0000 0.0000 0.0000
# 4 0.0000 0.0000 0.0000 -31.7233 0.0000 0.0000
# 5 0.0000 0.0000 0.0000 0.0000 -31.7967 0.0000
# 6 0.0000 0.0000 0.0000 0.0000 0.0000 27.4027
#
#
#
# Elastic Compliance Matrix: (Units=1/GPa)
#
#
# Indices 1 2 3 4 5 6 
#
# 1 0.017950 -0.002018 -0.003792 0.000000 0.000000 0.000000
# 2 -0.002018 0.017950 -0.003792 0.000000 0.000000 0.000000
# 3 -0.003792 -0.003792 0.010794 0.000000 0.000000 0.000000
# 4 0.000000 0.000000 0.000000 -0.031523 0.000000 0.000000
# 5 0.000000 0.000000 0.000000 0.000000 -0.031450 0.000000
# 6 0.000000 0.000000 0.000000 0.000000 0.000000 0.036493
#
#
# Mechanical properties :
#
#
# Convention : Reuss Voigt Hill
#
# Bulk Modulus (GPa) = 36.37592 40.87673 38.62632
# Shear Modulus (GPa) = 102.92267 4.18321 53.55294
#
# Velocity S-wave (km/s) = 7.42634 1.49718 5.35687
# Velocity P-wave (km/s) = 9.64499 4.98922 7.67848
#
# Compressibility (1/GPa) = 0.02749072
#
# Stress axis : x y z
#
# Youngs Moduli (GPa) = 55.71101 55.71087 92.64501
#
# Poissons Ratio (x) = 0.11242 0.35128
# Poissons Ratio (y) = 0.11242 0.35128
# Poissons Ratio (z) = 0.21124 0.21124
#
# Static dielectric constant tensor:
#      x y z
#    x 3.528420 0.000000 0.000000 
#    y 0.000000 3.528420 0.000000 
#    z 0.000000 0.000000 3.875130 
# 
# 
# High freq. dielectric constant tensor:
#      x y z
#    x 1.714280 0.000000 0.000000 
#    y 0.000000 1.714280 0.000000 
#    z 0.000000 0.000000 1.731080 
# 
# From -- ./inp_files/7815.got.cif
#   From: 2010.03.12/outbox.cif.g09.slc.cpg/sg136_4_cif.got.tgz:7815.got - 2010.04.06 18:39:43.
