data_PCOD8318295
_publ_section_title
;
Structure prediction by ZEFSAII (Michael W. Deem and Ramdas Pophale) SiO2 
 PCOD8318295
Probable space group: P 42/M N M
;
_chemical_formula_sum "Si O2"
_cell_formula_units_Z 72
_cell_length_a 12.589495
_cell_length_b 12.589495
_cell_length_c 22.935074
_cell_angle_alpha 90.000000
_cell_angle_beta 90.000000
_cell_angle_gamma 90.000000
_cell_volume 3635.103369
_symmetry_space_group_name_H-M "P 42/M N M"
_symmetry_group_IT_number 136
_symmetry_cell_setting 'tetragonal'
loop_
_space_group_symop_operation_xyz
x,y,z
1/2-y,1/2+x,1/2+z
-x,-y,z
1/2+y,1/2-x,1/2+z
1/2+x,1/2-y,1/2-z
1/2-x,1/2+y,1/2-z
y,x,-z
-y,-x,-z
-x,-y,-z
1/2+y,1/2-x,1/2-z
x,y,-z
1/2-y,1/2+x,1/2-z
1/2-x,1/2+y,1/2+z
1/2+x,1/2-y,1/2+z
-y,-x,z
y,x,z
loop_
_atom_site_type_symbol
_atom_site_label
_atom_site_fract_x
_atom_site_fract_y
_atom_site_fract_z
Si Si1 0.416654 0.416654 0.430646
Si Si2 0.360399 0.193699 0.872960
Si Si3 0.892669 0.633102 0.250022
Si Si4 0.730527 0.901649 0.371696
Si Si5 0.472803 0.183633 0.569071
O O1 0.500000 0.500000 0.404804
O O2 0.416462 0.416462 0.500000
O O3 0.302134 0.451440 0.406859
O O4 0.270295 0.270295 0.900159
O O5 0.332235 0.176749 0.805102
O O6 0.473209 0.254452 0.878169
O O7 0.363278 0.081928 0.906182
O O8 0.862138 0.514799 0.270233
O O9 0.870768 0.709272 0.304571
O O10 0.830377 0.830377 0.393609
O O11 0.626961 0.885525 0.411264
O O12 0.481145 0.180957 0.500000
#
# Coordination Sequence:
#
# PCOD8318295 Si02
#       5
#     8  16  16  16  16
#     4   9  18  34  58  88 123 155 185 237 303 355
#     4  11  23  38  59  87 121 160 200 247 297 353
#     4   9  17  34  60  87 115 149 197 250 301 352
#     4  11  22  38  61  87 118 160 204 247 293 352
#     4  11  22  39  62  89 119 153 198 247 298 358
#
# _framework density 19.806864000000001
#
# number of rings (size 3 to 8) (size 9 to 14) (size 15 to 20)
#    0.000    1.667    3.333    2.000    0.000    3.556 
#    0.000    0.000    0.000    0.000    0.000    3.111 
#    0.000    0.000    0.000    0.000    0.000    0.000 
#
# Total GULP energy -892753.326886 kJ/mol
# GULP energy per Si atom -12399.351762 kJ/mol
# Density = 1.976178 g / cm^3
# Si number density = 19.806864 Si / 1000 Ang^3
#
#
#
# Elastic Constant Matrix: (Units=GPa)
#
#
# Indices 1 2 3 4 5 6 
#
# 1 92.9941 46.0722 25.2949 0.0000 0.0000 0.0000
# 2 46.0722 92.9941 25.2949 0.0000 0.0000 0.0000
# 3 25.2949 25.2949 56.3946 0.0000 0.0000 0.0000
# 4 0.0000 0.0000 0.0000 21.0400 0.0000 0.0000
# 5 0.0000 0.0000 0.0000 0.0000 21.0400 0.0000
# 6 0.0000 0.0000 0.0000 0.0000 0.0000 31.9387
#
#
#
# Elastic Compliance Matrix: (Units=1/GPa)
#
#
# Indices 1 2 3 4 5 6 
#
# 1 0.014952 -0.006360 -0.003854 0.000000 0.000000 0.000000
# 2 -0.006360 0.014952 -0.003854 0.000000 0.000000 0.000000
# 3 -0.003854 -0.003854 0.021190 0.000000 0.000000 0.000000
# 4 0.000000 0.000000 0.000000 0.047529 0.000000 0.000000
# 5 0.000000 0.000000 0.000000 0.000000 0.047529 0.000000
# 6 0.000000 0.000000 0.000000 0.000000 0.000000 0.031310
#
#
# Mechanical properties :
#
#
# Convention : Reuss Voigt Hill
#
# Bulk Modulus (GPa) = 43.55656 48.41186 45.98421
# Shear Modulus (GPa) = 23.44660 24.51845 23.98252
#
# Velocity S-wave (km/s) = 3.44432 3.52216 3.48346
# Velocity P-wave (km/s) = 6.15273 6.40592 6.28060
#
# Compressibility (1/GPa) = 0.02295866
#
# Stress axis : x y z
#
# Youngs Moduli (GPa) = 66.87871 66.87871 47.19274
#
# Poissons Ratio (x) = 0.42532 0.18189
# Poissons Ratio (y) = 0.42532 0.18189
# Poissons Ratio (z) = 0.25776 0.25776
#
# Static dielectric constant tensor:
#      x y z
#    x 3.546700 0.000000 0.000000 
#    y 0.000000 3.546700 0.000000 
#    z 0.000000 0.000000 3.431990 
# 
# 
# High freq. dielectric constant tensor:
#      x y z
#    x 1.768990 0.000000 0.000000 
#    y 0.000000 1.768990 0.000000 
#    z 0.000000 0.000000 1.758980 
# 
# From -- ./inp_files/8927.got.cif
#   From: 2010.03.12/outbox.cif.g09.slc.cpg/sg136_5_cif.got.tgz:8927.got - 2010.04.06 18:39:43.
