data_PCOD8318632
_publ_section_title
;
Structure prediction by ZEFSAII (Michael W. Deem and Ramdas Pophale) SiO2 
 PCOD8318632
Probable space group: P 42/N M C
;
_chemical_formula_sum "Si O2"
_cell_formula_units_Z 112
_cell_length_a 13.640449
_cell_length_b 13.640449
_cell_length_c 30.846561
_cell_angle_alpha 90.000000
_cell_angle_beta 90.000000
_cell_angle_gamma 90.000000
_cell_volume 5739.368173
_symmetry_space_group_name_H-M "P 42/N M C"
_symmetry_group_IT_number 137
_space_group.IT_coordinate_system_code '2'
_symmetry_cell_setting 'tetragonal'
loop_
_space_group_symop_operation_xyz
x,y,z
1/2-y,x,1/2+z
1/2-x,1/2-y,z
y,1/2-x,1/2+z
1/2+x,-y,-z
-x,1/2+y,-z
1/2+y,1/2+x,1/2-z
-y,-x,1/2-z
-x,-y,-z
1/2+y,-x,1/2-z
1/2+x,1/2+y,-z
-y,1/2+x,1/2-z
1/2-x,y,z
x,1/2-y,z
1/2-y,1/2-x,1/2+z
y,x,1/2+z
loop_
_atom_site_type_symbol
_atom_site_label
_atom_site_fract_x
_atom_site_fract_y
_atom_site_fract_z
Si Si1 0.634204 0.556822 0.334239
Si Si2 0.023990 0.364783 0.747349
Si Si3 0.864801 0.985755 0.587650
Si Si4 0.140799 0.134123 0.830741
Si Si5 0.137663 0.362455 0.496262
Si Si6 0.364839 0.470607 0.083736
Si Si7 0.357048 0.634671 0.797794
O O1 0.750000 0.569828 0.326969
O O2 0.578692 0.620122 0.298074
O O3 0.606113 0.594797 0.381377
O O4 0.602358 0.441615 0.331367
O O5 0.001141 0.250000 0.753409
O O6 0.092224 0.405604 0.786459
O O7 0.920612 0.420612 0.750000
O O8 0.750000 0.010118 0.589990
O O9 0.900851 0.921732 0.628199
O O10 0.893251 0.927844 0.544339
O O11 0.922556 0.087810 0.589036
O O12 0.250000 0.090205 0.834428
O O13 0.145823 0.250000 0.829667
O O14 0.250000 0.380956 0.509395
O O15 0.121188 0.250000 0.482742
O O16 0.071196 0.392147 0.536756
O O17 0.250000 0.483541 0.090176
O O18 0.395767 0.604234 0.750000
O O19 0.250000 0.587580 0.809337
O O20 0.343922 0.750000 0.797761
#
# Coordination Sequence:
#
# PCOD8318632 Si02
#       7
#    16  16  16  16  16  16  16
#     4  11  22  36  57  82 110 147 187 226 271 325
#     4  11  23  38  55  78 110 146 186 228 273 328
#     4  10  20  36  59  83 107 138 178 223 272 326
#     4   9  18  34  56  80 104 131 170 226 283 324
#     4   9  18  35  60  86 110 137 171 219 277 327
#     4  11  23  37  53  78 113 148 185 223 260 315
#     4   8  15  30  52  77 106 140 177 218 267 324
#
# _framework density 19.514343
#
# number of rings (size 3 to 8) (size 9 to 14) (size 15 to 20)
#    0.000    2.143    0.000    3.857    0.000    4.429 
#    0.000    5.000    0.000    5.143    0.000    2.000 
#    0.000    0.000    0.000    0.000    0.000    0.000 
#
# Total GULP energy -1388857.548048 kJ/mol
# GULP energy per Si atom -12400.513822 kJ/mol
# Density = 1.946993 g / cm^3
# Si number density = 19.514343 Si / 1000 Ang^3
#
#
#
# Elastic Constant Matrix: (Units=GPa)
#
#
# Indices 1 2 3 4 5 6 
#
# 1 98.8376 41.3804 41.7339 0.0000 0.0000 0.0000
# 2 41.3804 98.8377 41.7338 0.0000 0.0000 0.0000
# 3 41.7339 41.7338 101.0484 0.0000 0.0000 0.0000
# 4 0.0000 0.0000 0.0000 28.6994 0.0000 0.0000
# 5 0.0000 0.0000 0.0000 0.0000 28.6994 0.0000
# 6 0.0000 0.0000 0.0000 0.0000 0.0000 27.7918
#
#
#
# Elastic Compliance Matrix: (Units=1/GPa)
#
#
# Indices 1 2 3 4 5 6 
#
# 1 0.013430 -0.003974 -0.003906 0.000000 0.000000 0.000000
# 2 -0.003974 0.013430 -0.003906 0.000000 0.000000 0.000000
# 3 -0.003906 -0.003906 0.013122 0.000000 0.000000 0.000000
# 4 0.000000 0.000000 0.000000 0.034844 0.000000 0.000000
# 5 0.000000 0.000000 0.000000 0.000000 0.034844 0.000000
# 6 0.000000 0.000000 0.000000 0.000000 0.000000 0.035982
#
#
# Mechanical properties :
#
#
# Convention : Reuss Voigt Hill
#
# Bulk Modulus (GPa) = 60.92721 60.93555 60.93138
# Shear Modulus (GPa) = 28.62141 28.62983 28.62562
#
# Velocity S-wave (km/s) = 3.83389 3.83445 3.83417
# Velocity P-wave (km/s) = 7.13357 7.13427 7.13392
#
# Compressibility (1/GPa) = 0.01641303
#
# Stress axis : x y z
#
# Youngs Moduli (GPa) = 74.45746 74.45757 76.20543
#
# Poissons Ratio (x) = 0.29588 0.29764
# Poissons Ratio (y) = 0.29588 0.29763
# Poissons Ratio (z) = 0.29081 0.29081
#
# Static dielectric constant tensor:
#      x y z
#    x 3.612360 0.000000 0.000000 
#    y 0.000000 3.612340 0.000000 
#    z 0.000000 0.000000 3.616330 
# 
# 
# High freq. dielectric constant tensor:
#      x y z
#    x 1.762550 0.000000 0.000000 
#    y 0.000000 1.762550 0.000000 
#    z 0.000000 0.000000 1.758630 
# 
# From -- ./inp_files/9811.got.cif
#   From: 2010.03.12/outbox.cif.g09.slc.cpg/sg137_5_cif.got.tgz:9811.got - 2010.04.08 09:34:49.
