data_PCOD8318455
_publ_section_title
;
Structure prediction by ZEFSAII (Michael W. Deem and Ramdas Pophale) SiO2 
 PCOD8318455
Probable space group: P 42/N M C
;
_chemical_formula_sum "Si O2"
_cell_formula_units_Z 112
_cell_length_a 13.992860
_cell_length_b 13.992860
_cell_length_c 34.661146
_cell_angle_alpha 90.000000
_cell_angle_beta 90.000000
_cell_angle_gamma 90.000000
_cell_volume 6786.656927
_symmetry_space_group_name_H-M "P 42/N M C"
_symmetry_group_IT_number 137
_space_group.IT_coordinate_system_code '2'
_symmetry_cell_setting 'tetragonal'
loop_
_space_group_symop_operation_xyz
x,y,z
1/2-y,x,1/2+z
1/2-x,1/2-y,z
y,1/2-x,1/2+z
1/2+x,-y,-z
-x,1/2+y,-z
1/2+y,1/2+x,1/2-z
-y,-x,1/2-z
-x,-y,-z
1/2+y,-x,1/2-z
1/2+x,1/2+y,-z
-y,1/2+x,1/2-z
1/2-x,y,z
x,1/2-y,z
1/2-y,1/2-x,1/2+z
y,x,1/2+z
loop_
_atom_site_type_symbol
_atom_site_label
_atom_site_fract_x
_atom_site_fract_y
_atom_site_fract_z
Si Si1 0.644822 0.637182 0.688795
Si Si2 0.355269 0.363104 0.088066
Si Si3 0.359977 0.995322 0.873343
Si Si4 0.512170 0.861080 0.756760
Si Si5 0.363201 0.479831 0.515564
Si Si6 0.482585 0.139048 0.156235
Si Si7 0.994625 0.636908 0.536110
O O1 0.750000 0.590113 0.687712
O O2 0.653999 0.750000 0.692676
O O3 0.591595 0.609296 0.649149
O O4 0.589259 0.597634 0.726431
O O5 0.250000 0.408956 0.082743
O O6 0.346267 0.250000 0.087683
O O7 0.424518 0.396156 0.053974
O O8 0.398250 0.399622 0.128636
O O9 0.250000 0.970818 0.865387
O O10 0.417718 0.908449 0.855061
O O11 0.379994 0.008270 0.918307
O O12 0.493404 0.750000 0.749644
O O13 0.549395 0.881817 0.799994
O O14 0.411239 0.911239 0.750000
O O15 0.250000 0.494627 0.512011
O O16 0.399274 0.414154 0.480188
O O17 0.413189 0.584291 0.517059
O O18 0.500119 0.250000 0.148850
O O19 0.997307 0.750000 0.525937
#
# Coordination Sequence:
#
# PCOD8318455 Si02
#       7
#    16  16  16  16  16  16  16
#     4   9  18  32  48  67  95 132 168 201 240 284
#     4   9  17  30  48  69  95 127 159 195 244 296
#     4  10  19  32  49  71 101 133 163 199 243 295
#     4  10  19  30  46  68  98 131 162 200 242 291
#     4  10  20  35  53  75 104 136 169 208 255 303
#     4  10  19  30  46  71 100 128 159 198 242 295
#     4  10  21  34  52  78 104 133 172 213 252 303
#
# _framework density 16.502970999999999
#
# number of rings (size 3 to 8) (size 9 to 14) (size 15 to 20)
#    0.000    2.286    2.857    0.429    0.000    2.714 
#    0.000    7.143    0.000    0.000    0.000    0.000 
#    0.000    2.000    0.000    0.000    0.000    0.000 
#
# Total GULP energy -1388467.778549 kJ/mol
# GULP energy per Si atom -12397.033737 kJ/mol
# Density = 1.646541 g / cm^3
# Si number density = 16.502971 Si / 1000 Ang^3
#
#
#
# Elastic Constant Matrix: (Units=GPa)
#
#
# Indices 1 2 3 4 5 6 
#
# 1 78.5660 40.9723 38.7438 0.0000 0.0000 0.0000
# 2 40.9723 78.5660 38.7438 0.0000 0.0000 0.0000
# 3 38.7438 38.7438 89.2629 0.0000 0.0000 0.0000
# 4 0.0000 0.0000 0.0000 22.4396 0.0000 0.0000
# 5 0.0000 0.0000 0.0000 0.0000 22.4396 0.0000
# 6 0.0000 0.0000 0.0000 0.0000 0.0000 14.1871
#
#
#
# Elastic Compliance Matrix: (Units=1/GPa)
#
#
# Indices 1 2 3 4 5 6 
#
# 1 0.019120 -0.007480 -0.005053 0.000000 0.000000 0.000000
# 2 -0.007480 0.019120 -0.005053 0.000000 0.000000 0.000000
# 3 -0.005053 -0.005053 0.015589 0.000000 0.000000 0.000000
# 4 0.000000 0.000000 0.000000 0.044564 0.000000 0.000000
# 5 0.000000 0.000000 0.000000 0.000000 0.044564 0.000000
# 6 0.000000 0.000000 0.000000 0.000000 0.000000 0.070487
#
#
# Mechanical properties :
#
#
# Convention : Reuss Voigt Hill
#
# Bulk Modulus (GPa) = 53.59026 53.70163 53.64594
# Shear Modulus (GPa) = 19.62058 20.34224 19.98141
#
# Velocity S-wave (km/s) = 3.45180 3.51471 3.48340
# Velocity P-wave (km/s) = 6.95918 7.00586 6.98256
#
# Compressibility (1/GPa) = 0.01866011
#
# Stress axis : x y z
#
# Youngs Moduli (GPa) = 52.29995 52.29995 64.14822
#
# Poissons Ratio (x) = 0.39119 0.32411
# Poissons Ratio (y) = 0.39119 0.32411
# Poissons Ratio (z) = 0.26425 0.26425
#
# Static dielectric constant tensor:
#      x y z
#    x 3.074550 0.000000 0.000000 
#    y 0.000000 3.074550 0.000000 
#    z 0.000000 0.000000 3.381080 
# 
# 
# High freq. dielectric constant tensor:
#      x y z
#    x 1.616070 0.000000 0.000000 
#    y 0.000000 1.616070 0.000000 
#    z 0.000000 0.000000 1.651910 
# 
# From -- ./inp_files/10681.got.cif
#   From: 2010.03.12/outbox.cif.g09.slc.cpg/sg137_6_cif.got.tgz:10681.got - 2010.04.08 09:34:49.
