data_PCOD8318142
_publ_section_title
;
Structure prediction by ZEFSAII (Michael W. Deem and Ramdas Pophale) SiO2 
 PCOD8318142
Probable space group: P 42/M N M
;
_chemical_formula_sum "Si O2"
_cell_formula_units_Z 96
_cell_length_a 15.732392
_cell_length_b 15.732392
_cell_length_c 19.651936
_cell_angle_alpha 90.000000
_cell_angle_beta 90.000000
_cell_angle_gamma 90.000000
_cell_volume 4864.014481
_symmetry_space_group_name_H-M "P 42/M N M"
_symmetry_group_IT_number 136
_symmetry_cell_setting 'tetragonal'
loop_
_space_group_symop_operation_xyz
x,y,z
1/2-y,1/2+x,1/2+z
-x,-y,z
1/2+y,1/2-x,1/2+z
1/2+x,1/2-y,1/2-z
1/2-x,1/2+y,1/2-z
y,x,-z
-y,-x,-z
-x,-y,-z
1/2+y,1/2-x,1/2-z
x,y,-z
1/2-y,1/2+x,1/2-z
1/2-x,1/2+y,1/2+z
1/2+x,1/2-y,1/2+z
-y,-x,z
y,x,z
loop_
_atom_site_type_symbol
_atom_site_label
_atom_site_fract_x
_atom_site_fract_y
_atom_site_fract_z
Si Si1 0.021967 0.267155 0.000000
Si Si2 0.458316 0.253062 0.134893
Si Si3 0.639724 0.499428 0.377076
Si Si4 0.620447 0.142083 0.000000
Si Si5 0.603792 0.741431 0.720663
Si Si6 0.784180 0.355262 0.142427
Si Si7 0.650264 0.073238 0.500000
Si Si8 0.570486 0.570486 0.924154
O O1 0.028830 0.205236 0.935488
O O2 0.932899 0.313192 0.000000
O O3 0.090030 0.344296 0.000000
O O4 0.396845 0.239383 0.199093
O O5 0.548249 0.226014 0.165682
O O6 0.467322 0.351040 0.116451
O O7 0.421114 0.204306 0.069489
O O8 0.580230 0.419771 0.358933
O O9 0.580501 0.580501 0.399089
O O10 0.696433 0.519457 0.310018
O O11 0.641449 0.203331 0.062005
O O12 0.521797 0.107918 0.000000
O O13 0.680427 0.680427 0.703095
O O14 0.628553 0.826504 0.679581
O O15 0.702106 0.297895 0.160237
O O16 0.500000 0.500000 0.927597
O O17 0.598170 0.598170 0.000000
#
# Coordination Sequence:
#
# PCOD8318142 Si02
#       8
#     8  16  16   8  16  16   8   8
#     4  12  21  39  65  89 121 163 204 243 308 369
#     4  11  22  42  60  86 127 160 198 257 305 362
#     4  10  22  39  60  93 128 156 197 253 312 376
#     4  10  20  39  64  85 122 155 203 258 302 344
#     4  10  21  39  61  86 123 163 198 245 304 363
#     4  10  21  37  63  93 116 154 207 252 299 358
#     4  10  25  40  59  89 120 159 209 252 300 360
#     4  11  22  38  64  94 120 159 205 253 316 368
#
# _framework density 19.736782999999999
#
# number of rings (size 3 to 8) (size 9 to 14) (size 15 to 20)
#    0.000    1.583    3.333    1.500    0.000    4.000 
#    3.000    1.667    0.000    0.000    0.000    0.000 
#    0.000    0.000    0.000    0.000    0.000    0.000 
#
# Total GULP energy -1189690.612698 kJ/mol
# GULP energy per Si atom -12392.610549 kJ/mol
# Density = 1.969186 g / cm^3
# Si number density = 19.736783 Si / 1000 Ang^3
#
#
#
# Elastic Constant Matrix: (Units=GPa)
#
#
# Indices 1 2 3 4 5 6 
#
# 1 75.8764 30.5323 17.6896 0.0000 0.0000 0.0000
# 2 30.5323 75.8764 17.6896 0.0000 0.0000 0.0000
# 3 17.6896 17.6896 110.2048 0.0000 0.0000 0.0000
# 4 0.0000 0.0000 0.0000 29.6714 0.0000 0.0000
# 5 0.0000 0.0000 0.0000 0.0000 29.6714 0.0000
# 6 0.0000 0.0000 0.0000 0.0000 0.0000 31.4234
#
#
#
# Elastic Compliance Matrix: (Units=1/GPa)
#
#
# Indices 1 2 3 4 5 6 
#
# 1 0.015991 -0.006063 -0.001594 0.000000 0.000000 0.000000
# 2 -0.006063 0.015991 -0.001594 0.000000 0.000000 0.000000
# 3 -0.001594 -0.001594 0.009586 0.000000 0.000000 0.000000
# 4 0.000000 0.000000 0.000000 0.033702 0.000000 0.000000
# 5 0.000000 0.000000 0.000000 0.000000 0.033702 0.000000
# 6 0.000000 0.000000 0.000000 0.000000 0.000000 0.031823
#
#
# Mechanical properties :
#
#
# Convention : Reuss Voigt Hill
#
# Bulk Modulus (GPa) = 43.35274 43.75337 43.55306
# Shear Modulus (GPa) = 29.94296 31.22298 30.58297
#
# Velocity S-wave (km/s) = 3.89924 3.98171 3.94069
# Velocity P-wave (km/s) = 6.50271 6.58447 6.54372
#
# Compressibility (1/GPa) = 0.02306659
#
# Stress axis : x y z
#
# Youngs Moduli (GPa) = 62.53685 62.53685 104.32331
#
# Poissons Ratio (x) = 0.37916 0.16624
# Poissons Ratio (y) = 0.37916 0.16624
# Poissons Ratio (z) = 0.09965 0.09965
#
# Static dielectric constant tensor:
#      x y z
#    x 3.669390 0.000000 0.000000 
#    y 0.000000 3.669390 0.000000 
#    z 0.000000 0.000000 3.475980 
# 
# 
# High freq. dielectric constant tensor:
#      x y z
#    x 1.765430 0.000000 0.000000 
#    y 0.000000 1.765430 0.000000 
#    z 0.000000 0.000000 1.774770 
# 
# From -- ./inp_files/7574.got.cif
#   From: 2010.03.12/outbox.cif.g09.slc.cpg/sg136_4_cif.got.tgz:7574.got - 2010.04.06 18:39:43.
