data_PCOD8318682
_publ_section_title
;
Structure prediction by ZEFSAII (Michael W. Deem and Ramdas Pophale) SiO2 
 PCOD8318682
Probable space group: P 42/N M C
;
_chemical_formula_sum "Si O2"
_cell_formula_units_Z 96
_cell_length_a 15.989444
_cell_length_b 15.989444
_cell_length_c 18.825428
_cell_angle_alpha 90.000000
_cell_angle_beta 90.000000
_cell_angle_gamma 90.000000
_cell_volume 4812.952587
_symmetry_space_group_name_H-M "P 42/N M C"
_symmetry_group_IT_number 137
_space_group.IT_coordinate_system_code '2'
_symmetry_cell_setting 'tetragonal'
loop_
_space_group_symop_operation_xyz
x,y,z
1/2-y,x,1/2+z
1/2-x,1/2-y,z
y,1/2-x,1/2+z
1/2+x,-y,-z
-x,1/2+y,-z
1/2+y,1/2+x,1/2-z
-y,-x,1/2-z
-x,-y,-z
1/2+y,-x,1/2-z
1/2+x,1/2+y,-z
-y,1/2+x,1/2-z
1/2-x,y,z
x,1/2-y,z
1/2-y,1/2-x,1/2+z
y,x,1/2+z
loop_
_atom_site_type_symbol
_atom_site_label
_atom_site_fract_x
_atom_site_fract_y
_atom_site_fract_z
Si Si1 0.344944 0.583834 0.179307
Si Si2 0.342103 0.652900 0.027689
Si Si3 0.961399 0.931623 0.798137
Si Si4 0.841625 0.847745 0.688935
Si Si5 0.150526 0.000473 0.557915
Si Si6 0.656515 0.650345 0.031995
O O1 0.363458 0.636543 0.250000
O O2 0.250000 0.550860 0.182450
O O3 0.360294 0.641855 0.111104
O O4 0.408278 0.507574 0.170537
O O5 0.250000 0.614038 0.007953
O O6 0.339323 0.750000 0.010696
O O7 0.417732 0.613037 0.981243
O O8 0.902144 0.874923 0.750839
O O9 0.001124 0.877607 0.860913
O O10 0.037681 0.962320 0.750000
O O11 0.750000 0.890301 0.699134
O O12 0.829925 0.750000 0.693733
O O13 0.878850 0.870558 0.611245
O O14 0.250000 0.000198 0.553120
O O15 0.115650 0.086082 0.521724
O O16 0.750000 0.616326 0.011532
O O17 0.659730 0.750000 0.031108
#
# Coordination Sequence:
#
# PCOD8318682 Si02
#       6
#    16  16  16  16  16  16
#     4  10  21  35  54  83 116 148 184 228 283 347
#     4   9  19  37  59  82 107 144 195 242 287 340
#     4  11  24  37  51  80 119 153 186 227 284 349
#     4   9  18  36  60  82 109 149 195 237 279 339
#     4  10  21  38  62  82 109 150 195 245 292 340
#     4   8  16  31  55  87 114 142 186 236 291 351
#
# _framework density 19.946176000000001
#
# number of rings (size 3 to 8) (size 9 to 14) (size 15 to 20)
#    0.000    2.500    0.000    2.500    4.667    2.833 
#    0.000    3.333    0.000    0.000    0.000    0.000 
#    0.000    0.000    0.000    0.000    0.000    0.000 
#
# Total GULP energy -1189986.117949 kJ/mol
# GULP energy per Si atom -12395.688729 kJ/mol
# Density = 1.990078 g / cm^3
# Si number density = 19.946176 Si / 1000 Ang^3
#
#
#
# Elastic Constant Matrix: (Units=GPa)
#
#
# Indices 1 2 3 4 5 6 
#
# 1 62.5503 25.0742 53.5814 0.0000 0.0000 0.0000
# 2 25.0742 62.5508 53.5812 0.0000 0.0000 0.0000
# 3 53.5814 53.5812 139.9880 0.0000 0.0000 0.0000
# 4 0.0000 0.0000 0.0000 35.2294 0.0000 0.0000
# 5 0.0000 0.0000 0.0000 0.0000 35.2284 0.0000
# 6 0.0000 0.0000 0.0000 0.0000 0.0000 12.3031
#
#
#
# Elastic Compliance Matrix: (Units=1/GPa)
#
#
# Indices 1 2 3 4 5 6 
#
# 1 0.024070 -0.002614 -0.008212 0.000000 0.000000 0.000000
# 2 -0.002614 0.024069 -0.008212 0.000000 0.000000 0.000000
# 3 -0.008212 -0.008212 0.013430 0.000000 0.000000 0.000000
# 4 0.000000 0.000000 0.000000 0.028385 0.000000 0.000000
# 5 0.000000 0.000000 0.000000 0.000000 0.028386 0.000000
# 6 0.000000 0.000000 0.000000 0.000000 0.000000 0.081280
#
#
# Mechanical properties :
#
#
# Convention : Reuss Voigt Hill
#
# Bulk Modulus (GPa) = 42.56711 58.84029 50.70370
# Shear Modulus (GPa) = 20.36418 25.40899 22.88658
#
# Velocity S-wave (km/s) = 3.19871 3.57301 3.39103
# Velocity P-wave (km/s) = 5.91858 6.82536 6.38808
#
# Compressibility (1/GPa) = 0.02349231
#
# Stress axis : x y z
#
# Youngs Moduli (GPa) = 41.54589 41.54645 74.45959
#
# Poissons Ratio (x) = 0.10860 0.61149
# Poissons Ratio (y) = 0.10859 0.61148
# Poissons Ratio (z) = 0.34119 0.34119
#
# Static dielectric constant tensor:
#      x y z
#    x 3.690030 0.000000 0.000000 
#    y 0.000000 3.690060 0.000000 
#    z 0.000000 0.000000 3.761900 
# 
# 
# High freq. dielectric constant tensor:
#      x y z
#    x 1.768000 0.000000 0.000000 
#    y 0.000000 1.768000 0.000000 
#    z 0.000000 0.000000 1.777550 
# 
# From -- ./inp_files/7874.got.cif
#   From: 2010.03.12/outbox.cif.g09.slc.cpg/sg137_4_cif.got.tgz:7874.got - 2010.04.08 09:34:49.
