data_PCOD8318193
_publ_section_title
;
Structure prediction by ZEFSAII (Michael W. Deem and Ramdas Pophale) SiO2 
 PCOD8318193
Probable space group: P 42/M N M
;
_chemical_formula_sum "Si O2"
_cell_formula_units_Z 96
_cell_length_a 24.026007
_cell_length_b 24.026007
_cell_length_c 8.438612
_cell_angle_alpha 90.000000
_cell_angle_beta 90.000000
_cell_angle_gamma 90.000000
_cell_volume 4871.180443
_symmetry_space_group_name_H-M "P 42/M N M"
_symmetry_group_IT_number 136
_symmetry_cell_setting 'tetragonal'
loop_
_space_group_symop_operation_xyz
x,y,z
1/2-y,1/2+x,1/2+z
-x,-y,z
1/2+y,1/2-x,1/2+z
1/2+x,1/2-y,1/2-z
1/2-x,1/2+y,1/2-z
y,x,-z
-y,-x,-z
-x,-y,-z
1/2+y,1/2-x,1/2-z
x,y,-z
1/2-y,1/2+x,1/2-z
1/2-x,1/2+y,1/2+z
1/2+x,1/2-y,1/2+z
-y,-x,z
y,x,z
loop_
_atom_site_type_symbol
_atom_site_label
_atom_site_fract_x
_atom_site_fract_y
_atom_site_fract_z
Si Si1 0.570044 0.800525 0.814451
Si Si2 0.524086 0.918042 0.812681
Si Si3 0.219734 0.133087 0.188210
Si Si4 0.909658 0.999170 0.316413
Si Si5 0.290849 0.509687 0.684461
Si Si6 0.279330 0.808157 0.311276
O O1 0.546002 0.858681 0.746242
O O2 0.530502 0.749062 0.780537
O O3 0.630135 0.785273 0.738438
O O4 0.577612 0.808452 0.000000
O O5 0.465350 0.930762 0.728759
O O6 0.514410 0.916962 0.000000
O O7 0.164753 0.164753 0.251873
O O8 0.220658 0.070925 0.255976
O O9 0.274219 0.166287 0.245605
O O10 0.217612 0.130930 0.000000
O O11 0.892707 0.996254 0.500000
O O12 0.947001 0.053000 0.283101
O O13 0.855096 0.005679 0.210136
O O14 0.943779 0.943779 0.267651
O O15 0.276298 0.505314 0.500000
O O16 0.277057 0.809930 0.500000
O O17 0.223275 0.776726 0.249511
#
# Coordination Sequence:
#
# PCOD8318193 Si02
#       6
#    16  16  16  16  16  16
#     4  10  22  36  53  80 110 145 187 228 269 329
#     4  10  21  37  58  81 109 143 184 234 286 342
#     4   8  15  29  51  78 103 130 169 216 266 317
#     4   9  19  37  59  80 107 148 192 231 274 328
#     4  11  22  33  52  82 115 145 175 225 281 330
#     4   8  15  31  54  75  97 132 177 219 259 311
#
# _framework density 19.707749
#
# number of rings (size 3 to 8) (size 9 to 14) (size 15 to 20)
#    0.000    2.667    0.000    3.500    2.333    3.333 
#    0.000    2.500    0.000    0.000    0.000    4.667 
#    0.000    0.000    0.000    0.000    0.000    0.000 
#
# Total GULP energy -1190160.536517 kJ/mol
# GULP energy per Si atom -12397.505589 kJ/mol
# Density = 1.966289 g / cm^3
# Si number density = 19.707749 Si / 1000 Ang^3
#
#
#
# Elastic Constant Matrix: (Units=GPa)
#
#
# Indices 1 2 3 4 5 6 
#
# 1 136.3113 85.6037 3.5508 0.0000 0.0000 0.0000
# 2 85.6037 136.3113 3.5508 0.0000 0.0000 0.0000
# 3 3.5508 3.5508 13.8002 0.0000 0.0000 0.0000
# 4 0.0000 0.0000 0.0000 22.5026 0.0000 0.0000
# 5 0.0000 0.0000 0.0000 0.0000 22.5026 0.0000
# 6 0.0000 0.0000 0.0000 0.0000 0.0000 26.7647
#
#
#
# Elastic Compliance Matrix: (Units=1/GPa)
#
#
# Indices 1 2 3 4 5 6 
#
# 1 0.012132 -0.007589 -0.001169 0.000000 0.000000 0.000000
# 2 -0.007589 0.012132 -0.001169 0.000000 0.000000 0.000000
# 3 -0.001169 -0.001169 0.073064 0.000000 0.000000 0.000000
# 4 0.000000 0.000000 0.000000 0.044439 0.000000 0.000000
# 5 0.000000 0.000000 0.000000 0.000000 0.044439 0.000000
# 6 0.000000 0.000000 0.000000 0.000000 0.000000 0.037363
#
#
# Mechanical properties :
#
#
# Convention : Reuss Voigt Hill
#
# Bulk Modulus (GPa) = 12.90732 52.42592 32.66662
# Shear Modulus (GPa) = 18.57018 27.26849 22.91934
#
# Velocity S-wave (km/s) = 3.07299 3.72377 3.41392
# Velocity P-wave (km/s) = 4.37659 6.71923 5.67021
#
# Compressibility (1/GPa) = 0.07747543
#
# Stress axis : x y z
#
# Youngs Moduli (GPa) = 82.42477 82.42477 13.68655
#
# Poissons Ratio (x) = 0.62549 0.01600
# Poissons Ratio (y) = 0.62549 0.01600
# Poissons Ratio (z) = 0.09636 0.09636
#
# Static dielectric constant tensor:
#      x y z
#    x 3.793650 0.000000 0.000000 
#    y 0.000000 3.793650 0.000000 
#    z 0.000000 0.000000 3.137240 
# 
# 
# High freq. dielectric constant tensor:
#      x y z
#    x 1.775810 0.000000 0.000000 
#    y 0.000000 1.775810 0.000000 
#    z 0.000000 0.000000 1.728470 
# 
# From -- ./inp_files/1990.got.cif
#   From: 2010.03.12/outbox.cif.g09.slc.cpg/sg136_1_cif.got.tgz:1990.got - 2010.04.06 18:39:43.
