data_PCOD8318205
_publ_section_title
;
Structure prediction by ZEFSAII (Michael W. Deem and Ramdas Pophale) SiO2 
 PCOD8318205
Probable space group: P 42/M N M
;
_chemical_formula_sum "Si O2"
_cell_formula_units_Z 80
_cell_length_a 12.189313
_cell_length_b 12.189313
_cell_length_c 27.692164
_cell_angle_alpha 90.000000
_cell_angle_beta 90.000000
_cell_angle_gamma 90.000000
_cell_volume 4114.483766
_symmetry_space_group_name_H-M "P 42/M N M"
_symmetry_group_IT_number 136
_symmetry_cell_setting 'tetragonal'
loop_
_space_group_symop_operation_xyz
x,y,z
1/2-y,1/2+x,1/2+z
-x,-y,z
1/2+y,1/2-x,1/2+z
1/2+x,1/2-y,1/2-z
1/2-x,1/2+y,1/2-z
y,x,-z
-y,-x,-z
-x,-y,-z
1/2+y,1/2-x,1/2-z
x,y,-z
1/2-y,1/2+x,1/2-z
1/2-x,1/2+y,1/2+z
1/2+x,1/2-y,1/2+z
-y,-x,z
y,x,z
loop_
_atom_site_type_symbol
_atom_site_label
_atom_site_fract_x
_atom_site_fract_y
_atom_site_fract_z
Si Si1 0.498685 0.676995 0.899525
Si Si2 0.718355 0.900528 0.856710
Si Si3 0.072720 0.605956 0.444593
Si Si4 0.601802 0.779374 0.702746
Si Si5 0.514180 0.799495 0.804643
O O1 0.392722 0.607279 0.915288
O O2 0.609702 0.609702 0.909882
O O3 0.500519 0.787546 0.930993
O O4 0.491307 0.702267 0.842560
O O5 0.815018 0.815018 0.847915
O O6 0.682979 0.899289 0.912754
O O7 0.615025 0.872347 0.823128
O O8 0.757443 0.021149 0.840663
O O9 0.109438 0.611361 0.500000
O O10 0.000000 0.500000 0.433414
O O11 0.715427 0.715427 0.696246
O O12 0.544627 0.746921 0.753266
O O13 0.623300 0.908787 0.700599
#
# Coordination Sequence:
#
# PCOD8318205 Si02
#       5
#    16  16  16  16  16
#     4  10  21  37  59  88 122 152 184 241 308 360
#     4  11  23  39  60  87 120 157 196 242 294 349
#     4  10  21  39  63  88 116 154 200 244 290 350
#     4  12  24  37  59  86 116 157 201 245 290 343
#     4  11  21  37  57  82 117 159 200 237 285 349
#
# _framework density 19.443508000000001
#
# number of rings (size 3 to 8) (size 9 to 14) (size 15 to 20)
#    0.000    1.200    2.000    7.200    0.000    3.200 
#    0.000    1.000    0.000    1.800    0.000    1.400 
#    0.000    0.000    0.000    0.000    0.000    0.000 
#
# Total GULP energy -992308.883700 kJ/mol
# GULP energy per Si atom -12403.861046 kJ/mol
# Density = 1.939925 g / cm^3
# Si number density = 19.443508 Si / 1000 Ang^3
#
#
#
# Elastic Constant Matrix: (Units=GPa)
#
#
# Indices 1 2 3 4 5 6 
#
# 1 109.4109 47.5205 35.5758 0.0000 0.0000 0.0000
# 2 47.5205 109.4109 35.5758 0.0000 0.0000 0.0000
# 3 35.5758 35.5758 96.0603 0.0000 0.0000 0.0000
# 4 0.0000 0.0000 0.0000 19.7096 0.0000 0.0000
# 5 0.0000 0.0000 0.0000 0.0000 19.7096 0.0000
# 6 0.0000 0.0000 0.0000 0.0000 0.0000 15.2340
#
#
#
# Elastic Compliance Matrix: (Units=1/GPa)
#
#
# Indices 1 2 3 4 5 6 
#
# 1 0.011908 -0.004250 -0.002836 0.000000 0.000000 0.000000
# 2 -0.004250 0.011908 -0.002836 0.000000 0.000000 0.000000
# 3 -0.002836 -0.002836 0.012511 0.000000 0.000000 0.000000
# 4 0.000000 0.000000 0.000000 0.050737 0.000000 0.000000
# 5 0.000000 0.000000 0.000000 0.000000 0.050737 0.000000
# 6 0.000000 0.000000 0.000000 0.000000 0.000000 0.065643
#
#
# Mechanical properties :
#
#
# Convention : Reuss Voigt Hill
#
# Bulk Modulus (GPa) = 60.67075 61.35849 61.01462
# Shear Modulus (GPa) = 21.85500 24.01133 22.93316
#
# Velocity S-wave (km/s) = 3.35629 3.51797 3.43808
# Velocity P-wave (km/s) = 6.80374 6.93738 6.87089
#
# Compressibility (1/GPa) = 0.01648241
#
# Stress axis : x y z
#
# Youngs Moduli (GPa) = 83.97822 83.97822 79.93044
#
# Poissons Ratio (x) = 0.35689 0.22670
# Poissons Ratio (y) = 0.35689 0.22670
# Poissons Ratio (z) = 0.23818 0.23818
#
# Static dielectric constant tensor:
#      x y z
#    x 3.479040 0.000000 0.000000 
#    y 0.000000 3.479040 0.000000 
#    z 0.000000 0.000000 3.629730 
# 
# 
# High freq. dielectric constant tensor:
#      x y z
#    x 1.753900 0.000000 0.000000 
#    y 0.000000 1.753900 0.000000 
#    z 0.000000 0.000000 1.754270 
# 
# From -- ./inp_files/9536.got.cif
#   From: 2010.03.12/outbox.cif.g09.slc.cpg/sg136_5_cif.got.tgz:9536.got - 2010.04.06 18:39:43.
