data_PCOD8318574
_publ_section_title
;
Structure prediction by ZEFSAII (Michael W. Deem and Ramdas Pophale) SiO2 
 PCOD8318574
Probable space group: P 42/N M C
;
_chemical_formula_sum "Si O2"
_cell_formula_units_Z 112
_cell_length_a 14.582706
_cell_length_b 14.582706
_cell_length_c 30.335251
_cell_angle_alpha 90.000000
_cell_angle_beta 90.000000
_cell_angle_gamma 90.000000
_cell_volume 6450.952335
_symmetry_space_group_name_H-M "P 42/N M C"
_symmetry_group_IT_number 137
_space_group.IT_coordinate_system_code '2'
_symmetry_cell_setting 'tetragonal'
loop_
_space_group_symop_operation_xyz
x,y,z
1/2-y,x,1/2+z
1/2-x,1/2-y,z
y,1/2-x,1/2+z
1/2+x,-y,-z
-x,1/2+y,-z
1/2+y,1/2+x,1/2-z
-y,-x,1/2-z
-x,-y,-z
1/2+y,-x,1/2-z
1/2+x,1/2+y,-z
-y,1/2+x,1/2-z
1/2-x,y,z
x,1/2-y,z
1/2-y,1/2-x,1/2+z
y,x,1/2+z
loop_
_atom_site_type_symbol
_atom_site_label
_atom_site_fract_x
_atom_site_fract_y
_atom_site_fract_z
Si Si1 0.142343 0.146586 0.834855
Si Si2 0.148333 0.642578 0.872614
Si Si3 0.650856 0.952179 0.986223
Si Si4 0.071253 0.145410 0.929805
Si Si5 0.847959 0.106000 0.526200
Si Si6 0.495311 0.350384 0.061571
Si Si7 0.644920 0.469292 0.215901
O O1 0.250000 0.143759 0.842610
O O2 0.110178 0.250000 0.821615
O O3 0.098664 0.113711 0.880899
O O4 0.116292 0.074171 0.796263
O O5 0.250000 0.623381 0.892619
O O6 0.135035 0.750000 0.864356
O O7 0.136791 0.592072 0.827015
O O8 0.071023 0.605508 0.906051
O O9 0.750000 0.905938 0.981518
O O10 0.590318 0.918498 0.944679
O O11 0.666441 0.062070 0.981423
O O12 0.611480 0.925558 0.034108
O O13 0.106612 0.250000 0.938685
O O14 0.960415 0.141129 0.931377
O O15 0.750000 0.161848 0.529872
O O16 0.837177 0.036748 0.486117
O O17 0.462821 0.250000 0.078941
O O18 0.571779 0.428222 0.250000
O O19 0.750000 0.465732 0.234187
#
# Coordination Sequence:
#
# PCOD8318574 Si02
#       7
#    16  16  16  16  16  16  16
#     4   9  18  31  49  76 104 127 158 200 245 295
#     4   9  18  31  49  73 100 132 166 200 242 295
#     4  11  21  29  45  68  96 137 175 209 247 289
#     4   9  17  31  50  71  95 125 165 212 255 290
#     4   9  19  32  44  62  92 130 168 210 252 285
#     4   9  18  32  47  66  94 126 165 209 244 282
#     4  10  20  32  51  77 105 133 157 190 241 301
#
# _framework density 17.361777
#
# number of rings (size 3 to 8) (size 9 to 14) (size 15 to 20)
#    0.000    2.571    0.000    3.857    4.000    3.286 
#    0.000    1.429    0.000    0.857    0.000    2.000 
#    0.000    0.286    0.000    0.000    0.000    0.000 
#
# Total GULP energy -1387473.463603 kJ/mol
# GULP energy per Si atom -12388.155925 kJ/mol
# Density = 1.732226 g / cm^3
# Si number density = 17.361777 Si / 1000 Ang^3
#
#
#
# Elastic Constant Matrix: (Units=GPa)
#
#
# Indices 1 2 3 4 5 6 
#
# 1 85.1866 38.0452 40.6243 0.0000 0.0000 0.0000
# 2 38.0452 85.1857 40.6246 0.0000 0.0000 0.0000
# 3 40.6243 40.6246 63.4898 0.0000 0.0000 0.0000
# 4 0.0000 0.0000 0.0000 24.5724 0.0000 0.0000
# 5 0.0000 0.0000 0.0000 0.0000 24.5726 0.0000
# 6 0.0000 0.0000 0.0000 0.0000 0.0000 9.3289
#
#
#
# Elastic Compliance Matrix: (Units=1/GPa)
#
#
# Indices 1 2 3 4 5 6 
#
# 1 0.017624 -0.003588 -0.008981 0.000000 0.000000 0.000000
# 2 -0.003588 0.017625 -0.008981 0.000000 0.000000 0.000000
# 3 -0.008981 -0.008981 0.027244 0.000000 0.000000 0.000000
# 4 0.000000 0.000000 0.000000 0.040696 0.000000 0.000000
# 5 0.000000 0.000000 0.000000 0.000000 0.040696 0.000000
# 6 0.000000 0.000000 0.000000 0.000000 0.000000 0.107194
#
#
# Mechanical properties :
#
#
# Convention : Reuss Voigt Hill
#
# Bulk Modulus (GPa) = 51.56857 52.49448 52.03152
# Shear Modulus (GPa) = 16.63094 19.33265 17.98180
#
# Velocity S-wave (km/s) = 3.09836 3.34056 3.22174
# Velocity P-wave (km/s) = 6.52431 6.72164 6.62371
#
# Compressibility (1/GPa) = 0.01939166
#
# Stress axis : x y z
#
# Youngs Moduli (GPa) = 56.73930 56.73808 36.70531
#
# Poissons Ratio (x) = 0.20359 0.32965
# Poissons Ratio (y) = 0.20360 0.32967
# Poissons Ratio (z) = 0.50958 0.50959
#
# Static dielectric constant tensor:
#      x y z
#    x 2.753900 0.000000 0.000000 
#    y 0.000000 2.753320 0.000000 
#    z 0.000000 0.000000 2.987200 
# 
# 
# High freq. dielectric constant tensor:
#      x y z
#    x 1.670060 0.000000 0.000000 
#    y 0.000000 1.670060 0.000000 
#    z 0.000000 0.000000 1.624870 
# 
# From -- ./inp_files/10696.got.cif
#   From: 2010.03.12/outbox.cif.g09.slc.cpg/sg137_6_cif.got.tgz:10696.got - 2010.04.08 09:34:49.
