data_PCOD8318191
_publ_section_title
;
Structure prediction by ZEFSAII (Michael W. Deem and Ramdas Pophale) SiO2 
 PCOD8318191
Probable space group: P 42/M N M
;
_chemical_formula_sum "Si O2"
_cell_formula_units_Z 72
_cell_length_a 18.382568
_cell_length_b 18.382568
_cell_length_c 11.869393
_cell_angle_alpha 90.000000
_cell_angle_beta 90.000000
_cell_angle_gamma 90.000000
_cell_volume 4010.891114
_symmetry_space_group_name_H-M "P 42/M N M"
_symmetry_group_IT_number 136
_symmetry_cell_setting 'tetragonal'
loop_
_space_group_symop_operation_xyz
x,y,z
1/2-y,1/2+x,1/2+z
-x,-y,z
1/2+y,1/2-x,1/2+z
1/2+x,1/2-y,1/2-z
1/2-x,1/2+y,1/2-z
y,x,-z
-y,-x,-z
-x,-y,-z
1/2+y,1/2-x,1/2-z
x,y,-z
1/2-y,1/2+x,1/2-z
1/2-x,1/2+y,1/2+z
1/2+x,1/2-y,1/2+z
-y,-x,z
y,x,z
loop_
_atom_site_type_symbol
_atom_site_label
_atom_site_fract_x
_atom_site_fract_y
_atom_site_fract_z
Si Si1 0.709002 0.404401 0.500000
Si Si2 0.847446 0.275998 0.745885
Si Si3 0.060151 0.939850 0.871853
Si Si4 0.172299 0.716019 0.500000
Si Si5 0.495454 0.290935 0.708266
Si Si6 0.759433 0.879162 0.367989
O O1 0.624607 0.375394 0.500000
O O2 0.758524 0.335082 0.500000
O O3 0.728291 0.450903 0.391981
O O4 0.792434 0.207567 0.751550
O O5 0.870484 0.296198 0.616835
O O6 0.923474 0.258057 0.805465
O O7 0.811324 0.344931 0.807395
O O8 0.028408 0.874243 0.799006
O O9 0.083917 0.916084 0.000000
O O10 0.000000 0.000000 0.883089
O O11 0.201011 0.798990 0.500000
O O12 0.539479 0.275561 0.823499
O O13 0.743112 0.883599 0.500000
O O14 0.829497 0.829497 0.341352
#
# Coordination Sequence:
#
# PCOD8318191 Si02
#       6
#     8  16   8   8  16  16
#     4  11  20  35  60  86 114 155 201 239 290 345
#     4  10  21  37  57  84 113 147 194 247 284 337
#     4  11  22  34  53  85 125 157 190 234 285 350
#     4   9  18  36  59  79 107 147 197 248 282 329
#     4  12  22  35  57  88 118 152 193 238 294 345
#     4  10  22  39  58  79 116 158 195 234 290 349
#
# _framework density 17.951122000000002
#
# number of rings (size 3 to 8) (size 9 to 14) (size 15 to 20)
#    0.000    1.444    4.444    2.000    3.111    0.000 
#    0.000    0.556    0.000    2.667    0.000    3.111 
#    0.000    0.000    0.000    0.000    0.000    0.000 
#
# Total GULP energy -892503.004225 kJ/mol
# GULP energy per Si atom -12395.875059 kJ/mol
# Density = 1.791026 g / cm^3
# Si number density = 17.951122 Si / 1000 Ang^3
#
#
#
# Elastic Constant Matrix: (Units=GPa)
#
#
# Indices 1 2 3 4 5 6 
#
# 1 42.3245 76.7695 34.8009 0.0000 0.0000 0.0000
# 2 76.7695 42.3282 34.8006 0.0000 0.0000 0.0000
# 3 34.8009 34.8006 107.1200 0.0000 0.0000 0.0000
# 4 0.0000 0.0000 0.0000 -136.8826 0.0000 0.0000
# 5 0.0000 0.0000 0.0000 0.0000 -137.1717 0.0000
# 6 0.0000 0.0000 0.0000 0.0000 0.0000 32.8848
#
#
#
# Elastic Compliance Matrix: (Units=1/GPa)
#
#
# Indices 1 2 3 4 5 6 
#
# 1 -0.009335 0.019699 -0.003367 0.000000 0.000000 0.000000
# 2 0.019699 -0.009334 -0.003367 0.000000 0.000000 0.000000
# 3 -0.003367 -0.003367 0.011523 0.000000 0.000000 0.000000
# 4 0.000000 0.000000 0.000000 -0.007306 0.000000 0.000000
# 5 0.000000 0.000000 0.000000 0.000000 -0.007290 0.000000
# 6 0.000000 0.000000 0.000000 0.000000 0.000000 0.030409
#
#
# Mechanical properties :
#
#
# Convention : Reuss Voigt Hill
#
# Bulk Modulus (GPa) = 53.23862 53.83498 53.53680
# Shear Modulus (GPa) = -454.53125 -45.20711 -249.86918
#
# Velocity S-wave (km/s) = -15.92968 -5.02376 -11.81086
# Velocity P-wave (km/s) = 17.56751 1.89630 12.49427
#
# Compressibility (1/GPa) = 0.01878336
#
# Stress axis : x y z
#
# Youngs Moduli (GPa) = -107.12290 -107.13652 86.78191
#
# Poissons Ratio (x) = 2.11047 0.29219
# Poissons Ratio (y) = 2.11020 0.29223
# Poissons Ratio (z) = -0.36067 -0.36077
#
# Static dielectric constant tensor:
#      x y z
#    x 3.193970 0.000000 0.000000 
#    y 0.000000 3.193980 0.000000 
#    z 0.000000 0.000000 3.572720 
# 
# 
# High freq. dielectric constant tensor:
#      x y z
#    x 1.679040 0.000000 0.000000 
#    y 0.000000 1.679040 0.000000 
#    z 0.000000 0.000000 1.706390 
# 
# From -- ./inp_files/3486.got.cif
#   From: 2010.03.12/outbox.cif.g09.slc.cpg/sg136_2_cif.got.tgz:3486.got - 2010.04.06 18:39:43.
