data_PCOD8318869
_publ_section_title
;
Structure prediction by ZEFSAII (Michael W. Deem and Ramdas Pophale) SiO2 
 PCOD8318869
Probable space group: P 42/N C M
;
_chemical_formula_sum "Si O2"
_cell_formula_units_Z 112
_cell_length_a 13.740611
_cell_length_b 13.740611
_cell_length_c 31.695678
_cell_angle_alpha 90.000000
_cell_angle_beta 90.000000
_cell_angle_gamma 90.000000
_cell_volume 5984.283171
_symmetry_space_group_name_H-M "P 42/N C M"
_symmetry_group_IT_number 138
_space_group.IT_coordinate_system_code '2'
_symmetry_cell_setting 'tetragonal'
loop_
_space_group_symop_operation_xyz
x,y,z
1/2-y,x,1/2+z
1/2-x,1/2-y,z
y,1/2-x,1/2+z
1/2+x,-y,1/2-z
-x,1/2+y,1/2-z
1/2+y,1/2+x,-z
-y,-x,-z
-x,-y,-z
1/2+y,-x,1/2-z
1/2+x,1/2+y,-z
-y,1/2+x,1/2-z
1/2-x,y,1/2+z
x,1/2-y,1/2+z
1/2-y,1/2-x,z
y,x,z
loop_
_atom_site_type_symbol
_atom_site_label
_atom_site_fract_x
_atom_site_fract_y
_atom_site_fract_z
Si Si1 0.624131 0.034447 0.222259
Si Si2 0.814387 0.525952 0.023027
Si Si3 0.835286 0.380438 0.630280
Si Si4 0.877925 0.331349 0.143846
Si Si5 0.542394 0.385566 0.560272
Si Si6 0.852071 0.007787 0.210771
Si Si7 0.543367 0.385712 0.957932
O O1 0.592937 0.107838 0.184914
O O2 0.738722 0.009124 0.224203
O O3 0.592035 0.089410 0.264661
O O4 0.566730 0.933271 0.216272
O O5 0.876259 0.623742 0.034276
O O6 0.854360 0.425856 0.043565
O O7 0.703814 0.533610 0.039515
O O8 0.811952 0.509063 0.972415
O O9 0.719933 0.376480 0.624692
O O10 0.869575 0.282574 0.654389
O O11 0.862838 0.469777 0.660949
O O12 0.880857 0.390115 0.583884
O O13 0.956382 0.338205 0.106408
O O14 0.483729 0.483729 0.562940
O O15 0.902219 0.902219 0.219516
O O16 0.485293 0.485293 0.954366
O O17 0.611271 0.388730 0.000000
#
# Coordination Sequence:
#
# PCOD8318869 Si02
#       7
#    16  16  16  16  16  16  16
#     4  10  21  36  58  86 113 145 184 228 275 330
#     4   9  18  32  49  70  98 136 176 216 275 332
#     4  10  20  33  51  75 103 139 179 218 272 328
#     4  10  18  31  52  79 104 132 173 226 271 321
#     4   9  16  29  49  72 101 130 164 224 278 318
#     4  10  21  38  57  80 113 148 184 227 275 332
#     4  11  22  35  49  70 104 140 180 229 269 321
#
# _framework density 18.715692000000001
#
# number of rings (size 3 to 8) (size 9 to 14) (size 15 to 20)
#    0.000    2.143    1.429    3.429    0.000    2.000 
#    0.000    0.000    0.000    1.714    0.000    0.000 
#    0.000   20.571    0.000    0.000    0.000    0.000 
#
# Total GULP energy -1388021.987359 kJ/mol
# GULP energy per Si atom -12393.053459 kJ/mol
# Density = 1.867309 g / cm^3
# Si number density = 18.715692 Si / 1000 Ang^3
#
#
#
# Elastic Constant Matrix: (Units=GPa)
#
#
# Indices 1 2 3 4 5 6 
#
# 1 80.5758 31.0117 32.9314 0.0000 0.0000 0.0000
# 2 31.0117 80.5760 32.9315 0.0000 0.0000 0.0000
# 3 32.9314 32.9315 93.1635 0.0000 0.0000 0.0000
# 4 0.0000 0.0000 0.0000 -15.0081 0.0000 0.0000
# 5 0.0000 0.0000 0.0000 0.0000 -15.0122 0.0000
# 6 0.0000 0.0000 0.0000 0.0000 0.0000 13.5678
#
#
#
# Elastic Compliance Matrix: (Units=1/GPa)
#
#
# Indices 1 2 3 4 5 6 
#
# 1 0.015750 -0.004426 -0.004003 0.000000 0.000000 0.000000
# 2 -0.004426 0.015750 -0.004003 0.000000 0.000000 0.000000
# 3 -0.004003 -0.004003 0.013564 0.000000 0.000000 0.000000
# 4 0.000000 0.000000 0.000000 -0.066631 0.000000 0.000000
# 5 0.000000 0.000000 0.000000 0.000000 -0.066613 0.000000
# 6 0.000000 0.000000 0.000000 0.000000 0.000000 0.073704
#
#
# Mechanical properties :
#
#
# Convention : Reuss Voigt Hill
#
# Bulk Modulus (GPa) = 49.50353 49.78495 49.64424
# Shear Modulus (GPa) = 292.03855 7.20555 149.62205
#
# Velocity S-wave (km/s) = 12.50512 1.96427 8.95088
# Velocity P-wave (km/s) = 15.33010 5.63940 11.55021
#
# Compressibility (1/GPa) = 0.02020058
#
# Stress axis : x y z
#
# Youngs Moduli (GPa) = 63.49185 63.49195 73.72617
#
# Poissons Ratio (x) = 0.28100 0.29512
# Poissons Ratio (y) = 0.28100 0.29512
# Poissons Ratio (z) = 0.25415 0.25415
#
# Static dielectric constant tensor:
#      x y z
#    x 3.215670 0.000000 0.000000 
#    y 0.000000 3.215670 0.000000 
#    z 0.000000 0.000000 3.135750 
# 
# 
# High freq. dielectric constant tensor:
#      x y z
#    x 1.710100 0.000000 0.000000 
#    y 0.000000 1.710100 0.000000 
#    z 0.000000 0.000000 1.734630 
# 
# From -- ./inp_files/8271.got.cif
#   From: 2010.03.12/outbox.cif.g09.slc.cpg/sg138_5_cif.got.tgz:8271.got - 2010.04.08 09:41:05.
