data_PCOD8318704
_publ_section_title
;
Structure prediction by ZEFSAII (Michael W. Deem and Ramdas Pophale) SiO2 
 PCOD8318704
Probable space group: P 42/N M C
;
_chemical_formula_sum "Si O2"
_cell_formula_units_Z 112
_cell_length_a 15.166837
_cell_length_b 15.166837
_cell_length_c 27.159918
_cell_angle_alpha 90.000000
_cell_angle_beta 90.000000
_cell_angle_gamma 90.000000
_cell_volume 6247.675912
_symmetry_space_group_name_H-M "P 42/N M C"
_symmetry_group_IT_number 137
_space_group.IT_coordinate_system_code '2'
_symmetry_cell_setting 'tetragonal'
loop_
_space_group_symop_operation_xyz
x,y,z
1/2-y,x,1/2+z
1/2-x,1/2-y,z
y,1/2-x,1/2+z
1/2+x,-y,-z
-x,1/2+y,-z
1/2+y,1/2+x,1/2-z
-y,-x,1/2-z
-x,-y,-z
1/2+y,-x,1/2-z
1/2+x,1/2+y,-z
-y,1/2+x,1/2-z
1/2-x,y,z
x,1/2-y,z
1/2-y,1/2-x,1/2+z
y,x,1/2+z
loop_
_atom_site_type_symbol
_atom_site_label
_atom_site_fract_x
_atom_site_fract_y
_atom_site_fract_z
Si Si1 0.650571 0.349196 0.668458
Si Si2 0.150689 0.922036 0.062718
Si Si3 0.557019 0.988892 0.402002
Si Si4 0.351579 0.154315 0.652465
Si Si5 0.649549 0.148515 0.043439
Si Si6 0.348350 0.146739 0.760442
Si Si7 0.491890 0.462360 0.801607
O O1 0.750000 0.374337 0.682500
O O2 0.628265 0.250000 0.685825
O O3 0.640783 0.357772 0.609731
O O4 0.584741 0.413246 0.696743
O O5 0.250000 0.965053 0.061451
O O6 0.136776 0.862652 0.014732
O O7 0.069820 0.991474 0.064628
O O8 0.589685 0.075986 0.429609
O O9 0.519130 0.022762 0.350342
O O10 0.634007 0.919257 0.388910
O O11 0.250000 0.169231 0.661589
O O12 0.393119 0.250000 0.636863
O O13 0.389946 0.125229 0.705928
O O14 0.750000 0.120663 0.058804
O O15 0.633399 0.250000 0.057433
O O16 0.250000 0.106222 0.765970
O O17 0.344222 0.250000 0.768803
O O18 0.411452 0.106818 0.802041
O O19 0.484093 0.515908 0.750000
#
# Coordination Sequence:
#
# PCOD8318704 Si02
#       7
#    16  16  16  16  16  16  16
#     4   9  18  31  48  73 106 142 173 201 240 301
#     4   9  18  33  54  79 105 132 163 205 258 314
#     4  11  20  32  52  77 106 130 169 209 259 308
#     4   9  17  30  49  72  98 129 166 209 253 299
#     4  10  21  37  56  75  98 132 173 215 259 311
#     4   9  18  33  51  68  91 131 178 215 251 298
#     4  11  21  32  46  72 103 137 168 210 259 303
#
# _framework density 17.926666999999998
#
# number of rings (size 3 to 8) (size 9 to 14) (size 15 to 20)
#    0.000    2.286    1.429    3.000    0.000    4.000 
#    0.000    0.714    0.000    0.000    0.000    1.000 
#    0.000    4.571    0.000    0.000    0.000    0.000 
#
# Total GULP energy -1387841.881789 kJ/mol
# GULP energy per Si atom -12391.445373 kJ/mol
# Density = 1.788587 g / cm^3
# Si number density = 17.926667 Si / 1000 Ang^3
#
#
#
# Elastic Constant Matrix: (Units=GPa)
#
#
# Indices 1 2 3 4 5 6 
#
# 1 75.1493 28.8121 26.3276 0.0000 0.0000 0.0000
# 2 28.8121 75.1489 26.3275 0.0000 0.0000 0.0000
# 3 26.3276 26.3275 68.3631 0.0000 0.0000 0.0000
# 4 0.0000 0.0000 0.0000 24.8978 0.0000 0.0000
# 5 0.0000 0.0000 0.0000 0.0000 24.8978 0.0000
# 6 0.0000 0.0000 0.0000 0.0000 0.0000 29.7059
#
#
#
# Elastic Compliance Matrix: (Units=1/GPa)
#
#
# Indices 1 2 3 4 5 6 
#
# 1 0.016765 -0.004816 -0.004602 0.000000 0.000000 0.000000
# 2 -0.004816 0.016765 -0.004602 0.000000 0.000000 0.000000
# 3 -0.004602 -0.004602 0.018172 0.000000 0.000000 0.000000
# 4 0.000000 0.000000 0.000000 0.040164 0.000000 0.000000
# 5 0.000000 0.000000 0.000000 0.000000 0.040164 0.000000
# 6 0.000000 0.000000 0.000000 0.000000 0.000000 0.033663
#
#
# Mechanical properties :
#
#
# Convention : Reuss Voigt Hill
#
# Bulk Modulus (GPa) = 42.25846 42.39953 42.32900
# Shear Modulus (GPa) = 24.79884 25.04658 24.92271
#
# Velocity S-wave (km/s) = 3.72338 3.74193 3.73266
# Velocity P-wave (km/s) = 6.48913 6.50941 6.49928
#
# Compressibility (1/GPa) = 0.02366390
#
# Stress axis : x y z
#
# Youngs Moduli (GPa) = 59.64657 59.64632 55.02849
#
# Poissons Ratio (x) = 0.28723 0.25324
# Poissons Ratio (y) = 0.28723 0.25324
# Poissons Ratio (z) = 0.27450 0.27450
#
# Static dielectric constant tensor:
#      x y z
#    x 3.307390 0.000000 0.000000 
#    y 0.000000 3.307390 0.000000 
#    z 0.000000 0.000000 3.225640 
# 
# 
# High freq. dielectric constant tensor:
#      x y z
#    x 1.690590 0.000000 0.000000 
#    y 0.000000 1.690590 0.000000 
#    z 0.000000 0.000000 1.680830 
# 
# From -- ./inp_files/9753.got.cif
#   From: 2010.03.12/outbox.cif.g09.slc.cpg/sg137_5_cif.got.tgz:9753.got - 2010.04.08 09:34:49.
