data_PCOD8318409
_publ_section_title
;
Structure prediction by ZEFSAII (Michael W. Deem and Ramdas Pophale) SiO2 
 PCOD8318409
Probable space group: P 42/N M C
;
_chemical_formula_sum "Si O2"
_cell_formula_units_Z 112
_cell_length_a 15.083129
_cell_length_b 15.083129
_cell_length_c 26.788145
_cell_angle_alpha 90.000000
_cell_angle_beta 90.000000
_cell_angle_gamma 90.000000
_cell_volume 6094.323894
_symmetry_space_group_name_H-M "P 42/N M C"
_symmetry_group_IT_number 137
_space_group.IT_coordinate_system_code '2'
_symmetry_cell_setting 'tetragonal'
loop_
_space_group_symop_operation_xyz
x,y,z
1/2-y,x,1/2+z
1/2-x,1/2-y,z
y,1/2-x,1/2+z
1/2+x,-y,-z
-x,1/2+y,-z
1/2+y,1/2+x,1/2-z
-y,-x,1/2-z
-x,-y,-z
1/2+y,-x,1/2-z
1/2+x,1/2+y,-z
-y,1/2+x,1/2-z
1/2-x,y,z
x,1/2-y,z
1/2-y,1/2-x,1/2+z
y,x,1/2+z
loop_
_atom_site_type_symbol
_atom_site_label
_atom_site_fract_x
_atom_site_fract_y
_atom_site_fract_z
Si Si1 0.041746 0.482363 0.446771
Si Si2 0.354751 0.150267 0.793803
Si Si3 0.498154 0.151784 0.369336
Si Si4 0.349435 0.349483 0.998828
Si Si5 0.602000 0.648869 0.816380
Si Si6 0.396951 0.650411 0.804308
Si Si7 0.151267 0.473860 0.093054
O O1 0.131479 0.425243 0.456766
O O2 0.000000 0.500000 0.500000
O O3 0.981680 0.414239 0.415033
O O4 0.050071 0.575066 0.415280
O O5 0.250000 0.138789 0.792886
O O6 0.383589 0.250000 0.809182
O O7 0.388884 0.129059 0.738046
O O8 0.391146 0.079701 0.834381
O O9 0.471535 0.250000 0.388406
O O10 0.589773 0.162343 0.339747
O O11 0.250000 0.364698 0.976602
O O12 0.362088 0.250000 0.016826
O O13 0.363886 0.406971 0.047846
O O14 0.638102 0.750000 0.824142
O O15 0.497270 0.648437 0.822930
O O16 0.643166 0.580903 0.855949
O O17 0.391336 0.608665 0.750000
O O18 0.358802 0.750000 0.804980
O O19 0.250000 0.516916 0.091332
#
# Coordination Sequence:
#
# PCOD8318409 Si02
#       7
#    16  16  16  16  16  16  16
#     4  10  21  36  52  75 103 135 173 226 279 320
#     4   9  18  31  49  76 107 135 166 209 263 316
#     4  11  21  35  53  74 104 143 181 218 265 322
#     4   9  18  33  54  79 102 130 174 225 278 331
#     4  10  18  30  50  76 106 139 174 214 261 309
#     4  11  21  34  52  76 109 149 184 213 251 315
#     4  10  19  32  52  76 104 139 176 216 266 323
#
# _framework density 18.377756999999999
#
# number of rings (size 3 to 8) (size 9 to 14) (size 15 to 20)
#    0.000    2.000    2.857    1.714    0.000    3.571 
#    0.000    1.429    0.000    0.429    0.000    0.000 
#    0.000    0.000    0.000    0.000    0.000    0.000 
#
# Total GULP energy -1387727.224139 kJ/mol
# GULP energy per Si atom -12390.421644 kJ/mol
# Density = 1.833593 g / cm^3
# Si number density = 18.377757 Si / 1000 Ang^3
#
#
#
# Elastic Constant Matrix: (Units=GPa)
#
#
# Indices 1 2 3 4 5 6 
#
# 1 84.5004 29.5539 32.2629 0.0000 0.0000 0.0000
# 2 29.5539 84.5011 32.2626 0.0000 0.0000 0.0000
# 3 32.2629 32.2626 92.3709 0.0000 0.0000 0.0000
# 4 0.0000 0.0000 0.0000 18.5577 0.0000 0.0000
# 5 0.0000 0.0000 0.0000 0.0000 18.5575 0.0000
# 6 0.0000 0.0000 0.0000 0.0000 0.0000 20.0461
#
#
#
# Elastic Compliance Matrix: (Units=1/GPa)
#
#
# Indices 1 2 3 4 5 6 
#
# 1 0.014563 -0.003636 -0.003817 0.000000 0.000000 0.000000
# 2 -0.003636 0.014563 -0.003816 0.000000 0.000000 0.000000
# 3 -0.003817 -0.003816 0.013492 0.000000 0.000000 0.000000
# 4 0.000000 0.000000 0.000000 0.053886 0.000000 0.000000
# 5 0.000000 0.000000 0.000000 0.000000 0.053887 0.000000
# 6 0.000000 0.000000 0.000000 0.000000 0.000000 0.049885
#
#
# Mechanical properties :
#
#
# Convention : Reuss Voigt Hill
#
# Bulk Modulus (GPa) = 49.80139 49.94790 49.87464
# Shear Modulus (GPa) = 21.78579 22.58513 22.18546
#
# Velocity S-wave (km/s) = 3.44676 3.50943 3.47823
# Velocity P-wave (km/s) = 6.55727 6.60749 6.58243
#
# Compressibility (1/GPa) = 0.02007976
#
# Stress axis : x y z
#
# Youngs Moduli (GPa) = 68.66613 68.66695 74.11858
#
# Poissons Ratio (x) = 0.24969 0.28287
# Poissons Ratio (y) = 0.24969 0.28287
# Poissons Ratio (z) = 0.26207 0.26206
#
# Static dielectric constant tensor:
#      x y z
#    x 3.430420 0.000000 0.000000 
#    y 0.000000 3.430420 0.000000 
#    z 0.000000 0.000000 3.461100 
# 
# 
# High freq. dielectric constant tensor:
#      x y z
#    x 1.693080 0.000000 0.000000 
#    y 0.000000 1.693080 0.000000 
#    z 0.000000 0.000000 1.717500 
# 
# From -- ./inp_files/9781.got.cif
#   From: 2010.03.12/outbox.cif.g09.slc.cpg/sg137_5_cif.got.tgz:9781.got - 2010.04.08 09:34:49.
