data_PCOD8318416
_publ_section_title
;
Structure prediction by ZEFSAII (Michael W. Deem and Ramdas Pophale) SiO2 
 PCOD8318416
Probable space group: P 42/N M C
;
_chemical_formula_sum "Si O2"
_cell_formula_units_Z 96
_cell_length_a 14.121845
_cell_length_b 14.121845
_cell_length_c 30.564891
_cell_angle_alpha 90.000000
_cell_angle_beta 90.000000
_cell_angle_gamma 90.000000
_cell_volume 6095.449425
_symmetry_space_group_name_H-M "P 42/N M C"
_symmetry_group_IT_number 137
_space_group.IT_coordinate_system_code '2'
_symmetry_cell_setting 'tetragonal'
loop_
_space_group_symop_operation_xyz
x,y,z
1/2-y,x,1/2+z
1/2-x,1/2-y,z
y,1/2-x,1/2+z
1/2+x,-y,-z
-x,1/2+y,-z
1/2+y,1/2+x,1/2-z
-y,-x,1/2-z
-x,-y,-z
1/2+y,-x,1/2-z
1/2+x,1/2+y,-z
-y,1/2+x,1/2-z
1/2-x,y,z
x,1/2-y,z
1/2-y,1/2-x,1/2+z
y,x,1/2+z
loop_
_atom_site_type_symbol
_atom_site_label
_atom_site_fract_x
_atom_site_fract_y
_atom_site_fract_z
Si Si1 0.544548 0.150814 0.446801
Si Si2 0.517193 0.136535 0.122042
Si Si3 0.462755 0.356134 0.580926
Si Si4 0.856525 0.396336 0.531032
Si Si5 0.643591 0.890654 0.508353
Si Si6 0.362305 0.855275 0.701773
O O1 0.558365 0.250000 0.420986
O O2 0.593621 0.067923 0.420364
O O3 0.597009 0.166680 0.493189
O O4 0.431403 0.138602 0.454135
O O5 0.511439 0.250000 0.118869
O O6 0.414325 0.087777 0.120240
O O7 0.570752 0.101268 0.165613
O O8 0.470368 0.250000 0.598510
O O9 0.570127 0.393664 0.571797
O O10 0.395392 0.359031 0.538506
O O11 0.750000 0.361776 0.544668
O O12 0.849762 0.497797 0.509174
O O13 0.750000 0.847932 0.516236
O O14 0.392471 0.892471 0.750000
O O15 0.250000 0.848383 0.699953
O O16 0.404423 0.750000 0.692704
#
# Coordination Sequence:
#
# PCOD8318416 Si02
#       6
#    16  16  16  16  16  16
#     4  11  20  29  43  64  88 115 151 189 227 265
#     4  11  20  31  45  66  94 117 146 185 221 260
#     4  11  21  32  45  63  89 120 157 194 230 267
#     4  10  18  31  47  60  84 121 157 194 231 262
#     4  10  18  31  46  58  84 125 160 191 225 262
#     4   8  15  29  49  72  95 117 139 167 214 274
#
# _framework density 15.749453000000001
#
# number of rings (size 3 to 8) (size 9 to 14) (size 15 to 20)
#    0.000    1.833    3.333    5.000    0.000    5.333 
#    0.000    0.000    0.000    0.000    0.000    2.333 
#    0.000    5.333    0.000    0.000    0.000    0.000 
#
# Total GULP energy -1189317.089746 kJ/mol
# GULP energy per Si atom -12388.719685 kJ/mol
# Density = 1.571361 g / cm^3
# Si number density = 15.749453 Si / 1000 Ang^3
#
#
#
# Elastic Constant Matrix: (Units=GPa)
#
#
# Indices 1 2 3 4 5 6 
#
# 1 103.7820 26.7140 29.1709 0.0000 0.0000 0.0000
# 2 26.7140 103.7820 29.1709 0.0000 0.0000 0.0000
# 3 29.1709 29.1709 69.7644 0.0000 0.0000 0.0000
# 4 0.0000 0.0000 0.0000 16.3773 0.0000 0.0000
# 5 0.0000 0.0000 0.0000 0.0000 16.3773 0.0000
# 6 0.0000 0.0000 0.0000 0.0000 0.0000 -4.8723
#
#
#
# Elastic Compliance Matrix: (Units=1/GPa)
#
#
# Indices 1 2 3 4 5 6 
#
# 1 0.011200 -0.001775 -0.003941 0.000000 0.000000 0.000000
# 2 -0.001775 0.011200 -0.003941 0.000000 0.000000 0.000000
# 3 -0.003941 -0.003941 0.017630 0.000000 0.000000 0.000000
# 4 0.000000 0.000000 0.000000 0.061060 0.000000 0.000000
# 5 0.000000 0.000000 0.000000 0.000000 0.061060 0.000000
# 6 0.000000 0.000000 0.000000 0.000000 0.000000 -0.205242
#
#
# Mechanical properties :
#
#
# Convention : Reuss Voigt Hill
#
# Bulk Modulus (GPa) = 48.27205 49.71556 48.99380
# Shear Modulus (GPa) = -296.35113 18.39462 -138.97826
#
# Velocity S-wave (km/s) = -13.73224 3.42124 -9.40398
# Velocity P-wave (km/s) = 14.85652 6.87325 9.31328
#
# Compressibility (1/GPa) = 0.02071592
#
# Stress axis : x y z
#
# Youngs Moduli (GPa) = 89.28361 89.28361 56.72269
#
# Poissons Ratio (x) = 0.15850 0.22354
# Poissons Ratio (y) = 0.15850 0.22354
# Poissons Ratio (z) = 0.35186 0.35186
#
# Static dielectric constant tensor:
#      x y z
#    x 3.175140 0.000000 0.000000 
#    y 0.000000 3.175140 0.000000 
#    z 0.000000 0.000000 2.766250 
# 
# 
# High freq. dielectric constant tensor:
#      x y z
#    x 1.609520 0.000000 0.000000 
#    y 0.000000 1.609520 0.000000 
#    z 0.000000 0.000000 1.543730 
# 
# From -- ./inp_files/10590.got.cif
#   From: 2010.03.12/outbox.cif.g09.slc.cpg/sg137_6_cif.got.tgz:10590.got - 2010.04.08 09:34:49.
