data_PCOD8318737
_publ_section_title
;
Structure prediction by ZEFSAII (Michael W. Deem and Ramdas Pophale) SiO2 
 PCOD8318737
Probable space group: P 42/N M C
;
_chemical_formula_sum "Si O2"
_cell_formula_units_Z 96
_cell_length_a 14.822359
_cell_length_b 14.822359
_cell_length_c 19.846517
_cell_angle_alpha 90.000000
_cell_angle_beta 90.000000
_cell_angle_gamma 90.000000
_cell_volume 4360.325954
_symmetry_space_group_name_H-M "P 42/N M C"
_symmetry_group_IT_number 137
_space_group.IT_coordinate_system_code '2'
_symmetry_cell_setting 'tetragonal'
loop_
_space_group_symop_operation_xyz
x,y,z
1/2-y,x,1/2+z
1/2-x,1/2-y,z
y,1/2-x,1/2+z
1/2+x,-y,-z
-x,1/2+y,-z
1/2+y,1/2+x,1/2-z
-y,-x,1/2-z
-x,-y,-z
1/2+y,-x,1/2-z
1/2+x,1/2+y,-z
-y,1/2+x,1/2-z
1/2-x,y,z
x,1/2-y,z
1/2-y,1/2-x,1/2+z
y,x,1/2+z
loop_
_atom_site_type_symbol
_atom_site_label
_atom_site_fract_x
_atom_site_fract_y
_atom_site_fract_z
Si Si1 0.849997 0.351009 0.424406
Si Si2 0.851042 0.533486 0.007807
Si Si3 0.151449 0.535137 0.703844
Si Si4 0.029515 0.353510 0.890980
Si Si5 0.851331 0.912465 0.759337
Si Si6 0.149381 0.953584 0.126108
O O1 0.750000 0.365053 0.456138
O O2 0.856675 0.250000 0.392084
O O3 0.869285 0.428818 0.370281
O O4 0.925929 0.363085 0.480478
O O5 0.750000 0.566271 0.027978
O O6 0.923252 0.589814 0.049757
O O7 0.866226 0.537448 0.926986
O O8 0.072265 0.572265 0.750000
O O9 0.250000 0.570351 0.726964
O O10 0.152591 0.426355 0.707823
O O11 0.039567 0.250000 0.911420
O O12 0.076439 0.373748 0.819567
O O13 0.924250 0.376324 0.884663
O O14 0.750000 0.872017 0.768232
O O15 0.858082 0.007752 0.798264
O O16 0.250000 0.912754 0.114639
#
# Coordination Sequence:
#
# PCOD8318737 Si02
#       6
#    16  16  16  16  16  16
#     4   9  18  32  52  82 116 147 184 232 288 351
#     4  10  21  38  61  87 117 154 191 233 287 345
#     4  11  21  33  54  82 114 151 188 232 286 347
#     4  11  23  38  60  88 118 154 196 241 287 341
#     4  10  22  40  60  83 113 153 200 246 292 341
#     4  10  21  39  62  85 114 152 194 243 295 345
#
# _framework density 22.016701999999999
#
# number of rings (size 3 to 8) (size 9 to 14) (size 15 to 20)
#    0.000    1.833    0.000    4.500    0.000    4.500 
#    0.000    5.833    0.000    6.000    0.000    0.000 
#    0.000    0.000    0.000    0.000    0.000    0.167 
#
# Total GULP energy -1189844.549345 kJ/mol
# GULP energy per Si atom -12394.214056 kJ/mol
# Density = 2.196659 g / cm^3
# Si number density = 22.016702 Si / 1000 Ang^3
#
#
#
# Elastic Constant Matrix: (Units=GPa)
#
#
# Indices 1 2 3 4 5 6 
#
# 1 76.1277 16.5550 10.5897 0.0000 0.0000 0.0000
# 2 16.5550 76.1277 10.5897 0.0000 0.0000 0.0000
# 3 10.5897 10.5897 63.1546 0.0000 0.0000 0.0000
# 4 0.0000 0.0000 0.0000 20.6499 0.0000 0.0000
# 5 0.0000 0.0000 0.0000 0.0000 20.6499 0.0000
# 6 0.0000 0.0000 0.0000 0.0000 0.0000 26.8573
#
#
#
# Elastic Compliance Matrix: (Units=1/GPa)
#
#
# Indices 1 2 3 4 5 6 
#
# 1 0.014003 -0.002783 -0.001881 0.000000 0.000000 0.000000
# 2 -0.002783 0.014003 -0.001881 0.000000 0.000000 0.000000
# 3 -0.001881 -0.001881 0.016465 0.000000 0.000000 0.000000
# 4 0.000000 0.000000 0.000000 0.048426 0.000000 0.000000
# 5 0.000000 0.000000 0.000000 0.000000 0.048426 0.000000
# 6 0.000000 0.000000 0.000000 0.000000 0.000000 0.037234
#
#
# Mechanical properties :
#
#
# Convention : Reuss Voigt Hill
#
# Bulk Modulus (GPa) = 31.86866 32.31989 32.09428
# Shear Modulus (GPa) = 24.73915 25.47645 25.10780
#
# Velocity S-wave (km/s) = 3.35573 3.40537 3.38064
# Velocity P-wave (km/s) = 5.43330 5.49305 5.46326
#
# Compressibility (1/GPa) = 0.03137879
#
# Stress axis : x y z
#
# Youngs Moduli (GPa) = 71.41431 71.41431 60.73470
#
# Poissons Ratio (x) = 0.19877 0.11426
# Poissons Ratio (y) = 0.19877 0.11426
# Poissons Ratio (z) = 0.13435 0.13435
#
# Static dielectric constant tensor:
#      x y z
#    x 3.921920 0.000000 0.000000 
#    y 0.000000 3.921920 0.000000 
#    z 0.000000 0.000000 3.962600 
# 
# 
# High freq. dielectric constant tensor:
#      x y z
#    x 1.859610 0.000000 0.000000 
#    y 0.000000 1.859610 0.000000 
#    z 0.000000 0.000000 1.865640 
# 
# From -- ./inp_files/7825.got.cif
#   From: 2010.03.12/outbox.cif.g09.slc.cpg/sg137_4_cif.got.tgz:7825.got - 2010.04.08 09:34:49.
