data_PCOD8318543
_publ_section_title
;
Structure prediction by ZEFSAII (Michael W. Deem and Ramdas Pophale) SiO2 
 PCOD8318543
Probable space group: P 42/N M C
;
_chemical_formula_sum "Si O2"
_cell_formula_units_Z 128
_cell_length_a 23.704411
_cell_length_b 23.704411
_cell_length_c 12.008566
_cell_angle_alpha 90.000000
_cell_angle_beta 90.000000
_cell_angle_gamma 90.000000
_cell_volume 6747.602438
_symmetry_space_group_name_H-M "P 42/N M C"
_symmetry_group_IT_number 137
_space_group.IT_coordinate_system_code '2'
_symmetry_cell_setting 'tetragonal'
loop_
_space_group_symop_operation_xyz
x,y,z
1/2-y,x,1/2+z
1/2-x,1/2-y,z
y,1/2-x,1/2+z
1/2+x,-y,-z
-x,1/2+y,-z
1/2+y,1/2+x,1/2-z
-y,-x,1/2-z
-x,-y,-z
1/2+y,-x,1/2-z
1/2+x,1/2+y,-z
-y,1/2+x,1/2-z
1/2-x,y,z
x,1/2-y,z
1/2-y,1/2-x,1/2+z
y,x,1/2+z
loop_
_atom_site_type_symbol
_atom_site_label
_atom_site_fract_x
_atom_site_fract_y
_atom_site_fract_z
Si Si1 0.316094 0.504726 0.549009
Si Si2 0.608884 0.684332 0.080411
Si Si3 0.349185 0.887291 0.432678
Si Si4 0.815853 0.951114 0.797753
Si Si5 0.187525 0.577247 0.206456
Si Si6 0.640250 0.184518 0.363399
Si Si7 0.582014 0.817090 0.535375
Si Si8 0.484451 0.816838 0.697520
O O1 0.250000 0.521714 0.536111
O O2 0.326114 0.441585 0.506487
O O3 0.353865 0.548785 0.477915
O O4 0.337393 0.507960 0.675854
O O5 0.627231 0.750000 0.078442
O O6 0.590222 0.662623 0.201923
O O7 0.662337 0.645812 0.053569
O O8 0.310425 0.886451 0.321277
O O9 0.406674 0.858805 0.386692
O O10 0.328198 0.848724 0.535983
O O11 0.750000 0.942284 0.810151
O O12 0.829229 0.014277 0.758847
O O13 0.842870 0.937073 0.916843
O O14 0.250000 0.580646 0.151574
O O15 0.674027 0.174027 0.250000
O O16 0.642386 0.250000 0.392962
O O17 0.575737 0.162136 0.350563
O O18 0.583280 0.750000 0.539421
O O19 0.536592 0.840682 0.624745
O O20 0.485157 0.750000 0.694416
#
# Coordination Sequence:
#
# PCOD8318543 Si02
#       8
#    16  16  16  16  16  16  16  16
#     4  10  19  35  57  79 106 145 194 238 275 333
#     4  10  21  36  58  86 116 150 185 224 279 344
#     4  11  20  32  57  84 106 143 191 242 288 334
#     4   9  18  36  57  79 109 147 190 230 272 327
#     4  10  20  35  57  82 107 141 191 247 290 330
#     4  11  22  36  55  82 116 154 194 237 293 348
#     4  10  21  36  59  89 118 147 184 232 282 335
#     4   9  19  36  58  81 109 149 197 239 273 326
#
# _framework density 18.969702000000002
#
# number of rings (size 3 to 8) (size 9 to 14) (size 15 to 20)
#    0.000    2.000    2.500    1.500    1.750    2.875 
#    0.000    0.000    0.000   20.625    0.000    0.000 
#    0.000    0.000    0.000    0.000    0.000    0.000 
#
# Total GULP energy -1586169.383047 kJ/mol
# GULP energy per Si atom -12391.948305 kJ/mol
# Density = 1.892653 g / cm^3
# Si number density = 18.969702 Si / 1000 Ang^3
#
#
#
# Elastic Constant Matrix: (Units=GPa)
#
#
# Indices 1 2 3 4 5 6 
#
# 1 59.4742 31.9982 27.4780 0.0000 0.0000 0.0000
# 2 31.9982 59.4742 27.4780 0.0000 0.0000 0.0000
# 3 27.4780 27.4780 133.9300 0.0000 0.0000 0.0000
# 4 0.0000 0.0000 0.0000 21.6939 0.0000 0.0000
# 5 0.0000 0.0000 0.0000 0.0000 21.6939 0.0000
# 6 0.0000 0.0000 0.0000 0.0000 0.0000 18.0572
#
#
#
# Elastic Compliance Matrix: (Units=1/GPa)
#
#
# Indices 1 2 3 4 5 6 
#
# 1 0.024432 -0.011963 -0.002558 0.000000 0.000000 0.000000
# 2 -0.011963 0.024432 -0.002558 0.000000 0.000000 0.000000
# 3 -0.002558 -0.002558 0.008516 0.000000 0.000000 0.000000
# 4 0.000000 0.000000 0.000000 0.046096 0.000000 0.000000
# 5 0.000000 0.000000 0.000000 0.000000 0.046096 0.000000
# 6 0.000000 0.000000 0.000000 0.000000 0.000000 0.055379
#
#
# Mechanical properties :
#
#
# Convention : Reuss Voigt Hill
#
# Bulk Modulus (GPa) = 43.06313 47.42076 45.24195
# Shear Modulus (GPa) = 20.25503 23.35061 21.80282
#
# Velocity S-wave (km/s) = 3.27120 3.51229 3.39388
# Velocity P-wave (km/s) = 6.08424 6.44210 6.26572
#
# Compressibility (1/GPa) = 0.02322172
#
# Stress axis : x y z
#
# Youngs Moduli (GPa) = 40.92936 40.92936 117.42149
#
# Poissons Ratio (x) = 0.48964 0.30040
# Poissons Ratio (y) = 0.48964 0.30040
# Poissons Ratio (z) = 0.10471 0.10471
#
# Static dielectric constant tensor:
#      x y z
#    x 3.224280 0.000000 0.000000 
#    y 0.000000 3.224280 0.000000 
#    z 0.000000 0.000000 3.978820 
# 
# 
# High freq. dielectric constant tensor:
#      x y z
#    x 1.708830 0.000000 0.000000 
#    y 0.000000 1.708830 0.000000 
#    z 0.000000 0.000000 1.763860 
# 
# From -- ./inp_files/4003.got.cif
#   From: 2010.03.12/outbox.cif.g09.slc.cpg/sg137_3_cif.got.tgz:4003.got - 2010.04.08 09:34:49.
