data_PCOD8318368
_publ_section_title
;
Structure prediction by ZEFSAII (Michael W. Deem and Ramdas Pophale) SiO2 
 PCOD8318368
Probable space group: P 42/N M C
;
_chemical_formula_sum "Si O2"
_cell_formula_units_Z 64
_cell_length_a 12.993003
_cell_length_b 12.993003
_cell_length_c 18.948125
_cell_angle_alpha 90.000000
_cell_angle_beta 90.000000
_cell_angle_gamma 90.000000
_cell_volume 3198.786972
_symmetry_space_group_name_H-M "P 42/N M C"
_symmetry_group_IT_number 137
_space_group.IT_coordinate_system_code '2'
_symmetry_cell_setting 'tetragonal'
loop_
_space_group_symop_operation_xyz
x,y,z
1/2-y,x,1/2+z
1/2-x,1/2-y,z
y,1/2-x,1/2+z
1/2+x,-y,-z
-x,1/2+y,-z
1/2+y,1/2+x,1/2-z
-y,-x,1/2-z
-x,-y,-z
1/2+y,-x,1/2-z
1/2+x,1/2+y,-z
-y,1/2+x,1/2-z
1/2-x,y,z
x,1/2-y,z
1/2-y,1/2-x,1/2+z
y,x,1/2+z
loop_
_atom_site_type_symbol
_atom_site_label
_atom_site_fract_x
_atom_site_fract_y
_atom_site_fract_z
Si Si1 0.367956 0.438909 0.493591
Si Si2 0.872203 0.750000 0.754807
Si Si3 0.627076 0.750000 0.597243
Si Si4 0.133542 0.636482 0.098609
Si Si5 0.925157 0.631970 0.357861
O O1 0.250000 0.411037 0.501398
O O2 0.415640 0.352096 0.441750
O O3 0.386438 0.553959 0.464752
O O4 0.414761 0.434526 0.571317
O O5 0.750000 0.750000 0.750338
O O6 0.919653 0.750000 0.676619
O O7 0.911364 0.853123 0.795438
O O8 0.750000 0.750000 0.602295
O O9 0.250000 0.633269 0.067405
O O10 0.110228 0.750000 0.131595
O O11 0.123283 0.548154 0.159405
O O12 0.893072 0.750000 0.373561
#
# Coordination Sequence:
#
# PCOD8318368 Si02
#       5
#    16   8   8  16  16
#     4  10  17  29  51  74 102 132 168 213 258 303
#     4   9  18  30  48  76 105 131 161 206 261 308
#     4   9  18  30  48  76 105 131 161 206 261 308
#     4   9  19  32  47  74 105 134 176 214 247 295
#     4  10  17  29  51  74 102 132 168 213 258 303
#
# _framework density 20.007583
#
# number of rings (size 3 to 8) (size 9 to 14) (size 15 to 20)
#    0.000    2.500    2.500    0.750    0.000    0.000 
#    0.000    1.250    0.000    4.500    0.000   14.000 
#    0.000    2.000    0.000    0.000    0.000    0.000 
#
# Total GULP energy -792856.710997 kJ/mol
# GULP energy per Si atom -12388.386109 kJ/mol
# Density = 1.996204 g / cm^3
# Si number density = 20.007583 Si / 1000 Ang^3
#
#
#
# Elastic Constant Matrix: (Units=GPa)
#
#
# Indices 1 2 3 4 5 6 
#
# 1 64.5777 8.2060 21.9394 0.0000 0.0000 0.0000
# 2 8.2060 64.5777 21.9394 0.0000 0.0000 0.0000
# 3 21.9394 21.9394 96.6155 0.0000 0.0000 0.0000
# 4 0.0000 0.0000 0.0000 5.6709 0.0000 0.0000
# 5 0.0000 0.0000 0.0000 0.0000 5.6709 0.0000
# 6 0.0000 0.0000 0.0000 0.0000 0.0000 13.8089
#
#
#
# Elastic Compliance Matrix: (Units=1/GPa)
#
#
# Indices 1 2 3 4 5 6 
#
# 1 0.016829 -0.000910 -0.003615 0.000000 0.000000 0.000000
# 2 -0.000910 0.016829 -0.003615 0.000000 0.000000 0.000000
# 3 -0.003615 -0.003615 0.011992 0.000000 0.000000 0.000000
# 4 0.000000 0.000000 0.000000 0.176339 0.000000 0.000000
# 5 0.000000 0.000000 0.000000 0.000000 0.176339 0.000000
# 6 0.000000 0.000000 0.000000 0.000000 0.000000 0.072417
#
#
# Mechanical properties :
#
#
# Convention : Reuss Voigt Hill
#
# Bulk Modulus (GPa) = 34.04835 36.66007 35.35421
# Shear Modulus (GPa) = 10.06410 16.60921 13.33666
#
# Velocity S-wave (km/s) = 2.24523 2.88435 2.58462
# Velocity P-wave (km/s) = 4.87607 5.42729 5.15905
#
# Compressibility (1/GPa) = 0.02937000
#
# Stress axis : x y z
#
# Youngs Moduli (GPa) = 59.42127 59.42127 83.38896
#
# Poissons Ratio (x) = 0.05410 0.30143
# Poissons Ratio (y) = 0.05410 0.30143
# Poissons Ratio (z) = 0.21480 0.21480
#
# Static dielectric constant tensor:
#      x y z
#    x 3.775390 0.000000 0.000000 
#    y 0.000000 3.775390 0.000000 
#    z 0.000000 0.000000 3.390530 
# 
# 
# High freq. dielectric constant tensor:
#      x y z
#    x 1.775560 0.000000 0.000000 
#    y 0.000000 1.775560 0.000000 
#    z 0.000000 0.000000 1.740310 
# 
# From -- ./inp_files/6103.got.cif
#   From: 2010.03.12/outbox.cif.g09.slc.cpg/sg137_4_cif.got.tgz:6103.got - 2010.04.08 09:34:49.
