data_PCOD8318055
_publ_section_title
;
Structure prediction by ZEFSAII (Michael W. Deem and Ramdas Pophale) SiO2 
 PCOD8318055
Probable space group: P 42/M N M
;
_chemical_formula_sum "Si O2"
_cell_formula_units_Z 120
_cell_length_a 26.152551
_cell_length_b 26.152551
_cell_length_c 8.969100
_cell_angle_alpha 90.000000
_cell_angle_beta 90.000000
_cell_angle_gamma 90.000000
_cell_volume 6134.469076
_symmetry_space_group_name_H-M "P 42/M N M"
_symmetry_group_IT_number 136
_symmetry_cell_setting 'tetragonal'
loop_
_space_group_symop_operation_xyz
x,y,z
1/2-y,1/2+x,1/2+z
-x,-y,z
1/2+y,1/2-x,1/2+z
1/2+x,1/2-y,1/2-z
1/2-x,1/2+y,1/2-z
y,x,-z
-y,-x,-z
-x,-y,-z
1/2+y,1/2-x,1/2-z
x,y,-z
1/2-y,1/2+x,1/2-z
1/2-x,1/2+y,1/2+z
1/2+x,1/2-y,1/2+z
-y,-x,z
y,x,z
loop_
_atom_site_type_symbol
_atom_site_label
_atom_site_fract_x
_atom_site_fract_y
_atom_site_fract_z
Si Si1 0.459113 0.540888 0.176833
Si Si2 0.893866 0.589727 0.170669
Si Si3 0.726179 0.809351 0.664197
Si Si4 0.868463 0.282225 0.328727
Si Si5 0.993715 0.647420 0.175848
Si Si6 0.377096 0.706467 0.664170
Si Si7 0.534194 0.743482 0.323293
Si Si8 0.657011 0.469755 0.823160
O O1 0.500000 0.500000 0.242224
O O2 0.474550 0.597983 0.230575
O O3 0.460090 0.539911 0.000000
O O4 0.842113 0.621008 0.189794
O O5 0.939490 0.625585 0.232878
O O6 0.890057 0.537168 0.261029
O O7 0.904179 0.574957 0.000000
O O8 0.705076 0.825035 0.500000
O O9 0.777513 0.777513 0.642524
O O10 0.686114 0.773824 0.752084
O O11 0.740060 0.860212 0.759717
O O12 0.867389 0.264680 0.500000
O O13 0.909061 0.248113 0.241103
O O14 0.001230 0.706594 0.228621
O O15 0.998058 0.645708 0.000000
O O16 0.401932 0.718262 0.500000
O O17 0.327758 0.672243 0.637611
O O18 0.414964 0.677436 0.773762
O O19 0.536507 0.738887 0.500000
O O20 0.512361 0.691293 0.255930
O O21 0.661756 0.475206 0.000000
#
# Coordination Sequence:
#
# PCOD8318055 Si02
#       8
#     8  16  16  16  16  16  16  16
#     4   9  20  40  65  91 123 159 191 233 291 353
#     4   9  19  34  51  73 103 138 183 235 283 336
#     4  10  21  36  55  82 115 147 184 229 281 340
#     4  10  20  36  57  79 109 149 193 240 289 341
#     4   9  19  35  52  74 104 142 185 232 286 340
#     4  10  20  34  54  83 119 153 185 224 283 350
#     4  10  21  37  57  80 113 152 194 239 291 349
#     4  11  21  36  60  89 118 149 192 242 292 349
#
# _framework density 19.561595000000001
#
# number of rings (size 3 to 8) (size 9 to 14) (size 15 to 20)
#    0.000    2.200    0.667    2.000    1.867    3.200 
#    0.000    2.000    0.000    5.600    0.000    0.000 
#    0.000    0.000    0.000    0.000    0.000    0.000 
#
# Total GULP energy -1487790.208300 kJ/mol
# GULP energy per Si atom -12398.251736 kJ/mol
# Density = 1.951707 g / cm^3
# Si number density = 19.561595 Si / 1000 Ang^3
#
#
#
# Elastic Constant Matrix: (Units=GPa)
#
#
# Indices 1 2 3 4 5 6 
#
# 1 102.5360 48.5951 38.9256 0.0000 0.0000 0.0000
# 2 48.5951 102.5360 38.9255 0.0000 0.0000 0.0000
# 3 38.9256 38.9255 93.3986 0.0000 0.0000 0.0000
# 4 0.0000 0.0000 0.0000 28.8538 0.0000 0.0000
# 5 0.0000 0.0000 0.0000 0.0000 28.8538 0.0000
# 6 0.0000 0.0000 0.0000 0.0000 0.0000 25.2521
#
#
#
# Elastic Compliance Matrix: (Units=1/GPa)
#
#
# Indices 1 2 3 4 5 6 
#
# 1 0.013482 -0.005057 -0.003512 0.000000 0.000000 0.000000
# 2 -0.005057 0.013482 -0.003512 0.000000 0.000000 0.000000
# 3 -0.003512 -0.003512 0.013634 0.000000 0.000000 0.000000
# 4 0.000000 0.000000 0.000000 0.034657 0.000000 0.000000
# 5 0.000000 0.000000 0.000000 0.000000 0.034657 0.000000
# 6 0.000000 0.000000 0.000000 0.000000 0.000000 0.039601
#
#
# Mechanical properties :
#
#
# Convention : Reuss Voigt Hill
#
# Bulk Modulus (GPa) = 60.83123 61.26256 61.04690
# Shear Modulus (GPa) = 27.90914 28.06024 27.98469
#
# Velocity S-wave (km/s) = 3.78131 3.79153 3.78642
# Velocity P-wave (km/s) = 7.08725 7.11009 7.09868
#
# Compressibility (1/GPa) = 0.01643893
#
# Stress axis : x y z
#
# Youngs Moduli (GPa) = 74.17169 74.17171 73.34717
#
# Poissons Ratio (x) = 0.37506 0.25756
# Poissons Ratio (y) = 0.37506 0.25756
# Poissons Ratio (z) = 0.26046 0.26046
#
# Static dielectric constant tensor:
#      x y z
#    x 3.560840 0.000000 0.000000 
#    y 0.000000 3.560850 0.000000 
#    z 0.000000 0.000000 3.709560 
# 
# 
# High freq. dielectric constant tensor:
#      x y z
#    x 1.752460 0.000000 0.000000 
#    y 0.000000 1.752460 0.000000 
#    z 0.000000 0.000000 1.765920 
# 
# From -- ./inp_files/2321.got.cif
#   From: 2010.03.12/outbox.cif.g09.slc.cpg/sg136_2_cif.got.tgz:2321.got - 2010.04.06 18:39:43.
