data_PCOD8318825
_publ_section_title
;
Structure prediction by ZEFSAII (Michael W. Deem and Ramdas Pophale) SiO2 
 PCOD8318825
Probable space group: P 42/N M C
;
_chemical_formula_sum "Si O2"
_cell_formula_units_Z 36
_cell_length_a 13.480043
_cell_length_b 13.480043
_cell_length_c 10.119012
_cell_angle_alpha 90.000000
_cell_angle_beta 90.000000
_cell_angle_gamma 90.000000
_cell_volume 1838.741449
_symmetry_space_group_name_H-M "P 42/N M C"
_symmetry_group_IT_number 137
_space_group.IT_coordinate_system_code '2'
_symmetry_cell_setting 'tetragonal'
loop_
_space_group_symop_operation_xyz
x,y,z
1/2-y,x,1/2+z
1/2-x,1/2-y,z
y,1/2-x,1/2+z
1/2+x,-y,-z
-x,1/2+y,-z
1/2+y,1/2+x,1/2-z
-y,-x,1/2-z
-x,-y,-z
1/2+y,-x,1/2-z
1/2+x,1/2+y,-z
-y,1/2+x,1/2-z
1/2-x,y,z
x,1/2-y,z
1/2-y,1/2-x,1/2+z
y,x,1/2+z
loop_
_atom_site_type_symbol
_atom_site_label
_atom_site_fract_x
_atom_site_fract_y
_atom_site_fract_z
Si Si1 0.031583 0.750000 0.801118
Si Si2 0.750000 0.250000 0.070707
Si Si3 0.958979 0.553110 0.375245
Si Si4 0.465623 0.750000 0.486264
O O1 0.149098 0.750000 0.838502
O O2 0.975515 0.844310 0.859590
O O3 0.016571 0.750000 0.643576
O O4 0.750000 0.345496 0.972902
O O5 0.977437 0.666379 0.405904
O O6 0.022069 0.522069 0.250000
O O7 0.000000 0.500000 0.500000
#
# Coordination Sequence:
#
# PCOD8318825 Si02
#       4
#     8   4  16   8
#     4  12  23  44  72 101 141 193 234 285 363 428
#     4  12  21  38  75 100 131 190 237 286 369 428
#     4  12  25  45  71 105 144 180 234 294 346 418
#     4  12  25  43  71 106 142 188 234 291 359 420
#
# _framework density 19.578609
#
# number of rings (size 3 to 8) (size 9 to 14) (size 15 to 20)
#    0.000    0.000    8.889    2.000    0.000    4.444 
#    0.000    2.222    0.000    0.000    0.000    0.000 
#    0.000    0.000    0.000    0.000    0.000    0.000 
#
# Total GULP energy -446055.565909 kJ/mol
# GULP energy per Si atom -12390.432386 kJ/mol
# Density = 1.953405 g / cm^3
# Si number density = 19.578609 Si / 1000 Ang^3
#
#
#
# Elastic Constant Matrix: (Units=GPa)
#
#
# Indices 1 2 3 4 5 6 
#
# 1 201.7856 92.1739 76.8175 0.0000 0.0000 0.0000
# 2 92.1739 201.7856 76.8175 0.0000 0.0000 0.0000
# 3 76.8175 76.8175 139.7790 0.0000 0.0000 0.0000
# 4 0.0000 0.0000 0.0000 41.3413 0.0000 0.0000
# 5 0.0000 0.0000 0.0000 0.0000 41.3413 0.0000
# 6 0.0000 0.0000 0.0000 0.0000 0.0000 43.0318
#
#
#
# Elastic Compliance Matrix: (Units=1/GPa)
#
#
# Indices 1 2 3 4 5 6 
#
# 1 0.006948 -0.002175 -0.002623 0.000000 0.000000 0.000000
# 2 -0.002175 0.006948 -0.002623 0.000000 0.000000 0.000000
# 3 -0.002623 -0.002623 0.010037 0.000000 0.000000 0.000000
# 4 0.000000 0.000000 0.000000 0.024189 0.000000 0.000000
# 5 0.000000 0.000000 0.000000 0.000000 0.024189 0.000000
# 6 0.000000 0.000000 0.000000 0.000000 0.000000 0.023239
#
#
# Mechanical properties :
#
#
# Convention : Reuss Voigt Hill
#
# Bulk Modulus (GPa) = 110.00108 114.99645 112.49877
# Shear Modulus (GPa) = 44.08335 44.97894 44.53115
#
# Velocity S-wave (km/s) = 4.75026 4.79827 4.77432
# Velocity P-wave (km/s) = 9.29478 9.46367 9.37961
#
# Compressibility (1/GPa) = 0.00909082
#
# Stress axis : x y z
#
# Youngs Moduli (GPa) = 143.92876 143.92876 99.63106
#
# Poissons Ratio (x) = 0.31308 0.26132
# Poissons Ratio (y) = 0.31308 0.26132
# Poissons Ratio (z) = 0.37751 0.37751
#
# Static dielectric constant tensor:
#      x y z
#    x 4.274330 0.000000 0.000000 
#    y 0.000000 4.274330 0.000000 
#    z 0.000000 0.000000 3.962050 
# 
# 
# High freq. dielectric constant tensor:
#      x y z
#    x 1.777040 0.000000 0.000000 
#    y 0.000000 1.777040 0.000000 
#    z 0.000000 0.000000 1.769920 
# 
# From -- ./inp_files/1019.got.cif
#   From: 2010.03.12/outbox.cif.g09.slc.cpg/sg137_1_cif.got.tgz:1019.got - 2010.04.08 09:34:49.
