data_PCOD8318176
_publ_section_title
;
Structure prediction by ZEFSAII (Michael W. Deem and Ramdas Pophale) SiO2 
 PCOD8318176
Probable space group: P 42/M N M
;
_chemical_formula_sum "Si O2"
_cell_formula_units_Z 96
_cell_length_a 23.884723
_cell_length_b 23.884723
_cell_length_c 8.880469
_cell_angle_alpha 90.000000
_cell_angle_beta 90.000000
_cell_angle_gamma 90.000000
_cell_volume 5066.129891
_symmetry_space_group_name_H-M "P 42/M N M"
_symmetry_group_IT_number 136
_symmetry_cell_setting 'tetragonal'
loop_
_space_group_symop_operation_xyz
x,y,z
1/2-y,1/2+x,1/2+z
-x,-y,z
1/2+y,1/2-x,1/2+z
1/2+x,1/2-y,1/2-z
1/2-x,1/2+y,1/2-z
y,x,-z
-y,-x,-z
-x,-y,-z
1/2+y,1/2-x,1/2-z
x,y,-z
1/2-y,1/2+x,1/2-z
1/2-x,1/2+y,1/2+z
1/2+x,1/2-y,1/2+z
-y,-x,z
y,x,z
loop_
_atom_site_type_symbol
_atom_site_label
_atom_site_fract_x
_atom_site_fract_y
_atom_site_fract_z
Si Si1 0.859470 0.627118 0.676263
Si Si2 0.931241 0.268387 0.325573
Si Si3 0.654724 0.435775 0.322869
Si Si4 0.727801 0.941069 0.676847
Si Si5 0.449313 0.359382 0.175247
Si Si6 0.065453 0.454775 0.825598
O O1 0.867807 0.615913 0.500000
O O2 0.794372 0.620229 0.723977
O O3 0.894133 0.681965 0.725558
O O4 0.878245 0.576066 0.783759
O O5 0.919980 0.282040 0.500000
O O6 0.926844 0.202672 0.292213
O O7 0.994866 0.288932 0.279742
O O8 0.660128 0.440102 0.500000
O O9 0.614271 0.385730 0.272195
O O10 0.715638 0.422477 0.257163
O O11 0.628892 0.493487 0.262861
O O12 0.738684 0.938447 0.500000
O O13 0.402988 0.402988 0.233148
O O14 0.462188 0.367153 0.000000
O O15 0.072677 0.519523 0.784505
O O16 0.049265 0.448534 0.000000
#
# Coordination Sequence:
#
# PCOD8318176 Si02
#       6
#    16  16  16  16  16  16
#     4  11  21  33  51  76 103 136 181 224 265 316
#     4   9  18  34  54  76 105 141 180 223 268 310
#     4  10  21  36  56  84 114 140 169 212 267 321
#     4   9  20  37  55  75 104 143 184 224 263 311
#     4   9  19  37  60  83 108 142 180 214 255 314
#     4  11  21  33  48  68  96 130 169 218 274 323
#
# _framework density 18.949376000000001
#
# number of rings (size 3 to 8) (size 9 to 14) (size 15 to 20)
#    0.000    2.167    0.000    5.000    0.000    7.333 
#    0.000    2.500    0.000    3.000    0.000    0.000 
#    0.000    0.000    0.000    0.000    0.000    0.000 
#
# Total GULP energy -1189777.544414 kJ/mol
# GULP energy per Si atom -12393.516088 kJ/mol
# Density = 1.890625 g / cm^3
# Si number density = 18.949376 Si / 1000 Ang^3
#
#
#
# Elastic Constant Matrix: (Units=GPa)
#
#
# Indices 1 2 3 4 5 6 
#
# 1 -1099.1661 1272.4148 44.7026 0.0000 0.0000 0.0000
# 2 1272.4148-1099.1661 44.7026 0.0000 0.0000 0.0000
# 3 44.7026 44.7026 71.7754 0.0000 0.0000 0.0000
# 4 0.0000 0.0000 0.0000 27.0940 0.0000 0.0000
# 5 0.0000 0.0000 0.0000 0.0000 27.0940 0.0000
# 6 0.0000 0.0000 0.0000 0.0000 0.0000 37.0735
#
#
#
# Elastic Compliance Matrix: (Units=1/GPa)
#
#
# Indices 1 2 3 4 5 6 
#
# 1 0.004042 0.004464 -0.005298 0.000000 0.000000 0.000000
# 2 0.004464 0.004042 -0.005298 0.000000 0.000000 0.000000
# 3 -0.005298 -0.005298 0.020531 0.000000 0.000000 0.000000
# 4 0.000000 0.000000 0.000000 0.036908 0.000000 0.000000
# 5 0.000000 0.000000 0.000000 0.000000 0.036908 0.000000
# 6 0.000000 0.000000 0.000000 0.000000 0.000000 0.026973
#
#
# Mechanical properties :
#
#
# Convention : Reuss Voigt Hill
#
# Bulk Modulus (GPa) = 61.15227 66.34256 63.74741
# Shear Modulus (GPa) = 33.98603 -214.30613 -90.16005
#
# Velocity S-wave (km/s) = 4.23959 -10.64610 -6.90527
# Velocity P-wave (km/s) = 7.50379 10.77186 5.46471
#
# Compressibility (1/GPa) = 0.01635262
#
# Stress axis : x y z
#
# Youngs Moduli (GPa) = 247.39633 247.39633 48.70659
#
# Poissons Ratio (x) = -1.10432 0.25803
# Poissons Ratio (y) = -1.10432 0.25803
# Poissons Ratio (z) = 1.31059 1.31059
#
# Static dielectric constant tensor:
#      x y z
#    x 3.521140 0.000000 0.000000 
#    y 0.000000 3.521140 0.000000 
#    z 0.000000 0.000000 3.385510 
# 
# 
# High freq. dielectric constant tensor:
#      x y z
#    x 1.730710 0.000000 0.000000 
#    y 0.000000 1.730710 0.000000 
#    z 0.000000 0.000000 1.736020 
# 
# From -- ./inp_files/1952.got.cif
#   From: 2010.03.12/outbox.cif.g09.slc.cpg/sg136_1_cif.got.tgz:1952.got - 2010.04.06 18:39:43.
