data_PCOD8318026
_publ_section_title
;
Structure prediction by ZEFSAII (Michael W. Deem and Ramdas Pophale) SiO2 
 PCOD8318026
Probable space group: P 42/M N M
;
_chemical_formula_sum "Si O2"
_cell_formula_units_Z 72
_cell_length_a 21.254205
_cell_length_b 21.254205
_cell_length_c 9.065732
_cell_angle_alpha 90.000000
_cell_angle_beta 90.000000
_cell_angle_gamma 90.000000
_cell_volume 4095.364926
_symmetry_space_group_name_H-M "P 42/M N M"
_symmetry_group_IT_number 136
_symmetry_cell_setting 'tetragonal'
loop_
_space_group_symop_operation_xyz
x,y,z
1/2-y,1/2+x,1/2+z
-x,-y,z
1/2+y,1/2-x,1/2+z
1/2+x,1/2-y,1/2-z
1/2-x,1/2+y,1/2-z
y,x,-z
-y,-x,-z
-x,-y,-z
1/2+y,1/2-x,1/2-z
x,y,-z
1/2-y,1/2+x,1/2-z
1/2-x,1/2+y,1/2+z
1/2+x,1/2-y,1/2+z
-y,-x,z
y,x,z
loop_
_atom_site_type_symbol
_atom_site_label
_atom_site_fract_x
_atom_site_fract_y
_atom_site_fract_z
Si Si1 0.552196 0.552196 0.825967
Si Si2 0.459635 0.317082 0.669283
Si Si3 0.494316 0.817041 0.325564
Si Si4 0.240639 0.338146 0.663072
Si Si5 0.386377 0.130640 0.827907
O O1 0.500000 0.500000 0.784345
O O2 0.528951 0.619686 0.762993
O O3 0.559373 0.559373 0.000000
O O4 0.475584 0.333579 0.500000
O O5 0.501390 0.256618 0.724461
O O6 0.387519 0.296742 0.688886
O O7 0.502311 0.819546 0.500000
O O8 0.430019 0.848419 0.271582
O O9 0.548460 0.860655 0.257183
O O10 0.211063 0.350649 0.500000
O O11 0.268560 0.268560 0.671906
O O12 0.189192 0.341688 0.790577
O O13 0.400600 0.127209 0.000000
#
# Coordination Sequence:
#
# PCOD8318026 Si02
#       5
#     8  16  16  16  16
#     4  11  23  35  49  77 111 135 165 215 265 306
#     4   9  17  34  56  73  95 133 173 207 248 305
#     4   9  20  37  53  74 107 139 172 217 264 311
#     4   9  17  32  53  76 102 131 166 212 263 312
#     4  10  20  33  52  78 104 136 178 220 260 308
#
# _framework density 17.580850000000002
#
# number of rings (size 3 to 8) (size 9 to 14) (size 15 to 20)
#    0.000    2.556    1.111    2.333    0.000    7.111 
#    0.000    3.333    0.000    6.667    0.000    0.000 
#    0.000    0.000    0.000    0.000    0.000    0.000 
#
# Total GULP energy -892274.819359 kJ/mol
# GULP energy per Si atom -12392.705824 kJ/mol
# Density = 1.754084 g / cm^3
# Si number density = 17.580850 Si / 1000 Ang^3
#
#
#
# Elastic Constant Matrix: (Units=GPa)
#
#
# Indices 1 2 3 4 5 6 
#
# 1 101.5841 81.7919 42.1496 0.0000 0.0000 0.0000
# 2 81.7919 101.5841 42.1496 0.0000 0.0000 0.0000
# 3 42.1496 42.1496 50.6171 0.0000 0.0000 0.0000
# 4 0.0000 0.0000 0.0000 20.5975 0.0000 0.0000
# 5 0.0000 0.0000 0.0000 0.0000 20.5975 0.0000
# 6 0.0000 0.0000 0.0000 0.0000 0.0000 30.8366
#
#
#
# Elastic Compliance Matrix: (Units=1/GPa)
#
#
# Indices 1 2 3 4 5 6 
#
# 1 0.029680 -0.020845 -0.007358 0.000000 0.000000 0.000000
# 2 -0.020845 0.029680 -0.007358 0.000000 0.000000 0.000000
# 3 -0.007358 -0.007358 0.032010 0.000000 0.000000 0.000000
# 4 0.000000 0.000000 0.000000 0.048550 0.000000 0.000000
# 5 0.000000 0.000000 0.000000 0.000000 0.048550 0.000000
# 6 0.000000 0.000000 0.000000 0.000000 0.000000 0.032429
#
#
# Mechanical properties :
#
#
# Convention : Reuss Voigt Hill
#
# Bulk Modulus (GPa) = 49.38102 65.10747 57.24425
# Shear Modulus (GPa) = 16.73541 20.25262 18.49401
#
# Velocity S-wave (km/s) = 3.08865 3.39775 3.24688
# Velocity P-wave (km/s) = 6.39286 7.24614 6.83283
#
# Compressibility (1/GPa) = 0.02025069
#
# Stress axis : x y z
#
# Youngs Moduli (GPa) = 33.69242 33.69242 31.24066
#
# Poissons Ratio (x) = 0.70231 0.22985
# Poissons Ratio (y) = 0.70231 0.22985
# Poissons Ratio (z) = 0.24789 0.24789
#
# Static dielectric constant tensor:
#      x y z
#    x 3.309050 0.000000 0.000000 
#    y 0.000000 3.309050 0.000000 
#    z 0.000000 0.000000 3.212690 
# 
# 
# High freq. dielectric constant tensor:
#      x y z
#    x 1.672780 0.000000 0.000000 
#    y 0.000000 1.672780 0.000000 
#    z 0.000000 0.000000 1.675070 
# 
# From -- ./inp_files/1565.got.cif
#   From: 2010.03.12/outbox.cif.g09.slc.cpg/sg136_1_cif.got.tgz:1565.got - 2010.04.06 18:39:43.
