data_PCOD8318690
_publ_section_title
;
Structure prediction by ZEFSAII (Michael W. Deem and Ramdas Pophale) SiO2 
 PCOD8318690
Probable space group: P 42/N M C
;
_chemical_formula_sum "Si O2"
_cell_formula_units_Z 112
_cell_length_a 14.623683
_cell_length_b 14.623683
_cell_length_c 24.114127
_cell_angle_alpha 90.000000
_cell_angle_beta 90.000000
_cell_angle_gamma 90.000000
_cell_volume 5156.856807
_symmetry_space_group_name_H-M "P 42/N M C"
_symmetry_group_IT_number 137
_space_group.IT_coordinate_system_code '2'
_symmetry_cell_setting 'tetragonal'
loop_
_space_group_symop_operation_xyz
x,y,z
1/2-y,x,1/2+z
1/2-x,1/2-y,z
y,1/2-x,1/2+z
1/2+x,-y,-z
-x,1/2+y,-z
1/2+y,1/2+x,1/2-z
-y,-x,1/2-z
-x,-y,-z
1/2+y,-x,1/2-z
1/2+x,1/2+y,-z
-y,1/2+x,1/2-z
1/2-x,y,z
x,1/2-y,z
1/2-y,1/2-x,1/2+z
y,x,1/2+z
loop_
_atom_site_type_symbol
_atom_site_label
_atom_site_fract_x
_atom_site_fract_y
_atom_site_fract_z
Si Si1 0.150410 0.141492 0.708891
Si Si2 0.148849 0.141639 0.583977
Si Si3 0.141665 0.647568 0.812234
Si Si4 0.515682 0.146781 0.776750
Si Si5 0.645720 0.997794 0.595391
Si Si6 0.645611 0.491367 0.094885
Si Si7 0.854882 0.463587 0.970148
O O1 0.250000 0.101925 0.725801
O O2 0.154504 0.250000 0.711302
O O3 0.125776 0.108830 0.646579
O O4 0.077436 0.100492 0.752589
O O5 0.250000 0.103922 0.565716
O O6 0.153340 0.250000 0.581929
O O7 0.066603 0.107376 0.543987
O O8 0.114563 0.614563 0.750000
O O9 0.250000 0.652265 0.817432
O O10 0.102174 0.750000 0.823647
O O11 0.102982 0.576492 0.858373
O O12 0.603897 0.103897 0.750000
O O13 0.513984 0.250000 0.756178
O O14 0.527362 0.137681 0.841516
O O15 0.750000 0.975073 0.578695
O O16 0.610835 0.082588 0.559417
O O17 0.586707 0.906727 0.588885
O O18 0.750000 0.515961 0.109510
O O19 0.638731 0.442482 0.035299
O O20 0.750000 0.453348 0.949328
#
# Coordination Sequence:
#
# PCOD8318690 Si02
#       7
#    16  16  16  16  16  16  16
#     4   8  14  27  49  76 105 139 185 242 296 341
#     4   8  14  27  51  82 112 145 189 242 299 351
#     4   8  15  32  61  95 126 152 184 237 307 379
#     4  10  21  36  55  80 113 156 201 245 293 344
#     4  11  25  41  57  83 120 162 206 249 294 348
#     4  10  22  40  63  90 119 156 199 243 299 365
#     4  10  21  39  62  86 117 157 201 250 299 353
#
# _framework density 21.718657
#
# number of rings (size 3 to 8) (size 9 to 14) (size 15 to 20)
#    0.000    2.714    0.000    2.571    0.000    4.714 
#    0.000    6.429    0.000    4.286    0.000    0.000 
#    0.000    0.286    0.000    0.000    0.000    0.286 
#
# Total GULP energy -1388240.434390 kJ/mol
# GULP energy per Si atom -12395.003878 kJ/mol
# Density = 2.166922 g / cm^3
# Si number density = 21.718657 Si / 1000 Ang^3
#
#
#
# Elastic Constant Matrix: (Units=GPa)
#
#
# Indices 1 2 3 4 5 6 
#
# 1 68.6251 72.9563 54.3588 0.0000 0.0000 0.0000
# 2 72.9563 68.6251 54.3588 0.0000 0.0000 0.0000
# 3 54.3588 54.3588 121.0918 0.0000 0.0000 0.0000
# 4 0.0000 0.0000 0.0000 -26.4520 0.0000 0.0000
# 5 0.0000 0.0000 0.0000 0.0000 -26.4520 0.0000
# 6 0.0000 0.0000 0.0000 0.0000 0.0000 24.8897
#
#
#
# Elastic Compliance Matrix: (Units=1/GPa)
#
#
# Indices 1 2 3 4 5 6 
#
# 1 -0.110052 0.120830 -0.004839 0.000000 0.000000 0.000000
# 2 0.120830 -0.110052 -0.004839 0.000000 0.000000 0.000000
# 3 -0.004839 -0.004839 0.012602 0.000000 0.000000 0.000000
# 4 0.000000 0.000000 0.000000 -0.037804 0.000000 0.000000
# 5 0.000000 0.000000 0.000000 0.000000 -0.037804 0.000000
# 6 0.000000 0.000000 0.000000 0.000000 0.000000 0.040177
#
#
# Mechanical properties :
#
#
# Convention : Reuss Voigt Hill
#
# Bulk Modulus (GPa) = 67.54405 69.07664 68.31035
# Shear Modulus (GPa) = -10.86238 -0.49166 -5.67702
#
# Velocity S-wave (km/s) = -2.23881 -0.47630 -1.61851
# Velocity P-wave (km/s) = 4.94814 5.61888 5.29414
#
# Compressibility (1/GPa) = 0.01480515
#
# Stress axis : x y z
#
# Youngs Moduli (GPa) = -9.08662 -9.08662 79.35070
#
# Poissons Ratio (x) = 1.09794 0.38394
# Poissons Ratio (y) = 1.09794 0.38394
# Poissons Ratio (z) = -0.04397 -0.04397
#
# Static dielectric constant tensor:
#      x y z
#    x 3.973530 0.000000 0.000000 
#    y 0.000000 3.973530 0.000000 
#    z 0.000000 0.000000 4.210350 
# 
# 
# High freq. dielectric constant tensor:
#      x y z
#    x 1.843250 0.000000 0.000000 
#    y 0.000000 1.843250 0.000000 
#    z 0.000000 0.000000 1.855230 
# 
# From -- ./inp_files/8963.got.cif
#   From: 2010.03.12/outbox.cif.g09.slc.cpg/sg137_5_cif.got.tgz:8963.got - 2010.04.08 09:34:49.
