data_PCOD8318172
_publ_section_title
;
Structure prediction by ZEFSAII (Michael W. Deem and Ramdas Pophale) SiO2 
 PCOD8318172
Probable space group: P 42/M N M
;
_chemical_formula_sum "Si O2"
_cell_formula_units_Z 72
_cell_length_a 20.919367
_cell_length_b 20.919367
_cell_length_c 9.140500
_cell_angle_alpha 90.000000
_cell_angle_beta 90.000000
_cell_angle_gamma 90.000000
_cell_volume 4000.064839
_symmetry_space_group_name_H-M "P 42/M N M"
_symmetry_group_IT_number 136
_symmetry_cell_setting 'tetragonal'
loop_
_space_group_symop_operation_xyz
x,y,z
1/2-y,1/2+x,1/2+z
-x,-y,z
1/2+y,1/2-x,1/2+z
1/2+x,1/2-y,1/2-z
1/2-x,1/2+y,1/2-z
y,x,-z
-y,-x,-z
-x,-y,-z
1/2+y,1/2-x,1/2-z
x,y,-z
1/2-y,1/2+x,1/2-z
1/2-x,1/2+y,1/2+z
1/2+x,1/2-y,1/2+z
-y,-x,z
y,x,z
loop_
_atom_site_type_symbol
_atom_site_label
_atom_site_fract_x
_atom_site_fract_y
_atom_site_fract_z
Si Si1 0.145762 0.394694 0.169107
Si Si2 0.732073 0.628028 0.332908
Si Si3 0.960080 0.681732 0.670110
Si Si4 0.692410 0.485847 0.669982
Si Si5 0.448482 0.551519 0.674060
O O1 0.208462 0.358787 0.227413
O O2 0.154712 0.469507 0.198499
O O3 0.085060 0.370776 0.257953
O O4 0.135965 0.378482 0.000000
O O5 0.755962 0.631352 0.500000
O O6 0.681879 0.681879 0.294574
O O7 0.697696 0.561096 0.301645
O O8 0.944306 0.688500 0.500000
O O9 0.949680 0.751385 0.742552
O O10 0.700212 0.468177 0.500000
O O11 0.622918 0.464876 0.729685
O O12 0.500000 0.500000 0.736666
O O13 0.451235 0.548766 0.500000
#
# Coordination Sequence:
#
# PCOD8318172 Si02
#       5
#    16  16  16  16   8
#     4  10  21  36  55  78 103 134 172 215 261 314
#     4   9  17  31  52  77 104 136 174 214 258 305
#     4  10  21  37  55  76 104 136 172 215 265 316
#     4   9  17  31  52  77 107 140 173 214 259 305
#     4   9  16  28  51  83 111 139 179 219 257 304
#
# _framework density 17.999708999999999
#
# number of rings (size 3 to 8) (size 9 to 14) (size 15 to 20)
#    0.000    2.556    0.000    2.000    0.000    6.222 
#    2.000    2.778    0.000    2.667    0.000    0.000 
#    0.000    0.000    0.000    0.000    0.000    0.000 
#
# Total GULP energy -892899.912359 kJ/mol
# GULP energy per Si atom -12401.387672 kJ/mol
# Density = 1.795874 g / cm^3
# Si number density = 17.999709 Si / 1000 Ang^3
#
#
#
# Elastic Constant Matrix: (Units=GPa)
#
#
# Indices 1 2 3 4 5 6 
#
# 1 93.0525 63.4116 56.7367 0.0000 0.0000 0.0000
# 2 63.4116 93.0525 56.7366 0.0000 0.0000 0.0000
# 3 56.7367 56.7366 87.6955 0.0000 0.0000 0.0000
# 4 0.0000 0.0000 0.0000 24.7689 0.0000 0.0000
# 5 0.0000 0.0000 0.0000 0.0000 24.7690 0.0000
# 6 0.0000 0.0000 0.0000 0.0000 0.0000 28.7279
#
#
#
# Elastic Compliance Matrix: (Units=1/GPa)
#
#
# Indices 1 2 3 4 5 6 
#
# 1 0.022889 -0.010848 -0.007790 0.000000 0.000000 0.000000
# 2 -0.010848 0.022889 -0.007790 0.000000 0.000000 0.000000
# 3 -0.007790 -0.007790 0.021483 0.000000 0.000000 0.000000
# 4 0.000000 0.000000 0.000000 0.040373 0.000000 0.000000
# 5 0.000000 0.000000 0.000000 0.000000 0.040373 0.000000
# 6 0.000000 0.000000 0.000000 0.000000 0.000000 0.034809
#
#
# Mechanical properties :
#
#
# Convention : Reuss Voigt Hill
#
# Bulk Modulus (GPa) = 69.42339 69.73005 69.57672
# Shear Modulus (GPa) = 20.79214 22.11419 21.45316
#
# Velocity S-wave (km/s) = 3.40242 3.50892 3.45608
# Velocity P-wave (km/s) = 7.35447 7.43239 7.39353
#
# Compressibility (1/GPa) = 0.01440437
#
# Stress axis : x y z
#
# Youngs Moduli (GPa) = 43.68887 43.68894 46.54801
#
# Poissons Ratio (x) = 0.47394 0.36262
# Poissons Ratio (y) = 0.47394 0.36262
# Poissons Ratio (z) = 0.34035 0.34034
#
# Static dielectric constant tensor:
#      x y z
#    x 3.348620 0.000000 0.000000 
#    y 0.000000 3.348620 0.000000 
#    z 0.000000 0.000000 3.281010 
# 
# 
# High freq. dielectric constant tensor:
#      x y z
#    x 1.697520 0.000000 0.000000 
#    y 0.000000 1.697520 0.000000 
#    z 0.000000 0.000000 1.687420 
# 
# From -- ./inp_files/1531.got.cif
#   From: 2010.03.12/outbox.cif.g09.slc.cpg/sg136_1_cif.got.tgz:1531.got - 2010.04.06 18:39:43.
