data_PCOD8318262
_publ_section_title
;
Structure prediction by ZEFSAII (Michael W. Deem and Ramdas Pophale) SiO2 
 PCOD8318262
Probable space group: P 42/M N M
;
_chemical_formula_sum "Si O2"
_cell_formula_units_Z 96
_cell_length_a 14.313816
_cell_length_b 14.313816
_cell_length_c 25.445291
_cell_angle_alpha 90.000000
_cell_angle_beta 90.000000
_cell_angle_gamma 90.000000
_cell_volume 5213.366805
_symmetry_space_group_name_H-M "P 42/M N M"
_symmetry_group_IT_number 136
_symmetry_cell_setting 'tetragonal'
loop_
_space_group_symop_operation_xyz
x,y,z
1/2-y,1/2+x,1/2+z
-x,-y,z
1/2+y,1/2-x,1/2+z
1/2+x,1/2-y,1/2-z
1/2-x,1/2+y,1/2-z
y,x,-z
-y,-x,-z
-x,-y,-z
1/2+y,1/2-x,1/2-z
x,y,-z
1/2-y,1/2+x,1/2-z
1/2-x,1/2+y,1/2+z
1/2+x,1/2-y,1/2+z
-y,-x,z
y,x,z
loop_
_atom_site_type_symbol
_atom_site_label
_atom_site_fract_x
_atom_site_fract_y
_atom_site_fract_z
Si Si1 0.166471 0.679657 0.639153
Si Si2 0.493637 0.114025 0.322484
Si Si3 0.518134 0.768987 0.223519
Si Si4 0.757273 0.515719 0.939397
Si Si5 0.577851 0.577851 0.223319
Si Si6 0.927172 0.072829 0.394357
Si Si7 0.790042 0.365064 0.858704
O O1 0.266984 0.733017 0.639580
O O2 0.170686 0.566831 0.640605
O O3 0.108944 0.699576 0.691918
O O4 0.110762 0.704696 0.586442
O O5 0.509930 0.147051 0.262273
O O6 0.395286 0.155614 0.341346
O O7 0.500000 0.000000 0.327416
O O8 0.541364 0.671146 0.252534
O O9 0.432994 0.744074 0.184479
O O10 0.646663 0.519630 0.930609
O O11 0.795399 0.420096 0.914058
O O12 0.785303 0.515006 0.000000
O O13 0.500000 0.500000 0.226976
O O14 0.610281 0.610281 0.162617
O O15 0.000000 0.000000 0.372980
O O16 0.729820 0.270181 0.863440
#
# Coordination Sequence:
#
# PCOD8318262 Si02
#       7
#    16  16  16  16   8   8  16
#     4  11  22  39  56  84 121 153 192 247 293 339
#     4  12  25  39  61  85 111 159 206 242 284 347
#     4  11  21  33  58  83 113 157 198 236 288 350
#     4  11  21  36  61  87 115 153 192 232 294 365
#     4  11  20  35  54  83 126 160 191 243 293 337
#     4  11  19  32  51  82 124 158 186 225 284 353
#     4  11  24  39  57  85 121 154 192 247 298 342
#
# _framework density 18.414203000000001
#
# number of rings (size 3 to 8) (size 9 to 14) (size 15 to 20)
#    0.000    0.833    8.333    2.250    3.500    4.333 
#    0.000    1.667    0.000    0.000    0.000    0.000 
#    0.000    0.000    0.000    3.000    0.000    0.000 
#
# Total GULP energy -1189664.452186 kJ/mol
# GULP energy per Si atom -12392.338044 kJ/mol
# Density = 1.837229 g / cm^3
# Si number density = 18.414203 Si / 1000 Ang^3
#
#
#
# Elastic Constant Matrix: (Units=GPa)
#
#
# Indices 1 2 3 4 5 6 
#
# 1 98.2827 40.7214 26.7697 0.0000 0.0000 0.0000
# 2 40.7214 98.2827 26.7697 0.0000 0.0000 0.0000
# 3 26.7697 26.7697 84.3199 0.0000 0.0000 0.0000
# 4 0.0000 0.0000 0.0000 17.6311 0.0000 0.0000
# 5 0.0000 0.0000 0.0000 0.0000 17.6311 0.0000
# 6 0.0000 0.0000 0.0000 0.0000 0.0000 21.6128
#
#
#
# Elastic Compliance Matrix: (Units=1/GPa)
#
#
# Indices 1 2 3 4 5 6 
#
# 1 0.012785 -0.004588 -0.002602 0.000000 0.000000 0.000000
# 2 -0.004588 0.012785 -0.002602 0.000000 0.000000 0.000000
# 3 -0.002602 -0.002602 0.013512 0.000000 0.000000 0.000000
# 4 0.000000 0.000000 0.000000 0.056718 0.000000 0.000000
# 5 0.000000 0.000000 0.000000 0.000000 0.056718 0.000000
# 6 0.000000 0.000000 0.000000 0.000000 0.000000 0.046269
#
#
# Mechanical properties :
#
#
# Convention : Reuss Voigt Hill
#
# Bulk Modulus (GPa) = 51.29295 52.15631 51.72463
# Shear Modulus (GPa) = 22.23510 23.81662 23.02586
#
# Velocity S-wave (km/s) = 3.47868 3.60027 3.53999
# Velocity P-wave (km/s) = 6.63705 6.75781 6.69770
#
# Compressibility (1/GPa) = 0.01949586
#
# Stress axis : x y z
#
# Youngs Moduli (GPa) = 78.21952 78.21952 74.00924
#
# Poissons Ratio (x) = 0.35889 0.19258
# Poissons Ratio (y) = 0.35889 0.19258
# Poissons Ratio (z) = 0.20354 0.20354
#
# Static dielectric constant tensor:
#      x y z
#    x 3.613750 0.000000 0.000000 
#    y 0.000000 3.613750 0.000000 
#    z 0.000000 0.000000 3.114200 
# 
# 
# High freq. dielectric constant tensor:
#      x y z
#    x 1.712220 0.000000 0.000000 
#    y 0.000000 1.712220 0.000000 
#    z 0.000000 0.000000 1.673580 
# 
# From -- ./inp_files/8424.got.cif
#   From: 2010.03.12/outbox.cif.g09.slc.cpg/sg136_5_cif.got.tgz:8424.got - 2010.04.06 18:39:43.
