data_PCOD8318769
_publ_section_title
;
Structure prediction by ZEFSAII (Michael W. Deem and Ramdas Pophale) SiO2 
 PCOD8318769
Probable space group: P 42/N M C
;
_chemical_formula_sum "Si O2"
_cell_formula_units_Z 96
_cell_length_a 14.853268
_cell_length_b 14.853268
_cell_length_c 20.130676
_cell_angle_alpha 90.000000
_cell_angle_beta 90.000000
_cell_angle_gamma 90.000000
_cell_volume 4441.221089
_symmetry_space_group_name_H-M "P 42/N M C"
_symmetry_group_IT_number 137
_space_group.IT_coordinate_system_code '2'
_symmetry_cell_setting 'tetragonal'
loop_
_space_group_symop_operation_xyz
x,y,z
1/2-y,x,1/2+z
1/2-x,1/2-y,z
y,1/2-x,1/2+z
1/2+x,-y,-z
-x,1/2+y,-z
1/2+y,1/2+x,1/2-z
-y,-x,1/2-z
-x,-y,-z
1/2+y,-x,1/2-z
1/2+x,1/2+y,-z
-y,1/2+x,1/2-z
1/2-x,y,z
x,1/2-y,z
1/2-y,1/2-x,1/2+z
y,x,1/2+z
loop_
_atom_site_type_symbol
_atom_site_label
_atom_site_fract_x
_atom_site_fract_y
_atom_site_fract_z
Si Si1 0.145360 0.854641 0.750000
Si Si2 0.603027 0.992541 0.484095
Si Si3 0.849280 0.853059 0.095428
Si Si4 0.906689 0.093312 0.750000
Si Si5 0.010044 0.152394 0.157053
Si Si6 0.849728 0.250000 0.838636
Si Si7 0.750000 0.356923 0.505406
Si Si8 0.643558 0.600984 0.741090
O O1 0.250000 0.871667 0.768801
O O2 0.082242 0.886516 0.810969
O O3 0.640984 0.917484 0.534012
O O4 0.599150 0.957693 0.408149
O O5 0.500000 0.000000 0.500000
O O6 0.659400 0.087161 0.485767
O O7 0.750000 0.896461 0.079800
O O8 0.833243 0.750000 0.110912
O O9 0.889221 0.891761 0.164970
O O10 0.896113 0.160217 0.811984
O O11 0.007277 0.110771 0.726068
O O12 0.984148 0.250000 0.129007
O O13 0.089575 0.167823 0.211003
O O14 0.750000 0.250000 0.810084
O O15 0.854616 0.250000 0.916205
O O16 0.750000 0.250000 0.479822
O O17 0.750000 0.615624 0.748451
#
# Coordination Sequence:
#
# PCOD8318769 Si02
#       8
#     8  16  16   8  16   8   8  16
#     4   9  21  42  69  99 130 174 224 282 346 411
#     4  12  27  46  70 103 140 187 240 295 360 435
#     4  10  22  45  73  98 134 184 235 283 348 426
#     4  12  20  36  61  97 140 176 218 292 342 426
#     4  11  24  44  66  96 137 173 227 287 349 409
#     4  11  20  36  60  95 135 181 227 271 354 427
#     4  11  26  48  73 101 147 195 240 299 363 441
#     4  11  24  39  66 101 136 175 228 283 348 412
#
# _framework density 21.615677999999999
#
# number of rings (size 3 to 8) (size 9 to 14) (size 15 to 20)
#    0.000    1.083    3.333    2.000    7.000    3.000 
#    0.000    0.000    0.000    0.000    0.000    0.000 
#    0.000    0.000    0.000    0.000    0.000    0.000 
#
# Total GULP energy -1189281.052437 kJ/mol
# GULP energy per Si atom -12388.344296 kJ/mol
# Density = 2.156648 g / cm^3
# Si number density = 21.615678 Si / 1000 Ang^3
#
#
#
# Elastic Constant Matrix: (Units=GPa)
#
#
# Indices 1 2 3 4 5 6 
#
# 1 108.5922 44.5853 41.9804 0.0000 0.0000 0.0000
# 2 44.5853 108.5924 41.9802 0.0000 0.0000 0.0000
# 3 41.9804 41.9802 161.8279 0.0000 0.0000 0.0000
# 4 0.0000 0.0000 0.0000 31.2623 0.0000 0.0000
# 5 0.0000 0.0000 0.0000 0.0000 31.2615 0.0000
# 6 0.0000 0.0000 0.0000 0.0000 0.0000 22.5457
#
#
#
# Elastic Compliance Matrix: (Units=1/GPa)
#
#
# Indices 1 2 3 4 5 6 
#
# 1 0.011617 -0.004006 -0.001974 0.000000 0.000000 0.000000
# 2 -0.004006 0.011617 -0.001974 0.000000 0.000000 0.000000
# 3 -0.001974 -0.001974 0.007204 0.000000 0.000000 0.000000
# 4 0.000000 0.000000 0.000000 0.031987 0.000000 0.000000
# 5 0.000000 0.000000 0.000000 0.000000 0.031988 0.000000
# 6 0.000000 0.000000 0.000000 0.000000 0.000000 0.044354
#
#
# Mechanical properties :
#
#
# Convention : Reuss Voigt Hill
#
# Bulk Modulus (GPa) = 68.83419 70.67826 69.75623
# Shear Modulus (GPa) = 31.34405 33.71167 32.52786
#
# Velocity S-wave (km/s) = 3.81210 3.95345 3.88342
# Velocity P-wave (km/s) = 7.16169 7.32178 7.24218
#
# Compressibility (1/GPa) = 0.01452766
#
# Stress axis : x y z
#
# Youngs Moduli (GPa) = 86.08136 86.08162 138.81737
#
# Poissons Ratio (x) = 0.34488 0.27406
# Poissons Ratio (y) = 0.34487 0.27406
# Poissons Ratio (z) = 0.16995 0.16995
#
# Static dielectric constant tensor:
#      x y z
#    x 3.796830 0.000000 0.000000 
#    y 0.000000 3.796870 0.000000 
#    z 0.000000 0.000000 5.188800 
# 
# 
# High freq. dielectric constant tensor:
#      x y z
#    x 1.852280 0.000000 0.000000 
#    y 0.000000 1.852280 0.000000 
#    z 0.000000 0.000000 1.851250 
# 
# From -- ./inp_files/7928.got.cif
#   From: 2010.03.12/outbox.cif.g09.slc.cpg/sg137_4_cif.got.tgz:7928.got - 2010.04.08 09:34:49.
