data_PCOD8318944
_publ_section_title
;
Structure prediction by ZEFSAII (Michael W. Deem and Ramdas Pophale) SiO2 
 PCOD8318944
Probable space group: P 42/N C M
;
_chemical_formula_sum "Si O2"
_cell_formula_units_Z 112
_cell_length_a 14.378241
_cell_length_b 14.378241
_cell_length_c 26.265051
_cell_angle_alpha 90.000000
_cell_angle_beta 90.000000
_cell_angle_gamma 90.000000
_cell_volume 5429.874175
_symmetry_space_group_name_H-M "P 42/N C M"
_symmetry_group_IT_number 138
_space_group.IT_coordinate_system_code '2'
_symmetry_cell_setting 'tetragonal'
loop_
_space_group_symop_operation_xyz
x,y,z
1/2-y,x,1/2+z
1/2-x,1/2-y,z
y,1/2-x,1/2+z
1/2+x,-y,1/2-z
-x,1/2+y,1/2-z
1/2+y,1/2+x,-z
-y,-x,-z
-x,-y,-z
1/2+y,-x,1/2-z
1/2+x,1/2+y,-z
-y,1/2+x,1/2-z
1/2-x,y,1/2+z
x,1/2-y,1/2+z
1/2-y,1/2-x,z
y,x,z
loop_
_atom_site_type_symbol
_atom_site_label
_atom_site_fract_x
_atom_site_fract_y
_atom_site_fract_z
Si Si1 0.353673 0.998017 0.507384
Si Si2 0.657073 0.000790 0.847123
Si Si3 0.854185 0.004076 0.157197
Si Si4 0.002628 0.644396 0.376032
Si Si5 0.565511 0.714733 0.574693
Si Si6 0.193287 0.611435 0.247553
Si Si7 0.067665 0.922294 0.444877
O O1 0.434983 0.065018 0.486383
O O2 0.261550 0.028520 0.477321
O O3 0.391485 0.891485 0.500000
O O4 0.329325 0.015249 0.565620
O O5 0.588542 0.911459 0.845457
O O6 0.766118 0.978232 0.841442
O O7 0.635586 0.070111 0.800380
O O8 0.656044 0.054084 0.901961
O O9 0.936959 0.936959 0.174251
O O10 0.786568 0.944541 0.120858
O O11 0.894927 0.097094 0.129587
O O12 0.800469 0.035481 0.207733
O O13 0.930125 0.569875 0.355674
O O14 0.671016 0.671016 0.570453
O O15 0.496232 0.630498 0.584579
O O16 0.138218 0.701724 0.268063
O O17 0.110689 0.889312 0.500000
O O18 0.966559 0.966559 0.457252
#
# Coordination Sequence:
#
# PCOD8318944 Si02
#       7
#    16  16  16  16  16  16  16
#     4  10  19  34  57  85 121 167 209 248 304 373
#     4  11  22  40  64  90 122 159 203 256 315 376
#     4  11  22  40  62  87 126 167 206 261 330 385
#     4  10  21  38  61  87 120 163 205 252 312 381
#     4  11  22  37  61  92 126 168 218 264 312 381
#     4  11  23  41  65  93 119 156 210 267 311 380
#     4   9  19  36  58  87 125 164 198 247 313 372
#
# _framework density 20.626629000000001
#
# number of rings (size 3 to 8) (size 9 to 14) (size 15 to 20)
#    0.000    1.571    2.857    2.571    0.000    3.143 
#    0.000    2.857    0.000    1.714    0.000    0.000 
#    0.000    0.000    0.000    0.000    0.000    0.000 
#
# Total GULP energy -1387729.664134 kJ/mol
# GULP energy per Si atom -12390.443430 kJ/mol
# Density = 2.057968 g / cm^3
# Si number density = 20.626629 Si / 1000 Ang^3
#
#
#
# Elastic Constant Matrix: (Units=GPa)
#
#
# Indices 1 2 3 4 5 6 
#
# 1 94.0744 45.2355 31.3490 0.0000 0.0000 0.0000
# 2 45.2355 94.0745 31.3490 0.0000 0.0000 0.0000
# 3 31.3490 31.3490 106.0128 0.0000 0.0000 0.0000
# 4 0.0000 0.0000 0.0000 32.5956 0.0000 0.0000
# 5 0.0000 0.0000 0.0000 0.0000 32.5956 0.0000
# 6 0.0000 0.0000 0.0000 0.0000 0.0000 36.6548
#
#
#
# Elastic Compliance Matrix: (Units=1/GPa)
#
#
# Indices 1 2 3 4 5 6 
#
# 1 0.014378 -0.006098 -0.002449 0.000000 0.000000 0.000000
# 2 -0.006098 0.014378 -0.002449 0.000000 0.000000 0.000000
# 3 -0.002449 -0.002449 0.010881 0.000000 0.000000 0.000000
# 4 0.000000 0.000000 0.000000 0.030679 0.000000 0.000000
# 5 0.000000 0.000000 0.000000 0.000000 0.030679 0.000000
# 6 0.000000 0.000000 0.000000 0.000000 0.000000 0.027282
#
#
# Mechanical properties :
#
#
# Convention : Reuss Voigt Hill
#
# Bulk Modulus (GPa) = 56.66613 56.66986 56.66799
# Shear Modulus (GPa) = 32.02092 32.78442 32.40267
#
# Velocity S-wave (km/s) = 3.94433 3.99108 3.96778
# Velocity P-wave (km/s) = 6.94807 6.98370 6.96591
#
# Compressibility (1/GPa) = 0.01764723
#
# Stress axis : x y z
#
# Youngs Moduli (GPa) = 69.55139 69.55149 91.90385
#
# Poissons Ratio (x) = 0.42410 0.22503
# Poissons Ratio (y) = 0.42410 0.22503
# Poissons Ratio (z) = 0.17030 0.17030
#
# Static dielectric constant tensor:
#      x y z
#    x 3.692960 0.000000 0.000000 
#    y 0.000000 3.692960 0.000000 
#    z 0.000000 0.000000 3.633390 
# 
# 
# High freq. dielectric constant tensor:
#      x y z
#    x 1.796950 0.000000 0.000000 
#    y 0.000000 1.796950 0.000000 
#    z 0.000000 0.000000 1.807450 
# 
# From -- ./inp_files/7049.got.cif
#   From: 2010.03.12/outbox.cif.g09.slc.cpg/sg138_4_cif.got.tgz:7049.got - 2010.04.08 09:41:05.
