data_PCOD8318157
_publ_section_title
;
Structure prediction by ZEFSAII (Michael W. Deem and Ramdas Pophale) SiO2 
 PCOD8318157
Probable space group: P 42/M N M
;
_chemical_formula_sum "Si O2"
_cell_formula_units_Z 96
_cell_length_a 23.927425
_cell_length_b 23.927425
_cell_length_c 9.088034
_cell_angle_alpha 90.000000
_cell_angle_beta 90.000000
_cell_angle_gamma 90.000000
_cell_volume 5203.096377
_symmetry_space_group_name_H-M "P 42/M N M"
_symmetry_group_IT_number 136
_symmetry_cell_setting 'tetragonal'
loop_
_space_group_symop_operation_xyz
x,y,z
1/2-y,1/2+x,1/2+z
-x,-y,z
1/2+y,1/2-x,1/2+z
1/2+x,1/2-y,1/2-z
1/2-x,1/2+y,1/2-z
y,x,-z
-y,-x,-z
-x,-y,-z
1/2+y,1/2-x,1/2-z
x,y,-z
1/2-y,1/2+x,1/2-z
1/2-x,1/2+y,1/2+z
1/2+x,1/2-y,1/2+z
-y,-x,z
y,x,z
loop_
_atom_site_type_symbol
_atom_site_label
_atom_site_fract_x
_atom_site_fract_y
_atom_site_fract_z
Si Si1 0.359071 0.729060 0.330857
Si Si2 0.842408 0.357172 0.826757
Si Si3 0.637357 0.452444 0.335267
Si Si4 0.858130 0.231778 0.173567
Si Si5 0.443847 0.939095 0.823047
Si Si6 0.846803 0.062877 0.670059
O O1 0.351439 0.746046 0.500000
O O2 0.302220 0.697781 0.275437
O O3 0.375431 0.783441 0.239275
O O4 0.410375 0.687780 0.309682
O O5 0.854749 0.294935 0.767590
O O6 0.891358 0.399509 0.778810
O O7 0.835821 0.357228 0.000000
O O8 0.640428 0.477756 0.500000
O O9 0.578813 0.421188 0.312757
O O10 0.640890 0.499974 0.214406
O O11 0.803320 0.196681 0.224370
O O12 0.914014 0.206345 0.242319
O O13 0.864622 0.230001 0.000000
O O14 0.503149 0.922655 0.750119
O O15 0.449603 0.945696 0.000000
O O16 0.831760 0.065688 0.500000
O O17 0.901227 0.098774 0.709761
#
# Coordination Sequence:
#
# PCOD8318157 Si02
#       6
#    16  16  16  16  16  16
#     4   9  19  35  54  78 108 139 171 211 257 304
#     4  10  21  35  55  83 108 134 171 212 255 308
#     4   9  19  36  55  75 102 138 178 215 255 309
#     4   9  18  34  54  75 104 141 175 207 249 305
#     4  10  21  38  57  77 104 136 171 212 259 307
#     4  10  21  35  51  75 106 137 173 220 267 304
#
# _framework density 18.450551999999998
#
# number of rings (size 3 to 8) (size 9 to 14) (size 15 to 20)
#    0.000    2.500    0.000    3.000    0.000    6.667 
#    0.000   10.000    0.000    0.000    0.000    0.000 
#    0.000    0.000    0.000    0.000    0.000    0.000 
#
# Total GULP energy -1190365.692158 kJ/mol
# GULP energy per Si atom -12399.642627 kJ/mol
# Density = 1.840856 g / cm^3
# Si number density = 18.450552 Si / 1000 Ang^3
#
#
#
# Elastic Constant Matrix: (Units=GPa)
#
#
# Indices 1 2 3 4 5 6 
#
# 1 114.6693 36.1945 32.8982 0.0000 0.0000 0.0000
# 2 36.1945 114.6693 32.8982 0.0000 0.0000 0.0000
# 3 32.8982 32.8982 36.5944 0.0000 0.0000 0.0000
# 4 0.0000 0.0000 0.0000 29.1332 0.0000 0.0000
# 5 0.0000 0.0000 0.0000 0.0000 29.1332 0.0000
# 6 0.0000 0.0000 0.0000 0.0000 0.0000 24.1834
#
#
#
# Elastic Compliance Matrix: (Units=1/GPa)
#
#
# Indices 1 2 3 4 5 6 
#
# 1 0.011823 -0.000920 -0.009802 0.000000 0.000000 0.000000
# 2 -0.000920 0.011823 -0.009802 0.000000 0.000000 0.000000
# 3 -0.009802 -0.009802 0.044951 0.000000 0.000000 0.000000
# 4 0.000000 0.000000 0.000000 0.034325 0.000000 0.000000
# 5 0.000000 0.000000 0.000000 0.000000 0.034325 0.000000
# 6 0.000000 0.000000 0.000000 0.000000 0.000000 0.041351
#
#
# Mechanical properties :
#
#
# Convention : Reuss Voigt Hill
#
# Bulk Modulus (GPa) = 36.29885 52.21272 44.25579
# Shear Modulus (GPa) = 21.85030 27.41942 24.63486
#
# Velocity S-wave (km/s) = 3.44504 3.85918 3.65798
# Velocity P-wave (km/s) = 5.96161 6.94391 6.47142
#
# Compressibility (1/GPa) = 0.02754908
#
# Stress axis : x y z
#
# Youngs Moduli (GPa) = 84.57907 84.57907 22.24647
#
# Poissons Ratio (x) = 0.07779 0.21807
# Poissons Ratio (y) = 0.07779 0.21807
# Poissons Ratio (z) = 0.82907 0.82907
#
# Static dielectric constant tensor:
#      x y z
#    x 3.431700 0.000000 0.000000 
#    y 0.000000 3.431700 0.000000 
#    z 0.000000 0.000000 3.327560 
# 
# 
# High freq. dielectric constant tensor:
#      x y z
#    x 1.717240 0.000000 0.000000 
#    y 0.000000 1.717240 0.000000 
#    z 0.000000 0.000000 1.713350 
# 
# From -- ./inp_files/1913.got.cif
#   From: 2010.03.12/outbox.cif.g09.slc.cpg/sg136_1_cif.got.tgz:1913.got - 2010.04.06 18:39:43.
