data_PCOD8318306
_publ_section_title
;
Structure prediction by ZEFSAII (Michael W. Deem and Ramdas Pophale) SiO2 
 PCOD8318306
Probable space group: P 42/M N M
;
_chemical_formula_sum "Si O2"
_cell_formula_units_Z 96
_cell_length_a 14.975722
_cell_length_b 14.975722
_cell_length_c 22.160732
_cell_angle_alpha 90.000000
_cell_angle_beta 90.000000
_cell_angle_gamma 90.000000
_cell_volume 4970.037214
_symmetry_space_group_name_H-M "P 42/M N M"
_symmetry_group_IT_number 136
_symmetry_cell_setting 'tetragonal'
loop_
_space_group_symop_operation_xyz
x,y,z
1/2-y,1/2+x,1/2+z
-x,-y,z
1/2+y,1/2-x,1/2+z
1/2+x,1/2-y,1/2-z
1/2-x,1/2+y,1/2-z
y,x,-z
-y,-x,-z
-x,-y,-z
1/2+y,1/2-x,1/2-z
x,y,-z
1/2-y,1/2+x,1/2-z
1/2-x,1/2+y,1/2+z
1/2+x,1/2-y,1/2+z
-y,-x,z
y,x,z
loop_
_atom_site_type_symbol
_atom_site_label
_atom_site_fract_x
_atom_site_fract_y
_atom_site_fract_z
Si Si1 0.501884 0.249418 0.570463
Si Si2 0.928147 0.071854 0.065484
Si Si3 0.260965 0.011517 0.570345
Si Si4 0.330915 0.180206 0.874664
Si Si5 0.410315 0.119158 0.248903
Si Si6 0.567420 0.432581 0.928684
Si Si7 0.833449 0.320367 0.870965
O O1 0.526959 0.255122 0.500000
O O2 0.476390 0.346245 0.599652
O O3 0.585426 0.207463 0.604480
O O4 0.411390 0.195873 0.580769
O O5 0.892241 0.107760 0.000000
O O6 0.000000 0.000000 0.051948
O O7 0.274042 0.034268 0.500000
O O8 0.162598 0.034557 0.593492
O O9 0.315449 0.077457 0.612569
O O10 0.287239 0.908620 0.580283
O O11 0.252158 0.252158 0.874320
O O12 0.373370 0.169243 0.809342
O O13 0.517409 0.123520 0.249434
O O14 0.371040 0.178679 0.303296
O O15 0.500000 0.500000 0.897194
O O16 0.562802 0.437199 0.000000
O O17 0.750323 0.249678 0.878057
#
# Coordination Sequence:
#
# PCOD8318306 Si02
#       7
#    16   8  16  16  16   8  16
#     4  11  23  38  62  95 129 166 205 253 316 379
#     4   9  18  35  57  85 125 168 205 241 295 372
#     4  11  23  38  62  95 129 166 205 253 316 379
#     4  12  25  43  65  91 128 168 212 262 312 373
#     4  11  23  44  68  88 117 165 216 263 317 366
#     4   9  18  35  57  85 125 168 205 241 295 372
#     4  12  23  41  67  93 126 163 210 265 311 367
#
# _framework density 19.315750999999999
#
# number of rings (size 3 to 8) (size 9 to 14) (size 15 to 20)
#    0.000    1.000    5.000    2.500    0.000    4.000 
#    0.000    1.667    0.000    0.000    0.000    2.333 
#    0.000    0.000    0.000    0.000    0.000    0.000 
#
# Total GULP energy -1189630.285899 kJ/mol
# GULP energy per Si atom -12391.982145 kJ/mol
# Density = 1.927179 g / cm^3
# Si number density = 19.315751 Si / 1000 Ang^3
#
#
#
# Elastic Constant Matrix: (Units=GPa)
#
#
# Indices 1 2 3 4 5 6 
#
# 1 105.1461 47.0188 12.7919 0.0000 0.0000 0.0000
# 2 47.0188 105.1445 12.7925 0.0000 0.0000 0.0000
# 3 12.7919 12.7925 65.7940 0.0000 0.0000 0.0000
# 4 0.0000 0.0000 0.0000 27.4481 0.0000 0.0000
# 5 0.0000 0.0000 0.0000 0.0000 27.4482 0.0000
# 6 0.0000 0.0000 0.0000 0.0000 0.0000 42.7803
#
#
#
# Elastic Compliance Matrix: (Units=1/GPa)
#
#
# Indices 1 2 3 4 5 6 
#
# 1 0.011999 -0.005205 -0.001321 0.000000 0.000000 0.000000
# 2 -0.005205 0.011999 -0.001321 0.000000 0.000000 0.000000
# 3 -0.001321 -0.001321 0.015713 0.000000 0.000000 0.000000
# 4 0.000000 0.000000 0.000000 0.036432 0.000000 0.000000
# 5 0.000000 0.000000 0.000000 0.000000 0.036432 0.000000
# 6 0.000000 0.000000 0.000000 0.000000 0.000000 0.023375
#
#
# Mechanical properties :
#
#
# Convention : Reuss Voigt Hill
#
# Bulk Modulus (GPa) = 41.63759 46.81014 44.22387
# Shear Modulus (GPa) = 31.31857 33.10072 32.20965
#
# Velocity S-wave (km/s) = 4.03103 4.14413 4.08797
# Velocity P-wave (km/s) = 6.57789 6.86915 6.72510
#
# Compressibility (1/GPa) = 0.02401676
#
# Stress axis : x y z
#
# Youngs Moduli (GPa) = 83.34165 83.34020 63.64313
#
# Poissons Ratio (x) = 0.43378 0.08406
# Poissons Ratio (y) = 0.43379 0.08407
# Poissons Ratio (z) = 0.11008 0.11010
#
# Static dielectric constant tensor:
#      x y z
#    x 3.709660 0.000000 0.000000 
#    y 0.000000 3.709650 0.000000 
#    z 0.000000 0.000000 3.452950 
# 
# 
# High freq. dielectric constant tensor:
#      x y z
#    x 1.765460 0.000000 0.000000 
#    y 0.000000 1.765460 0.000000 
#    z 0.000000 0.000000 1.736600 
# 
# From -- ./inp_files/7516.got.cif
#   From: 2010.03.12/outbox.cif.g09.slc.cpg/sg136_4_cif.got.tgz:7516.got - 2010.04.06 18:39:43.
