data_PCOD8318198
_publ_section_title
;
Structure prediction by ZEFSAII (Michael W. Deem and Ramdas Pophale) SiO2 
 PCOD8318198
Probable space group: P 42/M N M
;
_chemical_formula_sum "Si O2"
_cell_formula_units_Z 112
_cell_length_a 17.111245
_cell_length_b 17.111245
_cell_length_c 19.150656
_cell_angle_alpha 90.000000
_cell_angle_beta 90.000000
_cell_angle_gamma 90.000000
_cell_volume 5607.210683
_symmetry_space_group_name_H-M "P 42/M N M"
_symmetry_group_IT_number 136
_symmetry_cell_setting 'tetragonal'
loop_
_space_group_symop_operation_xyz
x,y,z
1/2-y,1/2+x,1/2+z
-x,-y,z
1/2+y,1/2-x,1/2+z
1/2+x,1/2-y,1/2-z
1/2-x,1/2+y,1/2-z
y,x,-z
-y,-x,-z
-x,-y,-z
1/2+y,1/2-x,1/2-z
x,y,-z
1/2-y,1/2+x,1/2-z
1/2-x,1/2+y,1/2+z
1/2+x,1/2-y,1/2+z
-y,-x,z
y,x,z
loop_
_atom_site_type_symbol
_atom_site_label
_atom_site_fract_x
_atom_site_fract_y
_atom_site_fract_z
Si Si1 0.628859 0.499536 0.167386
Si Si2 0.229084 0.455842 0.080012
Si Si3 0.301538 0.171983 0.139858
Si Si4 0.561782 0.686263 0.307229
Si Si5 0.686819 0.189623 0.207621
Si Si6 0.291624 0.008231 0.078461
Si Si7 0.129821 0.598664 0.921242
O O1 0.579109 0.420892 0.159695
O O2 0.575994 0.575994 0.154273
O O3 0.697997 0.495449 0.110720
O O4 0.664809 0.502063 0.245432
O O5 0.224648 0.376755 0.124016
O O6 0.147471 0.505961 0.085500
O O7 0.247105 0.435655 0.000000
O O8 0.223932 0.223932 0.127970
O O9 0.305898 0.138930 0.219458
O O10 0.307054 0.099595 0.087499
O O11 0.609646 0.609646 0.331485
O O12 0.620069 0.752391 0.280087
O O13 0.515285 0.719044 0.373368
O O14 0.728979 0.271022 0.196314
O O15 0.635959 0.182543 0.138670
O O16 0.372591 0.959505 0.092940
O O17 0.263881 0.992374 0.000000
O O18 0.154744 0.625611 0.000000
#
# Coordination Sequence:
#
# PCOD8318198 Si02
#       7
#    16  16  16  16  16  16  16
#     4  10  21  37  58  86 120 157 199 247 297 352
#     4  11  23  39  60  84 118 160 200 246 299 357
#     4  11  23  38  60  89 117 154 202 249 298 355
#     4   9  18  37  61  85 115 150 192 239 292 351
#     4   9  18  34  59  85 113 152 193 240 292 347
#     4  10  22  39  59  87 122 154 194 248 299 356
#     4   9  21  38  56  84 118 156 198 241 296 355
#
# _framework density 19.974281000000001
#
# number of rings (size 3 to 8) (size 9 to 14) (size 15 to 20)
#    0.000    2.143    1.429    0.857    2.000    4.571 
#    0.000    7.143    0.000    1.714    0.000    3.000 
#    0.000    0.000    0.000    0.000    0.000    0.000 
#
# Total GULP energy -1388140.392980 kJ/mol
# GULP energy per Si atom -12394.110652 kJ/mol
# Density = 1.992882 g / cm^3
# Si number density = 19.974281 Si / 1000 Ang^3
#
#
#
# Elastic Constant Matrix: (Units=GPa)
#
#
# Indices 1 2 3 4 5 6 
#
# 1 73.6295 23.3036 36.9213 0.0000 0.0000 0.0000
# 2 23.3036 73.6295 36.9213 0.0000 0.0000 0.0000
# 3 36.9213 36.9213 113.7802 0.0000 0.0000 0.0000
# 4 0.0000 0.0000 0.0000 27.8140 0.0000 0.0000
# 5 0.0000 0.0000 0.0000 0.0000 27.8140 0.0000
# 6 0.0000 0.0000 0.0000 0.0000 0.0000 26.1310
#
#
#
# Elastic Compliance Matrix: (Units=1/GPa)
#
#
# Indices 1 2 3 4 5 6 
#
# 1 0.016787 -0.003083 -0.004447 0.000000 0.000000 0.000000
# 2 -0.003083 0.016787 -0.004447 0.000000 0.000000 0.000000
# 3 -0.004447 -0.004447 0.011675 0.000000 0.000000 0.000000
# 4 0.000000 0.000000 0.000000 0.035953 0.000000 0.000000
# 5 0.000000 0.000000 0.000000 0.000000 0.035953 0.000000
# 6 0.000000 0.000000 0.000000 0.000000 0.000000 0.038269
#
#
# Mechanical properties :
#
#
# Convention : Reuss Voigt Hill
#
# Bulk Modulus (GPa) = 46.95880 50.59241 48.77561
# Shear Modulus (GPa) = 26.81297 27.27799 27.04548
#
# Velocity S-wave (km/s) = 3.66782 3.69949 3.68369
# Velocity P-wave (km/s) = 6.44188 6.60545 6.52418
#
# Compressibility (1/GPa) = 0.02129526
#
# Stress axis : x y z
#
# Youngs Moduli (GPa) = 59.56905 59.56905 85.65393
#
# Poissons Ratio (x) = 0.18367 0.38089
# Poissons Ratio (y) = 0.18367 0.38089
# Poissons Ratio (z) = 0.26490 0.26490
#
# Static dielectric constant tensor:
#      x y z
#    x 3.554280 0.000000 0.000000 
#    y 0.000000 3.554280 0.000000 
#    z 0.000000 0.000000 3.709520 
# 
# 
# High freq. dielectric constant tensor:
#      x y z
#    x 1.769230 0.000000 0.000000 
#    y 0.000000 1.769230 0.000000 
#    z 0.000000 0.000000 1.790420 
# 
# From -- ./inp_files/7767.got.cif
#   From: 2010.03.12/outbox.cif.g09.slc.cpg/sg136_4_cif.got.tgz:7767.got - 2010.04.06 18:39:43.
