data_PCOD8318051
_publ_section_title
;
Structure prediction by ZEFSAII (Michael W. Deem and Ramdas Pophale) SiO2 
 PCOD8318051
Probable space group: P 42/M N M
;
_chemical_formula_sum "Si O2"
_cell_formula_units_Z 88
_cell_length_a 14.085616
_cell_length_b 14.085616
_cell_length_c 22.728904
_cell_angle_alpha 90.000000
_cell_angle_beta 90.000000
_cell_angle_gamma 90.000000
_cell_volume 4509.518609
_symmetry_space_group_name_H-M "P 42/M N M"
_symmetry_group_IT_number 136
_symmetry_cell_setting 'tetragonal'
loop_
_space_group_symop_operation_xyz
x,y,z
1/2-y,1/2+x,1/2+z
-x,-y,z
1/2+y,1/2-x,1/2+z
1/2+x,1/2-y,1/2-z
1/2-x,1/2+y,1/2-z
y,x,-z
-y,-x,-z
-x,-y,-z
1/2+y,1/2-x,1/2-z
x,y,-z
1/2-y,1/2+x,1/2-z
1/2-x,1/2+y,1/2+z
1/2+x,1/2-y,1/2+z
-y,-x,z
y,x,z
loop_
_atom_site_type_symbol
_atom_site_label
_atom_site_fract_x
_atom_site_fract_y
_atom_site_fract_z
Si Si1 0.547628 0.692223 0.431200
Si Si2 0.325348 0.174687 0.635459
Si Si3 0.857702 0.560191 0.251391
Si Si4 0.289345 0.137436 0.932070
Si Si5 0.079859 0.920142 0.430724
Si Si6 0.960664 0.278749 0.371033
O O1 0.535384 0.678482 0.500000
O O2 0.592936 0.592936 0.405388
O O3 0.621844 0.776218 0.418903
O O4 0.445352 0.722034 0.404357
O O5 0.222284 0.222284 0.646127
O O6 0.388966 0.190573 0.693438
O O7 0.316023 0.065912 0.617824
O O8 0.883655 0.452292 0.268586
O O9 0.780395 0.561600 0.198696
O O10 0.237979 0.237979 0.923017
O O11 0.390711 0.144955 0.901012
O O12 0.307821 0.114449 0.000000
O O13 0.098956 0.901045 0.500000
O O14 0.046306 0.824802 0.398987
O O15 0.000000 0.000000 0.422152
#
# Coordination Sequence:
#
# PCOD8318051 Si02
#       6
#    16  16  16  16   8  16
#     4   9  19  35  54  80 112 148 188 237 298 362
#     4  10  21  36  55  81 114 149 189 239 301 358
#     4   9  19  35  56  83 111 143 188 241 297 356
#     4  10  20  34  54  80 110 146 192 242 290 348
#     4  11  24  40  58  84 121 163 206 250 298 351
#     4  11  21  36  58  83 112 151 198 244 293 356
#
# _framework density 19.514278000000001
#
# number of rings (size 3 to 8) (size 9 to 14) (size 15 to 20)
#    0.000    2.091    0.909    2.182    1.273    4.000 
#    0.000    5.455    0.000    1.091    0.000    0.000 
#    0.000    0.000    0.000    0.000    0.000    0.000 
#
# Total GULP energy -1090807.666003 kJ/mol
# GULP energy per Si atom -12395.541659 kJ/mol
# Density = 1.946986 g / cm^3
# Si number density = 19.514278 Si / 1000 Ang^3
#
#
#
# Elastic Constant Matrix: (Units=GPa)
#
#
# Indices 1 2 3 4 5 6 
#
# 1 93.7483 24.0271 30.3389 0.0000 0.0000 0.0000
# 2 24.0271 93.7483 30.3389 0.0000 0.0000 0.0000
# 3 30.3389 30.3389 51.8148 0.0000 0.0000 0.0000
# 4 0.0000 0.0000 0.0000 29.9342 0.0000 0.0000
# 5 0.0000 0.0000 0.0000 0.0000 29.9342 0.0000
# 6 0.0000 0.0000 0.0000 0.0000 0.0000 34.4799
#
#
#
# Elastic Compliance Matrix: (Units=1/GPa)
#
#
# Indices 1 2 3 4 5 6 
#
# 1 0.013251 -0.001092 -0.007119 0.000000 0.000000 0.000000
# 2 -0.001092 0.013251 -0.007119 0.000000 0.000000 0.000000
# 3 -0.007119 -0.007119 0.027636 0.000000 0.000000 0.000000
# 4 0.000000 0.000000 0.000000 0.033407 0.000000 0.000000
# 5 0.000000 0.000000 0.000000 0.000000 0.033407 0.000000
# 6 0.000000 0.000000 0.000000 0.000000 0.000000 0.029002
#
#
# Mechanical properties :
#
#
# Convention : Reuss Voigt Hill
#
# Bulk Modulus (GPa) = 42.59508 45.41348 44.00428
# Shear Modulus (GPa) = 26.53367 29.17675 27.85521
#
# Velocity S-wave (km/s) = 3.69142 3.87091 3.78223
# Velocity P-wave (km/s) = 6.32802 6.58035 6.45542
#
# Compressibility (1/GPa) = 0.02347689
#
# Stress axis : x y z
#
# Youngs Moduli (GPa) = 75.46788 75.46790 36.18421
#
# Poissons Ratio (x) = 0.08242 0.25760
# Poissons Ratio (y) = 0.08242 0.25760
# Poissons Ratio (z) = 0.53727 0.53726
#
# Static dielectric constant tensor:
#      x y z
#    x 3.700270 0.000000 0.000000 
#    y 0.000000 3.700270 0.000000 
#    z 0.000000 0.000000 3.446040 
# 
# 
# High freq. dielectric constant tensor:
#      x y z
#    x 1.764270 0.000000 0.000000 
#    y 0.000000 1.764270 0.000000 
#    z 0.000000 0.000000 1.744840 
# 
# From -- ./inp_files/7386.got.cif
#   From: 2010.03.12/outbox.cif.g09.slc.cpg/sg136_4_cif.got.tgz:7386.got - 2010.04.06 18:39:43.
