data_PCOD8318089
_publ_section_title
;
Structure prediction by ZEFSAII (Michael W. Deem and Ramdas Pophale) SiO2 
 PCOD8318089
Probable space group: P 42/M N M
;
_chemical_formula_sum "Si O2"
_cell_formula_units_Z 80
_cell_length_a 11.390442
_cell_length_b 11.390442
_cell_length_c 28.546623
_cell_angle_alpha 90.000000
_cell_angle_beta 90.000000
_cell_angle_gamma 90.000000
_cell_volume 3703.700784
_symmetry_space_group_name_H-M "P 42/M N M"
_symmetry_group_IT_number 136
_symmetry_cell_setting 'tetragonal'
loop_
_space_group_symop_operation_xyz
x,y,z
1/2-y,1/2+x,1/2+z
-x,-y,z
1/2+y,1/2-x,1/2+z
1/2+x,1/2-y,1/2-z
1/2-x,1/2+y,1/2-z
y,x,-z
-y,-x,-z
-x,-y,-z
1/2+y,1/2-x,1/2-z
x,y,-z
1/2-y,1/2+x,1/2-z
1/2-x,1/2+y,1/2+z
1/2+x,1/2-y,1/2+z
-y,-x,z
y,x,z
loop_
_atom_site_type_symbol
_atom_site_label
_atom_site_fract_x
_atom_site_fract_y
_atom_site_fract_z
Si Si1 0.396371 0.094245 0.947063
Si Si2 0.430045 0.245563 0.613601
Si Si3 0.074616 0.263945 0.201826
Si Si4 0.766624 0.948014 0.396233
Si Si5 0.449991 0.259629 0.202966
O O1 0.441749 0.220022 0.926854
O O2 0.500000 0.000000 0.945192
O O3 0.284315 0.045453 0.917655
O O4 0.353795 0.115346 0.000000
O O5 0.372292 0.372292 0.600450
O O6 0.461535 0.244385 0.668587
O O7 0.335757 0.145989 0.605262
O O8 0.163518 0.163518 0.185379
O O9 0.132366 0.391784 0.194921
O O10 0.044569 0.247434 0.256041
O O11 0.884016 0.884016 0.417368
O O12 0.800855 0.988395 0.344359
O O13 0.352253 0.352253 0.218849
#
# Coordination Sequence:
#
# PCOD8318089 Si02
#       5
#    16  16  16  16  16
#     4   9  18  34  57  85 117 151 191 245 303 354
#     4  10  20  35  57  84 114 150 193 240 296 360
#     4  11  23  37  55  81 113 151 193 236 290 354
#     4  10  20  35  57  84 114 150 193 240 296 360
#     4  11  23  37  55  81 113 151 193 236 290 354
#
# _framework density 21.600016
#
# number of rings (size 3 to 8) (size 9 to 14) (size 15 to 20)
#    0.000    1.800    2.000    2.400    0.000    8.800 
#    0.000    4.000    0.000    2.400    0.000    2.800 
#    0.000    0.000    0.000    0.000    0.000    0.000 
#
# Total GULP energy -991900.948295 kJ/mol
# GULP energy per Si atom -12398.761854 kJ/mol
# Density = 2.155085 g / cm^3
# Si number density = 21.600016 Si / 1000 Ang^3
#
#
#
# Elastic Constant Matrix: (Units=GPa)
#
#
# Indices 1 2 3 4 5 6 
#
# 1 76.2862 46.9952 31.1226 0.0000 0.0000 0.0000
# 2 46.9952 76.2862 31.1226 0.0000 0.0000 0.0000
# 3 31.1226 31.1226 121.5038 0.0000 0.0000 0.0000
# 4 0.0000 0.0000 0.0000 14.1874 0.0000 0.0000
# 5 0.0000 0.0000 0.0000 0.0000 14.1874 0.0000
# 6 0.0000 0.0000 0.0000 0.0000 0.0000 32.9981
#
#
#
# Elastic Compliance Matrix: (Units=1/GPa)
#
#
# Indices 1 2 3 4 5 6 
#
# 1 0.021728 -0.012412 -0.002386 0.000000 0.000000 0.000000
# 2 -0.012412 0.021728 -0.002386 0.000000 0.000000 0.000000
# 3 -0.002386 -0.002386 0.009453 0.000000 0.000000 0.000000
# 4 0.000000 0.000000 0.000000 0.070485 0.000000 0.000000
# 5 0.000000 0.000000 0.000000 0.000000 0.070485 0.000000
# 6 0.000000 0.000000 0.000000 0.000000 0.000000 0.030305
#
#
# Mechanical properties :
#
#
# Convention : Reuss Voigt Hill
#
# Bulk Modulus (GPa) = 53.93715 54.72856 54.33285
# Shear Modulus (GPa) = 18.88695 23.26365 21.07530
#
# Velocity S-wave (km/s) = 2.96023 3.28536 3.12702
# Velocity P-wave (km/s) = 6.05880 6.30743 6.18436
#
# Compressibility (1/GPa) = 0.01854010
#
# Stress axis : x y z
#
# Youngs Moduli (GPa) = 46.02298 46.02298 105.78989
#
# Poissons Ratio (x) = 0.57123 0.25245
# Poissons Ratio (y) = 0.57123 0.25245
# Poissons Ratio (z) = 0.10983 0.10983
#
# Static dielectric constant tensor:
#      x y z
#    x 3.969960 0.000000 0.000000 
#    y 0.000000 3.969960 0.000000 
#    z 0.000000 0.000000 3.765890 
# 
# 
# High freq. dielectric constant tensor:
#      x y z
#    x 1.841650 0.000000 0.000000 
#    y 0.000000 1.841650 0.000000 
#    z 0.000000 0.000000 1.835560 
# 
# From -- ./inp_files/9538.got.cif
#   From: 2010.03.12/outbox.cif.g09.slc.cpg/sg136_5_cif.got.tgz:9538.got - 2010.04.06 18:39:43.
