data_PCOD8318720
_publ_section_title
;
Structure prediction by ZEFSAII (Michael W. Deem and Ramdas Pophale) SiO2 
 PCOD8318720
Probable space group: P 42/N M C
;
_chemical_formula_sum "Si O2"
_cell_formula_units_Z 50
_cell_length_a 11.583741
_cell_length_b 11.583741
_cell_length_c 20.160977
_cell_angle_alpha 90.000000
_cell_angle_beta 90.000000
_cell_angle_gamma 90.000000
_cell_volume 2705.261497
_symmetry_space_group_name_H-M "P 42/N M C"
_symmetry_group_IT_number 137
_space_group.IT_coordinate_system_code '2'
_symmetry_cell_setting 'tetragonal'
loop_
_space_group_symop_operation_xyz
x,y,z
1/2-y,x,1/2+z
1/2-x,1/2-y,z
y,1/2-x,1/2+z
1/2+x,-y,-z
-x,1/2+y,-z
1/2+y,1/2+x,1/2-z
-y,-x,1/2-z
-x,-y,-z
1/2+y,-x,1/2-z
1/2+x,1/2+y,-z
-y,1/2+x,1/2-z
1/2-x,y,z
x,1/2-y,z
1/2-y,1/2-x,1/2+z
y,x,1/2+z
loop_
_atom_site_type_symbol
_atom_site_label
_atom_site_fract_x
_atom_site_fract_y
_atom_site_fract_z
Si Si1 0.250000 0.750000 0.250000
Si Si2 0.611458 0.750000 0.185064
Si Si3 0.620625 0.378124 0.470704
Si Si4 0.053190 0.980897 0.393877
Si Si5 0.990029 0.250000 0.679254
O O1 0.250000 0.859379 0.203441
O O2 0.750000 0.750000 0.172001
O O3 0.549126 0.637707 0.155241
O O4 0.586312 0.750000 0.263442
O O5 0.750000 0.372818 0.444411
O O6 0.572096 0.250000 0.485393
O O7 0.550571 0.433729 0.410739
O O8 0.618796 0.451203 0.538276
O O9 0.995759 0.866412 0.362994
#
# Coordination Sequence:
#
# PCOD8318720 Si02
#       5
#     2   8  16  16   8
#     4  12  20  36  68  92 108 160 204 252 286 352
#     4  12  24  38  58  86 122 158 198 249 301 358
#     4  10  21  37  60  85 118 160 195 243 299 367
#     4  11  21  38  58  89 118 153 199 250 304 355
#     4  12  22  38  64  88 118 156 206 253 303 359
#
# _framework density 18.482500000000002
#
# number of rings (size 3 to 8) (size 9 to 14) (size 15 to 20)
#    0.000    0.960    6.400    0.960    0.000    1.280 
#    0.000    0.000    0.000    0.000    0.000    4.480 
#    0.000    0.000    0.000    0.000    0.000    0.000 
#
# Total GULP energy -620010.370421 kJ/mol
# GULP energy per Si atom -12400.207408 kJ/mol
# Density = 1.844043 g / cm^3
# Si number density = 18.482500 Si / 1000 Ang^3
#
#
#
# Elastic Constant Matrix: (Units=GPa)
#
#
# Indices 1 2 3 4 5 6 
#
# 1 109.3061 43.4812 34.6820 0.0000 0.0000 0.0000
# 2 43.4812 109.3061 34.6820 0.0000 0.0000 0.0000
# 3 34.6820 34.6820 73.6146 0.0000 0.0000 0.0000
# 4 0.0000 0.0000 0.0000 35.3596 0.0000 0.0000
# 5 0.0000 0.0000 0.0000 0.0000 35.3596 0.0000
# 6 0.0000 0.0000 0.0000 0.0000 0.0000 26.8804
#
#
#
# Elastic Compliance Matrix: (Units=1/GPa)
#
#
# Indices 1 2 3 4 5 6 
#
# 1 0.011759 -0.003433 -0.003923 0.000000 0.000000 0.000000
# 2 -0.003433 0.011759 -0.003923 0.000000 0.000000 0.000000
# 3 -0.003923 -0.003923 0.017280 0.000000 0.000000 0.000000
# 4 0.000000 0.000000 0.000000 0.028281 0.000000 0.000000
# 5 0.000000 0.000000 0.000000 0.000000 0.028281 0.000000
# 6 0.000000 0.000000 0.000000 0.000000 0.000000 0.037202
#
#
# Mechanical properties :
#
#
# Convention : Reuss Voigt Hill
#
# Bulk Modulus (GPa) = 54.81911 57.54636 56.18274
# Shear Modulus (GPa) = 30.63758 31.47870 31.05814
#
# Velocity S-wave (km/s) = 4.07585 4.13142 4.10373
# Velocity P-wave (km/s) = 7.20239 7.34584 7.27447
#
# Compressibility (1/GPa) = 0.01824181
#
# Stress axis : x y z
#
# Youngs Moduli (GPa) = 85.04249 85.04249 57.86935
#
# Poissons Ratio (x) = 0.29195 0.22699
# Poissons Ratio (y) = 0.29195 0.22699
# Poissons Ratio (z) = 0.33358 0.33358
#
# Static dielectric constant tensor:
#      x y z
#    x 3.217870 0.000000 0.000000 
#    y 0.000000 3.217870 0.000000 
#    z 0.000000 0.000000 3.326680 
# 
# 
# High freq. dielectric constant tensor:
#      x y z
#    x 1.720940 0.000000 0.000000 
#    y 0.000000 1.720940 0.000000 
#    z 0.000000 0.000000 1.711750 
# 
# From -- ./inp_files/7125.got.cif
#   From: 2010.03.12/outbox.cif.g09.slc.cpg/sg137_4_cif.got.tgz:7125.got - 2010.04.08 09:34:49.
