data_PCOD8318004
_publ_section_title
;
Structure prediction by ZEFSAII (Michael W. Deem and Ramdas Pophale) SiO2 
 PCOD8318004
Probable space group: P 42/M N M
;
_chemical_formula_sum "Si O2"
_cell_formula_units_Z 104
_cell_length_a 17.849190
_cell_length_b 17.849190
_cell_length_c 18.024243
_cell_angle_alpha 90.000000
_cell_angle_beta 90.000000
_cell_angle_gamma 90.000000
_cell_volume 5742.408170
_symmetry_space_group_name_H-M "P 42/M N M"
_symmetry_group_IT_number 136
_symmetry_cell_setting 'tetragonal'
loop_
_space_group_symop_operation_xyz
x,y,z
1/2-y,1/2+x,1/2+z
-x,-y,z
1/2+y,1/2-x,1/2+z
1/2+x,1/2-y,1/2-z
1/2-x,1/2+y,1/2-z
y,x,-z
-y,-x,-z
-x,-y,-z
1/2+y,1/2-x,1/2-z
x,y,-z
1/2-y,1/2+x,1/2-z
1/2-x,1/2+y,1/2+z
1/2+x,1/2-y,1/2+z
-y,-x,z
y,x,z
loop_
_atom_site_type_symbol
_atom_site_label
_atom_site_fract_x
_atom_site_fract_y
_atom_site_fract_z
Si Si1 0.319745 0.193577 0.826103
Si Si2 0.788880 0.037418 0.337749
Si Si3 0.558385 0.558385 0.086094
Si Si4 0.608538 0.269463 0.084444
Si Si5 0.593695 0.281917 0.583315
Si Si6 0.711494 0.166948 0.836094
Si Si7 0.674141 0.550693 0.667154
O O1 0.257504 0.257504 0.831837
O O2 0.397948 0.228433 0.855723
O O3 0.293491 0.120984 0.873578
O O4 0.334000 0.165473 0.741539
O O5 0.856991 0.040627 0.394306
O O6 0.822170 0.041050 0.255519
O O7 0.753817 0.956701 0.356253
O O8 0.500000 0.500000 0.124944
O O9 0.548659 0.548659 0.000000
O O10 0.653252 0.346749 0.101870
O O11 0.663907 0.199037 0.095900
O O12 0.579782 0.268772 0.000000
O O13 0.567660 0.259964 0.500000
O O14 0.663343 0.336658 0.579013
O O15 0.528557 0.327464 0.625896
O O16 0.783542 0.216459 0.817293
O O17 0.746759 0.087261 0.859043
O O18 0.600352 0.600352 0.646584
#
# Coordination Sequence:
#
# PCOD8318004 Si02
#       7
#    16  16   8  16  16  16  16
#     4   9  17  34  54  73  97 132 180 222 258 305
#     4  11  19  34  52  77 106 142 179 213 254 311
#     4  11  22  32  44  72 113 149 174 204 249 304
#     4  10  20  32  48  76 110 142 175 210 256 312
#     4  10  22  36  51  76 106 137 175 219 268 320
#     4   8  16  32  54  74  97 129 174 223 259 307
#     4  10  20  36  56  78 102 134 178 221 268 321
#
# _framework density 18.110868
#
# number of rings (size 3 to 8) (size 9 to 14) (size 15 to 20)
#    0.000    2.231    1.538    2.769    0.000    6.154 
#    0.000    2.308    0.000    0.923    0.000    6.462 
#    0.000    0.000    0.000    0.000    0.000    0.000 
#
# Total GULP energy -1288851.394214 kJ/mol
# GULP energy per Si atom -12392.801867 kJ/mol
# Density = 1.806965 g / cm^3
# Si number density = 18.110868 Si / 1000 Ang^3
#
#
#
# Elastic Constant Matrix: (Units=GPa)
#
#
# Indices 1 2 3 4 5 6 
#
# 1 44.8796 47.9985 27.8767 0.0000 0.0000 0.0000
# 2 47.9985 44.8796 27.8767 0.0000 0.0000 0.0000
# 3 27.8767 27.8767 60.1768 0.0000 0.0000 0.0000
# 4 0.0000 0.0000 0.0000 24.4137 0.0000 0.0000
# 5 0.0000 0.0000 0.0000 0.0000 24.4137 0.0000
# 6 0.0000 0.0000 0.0000 0.0000 0.0000 26.6264
#
#
#
# Elastic Compliance Matrix: (Units=1/GPa)
#
#
# Indices 1 2 3 4 5 6 
#
# 1 -0.152858 0.167772 -0.006909 0.000000 0.000000 0.000000
# 2 0.167772 -0.152858 -0.006909 0.000000 0.000000 0.000000
# 3 -0.006909 -0.006909 0.023019 0.000000 0.000000 0.000000
# 4 0.000000 0.000000 0.000000 0.040961 0.000000 0.000000
# 5 0.000000 0.000000 0.000000 0.000000 0.040961 0.000000
# 6 0.000000 0.000000 0.000000 0.000000 0.000000 0.037557
#
#
# Mechanical properties :
#
#
# Convention : Reuss Voigt Hill
#
# Bulk Modulus (GPa) = 39.66468 39.71553 39.69011
# Shear Modulus (GPa) = -10.80559 18.16970 3.68206
#
# Velocity S-wave (km/s) = -2.44526 3.17085 1.42740
# Velocity P-wave (km/s) = 3.73847 5.94831 4.96783
#
# Compressibility (1/GPa) = 0.02521134
#
# Stress axis : x y z
#
# Youngs Moduli (GPa) = -6.54203 -6.54203 43.44281
#
# Poissons Ratio (x) = 1.09757 0.30014
# Poissons Ratio (y) = 1.09757 0.30014
# Poissons Ratio (z) = -0.04520 -0.04520
#
# Static dielectric constant tensor:
#      x y z
#    x 3.412660 0.000000 0.000000 
#    y 0.000000 3.412660 0.000000 
#    z 0.000000 0.000000 3.346930 
# 
# 
# High freq. dielectric constant tensor:
#      x y z
#    x 1.684570 0.000000 0.000000 
#    y 0.000000 1.684570 0.000000 
#    z 0.000000 0.000000 1.701820 
# 
# From -- ./inp_files/6425.got.cif
#   From: 2010.03.12/outbox.cif.g09.slc.cpg/sg136_4_cif.got.tgz:6425.got - 2010.04.06 18:39:43.
