data_PCOD8318224
_publ_section_title
;
Structure prediction by ZEFSAII (Michael W. Deem and Ramdas Pophale) SiO2 
 PCOD8318224
Probable space group: P 42/M N M
;
_chemical_formula_sum "Si O2"
_cell_formula_units_Z 88
_cell_length_a 18.135007
_cell_length_b 18.135007
_cell_length_c 13.275162
_cell_angle_alpha 90.000000
_cell_angle_beta 90.000000
_cell_angle_gamma 90.000000
_cell_volume 4365.915086
_symmetry_space_group_name_H-M "P 42/M N M"
_symmetry_group_IT_number 136
_symmetry_cell_setting 'tetragonal'
loop_
_space_group_symop_operation_xyz
x,y,z
1/2-y,1/2+x,1/2+z
-x,-y,z
1/2+y,1/2-x,1/2+z
1/2+x,1/2-y,1/2-z
1/2-x,1/2+y,1/2-z
y,x,-z
-y,-x,-z
-x,-y,-z
1/2+y,1/2-x,1/2-z
x,y,-z
1/2-y,1/2+x,1/2-z
1/2-x,1/2+y,1/2+z
1/2+x,1/2-y,1/2+z
-y,-x,z
y,x,z
loop_
_atom_site_type_symbol
_atom_site_label
_atom_site_fract_x
_atom_site_fract_y
_atom_site_fract_z
Si Si1 0.180221 0.067730 0.500000
Si Si2 0.080756 0.347838 0.500000
Si Si3 0.891063 0.480127 0.212779
Si Si4 0.635325 0.757237 0.000000
Si Si5 0.501740 0.746640 0.337942
Si Si6 0.331280 0.452881 0.153231
Si Si7 0.753104 0.877091 0.000000
Si Si8 0.126765 0.746213 0.000000
O O1 0.152955 0.152955 0.500000
O O2 0.266252 0.050730 0.500000
O O3 0.147184 0.028075 0.402303
O O4 0.051755 0.390843 0.598840
O O5 0.168234 0.332705 0.500000
O O6 0.927227 0.561196 0.213976
O O7 0.810870 0.484531 0.259430
O O8 0.586164 0.741037 0.100354
O O9 0.670615 0.840259 0.000000
O O10 0.705001 0.705001 0.000000
O O11 0.523925 0.677811 0.269013
O O12 0.428223 0.734856 0.402531
O O13 0.574755 0.756413 0.403253
O O14 0.398994 0.398994 0.142640
O O15 0.815846 0.815846 0.000000
O O16 0.185599 0.814402 0.000000
#
# Coordination Sequence:
#
# PCOD8318224 Si02
#       8
#     8   8  16   8  16  16   8   8
#     4  11  23  38  60  91 126 161 207 268 327 385
#     4  12  23  43  66  96 136 168 217 268 314 390
#     4  11  25  42  66 100 134 173 210 254 324 392
#     4   8  18  37  62  90 116 152 202 255 313 373
#     4  11  23  41  63  93 127 167 219 265 316 386
#     4  10  21  39  64  91 120 161 212 265 320 383
#     4  10  24  41  62  91 127 171 215 267 321 381
#     4  11  24  43  67  92 125 172 223 268 324 378
#
# _framework density 20.156141000000002
#
# number of rings (size 3 to 8) (size 9 to 14) (size 15 to 20)
#    0.000    1.455    3.636    1.636    2.545    4.364 
#    0.000    0.000    0.000    9.273    0.000    0.000 
#    0.000    0.000    0.000    0.000    0.000    0.000 
#
# Total GULP energy -1090417.500023 kJ/mol
# GULP energy per Si atom -12391.107955 kJ/mol
# Density = 2.011027 g / cm^3
# Si number density = 20.156141 Si / 1000 Ang^3
#
#
#
# Elastic Constant Matrix: (Units=GPa)
#
#
# Indices 1 2 3 4 5 6 
#
# 1 80.8312 22.3176 27.5890 0.0000 0.0000 0.0000
# 2 22.3176 80.8303 27.5883 0.0000 0.0000 0.0000
# 3 27.5890 27.5883 124.3677 0.0000 0.0000 0.0000
# 4 0.0000 0.0000 0.0000 23.6312 0.0000 0.0000
# 5 0.0000 0.0000 0.0000 0.0000 23.6307 0.0000
# 6 0.0000 0.0000 0.0000 0.0000 0.0000 27.7054
#
#
#
# Elastic Compliance Matrix: (Units=1/GPa)
#
#
# Indices 1 2 3 4 5 6 
#
# 1 0.014045 -0.003045 -0.002440 0.000000 0.000000 0.000000
# 2 -0.003045 0.014045 -0.002440 0.000000 0.000000 0.000000
# 3 -0.002440 -0.002440 0.009123 0.000000 0.000000 0.000000
# 4 0.000000 0.000000 0.000000 0.042317 0.000000 0.000000
# 5 0.000000 0.000000 0.000000 0.000000 0.042318 0.000000
# 6 0.000000 0.000000 0.000000 0.000000 0.000000 0.036094
#
#
# Mechanical properties :
#
#
# Convention : Reuss Voigt Hill
#
# Bulk Modulus (GPa) = 46.81033 49.00212 47.90623
# Shear Modulus (GPa) = 27.63742 28.89574 28.26658
#
# Velocity S-wave (km/s) = 3.70694 3.79039 3.74890
# Velocity P-wave (km/s) = 6.44951 6.59698 6.52366
#
# Compressibility (1/GPa) = 0.02136280
#
# Stress axis : x y z
#
# Youngs Moduli (GPa) = 71.19931 71.19878 109.60965
#
# Poissons Ratio (x) = 0.21680 0.26747
# Poissons Ratio (y) = 0.21681 0.26746
# Poissons Ratio (z) = 0.17374 0.17373
#
# Static dielectric constant tensor:
#      x y z
#    x 3.637570 0.000000 0.000000 
#    y 0.000000 3.637570 0.000000 
#    z 0.000000 0.000000 3.846990 
# 
# 
# High freq. dielectric constant tensor:
#      x y z
#    x 1.786470 0.000000 0.000000 
#    y 0.000000 1.786470 0.000000 
#    z 0.000000 0.000000 1.792130 
# 
# From -- ./inp_files/5121.got.cif
#   From: 2010.03.12/outbox.cif.g09.slc.cpg/sg136_3_cif.got.tgz:5121.got - 2010.04.06 18:39:43.
