data_PCOD8318695
_publ_section_title
;
Structure prediction by ZEFSAII (Michael W. Deem and Ramdas Pophale) SiO2 
 PCOD8318695
Probable space group: P 42/N M C
;
_chemical_formula_sum "Si O2"
_cell_formula_units_Z 96
_cell_length_a 23.466368
_cell_length_b 23.466368
_cell_length_c 9.340906
_cell_angle_alpha 90.000000
_cell_angle_beta 90.000000
_cell_angle_gamma 90.000000
_cell_volume 5143.760697
_symmetry_space_group_name_H-M "P 42/N M C"
_symmetry_group_IT_number 137
_space_group.IT_coordinate_system_code '2'
_symmetry_cell_setting 'tetragonal'
loop_
_space_group_symop_operation_xyz
x,y,z
1/2-y,x,1/2+z
1/2-x,1/2-y,z
y,1/2-x,1/2+z
1/2+x,-y,-z
-x,1/2+y,-z
1/2+y,1/2+x,1/2-z
-y,-x,1/2-z
-x,-y,-z
1/2+y,-x,1/2-z
1/2+x,1/2+y,-z
-y,1/2+x,1/2-z
1/2-x,y,z
x,1/2-y,z
1/2-y,1/2-x,1/2+z
y,x,1/2+z
loop_
_atom_site_type_symbol
_atom_site_label
_atom_site_fract_x
_atom_site_fract_y
_atom_site_fract_z
Si Si1 0.873468 0.183304 0.379575
Si Si2 0.185584 0.628000 0.375064
Si Si3 0.817455 0.602875 0.156277
Si Si4 0.395670 0.317788 0.014493
Si Si5 0.992561 0.182396 0.514519
Si Si6 0.501805 0.316158 0.835867
O O1 0.857767 0.142234 0.250000
O O2 0.873234 0.250000 0.336167
O O3 0.824496 0.171197 0.495420
O O4 0.933950 0.162209 0.441089
O O5 0.142469 0.642469 0.250000
O O6 0.250000 0.635403 0.319097
O O7 0.173993 0.562046 0.416019
O O8 0.750000 0.607640 0.146895
O O9 0.842027 0.656238 0.068899
O O10 0.838233 0.603974 0.320733
O O11 0.839387 0.544622 0.082879
O O12 0.390830 0.250000 0.006108
O O13 0.452622 0.342029 0.936982
O O14 0.991252 0.250000 0.523239
O O15 0.998009 0.156777 0.675522
O O16 0.488463 0.250000 0.818302
#
# Coordination Sequence:
#
# PCOD8318695 Si02
#       6
#    16  16  16  16  16  16
#     4  11  23  36  52  78 112 150 186 229 283 333
#     4  11  21  34  54  80 110 146 186 230 280 331
#     4  10  21  36  58  86 115 147 180 220 267 319
#     4  10  21  36  58  87 115 146 181 219 267 320
#     4   9  18  35  55  76 106 146 189 226 267 323
#     4   9  18  34  55  78 106 144 188 228 267 321
#
# _framework density 18.663388000000001
#
# number of rings (size 3 to 8) (size 9 to 14) (size 15 to 20)
#    0.000    2.000    1.667    2.000    2.333    4.333 
#    0.000    1.667    0.000    2.000    0.000    0.000 
#    0.000    0.000    0.000    0.000    0.000    0.000 
#
# Total GULP energy -1190181.363159 kJ/mol
# GULP energy per Si atom -12397.722533 kJ/mol
# Density = 1.862091 g / cm^3
# Si number density = 18.663388 Si / 1000 Ang^3
#
#
#
# Elastic Constant Matrix: (Units=GPa)
#
#
# Indices 1 2 3 4 5 6 
#
# 1 34.7321 52.7221 33.0354 0.0000 0.0000 0.0000
# 2 52.7221 34.7315 33.0223 0.0000 0.0000 0.0000
# 3 33.0354 33.0223 115.7609 0.0000 0.0000 0.0000
# 4 0.0000 0.0000 0.0000 34.0585 0.0000 0.0000
# 5 0.0000 0.0000 0.0000 0.0000 34.0588 0.0000
# 6 0.0000 0.0000 0.0000 0.0000 0.0000 9.0169
#
#
#
# Elastic Compliance Matrix: (Units=1/GPa)
#
#
# Indices 1 2 3 4 5 6 
#
# 1 -0.020508 0.035081 -0.004155 0.000000 0.000000 0.000000
# 2 0.035081 -0.020502 -0.004163 0.000000 0.000000 0.000000
# 3 -0.004155 -0.004163 0.011012 0.000000 0.000000 0.000000
# 4 0.000000 0.000000 0.000000 0.029361 0.000000 0.000000
# 5 0.000000 0.000000 0.000000 0.000000 0.029361 0.000000
# 6 0.000000 0.000000 0.000000 0.000000 0.000000 0.110903
#
#
# Mechanical properties :
#
#
# Convention : Reuss Voigt Hill
#
# Bulk Modulus (GPa) = 42.50197 46.97599 44.73898
# Shear Modulus (GPa) = 53.22363 19.85649 36.54006
#
# Velocity S-wave (km/s) = 5.34599 3.26533 4.42956
# Velocity P-wave (km/s) = 7.80567 6.28023 7.08413
#
# Compressibility (1/GPa) = 0.02352832
#
# Stress axis : x y z
#
# Youngs Moduli (GPa) = -48.76239 -48.77561 90.81283
#
# Poissons Ratio (x) = 1.71108 0.37731
# Poissons Ratio (y) = 1.71062 0.37803
# Poissons Ratio (z) = -0.20260 -0.20304
#
# Static dielectric constant tensor:
#      x y z
#    x 3.261280 0.000000 0.000000 
#    y 0.000000 3.261270 0.000000 
#    z 0.000000 0.000000 4.151070 
# 
# 
# High freq. dielectric constant tensor:
#      x y z
#    x 1.705190 0.000000 0.000000 
#    y 0.000000 1.705190 0.000000 
#    z 0.000000 0.000000 1.738340 
# 
# From -- ./inp_files/2122.got.cif
#   From: 2010.03.12/outbox.cif.g09.slc.cpg/sg137_2_cif.got.tgz:2122.got - 2010.04.08 09:34:49.
