data_PCOD8318482
_publ_section_title
;
Structure prediction by ZEFSAII (Michael W. Deem and Ramdas Pophale) SiO2 
 PCOD8318482
Probable space group: P 42/N M C
;
_chemical_formula_sum "Si O2"
_cell_formula_units_Z 120
_cell_length_a 17.843035
_cell_length_b 17.843035
_cell_length_c 20.586037
_cell_angle_alpha 90.000000
_cell_angle_beta 90.000000
_cell_angle_gamma 90.000000
_cell_volume 6554.056844
_symmetry_space_group_name_H-M "P 42/N M C"
_symmetry_group_IT_number 137
_space_group.IT_coordinate_system_code '2'
_symmetry_cell_setting 'tetragonal'
loop_
_space_group_symop_operation_xyz
x,y,z
1/2-y,x,1/2+z
1/2-x,1/2-y,z
y,1/2-x,1/2+z
1/2+x,-y,-z
-x,1/2+y,-z
1/2+y,1/2+x,1/2-z
-y,-x,1/2-z
-x,-y,-z
1/2+y,-x,1/2-z
1/2+x,1/2+y,-z
-y,1/2+x,1/2-z
1/2-x,y,z
x,1/2-y,z
1/2-y,1/2-x,1/2+z
y,x,1/2+z
loop_
_atom_site_type_symbol
_atom_site_label
_atom_site_fract_x
_atom_site_fract_y
_atom_site_fract_z
Si Si1 0.663922 0.534327 0.107700
Si Si2 0.166328 0.979840 0.037318
Si Si3 0.878627 0.523079 0.617320
Si Si4 0.420843 0.835090 0.007727
Si Si5 0.567812 0.974577 0.853709
Si Si6 0.834153 0.044796 0.746734
Si Si7 0.332225 0.832225 0.750000
Si Si8 0.109719 0.574077 0.638503
O O1 0.750000 0.547803 0.130673
O O2 0.613522 0.609091 0.120433
O O3 0.628228 0.462708 0.143302
O O4 0.660434 0.517671 0.031836
O O5 0.250000 0.974586 0.063265
O O6 0.136807 0.894170 0.039060
O O7 0.122683 0.035823 0.085350
O O8 0.843904 0.499218 0.547432
O O9 0.827029 0.491214 0.675166
O O10 0.959478 0.487536 0.626361
O O11 0.390899 0.750000 0.015849
O O12 0.429243 0.852155 0.931810
O O13 0.512766 0.904812 0.842091
O O14 0.616073 0.988214 0.789347
O O15 0.873563 0.126438 0.750000
O O16 0.750000 0.054052 0.774273
O O17 0.340966 0.750000 0.717865
O O18 0.335909 0.893784 0.693178
#
# Coordination Sequence:
#
# PCOD8318482 Si02
#       8
#    16  16  16  16  16  16   8  16
#     4   9  17  30  51  76  98 125 166 215 263 305
#     4   9  17  30  48  76 107 134 167 213 260 306
#     4   9  18  31  50  73 102 131 169 215 257 304
#     4  10  19  32  49  72 102 140 176 210 255 314
#     4   9  18  31  51  73 101 135 175 218 254 300
#     4  10  20  33  51  77 105 139 171 209 263 320
#     4  11  24  38  52  76 112 144 169 212 272 328
#     4  10  20  33  53  74 102 136 178 216 258 309
#
# _framework density 18.309272
#
# number of rings (size 3 to 8) (size 9 to 14) (size 15 to 20)
#    0.000    2.467    0.000    2.400    4.667    4.133 
#    0.000    0.000    0.000    6.400    0.000    0.000 
#    0.000    4.800    0.000    0.000    0.000    0.000 
#
# Total GULP energy -1487121.713456 kJ/mol
# GULP energy per Si atom -12392.680945 kJ/mol
# Density = 1.826760 g / cm^3
# Si number density = 18.309272 Si / 1000 Ang^3
#
#
#
# Elastic Constant Matrix: (Units=GPa)
#
#
# Indices 1 2 3 4 5 6 
#
# 1 100.6918 49.1974 30.8383 0.0000 0.0000 0.0000
# 2 49.1974 100.6915 30.8383 0.0000 0.0000 0.0000
# 3 30.8383 30.8383 82.8116 0.0000 0.0000 0.0000
# 4 0.0000 0.0000 0.0000 17.5455 0.0000 0.0000
# 5 0.0000 0.0000 0.0000 0.0000 17.5457 0.0000
# 6 0.0000 0.0000 0.0000 0.0000 0.0000 18.8872
#
#
#
# Elastic Compliance Matrix: (Units=1/GPa)
#
#
# Indices 1 2 3 4 5 6 
#
# 1 0.013649 -0.005770 -0.002934 0.000000 0.000000 0.000000
# 2 -0.005770 0.013649 -0.002934 0.000000 0.000000 0.000000
# 3 -0.002934 -0.002934 0.014261 0.000000 0.000000 0.000000
# 4 0.000000 0.000000 0.000000 0.056995 0.000000 0.000000
# 5 0.000000 0.000000 0.000000 0.000000 0.056994 0.000000
# 6 0.000000 0.000000 0.000000 0.000000 0.000000 0.052946
#
#
# Mechanical properties :
#
#
# Convention : Reuss Voigt Hill
#
# Bulk Modulus (GPa) = 54.69714 56.21587 55.45651
# Shear Modulus (GPa) = 21.02033 22.35041 21.68537
#
# Velocity S-wave (km/s) = 3.39199 3.49766 3.44523
# Velocity P-wave (km/s) = 6.72902 6.86161 6.79564
#
# Compressibility (1/GPa) = 0.01828249
#
# Stress axis : x y z
#
# Youngs Moduli (GPa) = 73.26412 73.26392 70.12225
#
# Poissons Ratio (x) = 0.42276 0.20574
# Poissons Ratio (y) = 0.42276 0.20574
# Poissons Ratio (z) = 0.21496 0.21496
#
# Static dielectric constant tensor:
#      x y z
#    x 3.363420 0.000000 0.000000 
#    y 0.000000 3.363420 0.000000 
#    z 0.000000 0.000000 3.351650 
# 
# 
# High freq. dielectric constant tensor:
#      x y z
#    x 1.689740 0.000000 0.000000 
#    y 0.000000 1.689740 0.000000 
#    z 0.000000 0.000000 1.715950 
# 
# From -- ./inp_files/8183.got.cif
#   From: 2010.03.12/outbox.cif.g09.slc.cpg/sg137_5_cif.got.tgz:8183.got - 2010.04.08 09:34:49.
