data_PCOD8318710
_publ_section_title
;
Structure prediction by ZEFSAII (Michael W. Deem and Ramdas Pophale) SiO2 
 PCOD8318710
Probable space group: P 42/N M C
;
_chemical_formula_sum "Si O2"
_cell_formula_units_Z 72
_cell_length_a 19.119079
_cell_length_b 19.119079
_cell_length_c 9.878031
_cell_angle_alpha 90.000000
_cell_angle_beta 90.000000
_cell_angle_gamma 90.000000
_cell_volume 3610.807370
_symmetry_space_group_name_H-M "P 42/N M C"
_symmetry_group_IT_number 137
_space_group.IT_coordinate_system_code '2'
_symmetry_cell_setting 'tetragonal'
loop_
_space_group_symop_operation_xyz
x,y,z
1/2-y,x,1/2+z
1/2-x,1/2-y,z
y,1/2-x,1/2+z
1/2+x,-y,-z
-x,1/2+y,-z
1/2+y,1/2+x,1/2-z
-y,-x,1/2-z
-x,-y,-z
1/2+y,-x,1/2-z
1/2+x,1/2+y,-z
-y,1/2+x,1/2-z
1/2-x,y,z
x,1/2-y,z
1/2-y,1/2-x,1/2+z
y,x,1/2+z
loop_
_atom_site_type_symbol
_atom_site_label
_atom_site_fract_x
_atom_site_fract_y
_atom_site_fract_z
Si Si1 0.078142 0.028290 0.978893
Si Si2 0.832063 0.443223 0.241664
Si Si3 0.978608 0.827380 0.022299
Si Si4 0.528421 0.174736 0.686798
Si Si5 0.825774 0.325774 0.750000
O O1 0.079085 0.111953 0.955772
O O2 0.114353 0.017603 0.123449
O O3 0.123245 0.989893 0.863830
O O4 0.000000 0.000000 0.000000
O O5 0.865695 0.365695 0.250000
O O6 0.750000 0.438888 0.199167
O O7 0.841314 0.477503 0.387916
O O8 0.942865 0.750000 0.016376
O O9 0.030185 0.832210 0.150456
O O10 0.497480 0.250000 0.641993
O O11 0.610199 0.168860 0.642453
O O12 0.831117 0.250000 0.825364
#
# Coordination Sequence:
#
# PCOD8318710 Si02
#       5
#    16  16  16  16   8
#     4  12  22  38  64  92 122 162 215 262 318 380
#     4  11  24  42  60  92 132 175 215 265 326 398
#     4  10  22  39  61  89 125 158 210 269 321 377
#     4  10  21  37  57  87 118 153 201 259 306 363
#     4   9  18  32  50  76 112 150 188 236 293 346
#
# _framework density 19.940138999999999
#
# number of rings (size 3 to 8) (size 9 to 14) (size 15 to 20)
#    0.000    1.444    2.222    3.333    0.000    0.222 
#    0.000    0.000    0.000    2.667    0.000   12.444 
#    0.000    0.000    0.000    0.000    0.000    0.000 
#
# Total GULP energy -891955.287308 kJ/mol
# GULP energy per Si atom -12388.267879 kJ/mol
# Density = 1.989475 g / cm^3
# Si number density = 19.940139 Si / 1000 Ang^3
#
#
#
# Elastic Constant Matrix: (Units=GPa)
#
#
# Indices 1 2 3 4 5 6 
#
# 1 153.5963 86.1306 47.5596 0.0000 0.0000 0.0000
# 2 86.1306 153.5963 47.5596 0.0000 0.0000 0.0000
# 3 47.5596 47.5596 102.6857 0.0000 0.0000 0.0000
# 4 0.0000 0.0000 0.0000 28.8202 0.0000 0.0000
# 5 0.0000 0.0000 0.0000 0.0000 28.8202 0.0000
# 6 0.0000 0.0000 0.0000 0.0000 0.0000 31.6893
#
#
#
# Elastic Compliance Matrix: (Units=1/GPa)
#
#
# Indices 1 2 3 4 5 6 
#
# 1 0.009966 -0.004856 -0.002367 0.000000 0.000000 0.000000
# 2 -0.004856 0.009966 -0.002367 0.000000 0.000000 0.000000
# 3 -0.002367 -0.002367 0.011931 0.000000 0.000000 0.000000
# 4 0.000000 0.000000 0.000000 0.034698 0.000000 0.000000
# 5 0.000000 0.000000 0.000000 0.000000 0.034698 0.000000
# 6 0.000000 0.000000 0.000000 0.000000 0.000000 0.031556
#
#
# Mechanical properties :
#
#
# Convention : Reuss Voigt Hill
#
# Bulk Modulus (GPa) = 78.83819 85.81978 82.32898
# Shear Modulus (GPa) = 32.00533 33.10785 32.55659
#
# Velocity S-wave (km/s) = 4.01068 4.07917 4.04507
# Velocity P-wave (km/s) = 7.81477 8.08198 7.94950
#
# Compressibility (1/GPa) = 0.01268421
#
# Stress axis : x y z
#
# Youngs Moduli (GPa) = 100.33643 100.33643 83.81493
#
# Poissons Ratio (x) = 0.48722 0.19839
# Poissons Ratio (y) = 0.48722 0.19839
# Poissons Ratio (z) = 0.23750 0.23750
#
# Static dielectric constant tensor:
#      x y z
#    x 3.856490 0.000000 0.000000 
#    y 0.000000 3.856490 0.000000 
#    z 0.000000 0.000000 3.664390 
# 
# 
# High freq. dielectric constant tensor:
#      x y z
#    x 1.776800 0.000000 0.000000 
#    y 0.000000 1.776800 0.000000 
#    z 0.000000 0.000000 1.773030 
# 
# From -- ./inp_files/1935.got.cif
#   From: 2010.03.12/outbox.cif.g09.slc.cpg/sg137_1_cif.got.tgz:1935.got - 2010.04.08 09:34:49.
