data_PCOD8318492
_publ_section_title
;
Structure prediction by ZEFSAII (Michael W. Deem and Ramdas Pophale) SiO2 
 PCOD8318492
Probable space group: P 42/N M C
;
_chemical_formula_sum "Si O2"
_cell_formula_units_Z 128
_cell_length_a 16.943799
_cell_length_b 16.943799
_cell_length_c 24.750212
_cell_angle_alpha 90.000000
_cell_angle_beta 90.000000
_cell_angle_gamma 90.000000
_cell_volume 7105.595896
_symmetry_space_group_name_H-M "P 42/N M C"
_symmetry_group_IT_number 137
_space_group.IT_coordinate_system_code '2'
_symmetry_cell_setting 'tetragonal'
loop_
_space_group_symop_operation_xyz
x,y,z
1/2-y,x,1/2+z
1/2-x,1/2-y,z
y,1/2-x,1/2+z
1/2+x,-y,-z
-x,1/2+y,-z
1/2+y,1/2+x,1/2-z
-y,-x,1/2-z
-x,-y,-z
1/2+y,-x,1/2-z
1/2+x,1/2+y,-z
-y,1/2+x,1/2-z
1/2-x,y,z
x,1/2-y,z
1/2-y,1/2-x,1/2+z
y,x,1/2+z
loop_
_atom_site_type_symbol
_atom_site_label
_atom_site_fract_x
_atom_site_fract_y
_atom_site_fract_z
Si Si1 0.421867 0.338668 0.535685
Si Si2 0.920626 0.657079 0.652068
Si Si3 0.406091 0.841396 0.694908
Si Si4 0.156867 0.436041 0.444475
Si Si5 0.163202 0.343507 0.242473
Si Si6 0.566761 0.064526 0.990675
Si Si7 0.405628 0.342233 0.132759
Si Si8 0.660398 0.420680 0.404399
O O1 0.413757 0.250000 0.514183
O O2 0.363335 0.394092 0.501042
O O3 0.515098 0.361120 0.534658
O O4 0.391441 0.344470 0.596818
O O5 0.909423 0.750000 0.639487
O O6 0.896590 0.606837 0.600091
O O7 0.865876 0.624872 0.700110
O O8 0.008899 0.637776 0.670498
O O9 0.389759 0.889759 0.750000
O O10 0.398467 0.750000 0.710635
O O11 0.346197 0.861245 0.646244
O O12 0.250000 0.430067 0.431596
O O13 0.131057 0.528407 0.450965
O O14 0.250000 0.377580 0.231190
O O15 0.163871 0.250000 0.245702
O O16 0.105441 0.370446 0.194485
O O17 0.600279 0.103614 0.045643
O O18 0.500000 0.000000 0.000000
O O19 0.386657 0.250000 0.126309
O O20 0.493681 0.364286 0.116597
O O21 0.750000 0.418812 0.425586
#
# Coordination Sequence:
#
# PCOD8318492 Si02
#       8
#    16  16  16  16  16  16  16  16
#     4  11  22  34  53  81 109 139 177 226 280 331
#     4  10  21  35  52  78 109 143 181 226 284 337
#     4  11  23  38  55  78 110 148 193 239 275 320
#     4  11  21  35  56  81 109 145 186 232 282 339
#     4   9  17  30  47  70 104 139 167 202 256 324
#     4  10  20  36  53  74 108 144 180 218 273 335
#     4  10  19  32  52  78 105 137 175 218 271 328
#     4  11  21  35  55  75 102 141 183 226 272 323
#
# _framework density 18.013971999999999
#
# number of rings (size 3 to 8) (size 9 to 14) (size 15 to 20)
#    0.000    1.625    2.500    4.500    0.000    7.125 
#    0.000    0.000    0.000    1.125    0.000    0.000 
#    0.000    0.000    0.000    0.000    0.000    0.125 
#
# Total GULP energy -1586872.553814 kJ/mol
# GULP energy per Si atom -12397.441827 kJ/mol
# Density = 1.797297 g / cm^3
# Si number density = 18.013972 Si / 1000 Ang^3
#
#
#
# Elastic Constant Matrix: (Units=GPa)
#
#
# Indices 1 2 3 4 5 6 
#
# 1 57.5611 25.0157 19.2950 0.0000 0.0000 0.0000
# 2 25.0157 57.5611 19.2950 0.0000 0.0000 0.0000
# 3 19.2950 19.2950 99.3846 0.0000 0.0000 0.0000
# 4 0.0000 0.0000 0.0000 26.0796 0.0000 0.0000
# 5 0.0000 0.0000 0.0000 0.0000 26.0796 0.0000
# 6 0.0000 0.0000 0.0000 0.0000 0.0000 17.6799
#
#
#
# Elastic Compliance Matrix: (Units=1/GPa)
#
#
# Indices 1 2 3 4 5 6 
#
# 1 0.022022 -0.008704 -0.002586 0.000000 0.000000 0.000000
# 2 -0.008704 0.022022 -0.002586 0.000000 0.000000 0.000000
# 3 -0.002586 -0.002586 0.011066 0.000000 0.000000 0.000000
# 4 0.000000 0.000000 0.000000 0.038344 0.000000 0.000000
# 5 0.000000 0.000000 0.000000 0.000000 0.038344 0.000000
# 6 0.000000 0.000000 0.000000 0.000000 0.000000 0.056561
#
#
# Mechanical properties :
#
#
# Convention : Reuss Voigt Hill
#
# Bulk Modulus (GPa) = 36.55001 37.96869 37.25935
# Shear Modulus (GPa) = 22.19944 24.02790 23.11367
#
# Velocity S-wave (km/s) = 3.51429 3.65615 3.58592
# Velocity P-wave (km/s) = 6.06637 6.24070 6.15415
#
# Compressibility (1/GPa) = 0.02735978
#
# Stress axis : x y z
#
# Youngs Moduli (GPa) = 45.40849 45.40849 90.36760
#
# Poissons Ratio (x) = 0.39524 0.23366
# Poissons Ratio (y) = 0.39524 0.23366
# Poissons Ratio (z) = 0.11741 0.11741
#
# Static dielectric constant tensor:
#      x y z
#    x 3.419720 0.000000 0.000000 
#    y 0.000000 3.419720 0.000000 
#    z 0.000000 0.000000 3.460560 
# 
# 
# High freq. dielectric constant tensor:
#      x y z
#    x 1.683130 0.000000 0.000000 
#    y 0.000000 1.683130 0.000000 
#    z 0.000000 0.000000 1.702280 
# 
# From -- ./inp_files/9211.got.cif
#   From: 2010.03.12/outbox.cif.g09.slc.cpg/sg137_5_cif.got.tgz:9211.got - 2010.04.08 09:34:49.
