data_PCOD8318137
_publ_section_title
;
Structure prediction by ZEFSAII (Michael W. Deem and Ramdas Pophale) SiO2 
 PCOD8318137
Probable space group: P 42/M N M
;
_chemical_formula_sum "Si O2"
_cell_formula_units_Z 96
_cell_length_a 23.254023
_cell_length_b 23.254023
_cell_length_c 8.554585
_cell_angle_alpha 90.000000
_cell_angle_beta 90.000000
_cell_angle_gamma 90.000000
_cell_volume 4625.888294
_symmetry_space_group_name_H-M "P 42/M N M"
_symmetry_group_IT_number 136
_symmetry_cell_setting 'tetragonal'
loop_
_space_group_symop_operation_xyz
x,y,z
1/2-y,1/2+x,1/2+z
-x,-y,z
1/2+y,1/2-x,1/2+z
1/2+x,1/2-y,1/2-z
1/2-x,1/2+y,1/2-z
y,x,-z
-y,-x,-z
-x,-y,-z
1/2+y,1/2-x,1/2-z
x,y,-z
1/2-y,1/2+x,1/2-z
1/2-x,1/2+y,1/2+z
1/2+x,1/2-y,1/2+z
-y,-x,z
y,x,z
loop_
_atom_site_type_symbol
_atom_site_label
_atom_site_fract_x
_atom_site_fract_y
_atom_site_fract_z
Si Si1 0.934598 0.450199 0.177113
Si Si2 0.067514 0.067514 0.181008
Si Si3 0.224292 0.612231 0.186020
Si Si4 0.626909 0.537165 0.180805
Si Si5 0.154186 0.154186 0.681711
Si Si6 0.883220 0.343861 0.683176
Si Si7 0.743743 0.018837 0.685142
O O1 0.923844 0.502426 0.295178
O O2 0.889523 0.401976 0.216416
O O3 0.926971 0.471952 0.000000
O O4 0.106941 0.106941 0.287074
O O5 0.002091 0.082746 0.222543
O O6 0.079001 0.079001 0.000000
O O7 0.285793 0.632380 0.251044
O O8 0.183972 0.660614 0.273191
O O9 0.218817 0.543861 0.236066
O O10 0.217365 0.617728 0.000000
O O11 0.602796 0.602796 0.197697
O O12 0.691714 0.530845 0.249085
O O13 0.626397 0.517883 0.000000
O O14 0.162288 0.162288 0.500000
O O15 0.893345 0.353032 0.500000
O O16 0.927670 0.295752 0.747007
O O17 0.745316 0.022203 0.500000
#
# Coordination Sequence:
#
# PCOD8318137 Si02
#       7
#    16   8  16  16   8  16  16
#     4  11  21  35  55  81 112 148 191 242 299 353
#     4  12  23  35  58  93 130 154 180 238 313 361
#     4  10  20  38  63  85 112 152 202 252 296 347
#     4  10  20  38  64  88 113 155 205 242 286 356
#     4  10  20  39  67  88 110 155 212 251 285 344
#     4  11  22  36  55  85 120 154 193 240 298 357
#     4   9  19  37  60  85 113 151 199 250 292 339
#
# _framework density 20.752772
#
# number of rings (size 3 to 8) (size 9 to 14) (size 15 to 20)
#    0.000    1.667    1.667    4.500    0.000    3.333 
#    1.500    2.500    0.000    0.000    0.000    0.000 
#    0.000    0.000    0.000    0.000    0.000    0.000 
#
# Total GULP energy -1189431.620557 kJ/mol
# GULP energy per Si atom -12389.912714 kJ/mol
# Density = 2.070554 g / cm^3
# Si number density = 20.752772 Si / 1000 Ang^3
#
#
#
# Elastic Constant Matrix: (Units=GPa)
#
#
# Indices 1 2 3 4 5 6 
#
# 1 83.8305 73.8133 12.0823 0.0000 0.0000 0.0000
# 2 73.8133 83.8305 12.0823 0.0000 0.0000 0.0000
# 3 12.0823 12.0823 39.7054 0.0000 0.0000 0.0000
# 4 0.0000 0.0000 0.0000 22.0665 0.0000 0.0000
# 5 0.0000 0.0000 0.0000 0.0000 22.0665 0.0000
# 6 0.0000 0.0000 0.0000 0.0000 0.0000 44.0728
#
#
#
# Elastic Compliance Matrix: (Units=1/GPa)
#
#
# Indices 1 2 3 4 5 6 
#
# 1 0.053241 -0.046587 -0.002025 0.000000 0.000000 0.000000
# 2 -0.046587 0.053241 -0.002025 0.000000 0.000000 0.000000
# 3 -0.002025 -0.002025 0.026418 0.000000 0.000000 0.000000
# 4 0.000000 0.000000 0.000000 0.045318 0.000000 0.000000
# 5 0.000000 0.000000 0.000000 0.000000 0.045318 0.000000
# 6 0.000000 0.000000 0.000000 0.000000 0.000000 0.022690
#
#
# Mechanical properties :
#
#
# Convention : Reuss Voigt Hill
#
# Bulk Modulus (GPa) = 31.61918 44.81356 38.21637
# Shear Modulus (GPa) = 13.96491 24.93373 19.44932
#
# Velocity S-wave (km/s) = 2.59688 3.46998 3.06468
# Velocity P-wave (km/s) = 4.92554 6.13964 5.56579
#
# Compressibility (1/GPa) = 0.03162638
#
# Stress axis : x y z
#
# Youngs Moduli (GPa) = 18.78250 18.78250 37.85332
#
# Poissons Ratio (x) = 0.87503 0.07664
# Poissons Ratio (y) = 0.87503 0.07664
# Poissons Ratio (z) = 0.03803 0.03803
#
# Static dielectric constant tensor:
#      x y z
#    x 4.029380 0.000000 0.000000 
#    y 0.000000 4.029380 0.000000 
#    z 0.000000 0.000000 3.498780 
# 
# 
# High freq. dielectric constant tensor:
#      x y z
#    x 1.815190 0.000000 0.000000 
#    y 0.000000 1.815190 0.000000 
#    z 0.000000 0.000000 1.779490 
# 
# From -- ./inp_files/2031.got.cif
#   From: 2010.03.12/outbox.cif.g09.slc.cpg/sg136_2_cif.got.tgz:2031.got - 2010.04.06 18:39:43.
