data_PCOD8318995
_publ_section_title
;
Structure prediction by ZEFSAII (Michael W. Deem and Ramdas Pophale) SiO2 
 PCOD8318995
Probable space group: P 42/N C M
;
_chemical_formula_sum "Si O2"
_cell_formula_units_Z 96
_cell_length_a 13.305764
_cell_length_b 13.305764
_cell_length_c 29.602481
_cell_angle_alpha 90.000000
_cell_angle_beta 90.000000
_cell_angle_gamma 90.000000
_cell_volume 5240.922571
_symmetry_space_group_name_H-M "P 42/N C M"
_symmetry_group_IT_number 138
_space_group.IT_coordinate_system_code '2'
_symmetry_cell_setting 'tetragonal'
loop_
_space_group_symop_operation_xyz
x,y,z
1/2-y,x,1/2+z
1/2-x,1/2-y,z
y,1/2-x,1/2+z
1/2+x,-y,1/2-z
-x,1/2+y,1/2-z
1/2+y,1/2+x,-z
-y,-x,-z
-x,-y,-z
1/2+y,-x,1/2-z
1/2+x,1/2+y,-z
-y,1/2+x,1/2-z
1/2-x,y,1/2+z
x,1/2-y,1/2+z
1/2-y,1/2-x,z
y,x,z
loop_
_atom_site_type_symbol
_atom_site_label
_atom_site_fract_x
_atom_site_fract_y
_atom_site_fract_z
Si Si1 0.244579 0.413805 0.849733
Si Si2 0.085094 0.245554 0.527182
Si Si3 0.359815 0.971817 0.597125
Si Si4 0.992073 0.677433 0.562142
Si Si5 0.016392 0.649652 0.299902
Si Si6 0.330769 0.004307 0.263443
O O1 0.135612 0.364389 0.844264
O O2 0.331049 0.331049 0.850661
O O3 0.246819 0.475125 0.896259
O O4 0.261288 0.487691 0.807799
O O5 0.172473 0.327528 0.524727
O O6 0.134556 0.134556 0.528574
O O7 0.012488 0.257635 0.483715
O O8 0.017536 0.262187 0.571996
O O9 0.399158 0.874564 0.569311
O O10 0.335682 0.944351 0.648894
O O11 0.448529 0.051472 0.597000
O O12 0.906629 0.593372 0.560794
O O13 0.098555 0.592106 0.269744
O O14 0.910725 0.589275 0.298981
O O15 0.004656 0.760928 0.280281
O O16 0.395763 0.104238 0.256757
#
# Coordination Sequence:
#
# PCOD8318995 Si02
#       6
#    16  16  16  16  16  16
#     4   9  15  24  41  64  90 121 160 206 251 297
#     4   9  16  23  34  58  91 128 171 211 248 301
#     4   9  16  27  41  58  88 130 169 207 255 310
#     4   9  14  23  38  58  87 126 166 204 251 304
#     4  10  20  34  51  71  98 133 173 216 261 312
#     4  10  20  34  50  71  98 129 169 212 260 314
#
# _framework density 18.317385999999999
#
# number of rings (size 3 to 8) (size 9 to 14) (size 15 to 20)
#    0.000    2.667    1.667    1.500    0.000    6.000 
#    0.000    1.667    0.000    0.000    0.000    0.000 
#    0.000    1.333    1.000    7.000    2.333    6.333 
#
# Total GULP energy -1190034.382748 kJ/mol
# GULP energy per Si atom -12396.191487 kJ/mol
# Density = 1.827569 g / cm^3
# Si number density = 18.317386 Si / 1000 Ang^3
#
#
#
# Elastic Constant Matrix: (Units=GPa)
#
#
# Indices 1 2 3 4 5 6 
#
# 1 62.6925 37.2027 44.4844 0.0000 0.0000 0.0000
# 2 37.2027 62.6925 44.4844 0.0000 0.0000 0.0000
# 3 44.4844 44.4844 108.7144 0.0000 0.0000 0.0000
# 4 0.0000 0.0000 0.0000 13.9740 0.0000 0.0000
# 5 0.0000 0.0000 0.0000 0.0000 13.9740 0.0000
# 6 0.0000 0.0000 0.0000 0.0000 0.0000 24.5403
#
#
#
# Elastic Compliance Matrix: (Units=1/GPa)
#
#
# Indices 1 2 3 4 5 6 
#
# 1 0.027491 -0.011740 -0.006445 0.000000 0.000000 0.000000
# 2 -0.011740 0.027491 -0.006445 0.000000 0.000000 0.000000
# 3 -0.006445 -0.006445 0.014473 0.000000 0.000000 0.000000
# 4 0.000000 0.000000 0.000000 0.071561 0.000000 0.000000
# 5 0.000000 0.000000 0.000000 0.000000 0.071561 0.000000
# 6 0.000000 0.000000 0.000000 0.000000 0.000000 0.040749
#
#
# Mechanical properties :
#
#
# Convention : Reuss Voigt Hill
#
# Bulk Modulus (GPa) = 49.51936 54.04916 51.78426
# Shear Modulus (GPa) = 16.16459 17.69286 16.92872
#
# Velocity S-wave (km/s) = 2.97387 3.11127 3.04335
# Velocity P-wave (km/s) = 6.23575 6.51750 6.37818
#
# Compressibility (1/GPa) = 0.02019412
#
# Stress axis : x y z
#
# Youngs Moduli (GPa) = 36.37574 36.37574 69.09559
#
# Poissons Ratio (x) = 0.42707 0.44531
# Poissons Ratio (y) = 0.42707 0.44531
# Poissons Ratio (z) = 0.23444 0.23444
#
# Static dielectric constant tensor:
#      x y z
#    x 3.093910 0.000000 0.000000 
#    y 0.000000 3.093910 0.000000 
#    z 0.000000 0.000000 3.552730 
# 
# 
# High freq. dielectric constant tensor:
#      x y z
#    x 1.671350 0.000000 0.000000 
#    y 0.000000 1.671350 0.000000 
#    z 0.000000 0.000000 1.721930 
# 
# From -- ./inp_files/8213.got.cif
#   From: 2010.03.12/outbox.cif.g09.slc.cpg/sg138_5_cif.got.tgz:8213.got - 2010.04.08 09:41:05.
