data_PCOD8318284
_publ_section_title
;
Structure prediction by ZEFSAII (Michael W. Deem and Ramdas Pophale) SiO2 
 PCOD8318284
Probable space group: P 42/M N M
;
_chemical_formula_sum "Si O2"
_cell_formula_units_Z 96
_cell_length_a 14.156835
_cell_length_b 14.156835
_cell_length_c 25.672882
_cell_angle_alpha 90.000000
_cell_angle_beta 90.000000
_cell_angle_gamma 90.000000
_cell_volume 5145.255734
_symmetry_space_group_name_H-M "P 42/M N M"
_symmetry_group_IT_number 136
_symmetry_cell_setting 'tetragonal'
loop_
_space_group_symop_operation_xyz
x,y,z
1/2-y,1/2+x,1/2+z
-x,-y,z
1/2+y,1/2-x,1/2+z
1/2+x,1/2-y,1/2-z
1/2-x,1/2+y,1/2-z
y,x,-z
-y,-x,-z
-x,-y,-z
1/2+y,1/2-x,1/2-z
x,y,-z
1/2-y,1/2+x,1/2-z
1/2-x,1/2+y,1/2+z
1/2+x,1/2-y,1/2+z
-y,-x,z
y,x,z
loop_
_atom_site_type_symbol
_atom_site_label
_atom_site_fract_x
_atom_site_fract_y
_atom_site_fract_z
Si Si1 0.422096 0.422096 0.861726
Si Si2 0.673975 0.165982 0.298149
Si Si3 0.076739 0.923262 0.245934
Si Si4 0.355944 0.931959 0.000000
Si Si5 0.539893 0.769686 0.702187
Si Si6 0.820529 0.663553 0.604808
Si Si7 0.929318 0.369609 0.500000
Si Si8 0.776552 0.536228 0.894391
O O1 0.500000 0.500000 0.855563
O O2 0.387463 0.387463 0.803525
O O3 0.336396 0.466804 0.893779
O O4 0.742278 0.257723 0.297778
O O5 0.685403 0.104684 0.246528
O O6 0.565158 0.193103 0.298165
O O7 0.687189 0.102691 0.348762
O O8 0.158976 0.969149 0.212465
O O9 0.000000 0.000000 0.257866
O O10 0.303996 0.887643 0.049766
O O11 0.465341 0.907735 0.000000
O O12 0.351603 0.046255 0.000000
O O13 0.589270 0.787501 0.647411
O O14 0.759618 0.759618 0.607737
O O15 0.930507 0.685953 0.613512
O O16 0.915543 0.307387 0.448402
#
# Coordination Sequence:
#
# PCOD8318284 Si02
#       8
#     8  16   8   8  16  16   8  16
#     4  11  22  39  60  85 125 170 209 241 308 362
#     4  12  24  41  59  88 125 156 204 249 307 365
#     4  11  22  42  61  87 123 167 209 237 305 371
#     4   9  19  38  56  88 119 160 191 253 312 367
#     4  12  23  39  62  90 120 158 202 257 300 365
#     4  11  22  37  62  90 123 154 208 254 307 361
#     4   9  20  35  61  84 117 157 206 238 314 374
#     4  11  21  40  59  88 124 163 201 255 302 369
#
# _framework density 18.657964
#
# number of rings (size 3 to 8) (size 9 to 14) (size 15 to 20)
#    0.000    1.000    4.167    3.250    0.000    4.000 
#    0.000    1.667    0.000    0.000    0.000    0.583 
#    0.000    0.000    0.000    0.000    0.000    0.000 
#
# Total GULP energy -1190397.933570 kJ/mol
# GULP energy per Si atom -12399.978475 kJ/mol
# Density = 1.861550 g / cm^3
# Si number density = 18.657964 Si / 1000 Ang^3
#
#
#
# Elastic Constant Matrix: (Units=GPa)
#
#
# Indices 1 2 3 4 5 6 
#
# 1 123.1065 23.6485 54.4984 0.0000 0.0000 0.0000
# 2 23.6485 123.1065 54.4984 0.0000 0.0000 0.0000
# 3 54.4984 54.4984 151.8303 0.0000 0.0000 0.0000
# 4 0.0000 0.0000 0.0000 30.1026 0.0000 0.0000
# 5 0.0000 0.0000 0.0000 0.0000 30.1026 0.0000
# 6 0.0000 0.0000 0.0000 0.0000 0.0000 22.0830
#
#
#
# Elastic Compliance Matrix: (Units=1/GPa)
#
#
# Indices 1 2 3 4 5 6 
#
# 1 0.009673 -0.000382 -0.003335 0.000000 0.000000 0.000000
# 2 -0.000382 0.009673 -0.003335 0.000000 0.000000 0.000000
# 3 -0.003335 -0.003335 0.008980 0.000000 0.000000 0.000000
# 4 0.000000 0.000000 0.000000 0.033220 0.000000 0.000000
# 5 0.000000 0.000000 0.000000 0.000000 0.033220 0.000000
# 6 0.000000 0.000000 0.000000 0.000000 0.000000 0.045284
#
#
# Mechanical properties :
#
#
# Convention : Reuss Voigt Hill
#
# Bulk Modulus (GPa) = 70.31049 73.70377 72.00713
# Shear Modulus (GPa) = 31.46770 34.15085 32.80927
#
# Velocity S-wave (km/s) = 4.11122 4.28292 4.19795
# Velocity P-wave (km/s) = 7.76543 8.00288 7.88505
#
# Compressibility (1/GPa) = 0.01422263
#
# Stress axis : x y z
#
# Youngs Moduli (GPa) = 103.38341 103.38341 111.35360
#
# Poissons Ratio (x) = 0.03947 0.37136
# Poissons Ratio (y) = 0.03947 0.37136
# Poissons Ratio (z) = 0.34478 0.34478
#
# Static dielectric constant tensor:
#      x y z
#    x 3.508020 0.000000 0.000000 
#    y 0.000000 3.508020 0.000000 
#    z 0.000000 0.000000 3.705790 
# 
# 
# High freq. dielectric constant tensor:
#      x y z
#    x 1.728280 0.000000 0.000000 
#    y 0.000000 1.728280 0.000000 
#    z 0.000000 0.000000 1.736380 
# 
# From -- ./inp_files/7575.got.cif
#   From: 2010.03.12/outbox.cif.g09.slc.cpg/sg136_4_cif.got.tgz:7575.got - 2010.04.06 18:39:43.
