data_PCOD8318204
_publ_section_title
;
Structure prediction by ZEFSAII (Michael W. Deem and Ramdas Pophale) SiO2 
 PCOD8318204
Probable space group: P 42/M N M
;
_chemical_formula_sum "Si O2"
_cell_formula_units_Z 80
_cell_length_a 16.605236
_cell_length_b 16.605236
_cell_length_c 13.911915
_cell_angle_alpha 90.000000
_cell_angle_beta 90.000000
_cell_angle_gamma 90.000000
_cell_volume 3835.986059
_symmetry_space_group_name_H-M "P 42/M N M"
_symmetry_group_IT_number 136
_symmetry_cell_setting 'tetragonal'
loop_
_space_group_symop_operation_xyz
x,y,z
1/2-y,1/2+x,1/2+z
-x,-y,z
1/2+y,1/2-x,1/2+z
1/2+x,1/2-y,1/2-z
1/2-x,1/2+y,1/2-z
y,x,-z
-y,-x,-z
-x,-y,-z
1/2+y,1/2-x,1/2-z
x,y,-z
1/2-y,1/2+x,1/2-z
1/2-x,1/2+y,1/2+z
1/2+x,1/2-y,1/2+z
-y,-x,z
y,x,z
loop_
_atom_site_type_symbol
_atom_site_label
_atom_site_fract_x
_atom_site_fract_y
_atom_site_fract_z
Si Si1 0.918592 0.206241 0.108544
Si Si2 0.173318 0.698073 0.388631
Si Si3 0.160353 0.499206 0.193050
Si Si4 0.419372 0.708799 0.288117
Si Si5 0.453017 0.116213 0.393641
O O1 0.841020 0.158980 0.150536
O O2 0.900561 0.301971 0.116175
O O3 0.998038 0.178786 0.164635
O O4 0.934003 0.180422 0.000000
O O5 0.149843 0.692560 0.500000
O O6 0.215546 0.784455 0.365463
O O7 0.092269 0.686848 0.326301
O O8 0.236728 0.627903 0.365448
O O9 0.239109 0.556451 0.194047
O O10 0.100524 0.535142 0.113232
O O11 0.119282 0.512097 0.300782
O O12 0.367329 0.632672 0.254104
O O13 0.495525 0.113769 0.500000
#
# Coordination Sequence:
#
# PCOD8318204 Si02
#       5
#    16  16  16  16  16
#     4   9  19  36  57  83 118 158 197 241 295 354
#     4  10  21  39  64  89 120 164 210 256 301 354
#     4  11  21  40  60  89 121 160 203 246 303 362
#     4  10  21  37  59  88 121 153 198 251 299 356
#     4  10  22  39  58  85 120 158 200 248 301 358
#
# _framework density 20.855132000000001
#
# number of rings (size 3 to 8) (size 9 to 14) (size 15 to 20)
#    0.000    2.000    2.000    1.200    0.000    6.800 
#    0.000    2.000    0.000    1.800    0.000    1.400 
#    0.000    0.000    0.000    0.000    0.000    0.000 
#
# Total GULP energy -991180.512379 kJ/mol
# GULP energy per Si atom -12389.756405 kJ/mol
# Density = 2.080766 g / cm^3
# Si number density = 20.855132 Si / 1000 Ang^3
#
#
#
# Elastic Constant Matrix: (Units=GPa)
#
#
# Indices 1 2 3 4 5 6 
#
# 1 84.4809 25.7531 12.2354 0.0000 0.0000 0.0000
# 2 25.7531 84.4809 12.2354 0.0000 0.0000 0.0000
# 3 12.2354 12.2354 78.7905 0.0000 0.0000 0.0000
# 4 0.0000 0.0000 0.0000 22.2431 0.0000 0.0000
# 5 0.0000 0.0000 0.0000 0.0000 22.2431 0.0000
# 6 0.0000 0.0000 0.0000 0.0000 0.0000 27.0946
#
#
#
# Elastic Compliance Matrix: (Units=1/GPa)
#
#
# Indices 1 2 3 4 5 6 
#
# 1 0.013212 -0.003816 -0.001459 0.000000 0.000000 0.000000
# 2 -0.003816 0.013212 -0.001459 0.000000 0.000000 0.000000
# 3 -0.001459 -0.001459 0.013145 0.000000 0.000000 0.000000
# 4 0.000000 0.000000 0.000000 0.044958 0.000000 0.000000
# 5 0.000000 0.000000 0.000000 0.000000 0.044958 0.000000
# 6 0.000000 0.000000 0.000000 0.000000 0.000000 0.036908
#
#
# Mechanical properties :
#
#
# Convention : Reuss Voigt Hill
#
# Bulk Modulus (GPa) = 38.31432 38.68891 38.50162
# Shear Modulus (GPa) = 26.51679 27.48471 27.00075
#
# Velocity S-wave (km/s) = 3.56964 3.63421 3.60207
# Velocity P-wave (km/s) = 5.94990 6.01677 5.98343
#
# Compressibility (1/GPa) = 0.02609990
#
# Stress axis : x y z
#
# Youngs Moduli (GPa) = 75.69101 75.69101 76.07439
#
# Poissons Ratio (x) = 0.28884 0.11100
# Poissons Ratio (y) = 0.28884 0.11100
# Poissons Ratio (z) = 0.11044 0.11044
#
# Static dielectric constant tensor:
#      x y z
#    x 3.869910 0.000000 0.000000 
#    y 0.000000 3.869910 0.000000 
#    z 0.000000 0.000000 3.791610 
# 
# 
# High freq. dielectric constant tensor:
#      x y z
#    x 1.811120 0.000000 0.000000 
#    y 0.000000 1.811120 0.000000 
#    z 0.000000 0.000000 1.804650 
# 
# From -- ./inp_files/4904.got.cif
#   From: 2010.03.12/outbox.cif.g09.slc.cpg/sg136_3_cif.got.tgz:4904.got - 2010.04.06 18:39:43.
