data_PCOD8318531
_publ_section_title
;
Structure prediction by ZEFSAII (Michael W. Deem and Ramdas Pophale) SiO2 
 PCOD8318531
Probable space group: P 42/N M C
;
_chemical_formula_sum "Si O2"
_cell_formula_units_Z 80
_cell_length_a 13.808847
_cell_length_b 13.808847
_cell_length_c 20.556043
_cell_angle_alpha 90.000000
_cell_angle_beta 90.000000
_cell_angle_gamma 90.000000
_cell_volume 3919.713755
_symmetry_space_group_name_H-M "P 42/N M C"
_symmetry_group_IT_number 137
_space_group.IT_coordinate_system_code '2'
_symmetry_cell_setting 'tetragonal'
loop_
_space_group_symop_operation_xyz
x,y,z
1/2-y,x,1/2+z
1/2-x,1/2-y,z
y,1/2-x,1/2+z
1/2+x,-y,-z
-x,1/2+y,-z
1/2+y,1/2+x,1/2-z
-y,-x,1/2-z
-x,-y,-z
1/2+y,-x,1/2-z
1/2+x,1/2+y,-z
-y,1/2+x,1/2-z
1/2-x,y,z
x,1/2-y,z
1/2-y,1/2-x,1/2+z
y,x,1/2+z
loop_
_atom_site_type_symbol
_atom_site_label
_atom_site_fract_x
_atom_site_fract_y
_atom_site_fract_z
Si Si1 0.143261 0.635668 0.568113
Si Si2 0.634830 0.473946 0.193517
Si Si3 0.138966 0.357549 0.998274
Si Si4 0.471875 0.138468 0.864085
Si Si5 0.046969 0.863402 0.434062
O O1 0.250000 0.589678 0.576788
O O2 0.150176 0.750000 0.569850
O O3 0.074329 0.601076 0.625915
O O4 0.102627 0.601315 0.498961
O O5 0.591901 0.408099 0.250000
O O6 0.750000 0.480868 0.202314
O O7 0.587379 0.581338 0.192148
O O8 0.250000 0.376841 0.978694
O O9 0.122824 0.250000 0.026848
O O10 0.109719 0.433667 0.054645
O O11 0.082170 0.373468 0.932164
O O12 0.480659 0.250000 0.842169
O O13 0.578530 0.091037 0.872943
O O14 0.062274 0.750000 0.419867
#
# Coordination Sequence:
#
# PCOD8318531 Si02
#       5
#    16  16  16  16  16
#     4   9  17  30  51  81 117 153 188 233 289 346
#     4  11  23  40  60  84 113 150 198 250 300 352
#     4   9  17  30  50  79 116 155 192 231 278 340
#     4  11  22  36  58  86 116 154 199 241 289 352
#     4  10  19  34  55  85 124 158 194 237 289 354
#
# _framework density 20.409655000000001
#
# number of rings (size 3 to 8) (size 9 to 14) (size 15 to 20)
#    0.000    2.000    2.000    2.400    0.000    3.400 
#    0.000    2.000    0.000    0.000    0.000    0.000 
#    0.000    0.000    0.000    0.000    0.000    0.000 
#
# Total GULP energy -991923.256436 kJ/mol
# GULP energy per Si atom -12399.040705 kJ/mol
# Density = 2.036320 g / cm^3
# Si number density = 20.409655 Si / 1000 Ang^3
#
#
#
# Elastic Constant Matrix: (Units=GPa)
#
#
# Indices 1 2 3 4 5 6 
#
# 1 121.8774 44.3374 30.2784 0.0000 0.0000 0.0000
# 2 44.3374 121.8795 30.2788 0.0000 0.0000 0.0000
# 3 30.2784 30.2788 39.3849 0.0000 0.0000 0.0000
# 4 0.0000 0.0000 0.0000 29.1284 0.0000 0.0000
# 5 0.0000 0.0000 0.0000 0.0000 29.1285 0.0000
# 6 0.0000 0.0000 0.0000 0.0000 0.0000 26.7655
#
#
#
# Elastic Compliance Matrix: (Units=1/GPa)
#
#
# Indices 1 2 3 4 5 6 
#
# 1 0.010627 -0.002270 -0.006425 0.000000 0.000000 0.000000
# 2 -0.002270 0.010627 -0.006425 0.000000 0.000000 0.000000
# 3 -0.006425 -0.006425 0.035269 0.000000 0.000000 0.000000
# 4 0.000000 0.000000 0.000000 0.034331 0.000000 0.000000
# 5 0.000000 0.000000 0.000000 0.000000 0.034331 0.000000
# 6 0.000000 0.000000 0.000000 0.000000 0.000000 0.037362
#
#
# Mechanical properties :
#
#
# Convention : Reuss Voigt Hill
#
# Bulk Modulus (GPa) = 38.04598 54.77009 46.40804
# Shear Modulus (GPa) = 24.80834 28.88762 26.84798
#
# Velocity S-wave (km/s) = 3.49021 3.76625 3.63085
# Velocity P-wave (km/s) = 5.90963 6.76805 6.35335
#
# Compressibility (1/GPa) = 0.02628399
#
# Stress axis : x y z
#
# Youngs Moduli (GPa) = 94.10188 94.10340 28.35349
#
# Poissons Ratio (x) = 0.21359 0.18216
# Poissons Ratio (y) = 0.21358 0.18216
# Poissons Ratio (z) = 0.60458 0.60459
#
# Static dielectric constant tensor:
#      x y z
#    x 3.949530 0.000000 0.000000 
#    y 0.000000 3.949530 0.000000 
#    z 0.000000 0.000000 3.202410 
# 
# 
# High freq. dielectric constant tensor:
#      x y z
#    x 1.813060 0.000000 0.000000 
#    y 0.000000 1.813060 0.000000 
#    z 0.000000 0.000000 1.733270 
# 
# From -- ./inp_files/7560.got.cif
#   From: 2010.03.12/outbox.cif.g09.slc.cpg/sg137_4_cif.got.tgz:7560.got - 2010.04.08 09:34:49.
