data_PCOD8318953
_publ_section_title
;
Structure prediction by ZEFSAII (Michael W. Deem and Ramdas Pophale) SiO2 
 PCOD8318953
Probable space group: P 42/N C M
;
_chemical_formula_sum "Si O2"
_cell_formula_units_Z 72
_cell_length_a 18.461575
_cell_length_b 18.461575
_cell_length_c 12.569745
_cell_angle_alpha 90.000000
_cell_angle_beta 90.000000
_cell_angle_gamma 90.000000
_cell_volume 4284.143065
_symmetry_space_group_name_H-M "P 42/N C M"
_symmetry_group_IT_number 138
_space_group.IT_coordinate_system_code '2'
_symmetry_cell_setting 'tetragonal'
loop_
_space_group_symop_operation_xyz
x,y,z
1/2-y,x,1/2+z
1/2-x,1/2-y,z
y,1/2-x,1/2+z
1/2+x,-y,1/2-z
-x,1/2+y,1/2-z
1/2+y,1/2+x,-z
-y,-x,-z
-x,-y,-z
1/2+y,-x,1/2-z
1/2+x,1/2+y,-z
-y,1/2+x,1/2-z
1/2-x,y,1/2+z
x,1/2-y,1/2+z
1/2-y,1/2-x,z
y,x,z
loop_
_atom_site_type_symbol
_atom_site_label
_atom_site_fract_x
_atom_site_fract_y
_atom_site_fract_z
Si Si1 0.008728 0.491273 0.874814
Si Si2 0.996041 0.117384 0.971017
Si Si3 0.062109 0.231751 0.124239
Si Si4 0.123658 0.376343 0.794559
Si Si5 0.130415 0.016923 0.732390
Si Si6 0.307585 0.307585 0.501317
O O1 0.066864 0.433137 0.840488
O O2 0.032436 0.569018 0.824823
O O3 0.000000 0.500000 0.000000
O O4 0.060742 0.060742 0.987530
O O5 0.012636 0.186355 0.043828
O O6 0.989007 0.144949 0.850864
O O7 0.919803 0.080198 0.000000
O O8 0.084162 0.183826 0.224827
O O9 0.132517 0.265454 0.069293
O O10 0.011499 0.296250 0.165972
O O11 0.158960 0.341041 0.896625
O O12 0.100227 0.100227 0.735911
O O13 0.250000 0.250000 0.460025
#
# Coordination Sequence:
#
# PCOD8318953 Si02
#       6
#     8  16  16   8  16   8
#     4  10  20  39  55  76 105 151 191 256 285 347
#     4  10  19  35  55  79 112 158 203 245 287 346
#     4  12  21  35  53  82 112 161 192 233 288 362
#     4  12  24  33  58  76 109 156 209 219 291 358
#     4   9  20  34  55  74 117 146 195 245 293 335
#     4  12  24  36  47  79 124 158 184 230 281 355
#
# _framework density 16.806160999999999
#
# number of rings (size 3 to 8) (size 9 to 14) (size 15 to 20)
#    0.667    0.667    3.333    4.000    1.556    1.778 
#    0.000    0.000    0.000    0.000    0.000    0.000 
#    0.000   72.000    0.000    0.000    0.000    0.000 
#
# Total GULP energy -892600.640307 kJ/mol
# GULP energy per Si atom -12397.231115 kJ/mol
# Density = 1.676791 g / cm^3
# Si number density = 16.806161 Si / 1000 Ang^3
#
#
#
# Elastic Constant Matrix: (Units=GPa)
#
#
# Indices 1 2 3 4 5 6 
#
# 1 137.2953 21.9376 71.7612 0.0000 0.0000 0.0000
# 2 21.9376 137.2918 71.7628 0.0000 0.0000 0.0000
# 3 71.7612 71.7628 154.0207 0.0000 0.0000 0.0000
# 4 0.0000 0.0000 0.0000 26.0025 0.0000 0.0000
# 5 0.0000 0.0000 0.0000 0.0000 26.0029 0.0000
# 6 0.0000 0.0000 0.0000 0.0000 0.0000 37.6990
#
#
#
# Elastic Compliance Matrix: (Units=1/GPa)
#
#
# Indices 1 2 3 4 5 6 
#
# 1 0.009748 0.001079 -0.005045 0.000000 0.000000 0.000000
# 2 0.001079 0.009748 -0.005045 0.000000 0.000000 0.000000
# 3 -0.005045 -0.005045 0.011193 0.000000 0.000000 0.000000
# 4 0.000000 0.000000 0.000000 0.038458 0.000000 0.000000
# 5 0.000000 0.000000 0.000000 0.000000 0.038457 0.000000
# 6 0.000000 0.000000 0.000000 0.000000 0.000000 0.026526
#
#
# Mechanical properties :
#
#
# Convention : Reuss Voigt Hill
#
# Bulk Modulus (GPa) = 78.93110 84.39234 81.66172
# Shear Modulus (GPa) = 31.97464 35.48396 33.72930
#
# Velocity S-wave (km/s) = 4.36656 4.59995 4.48477
# Velocity P-wave (km/s) = 8.51411 8.86210 8.68984
#
# Compressibility (1/GPa) = 0.01266928
#
# Stress axis : x y z
#
# Youngs Moduli (GPa) = 102.58739 102.58246 89.33757
#
# Poissons Ratio (x) = -0.11071 0.45066
# Poissons Ratio (y) = -0.11071 0.45069
# Poissons Ratio (z) = 0.51750 0.51751
#
# Static dielectric constant tensor:
#      x y z
#    x 3.030610 0.000000 0.000000 
#    y 0.000000 3.030620 0.000000 
#    z 0.000000 0.000000 3.340020 
# 
# 
# High freq. dielectric constant tensor:
#      x y z
#    x 1.627310 0.000000 0.000000 
#    y 0.000000 1.627310 0.000000 
#    z 0.000000 0.000000 1.673240 
# 
# From -- ./inp_files/2874.got.cif
#   From: 2010.03.12/outbox.cif.g09.slc.cpg/sg138_2_cif.got.tgz:2874.got - 2010.04.08 09:41:05.
