data_PCOD8318873
_publ_section_title
;
Structure prediction by ZEFSAII (Michael W. Deem and Ramdas Pophale) SiO2 
 PCOD8318873
Probable space group: P 42/N C M
;
_chemical_formula_sum "Si O2"
_cell_formula_units_Z 96
_cell_length_a 14.767878
_cell_length_b 14.767878
_cell_length_c 23.734609
_cell_angle_alpha 90.000000
_cell_angle_beta 90.000000
_cell_angle_gamma 90.000000
_cell_volume 5176.286113
_symmetry_space_group_name_H-M "P 42/N C M"
_symmetry_group_IT_number 138
_space_group.IT_coordinate_system_code '2'
_symmetry_cell_setting 'tetragonal'
loop_
_space_group_symop_operation_xyz
x,y,z
1/2-y,x,1/2+z
1/2-x,1/2-y,z
y,1/2-x,1/2+z
1/2+x,-y,1/2-z
-x,1/2+y,1/2-z
1/2+y,1/2+x,-z
-y,-x,-z
-x,-y,-z
1/2+y,-x,1/2-z
1/2+x,1/2+y,-z
-y,1/2+x,1/2-z
1/2-x,y,1/2+z
x,1/2-y,1/2+z
1/2-y,1/2-x,z
y,x,z
loop_
_atom_site_type_symbol
_atom_site_label
_atom_site_fract_x
_atom_site_fract_y
_atom_site_fract_z
Si Si1 0.505856 0.767608 0.657250
Si Si2 0.439786 0.200730 0.110528
Si Si3 0.577275 0.074867 0.843416
Si Si4 0.783733 0.932428 0.775617
Si Si5 0.674339 0.825662 0.586390
Si Si6 0.076518 0.927079 0.784843
Si Si7 0.325666 0.325666 0.044709
O O1 0.456269 0.674815 0.639702
O O2 0.558550 0.767124 0.716595
O O3 0.577860 0.793582 0.609731
O O4 0.430059 0.844839 0.667656
O O5 0.378578 0.121423 0.084082
O O6 0.542345 0.159557 0.114904
O O7 0.405155 0.216996 0.174355
O O8 0.421353 0.291389 0.073032
O O9 0.614754 0.072229 0.779361
O O10 0.490955 0.009046 0.848578
O O11 0.856268 0.856268 0.763887
O O12 0.832959 0.025084 0.794325
O O13 0.750000 0.750000 0.598778
O O14 0.658772 0.841229 0.520485
O O15 0.012075 0.012075 0.795451
O O16 0.250000 0.250000 0.058029
#
# Coordination Sequence:
#
# PCOD8318873 Si02
#       7
#    16  16  16  16   8  16   8
#     4  11  19  32  50  73 105 146 170 207 276 331
#     4  10  18  32  54  74  99 136 172 217 261 315
#     4   9  18  31  47  74 109 138 174 217 265 322
#     4  10  19  29  49  77 103 129 170 222 263 313
#     4  11  22  34  51  79 113 135 177 230 265 314
#     4   9  17  30  45  71 108 138 162 211 271 314
#     4   9  20  36  51  77 107 139 174 229 269 296
#
# _framework density 18.546116000000001
#
# number of rings (size 3 to 8) (size 9 to 14) (size 15 to 20)
#    0.000    2.167    3.333    2.500    1.167    0.000 
#    0.000    1.667    0.000    6.000    0.000    0.000 
#    0.000    2.667    0.000    0.000    0.000    0.000 
#
# Total GULP energy -1189493.982358 kJ/mol
# GULP energy per Si atom -12390.562316 kJ/mol
# Density = 1.850390 g / cm^3
# Si number density = 18.546116 Si / 1000 Ang^3
#
#
#
# Elastic Constant Matrix: (Units=GPa)
#
#
# Indices 1 2 3 4 5 6 
#
# 1 73.6689 37.7535 30.0032 0.0000 0.0000 0.0000
# 2 37.7535 73.6689 30.0032 0.0000 0.0000 0.0000
# 3 30.0032 30.0032 72.3722 0.0000 0.0000 0.0000
# 4 0.0000 0.0000 0.0000 16.1424 0.0000 0.0000
# 5 0.0000 0.0000 0.0000 0.0000 16.1424 0.0000
# 6 0.0000 0.0000 0.0000 0.0000 0.0000 20.8217
#
#
#
# Elastic Compliance Matrix: (Units=1/GPa)
#
#
# Indices 1 2 3 4 5 6 
#
# 1 0.019699 -0.008144 -0.004790 0.000000 0.000000 0.000000
# 2 -0.008144 0.019699 -0.004790 0.000000 0.000000 0.000000
# 3 -0.004790 -0.004790 0.017789 0.000000 0.000000 0.000000
# 4 0.000000 0.000000 0.000000 0.061949 0.000000 0.000000
# 5 0.000000 0.000000 0.000000 0.000000 0.061949 0.000000
# 6 0.000000 0.000000 0.000000 0.000000 0.000000 0.048027
#
#
# Mechanical properties :
#
#
# Convention : Reuss Voigt Hill
#
# Bulk Modulus (GPa) = 46.00303 46.13662 46.06983
# Shear Modulus (GPa) = 18.39543 18.75128 18.57336
#
# Velocity S-wave (km/s) = 3.15282 3.18317 3.16803
# Velocity P-wave (km/s) = 6.17351 6.20007 6.18680
#
# Compressibility (1/GPa) = 0.02173770
#
# Stress axis : x y z
#
# Youngs Moduli (GPa) = 50.76420 50.76420 56.21400
#
# Poissons Ratio (x) = 0.41344 0.26927
# Poissons Ratio (y) = 0.41344 0.26927
# Poissons Ratio (z) = 0.24317 0.24317
#
# Static dielectric constant tensor:
#      x y z
#    x 3.556450 0.000000 0.000000 
#    y 0.000000 3.556450 0.000000 
#    z 0.000000 0.000000 3.086290 
# 
# 
# High freq. dielectric constant tensor:
#      x y z
#    x 1.711550 0.000000 0.000000 
#    y 0.000000 1.711550 0.000000 
#    z 0.000000 0.000000 1.677800 
# 
# From -- ./inp_files/6987.got.cif
#   From: 2010.03.12/outbox.cif.g09.slc.cpg/sg138_4_cif.got.tgz:6987.got - 2010.04.08 09:41:05.
