data_PCOD8318436
_publ_section_title
;
Structure prediction by ZEFSAII (Michael W. Deem and Ramdas Pophale) SiO2 
 PCOD8318436
Probable space group: P 42/N M C
;
_chemical_formula_sum "Si O2"
_cell_formula_units_Z 96
_cell_length_a 14.177310
_cell_length_b 14.177310
_cell_length_c 25.417455
_cell_angle_alpha 90.000000
_cell_angle_beta 90.000000
_cell_angle_gamma 90.000000
_cell_volume 5108.809806
_symmetry_space_group_name_H-M "P 42/N M C"
_symmetry_group_IT_number 137
_space_group.IT_coordinate_system_code '2'
_symmetry_cell_setting 'tetragonal'
loop_
_space_group_symop_operation_xyz
x,y,z
1/2-y,x,1/2+z
1/2-x,1/2-y,z
y,1/2-x,1/2+z
1/2+x,-y,-z
-x,1/2+y,-z
1/2+y,1/2+x,1/2-z
-y,-x,1/2-z
-x,-y,-z
1/2+y,-x,1/2-z
1/2+x,1/2+y,-z
-y,1/2+x,1/2-z
1/2-x,y,z
x,1/2-y,z
1/2-y,1/2-x,1/2+z
y,x,1/2+z
loop_
_atom_site_type_symbol
_atom_site_label
_atom_site_fract_x
_atom_site_fract_y
_atom_site_fract_z
Si Si1 0.145082 0.855910 0.952761
Si Si2 0.905500 0.495528 0.532223
Si Si3 0.434751 0.360020 0.294137
Si Si4 0.359055 0.359747 0.679102
Si Si5 0.146063 0.250000 0.844950
Si Si6 0.855843 0.750000 0.031658
Si Si7 0.972285 0.015625 0.374013
O O1 0.250000 0.900924 0.955805
O O2 0.151837 0.750000 0.931771
O O3 0.082144 0.911558 0.911433
O O4 0.099648 0.854882 0.011674
O O5 0.843267 0.586566 0.515732
O O6 0.000000 0.500000 0.500000
O O7 0.929532 0.492988 0.594698
O O8 0.456570 0.250000 0.307300
O O9 0.417787 0.374818 0.232703
O O10 0.343701 0.402660 0.323897
O O11 0.515441 0.427137 0.318895
O O12 0.250000 0.363295 0.662150
O O13 0.391602 0.250000 0.683877
O O14 0.420423 0.415666 0.635966
O O15 0.250000 0.250000 0.818283
O O16 0.153349 0.250000 0.906496
O O17 0.750000 0.750000 0.006327
#
# Coordination Sequence:
#
# PCOD8318436 Si02
#       7
#    16  16  16  16   8   8  16
#     4  10  21  38  57  74 105 148 189 229 281 347
#     4  10  22  36  55  82 116 146 188 237 290 343
#     4  10  18  32  55  84 114 142 179 226 280 335
#     4  10  21  37  55  77 113 156 191 231 283 342
#     4   9  16  28  52  83 109 137 175 222 274 328
#     4  11  20  36  61  89 117 149 190 244 289 340
#     4  11  21  34  56  85 112 142 187 239 284 342
#
# _framework density 18.791070999999999
#
# number of rings (size 3 to 8) (size 9 to 14) (size 15 to 20)
#    0.000    1.833    3.333    1.500    0.000    3.333 
#    0.000    2.500    0.000    0.000    0.000    7.000 
#    0.000    0.000    0.000    0.000    0.000    0.000 
#
# Total GULP energy -1189386.283974 kJ/mol
# GULP energy per Si atom -12389.440458 kJ/mol
# Density = 1.874830 g / cm^3
# Si number density = 18.791071 Si / 1000 Ang^3
#
#
#
# Elastic Constant Matrix: (Units=GPa)
#
#
# Indices 1 2 3 4 5 6 
#
# 1 104.8746 54.4874 40.3627 0.0000 0.0000 0.0000
# 2 54.4874 104.8746 40.3627 0.0000 0.0000 0.0000
# 3 40.3627 40.3627 63.4913 0.0000 0.0000 0.0000
# 4 0.0000 0.0000 0.0000 31.7306 0.0000 0.0000
# 5 0.0000 0.0000 0.0000 0.0000 31.7306 0.0000
# 6 0.0000 0.0000 0.0000 0.0000 0.0000 25.9199
#
#
#
# Elastic Compliance Matrix: (Units=1/GPa)
#
#
# Indices 1 2 3 4 5 6 
#
# 1 0.014551 -0.005295 -0.005884 0.000000 0.000000 0.000000
# 2 -0.005295 0.014551 -0.005884 0.000000 0.000000 0.000000
# 3 -0.005884 -0.005884 0.023231 0.000000 0.000000 0.000000
# 4 0.000000 0.000000 0.000000 0.031515 0.000000 0.000000
# 5 0.000000 0.000000 0.000000 0.000000 0.031515 0.000000
# 6 0.000000 0.000000 0.000000 0.000000 0.000000 0.038580
#
#
# Mechanical properties :
#
#
# Convention : Reuss Voigt Hill
#
# Bulk Modulus (GPa) = 54.92512 60.40734 57.66623
# Shear Modulus (GPa) = 25.75467 27.07807 26.41637
#
# Velocity S-wave (km/s) = 3.70615 3.80018 3.75346
# Velocity P-wave (km/s) = 6.89978 7.17438 7.03842
#
# Compressibility (1/GPa) = 0.01820661
#
# Stress axis : x y z
#
# Youngs Moduli (GPa) = 68.72407 68.72407 43.04547
#
# Poissons Ratio (x) = 0.36392 0.25328
# Poissons Ratio (y) = 0.36392 0.25328
# Poissons Ratio (z) = 0.40437 0.40437
#
# Static dielectric constant tensor:
#      x y z
#    x 3.533680 0.000000 0.000000 
#    y 0.000000 3.533680 0.000000 
#    z 0.000000 0.000000 3.581770 
# 
# 
# High freq. dielectric constant tensor:
#      x y z
#    x 1.724140 0.000000 0.000000 
#    y 0.000000 1.724140 0.000000 
#    z 0.000000 0.000000 1.722880 
# 
# From -- ./inp_files/8883.got.cif
#   From: 2010.03.12/outbox.cif.g09.slc.cpg/sg137_5_cif.got.tgz:8883.got - 2010.04.08 09:34:49.
