data_PCOD8318256
_publ_section_title
;
Structure prediction by ZEFSAII (Michael W. Deem and Ramdas Pophale) SiO2 
 PCOD8318256
Probable space group: P 42/M N M
;
_chemical_formula_sum "Si O2"
_cell_formula_units_Z 60
_cell_length_a 12.463514
_cell_length_b 12.463514
_cell_length_c 18.849332
_cell_angle_alpha 90.000000
_cell_angle_beta 90.000000
_cell_angle_gamma 90.000000
_cell_volume 2928.039800
_symmetry_space_group_name_H-M "P 42/M N M"
_symmetry_group_IT_number 136
_symmetry_cell_setting 'tetragonal'
loop_
_space_group_symop_operation_xyz
x,y,z
1/2-y,1/2+x,1/2+z
-x,-y,z
1/2+y,1/2-x,1/2+z
1/2+x,1/2-y,1/2-z
1/2-x,1/2+y,1/2-z
y,x,-z
-y,-x,-z
-x,-y,-z
1/2+y,1/2-x,1/2-z
x,y,-z
1/2-y,1/2+x,1/2-z
1/2-x,1/2+y,1/2+z
1/2+x,1/2-y,1/2+z
-y,-x,z
y,x,z
loop_
_atom_site_type_symbol
_atom_site_label
_atom_site_fract_x
_atom_site_fract_y
_atom_site_fract_z
Si Si1 0.432491 0.265210 0.625667
Si Si2 0.234454 0.234454 0.709688
Si Si3 0.336896 0.663105 0.352998
Si Si4 0.750044 0.249957 0.500000
Si Si5 0.388746 0.939612 0.000000
Si Si6 0.226087 0.995883 0.500000
Si Si7 0.082503 0.082503 0.379286
O O1 0.361590 0.361590 0.590250
O O2 0.356658 0.207071 0.684710
O O3 0.537779 0.314855 0.661402
O O4 0.471677 0.179107 0.568570
O O5 0.230115 0.230115 0.794757
O O6 0.149658 0.149658 0.677669
O O7 0.303542 0.696459 0.431731
O O8 0.724275 0.123218 0.500000
O O9 0.410128 0.813377 0.000000
O O10 0.500000 0.000000 0.000000
O O11 0.158605 0.010720 0.428823
O O12 0.000000 0.000000 0.340287
#
# Coordination Sequence:
#
# PCOD8318256 Si02
#       7
#    16   8   8   4   8   8   8
#     4  10  23  45  69  96 132 182 231 280 330 416
#     4  10  25  43  70  98 131 179 227 286 334 414
#     4  12  25  46  66  99 132 182 234 276 349 394
#     4  12  26  39  63  96 144 168 222 294 328 408
#     4  12  22  39  69 101 144 178 221 280 343 401
#     4  11  19  38  63  99 133 165 222 270 341 393
#     4  11  20  38  69  98 126 173 217 276 334 394
#
# _framework density 20.491524999999999
#
# number of rings (size 3 to 8) (size 9 to 14) (size 15 to 20)
#    0.800    0.267    4.000    3.600    1.867    3.200 
#    4.800    2.000    0.000    0.000    0.000    0.000 
#    0.000    0.000    0.000    0.000    0.000    0.000 
#
# Total GULP energy -743870.262834 kJ/mol
# GULP energy per Si atom -12397.837714 kJ/mol
# Density = 2.044489 g / cm^3
# Si number density = 20.491525 Si / 1000 Ang^3
#
#
#
# Elastic Constant Matrix: (Units=GPa)
#
#
# Indices 1 2 3 4 5 6 
#
# 1 122.4295 48.7719 44.5353 0.0000 0.0000 0.0000
# 2 48.7719 122.4290 44.5352 0.0000 0.0000 0.0000
# 3 44.5353 44.5352 122.5579 0.0000 0.0000 0.0000
# 4 0.0000 0.0000 0.0000 86.7727 0.0000 0.0000
# 5 0.0000 0.0000 0.0000 0.0000 86.8721 0.0000
# 6 0.0000 0.0000 0.0000 0.0000 0.0000 55.1264
#
#
#
# Elastic Compliance Matrix: (Units=1/GPa)
#
#
# Indices 1 2 3 4 5 6 
#
# 1 0.010390 -0.003187 -0.002617 0.000000 0.000000 0.000000
# 2 -0.003187 0.010390 -0.002617 0.000000 0.000000 0.000000
# 3 -0.002617 -0.002617 0.010062 0.000000 0.000000 0.000000
# 4 0.000000 0.000000 0.000000 0.011524 0.000000 0.000000
# 5 0.000000 0.000000 0.000000 0.000000 0.011511 0.000000
# 6 0.000000 0.000000 0.000000 0.000000 0.000000 0.018140
#
#
# Mechanical properties :
#
#
# Convention : Reuss Voigt Hill
#
# Bulk Modulus (GPa) = 71.43994 71.45569 71.44782
# Shear Modulus (GPa) = 53.46138 61.05916 57.26027
#
# Velocity S-wave (km/s) = 5.11333 5.46461 5.29189
# Velocity P-wave (km/s) = 8.35466 8.64653 8.50185
#
# Compressibility (1/GPa) = 0.01399777
#
# Stress axis : x y z
#
# Youngs Moduli (GPa) = 96.25030 96.24994 99.38763
#
# Poissons Ratio (x) = 0.30673 0.26013
# Poissons Ratio (y) = 0.30673 0.26013
# Poissons Ratio (z) = 0.25192 0.25192
#
# Static dielectric constant tensor:
#      x y z
#    x 3.795280 0.000000 0.000000 
#    y 0.000000 3.795290 0.000000 
#    z 0.000000 0.000000 3.352690 
# 
# 
# High freq. dielectric constant tensor:
#      x y z
#    x 1.809500 0.000000 0.000000 
#    y 0.000000 1.809500 0.000000 
#    z 0.000000 0.000000 1.776820 
# 
# From -- ./inp_files/7134.got.cif
#   From: 2010.03.12/outbox.cif.g09.slc.cpg/sg136_4_cif.got.tgz:7134.got - 2010.04.06 18:39:43.
