data_PCOD8318458
_publ_section_title
;
Structure prediction by ZEFSAII (Michael W. Deem and Ramdas Pophale) SiO2 
 PCOD8318458
Probable space group: P 42/N M C
;
_chemical_formula_sum "Si O2"
_cell_formula_units_Z 112
_cell_length_a 17.347451
_cell_length_b 17.347451
_cell_length_c 20.933282
_cell_angle_alpha 90.000000
_cell_angle_beta 90.000000
_cell_angle_gamma 90.000000
_cell_volume 6299.537462
_symmetry_space_group_name_H-M "P 42/N M C"
_symmetry_group_IT_number 137
_space_group.IT_coordinate_system_code '2'
_symmetry_cell_setting 'tetragonal'
loop_
_space_group_symop_operation_xyz
x,y,z
1/2-y,x,1/2+z
1/2-x,1/2-y,z
y,1/2-x,1/2+z
1/2+x,-y,-z
-x,1/2+y,-z
1/2+y,1/2+x,1/2-z
-y,-x,1/2-z
-x,-y,-z
1/2+y,-x,1/2-z
1/2+x,1/2+y,-z
-y,1/2+x,1/2-z
1/2-x,y,z
x,1/2-y,z
1/2-y,1/2-x,1/2+z
y,x,1/2+z
loop_
_atom_site_type_symbol
_atom_site_label
_atom_site_fract_x
_atom_site_fract_y
_atom_site_fract_z
Si Si1 0.582926 0.467904 0.480431
Si Si2 0.832668 0.858445 0.049674
Si Si3 0.899088 0.836189 0.915702
Si Si4 0.474211 0.837354 0.598097
Si Si5 0.165079 0.009440 0.393625
Si Si6 0.454759 0.442685 0.297193
Si Si7 0.659461 0.662755 0.281225
O O1 0.500000 0.500000 0.500000
O O2 0.612040 0.525877 0.425930
O O3 0.584468 0.383129 0.448410
O O4 0.638690 0.466127 0.541865
O O5 0.750000 0.825150 0.072763
O O6 0.899690 0.822543 0.092529
O O7 0.833233 0.949673 0.056059
O O8 0.842193 0.838487 0.975729
O O9 0.929199 0.750000 0.904172
O O10 0.851745 0.864834 0.854424
O O11 0.444678 0.750000 0.614307
O O12 0.488196 0.888303 0.661692
O O13 0.250000 0.977515 0.372692
O O14 0.098522 0.999827 0.340180
O O15 0.505311 0.494690 0.250000
O O16 0.397085 0.386019 0.261613
O O17 0.750000 0.649902 0.269914
O O18 0.635562 0.750000 0.263192
#
# Coordination Sequence:
#
# PCOD8318458 Si02
#       7
#    16  16  16  16  16  16  16
#     4  11  17  33  55  77 103 135 170 219 270 324
#     4   9  16  27  46  73 106 138 165 202 259 327
#     4  10  19  30  47  73 104 139 175 216 267 320
#     4  10  20  33  51  79 106 131 172 221 268 317
#     4  10  21  34  51  78 107 137 174 221 272 324
#     4  11  21  35  55  74 107 152 190 221 257 315
#     4  10  21  34  49  74 111 149 183 221 270 332
#
# _framework density 17.779083
#
# number of rings (size 3 to 8) (size 9 to 14) (size 15 to 20)
#    0.000    1.857    4.286    3.857    0.000    2.286 
#    0.000    0.000    0.000    1.714    0.000    0.000 
#    0.000    6.286    0.000    0.000    0.000    0.000 
#
# Total GULP energy -1387976.572147 kJ/mol
# GULP energy per Si atom -12392.647966 kJ/mol
# Density = 1.773862 g / cm^3
# Si number density = 17.779083 Si / 1000 Ang^3
#
#
#
# Elastic Constant Matrix: (Units=GPa)
#
#
# Indices 1 2 3 4 5 6 
#
# 1 88.0777 47.2151 40.9676 0.0000 0.0000 0.0000
# 2 47.2151 88.0781 40.9679 0.0000 0.0000 0.0000
# 3 40.9676 40.9679 89.2492 0.0000 0.0000 0.0000
# 4 0.0000 0.0000 0.0000 18.5811 0.0000 0.0000
# 5 0.0000 0.0000 0.0000 0.0000 18.5809 0.0000
# 6 0.0000 0.0000 0.0000 0.0000 0.0000 17.7032
#
#
#
# Elastic Compliance Matrix: (Units=1/GPa)
#
#
# Indices 1 2 3 4 5 6 
#
# 1 0.017355 -0.007117 -0.004699 0.000000 0.000000 0.000000
# 2 -0.007117 0.017355 -0.004699 0.000000 0.000000 0.000000
# 3 -0.004699 -0.004699 0.015519 0.000000 0.000000 0.000000
# 4 0.000000 0.000000 0.000000 0.053818 0.000000 0.000000
# 5 0.000000 0.000000 0.000000 0.000000 0.053819 0.000000
# 6 0.000000 0.000000 0.000000 0.000000 0.000000 0.056487
#
#
# Mechanical properties :
#
#
# Convention : Reuss Voigt Hill
#
# Bulk Modulus (GPa) = 58.15136 58.18955 58.17045
# Shear Modulus (GPa) = 19.75384 20.05668 19.90526
#
# Velocity S-wave (km/s) = 3.33689 3.36237 3.34966
# Velocity P-wave (km/s) = 6.90110 6.91913 6.91012
#
# Compressibility (1/GPa) = 0.01719650
#
# Stress axis : x y z
#
# Youngs Moduli (GPa) = 57.62132 57.62133 64.43849
#
# Poissons Ratio (x) = 0.41012 0.30280
# Poissons Ratio (y) = 0.41012 0.30281
# Poissons Ratio (z) = 0.27077 0.27078
#
# Static dielectric constant tensor:
#      x y z
#    x 3.318810 0.000000 0.000000 
#    y 0.000000 3.318790 0.000000 
#    z 0.000000 0.000000 3.497420 
# 
# 
# High freq. dielectric constant tensor:
#      x y z
#    x 1.671430 0.000000 0.000000 
#    y 0.000000 1.671430 0.000000 
#    z 0.000000 0.000000 1.691960 
# 
# From -- ./inp_files/8123.got.cif
#   From: 2010.03.12/outbox.cif.g09.slc.cpg/sg137_5_cif.got.tgz:8123.got - 2010.04.08 09:34:49.
