data_PCOD8318594
_publ_section_title
;
Structure prediction by ZEFSAII (Michael W. Deem and Ramdas Pophale) SiO2 
 PCOD8318594
Probable space group: P 42/N M C
;
_chemical_formula_sum "Si O2"
_cell_formula_units_Z 112
_cell_length_a 14.590114
_cell_length_b 14.590114
_cell_length_c 26.475667
_cell_angle_alpha 90.000000
_cell_angle_beta 90.000000
_cell_angle_gamma 90.000000
_cell_volume 5635.913003
_symmetry_space_group_name_H-M "P 42/N M C"
_symmetry_group_IT_number 137
_space_group.IT_coordinate_system_code '2'
_symmetry_cell_setting 'tetragonal'
loop_
_space_group_symop_operation_xyz
x,y,z
1/2-y,x,1/2+z
1/2-x,1/2-y,z
y,1/2-x,1/2+z
1/2+x,-y,-z
-x,1/2+y,-z
1/2+y,1/2+x,1/2-z
-y,-x,1/2-z
-x,-y,-z
1/2+y,-x,1/2-z
1/2+x,1/2+y,-z
-y,1/2+x,1/2-z
1/2-x,y,z
x,1/2-y,z
1/2-y,1/2-x,1/2+z
y,x,1/2+z
loop_
_atom_site_type_symbol
_atom_site_label
_atom_site_fract_x
_atom_site_fract_y
_atom_site_fract_z
Si Si1 0.462447 0.353392 0.122615
Si Si2 0.849640 0.925888 0.055540
Si Si3 0.645054 0.026022 0.601509
Si Si4 0.356648 0.492995 0.054810
Si Si5 0.854763 0.648555 0.283129
Si Si6 0.648016 0.071391 0.143234
Si Si7 0.535456 0.559822 0.205315
O O1 0.427984 0.250000 0.113825
O O2 0.420539 0.414594 0.078599
O O3 0.423479 0.393930 0.175613
O O4 0.573470 0.353880 0.124308
O O5 0.750000 0.874950 0.050811
O O6 0.931286 0.856169 0.069347
O O7 0.842147 0.997999 0.099792
O O8 0.870264 0.982210 0.004817
O O9 0.750000 0.056380 0.608642
O O10 0.592504 0.105938 0.571190
O O11 0.595860 0.016389 0.655739
O O12 0.250000 0.483293 0.070841
O O13 0.750000 0.625487 0.272792
O O14 0.868375 0.750000 0.305473
O O15 0.904422 0.641495 0.229213
O O16 0.750000 0.113434 0.154799
O O17 0.605510 0.023040 0.192732
O O18 0.465744 0.534257 0.250000
#
# Coordination Sequence:
#
# PCOD8318594 Si02
#       7
#    16  16  16  16  16  16  16
#     4  11  22  37  59  86 116 154 202 250 304 361
#     4   9  20  39  64  88 118 158 197 243 304 367
#     4  11  23  38  61  93 126 159 203 254 310 368
#     4  11  22  41  63  86 122 162 203 251 305 363
#     4  10  20  34  53  80 112 146 192 245 293 348
#     4  10  20  37  59  84 119 155 194 246 302 364
#     4  11  19  36  59  84 115 160 202 244 296 361
#
# _framework density 19.872557
#
# number of rings (size 3 to 8) (size 9 to 14) (size 15 to 20)
#    0.000    1.571    4.286    1.714    0.000    2.857 
#    0.000    2.143    0.000    2.571    0.000    0.000 
#    0.000    0.000    0.000    0.000    0.000    0.000 
#
# Total GULP energy -1388203.829518 kJ/mol
# GULP energy per Si atom -12394.677049 kJ/mol
# Density = 1.982733 g / cm^3
# Si number density = 19.872557 Si / 1000 Ang^3
#
#
#
# Elastic Constant Matrix: (Units=GPa)
#
#
# Indices 1 2 3 4 5 6 
#
# 1 96.6698 33.7827 27.7815 0.0000 0.0000 0.0000
# 2 33.7827 96.6690 27.7807 0.0000 0.0000 0.0000
# 3 27.7815 27.7807 74.9643 0.0000 0.0000 0.0000
# 4 0.0000 0.0000 0.0000 16.1273 0.0000 0.0000
# 5 0.0000 0.0000 0.0000 0.0000 16.1274 0.0000
# 6 0.0000 0.0000 0.0000 0.0000 0.0000 17.8294
#
#
#
# Elastic Compliance Matrix: (Units=1/GPa)
#
#
# Indices 1 2 3 4 5 6 
#
# 1 0.012502 -0.003400 -0.003373 0.000000 0.000000 0.000000
# 2 -0.003400 0.012502 -0.003373 0.000000 0.000000 0.000000
# 3 -0.003373 -0.003373 0.015840 0.000000 0.000000 0.000000
# 4 0.000000 0.000000 0.000000 0.062007 0.000000 0.000000
# 5 0.000000 0.000000 0.000000 0.000000 0.062006 0.000000
# 6 0.000000 0.000000 0.000000 0.000000 0.000000 0.056087
#
#
# Mechanical properties :
#
#
# Convention : Reuss Voigt Hill
#
# Bulk Modulus (GPa) = 48.65799 49.66588 49.16194
# Shear Modulus (GPa) = 20.15422 21.94735 21.05078
#
# Velocity S-wave (km/s) = 3.18806 3.32686 3.25820
# Velocity P-wave (km/s) = 6.17170 6.30903 6.24074
#
# Compressibility (1/GPa) = 0.02055161
#
# Stress axis : x y z
#
# Youngs Moduli (GPa) = 79.98735 79.98705 63.13174
#
# Poissons Ratio (x) = 0.27192 0.21296
# Poissons Ratio (y) = 0.27193 0.21296
# Poissons Ratio (z) = 0.26982 0.26981
#
# Static dielectric constant tensor:
#      x y z
#    x 3.694530 0.000000 0.000000 
#    y 0.000000 3.694530 0.000000 
#    z 0.000000 0.000000 3.728960 
# 
# 
# High freq. dielectric constant tensor:
#      x y z
#    x 1.765770 0.000000 0.000000 
#    y 0.000000 1.765770 0.000000 
#    z 0.000000 0.000000 1.781600 
# 
# From -- ./inp_files/9008.got.cif
#   From: 2010.03.12/outbox.cif.g09.slc.cpg/sg137_5_cif.got.tgz:9008.got - 2010.04.08 09:34:49.
