data_PCOD8318715
_publ_section_title
;
Structure prediction by ZEFSAII (Michael W. Deem and Ramdas Pophale) SiO2 
 PCOD8318715
Probable space group: P 42/N M C
;
_chemical_formula_sum "Si O2"
_cell_formula_units_Z 112
_cell_length_a 14.984356
_cell_length_b 14.984356
_cell_length_c 24.126773
_cell_angle_alpha 90.000000
_cell_angle_beta 90.000000
_cell_angle_gamma 90.000000
_cell_volume 5417.206653
_symmetry_space_group_name_H-M "P 42/N M C"
_symmetry_group_IT_number 137
_space_group.IT_coordinate_system_code '2'
_symmetry_cell_setting 'tetragonal'
loop_
_space_group_symop_operation_xyz
x,y,z
1/2-y,x,1/2+z
1/2-x,1/2-y,z
y,1/2-x,1/2+z
1/2+x,-y,-z
-x,1/2+y,-z
1/2+y,1/2+x,1/2-z
-y,-x,1/2-z
-x,-y,-z
1/2+y,-x,1/2-z
1/2+x,1/2+y,-z
-y,1/2+x,1/2-z
1/2-x,y,z
x,1/2-y,z
1/2-y,1/2-x,1/2+z
y,x,1/2+z
loop_
_atom_site_type_symbol
_atom_site_label
_atom_site_fract_x
_atom_site_fract_y
_atom_site_fract_z
Si Si1 0.482021 0.461600 0.840990
Si Si2 0.650217 0.650495 0.454790
Si Si3 0.145310 0.646416 0.374506
Si Si4 0.517790 0.918522 0.539566
Si Si5 0.353014 0.845315 0.000228
Si Si6 0.350704 0.148645 0.766219
Si Si7 0.948788 0.850995 0.843790
O O1 0.580694 0.415968 0.837063
O O2 0.440238 0.442008 0.900987
O O3 0.418023 0.418681 0.795676
O O4 0.483398 0.568466 0.829021
O O5 0.750000 0.627287 0.474418
O O6 0.643998 0.750000 0.431000
O O7 0.587993 0.644284 0.508458
O O8 0.621742 0.586308 0.404628
O O9 0.250000 0.632399 0.360822
O O10 0.118508 0.750000 0.363180
O O11 0.124859 0.617496 0.437988
O O12 0.420360 0.872796 0.545570
O O13 0.500000 0.000000 0.500000
O O14 0.250000 0.826509 0.003379
O O15 0.399606 0.750000 0.984237
O O16 0.250000 0.132850 0.788719
O O17 0.380951 0.250000 0.777373
O O18 0.352621 0.131245 0.700407
O O19 0.991462 0.750000 0.844023
#
# Coordination Sequence:
#
# PCOD8318715 Si02
#       7
#    16  16  16  16  16  16  16
#     4  12  23  37  60  91 122 161 197 244 305 369
#     4  10  21  37  59  86 116 155 203 253 302 353
#     4   9  18  33  54  82 116 152 189 231 283 351
#     4  12  22  34  50  84 122 155 187 235 291 354
#     4   9  18  33  52  72 102 149 198 236 275 337
#     4  10  23  43  65  89 119 157 203 255 310 368
#     4  10  21  40  64  88 115 152 206 263 309 353
#
# _framework density 20.674861
#
# number of rings (size 3 to 8) (size 9 to 14) (size 15 to 20)
#    0.000    1.714    2.857    2.571    0.000    7.429 
#    0.000    1.429    0.000    0.429    0.000    4.000 
#    0.000    0.000    0.000    0.000    0.000    0.000 
#
# Total GULP energy -1388089.713731 kJ/mol
# GULP energy per Si atom -12393.658158 kJ/mol
# Density = 2.062780 g / cm^3
# Si number density = 20.674861 Si / 1000 Ang^3
#
#
#
# Elastic Constant Matrix: (Units=GPa)
#
#
# Indices 1 2 3 4 5 6 
#
# 1 105.6146 49.7172 30.8534 0.0000 0.0000 0.0000
# 2 49.7172 105.6146 30.8534 0.0000 0.0000 0.0000
# 3 30.8534 30.8534 68.0049 0.0000 0.0000 0.0000
# 4 0.0000 0.0000 0.0000 48.1710 0.0000 0.0000
# 5 0.0000 0.0000 0.0000 0.0000 48.1710 0.0000
# 6 0.0000 0.0000 0.0000 0.0000 0.0000 32.2166
#
#
#
# Elastic Compliance Matrix: (Units=1/GPa)
#
#
# Indices 1 2 3 4 5 6 
#
# 1 0.012872 -0.005018 -0.003563 0.000000 0.000000 0.000000
# 2 -0.005018 0.012872 -0.003563 0.000000 0.000000 0.000000
# 3 -0.003563 -0.003563 0.017938 0.000000 0.000000 0.000000
# 4 0.000000 0.000000 0.000000 0.020759 0.000000 0.000000
# 5 0.000000 0.000000 0.000000 0.000000 0.020759 0.000000
# 6 0.000000 0.000000 0.000000 0.000000 0.000000 0.031040
#
#
# Mechanical properties :
#
#
# Convention : Reuss Voigt Hill
#
# Bulk Modulus (GPa) = 51.56651 55.78690 53.67670
# Shear Modulus (GPa) = 34.01537 36.89907 35.45722
#
# Velocity S-wave (km/s) = 4.06057 4.22919 4.14574
# Velocity P-wave (km/s) = 6.85420 7.13370 6.99535
#
# Compressibility (1/GPa) = 0.01939243
#
# Stress axis : x y z
#
# Youngs Moduli (GPa) = 77.69049 77.69049 55.74809
#
# Poissons Ratio (x) = 0.38988 0.19863
# Poissons Ratio (y) = 0.38988 0.19863
# Poissons Ratio (z) = 0.27681 0.27681
#
# Static dielectric constant tensor:
#      x y z
#    x 3.835660 0.000000 0.000000 
#    y 0.000000 3.835660 0.000000 
#    z 0.000000 0.000000 3.533650 
# 
# 
# High freq. dielectric constant tensor:
#      x y z
#    x 1.811300 0.000000 0.000000 
#    y 0.000000 1.811300 0.000000 
#    z 0.000000 0.000000 1.781310 
# 
# From -- ./inp_files/8982.got.cif
#   From: 2010.03.12/outbox.cif.g09.slc.cpg/sg137_5_cif.got.tgz:8982.got - 2010.04.08 09:34:49.
