data_PCOD8318495
_publ_section_title
;
Structure prediction by ZEFSAII (Michael W. Deem and Ramdas Pophale) SiO2 
 PCOD8318495
Probable space group: P 42/N M C
;
_chemical_formula_sum "Si O2"
_cell_formula_units_Z 84
_cell_length_a 14.419574
_cell_length_b 14.419574
_cell_length_c 22.723545
_cell_angle_alpha 90.000000
_cell_angle_beta 90.000000
_cell_angle_gamma 90.000000
_cell_volume 4724.772969
_symmetry_space_group_name_H-M "P 42/N M C"
_symmetry_group_IT_number 137
_space_group.IT_coordinate_system_code '2'
_symmetry_cell_setting 'tetragonal'
loop_
_space_group_symop_operation_xyz
x,y,z
1/2-y,x,1/2+z
1/2-x,1/2-y,z
y,1/2-x,1/2+z
1/2+x,-y,-z
-x,1/2+y,-z
1/2+y,1/2+x,1/2-z
-y,-x,1/2-z
-x,-y,-z
1/2+y,-x,1/2-z
1/2+x,1/2+y,-z
-y,1/2+x,1/2-z
1/2-x,y,z
x,1/2-y,z
1/2-y,1/2-x,1/2+z
y,x,1/2+z
loop_
_atom_site_type_symbol
_atom_site_label
_atom_site_fract_x
_atom_site_fract_y
_atom_site_fract_z
Si Si1 0.750000 0.750000 0.641972
Si Si2 0.750000 0.478171 0.831958
Si Si3 0.912307 0.750000 0.453798
Si Si4 0.058391 0.250000 0.793329
Si Si5 0.449518 0.571654 0.185577
Si Si6 0.992903 0.056992 0.413986
Si Si7 0.446686 0.144703 0.013046
Si Si8 0.250000 0.047357 0.914690
O O1 0.750000 0.664025 0.686373
O O2 0.658121 0.750000 0.600662
O O3 0.750000 0.524404 0.895959
O O4 0.750000 0.553563 0.778242
O O5 0.839569 0.412460 0.824392
O O6 0.854210 0.653846 0.454272
O O7 0.970523 0.750000 0.514626
O O8 0.005920 0.335045 0.823244
O O9 0.469342 0.530659 0.250000
O O10 0.484223 0.496852 0.138835
O O11 0.086235 0.054914 0.453233
O O12 0.992011 0.161628 0.388464
O O13 0.899769 0.028956 0.448044
O O14 0.474587 0.250000 0.998515
#
# Coordination Sequence:
#
# PCOD8318495 Si02
#       8
#     4   8   8   8  16  16  16   8
#     4  12  20  36  56  86 106 134 194 230 276 320
#     4  10  20  38  52  78 117 146 183 225 269 339
#     4  10  19  32  53  83 109 139 178 221 279 324
#     4  10  22  35  55  80 110 150 186 229 270 321
#     4  10  20  35  55  77 111 150 183 222 272 327
#     4  10  20  36  55  80 111 144 182 230 272 326
#     4  10  21  34  55  82 112 146 181 222 280 330
#     4  10  22  32  56  82 106 141 182 233 272 325
#
# _framework density 17.778632000000002
#
# number of rings (size 3 to 8) (size 9 to 14) (size 15 to 20)
#    0.000    1.905    3.810    0.286    6.667    0.381 
#    1.714    2.381    2.095    0.000    0.000    0.000 
#    0.000    0.000    0.000    0.000    0.000    0.000 
#
# Total GULP energy -1040973.314452 kJ/mol
# GULP energy per Si atom -12392.539458 kJ/mol
# Density = 1.773817 g / cm^3
# Si number density = 17.778632 Si / 1000 Ang^3
#
#
#
# Elastic Constant Matrix: (Units=GPa)
#
#
# Indices 1 2 3 4 5 6 
#
# 1 109.3896 37.6418 25.7857 0.0000 0.0000 0.0000
# 2 37.6418 109.3897 25.7857 0.0000 0.0000 0.0000
# 3 25.7857 25.7857 79.5124 0.0000 0.0000 0.0000
# 4 0.0000 0.0000 0.0000 17.7411 0.0000 0.0000
# 5 0.0000 0.0000 0.0000 0.0000 17.7411 0.0000
# 6 0.0000 0.0000 0.0000 0.0000 0.0000 22.4937
#
#
#
# Elastic Compliance Matrix: (Units=1/GPa)
#
#
# Indices 1 2 3 4 5 6 
#
# 1 0.010806 -0.003132 -0.002489 0.000000 0.000000 0.000000
# 2 -0.003132 0.010806 -0.002489 0.000000 0.000000 0.000000
# 3 -0.002489 -0.002489 0.014191 0.000000 0.000000 0.000000
# 4 0.000000 0.000000 0.000000 0.056366 0.000000 0.000000
# 5 0.000000 0.000000 0.000000 0.000000 0.056366 0.000000
# 6 0.000000 0.000000 0.000000 0.000000 0.000000 0.044457
#
#
# Mechanical properties :
#
#
# Convention : Reuss Voigt Hill
#
# Bulk Modulus (GPa) = 51.06128 52.96868 52.01498
# Shear Modulus (GPa) = 23.17617 25.53374 24.35495
#
# Velocity S-wave (km/s) = 3.61445 3.79384 3.70523
# Velocity P-wave (km/s) = 6.79720 7.00351 6.90112
#
# Compressibility (1/GPa) = 0.01958431
#
# Stress axis : x y z
#
# Youngs Moduli (GPa) = 92.54157 92.54178 70.46807
#
# Poissons Ratio (x) = 0.28982 0.17538
# Poissons Ratio (y) = 0.28982 0.17537
# Poissons Ratio (z) = 0.23031 0.23031
#
# Static dielectric constant tensor:
#      x y z
#    x 3.331980 0.000000 0.000000 
#    y 0.000000 3.331990 0.000000 
#    z 0.000000 0.000000 3.292450 
# 
# 
# High freq. dielectric constant tensor:
#      x y z
#    x 1.676400 0.000000 0.000000 
#    y 0.000000 1.676400 0.000000 
#    z 0.000000 0.000000 1.687040 
# 
# From -- ./inp_files/8846.got.cif
#   From: 2010.03.12/outbox.cif.g09.slc.cpg/sg137_5_cif.got.tgz:8846.got - 2010.04.08 09:34:49.
