data_PCOD8318048
_publ_section_title
;
Structure prediction by ZEFSAII (Michael W. Deem and Ramdas Pophale) SiO2 
 PCOD8318048
Probable space group: P 42/M N M
;
_chemical_formula_sum "Si O2"
_cell_formula_units_Z 32
_cell_length_a 8.877841
_cell_length_b 8.877841
_cell_length_c 21.349088
_cell_angle_alpha 90.000000
_cell_angle_beta 90.000000
_cell_angle_gamma 90.000000
_cell_volume 1682.651018
_symmetry_space_group_name_H-M "P 42/M N M"
_symmetry_group_IT_number 136
_symmetry_cell_setting 'tetragonal'
loop_
_space_group_symop_operation_xyz
x,y,z
1/2-y,1/2+x,1/2+z
-x,-y,z
1/2+y,1/2-x,1/2+z
1/2+x,1/2-y,1/2-z
1/2-x,1/2+y,1/2-z
y,x,-z
-y,-x,-z
-x,-y,-z
1/2+y,1/2-x,1/2-z
x,y,-z
1/2-y,1/2+x,1/2-z
1/2-x,1/2+y,1/2+z
1/2+x,1/2-y,1/2+z
-y,-x,z
y,x,z
loop_
_atom_site_type_symbol
_atom_site_label
_atom_site_fract_x
_atom_site_fract_y
_atom_site_fract_z
Si Si1 0.000000 0.500000 0.102379
Si Si2 0.748777 0.502911 0.000000
Si Si3 0.195089 0.566813 0.285594
O O1 0.988784 0.649981 0.145068
O O2 0.850109 0.488835 0.061493
O O3 0.662770 0.662770 0.000000
O O4 0.632837 0.367164 0.000000
O O5 0.191642 0.427253 0.237364
O O6 0.360866 0.639135 0.286900
#
# Coordination Sequence:
#
# PCOD8318048 Si02
#       3
#     8   8  16
#     4   9  19  34  52  74 105 133 164 210 254 293
#     4  10  20  34  54  76  98 132 174 210 248 296
#     4   9  19  34  52  75 102 132 166 204 248 299
#
# _framework density 19.017610999999999
#
# number of rings (size 3 to 8) (size 9 to 14) (size 15 to 20)
#    0.000    3.250    0.000    1.500    0.000    9.000 
#    0.000    0.000    0.000   25.500    0.000    0.000 
#    0.000    0.000    0.000    0.000    0.000    0.000 
#
# Total GULP energy -396675.718168 kJ/mol
# GULP energy per Si atom -12396.116193 kJ/mol
# Density = 1.897433 g / cm^3
# Si number density = 19.017611 Si / 1000 Ang^3
#
#
#
# Elastic Constant Matrix: (Units=GPa)
#
#
# Indices 1 2 3 4 5 6 
#
# 1 75.0371 40.3384 39.7773 0.0000 0.0000 0.0000
# 2 40.3384 75.0365 39.7771 0.0000 0.0000 0.0000
# 3 39.7773 39.7771 132.1110 0.0000 0.0000 0.0000
# 4 0.0000 0.0000 0.0000 -1.2400 0.0000 0.0000
# 5 0.0000 0.0000 0.0000 0.0000 -1.2520 0.0000
# 6 0.0000 0.0000 0.0000 0.0000 0.0000 48.1700
#
#
#
# Elastic Compliance Matrix: (Units=1/GPa)
#
#
# Indices 1 2 3 4 5 6 
#
# 1 0.019879 -0.008941 -0.003293 0.000000 0.000000 0.000000
# 2 -0.008941 0.019879 -0.003293 0.000000 0.000000 0.000000
# 3 -0.003293 -0.003293 0.009553 0.000000 0.000000 0.000000
# 4 0.000000 0.000000 0.000000 -0.806459 0.000000 0.000000
# 5 0.000000 0.000000 0.000000 0.000000 -0.798749 0.000000
# 6 0.000000 0.000000 0.000000 0.000000 0.000000 0.020760
#
#
# Mechanical properties :
#
#
# Convention : Reuss Voigt Hill
#
# Bulk Modulus (GPa) = 54.77787 57.99670 56.38728
# Shear Modulus (GPa) = -3.33779 19.95505 8.30863
#
# Velocity S-wave (km/s) = -1.32624 3.24279 2.09246
# Velocity P-wave (km/s) = 5.14986 6.67709 5.96257
#
# Compressibility (1/GPa) = 0.01825555
#
# Stress axis : x y z
#
# Youngs Moduli (GPa) = 50.30443 50.30406 104.68356
#
# Poissons Ratio (x) = 0.44976 0.34476
# Poissons Ratio (y) = 0.44976 0.34476
# Poissons Ratio (z) = 0.16567 0.16567
#
# Static dielectric constant tensor:
#      x y z
#    x 3.337170 0.000000 0.000000 
#    y 0.000000 3.337160 0.000000 
#    z 0.000000 0.000000 3.591240 
# 
# 
# High freq. dielectric constant tensor:
#      x y z
#    x 1.728330 0.000000 0.000000 
#    y 0.000000 1.728330 0.000000 
#    z 0.000000 0.000000 1.747410 
# 
# From -- ./inp_files/6715.got.cif
#   From: 2010.03.12/outbox.cif.g09.slc.cpg/sg136_4_cif.got.tgz:6715.got - 2010.04.06 18:39:43.
