data_PCOD8318039
_publ_section_title
;
Structure prediction by ZEFSAII (Michael W. Deem and Ramdas Pophale) SiO2 
 PCOD8318039
Probable space group: P 42/M N M
;
_chemical_formula_sum "Si O2"
_cell_formula_units_Z 96
_cell_length_a 16.102726
_cell_length_b 16.102726
_cell_length_c 19.104460
_cell_angle_alpha 90.000000
_cell_angle_beta 90.000000
_cell_angle_gamma 90.000000
_cell_volume 4953.744155
_symmetry_space_group_name_H-M "P 42/M N M"
_symmetry_group_IT_number 136
_symmetry_cell_setting 'tetragonal'
loop_
_space_group_symop_operation_xyz
x,y,z
1/2-y,1/2+x,1/2+z
-x,-y,z
1/2+y,1/2-x,1/2+z
1/2+x,1/2-y,1/2-z
1/2-x,1/2+y,1/2-z
y,x,-z
-y,-x,-z
-x,-y,-z
1/2+y,1/2-x,1/2-z
x,y,-z
1/2-y,1/2+x,1/2-z
1/2-x,1/2+y,1/2+z
1/2+x,1/2-y,1/2+z
-y,-x,z
y,x,z
loop_
_atom_site_type_symbol
_atom_site_label
_atom_site_fract_x
_atom_site_fract_y
_atom_site_fract_z
Si Si1 0.531579 0.887948 0.287568
Si Si2 0.462078 0.672865 0.578632
Si Si3 0.892639 0.240110 0.582289
Si Si4 0.798833 0.070787 0.204743
Si Si5 0.425420 0.861242 0.579993
Si Si6 0.867984 0.995087 0.336324
O O1 0.458459 0.899463 0.229013
O O2 0.576512 0.799412 0.282166
O O3 0.494052 0.897829 0.366363
O O4 0.492656 0.653847 0.500000
O O5 0.396087 0.603914 0.603367
O O6 0.542817 0.674097 0.627449
O O7 0.418866 0.762084 0.583046
O O8 0.892178 0.234712 0.500000
O O9 0.814940 0.185061 0.612068
O O10 0.889747 0.335209 0.606838
O O11 0.980445 0.205382 0.610506
O O12 0.838307 0.161694 0.218918
O O13 0.836036 0.002333 0.257020
O O14 0.445642 0.890563 0.500000
O O15 0.943494 0.056507 0.350381
O O16 0.900864 0.900864 0.348971
#
# Coordination Sequence:
#
# PCOD8318039 Si02
#       6
#    16  16  16  16  16  16
#     4  10  21  38  58  80 107 134 171 220 263 307
#     4   9  17  29  48  77 112 147 180 214 255 309
#     4   9  16  26  44  71 102 137 177 222 271 319
#     4  10  20  34  52  74 104 142 179 215 259 311
#     4   9  17  31  52  77 104 135 173 218 267 316
#     4   9  17  28  42  64  98 139 180 219 259 306
#
# _framework density 19.379282
#
# number of rings (size 3 to 8) (size 9 to 14) (size 15 to 20)
#    0.000    2.667    0.000    2.000    0.000    3.667 
#    0.000    8.333    0.000    1.000    0.000    0.000 
#    0.000   13.333    0.000    0.167    0.000    0.000 
#
# Total GULP energy -1189704.039322 kJ/mol
# GULP energy per Si atom -12392.750410 kJ/mol
# Density = 1.933517 g / cm^3
# Si number density = 19.379282 Si / 1000 Ang^3
#
#
#
# Elastic Constant Matrix: (Units=GPa)
#
#
# Indices 1 2 3 4 5 6 
#
# 1 77.8383 40.6839 27.4425 0.0000 0.0000 0.0000
# 2 40.6839 77.8383 27.4425 0.0000 0.0000 0.0000
# 3 27.4425 27.4425 52.9803 0.0000 0.0000 0.0000
# 4 0.0000 0.0000 0.0000 24.4496 0.0000 0.0000
# 5 0.0000 0.0000 0.0000 0.0000 24.4496 0.0000
# 6 0.0000 0.0000 0.0000 0.0000 0.0000 30.7126
#
#
#
# Elastic Compliance Matrix: (Units=1/GPa)
#
#
# Indices 1 2 3 4 5 6 
#
# 1 0.019007 -0.007908 -0.005749 0.000000 0.000000 0.000000
# 2 -0.007908 0.019007 -0.005749 0.000000 0.000000 0.000000
# 3 -0.005749 -0.005749 0.024831 0.000000 0.000000 0.000000
# 4 0.000000 0.000000 0.000000 0.040900 0.000000 0.000000
# 5 0.000000 0.000000 0.000000 0.000000 0.040900 0.000000
# 6 0.000000 0.000000 0.000000 0.000000 0.000000 0.032560
#
#
# Mechanical properties :
#
#
# Convention : Reuss Voigt Hill
#
# Bulk Modulus (GPa) = 41.60966 44.42164 43.01565
# Shear Modulus (GPa) = 22.31847 23.46155 22.89001
#
# Velocity S-wave (km/s) = 3.39730 3.48322 3.44053
# Velocity P-wave (km/s) = 6.07509 6.25692 6.16668
#
# Compressibility (1/GPa) = 0.02403288
#
# Stress axis : x y z
#
# Youngs Moduli (GPa) = 52.61171 52.61171 40.27224
#
# Poissons Ratio (x) = 0.41603 0.23154
# Poissons Ratio (y) = 0.41603 0.23154
# Poissons Ratio (z) = 0.30248 0.30248
#
# Static dielectric constant tensor:
#      x y z
#    x 3.497850 0.000000 0.000000 
#    y 0.000000 3.497850 0.000000 
#    z 0.000000 0.000000 3.716070 
# 
# 
# High freq. dielectric constant tensor:
#      x y z
#    x 1.735860 0.000000 0.000000 
#    y 0.000000 1.735860 0.000000 
#    z 0.000000 0.000000 1.761820 
# 
# From -- ./inp_files/6346.got.cif
#   From: 2010.03.12/outbox.cif.g09.slc.cpg/sg136_4_cif.got.tgz:6346.got - 2010.04.06 18:39:43.
