data_PCOD8318799
_publ_section_title
;
Structure prediction by ZEFSAII (Michael W. Deem and Ramdas Pophale) SiO2 
 PCOD8318799
Probable space group: P 42/N M C
;
_chemical_formula_sum "Si O2"
_cell_formula_units_Z 64
_cell_length_a 14.195920
_cell_length_b 14.195920
_cell_length_c 17.955197
_cell_angle_alpha 90.000000
_cell_angle_beta 90.000000
_cell_angle_gamma 90.000000
_cell_volume 3618.405717
_symmetry_space_group_name_H-M "P 42/N M C"
_symmetry_group_IT_number 137
_space_group.IT_coordinate_system_code '2'
_symmetry_cell_setting 'tetragonal'
loop_
_space_group_symop_operation_xyz
x,y,z
1/2-y,x,1/2+z
1/2-x,1/2-y,z
y,1/2-x,1/2+z
1/2+x,-y,-z
-x,1/2+y,-z
1/2+y,1/2+x,1/2-z
-y,-x,1/2-z
-x,-y,-z
1/2+y,-x,1/2-z
1/2+x,1/2+y,-z
-y,1/2+x,1/2-z
1/2-x,y,z
x,1/2-y,z
1/2-y,1/2-x,1/2+z
y,x,1/2+z
loop_
_atom_site_type_symbol
_atom_site_label
_atom_site_fract_x
_atom_site_fract_y
_atom_site_fract_z
Si Si1 0.142491 0.496965 0.551496
Si Si2 0.003405 0.522964 0.163311
Si Si3 0.357597 0.859474 0.074317
Si Si4 0.859467 0.642024 0.578729
O O1 0.250000 0.497884 0.579100
O O2 0.118581 0.589426 0.502921
O O3 0.120891 0.405323 0.501288
O O4 0.078038 0.495841 0.623627
O O5 0.003495 0.503495 0.250000
O O6 0.096167 0.581665 0.141081
O O7 0.909560 0.580761 0.142490
O O8 0.250000 0.890373 0.064711
O O9 0.367859 0.750000 0.095055
O O10 0.750000 0.631314 0.599960
O O11 0.891120 0.750000 0.574071
#
# Coordination Sequence:
#
# PCOD8318799 Si02
#       4
#    16  16  16  16
#     4   9  19  35  52  73  99 128 170 215 246 283
#     4  11  22  32  48  76 108 138 163 196 248 308
#     4   9  18  34  56  77  96 124 165 211 253 293
#     4   9  18  35  57  76  96 128 172 216 252 290
#
# _framework density 17.687346999999999
#
# number of rings (size 3 to 8) (size 9 to 14) (size 15 to 20)
#    0.000    2.500    0.000    5.250    0.000    7.000 
#    0.000    1.250    0.000    3.000    0.000    1.750 
#    0.000    0.000    0.000    0.000    0.000    0.000 
#
# Total GULP energy -793742.322689 kJ/mol
# GULP energy per Si atom -12402.223792 kJ/mol
# Density = 1.764709 g / cm^3
# Si number density = 17.687347 Si / 1000 Ang^3
#
#
#
# Elastic Constant Matrix: (Units=GPa)
#
#
# Indices 1 2 3 4 5 6 
#
# 1 132.3862 57.6848 71.2236 0.0000 0.0000 0.0000
# 2 57.6848 132.3862 71.2236 0.0000 0.0000 0.0000
# 3 71.2236 71.2236 149.8887 0.0000 0.0000 0.0000
# 4 0.0000 0.0000 0.0000 9.2715 0.0000 0.0000
# 5 0.0000 0.0000 0.0000 0.0000 9.2715 0.0000
# 6 0.0000 0.0000 0.0000 0.0000 0.0000 21.5579
#
#
#
# Elastic Compliance Matrix: (Units=1/GPa)
#
#
# Indices 1 2 3 4 5 6 
#
# 1 0.010779 -0.002608 -0.003883 0.000000 0.000000 0.000000
# 2 -0.002608 0.010779 -0.003883 0.000000 0.000000 0.000000
# 3 -0.003883 -0.003883 0.010362 0.000000 0.000000 0.000000
# 4 0.000000 0.000000 0.000000 0.107858 0.000000 0.000000
# 5 0.000000 0.000000 0.000000 0.000000 0.107858 0.000000
# 6 0.000000 0.000000 0.000000 0.000000 0.000000 0.046387
#
#
# Mechanical properties :
#
#
# Convention : Reuss Voigt Hill
#
# Bulk Modulus (GPa) = 89.50248 90.54722 90.02485
# Shear Modulus (GPa) = 15.69897 22.32211 19.01054
#
# Velocity S-wave (km/s) = 2.98246 3.55637 3.28199
# Velocity P-wave (km/s) = 7.91028 8.25640 8.08519
#
# Compressibility (1/GPa) = 0.01117287
#
# Stress axis : x y z
#
# Youngs Moduli (GPa) = 92.77443 92.77443 96.51076
#
# Poissons Ratio (x) = 0.24194 0.37472
# Poissons Ratio (y) = 0.24194 0.37472
# Poissons Ratio (z) = 0.36021 0.36021
#
# Static dielectric constant tensor:
#      x y z
#    x 3.466040 0.000000 0.000000 
#    y 0.000000 3.466040 0.000000 
#    z 0.000000 0.000000 2.873560 
# 
# 
# High freq. dielectric constant tensor:
#      x y z
#    x 1.695550 0.000000 0.000000 
#    y 0.000000 1.695550 0.000000 
#    z 0.000000 0.000000 1.649800 
# 
# From -- ./inp_files/4691.got.cif
#   From: 2010.03.12/outbox.cif.g09.slc.cpg/sg137_3_cif.got.tgz:4691.got - 2010.04.08 09:34:49.
