data_PCOD8318958
_publ_section_title
;
Structure prediction by ZEFSAII (Michael W. Deem and Ramdas Pophale) SiO2 
 PCOD8318958
Probable space group: P 42/N C M
;
_chemical_formula_sum "Si O2"
_cell_formula_units_Z 112
_cell_length_a 32.863668
_cell_length_b 32.863668
_cell_length_c 5.154572
_cell_angle_alpha 90.000000
_cell_angle_beta 90.000000
_cell_angle_gamma 90.000000
_cell_volume 5567.044328
_symmetry_space_group_name_H-M "P 42/N C M"
_symmetry_group_IT_number 138
_space_group.IT_coordinate_system_code '2'
_symmetry_cell_setting 'tetragonal'
loop_
_space_group_symop_operation_xyz
x,y,z
1/2-y,x,1/2+z
1/2-x,1/2-y,z
y,1/2-x,1/2+z
1/2+x,-y,1/2-z
-x,1/2+y,1/2-z
1/2+y,1/2+x,-z
-y,-x,-z
-x,-y,-z
1/2+y,-x,1/2-z
1/2+x,1/2+y,-z
-y,1/2+x,1/2-z
1/2-x,y,1/2+z
x,1/2-y,1/2+z
1/2-y,1/2-x,z
y,x,z
loop_
_atom_site_type_symbol
_atom_site_label
_atom_site_fract_x
_atom_site_fract_y
_atom_site_fract_z
Si Si1 0.056391 0.375821 0.989042
Si Si2 0.332519 0.728320 0.936700
Si Si3 0.226980 0.571734 0.534804
Si Si4 0.632257 0.431209 0.959689
Si Si5 0.032287 0.904802 0.460160
Si Si6 0.411229 0.157265 0.488788
Si Si7 0.722933 0.654887 0.033317
O O1 0.093439 0.406562 0.987965
O O2 0.059424 0.346813 0.737749
O O3 0.059696 0.346400 0.238129
O O4 0.015537 0.402448 0.986700
O O5 0.315321 0.741544 0.658100
O O6 0.317153 0.682848 0.000000
O O7 0.380393 0.730052 0.945416
O O8 0.246590 0.553391 0.797225
O O9 0.179815 0.561975 0.493262
O O10 0.623847 0.444078 0.663732
O O11 0.615198 0.384802 0.000000
O O12 0.609030 0.459718 0.165469
O O13 0.048910 0.951091 0.500000
O O14 0.378171 0.121830 0.485414
O O15 0.388550 0.200560 0.492558
O O16 0.742251 0.658229 0.317756
O O17 0.691607 0.691607 0.994174
#
# Coordination Sequence:
#
# PCOD8318958 Si02
#       7
#    16  16  16  16  16  16  16
#     4  10  19  35  59  83 111 144 178 220 266 319
#     4  10  20  31  44  64  88 115 149 187 232 286
#     4  10  20  34  53  73  93 124 169 216 252 289
#     4  10  20  36  56  77 107 143 176 215 266 326
#     4  10  21  35  56  86 112 139 173 212 269 335
#     4   9  19  35  56  80 106 148 195 225 264 326
#     4  11  22  36  56  83 117 155 199 252 303 354
#
# _framework density 20.118393999999999
#
# number of rings (size 3 to 8) (size 9 to 14) (size 15 to 20)
#    0.000    2.000    0.000    3.857    0.000    4.286 
#    0.000    4.286    0.000   22.286    0.000    0.000 
#    0.000    0.000    0.000    0.000    0.000    0.000 
#
# Total GULP energy -1388446.207730 kJ/mol
# GULP energy per Si atom -12396.841140 kJ/mol
# Density = 2.007260 g / cm^3
# Si number density = 20.118394 Si / 1000 Ang^3
#
#
#
# Elastic Constant Matrix: (Units=GPa)
#
#
# Indices 1 2 3 4 5 6 
#
# 1 75.2842 9.6871 24.9473 0.0000 0.0000 0.0000
# 2 9.6871 75.2853 24.9477 0.0000 0.0000 0.0000
# 3 24.9473 24.9477 131.1098 0.0000 0.0000 0.0000
# 4 0.0000 0.0000 0.0000 25.3235 0.0000 0.0000
# 5 0.0000 0.0000 0.0000 0.0000 25.3223 0.0000
# 6 0.0000 0.0000 0.0000 0.0000 0.0000 21.9760
#
#
#
# Elastic Compliance Matrix: (Units=1/GPa)
#
#
# Indices 1 2 3 4 5 6 
#
# 1 0.014247 -0.000998 -0.002521 0.000000 0.000000 0.000000
# 2 -0.000998 0.014247 -0.002521 0.000000 0.000000 0.000000
# 3 -0.002521 -0.002521 0.008587 0.000000 0.000000 0.000000
# 4 0.000000 0.000000 0.000000 0.039489 0.000000 0.000000
# 5 0.000000 0.000000 0.000000 0.000000 0.039491 0.000000
# 6 0.000000 0.000000 0.000000 0.000000 0.000000 0.045504
#
#
# Mechanical properties :
#
#
# Convention : Reuss Voigt Hill
#
# Bulk Modulus (GPa) = 39.99931 44.53817 42.26874
# Shear Modulus (GPa) = 27.47601 29.33085 28.40343
#
# Velocity S-wave (km/s) = 3.69957 3.82240 3.76149
# Velocity P-wave (km/s) = 6.17853 6.45501 6.31828
#
# Compressibility (1/GPa) = 0.02500043
#
# Stress axis : x y z
#
# Youngs Moduli (GPa) = 70.19134 70.19224 116.46081
#
# Poissons Ratio (x) = 0.07004 0.29360
# Poissons Ratio (y) = 0.07003 0.29360
# Poissons Ratio (z) = 0.17695 0.17696
#
# Static dielectric constant tensor:
#      x y z
#    x 3.431280 0.000000 0.000000 
#    y 0.000000 3.431230 0.000000 
#    z 0.000000 0.000000 4.055210 
# 
# 
# High freq. dielectric constant tensor:
#      x y z
#    x 1.764050 0.000000 0.000000 
#    y 0.000000 1.764050 0.000000 
#    z 0.000000 0.000000 1.810500 
# 
# From -- ./inp_files/547.got.cif
#   From: 2010.03.12/outbox.cif.g09.slc.cpg/sg138_1_cif.got.tgz:547.got - 2010.04.08 09:41:05.
