data_PCOD8318301
_publ_section_title
;
Structure prediction by ZEFSAII (Michael W. Deem and Ramdas Pophale) SiO2 
 PCOD8318301
Probable space group: P 42/M N M
;
_chemical_formula_sum "Si O2"
_cell_formula_units_Z 64
_cell_length_a 23.436416
_cell_length_b 23.436416
_cell_length_c 7.806894
_cell_angle_alpha 90.000000
_cell_angle_beta 90.000000
_cell_angle_gamma 90.000000
_cell_volume 4288.058277
_symmetry_space_group_name_H-M "P 42/M N M"
_symmetry_group_IT_number 136
_symmetry_cell_setting 'tetragonal'
loop_
_space_group_symop_operation_xyz
x,y,z
1/2-y,1/2+x,1/2+z
-x,-y,z
1/2+y,1/2-x,1/2+z
1/2+x,1/2-y,1/2-z
1/2-x,1/2+y,1/2-z
y,x,-z
-y,-x,-z
-x,-y,-z
1/2+y,1/2-x,1/2-z
x,y,-z
1/2-y,1/2+x,1/2-z
1/2-x,1/2+y,1/2+z
1/2+x,1/2-y,1/2+z
-y,-x,z
y,x,z
loop_
_atom_site_type_symbol
_atom_site_label
_atom_site_fract_x
_atom_site_fract_y
_atom_site_fract_z
Si Si1 0.361767 0.542663 0.500000
Si Si2 0.859386 0.045467 0.300594
Si Si3 0.814191 0.718336 0.313976
Si Si4 0.730166 0.634398 0.809984
Si Si5 0.730021 0.366221 0.500000
O O1 0.411348 0.588652 0.500000
O O2 0.368296 0.507310 0.325295
O O3 0.299839 0.572409 0.500000
O O4 0.855704 0.025667 0.500000
O O5 0.912668 0.087333 0.276893
O O6 0.800386 0.076778 0.242484
O O7 0.844223 0.721842 0.500000
O O8 0.765498 0.765498 0.296138
O O9 0.784168 0.655891 0.300318
O O10 0.861062 0.729587 0.167504
O O11 0.682314 0.682314 0.814598
O O12 0.753752 0.623798 0.000000
O O13 0.683151 0.316850 0.500000
#
# Coordination Sequence:
#
# PCOD8318301 Si02
#       5
#     8  16  16  16   8
#     4  11  23  34  45  58  82 124 163 191 217 256
#     4   9  19  33  47  64  83 108 149 200 240 262
#     4   9  15  23  40  63  82 102 127 164 214 266
#     4   8  13  24  42  63  86 102 122 172 230 269
#     4   9  18  31  40  55  84 112 142 174 206 259
#
# _framework density 14.925171000000001
#
# number of rings (size 3 to 8) (size 9 to 14) (size 15 to 20)
#    0.000    3.000    1.250    1.875    1.750    2.500 
#    0.000    3.750    0.000    0.000    0.000    0.000 
#    0.000    0.000    0.000    0.000    0.000    3.750 
#
# Total GULP energy -792869.763308 kJ/mol
# GULP energy per Si atom -12388.590052 kJ/mol
# Density = 1.489120 g / cm^3
# Si number density = 14.925171 Si / 1000 Ang^3
#
#
#
# Elastic Constant Matrix: (Units=GPa)
#
#
# Indices 1 2 3 4 5 6 
#
# 1 43.4000 43.5786 43.9134 0.0000 0.0000 0.0000
# 2 43.5786 43.4015 43.9146 0.0000 0.0000 0.0000
# 3 43.9134 43.9146 120.1263 0.0000 0.0000 0.0000
# 4 0.0000 0.0000 0.0000 12.9472 0.0000 0.0000
# 5 0.0000 0.0000 0.0000 0.0000 12.9468 0.0000
# 6 0.0000 0.0000 0.0000 0.0000 0.0000 19.1022
#
#
#
# Elastic Compliance Matrix: (Units=1/GPa)
#
#
# Indices 1 2 3 4 5 6 
#
# 1 -2.802741 2.820932 -0.006678 0.000000 0.000000 0.000000
# 2 2.820932 -2.802675 -0.006646 0.000000 0.000000 0.000000
# 3 -0.006678 -0.006646 0.013195 0.000000 0.000000 0.000000
# 4 0.000000 0.000000 0.000000 0.077237 0.000000 0.000000
# 5 0.000000 0.000000 0.000000 0.000000 0.077239 0.000000
# 6 0.000000 0.000000 0.000000 0.000000 0.000000 0.052350
#
#
# Mechanical properties :
#
#
# Convention : Reuss Voigt Hill
#
# Bulk Modulus (GPa) = 43.48733 52.19345 47.84039
# Shear Modulus (GPa) = -0.45484 14.03400 6.78958
#
# Velocity S-wave (km/s) = -0.55264 3.06974 2.13517
# Velocity P-wave (km/s) = 5.36591 6.90003 6.18075
#
# Compressibility (1/GPa) = 0.02299520
#
# Stress axis : x y z
#
# Youngs Moduli (GPa) = -0.35679 -0.35680 75.78386
#
# Poissons Ratio (x) = 1.00651 0.50606
# Poissons Ratio (y) = 1.00649 0.50370
# Poissons Ratio (z) = -0.00238 -0.00237
#
# Static dielectric constant tensor:
#      x y z
#    x 2.678640 0.000000 0.000000 
#    y 0.000000 2.678640 0.000000 
#    z 0.000000 0.000000 3.068670 
# 
# 
# High freq. dielectric constant tensor:
#      x y z
#    x 1.528660 0.000000 0.000000 
#    y 0.000000 1.528660 0.000000 
#    z 0.000000 0.000000 1.589010 
# 
# From -- ./inp_files/1471.got.cif
#   From: 2010.03.12/outbox.cif.g09.slc.cpg/sg136_1_cif.got.tgz:1471.got - 2010.04.06 18:39:43.
