data_PCOD8318209
_publ_section_title
;
Structure prediction by ZEFSAII (Michael W. Deem and Ramdas Pophale) SiO2 
 PCOD8318209
Probable space group: P 42/M N M
;
_chemical_formula_sum "Si O2"
_cell_formula_units_Z 72
_cell_length_a 21.037692
_cell_length_b 21.037692
_cell_length_c 8.724636
_cell_angle_alpha 90.000000
_cell_angle_beta 90.000000
_cell_angle_gamma 90.000000
_cell_volume 3861.388528
_symmetry_space_group_name_H-M "P 42/M N M"
_symmetry_group_IT_number 136
_symmetry_cell_setting 'tetragonal'
loop_
_space_group_symop_operation_xyz
x,y,z
1/2-y,1/2+x,1/2+z
-x,-y,z
1/2+y,1/2-x,1/2+z
1/2+x,1/2-y,1/2-z
1/2-x,1/2+y,1/2-z
y,x,-z
-y,-x,-z
-x,-y,-z
1/2+y,1/2-x,1/2-z
x,y,-z
1/2-y,1/2+x,1/2-z
1/2-x,1/2+y,1/2+z
1/2+x,1/2-y,1/2+z
-y,-x,z
y,x,z
loop_
_atom_site_type_symbol
_atom_site_label
_atom_site_fract_x
_atom_site_fract_y
_atom_site_fract_z
Si Si1 0.948129 0.051872 0.818523
Si Si2 0.615760 0.283566 0.673628
Si Si3 0.357702 0.099018 0.825836
Si Si4 0.315591 0.960645 0.178821
Si Si5 0.814567 0.012841 0.678639
O O1 0.877763 0.035787 0.762343
O O2 0.948676 0.051325 0.000000
O O3 0.000000 0.000000 0.757149
O O4 0.591972 0.297734 0.500000
O O5 0.679406 0.320595 0.715267
O O6 0.633698 0.209934 0.690035
O O7 0.561599 0.305341 0.790016
O O8 0.405418 0.134902 0.714449
O O9 0.349018 0.026407 0.770322
O O10 0.383430 0.102123 0.000000
O O11 0.248324 0.949706 0.263743
O O12 0.300096 0.963259 0.000000
O O13 0.822864 0.025645 0.500000
#
# Coordination Sequence:
#
# PCOD8318209 Si02
#       5
#     8  16  16  16  16
#     4  11  23  39  59  83 113 151 191 229 277 336
#     4   9  18  35  57  80 109 147 185 224 274 329
#     4   9  19  35  55  80 109 144 186 231 277 331
#     4  10  21  38  58  80 111 148 184 228 283 336
#     4  11  22  36  56  82 113 146 182 231 278 325
#
# _framework density 18.646142999999999
#
# number of rings (size 3 to 8) (size 9 to 14) (size 15 to 20)
#    0.000    2.111    0.000    5.000    0.000    8.889 
#    2.000    2.222    0.000    0.000    0.000    0.000 
#    0.000    0.000    0.000    0.000    0.000    0.000 
#
# Total GULP energy -892822.837521 kJ/mol
# GULP energy per Si atom -12400.317188 kJ/mol
# Density = 1.860370 g / cm^3
# Si number density = 18.646143 Si / 1000 Ang^3
#
#
#
# Elastic Constant Matrix: (Units=GPa)
#
#
# Indices 1 2 3 4 5 6 
#
# 1 100.1733 68.3187 32.5761 0.0000 0.0000 0.0000
# 2 68.3187 100.1735 32.5761 0.0000 0.0000 0.0000
# 3 32.5761 32.5761 71.8023 0.0000 0.0000 0.0000
# 4 0.0000 0.0000 0.0000 31.0646 0.0000 0.0000
# 5 0.0000 0.0000 0.0000 0.0000 31.0645 0.0000
# 6 0.0000 0.0000 0.0000 0.0000 0.0000 35.6942
#
#
#
# Elastic Compliance Matrix: (Units=1/GPa)
#
#
# Indices 1 2 3 4 5 6 
#
# 1 0.019295 -0.012097 -0.003266 0.000000 0.000000 0.000000
# 2 -0.012097 0.019295 -0.003266 0.000000 0.000000 0.000000
# 3 -0.003266 -0.003266 0.016890 0.000000 0.000000 0.000000
# 4 0.000000 0.000000 0.000000 0.032191 0.000000 0.000000
# 5 0.000000 0.000000 0.000000 0.000000 0.032191 0.000000
# 6 0.000000 0.000000 0.000000 0.000000 0.000000 0.028016
#
#
# Mechanical properties :
#
#
# Convention : Reuss Voigt Hill
#
# Bulk Modulus (GPa) = 54.87427 59.89901 57.38664
# Shear Modulus (GPa) = 26.14930 28.80989 27.47959
#
# Velocity S-wave (km/s) = 3.74892 3.93502 3.84310
# Velocity P-wave (km/s) = 6.94495 7.26909 7.10887
#
# Compressibility (1/GPa) = 0.01822348
#
# Stress axis : x y z
#
# Youngs Moduli (GPa) = 51.82652 51.82659 59.20588
#
# Poissons Ratio (x) = 0.62697 0.19334
# Poissons Ratio (y) = 0.62697 0.19334
# Poissons Ratio (z) = 0.16924 0.16924
#
# Static dielectric constant tensor:
#      x y z
#    x 3.448490 0.000000 0.000000 
#    y 0.000000 3.448500 0.000000 
#    z 0.000000 0.000000 3.370200 
# 
# 
# High freq. dielectric constant tensor:
#      x y z
#    x 1.723360 0.000000 0.000000 
#    y 0.000000 1.723360 0.000000 
#    z 0.000000 0.000000 1.724130 
# 
# From -- ./inp_files/1578.got.cif
#   From: 2010.03.12/outbox.cif.g09.slc.cpg/sg136_1_cif.got.tgz:1578.got - 2010.04.06 18:39:43.
