data_PCOD8318232
_publ_section_title
;
Structure prediction by ZEFSAII (Michael W. Deem and Ramdas Pophale) SiO2 
 PCOD8318232
Probable space group: P 42/M N M
;
_chemical_formula_sum "Si O2"
_cell_formula_units_Z 112
_cell_length_a 14.564184
_cell_length_b 14.564184
_cell_length_c 28.107970
_cell_angle_alpha 90.000000
_cell_angle_beta 90.000000
_cell_angle_gamma 90.000000
_cell_volume 5962.134862
_symmetry_space_group_name_H-M "P 42/M N M"
_symmetry_group_IT_number 136
_symmetry_cell_setting 'tetragonal'
loop_
_space_group_symop_operation_xyz
x,y,z
1/2-y,1/2+x,1/2+z
-x,-y,z
1/2+y,1/2-x,1/2+z
1/2+x,1/2-y,1/2-z
1/2-x,1/2+y,1/2-z
y,x,-z
-y,-x,-z
-x,-y,-z
1/2+y,1/2-x,1/2-z
x,y,-z
1/2-y,1/2+x,1/2-z
1/2-x,1/2+y,1/2+z
1/2+x,1/2-y,1/2+z
-y,-x,z
y,x,z
loop_
_atom_site_type_symbol
_atom_site_label
_atom_site_fract_x
_atom_site_fract_y
_atom_site_fract_z
Si Si1 0.219855 0.936059 0.384988
Si Si2 0.666974 0.182264 0.448431
Si Si3 0.234038 0.375577 0.389985
Si Si4 0.641320 0.030533 0.194100
Si Si5 0.475578 0.669069 0.443830
Si Si6 0.461482 0.150513 0.801517
Si Si7 0.104937 0.256501 0.553596
O O1 0.129327 0.870673 0.384953
O O2 0.310150 0.895107 0.410414
O O3 0.254966 0.954540 0.331501
O O4 0.202242 0.029196 0.414579
O O5 0.642936 0.138319 0.500000
O O6 0.756005 0.243995 0.455051
O O7 0.583212 0.241932 0.429209
O O8 0.281076 0.281076 0.372007
O O9 0.214480 0.439893 0.345055
O O10 0.312510 0.426072 0.421157
O O11 0.141949 0.349682 0.420322
O O12 0.682641 0.044057 0.246803
O O13 0.555057 0.097391 0.187961
O O14 0.618460 0.922937 0.186709
O O15 0.486205 0.660697 0.500000
O O16 0.423982 0.576019 0.425444
O O17 0.067867 0.279522 0.500000
O O18 0.190626 0.190626 0.548002
#
# Coordination Sequence:
#
# PCOD8318232 Si02
#       7
#    16  16  16  16  16  16  16
#     4  11  20  32  54  80 107 138 181 231 275 323
#     4   8  15  28  46  71 103 134 164 208 265 315
#     4  11  21  34  54  77 107 145 185 228 269 318
#     4   9  18  35  57  79 108 139 171 217 275 331
#     4   9  18  33  52  76 108 142 175 213 264 326
#     4   9  18  34  57  82 106 135 173 222 275 331
#     4  10  22  38  53  74 108 149 192 232 270 319
#
# _framework density 18.785215999999998
#
# number of rings (size 3 to 8) (size 9 to 14) (size 15 to 20)
#    0.000    2.429    1.429    3.429    0.000    2.857 
#    0.000    1.429    0.000    5.143    0.000    2.000 
#    0.000    0.000    0.000    0.000    0.000    0.000 
#
# Total GULP energy -1387751.893363 kJ/mol
# GULP energy per Si atom -12390.641905 kJ/mol
# Density = 1.874246 g / cm^3
# Si number density = 18.785216 Si / 1000 Ang^3
#
#
#
# Elastic Constant Matrix: (Units=GPa)
#
#
# Indices 1 2 3 4 5 6 
#
# 1 49.4934 28.2409 33.0905 0.0000 0.0000 0.0000
# 2 28.2409 49.4934 33.0905 0.0000 0.0000 0.0000
# 3 33.0905 33.0905 102.6964 0.0000 0.0000 0.0000
# 4 0.0000 0.0000 0.0000 26.4781 0.0000 0.0000
# 5 0.0000 0.0000 0.0000 0.0000 26.4781 0.0000
# 6 0.0000 0.0000 0.0000 0.0000 0.0000 31.9591
#
#
#
# Elastic Compliance Matrix: (Units=1/GPa)
#
#
# Indices 1 2 3 4 5 6 
#
# 1 0.032390 -0.014663 -0.005712 0.000000 0.000000 0.000000
# 2 -0.014663 0.032390 -0.005712 0.000000 0.000000 0.000000
# 3 -0.005712 -0.005712 0.013419 0.000000 0.000000 0.000000
# 4 0.000000 0.000000 0.000000 0.037767 0.000000 0.000000
# 5 0.000000 0.000000 0.000000 0.000000 0.037767 0.000000
# 6 0.000000 0.000000 0.000000 0.000000 0.000000 0.031290
#
#
# Mechanical properties :
#
#
# Convention : Reuss Voigt Hill
#
# Bulk Modulus (GPa) = 38.42448 43.39189 40.90818
# Shear Modulus (GPa) = 20.33572 24.13379 22.23476
#
# Velocity S-wave (km/s) = 3.29376 3.58819 3.44413
# Velocity P-wave (km/s) = 5.91306 6.34948 6.13515
#
# Compressibility (1/GPa) = 0.02602508
#
# Stress axis : x y z
#
# Youngs Moduli (GPa) = 30.87334 30.87334 74.52397
#
# Poissons Ratio (x) = 0.45269 0.42569
# Poissons Ratio (y) = 0.45269 0.42569
# Poissons Ratio (z) = 0.17635 0.17635
#
# Static dielectric constant tensor:
#      x y z
#    x 3.371330 0.000000 0.000000 
#    y 0.000000 3.371330 0.000000 
#    z 0.000000 0.000000 3.748150 
# 
# 
# High freq. dielectric constant tensor:
#      x y z
#    x 1.714620 0.000000 0.000000 
#    y 0.000000 1.714620 0.000000 
#    z 0.000000 0.000000 1.727540 
# 
# From -- ./inp_files/9939.got.cif
#   From: 2010.03.12/outbox.cif.g09.slc.cpg/sg136_5_cif.got.tgz:9939.got - 2010.04.06 18:39:43.
