data_PCOD8318337
_publ_section_title
;
Structure prediction by ZEFSAII (Michael W. Deem and Ramdas Pophale) SiO2 
 PCOD8318337
Probable space group: P 42/M N M
;
_chemical_formula_sum "Si O2"
_cell_formula_units_Z 72
_cell_length_a 21.114495
_cell_length_b 21.114495
_cell_length_c 9.818841
_cell_angle_alpha 90.000000
_cell_angle_beta 90.000000
_cell_angle_gamma 90.000000
_cell_volume 4377.454342
_symmetry_space_group_name_H-M "P 42/M N M"
_symmetry_group_IT_number 136
_symmetry_cell_setting 'tetragonal'
loop_
_space_group_symop_operation_xyz
x,y,z
1/2-y,1/2+x,1/2+z
-x,-y,z
1/2+y,1/2-x,1/2+z
1/2+x,1/2-y,1/2-z
1/2-x,1/2+y,1/2-z
y,x,-z
-y,-x,-z
-x,-y,-z
1/2+y,1/2-x,1/2-z
x,y,-z
1/2-y,1/2+x,1/2-z
1/2-x,1/2+y,1/2+z
1/2+x,1/2-y,1/2+z
-y,-x,z
y,x,z
loop_
_atom_site_type_symbol
_atom_site_label
_atom_site_fract_x
_atom_site_fract_y
_atom_site_fract_z
Si Si1 0.040612 0.325971 0.655448
Si Si2 0.871801 0.226093 0.661989
Si Si3 0.688105 0.492966 0.161691
Si Si4 0.636768 0.104437 0.344817
Si Si5 0.948109 0.948109 0.662494
O O1 0.063945 0.332074 0.500000
O O2 0.045745 0.251982 0.702748
O O3 0.081646 0.371232 0.749203
O O4 0.970043 0.352353 0.669355
O O5 0.875942 0.222170 0.500000
O O6 0.813022 0.186979 0.721740
O O7 0.861631 0.298707 0.704652
O O8 0.936252 0.195761 0.721373
O O9 0.622451 0.463943 0.219415
O O10 0.684313 0.495477 0.000000
O O11 0.619646 0.122135 0.500000
O O12 0.948228 0.948228 0.500000
O O13 0.000000 0.000000 0.714085
#
# Coordination Sequence:
#
# PCOD8318337 Si02
#       5
#    16  16  16  16   8
#     4   9  18  32  46  63  91 120 145 181 230 269
#     4   8  13  24  42  61  82 111 147 183 214 247
#     4   8  14  24  38  59  89 119 143 175 220 262
#     4   9  18  31  47  66  87 115 150 185 220 264
#     4   9  14  20  36  64  93 121 151 177 211 268
#
# _framework density 16.447915999999999
#
# number of rings (size 3 to 8) (size 9 to 14) (size 15 to 20)
#    0.000    3.444    0.000    3.333    0.000    4.000 
#    2.000    2.222    0.000    0.000    0.000    0.000 
#    0.000    3.556    0.000    0.000    0.000    0.444 
#
# Total GULP energy -892070.431960 kJ/mol
# GULP energy per Si atom -12389.867111 kJ/mol
# Density = 1.641048 g / cm^3
# Si number density = 16.447916 Si / 1000 Ang^3
#
#
#
# Elastic Constant Matrix: (Units=GPa)
#
#
# Indices 1 2 3 4 5 6 
#
# 1 82.3681 57.6867 36.7961 0.0000 0.0000 0.0000
# 2 57.6867 82.3681 36.7961 0.0000 0.0000 0.0000
# 3 36.7961 36.7961 37.1653 0.0000 0.0000 0.0000
# 4 0.0000 0.0000 0.0000 14.4530 0.0000 0.0000
# 5 0.0000 0.0000 0.0000 0.0000 14.4530 0.0000
# 6 0.0000 0.0000 0.0000 0.0000 0.0000 32.1428
#
#
#
# Elastic Compliance Matrix: (Units=1/GPa)
#
#
# Indices 1 2 3 4 5 6 
#
# 1 0.027699 -0.012817 -0.014735 0.000000 0.000000 0.000000
# 2 -0.012817 0.027699 -0.014735 0.000000 0.000000 0.000000
# 3 -0.014735 -0.014735 0.056083 0.000000 0.000000 0.000000
# 4 0.000000 0.000000 0.000000 0.069190 0.000000 0.000000
# 5 0.000000 0.000000 0.000000 0.000000 0.069190 0.000000
# 6 0.000000 0.000000 0.000000 0.000000 0.000000 0.031111
#
#
# Mechanical properties :
#
#
# Convention : Reuss Voigt Hill
#
# Bulk Modulus (GPa) = 37.16123 51.60661 44.38392
# Shear Modulus (GPa) = 13.35062 16.91795 15.13428
#
# Velocity S-wave (km/s) = 2.85211 3.21062 3.03666
# Velocity P-wave (km/s) = 5.78691 6.72220 6.27202
#
# Compressibility (1/GPa) = 0.02690977
#
# Stress axis : x y z
#
# Youngs Moduli (GPa) = 36.10192 36.10192 17.83065
#
# Poissons Ratio (x) = 0.46272 0.26273
# Poissons Ratio (y) = 0.46272 0.26273
# Poissons Ratio (z) = 0.53195 0.53195
#
# Static dielectric constant tensor:
#      x y z
#    x 3.293530 0.000000 0.000000 
#    y 0.000000 3.293530 0.000000 
#    z 0.000000 0.000000 2.545920 
# 
# 
# High freq. dielectric constant tensor:
#      x y z
#    x 1.638250 0.000000 0.000000 
#    y 0.000000 1.638250 0.000000 
#    z 0.000000 0.000000 1.568910 
# 
# From -- ./inp_files/1529.got.cif
#   From: 2010.03.12/outbox.cif.g09.slc.cpg/sg136_1_cif.got.tgz:1529.got - 2010.04.06 18:39:43.
