data_PCOD8318592
_publ_section_title
;
Structure prediction by ZEFSAII (Michael W. Deem and Ramdas Pophale) SiO2 
 PCOD8318592
Probable space group: P 42/N M C
;
_chemical_formula_sum "Si O2"
_cell_formula_units_Z 112
_cell_length_a 14.371629
_cell_length_b 14.371629
_cell_length_c 31.139821
_cell_angle_alpha 90.000000
_cell_angle_beta 90.000000
_cell_angle_gamma 90.000000
_cell_volume 6431.734473
_symmetry_space_group_name_H-M "P 42/N M C"
_symmetry_group_IT_number 137
_space_group.IT_coordinate_system_code '2'
_symmetry_cell_setting 'tetragonal'
loop_
_space_group_symop_operation_xyz
x,y,z
1/2-y,x,1/2+z
1/2-x,1/2-y,z
y,1/2-x,1/2+z
1/2+x,-y,-z
-x,1/2+y,-z
1/2+y,1/2+x,1/2-z
-y,-x,1/2-z
-x,-y,-z
1/2+y,-x,1/2-z
1/2+x,1/2+y,-z
-y,1/2+x,1/2-z
1/2-x,y,z
x,1/2-y,z
1/2-y,1/2-x,1/2+z
y,x,1/2+z
loop_
_atom_site_type_symbol
_atom_site_label
_atom_site_fract_x
_atom_site_fract_y
_atom_site_fract_z
Si Si1 0.644393 0.541253 0.334943
Si Si2 0.542530 0.964570 0.678524
Si Si3 0.855065 0.645182 0.249166
Si Si4 0.860231 0.854491 0.418754
Si Si5 0.639038 0.643527 0.103435
Si Si6 0.854952 0.143393 0.800581
Si Si7 0.146954 0.139835 0.989008
O O1 0.750000 0.500618 0.338381
O O2 0.570307 0.461566 0.322033
O O3 0.641701 0.622501 0.299511
O O4 0.605532 0.581299 0.379942
O O5 0.575649 0.920674 0.723258
O O6 0.578390 0.905040 0.638916
O O7 0.578223 0.071128 0.674928
O O8 0.750000 0.636124 0.231542
O O9 0.892049 0.750000 0.242524
O O10 0.750000 0.847902 0.415664
O O11 0.901362 0.750000 0.414376
O O12 0.889849 0.900380 0.465339
O O13 0.750000 0.633470 0.104284
O O14 0.610287 0.750000 0.113122
O O15 0.599688 0.609636 0.056306
O O16 0.868579 0.131422 0.750000
O O17 0.750000 0.113331 0.813626
O O18 0.872469 0.250000 0.814133
O O19 0.250000 0.096814 0.990537
O O20 0.154792 0.250000 0.986957
#
# Coordination Sequence:
#
# PCOD8318592 Si02
#       7
#    16  16  16  16  16  16  16
#     4  10  21  33  44  64  95 128 161 195 229 269
#     4  12  21  30  47  69  94 129 160 187 228 278
#     4  10  20  34  53  75  95 115 146 194 247 289
#     4   8  13  25  46  67  88 118 154 192 236 278
#     4   9  17  30  49  74  99 118 145 191 242 287
#     4   9  18  31  45  63  90 124 159 190 221 269
#     4   7  11  22  43  69  93 116 142 181 238 290
#
# _framework density 17.413654000000001
#
# number of rings (size 3 to 8) (size 9 to 14) (size 15 to 20)
#    0.000    2.714    0.000    5.571    0.000    5.143 
#    0.000    0.714    0.000    1.714    0.000    4.000 
#    0.000    0.000    0.000   14.857    0.000    2.714 
#
# Total GULP energy -1387494.723418 kJ/mol
# GULP energy per Si atom -12388.345745 kJ/mol
# Density = 1.737402 g / cm^3
# Si number density = 17.413654 Si / 1000 Ang^3
#
#
#
# Elastic Constant Matrix: (Units=GPa)
#
#
# Indices 1 2 3 4 5 6 
#
# 1 64.4845 30.1673 26.5536 0.0000 0.0000 0.0000
# 2 30.1673 64.4846 26.5536 0.0000 0.0000 0.0000
# 3 26.5536 26.5536 101.2808 0.0000 0.0000 0.0000
# 4 0.0000 0.0000 0.0000 11.7473 0.0000 0.0000
# 5 0.0000 0.0000 0.0000 0.0000 11.7472 0.0000
# 6 0.0000 0.0000 0.0000 0.0000 0.0000 16.7224
#
#
#
# Elastic Compliance Matrix: (Units=1/GPa)
#
#
# Indices 1 2 3 4 5 6 
#
# 1 0.020764 -0.008376 -0.003248 0.000000 0.000000 0.000000
# 2 -0.008376 0.020764 -0.003248 0.000000 0.000000 0.000000
# 3 -0.003248 -0.003248 0.011576 0.000000 0.000000 0.000000
# 4 0.000000 0.000000 0.000000 0.085126 0.000000 0.000000
# 5 0.000000 0.000000 0.000000 0.000000 0.085126 0.000000
# 6 0.000000 0.000000 0.000000 0.000000 0.000000 0.059800
#
#
# Mechanical properties :
#
#
# Convention : Reuss Voigt Hill
#
# Bulk Modulus (GPa) = 42.80768 44.08876 43.44822
# Shear Modulus (GPa) = 15.59155 17.84173 16.71664
#
# Velocity S-wave (km/s) = 2.99551 3.20438 3.10170
# Velocity P-wave (km/s) = 6.04982 6.25014 6.15079
#
# Compressibility (1/GPa) = 0.02336029
#
# Stress axis : x y z
#
# Youngs Moduli (GPa) = 48.16133 48.16142 86.38207
#
# Poissons Ratio (x) = 0.40341 0.28054
# Poissons Ratio (y) = 0.40341 0.28054
# Poissons Ratio (z) = 0.15641 0.15641
#
# Static dielectric constant tensor:
#      x y z
#    x 3.036420 0.000000 0.000000 
#    y 0.000000 3.036420 0.000000 
#    z 0.000000 0.000000 3.665040 
# 
# 
# High freq. dielectric constant tensor:
#      x y z
#    x 1.638570 0.000000 0.000000 
#    y 0.000000 1.638570 0.000000 
#    z 0.000000 0.000000 1.686140 
# 
# From -- ./inp_files/10668.got.cif
#   From: 2010.03.12/outbox.cif.g09.slc.cpg/sg137_6_cif.got.tgz:10668.got - 2010.04.08 09:34:49.
