data_PCOD8318014
_publ_section_title
;
Structure prediction by ZEFSAII (Michael W. Deem and Ramdas Pophale) SiO2 
 PCOD8318014
Probable space group: P 42/M N M
;
_chemical_formula_sum "Si O2"
_cell_formula_units_Z 112
_cell_length_a 15.236057
_cell_length_b 15.236057
_cell_length_c 23.947000
_cell_angle_alpha 90.000000
_cell_angle_beta 90.000000
_cell_angle_gamma 90.000000
_cell_volume 5558.995106
_symmetry_space_group_name_H-M "P 42/M N M"
_symmetry_group_IT_number 136
_symmetry_cell_setting 'tetragonal'
loop_
_space_group_symop_operation_xyz
x,y,z
1/2-y,1/2+x,1/2+z
-x,-y,z
1/2+y,1/2-x,1/2+z
1/2+x,1/2-y,1/2-z
1/2-x,1/2+y,1/2-z
y,x,-z
-y,-x,-z
-x,-y,-z
1/2+y,1/2-x,1/2-z
x,y,-z
1/2-y,1/2+x,1/2-z
1/2-x,1/2+y,1/2+z
1/2+x,1/2-y,1/2+z
-y,-x,z
y,x,z
loop_
_atom_site_type_symbol
_atom_site_label
_atom_site_fract_x
_atom_site_fract_y
_atom_site_fract_z
Si Si1 0.499261 0.361382 0.262811
Si Si2 0.727511 0.869861 0.356880
Si Si3 0.680187 0.541292 0.858318
Si Si4 0.612678 0.919224 0.252271
Si Si5 0.117669 0.736676 0.938103
Si Si6 0.305164 0.551627 0.379380
Si Si7 0.685297 0.177871 0.349757
O O1 0.582385 0.417616 0.240899
O O2 0.425059 0.425059 0.288639
O O3 0.461935 0.310399 0.209332
O O4 0.528049 0.297656 0.313120
O O5 0.783252 0.783252 0.342490
O O6 0.683974 0.907632 0.300990
O O7 0.648951 0.845466 0.399958
O O8 0.794927 0.944491 0.381969
O O9 0.582401 0.582401 0.873462
O O10 0.754048 0.607504 0.882285
O O11 0.516953 0.889721 0.273258
O O12 0.629981 0.857978 0.200889
O O13 0.198085 0.801916 0.941922
O O14 0.035047 0.792308 0.915519
O O15 0.094692 0.700901 0.000000
O O16 0.398515 0.601486 0.392012
O O17 0.222514 0.615400 0.392146
O O18 0.744799 0.255202 0.324374
#
# Coordination Sequence:
#
# PCOD8318014 Si02
#       7
#    16  16  16  16  16  16  16
#     4   9  17  29  46  73 111 148 180 216 262 322
#     4  11  22  37  58  81 113 152 190 235 291 346
#     4  10  20  34  53  80 116 154 191 232 276 335
#     4  11  21  33  50  80 116 156 192 226 265 331
#     4  10  23  41  61  86 112 141 184 243 301 350
#     4  10  20  35  56  81 112 153 193 229 277 340
#     4  10  20  33  49  75 114 150 186 229 269 323
#
# _framework density 20.147525999999999
#
# number of rings (size 3 to 8) (size 9 to 14) (size 15 to 20)
#    0.000    1.857    1.429    3.000    2.000    3.143 
#    0.000    0.714    0.000    2.143    0.000    4.000 
#    0.000    0.000    0.000    0.000    0.000    0.000 
#
# Total GULP energy -1387717.284324 kJ/mol
# GULP energy per Si atom -12390.332896 kJ/mol
# Density = 2.010167 g / cm^3
# Si number density = 20.147526 Si / 1000 Ang^3
#
#
#
# Elastic Constant Matrix: (Units=GPa)
#
#
# Indices 1 2 3 4 5 6 
#
# 1 84.6604 23.8802 10.7848 0.0000 0.0000 0.0000
# 2 23.8802 84.6604 10.7848 0.0000 0.0000 0.0000
# 3 10.7848 10.7848 30.5669 0.0000 0.0000 0.0000
# 4 0.0000 0.0000 0.0000 26.3963 0.0000 0.0000
# 5 0.0000 0.0000 0.0000 0.0000 26.3963 0.0000
# 6 0.0000 0.0000 0.0000 0.0000 0.0000 40.2628
#
#
#
# Elastic Compliance Matrix: (Units=1/GPa)
#
#
# Indices 1 2 3 4 5 6 
#
# 1 0.013180 -0.003272 -0.003496 0.000000 0.000000 0.000000
# 2 -0.003272 0.013180 -0.003496 0.000000 0.000000 0.000000
# 3 -0.003496 -0.003496 0.035182 0.000000 0.000000 0.000000
# 4 0.000000 0.000000 0.000000 0.037884 0.000000 0.000000
# 5 0.000000 0.000000 0.000000 0.000000 0.037884 0.000000
# 6 0.000000 0.000000 0.000000 0.000000 0.000000 0.024837
#
#
# Mechanical properties :
#
#
# Convention : Reuss Voigt Hill
#
# Bulk Modulus (GPa) = 24.38155 32.30971 28.34563
# Shear Modulus (GPa) = 25.46514 28.90695 27.18605
#
# Velocity S-wave (km/s) = 3.55904 3.79194 3.67733
# Velocity P-wave (km/s) = 5.38673 5.93659 5.66833
#
# Compressibility (1/GPa) = 0.04101462
#
# Stress axis : x y z
#
# Youngs Moduli (GPa) = 75.87094 75.87094 28.42366
#
# Poissons Ratio (x) = 0.24828 0.09936
# Poissons Ratio (y) = 0.24828 0.09936
# Poissons Ratio (z) = 0.26523 0.26523
#
# Static dielectric constant tensor:
#      x y z
#    x 3.956200 0.000000 0.000000 
#    y 0.000000 3.956200 0.000000 
#    z 0.000000 0.000000 3.202010 
# 
# 
# High freq. dielectric constant tensor:
#      x y z
#    x 1.802730 0.000000 0.000000 
#    y 0.000000 1.802730 0.000000 
#    z 0.000000 0.000000 1.710040 
# 
# From -- ./inp_files/8487.got.cif
#   From: 2010.03.12/outbox.cif.g09.slc.cpg/sg136_5_cif.got.tgz:8487.got - 2010.04.06 18:39:43.
