data_PCOD8318153
_publ_section_title
;
Structure prediction by ZEFSAII (Michael W. Deem and Ramdas Pophale) SiO2 
 PCOD8318153
Probable space group: P 42/M N M
;
_chemical_formula_sum "Si O2"
_cell_formula_units_Z 80
_cell_length_a 15.383420
_cell_length_b 15.383420
_cell_length_c 18.835117
_cell_angle_alpha 90.000000
_cell_angle_beta 90.000000
_cell_angle_gamma 90.000000
_cell_volume 4457.323109
_symmetry_space_group_name_H-M "P 42/M N M"
_symmetry_group_IT_number 136
_symmetry_cell_setting 'tetragonal'
loop_
_space_group_symop_operation_xyz
x,y,z
1/2-y,1/2+x,1/2+z
-x,-y,z
1/2+y,1/2-x,1/2+z
1/2+x,1/2-y,1/2-z
1/2-x,1/2+y,1/2-z
y,x,-z
-y,-x,-z
-x,-y,-z
1/2+y,1/2-x,1/2-z
x,y,-z
1/2-y,1/2+x,1/2-z
1/2-x,1/2+y,1/2+z
1/2+x,1/2-y,1/2+z
-y,-x,z
y,x,z
loop_
_atom_site_type_symbol
_atom_site_label
_atom_site_fract_x
_atom_site_fract_y
_atom_site_fract_z
Si Si1 0.001881 0.857542 0.079924
Si Si2 0.242141 0.612617 0.922133
Si Si3 0.637245 0.504381 0.848576
Si Si4 0.753683 0.991092 0.782744
Si Si5 0.824319 0.322761 0.781189
O O1 0.922070 0.922070 0.091072
O O2 0.994386 0.778569 0.134580
O O3 0.000886 0.819435 0.000000
O O4 0.092282 0.907719 0.093332
O O5 0.322572 0.677429 0.925663
O O6 0.279328 0.518069 0.897668
O O7 0.174691 0.647768 0.863898
O O8 0.197769 0.604346 0.000000
O O9 0.560149 0.439852 0.867948
O O10 0.603061 0.603061 0.861850
O O11 0.660441 0.489867 0.765931
O O12 0.699068 0.903800 0.769203
O O13 0.701721 0.077860 0.761039
O O14 0.756610 0.243391 0.768686
#
# Coordination Sequence:
#
# PCOD8318153 Si02
#       5
#    16  16  16  16  16
#     4   9  17  29  49  79 109 135 166 212 277 336
#     4   8  15  28  44  67 100 127 150 189 240 299
#     4   9  16  26  45  72  97 126 162 202 256 304
#     4  11  20  33  50  70 103 136 171 216 249 294
#     4  10  21  34  52  76  98 133 176 208 255 307
#
# _framework density 17.947994000000001
#
# number of rings (size 3 to 8) (size 9 to 14) (size 15 to 20)
#    0.000    2.600    0.000    5.400    0.000    3.200 
#    0.000    4.000    0.000    4.800    0.000    7.000 
#    0.000    0.000    0.000    0.000    0.000    0.000 
#
# Total GULP energy -991435.127387 kJ/mol
# GULP energy per Si atom -12392.939092 kJ/mol
# Density = 1.790714 g / cm^3
# Si number density = 17.947994 Si / 1000 Ang^3
#
#
#
# Elastic Constant Matrix: (Units=GPa)
#
#
# Indices 1 2 3 4 5 6 
#
# 1 70.4929 28.8466 25.4756 0.0000 0.0000 0.0000
# 2 28.8466 70.4929 25.4756 0.0000 0.0000 0.0000
# 3 25.4756 25.4756 105.7766 0.0000 0.0000 0.0000
# 4 0.0000 0.0000 0.0000 15.5630 0.0000 0.0000
# 5 0.0000 0.0000 0.0000 0.0000 15.5630 0.0000
# 6 0.0000 0.0000 0.0000 0.0000 0.0000 15.5077
#
#
#
# Elastic Compliance Matrix: (Units=1/GPa)
#
#
# Indices 1 2 3 4 5 6 
#
# 1 0.017748 -0.006263 -0.002766 0.000000 0.000000 0.000000
# 2 -0.006263 0.017748 -0.002766 0.000000 0.000000 0.000000
# 3 -0.002766 -0.002766 0.010786 0.000000 0.000000 0.000000
# 4 0.000000 0.000000 0.000000 0.064255 0.000000 0.000000
# 5 0.000000 0.000000 0.000000 0.000000 0.064255 0.000000
# 6 0.000000 0.000000 0.000000 0.000000 0.000000 0.064484
#
#
# Mechanical properties :
#
#
# Convention : Reuss Voigt Hill
#
# Bulk Modulus (GPa) = 44.06799 45.15089 44.60944
# Shear Modulus (GPa) = 18.48892 20.45772 19.47332
#
# Velocity S-wave (km/s) = 3.21306 3.37980 3.29749
# Velocity P-wave (km/s) = 6.19447 6.35939 6.27747
#
# Compressibility (1/GPa) = 0.02269221
#
# Stress axis : x y z
#
# Youngs Moduli (GPa) = 56.34282 56.34282 92.71013
#
# Poissons Ratio (x) = 0.35289 0.25645
# Poissons Ratio (y) = 0.35289 0.25645
# Poissons Ratio (z) = 0.15585 0.15585
#
# Static dielectric constant tensor:
#      x y z
#    x 3.158990 0.000000 0.000000 
#    y 0.000000 3.158990 0.000000 
#    z 0.000000 0.000000 3.540010 
# 
# 
# High freq. dielectric constant tensor:
#      x y z
#    x 1.668700 0.000000 0.000000 
#    y 0.000000 1.668700 0.000000 
#    z 0.000000 0.000000 1.696000 
# 
# From -- ./inp_files/7246.got.cif
#   From: 2010.03.12/outbox.cif.g09.slc.cpg/sg136_4_cif.got.tgz:7246.got - 2010.04.06 18:39:43.
