data_PCOD8318856
_publ_section_title
;
Structure prediction by ZEFSAII (Michael W. Deem and Ramdas Pophale) SiO2 
 PCOD8318856
Probable space group: P 42/N C M
;
_chemical_formula_sum "Si O2"
_cell_formula_units_Z 128
_cell_length_a 24.726923
_cell_length_b 24.726923
_cell_length_c 11.796968
_cell_angle_alpha 90.000000
_cell_angle_beta 90.000000
_cell_angle_gamma 90.000000
_cell_volume 7212.910681
_symmetry_space_group_name_H-M "P 42/N C M"
_symmetry_group_IT_number 138
_space_group.IT_coordinate_system_code '2'
_symmetry_cell_setting 'tetragonal'
loop_
_space_group_symop_operation_xyz
x,y,z
1/2-y,x,1/2+z
1/2-x,1/2-y,z
y,1/2-x,1/2+z
1/2+x,-y,1/2-z
-x,1/2+y,1/2-z
1/2+y,1/2+x,-z
-y,-x,-z
-x,-y,-z
1/2+y,-x,1/2-z
1/2+x,1/2+y,-z
-y,1/2+x,1/2-z
1/2-x,y,1/2+z
x,1/2-y,1/2+z
1/2-y,1/2-x,z
y,x,z
loop_
_atom_site_type_symbol
_atom_site_label
_atom_site_fract_x
_atom_site_fract_y
_atom_site_fract_z
Si Si1 0.031053 0.232622 0.481125
Si Si2 0.124314 0.702190 0.963865
Si Si3 0.571746 0.842758 0.607097
Si Si4 0.951774 0.168329 0.344449
Si Si5 0.065369 0.702248 0.410251
Si Si6 0.610171 0.066766 0.828416
Si Si7 0.538859 0.108940 0.434604
Si Si8 0.051977 0.138742 0.632307
O O1 0.069648 0.280608 0.434726
O O2 0.064767 0.192661 0.561267
O O3 0.009929 0.193143 0.379576
O O4 0.983452 0.257586 0.557204
O O5 0.120832 0.762522 0.913234
O O6 0.100834 0.662020 0.867626
O O7 0.185170 0.685170 0.000000
O O8 0.090589 0.701113 0.080356
O O9 0.629521 0.870480 0.576540
O O10 0.524725 0.879113 0.550233
O O11 0.561134 0.843636 0.739668
O O12 0.943028 0.177966 0.212596
O O13 0.942614 0.103025 0.364716
O O14 0.072400 0.655370 0.501618
O O15 0.608839 0.058089 0.694175
O O16 0.614213 0.008248 0.888750
O O17 0.552755 0.052755 0.500000
O O18 0.092830 0.092830 0.592238
#
# Coordination Sequence:
#
# PCOD8318856 Si02
#       8
#    16  16  16  16  16  16  16  16
#     4  10  19  32  54  78 106 140 187 232 265 321
#     4   9  19  30  47  70  99 137 179 233 274 316
#     4   9  20  35  56  80 108 143 179 224 276 319
#     4  10  18  29  50  75 103 139 180 229 271 322
#     4  10  18  29  50  75  99 134 185 229 272 316
#     4  10  18  33  48  73 113 138 179 223 275 325
#     4  10  19  31  49  80 105 140 178 220 264 332
#     4  10  19  34  55  81 111 150 183 217 274 342
#
# _framework density 17.745956
#
# number of rings (size 3 to 8) (size 9 to 14) (size 15 to 20)
#    0.000    2.250    3.750    0.750    5.250    0.250 
#    0.000    1.250    0.000    7.500    0.000    1.750 
#    0.000    0.000    0.000    0.000    0.000    0.000 
#
# Total GULP energy -1585717.307827 kJ/mol
# GULP energy per Si atom -12388.416467 kJ/mol
# Density = 1.770557 g / cm^3
# Si number density = 17.745956 Si / 1000 Ang^3
#
#
#
# Elastic Constant Matrix: (Units=GPa)
#
#
# Indices 1 2 3 4 5 6 
#
# 1 91.0609 56.5982 25.0693 0.0000 0.0000 0.0000
# 2 56.5982 91.0609 25.0693 0.0000 0.0000 0.0000
# 3 25.0693 25.0693 44.2498 0.0000 0.0000 0.0000
# 4 0.0000 0.0000 0.0000 20.8758 0.0000 0.0000
# 5 0.0000 0.0000 0.0000 0.0000 20.8758 0.0000
# 6 0.0000 0.0000 0.0000 0.0000 0.0000 30.6937
#
#
#
# Elastic Compliance Matrix: (Units=1/GPa)
#
#
# Indices 1 2 3 4 5 6 
#
# 1 0.018701 -0.010316 -0.004751 0.000000 0.000000 0.000000
# 2 -0.010316 0.018701 -0.004751 0.000000 0.000000 0.000000
# 3 -0.004751 -0.004751 0.027982 0.000000 0.000000 0.000000
# 4 0.000000 0.000000 0.000000 0.047902 0.000000 0.000000
# 5 0.000000 0.000000 0.000000 0.000000 0.047902 0.000000
# 6 0.000000 0.000000 0.000000 0.000000 0.000000 0.032580
#
#
# Mechanical properties :
#
#
# Convention : Reuss Voigt Hill
#
# Bulk Modulus (GPa) = 38.83493 48.87172 43.85332
# Shear Modulus (GPa) = 20.66231 22.46472 21.56351
#
# Velocity S-wave (km/s) = 3.41594 3.56182 3.48964
# Velocity P-wave (km/s) = 6.12287 6.67194 6.40329
#
# Compressibility (1/GPa) = 0.02575002
#
# Stress axis : x y z
#
# Youngs Moduli (GPa) = 53.47258 53.47258 35.73732
#
# Poissons Ratio (x) = 0.55161 0.16978
# Poissons Ratio (y) = 0.55161 0.16978
# Poissons Ratio (z) = 0.25403 0.25403
#
# Static dielectric constant tensor:
#      x y z
#    x 3.287120 0.000000 0.000000 
#    y 0.000000 3.287120 0.000000 
#    z 0.000000 0.000000 3.370620 
# 
# 
# High freq. dielectric constant tensor:
#      x y z
#    x 1.659820 0.000000 0.000000 
#    y 0.000000 1.659820 0.000000 
#    z 0.000000 0.000000 1.695960 
# 
# From -- ./inp_files/3326.got.cif
#   From: 2010.03.12/outbox.cif.g09.slc.cpg/sg138_2_cif.got.tgz:3326.got - 2010.04.08 09:41:05.
