data_PCOD8318530
_publ_section_title
;
Structure prediction by ZEFSAII (Michael W. Deem and Ramdas Pophale) SiO2 
 PCOD8318530
Probable space group: P 42/N M C
;
_chemical_formula_sum "Si O2"
_cell_formula_units_Z 96
_cell_length_a 15.044428
_cell_length_b 15.044428
_cell_length_c 22.511147
_cell_angle_alpha 90.000000
_cell_angle_beta 90.000000
_cell_angle_gamma 90.000000
_cell_volume 5095.056266
_symmetry_space_group_name_H-M "P 42/N M C"
_symmetry_group_IT_number 137
_space_group.IT_coordinate_system_code '2'
_symmetry_cell_setting 'tetragonal'
loop_
_space_group_symop_operation_xyz
x,y,z
1/2-y,x,1/2+z
1/2-x,1/2-y,z
y,1/2-x,1/2+z
1/2+x,-y,-z
-x,1/2+y,-z
1/2+y,1/2+x,1/2-z
-y,-x,1/2-z
-x,-y,-z
1/2+y,-x,1/2-z
1/2+x,1/2+y,-z
-y,1/2+x,1/2-z
1/2-x,y,z
x,1/2-y,z
1/2-y,1/2-x,1/2+z
y,x,1/2+z
loop_
_atom_site_type_symbol
_atom_site_label
_atom_site_fract_x
_atom_site_fract_y
_atom_site_fract_z
Si Si1 0.152249 0.563005 0.474610
Si Si2 0.066003 0.150162 0.656871
Si Si3 0.014028 0.054383 0.867212
Si Si4 0.010095 0.846483 0.546604
Si Si5 0.151202 0.118499 0.531655
Si Si6 0.352176 0.149755 0.280840
O O1 0.250000 0.606946 0.471700
O O2 0.131578 0.520618 0.410600
O O3 0.079501 0.635615 0.493144
O O4 0.149315 0.487723 0.525199
O O5 0.023083 0.250000 0.661057
O O6 0.122434 0.144169 0.597302
O O7 0.133603 0.135405 0.710962
O O8 0.991986 0.073067 0.660089
O O9 0.074908 0.093327 0.815505
O O10 0.075988 0.985508 0.904200
O O11 0.032168 0.750000 0.575035
O O12 0.912986 0.838929 0.517386
O O13 0.250000 0.155936 0.519913
O O14 0.250000 0.141108 0.300045
O O15 0.386368 0.250000 0.295352
#
# Coordination Sequence:
#
# PCOD8318530 Si02
#       6
#    16  16  16  16  16  16
#     4  10  20  35  55  78 111 152 190 229 273 327
#     4  11  21  35  57  82 114 149 185 233 283 333
#     4  11  20  38  56  83 112 151 188 235 280 340
#     4  11  21  35  55  81 115 150 186 231 283 336
#     4  10  19  34  55  81 112 144 183 233 288 338
#     4  10  22  38  57  84 113 144 186 235 289 343
#
# _framework density 18.841795000000001
#
# number of rings (size 3 to 8) (size 9 to 14) (size 15 to 20)
#    0.000    1.500    3.333    3.500    0.000    3.000 
#    0.000    0.000    0.000    1.500    0.000    4.667 
#    0.000    2.667    0.000    0.000    0.000    0.000 
#
# Total GULP energy -1189991.455813 kJ/mol
# GULP energy per Si atom -12395.744331 kJ/mol
# Density = 1.879891 g / cm^3
# Si number density = 18.841795 Si / 1000 Ang^3
#
#
#
# Elastic Constant Matrix: (Units=GPa)
#
#
# Indices 1 2 3 4 5 6 
#
# 1 112.7040 59.6192 27.8640 0.0000 0.0000 0.0000
# 2 59.6192 112.7040 27.8640 0.0000 0.0000 0.0000
# 3 27.8640 27.8640 69.8874 0.0000 0.0000 0.0000
# 4 0.0000 0.0000 0.0000 22.7334 0.0000 0.0000
# 5 0.0000 0.0000 0.0000 0.0000 22.7334 0.0000
# 6 0.0000 0.0000 0.0000 0.0000 0.0000 1.7097
#
#
#
# Elastic Compliance Matrix: (Units=1/GPa)
#
#
# Indices 1 2 3 4 5 6 
#
# 1 0.012750 -0.006088 -0.002656 0.000000 0.000000 0.000000
# 2 -0.006088 0.012750 -0.002656 0.000000 0.000000 0.000000
# 3 -0.002656 -0.002656 0.016427 0.000000 0.000000 0.000000
# 4 0.000000 0.000000 0.000000 0.043988 0.000000 0.000000
# 5 0.000000 0.000000 0.000000 0.000000 0.043988 0.000000
# 6 0.000000 0.000000 0.000000 0.000000 0.000000 0.584887
#
#
# Mechanical properties :
#
#
# Convention : Reuss Voigt Hill
#
# Bulk Modulus (GPa) = 52.28427 58.44333 55.36380
# Shear Modulus (GPa) = 6.72074 21.43187 14.07631
#
# Velocity S-wave (km/s) = 1.89068 3.37629 2.73624
# Velocity P-wave (km/s) = 5.70750 6.80326 6.27933
#
# Compressibility (1/GPa) = 0.01912621
#
# Stress axis : x y z
#
# Youngs Moduli (GPa) = 78.43200 78.43200 60.87643
#
# Poissons Ratio (x) = 0.47748 0.16170
# Poissons Ratio (y) = 0.47748 0.16170
# Poissons Ratio (z) = 0.20833 0.20833
#
# Static dielectric constant tensor:
#      x y z
#    x 3.519560 0.000000 0.000000 
#    y 0.000000 3.519560 0.000000 
#    z 0.000000 0.000000 3.331890 
# 
# 
# High freq. dielectric constant tensor:
#      x y z
#    x 1.728480 0.000000 0.000000 
#    y 0.000000 1.728480 0.000000 
#    z 0.000000 0.000000 1.723330 
# 
# From -- ./inp_files/7818.got.cif
#   From: 2010.03.12/outbox.cif.g09.slc.cpg/sg137_4_cif.got.tgz:7818.got - 2010.04.08 09:34:49.
