data_PCOD8318734
_publ_section_title
;
Structure prediction by ZEFSAII (Michael W. Deem and Ramdas Pophale) SiO2 
 PCOD8318734
Probable space group: P 42/N M C
;
_chemical_formula_sum "Si O2"
_cell_formula_units_Z 96
_cell_length_a 22.364410
_cell_length_b 22.364410
_cell_length_c 9.758350
_cell_angle_alpha 90.000000
_cell_angle_beta 90.000000
_cell_angle_gamma 90.000000
_cell_volume 4880.803031
_symmetry_space_group_name_H-M "P 42/N M C"
_symmetry_group_IT_number 137
_space_group.IT_coordinate_system_code '2'
_symmetry_cell_setting 'tetragonal'
loop_
_space_group_symop_operation_xyz
x,y,z
1/2-y,x,1/2+z
1/2-x,1/2-y,z
y,1/2-x,1/2+z
1/2+x,-y,-z
-x,1/2+y,-z
1/2+y,1/2+x,1/2-z
-y,-x,1/2-z
-x,-y,-z
1/2+y,-x,1/2-z
1/2+x,1/2+y,-z
-y,1/2+x,1/2-z
1/2-x,y,z
x,1/2-y,z
1/2-y,1/2-x,1/2+z
y,x,1/2+z
loop_
_atom_site_type_symbol
_atom_site_label
_atom_site_fract_x
_atom_site_fract_y
_atom_site_fract_z
Si Si1 0.105935 0.681498 0.332279
Si Si2 0.893393 0.391938 0.100628
Si Si3 0.682121 0.025588 0.588501
Si Si4 0.102864 0.139478 0.876106
Si Si5 0.819666 0.821015 0.373848
Si Si6 0.457684 0.489253 0.875132
O O1 0.167154 0.667154 0.250000
O O2 0.096245 0.750000 0.354937
O O3 0.108808 0.656591 0.484917
O O4 0.053024 0.656170 0.232011
O O5 0.868602 0.368602 0.250000
O O6 0.907209 0.460701 0.131522
O O7 0.951223 0.355908 0.042599
O O8 0.750000 0.047602 0.566417
O O9 0.681889 0.954153 0.599711
O O10 0.135308 0.149277 0.732825
O O11 0.077953 0.072472 0.882805
O O12 0.153701 0.157118 0.983197
O O13 0.750000 0.837985 0.347205
O O14 0.827275 0.750000 0.374241
O O15 0.504174 0.495827 0.750000
O O16 0.500000 0.500000 0.000000
#
# Coordination Sequence:
#
# PCOD8318734 Si02
#       6
#    16  16  16  16  16  16
#     4   9  20  38  62  88 119 160 202 250 302 361
#     4  10  22  38  58  89 127 163 198 251 320 371
#     4  10  21  38  60  87 121 160 209 258 304 369
#     4  12  24  40  66  92 121 166 215 259 316 383
#     4  11  25  45  65  90 127 168 214 269 322 372
#     4  11  23  38  59  89 125 163 201 253 315 377
#
# _framework density 19.668893000000001
#
# number of rings (size 3 to 8) (size 9 to 14) (size 15 to 20)
#    0.000    1.500    1.667    3.000    7.000    2.167 
#    0.000    0.833    0.000    0.000    0.000    2.333 
#    0.000    0.000    0.000    0.000    0.000    0.000 
#
# Total GULP energy -1189686.702293 kJ/mol
# GULP energy per Si atom -12392.569816 kJ/mol
# Density = 1.962413 g / cm^3
# Si number density = 19.668893 Si / 1000 Ang^3
#
#
#
# Elastic Constant Matrix: (Units=GPa)
#
#
# Indices 1 2 3 4 5 6 
#
# 1 30.0048 86.5471 28.4805 0.0000 0.0000 0.0000
# 2 86.5471 29.9961 28.4857 0.0000 0.0000 0.0000
# 3 28.4805 28.4857 138.4269 0.0000 0.0000 0.0000
# 4 0.0000 0.0000 0.0000 22.4163 0.0000 0.0000
# 5 0.0000 0.0000 0.0000 0.0000 22.4164 0.0000
# 6 0.0000 0.0000 0.0000 0.0000 0.0000 28.9132
#
#
#
# Elastic Compliance Matrix: (Units=1/GPa)
#
#
# Indices 1 2 3 4 5 6 
#
# 1 -0.004072 0.013612 -0.001963 0.000000 0.000000 0.000000
# 2 0.013612 -0.004073 -0.001962 0.000000 0.000000 0.000000
# 3 -0.001963 -0.001962 0.008032 0.000000 0.000000 0.000000
# 4 0.000000 0.000000 0.000000 0.044610 0.000000 0.000000
# 5 0.000000 0.000000 0.000000 0.000000 0.044610 0.000000
# 6 0.000000 0.000000 0.000000 0.000000 0.000000 0.034586
#
#
# Mechanical properties :
#
#
# Convention : Reuss Voigt Hill
#
# Bulk Modulus (GPa) = 51.92253 53.93936 52.93095
# Shear Modulus (GPa) = 45.15038 18.41015 31.78026
#
# Velocity S-wave (km/s) = 4.79636 3.06274 4.02402
# Velocity P-wave (km/s) = 7.55837 6.32379 6.96848
#
# Compressibility (1/GPa) = 0.01925946
#
# Stress axis : x y z
#
# Youngs Moduli (GPa) = -245.60774 -245.49721 124.50486
#
# Poissons Ratio (x) = 3.34173 0.24446
# Poissons Ratio (y) = 3.34323 0.24433
# Poissons Ratio (z) = -0.48223 -0.48176
#
# Static dielectric constant tensor:
#      x y z
#    x 3.557010 0.000000 0.000000 
#    y 0.000000 3.556970 0.000000 
#    z 0.000000 0.000000 4.044910 
# 
# 
# High freq. dielectric constant tensor:
#      x y z
#    x 1.765540 0.000000 0.000000 
#    y 0.000000 1.765540 0.000000 
#    z 0.000000 0.000000 1.782230 
# 
# From -- ./inp_files/2133.got.cif
#   From: 2010.03.12/outbox.cif.g09.slc.cpg/sg137_2_cif.got.tgz:2133.got - 2010.04.08 09:34:49.
