data_PCOD8318978
_publ_section_title
;
Structure prediction by ZEFSAII (Michael W. Deem and Ramdas Pophale) SiO2 
 PCOD8318978
Probable space group: P 42/N C M
;
_chemical_formula_sum "Si O2"
_cell_formula_units_Z 96
_cell_length_a 22.151387
_cell_length_b 22.151387
_cell_length_c 12.534336
_cell_angle_alpha 90.000000
_cell_angle_beta 90.000000
_cell_angle_gamma 90.000000
_cell_volume 6150.397449
_symmetry_space_group_name_H-M "P 42/N C M"
_symmetry_group_IT_number 138
_space_group.IT_coordinate_system_code '2'
_symmetry_cell_setting 'tetragonal'
loop_
_space_group_symop_operation_xyz
x,y,z
1/2-y,x,1/2+z
1/2-x,1/2-y,z
y,1/2-x,1/2+z
1/2+x,-y,1/2-z
-x,1/2+y,1/2-z
1/2+y,1/2+x,-z
-y,-x,-z
-x,-y,-z
1/2+y,-x,1/2-z
1/2+x,1/2+y,-z
-y,1/2+x,1/2-z
1/2-x,y,1/2+z
x,1/2-y,1/2+z
1/2-y,1/2-x,z
y,x,z
loop_
_atom_site_type_symbol
_atom_site_label
_atom_site_fract_x
_atom_site_fract_y
_atom_site_fract_z
Si Si1 0.544346 0.057583 0.381804
Si Si2 0.424480 0.176057 0.133855
Si Si3 0.909462 0.691563 0.417825
Si Si4 0.950796 0.850149 0.138910
Si Si5 0.099727 0.998155 0.485699
Si Si6 0.878936 0.979781 0.747540
O O1 0.568562 0.068562 0.500000
O O2 0.516326 0.120487 0.342434
O O3 0.496010 0.003991 0.380479
O O4 0.600125 0.041075 0.305819
O O5 0.372539 0.127462 0.119593
O O6 0.397129 0.237218 0.084835
O O7 0.438057 0.191010 0.258058
O O8 0.485020 0.149345 0.076517
O O9 0.847128 0.652873 0.418993
O O10 0.947460 0.683927 0.526502
O O11 0.950159 0.675514 0.314584
O O12 0.903555 0.903555 0.132882
O O13 0.068408 0.931593 0.500000
O O14 0.136914 0.002580 0.374057
O O15 0.046419 0.046419 0.488661
O O16 0.933604 0.933604 0.747640
#
# Coordination Sequence:
#
# PCOD8318978 Si02
#       6
#    16  16  16  16  16  16
#     4   9  13  22  42  66  87 105 132 173 225 280
#     4  10  21  33  46  62  85 121 160 197 233 269
#     4  10  20  32  45  62  87 120 161 199 225 257
#     4   9  17  30  45  63  84 109 146 188 229 272
#     4   9  17  30  47  67  88 110 144 189 239 295
#     4   9  16  26  43  65  87 112 141 179 226 276
#
# _framework density 15.608746999999999
#
# number of rings (size 3 to 8) (size 9 to 14) (size 15 to 20)
#    0.000    2.667    1.667    1.000    2.333    4.333 
#    0.000    0.000    0.000    3.000    0.000    0.000 
#    0.000    0.000    0.000    3.000    6.000    0.333 
#
# Total GULP energy -1189277.547561 kJ/mol
# GULP energy per Si atom -12388.307787 kJ/mol
# Density = 1.557322 g / cm^3
# Si number density = 15.608747 Si / 1000 Ang^3
#
#
#
# Elastic Constant Matrix: (Units=GPa)
#
#
# Indices 1 2 3 4 5 6 
#
# 1 41.1188 37.2135 26.8143 0.0000 0.0000 0.0000
# 2 37.2135 41.1191 26.8148 0.0000 0.0000 0.0000
# 3 26.8143 26.8148 110.2379 0.0000 0.0000 0.0000
# 4 0.0000 0.0000 0.0000 15.6753 0.0000 0.0000
# 5 0.0000 0.0000 0.0000 0.0000 15.6752 0.0000
# 6 0.0000 0.0000 0.0000 0.0000 0.0000 10.3680
#
#
#
# Elastic Compliance Matrix: (Units=1/GPa)
#
#
# Indices 1 2 3 4 5 6 
#
# 1 0.135686 -0.120369 -0.003725 0.000000 0.000000 0.000000
# 2 -0.120369 0.135685 -0.003726 0.000000 0.000000 0.000000
# 3 -0.003725 -0.003726 0.010884 0.000000 0.000000 0.000000
# 4 0.000000 0.000000 0.000000 0.063795 0.000000 0.000000
# 5 0.000000 0.000000 0.000000 0.000000 0.063795 0.000000
# 6 0.000000 0.000000 0.000000 0.000000 0.000000 0.096450
#
#
# Mechanical properties :
#
#
# Convention : Reuss Voigt Hill
#
# Bulk Modulus (GPa) = 37.57329 41.57344 39.57337
# Shear Modulus (GPa) = 6.48672 15.11927 10.80299
#
# Velocity S-wave (km/s) = 2.04080 3.11568 2.63366
# Velocity P-wave (km/s) = 5.44769 6.29570 5.88698
#
# Compressibility (1/GPa) = 0.02661465
#
# Stress axis : x y z
#
# Youngs Moduli (GPa) = 7.36997 7.37000 91.87983
#
# Poissons Ratio (x) = 0.88712 0.34227
# Poissons Ratio (y) = 0.88711 0.34236
# Poissons Ratio (z) = 0.02745 0.02746
#
# Static dielectric constant tensor:
#      x y z
#    x 2.714250 0.000000 0.000000 
#    y 0.000000 2.714250 0.000000 
#    z 0.000000 0.000000 3.384820 
# 
# 
# High freq. dielectric constant tensor:
#      x y z
#    x 1.556330 0.000000 0.000000 
#    y 0.000000 1.556320 0.000000 
#    z 0.000000 0.000000 1.623310 
# 
# From -- ./inp_files/3124.got.cif
#   From: 2010.03.12/outbox.cif.g09.slc.cpg/sg138_2_cif.got.tgz:3124.got - 2010.04.08 09:41:05.
