data_PCOD8318183
_publ_section_title
;
Structure prediction by ZEFSAII (Michael W. Deem and Ramdas Pophale) SiO2 
 PCOD8318183
Probable space group: P 42/M N M
;
_chemical_formula_sum "Si O2"
_cell_formula_units_Z 80
_cell_length_a 17.346690
_cell_length_b 17.346690
_cell_length_c 13.426142
_cell_angle_alpha 90.000000
_cell_angle_beta 90.000000
_cell_angle_gamma 90.000000
_cell_volume 4040.028891
_symmetry_space_group_name_H-M "P 42/M N M"
_symmetry_group_IT_number 136
_symmetry_cell_setting 'tetragonal'
loop_
_space_group_symop_operation_xyz
x,y,z
1/2-y,1/2+x,1/2+z
-x,-y,z
1/2+y,1/2-x,1/2+z
1/2+x,1/2-y,1/2-z
1/2-x,1/2+y,1/2-z
y,x,-z
-y,-x,-z
-x,-y,-z
1/2+y,1/2-x,1/2-z
x,y,-z
1/2-y,1/2+x,1/2-z
1/2-x,1/2+y,1/2+z
1/2+x,1/2-y,1/2+z
-y,-x,z
y,x,z
loop_
_atom_site_type_symbol
_atom_site_label
_atom_site_fract_x
_atom_site_fract_y
_atom_site_fract_z
Si Si1 0.643068 0.106859 0.383042
Si Si2 0.064900 0.187719 0.618172
Si Si3 0.792303 0.082658 0.731133
Si Si4 0.314355 0.986491 0.881434
Si Si5 0.430861 0.859883 0.884221
O O1 0.657958 0.119827 0.500000
O O2 0.721820 0.126140 0.324919
O O3 0.571810 0.159658 0.345522
O O4 0.619587 0.018850 0.360899
O O5 0.059918 0.183776 0.500000
O O6 0.127557 0.127557 0.660194
O O7 0.088591 0.273671 0.654366
O O8 0.980017 0.167636 0.659072
O O9 0.853988 0.146013 0.763724
O O10 0.766002 0.036759 0.830646
O O11 0.375693 0.924509 0.836479
O O12 0.305885 0.984017 0.000000
O O13 0.413843 0.863670 0.000000
#
# Coordination Sequence:
#
# PCOD8318183 Si02
#       5
#    16  16  16  16  16
#     4   9  19  36  57  82 113 148 186 234 291 350
#     4   9  19  37  61  87 115 146 183 236 302 359
#     4  11  24  37  55  86 116 150 198 250 291 336
#     4  10  21  37  55  80 117 158 192 225 281 351
#     4   8  15  31  55  83 112 141 178 225 277 340
#
# _framework density 19.801836999999999
#
# number of rings (size 3 to 8) (size 9 to 14) (size 15 to 20)
#    0.000    2.600    0.000    2.400    5.600    5.600 
#    0.000    3.000    0.000    1.800    0.000    1.400 
#    0.000    0.000    0.000    0.000    0.000    0.000 
#
# Total GULP energy -991770.249657 kJ/mol
# GULP energy per Si atom -12397.128121 kJ/mol
# Density = 1.975677 g / cm^3
# Si number density = 19.801837 Si / 1000 Ang^3
#
#
#
# Elastic Constant Matrix: (Units=GPa)
#
#
# Indices 1 2 3 4 5 6 
#
# 1 101.4560 67.3339 43.7978 0.0000 0.0000 0.0000
# 2 67.3339 101.4560 43.7978 0.0000 0.0000 0.0000
# 3 43.7978 43.7978 37.7024 0.0000 0.0000 0.0000
# 4 0.0000 0.0000 0.0000 27.2810 0.0000 0.0000
# 5 0.0000 0.0000 0.0000 0.0000 27.2810 0.0000
# 6 0.0000 0.0000 0.0000 0.0000 0.0000 -8.5977
#
#
#
# Elastic Compliance Matrix: (Units=1/GPa)
#
#
# Indices 1 2 3 4 5 6 
#
# 1 0.022112 -0.007194 -0.017330 0.000000 0.000000 0.000000
# 2 -0.007194 0.022112 -0.017330 0.000000 0.000000 0.000000
# 3 -0.017330 -0.017330 0.066787 0.000000 0.000000 0.000000
# 4 0.000000 0.000000 0.000000 0.036656 0.000000 0.000000
# 5 0.000000 0.000000 0.000000 0.000000 0.036656 0.000000
# 6 0.000000 0.000000 0.000000 0.000000 0.000000 -0.116310
#
#
# Mechanical properties :
#
#
# Convention : Reuss Voigt Hill
#
# Bulk Modulus (GPa) = 36.62553 61.16369 48.89461
# Shear Modulus (GPa) = 31.09029 14.90519 22.99774
#
# Velocity S-wave (km/s) = 3.96671 2.74655 3.41162
# Velocity P-wave (km/s) = 6.28617 6.40414 6.34543
#
# Compressibility (1/GPa) = 0.02730336
#
# Stress axis : x y z
#
# Youngs Moduli (GPa) = 45.22364 45.22364 14.97301
#
# Poissons Ratio (x) = 0.32535 0.25948
# Poissons Ratio (y) = 0.32535 0.25948
# Poissons Ratio (z) = 0.78372 0.78372
#
# Static dielectric constant tensor:
#      x y z
#    x 4.049580 0.000000 0.000000 
#    y 0.000000 4.049580 0.000000 
#    z 0.000000 0.000000 3.643250 
# 
# 
# High freq. dielectric constant tensor:
#      x y z
#    x 1.751860 0.000000 0.000000 
#    y 0.000000 1.751860 0.000000 
#    z 0.000000 0.000000 1.783650 
# 
# From -- ./inp_files/4905.got.cif
#   From: 2010.03.12/outbox.cif.g09.slc.cpg/sg136_3_cif.got.tgz:4905.got - 2010.04.06 18:39:43.
