data_PCOD8318110
_publ_section_title
;
Structure prediction by ZEFSAII (Michael W. Deem and Ramdas Pophale) SiO2 
 PCOD8318110
Probable space group: P 42/M N M
;
_chemical_formula_sum "Si O2"
_cell_formula_units_Z 72
_cell_length_a 20.142295
_cell_length_b 20.142295
_cell_length_c 8.651761
_cell_angle_alpha 90.000000
_cell_angle_beta 90.000000
_cell_angle_gamma 90.000000
_cell_volume 3510.123673
_symmetry_space_group_name_H-M "P 42/M N M"
_symmetry_group_IT_number 136
_symmetry_cell_setting 'tetragonal'
loop_
_space_group_symop_operation_xyz
x,y,z
1/2-y,1/2+x,1/2+z
-x,-y,z
1/2+y,1/2-x,1/2+z
1/2+x,1/2-y,1/2-z
1/2-x,1/2+y,1/2-z
y,x,-z
-y,-x,-z
-x,-y,-z
1/2+y,1/2-x,1/2-z
x,y,-z
1/2-y,1/2+x,1/2-z
1/2-x,1/2+y,1/2+z
1/2+x,1/2-y,1/2+z
-y,-x,z
y,x,z
loop_
_atom_site_type_symbol
_atom_site_label
_atom_site_fract_x
_atom_site_fract_y
_atom_site_fract_z
Si Si1 0.409099 0.785661 0.680567
Si Si2 0.730215 0.269786 0.317857
Si Si3 0.336677 0.336677 0.183143
Si Si4 0.944824 0.944824 0.171346
Si Si5 0.418950 0.054756 0.320601
Si Si6 0.180720 0.980836 0.181920
O O1 0.404673 0.803244 0.500000
O O2 0.344692 0.745006 0.736812
O O3 0.407171 0.852027 0.780454
O O4 0.477155 0.746694 0.716410
O O5 0.734626 0.265375 0.500000
O O6 0.783373 0.216628 0.250567
O O7 0.314774 0.409310 0.239767
O O8 0.337249 0.337249 0.000000
O O9 0.976448 0.880465 0.254602
O O10 0.921826 0.921826 0.000000
O O11 0.000000 0.000000 0.161283
O O12 0.477621 0.088372 0.222957
O O13 0.435824 0.062675 0.500000
O O14 0.168755 0.969775 0.000000
#
# Coordination Sequence:
#
# PCOD8318110 Si02
#       6
#    16   8   8   8  16  16
#     4  10  21  39  64  91 120 159 205 250 302 360
#     4   9  21  41  61  85 122 166 204 244 298 366
#     4  11  23  37  56  86 125 164 199 240 302 364
#     4   9  15  29  55  81 110 147 194 246 290 337
#     4  11  23  41  64  91 121 155 199 251 305 360
#     4  10  20  36  60  88 115 151 201 251 296 352
#
# _framework density 20.512098999999999
#
# number of rings (size 3 to 8) (size 9 to 14) (size 15 to 20)
#    0.000    1.889    1.111    3.667    3.111    3.556 
#    0.000    2.778    0.000    2.667    0.000    0.000 
#    0.000    0.000    0.000    0.000    0.000    0.000 
#
# Total GULP energy -892785.619549 kJ/mol
# GULP energy per Si atom -12399.800272 kJ/mol
# Density = 2.046541 g / cm^3
# Si number density = 20.512099 Si / 1000 Ang^3
#
#
#
# Elastic Constant Matrix: (Units=GPa)
#
#
# Indices 1 2 3 4 5 6 
#
# 1 104.2033 45.0762 19.3191 0.0000 0.0000 0.0000
# 2 45.0762 104.2034 19.3191 0.0000 0.0000 0.0000
# 3 19.3191 19.3191 49.9962 0.0000 0.0000 0.0000
# 4 0.0000 0.0000 0.0000 26.8060 0.0000 0.0000
# 5 0.0000 0.0000 0.0000 0.0000 26.8060 0.0000
# 6 0.0000 0.0000 0.0000 0.0000 0.0000 39.5894
#
#
#
# Elastic Compliance Matrix: (Units=1/GPa)
#
#
# Indices 1 2 3 4 5 6 
#
# 1 0.012178 -0.004735 -0.002876 0.000000 0.000000 0.000000
# 2 -0.004735 0.012178 -0.002876 0.000000 0.000000 0.000000
# 3 -0.002876 -0.002876 0.022224 0.000000 0.000000 0.000000
# 4 0.000000 0.000000 0.000000 0.037305 0.000000 0.000000
# 5 0.000000 0.000000 0.000000 0.000000 0.037305 0.000000
# 6 0.000000 0.000000 0.000000 0.000000 0.000000 0.025259
#
#
# Mechanical properties :
#
#
# Convention : Reuss Voigt Hill
#
# Bulk Modulus (GPa) = 39.05310 47.31464 43.18387
# Shear Modulus (GPa) = 28.41567 30.28617 29.35092
#
# Velocity S-wave (km/s) = 3.72602 3.84670 3.78684
# Velocity P-wave (km/s) = 6.13118 6.54570 6.34183
#
# Compressibility (1/GPa) = 0.02560616
#
# Stress axis : x y z
#
# Youngs Moduli (GPa) = 82.11520 82.11530 44.99586
#
# Poissons Ratio (x) = 0.38879 0.12942
# Poissons Ratio (y) = 0.38879 0.12942
# Poissons Ratio (z) = 0.23618 0.23618
#
# Static dielectric constant tensor:
#      x y z
#    x 3.836530 0.000000 0.000000 
#    y 0.000000 3.836540 0.000000 
#    z 0.000000 0.000000 3.413630 
# 
# 
# High freq. dielectric constant tensor:
#      x y z
#    x 1.812890 0.000000 0.000000 
#    y 0.000000 1.812890 0.000000 
#    z 0.000000 0.000000 1.765100 
# 
# From -- ./inp_files/1640.got.cif
#   From: 2010.03.12/outbox.cif.g09.slc.cpg/sg136_1_cif.got.tgz:1640.got - 2010.04.06 18:39:43.
