data_PCOD8318969
_publ_section_title
;
Structure prediction by ZEFSAII (Michael W. Deem and Ramdas Pophale) SiO2 
 PCOD8318969
Probable space group: P 42/N C M
;
_chemical_formula_sum "Si O2"
_cell_formula_units_Z 112
_cell_length_a 16.793503
_cell_length_b 16.793503
_cell_length_c 21.954062
_cell_angle_alpha 90.000000
_cell_angle_beta 90.000000
_cell_angle_gamma 90.000000
_cell_volume 6191.522831
_symmetry_space_group_name_H-M "P 42/N C M"
_symmetry_group_IT_number 138
_space_group.IT_coordinate_system_code '2'
_symmetry_cell_setting 'tetragonal'
loop_
_space_group_symop_operation_xyz
x,y,z
1/2-y,x,1/2+z
1/2-x,1/2-y,z
y,1/2-x,1/2+z
1/2+x,-y,1/2-z
-x,1/2+y,1/2-z
1/2+y,1/2+x,-z
-y,-x,-z
-x,-y,-z
1/2+y,-x,1/2-z
1/2+x,1/2+y,-z
-y,1/2+x,1/2-z
1/2-x,y,1/2+z
x,1/2-y,1/2+z
1/2-y,1/2-x,z
y,x,z
loop_
_atom_site_type_symbol
_atom_site_label
_atom_site_fract_x
_atom_site_fract_y
_atom_site_fract_z
Si Si1 0.940673 0.274117 0.950490
Si Si2 0.951414 0.267904 0.265168
Si Si3 0.847559 0.971741 0.652193
Si Si4 0.038493 0.591296 0.566933
Si Si5 0.124347 0.658806 0.336951
Si Si6 0.199218 0.882804 0.581011
Si Si7 0.100219 0.524505 0.173954
O O1 0.966301 0.186610 0.929058
O O2 0.853889 0.304321 0.928618
O O3 0.005478 0.332345 0.918765
O O4 0.936606 0.279505 0.022697
O O5 0.924994 0.201452 0.216543
O O6 0.878311 0.294502 0.308867
O O7 0.984418 0.348640 0.235454
O O8 0.021595 0.232268 0.307432
O O9 0.882508 0.882508 0.654121
O O10 0.908895 0.033077 0.683243
O O11 0.071265 0.571265 0.500000
O O12 0.095745 0.569125 0.624615
O O13 0.953849 0.546152 0.576382
O O14 0.151978 0.722701 0.387067
O O15 0.157938 0.951133 0.620159
O O16 0.060250 0.439751 0.158922
#
# Coordination Sequence:
#
# PCOD8318969 Si02
#       7
#    16  16  16  16  16  16  16
#     4  10  19  37  55  83 110 147 184 227 285 338
#     4  11  21  34  53  81 113 150 185 225 280 339
#     4  10  20  35  53  80 113 145 189 235 276 331
#     4  11  23  38  57  83 115 151 189 233 282 340
#     4  11  22  36  54  84 118 148 185 227 283 351
#     4   9  20  34  57  86 113 144 179 229 286 343
#     4   9  19  36  54  77 110 144 181 225 276 336
#
# _framework density 18.089248999999999
#
# number of rings (size 3 to 8) (size 9 to 14) (size 15 to 20)
#    0.000    1.857    4.286    0.000    0.000    3.714 
#    0.000    2.857    0.000    1.714    0.000    0.000 
#    0.000    0.000    0.000    0.000    0.000    0.000 
#
# Total GULP energy -1387651.343992 kJ/mol
# GULP energy per Si atom -12389.744143 kJ/mol
# Density = 1.804808 g / cm^3
# Si number density = 18.089249 Si / 1000 Ang^3
#
#
#
# Elastic Constant Matrix: (Units=GPa)
#
#
# Indices 1 2 3 4 5 6 
#
# 1 82.8018 59.5545 44.0334 0.0000 0.0000 0.0000
# 2 59.5545 82.8018 44.0334 0.0000 0.0000 0.0000
# 3 44.0334 44.0334 116.8499 0.0000 0.0000 0.0000
# 4 0.0000 0.0000 0.0000 18.6613 0.0000 0.0000
# 5 0.0000 0.0000 0.0000 0.0000 18.6613 0.0000
# 6 0.0000 0.0000 0.0000 0.0000 0.0000 33.7019
#
#
#
# Elastic Compliance Matrix: (Units=1/GPa)
#
#
# Indices 1 2 3 4 5 6 
#
# 1 0.026088 -0.016928 -0.003452 0.000000 0.000000 0.000000
# 2 -0.016928 0.026088 -0.003452 0.000000 0.000000 0.000000
# 3 -0.003452 -0.003452 0.011160 0.000000 0.000000 0.000000
# 4 0.000000 0.000000 0.000000 0.053587 0.000000 0.000000
# 5 0.000000 0.000000 0.000000 0.000000 0.053587 0.000000
# 6 0.000000 0.000000 0.000000 0.000000 0.000000 0.029672
#
#
# Mechanical properties :
#
#
# Convention : Reuss Voigt Hill
#
# Bulk Modulus (GPa) = 63.80692 64.18845 63.99769
# Shear Modulus (GPa) = 19.75751 23.19369 21.47560
#
# Velocity S-wave (km/s) = 3.30847 3.58464 3.44932
# Velocity P-wave (km/s) = 7.06715 7.25908 7.16376
#
# Compressibility (1/GPa) = 0.01567228
#
# Stress axis : x y z
#
# Youngs Moduli (GPa) = 38.33196 38.33196 89.60919
#
# Poissons Ratio (x) = 0.64888 0.30932
# Poissons Ratio (y) = 0.64888 0.30932
# Poissons Ratio (z) = 0.13232 0.13232
#
# Static dielectric constant tensor:
#      x y z
#    x 3.252800 0.000000 0.000000 
#    y 0.000000 3.252800 0.000000 
#    z 0.000000 0.000000 3.786810 
# 
# 
# High freq. dielectric constant tensor:
#      x y z
#    x 1.674650 0.000000 0.000000 
#    y 0.000000 1.674650 0.000000 
#    z 0.000000 0.000000 1.725130 
# 
# From -- ./inp_files/6486.got.cif
#   From: 2010.03.12/outbox.cif.g09.slc.cpg/sg138_4_cif.got.tgz:6486.got - 2010.04.08 09:41:05.
