data_PCOD8318749
_publ_section_title
;
Structure prediction by ZEFSAII (Michael W. Deem and Ramdas Pophale) SiO2 
 PCOD8318749
Probable space group: P 42/N M C
;
_chemical_formula_sum "Si O2"
_cell_formula_units_Z 68
_cell_length_a 11.613914
_cell_length_b 11.613914
_cell_length_c 26.406108
_cell_angle_alpha 90.000000
_cell_angle_beta 90.000000
_cell_angle_gamma 90.000000
_cell_volume 3561.735023
_symmetry_space_group_name_H-M "P 42/N M C"
_symmetry_group_IT_number 137
_space_group.IT_coordinate_system_code '2'
_symmetry_cell_setting 'tetragonal'
loop_
_space_group_symop_operation_xyz
x,y,z
1/2-y,x,1/2+z
1/2-x,1/2-y,z
y,1/2-x,1/2+z
1/2+x,-y,-z
-x,1/2+y,-z
1/2+y,1/2+x,1/2-z
-y,-x,1/2-z
-x,-y,-z
1/2+y,-x,1/2-z
1/2+x,1/2+y,-z
-y,1/2+x,1/2-z
1/2-x,y,z
x,1/2-y,z
1/2-y,1/2-x,1/2+z
y,x,1/2+z
loop_
_atom_site_type_symbol
_atom_site_label
_atom_site_fract_x
_atom_site_fract_y
_atom_site_fract_z
Si Si1 0.750000 0.009509 0.323405
Si Si2 0.881231 0.750000 0.722354
Si Si3 0.876689 0.544822 0.873047
Si Si4 0.250000 0.991658 0.929637
Si Si5 0.750000 0.885688 0.966049
Si Si6 0.928052 0.618316 0.135480
Si Si7 0.250000 0.750000 0.622469
O O1 0.750000 0.143317 0.338411
O O2 0.750000 0.983069 0.263459
O O3 0.863034 0.952492 0.344830
O O4 0.750000 0.750000 0.744727
O O5 0.899938 0.864845 0.689078
O O6 0.750000 0.534678 0.847578
O O7 0.939736 0.422836 0.864800
O O8 0.862794 0.584942 0.931747
O O9 0.250000 0.856593 0.916472
O O10 0.250000 0.022637 0.988733
O O11 0.134995 0.046015 0.907407
O O12 0.750000 0.750000 0.982309
O O13 0.924090 0.750000 0.118945
#
# Coordination Sequence:
#
# PCOD8318749 Si02
#       7
#     8   8  16   8   8  16   4
#     4  12  21  45  65  89 133 160 208 267 327 379
#     4   9  21  39  70  94 122 178 212 250 328 393
#     4  10  21  39  63  91 126 166 212 262 313 373
#     4  11  22  43  61  92 130 166 208 268 326 378
#     4  10  21  40  67  96 119 176 226 243 326 392
#     4  10  21  41  61  92 132 166 210 264 316 375
#     4  12  26  42  67  98 136 156 204 289 322 368
#
# _framework density 19.091819000000001
#
# number of rings (size 3 to 8) (size 9 to 14) (size 15 to 20)
#    0.706    0.941    3.529    2.824    0.000    2.353 
#    2.118    2.353    0.000    0.000    0.000    3.294 
#    0.000    0.000    0.000    0.000    0.000    0.000 
#
# Total GULP energy -842760.279681 kJ/mol
# GULP energy per Si atom -12393.533525 kJ/mol
# Density = 1.904837 g / cm^3
# Si number density = 19.091819 Si / 1000 Ang^3
#
#
#
# Elastic Constant Matrix: (Units=GPa)
#
#
# Indices 1 2 3 4 5 6 
#
# 1 138.8956 58.1935 44.2704 0.0000 0.0000 0.0000
# 2 58.1935 138.8956 44.2704 0.0000 0.0000 0.0000
# 3 44.2704 44.2704 103.2159 0.0000 0.0000 0.0000
# 4 0.0000 0.0000 0.0000 18.2378 0.0000 0.0000
# 5 0.0000 0.0000 0.0000 0.0000 18.2378 0.0000
# 6 0.0000 0.0000 0.0000 0.0000 0.0000 -248.0565
#
#
#
# Elastic Compliance Matrix: (Units=1/GPa)
#
#
# Indices 1 2 3 4 5 6 
#
# 1 0.009338 -0.003053 -0.002696 0.000000 0.000000 0.000000
# 2 -0.003053 0.009338 -0.002696 0.000000 0.000000 0.000000
# 3 -0.002696 -0.002696 0.012001 0.000000 0.000000 0.000000
# 4 0.000000 0.000000 0.000000 0.054831 0.000000 0.000000
# 5 0.000000 0.000000 0.000000 0.000000 0.054831 0.000000
# 6 0.000000 0.000000 0.000000 0.000000 0.000000 -0.004031
#
#
# Mechanical properties :
#
#
# Convention : Reuss Voigt Hill
#
# Bulk Modulus (GPa) = 72.52710 74.94172 73.73441
# Shear Modulus (GPa) = 31.68716 -26.69798 2.49459
#
# Velocity S-wave (km/s) = 4.07839 -3.74357 1.14432
# Velocity P-wave (km/s) = 7.76201 4.54453 6.36009
#
# Compressibility (1/GPa) = 0.01378795
#
# Stress axis : x y z
#
# Youngs Moduli (GPa) = 107.08878 107.08878 83.32777
#
# Poissons Ratio (x) = 0.32696 0.22462
# Poissons Ratio (y) = 0.32696 0.22462
# Poissons Ratio (z) = 0.28867 0.28867
#
# Static dielectric constant tensor:
#      x y z
#    x 3.662190 0.000000 0.000000 
#    y 0.000000 3.662190 0.000000 
#    z 0.000000 0.000000 3.329480 
# 
# 
# High freq. dielectric constant tensor:
#      x y z
#    x 1.745740 0.000000 0.000000 
#    y 0.000000 1.745740 0.000000 
#    z 0.000000 0.000000 1.726740 
# 
# From -- ./inp_files/9623.got.cif
#   From: 2010.03.12/outbox.cif.g09.slc.cpg/sg137_5_cif.got.tgz:9623.got - 2010.04.08 09:34:49.
