data_PCOD8318501
_publ_section_title
;
Structure prediction by ZEFSAII (Michael W. Deem and Ramdas Pophale) SiO2 
 PCOD8318501
Probable space group: P 42/N M C
;
_chemical_formula_sum "Si O2"
_cell_formula_units_Z 128
_cell_length_a 22.366461
_cell_length_b 22.366461
_cell_length_c 13.054713
_cell_angle_alpha 90.000000
_cell_angle_beta 90.000000
_cell_angle_gamma 90.000000
_cell_volume 6530.732157
_symmetry_space_group_name_H-M "P 42/N M C"
_symmetry_group_IT_number 137
_space_group.IT_coordinate_system_code '2'
_symmetry_cell_setting 'tetragonal'
loop_
_space_group_symop_operation_xyz
x,y,z
1/2-y,x,1/2+z
1/2-x,1/2-y,z
y,1/2-x,1/2+z
1/2+x,-y,-z
-x,1/2+y,-z
1/2+y,1/2+x,1/2-z
-y,-x,1/2-z
-x,-y,-z
1/2+y,-x,1/2-z
1/2+x,1/2+y,-z
-y,1/2+x,1/2-z
1/2-x,y,z
x,1/2-y,z
1/2-y,1/2-x,1/2+z
y,x,1/2+z
loop_
_atom_site_type_symbol
_atom_site_label
_atom_site_fract_x
_atom_site_fract_y
_atom_site_fract_z
Si Si1 0.818676 0.464426 0.839335
Si Si2 0.680986 0.095594 0.039612
Si Si3 0.685743 0.819704 0.275564
Si Si4 0.412112 0.319673 0.568381
Si Si5 0.501346 0.319125 0.282115
Si Si6 0.180945 0.923179 0.583648
Si Si7 0.384003 0.106906 0.865308
Si Si8 0.995603 0.320551 0.878463
O O1 0.750000 0.454321 0.862689
O O2 0.834742 0.533844 0.855454
O O3 0.833626 0.451560 0.719634
O O4 0.847135 0.421988 0.927121
O O5 0.750000 0.117786 0.035697
O O6 0.675633 0.038466 0.113139
O O7 0.640342 0.148154 0.083733
O O8 0.750000 0.851210 0.287588
O O9 0.693051 0.750000 0.273035
O O10 0.647246 0.839354 0.372782
O O11 0.656047 0.836951 0.167952
O O12 0.411977 0.250000 0.534655
O O13 0.417900 0.363127 0.473436
O O14 0.479060 0.250000 0.269842
O O15 0.540069 0.338633 0.183802
O O16 0.446769 0.367233 0.285604
O O17 0.250000 0.906954 0.588580
O O18 0.165777 0.960930 0.482312
O O19 0.451662 0.130447 0.870310
O O20 0.016722 0.250000 0.873746
#
# Coordination Sequence:
#
# PCOD8318501 Si02
#       8
#    16  16  16  16  16  16  16  16
#     4   9  17  35  59  80 106 148 195 234 277 349
#     4  10  20  39  70  94 114 152 194 237 296 369
#     4  10  21  33  47  75 112 147 194 260 315 348
#     4  10  19  33  51  75 108 147 198 253 299 346
#     4  10  21  38  60  87 120 160 201 243 295 353
#     4  10  23  41  62  93 129 154 184 242 310 368
#     4  12  21  33  57  80 109 157 211 248 286 353
#     4  10  22  38  57  83 119 163 202 244 300 351
#
# _framework density 19.599640000000001
#
# number of rings (size 3 to 8) (size 9 to 14) (size 15 to 20)
#    0.000    1.875    2.500    1.875    1.750    1.750 
#    0.000    1.875    2.750    2.250    0.000    3.500 
#    0.000    0.000    0.000    0.000    0.000    0.000 
#
# Total GULP energy -1586044.343673 kJ/mol
# GULP energy per Si atom -12390.971435 kJ/mol
# Density = 1.955503 g / cm^3
# Si number density = 19.599640 Si / 1000 Ang^3
#
#
#
# Elastic Constant Matrix: (Units=GPa)
#
#
# Indices 1 2 3 4 5 6 
#
# 1 61.5336 34.7539 17.2225 0.0000 0.0000 0.0000
# 2 34.7539 61.5336 17.2225 0.0000 0.0000 0.0000
# 3 17.2225 17.2225 102.9933 0.0000 0.0000 0.0000
# 4 0.0000 0.0000 0.0000 26.8501 0.0000 0.0000
# 5 0.0000 0.0000 0.0000 0.0000 26.8501 0.0000
# 6 0.0000 0.0000 0.0000 0.0000 0.0000 22.7035
#
#
#
# Elastic Compliance Matrix: (Units=1/GPa)
#
#
# Indices 1 2 3 4 5 6 
#
# 1 0.024194 -0.013148 -0.001847 0.000000 0.000000 0.000000
# 2 -0.013148 0.024194 -0.001847 0.000000 0.000000 0.000000
# 3 -0.001847 -0.001847 0.010327 0.000000 0.000000 0.000000
# 4 0.000000 0.000000 0.000000 0.037244 0.000000 0.000000
# 5 0.000000 0.000000 0.000000 0.000000 0.037244 0.000000
# 6 0.000000 0.000000 0.000000 0.000000 0.000000 0.044046
#
#
# Mechanical properties :
#
#
# Convention : Reuss Voigt Hill
#
# Bulk Modulus (GPa) = 39.95020 40.49537 40.22279
# Shear Modulus (GPa) = 22.80226 25.73820 24.27023
#
# Velocity S-wave (km/s) = 3.41457 3.62774 3.52277
# Velocity P-wave (km/s) = 5.99776 6.18494 6.09207
#
# Compressibility (1/GPa) = 0.02503116
#
# Stress axis : x y z
#
# Youngs Moduli (GPa) = 41.33251 41.33251 96.83231
#
# Poissons Ratio (x) = 0.54343 0.17886
# Poissons Ratio (y) = 0.54343 0.17886
# Poissons Ratio (z) = 0.07635 0.07635
#
# Static dielectric constant tensor:
#      x y z
#    x 2.809800 0.000000 0.000000 
#    y 0.000000 2.809800 0.000000 
#    z 0.000000 0.000000 3.801420 
# 
# 
# High freq. dielectric constant tensor:
#      x y z
#    x 1.742680 0.000000 0.000000 
#    y 0.000000 1.742680 0.000000 
#    z 0.000000 0.000000 1.782150 
# 
# From -- ./inp_files/4004.got.cif
#   From: 2010.03.12/outbox.cif.g09.slc.cpg/sg137_3_cif.got.tgz:4004.got - 2010.04.08 09:34:49.
