data_PCOD8318150
_publ_section_title
;
Structure prediction by ZEFSAII (Michael W. Deem and Ramdas Pophale) SiO2 
 PCOD8318150
Probable space group: P 42/M N M
;
_chemical_formula_sum "Si O2"
_cell_formula_units_Z 96
_cell_length_a 16.022022
_cell_length_b 16.022022
_cell_length_c 21.788253
_cell_angle_alpha 90.000000
_cell_angle_beta 90.000000
_cell_angle_gamma 90.000000
_cell_volume 5593.157604
_symmetry_space_group_name_H-M "P 42/M N M"
_symmetry_group_IT_number 136
_symmetry_cell_setting 'tetragonal'
loop_
_space_group_symop_operation_xyz
x,y,z
1/2-y,1/2+x,1/2+z
-x,-y,z
1/2+y,1/2-x,1/2+z
1/2+x,1/2-y,1/2-z
1/2-x,1/2+y,1/2-z
y,x,-z
-y,-x,-z
-x,-y,-z
1/2+y,1/2-x,1/2-z
x,y,-z
1/2-y,1/2+x,1/2-z
1/2-x,1/2+y,1/2+z
1/2+x,1/2-y,1/2+z
-y,-x,z
y,x,z
loop_
_atom_site_type_symbol
_atom_site_label
_atom_site_fract_x
_atom_site_fract_y
_atom_site_fract_z
Si Si1 0.249448 0.494992 0.257731
Si Si2 0.251433 0.251433 0.138008
Si Si3 0.149181 0.149181 0.218722
Si Si4 0.688978 0.688978 0.269835
Si Si5 0.107625 0.648148 0.570451
Si Si6 0.008683 0.593970 0.843849
Si Si7 0.207851 0.207851 0.350299
Si Si8 0.808473 0.444232 0.127567
O O1 0.326711 0.552437 0.278796
O O2 0.289272 0.407053 0.270242
O O3 0.163774 0.513086 0.294003
O O4 0.221434 0.507296 0.188066
O O5 0.181881 0.181881 0.152523
O O6 0.276466 0.276466 0.206253
O O7 0.212063 0.327772 0.100876
O O8 0.188505 0.188505 0.279606
O O9 0.722498 0.722498 0.335886
O O10 0.132365 0.636904 0.500000
O O11 0.106941 0.556757 0.600932
O O12 0.014439 0.687476 0.574992
O O13 0.000000 0.500000 0.816365
O O14 0.103597 0.604021 0.866138
O O15 0.241705 0.128241 0.388201
#
# Coordination Sequence:
#
# PCOD8318150 Si02
#       8
#    16   8   8   8  16  16   8  16
#     4  11  20  35  52  84 115 145 181 225 279 331
#     4  11  19  38  55  84 108 151 183 230 265 328
#     4   9  20  32  54  78 116 142 180 222 274 336
#     4  11  20  32  58  82 117 137 184 225 274 337
#     4  11  23  38  56  80 113 150 189 230 271 325
#     4  10  22  30  52  83 113 146 175 227 281 335
#     4   9  18  32  50  80 108 145 177 226 278 329
#     4  10  21  33  53  78 112 146 184 226 278 331
#
# _framework density 17.163827999999999
#
# number of rings (size 3 to 8) (size 9 to 14) (size 15 to 20)
#    0.000    1.667    5.000    0.250    4.667    3.333 
#    0.000    0.417    0.000    0.500    0.000    1.750 
#    0.000    1.333    0.000    0.000    0.000    0.000 
#
# Total GULP energy -1189447.703662 kJ/mol
# GULP energy per Si atom -12390.080246 kJ/mol
# Density = 1.712476 g / cm^3
# Si number density = 17.163828 Si / 1000 Ang^3
#
#
#
# Elastic Constant Matrix: (Units=GPa)
#
#
# Indices 1 2 3 4 5 6 
#
# 1 -1070.3736 1182.9441 14.1947 0.0000 0.0000 0.0000
# 2 1182.9441-1070.3736 14.1947 0.0000 0.0000 0.0000
# 3 14.1947 14.1947 43.6503 0.0000 0.0000 0.0000
# 4 0.0000 0.0000 0.0000 -17.0350 0.0000 0.0000
# 5 0.0000 0.0000 0.0000 0.0000 -17.0350 0.0000
# 6 0.0000 0.0000 0.0000 0.0000 0.0000 36.5093
#
#
#
# Elastic Compliance Matrix: (Units=1/GPa)
#
#
# Indices 1 2 3 4 5 6 
#
# 1 0.004617 0.005060 -0.003147 0.000000 0.000000 0.000000
# 2 0.005060 0.004617 -0.003147 0.000000 0.000000 0.000000
# 3 -0.003147 -0.003147 0.024956 0.000000 0.000000 0.000000
# 4 0.000000 0.000000 0.000000 -0.058703 0.000000 0.000000
# 5 0.000000 0.000000 0.000000 0.000000 -0.058703 0.000000
# 6 0.000000 0.000000 0.000000 0.000000 0.000000 0.027390
#
#
# Mechanical properties :
#
#
# Convention : Reuss Voigt Hill
#
# Bulk Modulus (GPa) = 31.52342 36.17447 33.84894
# Shear Modulus (GPa) = -116.86263 -220.07415 -168.46839
#
# Velocity S-wave (km/s) = -8.26041 -11.33570 -9.91798
# Velocity P-wave (km/s) = 8.51899 12.25598 10.55420
#
# Compressibility (1/GPa) = 0.03172245
#
# Stress axis : x y z
#
# Youngs Moduli (GPa) = 216.61119 216.61119 40.07054
#
# Poissons Ratio (x) = -1.09613 0.12610
# Poissons Ratio (y) = -1.09613 0.12610
# Poissons Ratio (z) = 0.68164 0.68164
#
# Static dielectric constant tensor:
#      x y z
#    x 3.292280 0.000000 0.000000 
#    y 0.000000 3.292280 0.000000 
#    z 0.000000 0.000000 2.866940 
# 
# 
# High freq. dielectric constant tensor:
#      x y z
#    x 1.668480 0.000000 0.000000 
#    y 0.000000 1.668480 0.000000 
#    z 0.000000 0.000000 1.626770 
# 
# From -- ./inp_files/8445.got.cif
#   From: 2010.03.12/outbox.cif.g09.slc.cpg/sg136_5_cif.got.tgz:8445.got - 2010.04.06 18:39:43.
