data_PCOD8318129
_publ_section_title
;
Structure prediction by ZEFSAII (Michael W. Deem and Ramdas Pophale) SiO2 
 PCOD8318129
Probable space group: P 42/M N M
;
_chemical_formula_sum "Si O2"
_cell_formula_units_Z 96
_cell_length_a 24.007996
_cell_length_b 24.007996
_cell_length_c 7.750322
_cell_angle_alpha 90.000000
_cell_angle_beta 90.000000
_cell_angle_gamma 90.000000
_cell_volume 4467.160603
_symmetry_space_group_name_H-M "P 42/M N M"
_symmetry_group_IT_number 136
_symmetry_cell_setting 'tetragonal'
loop_
_space_group_symop_operation_xyz
x,y,z
1/2-y,1/2+x,1/2+z
-x,-y,z
1/2+y,1/2-x,1/2+z
1/2+x,1/2-y,1/2-z
1/2-x,1/2+y,1/2-z
y,x,-z
-y,-x,-z
-x,-y,-z
1/2+y,1/2-x,1/2-z
x,y,-z
1/2-y,1/2+x,1/2-z
1/2-x,1/2+y,1/2+z
1/2+x,1/2-y,1/2+z
-y,-x,z
y,x,z
loop_
_atom_site_type_symbol
_atom_site_label
_atom_site_fract_x
_atom_site_fract_y
_atom_site_fract_z
Si Si1 0.361416 0.547333 0.797438
Si Si2 0.041132 0.343871 0.193585
Si Si3 0.135778 0.778389 0.000000
Si Si4 0.174645 0.703280 0.312126
Si Si5 0.611862 0.253407 0.193179
Si Si6 0.638665 0.543504 0.500000
Si Si7 0.428934 0.123256 0.809680
O O1 0.418525 0.581476 0.777817
O O2 0.310380 0.586413 0.729593
O O3 0.365284 0.493357 0.674701
O O4 0.352367 0.529885 0.000000
O O5 0.062791 0.292979 0.307863
O O6 0.063984 0.404672 0.257401
O O7 0.974492 0.348691 0.187960
O O8 0.063164 0.332804 0.000000
O O9 0.159405 0.747787 0.831863
O O10 0.070854 0.797978 0.000000
O O11 0.160910 0.839091 0.000000
O O12 0.179096 0.732767 0.500000
O O13 0.231920 0.668455 0.284492
O O14 0.125321 0.660187 0.309409
O O15 0.630255 0.265955 0.000000
O O16 0.587155 0.587155 0.500000
O O17 0.455756 0.118392 0.000000
#
# Coordination Sequence:
#
# PCOD8318129 Si02
#       7
#    16  16   8  16  16   8  16
#     4  10  24  44  69 104 137 172 220 280 353 416
#     4  10  21  33  52  80 114 161 214 268 324 379
#     4  11  26  45  66  95 130 176 220 258 323 390
#     4  10  22  40  62  93 131 172 217 267 322 385
#     4  10  20  37  62  94 132 170 214 271 331 397
#     4  11  27  48  71 102 138 179 232 282 329 412
#     4   9  20  35  50  77 113 155 209 261 317 376
#
# _framework density 21.490162000000002
#
# number of rings (size 3 to 8) (size 9 to 14) (size 15 to 20)
#    0.000    2.000    0.833    2.250    5.833    4.333 
#    0.000    4.167    0.000    0.000    0.000    0.000 
#    0.000    0.000    0.000    0.000    0.000    0.000 
#
# Total GULP energy -1189270.945991 kJ/mol
# GULP energy per Si atom -12388.239021 kJ/mol
# Density = 2.144125 g / cm^3
# Si number density = 21.490162 Si / 1000 Ang^3
#
#
#
# Elastic Constant Matrix: (Units=GPa)
#
#
# Indices 1 2 3 4 5 6 
#
# 1 96.1961 41.6547 47.2905 0.0000 0.0000 0.0000
# 2 41.6547 96.1976 47.2922 0.0000 0.0000 0.0000
# 3 47.2905 47.2922 119.9339 0.0000 0.0000 0.0000
# 4 0.0000 0.0000 0.0000 27.2030 0.0000 0.0000
# 5 0.0000 0.0000 0.0000 0.0000 27.2026 0.0000
# 6 0.0000 0.0000 0.0000 0.0000 0.0000 26.7973
#
#
#
# Elastic Compliance Matrix: (Units=1/GPa)
#
#
# Indices 1 2 3 4 5 6 
#
# 1 0.014140 -0.004195 -0.003921 0.000000 0.000000 0.000000
# 2 -0.004195 0.014140 -0.003921 0.000000 0.000000 0.000000
# 3 -0.003921 -0.003921 0.011430 0.000000 0.000000 0.000000
# 4 0.000000 0.000000 0.000000 0.036761 0.000000 0.000000
# 5 0.000000 0.000000 0.000000 0.000000 0.036761 0.000000
# 6 0.000000 0.000000 0.000000 0.000000 0.000000 0.037317
#
#
# Mechanical properties :
#
#
# Convention : Reuss Voigt Hill
#
# Bulk Modulus (GPa) = 63.96116 64.97804 64.46960
# Shear Modulus (GPa) = 27.80326 27.97992 27.89159
#
# Velocity S-wave (km/s) = 3.60080 3.61222 3.60651
# Velocity P-wave (km/s) = 6.86406 6.90647 6.88530
#
# Compressibility (1/GPa) = 0.01563449
#
# Stress axis : x y z
#
# Youngs Moduli (GPa) = 70.72351 70.72372 87.48629
#
# Poissons Ratio (x) = 0.29668 0.34305
# Poissons Ratio (y) = 0.29668 0.34307
# Poissons Ratio (z) = 0.27732 0.27734
#
# Static dielectric constant tensor:
#      x y z
#    x 4.027710 0.000000 0.000000 
#    y 0.000000 4.027700 0.000000 
#    z 0.000000 0.000000 3.596280 
# 
# 
# High freq. dielectric constant tensor:
#      x y z
#    x 1.839770 0.000000 0.000000 
#    y 0.000000 1.839780 0.000000 
#    z 0.000000 0.000000 1.846320 
# 
# From -- ./inp_files/2029.got.cif
#   From: 2010.03.12/outbox.cif.g09.slc.cpg/sg136_2_cif.got.tgz:2029.got - 2010.04.06 18:39:43.
