data_PCOD8318281
_publ_section_title
;
Structure prediction by ZEFSAII (Michael W. Deem and Ramdas Pophale) SiO2 
 PCOD8318281
Probable space group: P 42/M N M
;
_chemical_formula_sum "Si O2"
_cell_formula_units_Z 56
_cell_length_a 14.253720
_cell_length_b 14.253720
_cell_length_c 15.402625
_cell_angle_alpha 90.000000
_cell_angle_beta 90.000000
_cell_angle_gamma 90.000000
_cell_volume 3129.328739
_symmetry_space_group_name_H-M "P 42/M N M"
_symmetry_group_IT_number 136
_symmetry_cell_setting 'tetragonal'
loop_
_space_group_symop_operation_xyz
x,y,z
1/2-y,1/2+x,1/2+z
-x,-y,z
1/2+y,1/2-x,1/2+z
1/2+x,1/2-y,1/2-z
1/2-x,1/2+y,1/2-z
y,x,-z
-y,-x,-z
-x,-y,-z
1/2+y,1/2-x,1/2-z
x,y,-z
1/2-y,1/2+x,1/2-z
1/2-x,1/2+y,1/2+z
1/2+x,1/2-y,1/2+z
-y,-x,z
y,x,z
loop_
_atom_site_type_symbol
_atom_site_label
_atom_site_fract_x
_atom_site_fract_y
_atom_site_fract_z
Si Si1 0.122679 0.422596 0.000000
Si Si2 0.326046 0.171953 0.325884
Si Si3 0.422772 0.140768 0.500000
Si Si4 0.726848 0.042419 0.669322
Si Si5 0.577720 0.577720 0.097605
O O1 0.180173 0.404142 0.087788
O O2 0.096445 0.531003 0.000000
O O3 0.035532 0.350229 0.000000
O O4 0.227389 0.227389 0.324019
O O5 0.377490 0.190937 0.416972
O O6 0.394320 0.209867 0.252483
O O7 0.311675 0.061281 0.312424
O O8 0.836349 0.033987 0.650204
O O9 0.500000 0.500000 0.091925
O O10 0.607694 0.607694 0.000000
#
# Coordination Sequence:
#
# PCOD8318281 Si02
#       5
#     8  16   8  16   8
#     4   9  18  33  55  80 111 143 186 230 298 336
#     4  11  22  36  57  83 116 151 194 238 289 347
#     4   9  19  34  52  82 113 148 181 235 282 345
#     4  11  21  37  57  85 116 151 194 241 291 351
#     4  11  22  38  60  85 119 158 193 243 303 353
#
# _framework density 17.895211
#
# number of rings (size 3 to 8) (size 9 to 14) (size 15 to 20)
#    0.000    1.571    2.857    3.000    0.000    2.857 
#    0.000    0.000    0.000    0.000    0.000    1.000 
#    0.000    0.000    0.000    0.000    0.000    0.000 
#
# Total GULP energy -694415.444960 kJ/mol
# GULP energy per Si atom -12400.275803 kJ/mol
# Density = 1.785448 g / cm^3
# Si number density = 17.895211 Si / 1000 Ang^3
#
#
#
# Elastic Constant Matrix: (Units=GPa)
#
#
# Indices 1 2 3 4 5 6 
#
# 1 75.1953 21.3936 36.4622 0.0000 0.0000 0.0000
# 2 21.3936 75.1953 36.4622 0.0000 0.0000 0.0000
# 3 36.4622 36.4622 136.8352 0.0000 0.0000 0.0000
# 4 0.0000 0.0000 0.0000 26.6408 0.0000 0.0000
# 5 0.0000 0.0000 0.0000 0.0000 26.6408 0.0000
# 6 0.0000 0.0000 0.0000 0.0000 0.0000 22.6250
#
#
#
# Elastic Compliance Matrix: (Units=1/GPa)
#
#
# Indices 1 2 3 4 5 6 
#
# 1 0.015774 -0.002813 -0.003454 0.000000 0.000000 0.000000
# 2 -0.002813 0.015774 -0.003454 0.000000 0.000000 0.000000
# 3 -0.003454 -0.003454 0.009149 0.000000 0.000000 0.000000
# 4 0.000000 0.000000 0.000000 0.037536 0.000000 0.000000
# 5 0.000000 0.000000 0.000000 0.000000 0.037536 0.000000
# 6 0.000000 0.000000 0.000000 0.000000 0.000000 0.044199
#
#
# Mechanical properties :
#
#
# Convention : Reuss Voigt Hill
#
# Bulk Modulus (GPa) = 47.04672 52.87354 49.96013
# Shear Modulus (GPa) = 26.81059 28.04183 27.42621
#
# Velocity S-wave (km/s) = 3.87486 3.96283 3.91909
# Velocity P-wave (km/s) = 6.80930 7.10979 6.96116
#
# Compressibility (1/GPa) = 0.02125547
#
# Stress axis : x y z
#
# Youngs Moduli (GPa) = 63.39671 63.39671 109.30631
#
# Poissons Ratio (x) = 0.17834 0.37750
# Poissons Ratio (y) = 0.17834 0.37750
# Poissons Ratio (z) = 0.21895 0.21895
#
# Static dielectric constant tensor:
#      x y z
#    x 3.261640 0.000000 0.000000 
#    y 0.000000 3.261640 0.000000 
#    z 0.000000 0.000000 3.509580 
# 
# 
# High freq. dielectric constant tensor:
#      x y z
#    x 1.686100 0.000000 0.000000 
#    y 0.000000 1.686100 0.000000 
#    z 0.000000 0.000000 1.706500 
# 
# From -- ./inp_files/3125.got.cif
#   From: 2010.03.12/outbox.cif.g09.slc.cpg/sg136_2_cif.got.tgz:3125.got - 2010.04.06 18:39:43.
