data_PCOD8318677
_publ_section_title
;
Structure prediction by ZEFSAII (Michael W. Deem and Ramdas Pophale) SiO2 
 PCOD8318677
Probable space group: P 42/N M C
;
_chemical_formula_sum "Si O2"
_cell_formula_units_Z 112
_cell_length_a 14.450540
_cell_length_b 14.450540
_cell_length_c 25.348082
_cell_angle_alpha 90.000000
_cell_angle_beta 90.000000
_cell_angle_gamma 90.000000
_cell_volume 5293.138481
_symmetry_space_group_name_H-M "P 42/N M C"
_symmetry_group_IT_number 137
_space_group.IT_coordinate_system_code '2'
_symmetry_cell_setting 'tetragonal'
loop_
_space_group_symop_operation_xyz
x,y,z
1/2-y,x,1/2+z
1/2-x,1/2-y,z
y,1/2-x,1/2+z
1/2+x,-y,-z
-x,1/2+y,-z
1/2+y,1/2+x,1/2-z
-y,-x,1/2-z
-x,-y,-z
1/2+y,-x,1/2-z
1/2+x,1/2+y,-z
-y,1/2+x,1/2-z
1/2-x,y,z
x,1/2-y,z
1/2-y,1/2-x,1/2+z
y,x,1/2+z
loop_
_atom_site_type_symbol
_atom_site_label
_atom_site_fract_x
_atom_site_fract_y
_atom_site_fract_z
Si Si1 0.470078 0.457800 0.841092
Si Si2 0.642008 0.646309 0.456203
Si Si3 0.141333 0.643466 0.382478
Si Si4 0.532719 0.860139 0.556540
Si Si5 0.359083 0.850664 0.997913
Si Si6 0.354052 0.145057 0.757556
Si Si7 0.953463 0.853838 0.848910
O O1 0.574315 0.417510 0.845611
O O2 0.408370 0.428516 0.891205
O O3 0.424616 0.420571 0.788005
O O4 0.469265 0.569504 0.835775
O O5 0.750000 0.646408 0.467122
O O6 0.604064 0.750000 0.447734
O O7 0.593404 0.602658 0.507510
O O8 0.615951 0.589578 0.404520
O O9 0.250000 0.629701 0.371423
O O10 0.113019 0.750000 0.370347
O O11 0.117903 0.615729 0.442815
O O12 0.542219 0.750000 0.563258
O O13 0.426556 0.891336 0.544763
O O14 0.250000 0.839441 0.995676
O O15 0.404507 0.750000 0.984145
O O16 0.250000 0.127255 0.778500
O O17 0.384216 0.250000 0.767729
O O18 0.358081 0.126046 0.695220
O O19 0.996707 0.750000 0.851046
#
# Coordination Sequence:
#
# PCOD8318677 Si02
#       7
#    16  16  16  16  16  16  16
#     4  12  23  36  58  89 120 152 188 234 291 356
#     4   9  18  34  56  82 114 152 195 243 290 335
#     4   9  19  35  54  79 113 151 188 227 276 339
#     4  10  21  35  52  81 120 154 185 229 287 343
#     4   8  15  30  50  71 103 151 198 231 264 322
#     4  10  22  42  66  88 112 146 191 243 297 352
#     4  10  22  39  59  84 114 152 200 248 288 332
#
# _framework density 21.159469999999999
#
# number of rings (size 3 to 8) (size 9 to 14) (size 15 to 20)
#    0.000    2.286    0.000    3.429    0.000    8.000 
#    0.000    4.286    0.000    1.286    0.000    6.000 
#    0.000    0.000    0.000    0.000    0.000    0.143 
#
# Total GULP energy -1388748.112209 kJ/mol
# GULP energy per Si atom -12399.536716 kJ/mol
# Density = 2.111131 g / cm^3
# Si number density = 21.159470 Si / 1000 Ang^3
#
#
#
# Elastic Constant Matrix: (Units=GPa)
#
#
# Indices 1 2 3 4 5 6 
#
# 1 72.5918 30.2146 30.8894 0.0000 0.0000 0.0000
# 2 30.2146 72.5918 30.8894 0.0000 0.0000 0.0000
# 3 30.8894 30.8894 81.0845 0.0000 0.0000 0.0000
# 4 0.0000 0.0000 0.0000 27.6976 0.0000 0.0000
# 5 0.0000 0.0000 0.0000 0.0000 27.6976 0.0000
# 6 0.0000 0.0000 0.0000 0.0000 0.0000 27.2848
#
#
#
# Elastic Compliance Matrix: (Units=1/GPa)
#
#
# Indices 1 2 3 4 5 6 
#
# 1 0.018106 -0.005491 -0.004806 0.000000 0.000000 0.000000
# 2 -0.005491 0.018106 -0.004806 0.000000 0.000000 0.000000
# 3 -0.004806 -0.004806 0.015994 0.000000 0.000000 0.000000
# 4 0.000000 0.000000 0.000000 0.036104 0.000000 0.000000
# 5 0.000000 0.000000 0.000000 0.000000 0.036104 0.000000
# 6 0.000000 0.000000 0.000000 0.000000 0.000000 0.036650
#
#
# Mechanical properties :
#
#
# Convention : Reuss Voigt Hill
#
# Bulk Modulus (GPa) = 45.45182 45.58389 45.51785
# Shear Modulus (GPa) = 25.17560 25.48762 25.33161
#
# Velocity S-wave (km/s) = 3.45309 3.47443 3.46378
# Velocity P-wave (km/s) = 6.11766 6.13884 6.12826
#
# Compressibility (1/GPa) = 0.02200132
#
# Stress axis : x y z
#
# Youngs Moduli (GPa) = 55.22956 55.22956 62.52236
#
# Poissons Ratio (x) = 0.30329 0.30046
# Poissons Ratio (y) = 0.30329 0.30046
# Poissons Ratio (z) = 0.26542 0.26542
#
# Static dielectric constant tensor:
#      x y z
#    x 3.872420 0.000000 0.000000 
#    y 0.000000 3.872420 0.000000 
#    z 0.000000 0.000000 3.619680 
# 
# 
# High freq. dielectric constant tensor:
#      x y z
#    x 1.827620 0.000000 0.000000 
#    y 0.000000 1.827620 0.000000 
#    z 0.000000 0.000000 1.815090 
# 
# From -- ./inp_files/8981.got.cif
#   From: 2010.03.12/outbox.cif.g09.slc.cpg/sg137_5_cif.got.tgz:8981.got - 2010.04.08 09:34:49.
