data_PCOD8318096
_publ_section_title
;
Structure prediction by ZEFSAII (Michael W. Deem and Ramdas Pophale) SiO2 
 PCOD8318096
Probable space group: P 42/M N M
;
_chemical_formula_sum "Si O2"
_cell_formula_units_Z 96
_cell_length_a 24.605660
_cell_length_b 24.605660
_cell_length_c 8.788265
_cell_angle_alpha 90.000000
_cell_angle_beta 90.000000
_cell_angle_gamma 90.000000
_cell_volume 5320.754015
_symmetry_space_group_name_H-M "P 42/M N M"
_symmetry_group_IT_number 136
_symmetry_cell_setting 'tetragonal'
loop_
_space_group_symop_operation_xyz
x,y,z
1/2-y,1/2+x,1/2+z
-x,-y,z
1/2+y,1/2-x,1/2+z
1/2+x,1/2-y,1/2-z
1/2-x,1/2+y,1/2-z
y,x,-z
-y,-x,-z
-x,-y,-z
1/2+y,1/2-x,1/2-z
x,y,-z
1/2-y,1/2+x,1/2-z
1/2-x,1/2+y,1/2+z
1/2+x,1/2-y,1/2+z
-y,-x,z
y,x,z
loop_
_atom_site_type_symbol
_atom_site_label
_atom_site_fract_x
_atom_site_fract_y
_atom_site_fract_z
Si Si1 0.576496 0.423505 0.679551
Si Si2 0.834495 0.834495 0.179719
Si Si3 0.878610 0.032644 0.322718
Si Si4 0.230810 0.986985 0.822056
Si Si5 0.414606 0.866780 0.324305
Si Si6 0.461219 0.148211 0.674313
Si Si7 0.243468 0.600975 0.820840
O O1 0.571815 0.428186 0.500000
O O2 0.620899 0.379102 0.728378
O O3 0.518420 0.406728 0.743969
O O4 0.848978 0.776703 0.252490
O O5 0.829109 0.829109 0.000000
O O6 0.873624 0.019842 0.500000
O O7 0.914061 0.085940 0.290580
O O8 0.818870 0.045121 0.254877
O O9 0.287417 0.955892 0.791096
O O10 0.232801 0.046862 0.753733
O O11 0.219574 0.993325 0.000000
O O12 0.405924 0.851389 0.500000
O O13 0.384430 0.922454 0.286591
O O14 0.478392 0.872833 0.289553
O O15 0.389505 0.819314 0.221273
O O16 0.445466 0.136006 0.500000
O O17 0.250601 0.597600 0.000000
#
# Coordination Sequence:
#
# PCOD8318096 Si02
#       7
#     8   8  16  16  16  16  16
#     4  11  22  34  53  78 109 146 182 230 282 332
#     4  11  21  34  54  81 111 142 183 233 279 329
#     4  11  23  36  52  77 109 144 185 233 279 330
#     4  10  20  36  56  79 107 143 184 226 271 325
#     4  10  21  37  58  85 116 149 183 224 272 327
#     4   9  20  37  57  83 114 144 181 225 271 328
#     4  11  21  34  56  82 109 142 181 225 275 328
#
# _framework density 18.042555
#
# number of rings (size 3 to 8) (size 9 to 14) (size 15 to 20)
#    0.000    1.667    1.667    4.750    0.000    7.333 
#    0.000    1.667    1.833    0.000    0.000    0.000 
#    0.000    0.000    0.000    0.000    0.000    0.000 
#
# Total GULP energy -1190801.133055 kJ/mol
# GULP energy per Si atom -12404.178469 kJ/mol
# Density = 1.800149 g / cm^3
# Si number density = 18.042555 Si / 1000 Ang^3
#
#
#
# Elastic Constant Matrix: (Units=GPa)
#
#
# Indices 1 2 3 4 5 6 
#
# 1 96.0230 57.6214 44.2321 0.0000 0.0000 0.0000
# 2 57.6214 96.0230 44.2323 0.0000 0.0000 0.0000
# 3 44.2321 44.2323 87.0326 0.0000 0.0000 0.0000
# 4 0.0000 0.0000 0.0000 32.3422 0.0000 0.0000
# 5 0.0000 0.0000 0.0000 0.0000 32.3422 0.0000
# 6 0.0000 0.0000 0.0000 0.0000 0.0000 28.8865
#
#
#
# Elastic Compliance Matrix: (Units=1/GPa)
#
#
# Indices 1 2 3 4 5 6 
#
# 1 0.017621 -0.008420 -0.004676 0.000000 0.000000 0.000000
# 2 -0.008420 0.017621 -0.004676 0.000000 0.000000 0.000000
# 3 -0.004676 -0.004676 0.016243 0.000000 0.000000 0.000000
# 4 0.000000 0.000000 0.000000 0.030919 0.000000 0.000000
# 5 0.000000 0.000000 0.000000 0.000000 0.030919 0.000000
# 6 0.000000 0.000000 0.000000 0.000000 0.000000 0.034618
#
#
# Mechanical properties :
#
#
# Convention : Reuss Voigt Hill
#
# Bulk Modulus (GPa) = 62.73409 63.47224 63.10317
# Shear Modulus (GPa) = 26.48316 27.58037 27.03176
#
# Velocity S-wave (km/s) = 3.83537 3.91401 3.87489
# Velocity P-wave (km/s) = 7.37963 7.46201 7.42093
#
# Compressibility (1/GPa) = 0.01594030
#
# Stress axis : x y z
#
# Youngs Moduli (GPa) = 56.75128 56.75109 61.56489
#
# Poissons Ratio (x) = 0.47784 0.28788
# Poissons Ratio (y) = 0.47784 0.28789
# Poissons Ratio (z) = 0.26537 0.26538
#
# Static dielectric constant tensor:
#      x y z
#    x 3.317990 0.000000 0.000000 
#    y 0.000000 3.317990 0.000000 
#    z 0.000000 0.000000 3.414140 
# 
# 
# High freq. dielectric constant tensor:
#      x y z
#    x 1.690400 0.000000 0.000000 
#    y 0.000000 1.690400 0.000000 
#    z 0.000000 0.000000 1.715140 
# 
# From -- ./inp_files/2082.got.cif
#   From: 2010.03.12/outbox.cif.g09.slc.cpg/sg136_2_cif.got.tgz:2082.got - 2010.04.06 18:39:43.
