data_PCOD8318689
_publ_section_title
;
Structure prediction by ZEFSAII (Michael W. Deem and Ramdas Pophale) SiO2 
 PCOD8318689
Probable space group: P 42/N M C
;
_chemical_formula_sum "Si O2"
_cell_formula_units_Z 96
_cell_length_a 14.588778
_cell_length_b 14.588778
_cell_length_c 23.133741
_cell_angle_alpha 90.000000
_cell_angle_beta 90.000000
_cell_angle_gamma 90.000000
_cell_volume 4923.610625
_symmetry_space_group_name_H-M "P 42/N M C"
_symmetry_group_IT_number 137
_space_group.IT_coordinate_system_code '2'
_symmetry_cell_setting 'tetragonal'
loop_
_space_group_symop_operation_xyz
x,y,z
1/2-y,x,1/2+z
1/2-x,1/2-y,z
y,1/2-x,1/2+z
1/2+x,-y,-z
-x,1/2+y,-z
1/2+y,1/2+x,1/2-z
-y,-x,1/2-z
-x,-y,-z
1/2+y,-x,1/2-z
1/2+x,1/2+y,-z
-y,1/2+x,1/2-z
1/2-x,y,z
x,1/2-y,z
1/2-y,1/2-x,1/2+z
y,x,1/2+z
loop_
_atom_site_type_symbol
_atom_site_label
_atom_site_fract_x
_atom_site_fract_y
_atom_site_fract_z
Si Si1 0.856426 0.643028 0.873551
Si Si2 0.150154 0.358365 0.755505
Si Si3 0.855812 0.355812 0.250000
Si Si4 0.354267 0.854267 0.250000
Si Si5 0.000247 0.519000 0.932921
Si Si6 0.642536 0.358115 0.374876
Si Si7 0.858360 0.001580 0.655257
O O1 0.750000 0.621271 0.882914
O O2 0.876580 0.750000 0.885936
O O3 0.889014 0.617814 0.808332
O O4 0.911875 0.579248 0.917163
O O5 0.250000 0.401100 0.769214
O O6 0.156942 0.250000 0.754770
O O7 0.082656 0.391822 0.805106
O O8 0.875727 0.250000 0.255703
O O9 0.897628 0.389497 0.188820
O O10 0.374448 0.750000 0.266767
O O11 0.408515 0.881342 0.192465
O O12 0.998896 0.419809 0.901886
O O13 0.091280 0.577946 0.920295
O O14 0.000000 0.500000 0.000000
O O15 0.750000 0.381014 0.385188
O O16 0.626690 0.250000 0.381163
O O17 0.750000 0.995835 0.638887
#
# Coordination Sequence:
#
# PCOD8318689 Si02
#       7
#    16  16   8   8  16  16  16
#     4   9  19  38  63  87 110 138 176 228 287 338
#     4   8  15  31  57  86 111 135 170 222 284 344
#     4   7  12  27  54  86 114 135 160 207 276 348
#     4   9  18  35  60  86 108 134 176 232 292 345
#     4  12  26  38  53  78 112 154 200 235 260 308
#     4   9  19  38  62  87 115 143 175 224 284 340
#     4  10  21  36  54  79 113 149 182 225 282 334
#
# _framework density 19.497886000000001
#
# number of rings (size 3 to 8) (size 9 to 14) (size 15 to 20)
#    0.000    2.667    0.000    3.500    0.000    6.667 
#    0.000    3.333    0.000    4.000    0.000    0.000 
#    0.000    0.000    0.000    0.000    0.000    0.000 
#
# Total GULP energy -1189670.348430 kJ/mol
# GULP energy per Si atom -12392.399463 kJ/mol
# Density = 1.945351 g / cm^3
# Si number density = 19.497886 Si / 1000 Ang^3
#
#
#
# Elastic Constant Matrix: (Units=GPa)
#
#
# Indices 1 2 3 4 5 6 
#
# 1 102.6773 53.4525 70.6510 0.0000 0.0000 0.0000
# 2 53.4525 102.6773 70.6510 0.0000 0.0000 0.0000
# 3 70.6510 70.6510 169.0198 0.0000 0.0000 0.0000
# 4 0.0000 0.0000 0.0000 -2.1244 0.0000 0.0000
# 5 0.0000 0.0000 0.0000 0.0000 -2.1244 0.0000
# 6 0.0000 0.0000 0.0000 0.0000 0.0000 30.1220
#
#
#
# Elastic Compliance Matrix: (Units=1/GPa)
#
#
# Indices 1 2 3 4 5 6 
#
# 1 0.015309 -0.005006 -0.004306 0.000000 0.000000 0.000000
# 2 -0.005006 0.015309 -0.004306 0.000000 0.000000 0.000000
# 3 -0.004306 -0.004306 0.009517 0.000000 0.000000 0.000000
# 4 0.000000 0.000000 0.000000 -0.470731 0.000000 0.000000
# 5 0.000000 0.000000 0.000000 0.000000 -0.470731 0.000000
# 6 0.000000 0.000000 0.000000 0.000000 0.000000 0.033198
#
#
# Mechanical properties :
#
#
# Convention : Reuss Voigt Hill
#
# Bulk Modulus (GPa) = 77.54529 84.87595 81.21062
# Shear Modulus (GPa) = -5.97662 17.14933 5.58636
#
# Velocity S-wave (km/s) = -1.75269 2.96894 1.69450
# Velocity P-wave (km/s) = 5.98010 7.44165 6.75054
#
# Compressibility (1/GPa) = 0.01289569
#
# Stress axis : x y z
#
# Youngs Moduli (GPa) = 65.32251 65.32251 105.07857
#
# Poissons Ratio (x) = 0.32702 0.45251
# Poissons Ratio (y) = 0.32702 0.45251
# Poissons Ratio (z) = 0.28131 0.28131
#
# Static dielectric constant tensor:
#      x y z
#    x 3.623530 0.000000 0.000000 
#    y 0.000000 3.623530 0.000000 
#    z 0.000000 0.000000 3.339200 
# 
# 
# High freq. dielectric constant tensor:
#      x y z
#    x 1.765010 0.000000 0.000000 
#    y 0.000000 1.765010 0.000000 
#    z 0.000000 0.000000 1.727700 
# 
# From -- ./inp_files/8871.got.cif
#   From: 2010.03.12/outbox.cif.g09.slc.cpg/sg137_5_cif.got.tgz:8871.got - 2010.04.08 09:34:49.
