data_PCOD8318339
_publ_section_title
;
Structure prediction by ZEFSAII (Michael W. Deem and Ramdas Pophale) SiO2 
 PCOD8318339
Probable space group: P 42/M N M
;
_chemical_formula_sum "Si O2"
_cell_formula_units_Z 96
_cell_length_a 19.859111
_cell_length_b 19.859111
_cell_length_c 19.946911
_cell_angle_alpha 90.000000
_cell_angle_beta 90.000000
_cell_angle_gamma 90.000000
_cell_volume 7866.748327
_symmetry_space_group_name_H-M "P 42/M N M"
_symmetry_group_IT_number 136
_symmetry_cell_setting 'tetragonal'
loop_
_space_group_symop_operation_xyz
x,y,z
1/2-y,1/2+x,1/2+z
-x,-y,z
1/2+y,1/2-x,1/2+z
1/2+x,1/2-y,1/2-z
1/2-x,1/2+y,1/2-z
y,x,-z
-y,-x,-z
-x,-y,-z
1/2+y,1/2-x,1/2-z
x,y,-z
1/2-y,1/2+x,1/2-z
1/2-x,1/2+y,1/2+z
1/2+x,1/2-y,1/2+z
-y,-x,z
y,x,z
loop_
_atom_site_type_symbol
_atom_site_label
_atom_site_fract_x
_atom_site_fract_y
_atom_site_fract_z
Si Si1 0.558276 0.090530 0.324838
Si Si2 0.526450 0.200524 0.422762
Si Si3 0.597187 0.597187 0.580190
Si Si4 0.402915 0.053528 0.324197
Si Si5 0.955952 0.850315 0.920312
Si Si6 0.796373 0.203628 0.920753
Si Si7 0.335045 0.871936 0.922562
O O1 0.570346 0.147207 0.380711
O O2 0.481614 0.067518 0.329189
O O3 0.572157 0.121325 0.250959
O O4 0.606978 0.026331 0.339192
O O5 0.544936 0.188647 0.500000
O O6 0.549629 0.273435 0.396460
O O7 0.446341 0.195070 0.411756
O O8 0.598287 0.598287 0.500000
O O9 0.523705 0.615867 0.608326
O O10 0.650601 0.650601 0.609893
O O11 0.361491 0.098093 0.377685
O O12 0.891709 0.891709 0.893059
O O13 0.959324 0.852409 0.000000
O O14 0.720692 0.182888 0.898753
O O15 0.801807 0.198194 0.000000
O O16 0.355203 0.860880 0.000000
#
# Coordination Sequence:
#
# PCOD8318339 Si02
#       7
#    16  16   8  16  16   8  16
#     4   8  14  24  36  48  64  84 110 138 166 198
#     4   9  15  22  33  49  66  86 110 138 168 194
#     4   9  13  20  31  44  64  88 112 137 161 188
#     4   8  14  24  36  49  63  84 110 136 166 201
#     4   9  15  21  30  45  64  87 114 139 163 191
#     4   9  14  21  32  47  68  88 105 131 166 202
#     4   9  15  22  34  50  67  85 107 135 168 200
#
# _framework density 12.203263
#
# number of rings (size 3 to 8) (size 9 to 14) (size 15 to 20)
#    0.000    3.333    1.667    1.250    0.000    1.667 
#    0.000    3.333    1.833    0.000    0.000    0.000 
#    0.000    0.000    0.000    0.000    0.000    0.000 
#
# Total GULP energy -1189629.088638 kJ/mol
# GULP energy per Si atom -12391.969673 kJ/mol
# Density = 1.217549 g / cm^3
# Si number density = 12.203263 Si / 1000 Ang^3
#
#
#
# Elastic Constant Matrix: (Units=GPa)
#
#
# Indices 1 2 3 4 5 6 
#
# 1 67.3897 39.6636 36.4136 0.0000 0.0000 0.0000
# 2 39.6636 67.3898 36.4136 0.0000 0.0000 0.0000
# 3 36.4136 36.4136 52.1183 0.0000 0.0000 0.0000
# 4 0.0000 0.0000 0.0000 6.8648 0.0000 0.0000
# 5 0.0000 0.0000 0.0000 0.0000 6.8648 0.0000
# 6 0.0000 0.0000 0.0000 0.0000 0.0000 12.4235
#
#
#
# Elastic Compliance Matrix: (Units=1/GPa)
#
#
# Indices 1 2 3 4 5 6 
#
# 1 0.026935 -0.009132 -0.012438 0.000000 0.000000 0.000000
# 2 -0.009132 0.026935 -0.012438 0.000000 0.000000 0.000000
# 3 -0.012438 -0.012438 0.036568 0.000000 0.000000 0.000000
# 4 0.000000 0.000000 0.000000 0.145670 0.000000 0.000000
# 5 0.000000 0.000000 0.000000 0.000000 0.145670 0.000000
# 6 0.000000 0.000000 0.000000 0.000000 0.000000 0.080492
#
#
# Mechanical properties :
#
#
# Convention : Reuss Voigt Hill
#
# Bulk Modulus (GPa) = 44.60294 45.76439 45.18366
# Shear Modulus (GPa) = 9.29781 10.19110 9.74445
#
# Velocity S-wave (km/s) = 2.76327 2.89297 2.82886
# Velocity P-wave (km/s) = 6.84180 6.98156 6.91203
#
# Compressibility (1/GPa) = 0.02242005
#
# Stress axis : x y z
#
# Youngs Moduli (GPa) = 37.12643 37.12666 27.34658
#
# Poissons Ratio (x) = 0.33905 0.34015
# Poissons Ratio (y) = 0.33904 0.34014
# Poissons Ratio (z) = 0.46179 0.46179
#
# Static dielectric constant tensor:
#      x y z
#    x 2.562460 0.000000 0.000000 
#    y 0.000000 2.562460 0.000000 
#    z 0.000000 0.000000 2.375200 
# 
# 
# High freq. dielectric constant tensor:
#      x y z
#    x 1.444310 0.000000 0.000000 
#    y 0.000000 1.444310 0.000000 
#    z 0.000000 0.000000 1.428980 
# 
# From -- ./inp_files/6529.got.cif
#   From: 2010.03.12/outbox.cif.g09.slc.cpg/sg136_4_cif.got.tgz:6529.got - 2010.04.06 18:39:43.
