data_PCOD8318579
_publ_section_title
;
Structure prediction by ZEFSAII (Michael W. Deem and Ramdas Pophale) SiO2 
 PCOD8318579
Probable space group: P 42/N M C
;
_chemical_formula_sum "Si O2"
_cell_formula_units_Z 96
_cell_length_a 20.643143
_cell_length_b 20.643143
_cell_length_c 11.993054
_cell_angle_alpha 90.000000
_cell_angle_beta 90.000000
_cell_angle_gamma 90.000000
_cell_volume 5110.712271
_symmetry_space_group_name_H-M "P 42/N M C"
_symmetry_group_IT_number 137
_space_group.IT_coordinate_system_code '2'
_symmetry_cell_setting 'tetragonal'
loop_
_space_group_symop_operation_xyz
x,y,z
1/2-y,x,1/2+z
1/2-x,1/2-y,z
y,1/2-x,1/2+z
1/2+x,-y,-z
-x,1/2+y,-z
1/2+y,1/2+x,1/2-z
-y,-x,1/2-z
-x,-y,-z
1/2+y,-x,1/2-z
1/2+x,1/2+y,-z
-y,1/2+x,1/2-z
1/2-x,y,z
x,1/2-y,z
1/2-y,1/2-x,1/2+z
y,x,1/2+z
loop_
_atom_site_type_symbol
_atom_site_label
_atom_site_fract_x
_atom_site_fract_y
_atom_site_fract_z
Si Si1 0.444367 0.173235 0.345359
Si Si2 0.366683 0.967887 0.264056
Si Si3 0.519904 0.676269 0.892710
Si Si4 0.102817 0.675579 0.026840
Si Si5 0.548484 0.176387 0.517775
Si Si6 0.174268 0.093507 0.390119
O O1 0.446639 0.250000 0.342848
O O2 0.463080 0.142399 0.224560
O O3 0.495585 0.142899 0.434932
O O4 0.369322 0.156700 0.371868
O O5 0.440725 0.940725 0.250000
O O6 0.327619 0.917497 0.342933
O O7 0.334112 0.973170 0.144070
O O8 0.362178 0.037949 0.319584
O O9 0.503855 0.750000 0.866774
O O10 0.455739 0.648553 0.950900
O O11 0.579377 0.670462 0.978326
O O12 0.124066 0.750000 0.000736
O O13 0.157912 0.623640 0.999029
O O14 0.544909 0.250000 0.484938
O O15 0.250000 0.102144 0.353315
#
# Coordination Sequence:
#
# PCOD8318579 Si02
#       6
#    16  16  16  16  16  16
#     4  10  22  37  53  77 111 144 179 228 281 325
#     4   9  18  35  55  81 110 140 176 223 275 332
#     4   8  17  36  54  72 102 139 176 213 263 323
#     4   9  17  33  57  78 104 148 187 218 264 327
#     4  10  20  33  51  80 114 143 176 227 281 320
#     4  10  20  36  59  79 102 142 186 225 271 331
#
# _framework density 18.784074
#
# number of rings (size 3 to 8) (size 9 to 14) (size 15 to 20)
#    0.000    2.667    0.000    2.500    2.333    1.333 
#    3.000    2.500    0.000    6.000    0.000    4.667 
#    0.000    0.000    0.000    0.000    0.000    0.000 
#
# Total GULP energy -1189309.488022 kJ/mol
# GULP energy per Si atom -12388.640500 kJ/mol
# Density = 1.874132 g / cm^3
# Si number density = 18.784074 Si / 1000 Ang^3
#
#
#
# Elastic Constant Matrix: (Units=GPa)
#
#
# Indices 1 2 3 4 5 6 
#
# 1 62.9694 32.6310 48.5700 0.0000 0.0000 0.0000
# 2 32.6310 62.9694 48.5700 0.0000 0.0000 0.0000
# 3 48.5700 48.5700 127.8390 0.0000 0.0000 0.0000
# 4 0.0000 0.0000 0.0000 20.0733 0.0000 0.0000
# 5 0.0000 0.0000 0.0000 0.0000 20.0733 0.0000
# 6 0.0000 0.0000 0.0000 0.0000 0.0000 30.0432
#
#
#
# Elastic Compliance Matrix: (Units=1/GPa)
#
#
# Indices 1 2 3 4 5 6 
#
# 1 0.025000 -0.007962 -0.006473 0.000000 0.000000 0.000000
# 2 -0.007962 0.025000 -0.006473 0.000000 0.000000 0.000000
# 3 -0.006473 -0.006473 0.012741 0.000000 0.000000 0.000000
# 4 0.000000 0.000000 0.000000 0.049817 0.000000 0.000000
# 5 0.000000 0.000000 0.000000 0.000000 0.049817 0.000000
# 6 0.000000 0.000000 0.000000 0.000000 0.000000 0.033285
#
#
# Mechanical properties :
#
#
# Convention : Reuss Voigt Hill
#
# Bulk Modulus (GPa) = 47.79266 57.03555 52.41411
# Shear Modulus (GPa) = 20.45397 22.30507 21.37952
#
# Velocity S-wave (km/s) = 3.30343 3.44967 3.37734
# Velocity P-wave (km/s) = 6.32840 6.80417 6.57059
#
# Compressibility (1/GPa) = 0.02092371
#
# Stress axis : x y z
#
# Youngs Moduli (GPa) = 40.00068 40.00068 78.48676
#
# Poissons Ratio (x) = 0.31849 0.50805
# Poissons Ratio (y) = 0.31849 0.50805
# Poissons Ratio (z) = 0.25893 0.25893
#
# Static dielectric constant tensor:
#      x y z
#    x 3.267150 0.000000 0.000000 
#    y 0.000000 3.267150 0.000000 
#    z 0.000000 0.000000 3.828970 
# 
# 
# High freq. dielectric constant tensor:
#      x y z
#    x 1.711040 0.000000 0.000000 
#    y 0.000000 1.711040 0.000000 
#    z 0.000000 0.000000 1.740810 
# 
# From -- ./inp_files/3736.got.cif
#   From: 2010.03.12/outbox.cif.g09.slc.cpg/sg137_2_cif.got.tgz:3736.got - 2010.04.08 09:34:49.
