data_PCOD8318364
_publ_section_title
;
Structure prediction by ZEFSAII (Michael W. Deem and Ramdas Pophale) SiO2 
 PCOD8318364
Probable space group: P 42/N M C
;
_chemical_formula_sum "Si O2"
_cell_formula_units_Z 96
_cell_length_a 14.205817
_cell_length_b 14.205817
_cell_length_c 31.306219
_cell_angle_alpha 90.000000
_cell_angle_beta 90.000000
_cell_angle_gamma 90.000000
_cell_volume 6317.758934
_symmetry_space_group_name_H-M "P 42/N M C"
_symmetry_group_IT_number 137
_space_group.IT_coordinate_system_code '2'
_symmetry_cell_setting 'tetragonal'
loop_
_space_group_symop_operation_xyz
x,y,z
1/2-y,x,1/2+z
1/2-x,1/2-y,z
y,1/2-x,1/2+z
1/2+x,-y,-z
-x,1/2+y,-z
1/2+y,1/2+x,1/2-z
-y,-x,1/2-z
-x,-y,-z
1/2+y,-x,1/2-z
1/2+x,1/2+y,-z
-y,1/2+x,1/2-z
1/2-x,y,z
x,1/2-y,z
1/2-y,1/2-x,1/2+z
y,x,1/2+z
loop_
_atom_site_type_symbol
_atom_site_label
_atom_site_fract_x
_atom_site_fract_y
_atom_site_fract_z
Si Si1 0.541649 0.141245 0.211921
Si Si2 0.860665 0.027840 0.454276
Si Si3 0.357326 0.644811 0.037500
Si Si4 0.042031 0.143106 0.580580
Si Si5 0.638387 0.144935 0.374250
Si Si6 0.642703 0.855849 0.332692
O O1 0.575363 0.075363 0.250000
O O2 0.565385 0.250000 0.222581
O O3 0.593493 0.107627 0.169049
O O4 0.429432 0.125966 0.205689
O O5 0.750000 0.016741 0.449500
O O6 0.887587 0.077321 0.498464
O O7 0.902283 0.088891 0.414946
O O8 0.906188 0.924390 0.453137
O O9 0.250000 0.643711 0.020711
O O10 0.384039 0.750000 0.053669
O O11 0.370776 0.571006 0.076233
O O12 0.071242 0.250000 0.569201
O O13 0.072644 0.119124 0.628731
O O14 0.750000 0.148992 0.377548
O O15 0.595706 0.250000 0.374240
O O16 0.750000 0.867118 0.349844
O O17 0.624956 0.750000 0.315401
#
# Coordination Sequence:
#
# PCOD8318364 Si02
#       6
#    16  16  16  16  16  16
#     4  10  18  28  43  66  93 116 139 171 212 259
#     4  10  17  27  42  62  89 118 145 177 217 262
#     4   9  18  30  43  61  86 117 151 185 219 255
#     4  10  18  28  44  64  86 112 147 188 219 250
#     4   9  16  25  38  59  88 120 145 165 202 258
#     4   9  17  30  47  67  91 116 143 177 218 261
#
# _framework density 15.195262
#
# number of rings (size 3 to 8) (size 9 to 14) (size 15 to 20)
#    0.000    2.500    1.667    2.000    0.000    3.833 
#    0.000    0.000    0.000    1.000    0.000    0.000 
#    0.000    0.000    0.000    0.000    0.000    0.000 
#
# Total GULP energy -1190117.812143 kJ/mol
# GULP energy per Si atom -12397.060543 kJ/mol
# Density = 1.516068 g / cm^3
# Si number density = 15.195262 Si / 1000 Ang^3
#
#
#
# Elastic Constant Matrix: (Units=GPa)
#
#
# Indices 1 2 3 4 5 6 
#
# 1 76.5757 36.9003 42.4893 0.0000 0.0000 0.0000
# 2 36.9003 76.5757 42.4893 0.0000 0.0000 0.0000
# 3 42.4893 42.4893 72.2136 0.0000 0.0000 0.0000
# 4 0.0000 0.0000 0.0000 22.3973 0.0000 0.0000
# 5 0.0000 0.0000 0.0000 0.0000 22.3973 0.0000
# 6 0.0000 0.0000 0.0000 0.0000 0.0000 17.4377
#
#
#
# Elastic Compliance Matrix: (Units=1/GPa)
#
#
# Indices 1 2 3 4 5 6 
#
# 1 0.020479 -0.004725 -0.009269 0.000000 0.000000 0.000000
# 2 -0.004725 0.020479 -0.009269 0.000000 0.000000 0.000000
# 3 -0.009269 -0.009269 0.024756 0.000000 0.000000 0.000000
# 4 0.000000 0.000000 0.000000 0.044648 0.000000 0.000000
# 5 0.000000 0.000000 0.000000 0.000000 0.044648 0.000000
# 6 0.000000 0.000000 0.000000 0.000000 0.000000 0.057347
#
#
# Mechanical properties :
#
#
# Convention : Reuss Voigt Hill
#
# Bulk Modulus (GPa) = 52.12093 52.12473 52.12283
# Shear Modulus (GPa) = 18.84791 19.34552 19.09672
#
# Velocity S-wave (km/s) = 3.52573 3.57196 3.54892
# Velocity P-wave (km/s) = 7.13790 7.16866 7.15329
#
# Compressibility (1/GPa) = 0.01918615
#
# Stress axis : x y z
#
# Youngs Moduli (GPa) = 48.82989 48.82989 40.39465
#
# Poissons Ratio (x) = 0.23073 0.37443
# Poissons Ratio (y) = 0.23073 0.37443
# Poissons Ratio (z) = 0.45262 0.45262
#
# Static dielectric constant tensor:
#      x y z
#    x 2.979470 0.000000 0.000000 
#    y 0.000000 2.979470 0.000000 
#    z 0.000000 0.000000 2.701910 
# 
# 
# High freq. dielectric constant tensor:
#      x y z
#    x 1.575170 0.000000 0.000000 
#    y 0.000000 1.575170 0.000000 
#    z 0.000000 0.000000 1.555440 
# 
# From -- ./inp_files/10589.got.cif
#   From: 2010.03.12/outbox.cif.g09.slc.cpg/sg137_6_cif.got.tgz:10589.got - 2010.04.08 09:34:49.
