data_PCOD8318840
_publ_section_title
;
Structure prediction by ZEFSAII (Michael W. Deem and Ramdas Pophale) SiO2 
 PCOD8318840
Probable space group: P 42/N C M
;
_chemical_formula_sum "Si O2"
_cell_formula_units_Z 112
_cell_length_a 17.292778
_cell_length_b 17.292778
_cell_length_c 22.023240
_cell_angle_alpha 90.000000
_cell_angle_beta 90.000000
_cell_angle_gamma 90.000000
_cell_volume 6585.833455
_symmetry_space_group_name_H-M "P 42/N C M"
_symmetry_group_IT_number 138
_space_group.IT_coordinate_system_code '2'
_symmetry_cell_setting 'tetragonal'
loop_
_space_group_symop_operation_xyz
x,y,z
1/2-y,x,1/2+z
1/2-x,1/2-y,z
y,1/2-x,1/2+z
1/2+x,-y,1/2-z
-x,1/2+y,1/2-z
1/2+y,1/2+x,-z
-y,-x,-z
-x,-y,-z
1/2+y,-x,1/2-z
1/2+x,1/2+y,-z
-y,1/2+x,1/2-z
1/2-x,y,1/2+z
x,1/2-y,1/2+z
1/2-y,1/2-x,z
y,x,z
loop_
_atom_site_type_symbol
_atom_site_label
_atom_site_fract_x
_atom_site_fract_y
_atom_site_fract_z
Si Si1 0.527790 0.715477 0.536581
Si Si2 0.044627 0.914395 0.612243
Si Si3 0.046052 0.171755 0.144178
Si Si4 0.000664 0.876347 0.983572
Si Si5 0.026133 0.345712 0.777737
Si Si6 0.040625 0.337453 0.095378
Si Si7 0.627295 0.752652 0.648666
O O1 0.465355 0.656418 0.565088
O O2 0.489394 0.797994 0.521435
O O3 0.560211 0.680000 0.474434
O O4 0.599081 0.730384 0.581306
O O5 0.043144 0.879165 0.680640
O O6 0.128304 0.953630 0.602181
O O7 0.975409 0.975409 0.600219
O O8 0.130075 0.130075 0.146932
O O9 0.000082 0.158970 0.207566
O O10 0.055960 0.262949 0.136392
O O11 0.995903 0.138223 0.088868
O O12 0.921018 0.921018 0.000657
O O13 0.074185 0.925816 0.000000
O O14 0.097240 0.402761 0.786160
O O15 0.056882 0.262526 0.803612
O O16 0.098989 0.401012 0.121097
O O17 0.658224 0.841777 0.651772
O O18 0.698588 0.698588 0.665383
#
# Coordination Sequence:
#
# PCOD8318840 Si02
#       7
#    16  16  16  16  16  16  16
#     4  10  17  28  46  66  91 122 154 190 236 282
#     4   9  17  30  48  69  94 124 156 190 230 278
#     4   9  18  32  49  67  92 127 157 189 240 290
#     4   9  18  32  48  67  91 119 156 200 242 287
#     4   8  15  29  45  61  86 122 157 185 222 274
#     4  10  19  29  45  72 100 123 152 190 232 286
#     4   9  16  25  40  64  93 123 152 182 218 269
#
# _framework density 17.006198999999999
#
# number of rings (size 3 to 8) (size 9 to 14) (size 15 to 20)
#    0.000    2.857    0.000    3.000    0.000    2.571 
#    0.000    4.286    0.000   12.000    0.000    0.000 
#    0.000    0.000    0.000    0.000    0.000    0.000 
#
# Total GULP energy -1387927.183760 kJ/mol
# GULP energy per Si atom -12392.206998 kJ/mol
# Density = 1.696749 g / cm^3
# Si number density = 17.006199 Si / 1000 Ang^3
#
#
#
# Elastic Constant Matrix: (Units=GPa)
#
#
# Indices 1 2 3 4 5 6 
#
# 1 72.4837 37.3186 32.2774 0.0000 0.0000 0.0000
# 2 37.3186 72.4826 32.2783 0.0000 0.0000 0.0000
# 3 32.2774 32.2783 93.0425 0.0000 0.0000 0.0000
# 4 0.0000 0.0000 0.0000 14.2115 0.0000 0.0000
# 5 0.0000 0.0000 0.0000 0.0000 14.2111 0.0000
# 6 0.0000 0.0000 0.0000 0.0000 0.0000 25.9019
#
#
#
# Elastic Compliance Matrix: (Units=1/GPa)
#
#
# Indices 1 2 3 4 5 6 
#
# 1 0.019939 -0.008498 -0.003969 0.000000 0.000000 0.000000
# 2 -0.008498 0.019940 -0.003969 0.000000 0.000000 0.000000
# 3 -0.003969 -0.003969 0.013502 0.000000 0.000000 0.000000
# 4 0.000000 0.000000 0.000000 0.070366 0.000000 0.000000
# 5 0.000000 0.000000 0.000000 0.000000 0.070368 0.000000
# 6 0.000000 0.000000 0.000000 0.000000 0.000000 0.038607
#
#
# Mechanical properties :
#
#
# Convention : Reuss Voigt Hill
#
# Bulk Modulus (GPa) = 48.76327 49.08416 48.92371
# Shear Modulus (GPa) = 18.35338 19.94051 19.14695
#
# Velocity S-wave (km/s) = 3.28871 3.42796 3.35905
# Velocity P-wave (km/s) = 6.56939 6.67780 6.62382
#
# Compressibility (1/GPa) = 0.02050724
#
# Stress axis : x y z
#
# Youngs Moduli (GPa) = 50.15295 50.15152 74.06536
#
# Poissons Ratio (x) = 0.42621 0.29395
# Poissons Ratio (y) = 0.42622 0.29398
# Poissons Ratio (z) = 0.19905 0.19906
#
# Static dielectric constant tensor:
#      x y z
#    x 3.054720 0.000000 0.000000 
#    y 0.000000 3.054720 0.000000 
#    z 0.000000 0.000000 3.346820 
# 
# 
# High freq. dielectric constant tensor:
#      x y z
#    x 1.629770 0.000000 0.000000 
#    y 0.000000 1.629770 0.000000 
#    z 0.000000 0.000000 1.663200 
# 
# From -- ./inp_files/6460.got.cif
#   From: 2010.03.12/outbox.cif.g09.slc.cpg/sg138_4_cif.got.tgz:6460.got - 2010.04.08 09:41:05.
