data_PCOD8318729
_publ_section_title
;
Structure prediction by ZEFSAII (Michael W. Deem and Ramdas Pophale) SiO2 
 PCOD8318729
Probable space group: P 42/N M C
;
_chemical_formula_sum "Si O2"
_cell_formula_units_Z 112
_cell_length_a 14.828792
_cell_length_b 14.828792
_cell_length_c 27.526266
_cell_angle_alpha 90.000000
_cell_angle_beta 90.000000
_cell_angle_gamma 90.000000
_cell_volume 6052.835196
_symmetry_space_group_name_H-M "P 42/N M C"
_symmetry_group_IT_number 137
_space_group.IT_coordinate_system_code '2'
_symmetry_cell_setting 'tetragonal'
loop_
_space_group_symop_operation_xyz
x,y,z
1/2-y,x,1/2+z
1/2-x,1/2-y,z
y,1/2-x,1/2+z
1/2+x,-y,-z
-x,1/2+y,-z
1/2+y,1/2+x,1/2-z
-y,-x,1/2-z
-x,-y,-z
1/2+y,-x,1/2-z
1/2+x,1/2+y,-z
-y,1/2+x,1/2-z
1/2-x,y,z
x,1/2-y,z
1/2-y,1/2-x,1/2+z
y,x,1/2+z
loop_
_atom_site_type_symbol
_atom_site_label
_atom_site_fract_x
_atom_site_fract_y
_atom_site_fract_z
Si Si1 0.648297 0.350549 0.670640
Si Si2 0.074238 0.851039 0.067334
Si Si3 0.528406 0.010975 0.401499
Si Si4 0.356478 0.145532 0.634619
Si Si5 0.646957 0.147050 0.037955
Si Si6 0.348188 0.144502 0.743415
Si Si7 0.481778 0.461887 0.798724
O O1 0.750000 0.369728 0.688705
O O2 0.618145 0.250000 0.685570
O O3 0.642780 0.357684 0.612443
O O4 0.580060 0.418711 0.695951
O O5 0.029369 0.750000 0.066049
O O6 0.130288 0.868875 0.018872
O O7 0.999812 0.929812 0.073699
O O8 0.581869 0.085325 0.430793
O O9 0.516419 0.047163 0.346483
O O10 0.584732 0.916898 0.401521
O O11 0.250000 0.128712 0.626634
O O12 0.380076 0.250000 0.623933
O O13 0.385341 0.117200 0.689664
O O14 0.750000 0.123016 0.049455
O O15 0.625236 0.250000 0.052403
O O16 0.250000 0.099470 0.750804
O O17 0.336672 0.250000 0.743571
O O18 0.410587 0.117390 0.788542
O O19 0.476932 0.523069 0.750000
#
# Coordination Sequence:
#
# PCOD8318729 Si02
#       7
#    16  16  16  16  16  16  16
#     4   9  18  31  48  73 108 147 179 209 251 313
#     4   9  19  36  56  81 113 148 181 216 268 334
#     4  11  21  34  57  82 112 141 185 225 274 323
#     4   9  18  33  53  77 104 136 177 225 271 317
#     4  10  21  38  60  83 108 140 183 234 284 335
#     4   9  18  34  53  69  93 137 187 226 263 311
#     4  11  21  32  46  74 106 140 174 219 268 316
#
# _framework density 18.503724999999999
#
# number of rings (size 3 to 8) (size 9 to 14) (size 15 to 20)
#    0.000    2.286    1.429    2.571    0.000    6.857 
#    0.000    0.714    0.000    0.429    0.000    1.000 
#    0.000    0.000    0.000    0.000    0.000    0.000 
#
# Total GULP energy -1388327.898824 kJ/mol
# GULP energy per Si atom -12395.784811 kJ/mol
# Density = 1.846161 g / cm^3
# Si number density = 18.503725 Si / 1000 Ang^3
#
#
#
# Elastic Constant Matrix: (Units=GPa)
#
#
# Indices 1 2 3 4 5 6 
#
# 1 90.1865 47.8947 42.4651 0.0000 0.0000 0.0000
# 2 47.8947 90.1861 42.4650 0.0000 0.0000 0.0000
# 3 42.4651 42.4650 76.0140 0.0000 0.0000 0.0000
# 4 0.0000 0.0000 0.0000 20.7567 0.0000 0.0000
# 5 0.0000 0.0000 0.0000 0.0000 20.7568 0.0000
# 6 0.0000 0.0000 0.0000 0.0000 0.0000 26.3714
#
#
#
# Elastic Compliance Matrix: (Units=1/GPa)
#
#
# Indices 1 2 3 4 5 6 
#
# 1 0.017339 -0.006306 -0.006164 0.000000 0.000000 0.000000
# 2 -0.006306 0.017339 -0.006164 0.000000 0.000000 0.000000
# 3 -0.006164 -0.006164 0.020042 0.000000 0.000000 0.000000
# 4 0.000000 0.000000 0.000000 0.048177 0.000000 0.000000
# 5 0.000000 0.000000 0.000000 0.000000 0.048177 0.000000
# 6 0.000000 0.000000 0.000000 0.000000 0.000000 0.037920
#
#
# Mechanical properties :
#
#
# Convention : Reuss Voigt Hill
#
# Bulk Modulus (GPa) = 57.29395 58.00403 57.64899
# Shear Modulus (GPa) = 21.54432 21.81443 21.67937
#
# Velocity S-wave (km/s) = 3.41592 3.43727 3.42661
# Velocity P-wave (km/s) = 6.82559 6.86792 6.84679
#
# Compressibility (1/GPa) = 0.01745385
#
# Stress axis : x y z
#
# Youngs Moduli (GPa) = 57.67250 57.67228 49.89482
#
# Poissons Ratio (x) = 0.36368 0.30754
# Poissons Ratio (y) = 0.36369 0.30754
# Poissons Ratio (z) = 0.35548 0.35548
#
# Static dielectric constant tensor:
#      x y z
#    x 3.440820 0.000000 0.000000 
#    y 0.000000 3.440840 0.000000 
#    z 0.000000 0.000000 3.453760 
# 
# 
# High freq. dielectric constant tensor:
#      x y z
#    x 1.709240 0.000000 0.000000 
#    y 0.000000 1.709240 0.000000 
#    z 0.000000 0.000000 1.710490 
# 
# From -- ./inp_files/9752.got.cif
#   From: 2010.03.12/outbox.cif.g09.slc.cpg/sg137_5_cif.got.tgz:9752.got - 2010.04.08 09:34:49.
