data_PCOD8318478
_publ_section_title
;
Structure prediction by ZEFSAII (Michael W. Deem and Ramdas Pophale) SiO2 
 PCOD8318478
Probable space group: P 42/N M C
;
_chemical_formula_sum "Si O2"
_cell_formula_units_Z 40
_cell_length_a 7.648155
_cell_length_b 7.648155
_cell_length_c 33.232517
_cell_angle_alpha 90.000000
_cell_angle_beta 90.000000
_cell_angle_gamma 90.000000
_cell_volume 1943.911985
_symmetry_space_group_name_H-M "P 42/N M C"
_symmetry_group_IT_number 137
_space_group.IT_coordinate_system_code '2'
_symmetry_cell_setting 'tetragonal'
loop_
_space_group_symop_operation_xyz
x,y,z
1/2-y,x,1/2+z
1/2-x,1/2-y,z
y,1/2-x,1/2+z
1/2+x,-y,-z
-x,1/2+y,-z
1/2+y,1/2+x,1/2-z
-y,-x,1/2-z
-x,-y,-z
1/2+y,-x,1/2-z
1/2+x,1/2+y,-z
-y,1/2+x,1/2-z
1/2-x,y,z
x,1/2-y,z
1/2-y,1/2-x,1/2+z
y,x,1/2+z
loop_
_atom_site_type_symbol
_atom_site_label
_atom_site_fract_x
_atom_site_fract_y
_atom_site_fract_z
Si Si1 0.545151 0.750000 0.310669
Si Si2 0.250000 0.040415 0.099824
Si Si3 0.044468 0.557758 0.544624
Si Si4 0.952629 0.047372 0.250000
O O1 0.750000 0.750000 0.316181
O O2 0.460799 0.750000 0.355077
O O3 0.489056 0.573775 0.287293
O O4 0.250000 0.250000 0.099736
O O5 0.420687 0.966548 0.076747
O O6 0.250000 0.564886 0.549859
O O7 0.963555 0.750000 0.552950
O O8 0.000000 0.500000 0.500000
O O9 0.750000 0.015280 0.238030
#
# Coordination Sequence:
#
# PCOD8318478 Si02
#       4
#     8   8  16   8
#     4   9  18  33  55  81 108 137 179 226 277 337
#     4   9  18  32  50  78 106 137 181 227 266 325
#     4  10  19  31  51  75 102 141 183 222 272 327
#     4   9  18  33  56  82 106 141 178 221 278 340
#
# _framework density 20.577062999999999
#
# number of rings (size 3 to 8) (size 9 to 14) (size 15 to 20)
#    0.000    2.600    2.000    0.000    0.000    2.000 
#    0.000    8.000    8.800    0.000    0.000    0.000 
#    0.000    0.000    0.000    0.000    0.000    0.000 
#
# Total GULP energy -495789.163373 kJ/mol
# GULP energy per Si atom -12394.729084 kJ/mol
# Density = 2.053023 g / cm^3
# Si number density = 20.577063 Si / 1000 Ang^3
#
#
#
# Elastic Constant Matrix: (Units=GPa)
#
#
# Indices 1 2 3 4 5 6 
#
# 1 109.7462 28.9594 66.9669 0.0000 0.0000 0.0000
# 2 28.9594 109.7472 66.9666 0.0000 0.0000 0.0000
# 3 66.9669 66.9666 211.3204 0.0000 0.0000 0.0000
# 4 0.0000 0.0000 0.0000 25.0616 0.0000 0.0000
# 5 0.0000 0.0000 0.0000 0.0000 25.0616 0.0000
# 6 0.0000 0.0000 0.0000 0.0000 0.0000 10.8146
#
#
#
# Elastic Compliance Matrix: (Units=1/GPa)
#
#
# Indices 1 2 3 4 5 6 
#
# 1 0.011383 -0.000995 -0.003292 0.000000 0.000000 0.000000
# 2 -0.000995 0.011383 -0.003292 0.000000 0.000000 0.000000
# 3 -0.003292 -0.003292 0.006819 0.000000 0.000000 0.000000
# 4 0.000000 0.000000 0.000000 0.039902 0.000000 0.000000
# 5 0.000000 0.000000 0.000000 0.000000 0.039902 0.000000
# 6 0.000000 0.000000 0.000000 0.000000 0.000000 0.092467
#
#
# Mechanical properties :
#
#
# Convention : Reuss Voigt Hill
#
# Bulk Modulus (GPa) = 69.31426 84.06662 76.69044
# Shear Modulus (GPa) = 22.54051 30.04896 26.29474
#
# Velocity S-wave (km/s) = 3.31330 3.82555 3.57860
# Velocity P-wave (km/s) = 6.95670 7.77537 7.37740
#
# Compressibility (1/GPa) = 0.01442705
#
# Stress axis : x y z
#
# Youngs Moduli (GPa) = 87.84821 87.84945 146.65794
#
# Poissons Ratio (x) = 0.08741 0.48280
# Poissons Ratio (y) = 0.08741 0.48279
# Poissons Ratio (z) = 0.28920 0.28920
#
# Static dielectric constant tensor:
#      x y z
#    x 3.764140 0.000000 0.000000 
#    y 0.000000 3.764130 0.000000 
#    z 0.000000 0.000000 3.906850 
# 
# 
# High freq. dielectric constant tensor:
#      x y z
#    x 1.799360 0.000000 0.000000 
#    y 0.000000 1.799360 0.000000 
#    z 0.000000 0.000000 1.794750 
# 
# From -- ./inp_files/9327.got.cif
#   From: 2010.03.12/outbox.cif.g09.slc.cpg/sg137_5_cif.got.tgz:9327.got - 2010.04.08 09:34:49.
