data_PCOD8318092
_publ_section_title
;
Structure prediction by ZEFSAII (Michael W. Deem and Ramdas Pophale) SiO2 
 PCOD8318092
Probable space group: P 42/M N M
;
_chemical_formula_sum "Si O2"
_cell_formula_units_Z 56
_cell_length_a 17.390796
_cell_length_b 17.390796
_cell_length_c 9.071087
_cell_angle_alpha 90.000000
_cell_angle_beta 90.000000
_cell_angle_gamma 90.000000
_cell_volume 2743.457607
_symmetry_space_group_name_H-M "P 42/M N M"
_symmetry_group_IT_number 136
_symmetry_cell_setting 'tetragonal'
loop_
_space_group_symop_operation_xyz
x,y,z
1/2-y,1/2+x,1/2+z
-x,-y,z
1/2+y,1/2-x,1/2+z
1/2+x,1/2-y,1/2-z
1/2-x,1/2+y,1/2-z
y,x,-z
-y,-x,-z
-x,-y,-z
1/2+y,1/2-x,1/2-z
x,y,-z
1/2-y,1/2+x,1/2-z
1/2-x,1/2+y,1/2+z
1/2+x,1/2-y,1/2+z
-y,-x,z
y,x,z
loop_
_atom_site_type_symbol
_atom_site_label
_atom_site_fract_x
_atom_site_fract_y
_atom_site_fract_z
Si Si1 0.934978 0.065023 0.165214
Si Si2 0.070855 0.584866 0.672760
Si Si3 0.273007 0.151915 0.830140
Si Si4 0.960338 0.832023 0.663330
O O1 0.964564 0.141769 0.246677
O O2 0.912061 0.087940 0.000000
O O3 0.000000 0.000000 0.164628
O O4 0.105822 0.504257 0.732963
O O5 0.050567 0.575995 0.500000
O O6 0.134991 0.651786 0.696860
O O7 0.233124 0.233124 0.782149
O O8 0.239226 0.080753 0.740000
O O9 0.254294 0.135169 0.000000
O O10 0.986370 0.806190 0.500000
O O11 0.903193 0.903193 0.653538
#
# Coordination Sequence:
#
# PCOD8318092 Si02
#       4
#     8  16  16  16
#     4   9  15  23  37  57  87 129 173 215 257 307
#     4  10  20  35  58  84 110 141 180 227 274 325
#     4   9  18  33  53  77 105 139 178 218 268 329
#     4   9  16  25  40  65  95 128 169 215 260 307
#
# _framework density 20.412199000000001
#
# number of rings (size 3 to 8) (size 9 to 14) (size 15 to 20)
#    0.000    2.714    0.000    3.000    0.000    7.429 
#    0.000    0.000    3.143    0.000    0.000    0.000 
#    0.000    0.000    0.000    0.000    0.000    0.000 
#
# Total GULP energy -694048.031017 kJ/mol
# GULP energy per Si atom -12393.714840 kJ/mol
# Density = 2.036574 g / cm^3
# Si number density = 20.412199 Si / 1000 Ang^3
#
#
#
# Elastic Constant Matrix: (Units=GPa)
#
#
# Indices 1 2 3 4 5 6 
#
# 1 55.7114 21.1683 12.8550 0.0000 0.0000 0.0000
# 2 21.1683 55.7114 12.8550 0.0000 0.0000 0.0000
# 3 12.8550 12.8550 101.6379 0.0000 0.0000 0.0000
# 4 0.0000 0.0000 0.0000 22.1817 0.0000 0.0000
# 5 0.0000 0.0000 0.0000 0.0000 22.1817 0.0000
# 6 0.0000 0.0000 0.0000 0.0000 0.0000 18.5187
#
#
#
# Elastic Compliance Matrix: (Units=1/GPa)
#
#
# Indices 1 2 3 4 5 6 
#
# 1 0.021266 -0.007684 -0.001718 0.000000 0.000000 0.000000
# 2 -0.007684 0.021266 -0.001718 0.000000 0.000000 0.000000
# 3 -0.001718 -0.001718 0.010273 0.000000 0.000000 0.000000
# 4 0.000000 0.000000 0.000000 0.045082 0.000000 0.000000
# 5 0.000000 0.000000 0.000000 0.000000 0.045082 0.000000
# 6 0.000000 0.000000 0.000000 0.000000 0.000000 0.053999
#
#
# Mechanical properties :
#
#
# Convention : Reuss Voigt Hill
#
# Bulk Modulus (GPa) = 32.71637 34.09083 33.40360
# Shear Modulus (GPa) = 21.79639 23.65524 22.72582
#
# Velocity S-wave (km/s) = 3.27128 3.40792 3.34030
# Velocity P-wave (km/s) = 5.50736 5.67650 5.59257
#
# Compressibility (1/GPa) = 0.03056574
#
# Stress axis : x y z
#
# Youngs Moduli (GPa) = 47.02437 47.02435 97.33895
#
# Poissons Ratio (x) = 0.36132 0.16721
# Poissons Ratio (y) = 0.36133 0.16721
# Poissons Ratio (z) = 0.08078 0.08078
#
# Static dielectric constant tensor:
#      x y z
#    x 3.456260 0.000000 0.000000 
#    y 0.000000 3.456260 0.000000 
#    z 0.000000 0.000000 3.899540 
# 
# 
# High freq. dielectric constant tensor:
#      x y z
#    x 1.771650 0.000000 0.000000 
#    y 0.000000 1.771650 0.000000 
#    z 0.000000 0.000000 1.808240 
# 
# From -- ./inp_files/1121.got.cif
#   From: 2010.03.12/outbox.cif.g09.slc.cpg/sg136_1_cif.got.tgz:1121.got - 2010.04.06 18:39:43.
