data_PCOD8318002
_publ_section_title
;
Structure prediction by ZEFSAII (Michael W. Deem and Ramdas Pophale) SiO2 
 PCOD8318002
Probable space group: P 42/M N M
;
_chemical_formula_sum "Si O2"
_cell_formula_units_Z 96
_cell_length_a 16.252971
_cell_length_b 16.252971
_cell_length_c 22.273713
_cell_angle_alpha 90.000000
_cell_angle_beta 90.000000
_cell_angle_gamma 90.000000
_cell_volume 5883.803230
_symmetry_space_group_name_H-M "P 42/M N M"
_symmetry_group_IT_number 136
_symmetry_cell_setting 'tetragonal'
loop_
_space_group_symop_operation_xyz
x,y,z
1/2-y,1/2+x,1/2+z
-x,-y,z
1/2+y,1/2-x,1/2+z
1/2+x,1/2-y,1/2-z
1/2-x,1/2+y,1/2-z
y,x,-z
-y,-x,-z
-x,-y,-z
1/2+y,1/2-x,1/2-z
x,y,-z
1/2-y,1/2+x,1/2-z
1/2-x,1/2+y,1/2+z
1/2+x,1/2-y,1/2+z
-y,-x,z
y,x,z
loop_
_atom_site_type_symbol
_atom_site_label
_atom_site_fract_x
_atom_site_fract_y
_atom_site_fract_z
Si Si1 0.056841 0.579762 0.830404
Si Si2 0.314878 0.019091 0.932853
Si Si3 0.688180 0.029760 0.712329
Si Si4 0.800855 0.332150 0.648158
Si Si5 0.632053 0.500141 0.403399
Si Si6 0.180771 0.053536 0.221219
O O1 0.149311 0.543442 0.828371
O O2 0.037564 0.636028 0.773319
O O3 0.000000 0.500000 0.829119
O O4 0.042432 0.633126 0.890402
O O5 0.321408 0.113113 0.910156
O O6 0.219229 0.993145 0.936052
O O7 0.351475 0.013705 0.000000
O O8 0.696231 0.114469 0.677348
O O9 0.781464 0.004286 0.727679
O O10 0.747288 0.252712 0.629368
O O11 0.752277 0.387919 0.695420
O O12 0.585196 0.414805 0.420824
O O13 0.577670 0.577670 0.423550
O O14 0.644429 0.502638 0.331754
O O15 0.108663 0.108663 0.250216
#
# Coordination Sequence:
#
# PCOD8318002 Si02
#       6
#    16  16  16  16  16  16
#     4  12  18  31  51  75  98 130 165 203 254 312
#     4  11  22  35  50  71 101 134 171 216 256 299
#     4  12  17  32  53  73 101 130 162 207 255 314
#     4  10  20  32  48  73  96 126 168 208 251 298
#     4   9  18  33  51  71  99 137 176 206 238 291
#     4   9  17  29  47  72 101 126 158 201 246 293
#
# _framework density 16.315978000000001
#
# number of rings (size 3 to 8) (size 9 to 14) (size 15 to 20)
#    0.000    1.500    8.333    1.500    0.000    2.667 
#    0.000    1.667    0.000    0.000    0.000    0.000 
#    0.000    0.667    0.000    1.500    0.000    0.000 
#
# Total GULP energy -1190035.725832 kJ/mol
# GULP energy per Si atom -12396.205477 kJ/mol
# Density = 1.627884 g / cm^3
# Si number density = 16.315978 Si / 1000 Ang^3
#
#
#
# Elastic Constant Matrix: (Units=GPa)
#
#
# Indices 1 2 3 4 5 6 
#
# 1 55.8718 15.9173 30.6411 0.0000 0.0000 0.0000
# 2 15.9173 55.8718 30.6411 0.0000 0.0000 0.0000
# 3 30.6411 30.6411 79.7050 0.0000 0.0000 0.0000
# 4 0.0000 0.0000 0.0000 8.5672 0.0000 0.0000
# 5 0.0000 0.0000 0.0000 0.0000 8.5672 0.0000
# 6 0.0000 0.0000 0.0000 0.0000 0.0000 26.6171
#
#
#
# Elastic Compliance Matrix: (Units=1/GPa)
#
#
# Indices 1 2 3 4 5 6 
#
# 1 0.022881 -0.002147 -0.007971 0.000000 0.000000 0.000000
# 2 -0.002147 0.022881 -0.007971 0.000000 0.000000 0.000000
# 3 -0.007971 -0.007971 0.018675 0.000000 0.000000 0.000000
# 4 0.000000 0.000000 0.000000 0.116725 0.000000 0.000000
# 5 0.000000 0.000000 0.000000 0.000000 0.116725 0.000000
# 6 0.000000 0.000000 0.000000 0.000000 0.000000 0.037570
#
#
# Mechanical properties :
#
#
# Convention : Reuss Voigt Hill
#
# Bulk Modulus (GPa) = 35.38645 38.42750 36.90697
# Shear Modulus (GPa) = 13.12150 16.36688 14.74419
#
# Velocity S-wave (km/s) = 2.83894 3.17064 3.00936
# Velocity P-wave (km/s) = 5.69925 6.08335 5.89443
#
# Compressibility (1/GPa) = 0.02825941
#
# Stress axis : x y z
#
# Youngs Moduli (GPa) = 43.70405 43.70405 53.54846
#
# Poissons Ratio (x) = 0.09385 0.42682
# Poissons Ratio (y) = 0.09385 0.42682
# Poissons Ratio (z) = 0.34835 0.34835
#
# Static dielectric constant tensor:
#      x y z
#    x 3.230750 0.000000 0.000000 
#    y 0.000000 3.230750 0.000000 
#    z 0.000000 0.000000 2.863250 
# 
# 
# High freq. dielectric constant tensor:
#      x y z
#    x 1.622300 0.000000 0.000000 
#    y 0.000000 1.622300 0.000000 
#    z 0.000000 0.000000 1.593310 
# 
# From -- ./inp_files/6324.got.cif
#   From: 2010.03.12/outbox.cif.g09.slc.cpg/sg136_4_cif.got.tgz:6324.got - 2010.04.06 18:39:43.
