data_PCOD8318762
_publ_section_title
;
Structure prediction by ZEFSAII (Michael W. Deem and Ramdas Pophale) SiO2 
 PCOD8318762
Probable space group: P 42/N M C
;
_chemical_formula_sum "Si O2"
_cell_formula_units_Z 64
_cell_length_a 18.899242
_cell_length_b 18.899242
_cell_length_c 9.187322
_cell_angle_alpha 90.000000
_cell_angle_beta 90.000000
_cell_angle_gamma 90.000000
_cell_volume 3281.540058
_symmetry_space_group_name_H-M "P 42/N M C"
_symmetry_group_IT_number 137
_space_group.IT_coordinate_system_code '2'
_symmetry_cell_setting 'tetragonal'
loop_
_space_group_symop_operation_xyz
x,y,z
1/2-y,x,1/2+z
1/2-x,1/2-y,z
y,1/2-x,1/2+z
1/2+x,-y,-z
-x,1/2+y,-z
1/2+y,1/2+x,1/2-z
-y,-x,1/2-z
-x,-y,-z
1/2+y,-x,1/2-z
1/2+x,1/2+y,-z
-y,1/2+x,1/2-z
1/2-x,y,z
x,1/2-y,z
1/2-y,1/2-x,1/2+z
y,x,1/2+z
loop_
_atom_site_type_symbol
_atom_site_label
_atom_site_fract_x
_atom_site_fract_y
_atom_site_fract_z
Si Si1 0.328460 0.435117 0.434976
Si Si2 0.173099 0.080951 0.759093
Si Si3 0.060696 0.953350 0.422305
Si Si4 0.075401 0.667439 0.644682
O O1 0.250000 0.443820 0.369849
O O2 0.326293 0.397500 0.590741
O O3 0.374513 0.387955 0.329544
O O4 0.363105 0.511923 0.448460
O O5 0.250000 0.098861 0.828627
O O6 0.157983 0.997817 0.769944
O O7 0.047413 0.952588 0.250000
O O8 0.066600 0.874937 0.491912
O O9 0.000000 0.000000 0.500000
O O10 0.136138 0.636138 0.750000
O O11 0.092223 0.750000 0.610913
#
# Coordination Sequence:
#
# PCOD8318762 Si02
#       4
#    16  16  16  16
#     4  11  23  39  61  91 126 164 209 263 317 381
#     4  10  22  39  60  89 125 166 210 256 316 390
#     4  12  23  39  64  95 132 172 217 265 327 389
#     4  11  23  42  67  95 127 166 217 272 333 399
#
# _framework density 19.503038
#
# number of rings (size 3 to 8) (size 9 to 14) (size 15 to 20)
#    0.000    1.000    5.000    2.250    0.000    2.750 
#    0.000    2.500    0.000    0.000    0.000    1.750 
#    0.000    0.000    0.000    0.000    0.000    0.000 
#
# Total GULP energy -793472.839063 kJ/mol
# GULP energy per Si atom -12398.013110 kJ/mol
# Density = 1.945865 g / cm^3
# Si number density = 19.503038 Si / 1000 Ang^3
#
#
#
# Elastic Constant Matrix: (Units=GPa)
#
#
# Indices 1 2 3 4 5 6 
#
# 1 124.5725 62.9336 38.3286 0.0000 0.0000 0.0000
# 2 62.9336 124.5720 38.3283 0.0000 0.0000 0.0000
# 3 38.3286 38.3283 112.1549 0.0000 0.0000 0.0000
# 4 0.0000 0.0000 0.0000 26.8448 0.0000 0.0000
# 5 0.0000 0.0000 0.0000 0.0000 26.8446 0.0000
# 6 0.0000 0.0000 0.0000 0.0000 0.0000 20.4599
#
#
#
# Elastic Compliance Matrix: (Units=1/GPa)
#
#
# Indices 1 2 3 4 5 6 
#
# 1 0.011211 -0.005012 -0.002119 0.000000 0.000000 0.000000
# 2 -0.005012 0.011211 -0.002119 0.000000 0.000000 0.000000
# 3 -0.002119 -0.002119 0.010364 0.000000 0.000000 0.000000
# 4 0.000000 0.000000 0.000000 0.037251 0.000000 0.000000
# 5 0.000000 0.000000 0.000000 0.000000 0.037251 0.000000
# 6 0.000000 0.000000 0.000000 0.000000 0.000000 0.048876
#
#
# Mechanical properties :
#
#
# Convention : Reuss Voigt Hill
#
# Bulk Modulus (GPa) = 69.98620 71.16450 70.57535
# Shear Modulus (GPa) = 27.86644 29.61046 28.73845
#
# Velocity S-wave (km/s) = 3.78408 3.90070 3.84283
# Velocity P-wave (km/s) = 7.41991 7.54025 7.48032
#
# Compressibility (1/GPa) = 0.01428853
#
# Stress axis : x y z
#
# Youngs Moduli (GPa) = 89.19479 89.19449 96.48533
#
# Poissons Ratio (x) = 0.44706 0.20441
# Poissons Ratio (y) = 0.44706 0.20441
# Poissons Ratio (z) = 0.18897 0.18896
#
# Static dielectric constant tensor:
#      x y z
#    x 3.698850 0.000000 0.000000 
#    y 0.000000 3.698850 0.000000 
#    z 0.000000 0.000000 3.579380 
# 
# 
# High freq. dielectric constant tensor:
#      x y z
#    x 1.759490 0.000000 0.000000 
#    y 0.000000 1.759490 0.000000 
#    z 0.000000 0.000000 1.762140 
# 
# From -- ./inp_files/1782.got.cif
#   From: 2010.03.12/outbox.cif.g09.slc.cpg/sg137_1_cif.got.tgz:1782.got - 2010.04.08 09:34:49.
