data_PCOD8318169
_publ_section_title
;
Structure prediction by ZEFSAII (Michael W. Deem and Ramdas Pophale) SiO2 
 PCOD8318169
Probable space group: P 42/M N M
;
_chemical_formula_sum "Si O2"
_cell_formula_units_Z 64
_cell_length_a 19.778382
_cell_length_b 19.778382
_cell_length_c 9.119365
_cell_angle_alpha 90.000000
_cell_angle_beta 90.000000
_cell_angle_gamma 90.000000
_cell_volume 3567.353276
_symmetry_space_group_name_H-M "P 42/M N M"
_symmetry_group_IT_number 136
_symmetry_cell_setting 'tetragonal'
loop_
_space_group_symop_operation_xyz
x,y,z
1/2-y,1/2+x,1/2+z
-x,-y,z
1/2+y,1/2-x,1/2+z
1/2+x,1/2-y,1/2-z
1/2-x,1/2+y,1/2-z
y,x,-z
-y,-x,-z
-x,-y,-z
1/2+y,1/2-x,1/2-z
x,y,-z
1/2-y,1/2+x,1/2-z
1/2-x,1/2+y,1/2+z
1/2+x,1/2-y,1/2+z
-y,-x,z
y,x,z
loop_
_atom_site_type_symbol
_atom_site_label
_atom_site_fract_x
_atom_site_fract_y
_atom_site_fract_z
Si Si1 0.427485 0.684100 0.171109
Si Si2 0.919964 0.678563 0.829915
Si Si3 0.924483 0.327855 0.833011
Si Si4 0.326002 0.435487 0.670172
O O1 0.372065 0.627936 0.204798
O O2 0.402119 0.753404 0.243402
O O3 0.497890 0.658046 0.237275
O O4 0.437438 0.696916 0.000000
O O5 0.872653 0.618229 0.777500
O O6 0.997106 0.656884 0.802020
O O7 0.906923 0.692925 0.000000
O O8 0.908658 0.249478 0.800105
O O9 0.905228 0.346243 0.000000
O O10 0.334425 0.454583 0.500000
O O11 0.377211 0.377211 0.720098
#
# Coordination Sequence:
#
# PCOD8318169 Si02
#       4
#    16  16  16  16
#     4  10  21  36  54  77 106 139 174 215 262 309
#     4  10  21  36  55  79 105 136 175 215 257 309
#     4   9  19  35  53  76 107 139 172 212 257 306
#     4   9  19  36  56  78 106 140 176 214 258 309
#
# _framework density 17.940470000000001
#
# number of rings (size 3 to 8) (size 9 to 14) (size 15 to 20)
#    0.000    2.500    0.000    3.000    0.000    9.500 
#    0.000    7.500    0.000    0.000    0.000    0.000 
#    0.000    0.000    0.000    0.000    0.000    0.000 
#
# Total GULP energy -793807.406627 kJ/mol
# GULP energy per Si atom -12403.240729 kJ/mol
# Density = 1.789964 g / cm^3
# Si number density = 17.940470 Si / 1000 Ang^3
#
#
#
# Elastic Constant Matrix: (Units=GPa)
#
#
# Indices 1 2 3 4 5 6 
#
# 1 110.7405 87.3026 74.5786 0.0000 0.0000 0.0000
# 2 87.3026 110.7405 74.5786 0.0000 0.0000 0.0000
# 3 74.5786 74.5786 101.1675 0.0000 0.0000 0.0000
# 4 0.0000 0.0000 0.0000 30.3614 0.0000 0.0000
# 5 0.0000 0.0000 0.0000 0.0000 30.3614 0.0000
# 6 0.0000 0.0000 0.0000 0.0000 0.0000 34.1749
#
#
#
# Elastic Compliance Matrix: (Units=1/GPa)
#
#
# Indices 1 2 3 4 5 6 
#
# 1 0.027009 -0.015657 -0.008369 0.000000 0.000000 0.000000
# 2 -0.015657 0.027009 -0.008369 0.000000 0.000000 0.000000
# 3 -0.008369 -0.008369 0.022223 0.000000 0.000000 0.000000
# 4 0.000000 0.000000 0.000000 0.032937 0.000000 0.000000
# 5 0.000000 0.000000 0.000000 0.000000 0.032937 0.000000
# 6 0.000000 0.000000 0.000000 0.000000 0.000000 0.029261
#
#
# Mechanical properties :
#
#
# Convention : Reuss Voigt Hill
#
# Bulk Modulus (GPa) = 87.31401 88.39646 87.85524
# Shear Modulus (GPa) = 20.83491 24.72544 22.78017
#
# Velocity S-wave (km/s) = 3.41153 3.71643 3.56724
# Velocity P-wave (km/s) = 8.01826 8.23376 8.12673
#
# Compressibility (1/GPa) = 0.01145292
#
# Stress axis : x y z
#
# Youngs Moduli (GPa) = 37.02451 37.02451 44.99820
#
# Poissons Ratio (x) = 0.57968 0.37658
# Poissons Ratio (y) = 0.57968 0.37658
# Poissons Ratio (z) = 0.30985 0.30985
#
# Static dielectric constant tensor:
#      x y z
#    x 3.336240 0.000000 0.000000 
#    y 0.000000 3.336240 0.000000 
#    z 0.000000 0.000000 3.352920 
# 
# 
# High freq. dielectric constant tensor:
#      x y z
#    x 1.695480 0.000000 0.000000 
#    y 0.000000 1.695480 0.000000 
#    z 0.000000 0.000000 1.702190 
# 
# From -- ./inp_files/1412.got.cif
#   From: 2010.03.12/outbox.cif.g09.slc.cpg/sg136_1_cif.got.tgz:1412.got - 2010.04.06 18:39:43.
