data_PCOD8318771
_publ_section_title
;
Structure prediction by ZEFSAII (Michael W. Deem and Ramdas Pophale) SiO2 
 PCOD8318771
Probable space group: P 42/N M C
;
_chemical_formula_sum "Si O2"
_cell_formula_units_Z 96
_cell_length_a 22.070220
_cell_length_b 22.070220
_cell_length_c 9.538297
_cell_angle_alpha 90.000000
_cell_angle_beta 90.000000
_cell_angle_gamma 90.000000
_cell_volume 4646.053065
_symmetry_space_group_name_H-M "P 42/N M C"
_symmetry_group_IT_number 137
_space_group.IT_coordinate_system_code '2'
_symmetry_cell_setting 'tetragonal'
loop_
_space_group_symop_operation_xyz
x,y,z
1/2-y,x,1/2+z
1/2-x,1/2-y,z
y,1/2-x,1/2+z
1/2+x,-y,-z
-x,1/2+y,-z
1/2+y,1/2+x,1/2-z
-y,-x,1/2-z
-x,-y,-z
1/2+y,-x,1/2-z
1/2+x,1/2+y,-z
-y,1/2+x,1/2-z
1/2-x,y,z
x,1/2-y,z
1/2-y,1/2-x,1/2+z
y,x,1/2+z
loop_
_atom_site_type_symbol
_atom_site_label
_atom_site_fract_x
_atom_site_fract_y
_atom_site_fract_z
Si Si1 0.116949 0.008141 0.472904
Si Si2 0.319005 0.557993 0.685443
Si Si3 0.680813 0.014078 0.819435
Si Si4 0.680450 0.818592 0.699039
Si Si5 0.116378 0.918503 0.956604
Si Si6 0.641549 0.895033 0.946687
O O1 0.140419 0.999909 0.315294
O O2 0.089597 0.074488 0.495878
O O3 0.173338 0.000241 0.582654
O O4 0.067004 0.955228 0.508808
O O5 0.250000 0.572000 0.722290
O O6 0.348400 0.615630 0.600013
O O7 0.355820 0.542438 0.828565
O O8 0.750000 0.025451 0.775154
O O9 0.675572 0.958825 0.929485
O O10 0.655713 0.073149 0.902260
O O11 0.750000 0.842181 0.689546
O O12 0.679360 0.750000 0.754318
O O13 0.640665 0.861477 0.797608
O O14 0.649302 0.821259 0.547646
#
# Coordination Sequence:
#
# PCOD8318771 Si02
#       6
#    16  16  16  16  16  16
#     4  10  23  42  61  95 131 169 214 265 326 388
#     4   9  19  39  67  97 127 164 211 259 318 391
#     4  12  24  41  66  96 128 170 224 271 322 396
#     4  11  24  42  61  85 124 169 218 276 332 383
#     4   9  22  40  63  99 129 171 207 263 329 382
#     4  12  25  40  63  93 126 170 218 275 323 390
#
# _framework density 20.662700000000001
#
# number of rings (size 3 to 8) (size 9 to 14) (size 15 to 20)
#    1.000    0.500    1.667    3.500    2.333    4.000 
#    0.000    0.000    0.000    8.500    0.000    0.000 
#    0.000    0.000    0.000    0.000    0.000    0.000 
#
# Total GULP energy -1189295.472830 kJ/mol
# GULP energy per Si atom -12388.494509 kJ/mol
# Density = 2.061567 g / cm^3
# Si number density = 20.662700 Si / 1000 Ang^3
#
#
#
# Elastic Constant Matrix: (Units=GPa)
#
#
# Indices 1 2 3 4 5 6 
#
# 1 73.1183 16.4263 24.3912 0.0000 0.0000 0.0000
# 2 16.4263 73.1183 24.3912 0.0000 0.0000 0.0000
# 3 24.3912 24.3912 96.7765 0.0000 0.0000 0.0000
# 4 0.0000 0.0000 0.0000 29.8030 0.0000 0.0000
# 5 0.0000 0.0000 0.0000 0.0000 29.8030 0.0000
# 6 0.0000 0.0000 0.0000 0.0000 0.0000 23.4572
#
#
#
# Elastic Compliance Matrix: (Units=1/GPa)
#
#
# Indices 1 2 3 4 5 6 
#
# 1 0.015292 -0.002347 -0.003263 0.000000 0.000000 0.000000
# 2 -0.002347 0.015292 -0.003263 0.000000 0.000000 0.000000
# 3 -0.003263 -0.003263 0.011978 0.000000 0.000000 0.000000
# 4 0.000000 0.000000 0.000000 0.033554 0.000000 0.000000
# 5 0.000000 0.000000 0.000000 0.000000 0.033554 0.000000
# 6 0.000000 0.000000 0.000000 0.000000 0.000000 0.042631
#
#
# Mechanical properties :
#
#
# Convention : Reuss Voigt Hill
#
# Bulk Modulus (GPa) = 40.29448 41.49226 40.89337
# Shear Modulus (GPa) = 28.03993 28.46627 28.25310
#
# Velocity S-wave (km/s) = 3.68779 3.71572 3.70178
# Velocity P-wave (km/s) = 6.13811 6.20750 6.17291
#
# Compressibility (1/GPa) = 0.02481730
#
# Stress axis : x y z
#
# Youngs Moduli (GPa) = 65.39317 65.39317 83.48852
#
# Poissons Ratio (x) = 0.15348 0.27239
# Poissons Ratio (y) = 0.15348 0.27239
# Poissons Ratio (z) = 0.21335 0.21335
#
# Static dielectric constant tensor:
#      x y z
#    x 3.541750 0.000000 0.000000 
#    y 0.000000 3.541750 0.000000 
#    z 0.000000 0.000000 3.822260 
# 
# 
# High freq. dielectric constant tensor:
#      x y z
#    x 1.785430 0.000000 0.000000 
#    y 0.000000 1.785430 0.000000 
#    z 0.000000 0.000000 1.828460 
# 
# From -- ./inp_files/2139.got.cif
#   From: 2010.03.12/outbox.cif.g09.slc.cpg/sg137_2_cif.got.tgz:2139.got - 2010.04.08 09:34:49.
