data_PCOD8318644
_publ_section_title
;
Structure prediction by ZEFSAII (Michael W. Deem and Ramdas Pophale) SiO2 
 PCOD8318644
Probable space group: P 42/N M C
;
_chemical_formula_sum "Si O2"
_cell_formula_units_Z 48
_cell_length_a 7.888848
_cell_length_b 7.888848
_cell_length_c 37.168794
_cell_angle_alpha 90.000000
_cell_angle_beta 90.000000
_cell_angle_gamma 90.000000
_cell_volume 2313.159855
_symmetry_space_group_name_H-M "P 42/N M C"
_symmetry_group_IT_number 137
_space_group.IT_coordinate_system_code '2'
_symmetry_cell_setting 'tetragonal'
loop_
_space_group_symop_operation_xyz
x,y,z
1/2-y,x,1/2+z
1/2-x,1/2-y,z
y,1/2-x,1/2+z
1/2+x,-y,-z
-x,1/2+y,-z
1/2+y,1/2+x,1/2-z
-y,-x,1/2-z
-x,-y,-z
1/2+y,-x,1/2-z
1/2+x,1/2+y,-z
-y,1/2+x,1/2-z
1/2-x,y,z
x,1/2-y,z
1/2-y,1/2-x,1/2+z
y,x,1/2+z
loop_
_atom_site_type_symbol
_atom_site_label
_atom_site_fract_x
_atom_site_fract_y
_atom_site_fract_z
Si Si1 0.750000 0.940860 0.916488
Si Si2 0.054197 0.435888 0.461303
Si Si3 0.554079 0.560282 0.712872
Si Si4 0.250000 0.549746 0.163700
O O1 0.750000 0.750000 0.929698
O O2 0.576402 0.020088 0.931126
O O3 0.750000 0.953735 0.873773
O O4 0.250000 0.404136 0.462360
O O5 0.968913 0.250000 0.452870
O O6 0.000000 0.500000 0.500000
O O7 0.452280 0.547721 0.750000
O O8 0.750000 0.525722 0.721801
O O9 0.526180 0.750000 0.696875
O O10 0.490127 0.419159 0.684741
O O11 0.250000 0.750000 0.156816
#
# Coordination Sequence:
#
# PCOD8318644 Si02
#       4
#     8  16  16   8
#     4  12  26  42  62  92 132 174 212 266 328 382
#     4  11  23  40  66  95 124 162 214 268 321 384
#     4  10  20  36  63  93 122 161 209 259 316 382
#     4  10  22  40  62  88 130 170 210 262 324 378
#
# _framework density 20.750833
#
# number of rings (size 3 to 8) (size 9 to 14) (size 15 to 20)
#    0.000    1.333    3.333    2.500    0.000    5.000 
#    0.000    3.333    0.000    0.000    0.000    0.000 
#    0.000    0.000    0.000    0.000    0.000    0.000 
#
# Total GULP energy -595074.943083 kJ/mol
# GULP energy per Si atom -12397.394648 kJ/mol
# Density = 2.070360 g / cm^3
# Si number density = 20.750833 Si / 1000 Ang^3
#
#
#
# Elastic Constant Matrix: (Units=GPa)
#
#
# Indices 1 2 3 4 5 6 
#
# 1 133.7568 37.9058 47.8882 0.0000 0.0000 0.0000
# 2 37.9058 133.7563 47.8875 0.0000 0.0000 0.0000
# 3 47.8882 47.8875 128.5875 0.0000 0.0000 0.0000
# 4 0.0000 0.0000 0.0000 30.7182 0.0000 0.0000
# 5 0.0000 0.0000 0.0000 0.0000 30.7182 0.0000
# 6 0.0000 0.0000 0.0000 0.0000 0.0000 19.4222
#
#
#
# Elastic Compliance Matrix: (Units=1/GPa)
#
#
# Indices 1 2 3 4 5 6 
#
# 1 0.008893 -0.001540 -0.002738 0.000000 0.000000 0.000000
# 2 -0.001540 0.008893 -0.002738 0.000000 0.000000 0.000000
# 3 -0.002738 -0.002738 0.009816 0.000000 0.000000 0.000000
# 4 0.000000 0.000000 0.000000 0.032554 0.000000 0.000000
# 5 0.000000 0.000000 0.000000 0.000000 0.032554 0.000000
# 6 0.000000 0.000000 0.000000 0.000000 0.000000 0.051488
#
#
# Mechanical properties :
#
#
# Convention : Reuss Voigt Hill
#
# Bulk Modulus (GPa) = 73.69648 73.71818 73.70733
# Shear Modulus (GPa) = 30.72110 33.66634 32.19372
#
# Velocity S-wave (km/s) = 3.85187 4.03228 3.94311
# Velocity P-wave (km/s) = 7.44141 7.56846 7.50520
#
# Compressibility (1/GPa) = 0.01356917
#
# Stress axis : x y z
#
# Youngs Moduli (GPa) = 112.44702 112.44715 101.86938
#
# Poissons Ratio (x) = 0.17315 0.27897
# Poissons Ratio (y) = 0.17315 0.27896
# Poissons Ratio (z) = 0.30794 0.30793
#
# Static dielectric constant tensor:
#      x y z
#    x 4.351250 0.000000 0.000000 
#    y 0.000000 4.351250 0.000000 
#    z 0.000000 0.000000 3.532670 
# 
# 
# High freq. dielectric constant tensor:
#      x y z
#    x 1.821900 0.000000 0.000000 
#    y 0.000000 1.821900 0.000000 
#    z 0.000000 0.000000 1.795160 
# 
# From -- ./inp_files/10014.got.cif
#   From: 2010.03.12/outbox.cif.g09.slc.cpg/sg137_6_cif.got.tgz:10014.got - 2010.04.08 09:34:49.
