data_PCOD8318554
_publ_section_title
;
Structure prediction by ZEFSAII (Michael W. Deem and Ramdas Pophale) SiO2 
 PCOD8318554
Probable space group: P 42/N M C
;
_chemical_formula_sum "Si O2"
_cell_formula_units_Z 96
_cell_length_a 14.879005
_cell_length_b 14.879005
_cell_length_c 22.264776
_cell_angle_alpha 90.000000
_cell_angle_beta 90.000000
_cell_angle_gamma 90.000000
_cell_volume 4929.082754
_symmetry_space_group_name_H-M "P 42/N M C"
_symmetry_group_IT_number 137
_space_group.IT_coordinate_system_code '2'
_symmetry_cell_setting 'tetragonal'
loop_
_space_group_symop_operation_xyz
x,y,z
1/2-y,x,1/2+z
1/2-x,1/2-y,z
y,1/2-x,1/2+z
1/2+x,-y,-z
-x,1/2+y,-z
1/2+y,1/2+x,1/2-z
-y,-x,1/2-z
-x,-y,-z
1/2+y,-x,1/2-z
1/2+x,1/2+y,-z
-y,1/2+x,1/2-z
1/2-x,y,z
x,1/2-y,z
1/2-y,1/2-x,1/2+z
y,x,1/2+z
loop_
_atom_site_type_symbol
_atom_site_label
_atom_site_fract_x
_atom_site_fract_y
_atom_site_fract_z
Si Si1 0.396059 0.353517 0.004697
Si Si2 0.146619 0.850853 0.629041
Si Si3 0.350903 0.146690 0.871122
Si Si4 0.603830 0.353574 0.995515
Si Si5 0.651593 0.000080 0.902485
Si Si6 0.479149 0.500146 0.819419
O O1 0.380507 0.250000 0.021786
O O2 0.352322 0.411551 0.056761
O O3 0.351038 0.378177 0.941380
O O4 0.499955 0.378462 0.000143
O O5 0.250000 0.879360 0.637894
O O6 0.128966 0.750000 0.653571
O O7 0.121531 0.851118 0.558830
O O8 0.088663 0.922129 0.665594
O O9 0.250000 0.129367 0.846694
O O10 0.379911 0.250000 0.862307
O O11 0.421543 0.087653 0.834854
O O12 0.619543 0.250000 0.978662
O O13 0.647441 0.411515 0.943357
O O14 0.750000 0.000173 0.870871
O O15 0.573634 0.999850 0.853506
O O16 0.502040 0.497961 0.750000
#
# Coordination Sequence:
#
# PCOD8318554 Si02
#       6
#    16  16  16  16  16  16
#     4  10  19  36  63  93 126 155 182 232 303 368
#     4  10  21  38  62  92 122 151 187 235 297 368
#     4  10  21  39  65  93 118 151 195 244 301 361
#     4  10  19  36  63  93 125 153 181 230 302 369
#     4  12  24  38  59  88 121 159 201 241 292 354
#     4  12  26  42  59  80 115 162 210 255 294 334
#
# _framework density 19.476241000000002
#
# number of rings (size 3 to 8) (size 9 to 14) (size 15 to 20)
#    0.000    1.333    3.333    3.000    0.000    4.000 
#    0.000    0.833    0.000    0.000    0.000    1.167 
#    0.000    0.000    0.000    0.000    0.000    0.000 
#
# Total GULP energy -1190656.595496 kJ/mol
# GULP energy per Si atom -12402.672870 kJ/mol
# Density = 1.943191 g / cm^3
# Si number density = 19.476241 Si / 1000 Ang^3
#
#
#
# Elastic Constant Matrix: (Units=GPa)
#
#
# Indices 1 2 3 4 5 6 
#
# 1 122.7913 55.9159 59.9878 0.0000 0.0000 0.0000
# 2 55.9159 122.7918 59.9881 0.0000 0.0000 0.0000
# 3 59.9878 59.9881 109.4642 0.0000 0.0000 0.0000
# 4 0.0000 0.0000 0.0000 2.4630 0.0000 0.0000
# 5 0.0000 0.0000 0.0000 0.0000 2.4652 0.0000
# 6 0.0000 0.0000 0.0000 0.0000 0.0000 -5.4458
#
#
#
# Elastic Compliance Matrix: (Units=1/GPa)
#
#
# Indices 1 2 3 4 5 6 
#
# 1 0.011903 -0.003050 -0.004851 0.000000 0.000000 0.000000
# 2 -0.003050 0.011903 -0.004851 0.000000 0.000000 0.000000
# 3 -0.004851 -0.004851 0.014453 0.000000 0.000000 0.000000
# 4 0.000000 0.000000 0.000000 0.406013 0.000000 0.000000
# 5 0.000000 0.000000 0.000000 0.000000 0.405652 0.000000
# 6 0.000000 0.000000 0.000000 0.000000 0.000000 -0.183629
#
#
# Mechanical properties :
#
#
# Convention : Reuss Voigt Hill
#
# Bulk Modulus (GPa) = 78.41604 78.53676 78.47640
# Shear Modulus (GPa) = 7.18338 11.84018 9.51178
#
# Velocity S-wave (km/s) = 1.92257 2.46830 2.21233
# Velocity P-wave (km/s) = 6.72891 6.96672 6.84885
#
# Compressibility (1/GPa) = 0.01275249
#
# Stress axis : x y z
#
# Youngs Moduli (GPa) = 84.01267 84.01289 69.19107
#
# Poissons Ratio (x) = 0.25625 0.33568
# Poissons Ratio (y) = 0.25625 0.33568
# Poissons Ratio (z) = 0.40758 0.40758
#
# Static dielectric constant tensor:
#      x y z
#    x 3.663660 0.000000 0.000000 
#    y 0.000000 3.663640 0.000000 
#    z 0.000000 0.000000 3.229750 
# 
# 
# High freq. dielectric constant tensor:
#      x y z
#    x 1.774000 0.000000 0.000000 
#    y 0.000000 1.774000 0.000000 
#    z 0.000000 0.000000 1.719880 
# 
# From -- ./inp_files/7812.got.cif
#   From: 2010.03.12/outbox.cif.g09.slc.cpg/sg137_4_cif.got.tgz:7812.got - 2010.04.08 09:34:49.
