data_PCOD8318376
_publ_section_title
;
Structure prediction by ZEFSAII (Michael W. Deem and Ramdas Pophale) SiO2 
 PCOD8318376
Probable space group: P 42/N M C
;
_chemical_formula_sum "Si O2"
_cell_formula_units_Z 80
_cell_length_a 17.321436
_cell_length_b 17.321436
_cell_length_c 15.020334
_cell_angle_alpha 90.000000
_cell_angle_beta 90.000000
_cell_angle_gamma 90.000000
_cell_volume 4506.583030
_symmetry_space_group_name_H-M "P 42/N M C"
_symmetry_group_IT_number 137
_space_group.IT_coordinate_system_code '2'
_symmetry_cell_setting 'tetragonal'
loop_
_space_group_symop_operation_xyz
x,y,z
1/2-y,x,1/2+z
1/2-x,1/2-y,z
y,1/2-x,1/2+z
1/2+x,-y,-z
-x,1/2+y,-z
1/2+y,1/2+x,1/2-z
-y,-x,1/2-z
-x,-y,-z
1/2+y,-x,1/2-z
1/2+x,1/2+y,-z
-y,1/2+x,1/2-z
1/2-x,y,z
x,1/2-y,z
1/2-y,1/2-x,1/2+z
y,x,1/2+z
loop_
_atom_site_type_symbol
_atom_site_label
_atom_site_fract_x
_atom_site_fract_y
_atom_site_fract_z
Si Si1 0.919750 0.834433 0.702287
Si Si2 0.161682 0.008461 0.297696
Si Si3 0.557299 0.336522 0.428403
Si Si4 0.090631 0.962797 0.115125
Si Si5 0.982987 0.087177 0.165860
O O1 0.880085 0.750000 0.703917
O O2 0.972933 0.842184 0.615030
O O3 0.972416 0.839710 0.792722
O O4 0.854939 0.899871 0.699439
O O5 0.250000 0.994614 0.322862
O O6 0.145429 0.976462 0.199454
O O7 0.112032 0.963066 0.371162
O O8 0.592011 0.250000 0.415060
O O9 0.550603 0.353625 0.532271
O O10 0.611173 0.401636 0.380132
O O11 0.036155 0.038038 0.097791
O O12 0.970984 0.029017 0.250000
#
# Coordination Sequence:
#
# PCOD8318376 Si02
#       5
#    16  16  16  16  16
#     4   9  18  32  50  76 101 128 165 201 248 301
#     4  10  19  32  51  73 100 132 164 205 252 293
#     4  10  18  28  51  77  98 126 163 209 248 284
#     4  10  17  32  50  73  98 127 174 209 234 289
#     4   9  15  30  49  70  97 129 167 208 238 288
#
# _framework density 17.751809000000002
#
# number of rings (size 3 to 8) (size 9 to 14) (size 15 to 20)
#    0.000    2.400    6.000    1.200    0.000    0.400 
#    0.000    1.000    0.000   13.200    0.000    9.800 
#    0.000    0.000    0.000    0.000    0.000    0.000 
#
# Total GULP energy -991493.652496 kJ/mol
# GULP energy per Si atom -12393.670656 kJ/mol
# Density = 1.771141 g / cm^3
# Si number density = 17.751809 Si / 1000 Ang^3
#
#
#
# Elastic Constant Matrix: (Units=GPa)
#
#
# Indices 1 2 3 4 5 6 
#
# 1 90.7793 35.1066 26.0370 0.0000 0.0000 0.0000
# 2 35.1066 90.7790 26.0367 0.0000 0.0000 0.0000
# 3 26.0370 26.0367 72.3736 0.0000 0.0000 0.0000
# 4 0.0000 0.0000 0.0000 14.5041 0.0000 0.0000
# 5 0.0000 0.0000 0.0000 0.0000 14.5041 0.0000
# 6 0.0000 0.0000 0.0000 0.0000 0.0000 15.3322
#
#
#
# Elastic Compliance Matrix: (Units=1/GPa)
#
#
# Indices 1 2 3 4 5 6 
#
# 1 0.013647 -0.004315 -0.003357 0.000000 0.000000 0.000000
# 2 -0.004315 0.013647 -0.003357 0.000000 0.000000 0.000000
# 3 -0.003357 -0.003357 0.016233 0.000000 0.000000 0.000000
# 4 0.000000 0.000000 0.000000 0.068946 0.000000 0.000000
# 5 0.000000 0.000000 0.000000 0.000000 0.068946 0.000000
# 6 0.000000 0.000000 0.000000 0.000000 0.000000 0.065222
#
#
# Mechanical properties :
#
#
# Convention : Reuss Voigt Hill
#
# Bulk Modulus (GPa) = 46.58044 47.58806 47.08425
# Shear Modulus (GPa) = 18.12529 19.98484 19.05507
#
# Velocity S-wave (km/s) = 3.19884 3.35892 3.27986
# Velocity P-wave (km/s) = 6.31983 6.47370 6.39723
#
# Compressibility (1/GPa) = 0.02146824
#
# Stress axis : x y z
#
# Youngs Moduli (GPa) = 73.27427 73.27423 61.60328
#
# Poissons Ratio (x) = 0.31617 0.20683
# Poissons Ratio (y) = 0.31617 0.20683
# Poissons Ratio (z) = 0.24602 0.24601
#
# Static dielectric constant tensor:
#      x y z
#    x 3.163770 0.000000 0.000000 
#    y 0.000000 3.163780 0.000000 
#    z 0.000000 0.000000 3.171930 
# 
# 
# High freq. dielectric constant tensor:
#      x y z
#    x 1.666030 0.000000 0.000000 
#    y 0.000000 1.666030 0.000000 
#    z 0.000000 0.000000 1.680280 
# 
# From -- ./inp_files/4942.got.cif
#   From: 2010.03.12/outbox.cif.g09.slc.cpg/sg137_3_cif.got.tgz:4942.got - 2010.04.08 09:34:49.
