data_PCOD8318101
_publ_section_title
;
Structure prediction by ZEFSAII (Michael W. Deem and Ramdas Pophale) SiO2 
 PCOD8318101
Probable space group: P 42/M N M
;
_chemical_formula_sum "Si O2"
_cell_formula_units_Z 88
_cell_length_a 18.595606
_cell_length_b 18.595606
_cell_length_c 13.865920
_cell_angle_alpha 90.000000
_cell_angle_beta 90.000000
_cell_angle_gamma 90.000000
_cell_volume 4794.787472
_symmetry_space_group_name_H-M "P 42/M N M"
_symmetry_group_IT_number 136
_symmetry_cell_setting 'tetragonal'
loop_
_space_group_symop_operation_xyz
x,y,z
1/2-y,1/2+x,1/2+z
-x,-y,z
1/2+y,1/2-x,1/2+z
1/2+x,1/2-y,1/2-z
1/2-x,1/2+y,1/2-z
y,x,-z
-y,-x,-z
-x,-y,-z
1/2+y,1/2-x,1/2-z
x,y,-z
1/2-y,1/2+x,1/2-z
1/2-x,1/2+y,1/2+z
1/2+x,1/2-y,1/2+z
-y,-x,z
y,x,z
loop_
_atom_site_type_symbol
_atom_site_label
_atom_site_fract_x
_atom_site_fract_y
_atom_site_fract_z
Si Si1 0.717343 0.525553 0.113816
Si Si2 0.443340 0.443340 0.114279
Si Si3 0.476505 0.212247 0.606175
Si Si4 0.934936 0.451472 0.892745
Si Si5 0.698544 0.920743 0.273257
Si Si6 0.237515 0.357049 0.746806
O O1 0.636007 0.536443 0.150076
O O2 0.740988 0.445699 0.149167
O O3 0.766272 0.588871 0.161502
O O4 0.725548 0.531966 0.000000
O O5 0.500000 0.500000 0.158989
O O6 0.446501 0.446501 0.000000
O O7 0.489748 0.245572 0.500000
O O8 0.461276 0.128897 0.598363
O O9 0.548130 0.222298 0.669747
O O10 0.406714 0.250479 0.652918
O O11 0.873708 0.459236 0.812106
O O12 0.000000 0.500000 0.856170
O O13 0.908011 0.476643 0.000000
O O14 0.689664 0.835316 0.264368
O O15 0.302903 0.302903 0.759023
#
# Coordination Sequence:
#
# PCOD8318101 Si02
#       6
#    16   8  16  16  16  16
#     4  10  20  36  57  83 116 148 185 234 292 346
#     4   9  18  34  58  86 113 143 183 232 286 347
#     4   9  20  34  47  71 104 142 182 220 264 321
#     4   9  18  29  45  70 102 139 176 212 259 315
#     4  10  21  33  51  77 108 141 185 231 273 339
#     4  10  21  37  56  79 110 147 191 231 283 342
#
# _framework density 18.353262999999998
#
# number of rings (size 3 to 8) (size 9 to 14) (size 15 to 20)
#    0.000    2.455    0.909    0.545    7.636    2.545 
#    0.000    0.000    0.000    0.000    0.000    0.000 
#    0.000    3.636    0.000    0.000    0.000    0.000 
#
# Total GULP energy -1090769.544199 kJ/mol
# GULP energy per Si atom -12395.108457 kJ/mol
# Density = 1.831149 g / cm^3
# Si number density = 18.353263 Si / 1000 Ang^3
#
#
#
# Elastic Constant Matrix: (Units=GPa)
#
#
# Indices 1 2 3 4 5 6 
#
# 1 59.4279 24.5272 18.0550 0.0000 0.0000 0.0000
# 2 24.5272 59.4279 18.0550 0.0000 0.0000 0.0000
# 3 18.0550 18.0550 108.1288 0.0000 0.0000 0.0000
# 4 0.0000 0.0000 0.0000 24.6311 0.0000 0.0000
# 5 0.0000 0.0000 0.0000 0.0000 24.6311 0.0000
# 6 0.0000 0.0000 0.0000 0.0000 0.0000 34.5048
#
#
#
# Elastic Compliance Matrix: (Units=1/GPa)
#
#
# Indices 1 2 3 4 5 6 
#
# 1 0.020743 -0.007910 -0.002143 0.000000 0.000000 0.000000
# 2 -0.007910 0.020743 -0.002143 0.000000 0.000000 0.000000
# 3 -0.002143 -0.002143 0.009964 0.000000 0.000000 0.000000
# 4 0.000000 0.000000 0.000000 0.040599 0.000000 0.000000
# 5 0.000000 0.000000 0.000000 0.000000 0.040599 0.000000
# 6 0.000000 0.000000 0.000000 0.000000 0.000000 0.028981
#
#
# Mechanical properties :
#
#
# Convention : Reuss Voigt Hill
#
# Bulk Modulus (GPa) = 36.95732 38.69545 37.82639
# Shear Modulus (GPa) = 25.63586 27.84324 26.73955
#
# Velocity S-wave (km/s) = 3.74144 3.89919 3.82113
# Velocity P-wave (km/s) = 6.23256 6.43436 6.33426
#
# Compressibility (1/GPa) = 0.02705824
#
# Stress axis : x y z
#
# Youngs Moduli (GPa) = 48.20965 48.20965 100.36310
#
# Poissons Ratio (x) = 0.38134 0.21506
# Poissons Ratio (y) = 0.38134 0.21506
# Poissons Ratio (z) = 0.10330 0.10330
#
# Static dielectric constant tensor:
#      x y z
#    x 3.412140 0.000000 0.000000 
#    y 0.000000 3.412140 0.000000 
#    z 0.000000 0.000000 3.712980 
# 
# 
# High freq. dielectric constant tensor:
#      x y z
#    x 1.695940 0.000000 0.000000 
#    y 0.000000 1.695940 0.000000 
#    z 0.000000 0.000000 1.712990 
# 
# From -- ./inp_files/5049.got.cif
#   From: 2010.03.12/outbox.cif.g09.slc.cpg/sg136_3_cif.got.tgz:5049.got - 2010.04.06 18:39:43.
