data_PCOD8318351
_publ_section_title
;
Structure prediction by ZEFSAII (Michael W. Deem and Ramdas Pophale) SiO2 
 PCOD8318351
Probable space group: P 42/M N M
;
_chemical_formula_sum "Si O2"
_cell_formula_units_Z 128
_cell_length_a 17.920569
_cell_length_b 17.920569
_cell_length_c 27.081110
_cell_angle_alpha 90.000000
_cell_angle_beta 90.000000
_cell_angle_gamma 90.000000
_cell_volume 8697.011635
_symmetry_space_group_name_H-M "P 42/M N M"
_symmetry_group_IT_number 136
_symmetry_cell_setting 'tetragonal'
loop_
_space_group_symop_operation_xyz
x,y,z
1/2-y,1/2+x,1/2+z
-x,-y,z
1/2+y,1/2-x,1/2+z
1/2+x,1/2-y,1/2-z
1/2-x,1/2+y,1/2-z
y,x,-z
-y,-x,-z
-x,-y,-z
1/2+y,1/2-x,1/2-z
x,y,-z
1/2-y,1/2+x,1/2-z
1/2-x,1/2+y,1/2+z
1/2+x,1/2-y,1/2+z
-y,-x,z
y,x,z
loop_
_atom_site_type_symbol
_atom_site_label
_atom_site_fract_x
_atom_site_fract_y
_atom_site_fract_z
Si Si1 0.351508 0.084616 0.202669
Si Si2 0.413111 0.084973 0.599736
Si Si3 0.843152 0.274759 0.056493
Si Si4 0.343151 0.774760 0.443507
Si Si5 0.915028 0.413111 0.400264
Si Si6 0.584615 0.851507 0.297331
Si Si7 0.298046 0.584009 0.353798
Si Si8 0.298046 0.415993 0.646202
O O1 0.408526 0.102988 0.158169
O O2 0.363737 0.136264 0.250000
O O3 0.268558 0.099808 0.183874
O O4 0.362958 0.000000 0.220105
O O5 0.354470 0.137808 0.570330
O O6 0.500000 0.108437 0.589393
O O7 0.397013 0.091475 0.658169
O O8 0.398940 0.000000 0.582745
O O9 0.758005 0.241996 0.064660
O O10 0.898967 0.227258 0.090341
O O11 0.866994 0.263140 0.000000
O O12 0.366993 0.763141 0.500000
O O13 0.258003 0.741998 0.435341
O O14 0.354470 0.862193 0.429670
O O15 0.398964 0.727258 0.409659
O O16 0.599807 0.768557 0.316126
O O17 0.366151 0.633850 0.335980
O O18 0.325938 0.500001 0.351505
O O19 0.366152 0.366152 0.664019
#
# Coordination Sequence:
#
# PCOD8318351 Si02
#       8
#    16  16  16  16  16  16  16  16
#     4   9  16  26  41  60  82 106 129 155 190 233
#     4   9  17  27  40  62  88 109 132 163 199 241
#     4   9  17  29  43  57  78 109 138 164 197 236
#     4   9  17  29  43  57  78 109 138 164 197 236
#     4   9  17  27  40  62  88 109 132 163 199 241
#     4   9  16  26  41  60  82 106 129 155 190 233
#     4   9  18  30  42  58  78 101 133 168 199 233
#     4   9  18  30  42  58  78 101 133 168 199 233
#
# _framework density 14.717700000000001
#
# number of rings (size 3 to 8) (size 9 to 14) (size 15 to 20)
#    0.000    3.000    0.000    3.000    0.000    4.500 
#    0.000    1.250    0.000    0.000    0.000    3.500 
#    0.000    0.500    0.000    2.750    0.000    0.000 
#
# Total GULP energy -1586228.962601 kJ/mol
# GULP energy per Si atom -12392.413770 kJ/mol
# Density = 1.468420 g / cm^3
# Si number density = 14.717700 Si / 1000 Ang^3
#
#
#
# Elastic Constant Matrix: (Units=GPa)
#
#
# Indices 1 2 3 4 5 6 
#
# 1 77.3031 58.1725 38.1479 0.0000 0.0000 0.0000
# 2 58.1725 77.3031 38.1479 0.0000 0.0000 0.0000
# 3 38.1479 38.1479 91.0092 0.0000 0.0000 0.0000
# 4 0.0000 0.0000 0.0000 14.8745 0.0000 0.0000
# 5 0.0000 0.0000 0.0000 0.0000 14.8745 0.0000
# 6 0.0000 0.0000 0.0000 0.0000 0.0000 27.8349
#
#
#
# Elastic Compliance Matrix: (Units=1/GPa)
#
#
# Indices 1 2 3 4 5 6 
#
# 1 0.030967 -0.021305 -0.004050 0.000000 0.000000 0.000000
# 2 -0.021305 0.030967 -0.004050 0.000000 0.000000 0.000000
# 3 -0.004050 -0.004050 0.014383 0.000000 0.000000 0.000000
# 4 0.000000 0.000000 0.000000 0.067229 0.000000 0.000000
# 5 0.000000 0.000000 0.000000 0.000000 0.067229 0.000000
# 6 0.000000 0.000000 0.000000 0.000000 0.000000 0.035926
#
#
# Mechanical properties :
#
#
# Convention : Reuss Voigt Hill
#
# Bulk Modulus (GPa) = 57.11866 57.17246 57.14556
# Shear Modulus (GPa) = 16.05919 18.92659 17.49289
#
# Velocity S-wave (km/s) = 3.30684 3.58994 3.45129
# Velocity P-wave (km/s) = 7.31259 7.49092 7.40229
#
# Compressibility (1/GPa) = 0.01750741
#
# Stress axis : x y z
#
# Youngs Moduli (GPa) = 32.29213 32.29213 69.52547
#
# Poissons Ratio (x) = 0.68798 0.28158
# Poissons Ratio (y) = 0.68798 0.28158
# Poissons Ratio (z) = 0.13079 0.13079
#
# Static dielectric constant tensor:
#      x y z
#    x 2.833240 0.000000 0.000000 
#    y 0.000000 2.833240 0.000000 
#    z 0.000000 0.000000 2.775320 
# 
# 
# High freq. dielectric constant tensor:
#      x y z
#    x 1.547760 0.000000 0.000000 
#    y 0.000000 1.547760 0.000000 
#    z 0.000000 0.000000 1.561550 
# 
# From -- ./inp_files/8678.got.cif
#   From: 2010.03.12/outbox.cif.g09.slc.cpg/sg136_5_cif.got.tgz:8678.got - 2010.04.06 18:39:43.
