data_PCOD8318651
_publ_section_title
;
Structure prediction by ZEFSAII (Michael W. Deem and Ramdas Pophale) SiO2 
 PCOD8318651
Probable space group: P 42/N M C
;
_chemical_formula_sum "Si O2"
_cell_formula_units_Z 64
_cell_length_a 15.778255
_cell_length_b 15.778255
_cell_length_c 13.273566
_cell_angle_alpha 90.000000
_cell_angle_beta 90.000000
_cell_angle_gamma 90.000000
_cell_volume 3304.498468
_symmetry_space_group_name_H-M "P 42/N M C"
_symmetry_group_IT_number 137
_space_group.IT_coordinate_system_code '2'
_symmetry_cell_setting 'tetragonal'
loop_
_space_group_symop_operation_xyz
x,y,z
1/2-y,x,1/2+z
1/2-x,1/2-y,z
y,1/2-x,1/2+z
1/2+x,-y,-z
-x,1/2+y,-z
1/2+y,1/2+x,1/2-z
-y,-x,1/2-z
-x,-y,-z
1/2+y,-x,1/2-z
1/2+x,1/2+y,-z
-y,1/2+x,1/2-z
1/2-x,y,z
x,1/2-y,z
1/2-y,1/2-x,1/2+z
y,x,1/2+z
loop_
_atom_site_type_symbol
_atom_site_label
_atom_site_fract_x
_atom_site_fract_y
_atom_site_fract_z
Si Si1 0.457016 0.656110 0.052779
Si Si2 0.097279 0.345215 0.104715
Si Si3 0.006226 0.654888 0.507143
Si Si4 0.559948 0.565771 0.697262
O O1 0.416466 0.750000 0.066548
O O2 0.524315 0.641579 0.142917
O O3 0.504456 0.651172 0.945426
O O4 0.387784 0.581484 0.057637
O O5 0.135942 0.250000 0.091187
O O6 0.090665 0.363958 0.223524
O O7 0.154983 0.417208 0.053074
O O8 0.034505 0.750000 0.527245
O O9 0.999285 0.608823 0.613834
O O10 0.507699 0.492302 0.750000
#
# Coordination Sequence:
#
# PCOD8318651 Si02
#       4
#    16  16  16  16
#     4  10  21  37  58  83 113 154 198 237 288 354
#     4  10  20  37  61  85 113 149 189 239 295 349
#     4  11  22  36  57  87 120 153 194 242 294 356
#     4  11  18  37  62  86 110 148 201 242 293 350
#
# _framework density 19.367539000000001
#
# number of rings (size 3 to 8) (size 9 to 14) (size 15 to 20)
#    0.000    1.500    5.000    2.250    0.000    2.000 
#    0.000    0.000    0.000    4.500    0.000    0.000 
#    0.000    0.000    0.000    0.000    0.000    0.000 
#
# Total GULP energy -793456.204681 kJ/mol
# GULP energy per Si atom -12397.753198 kJ/mol
# Density = 1.932346 g / cm^3
# Si number density = 19.367539 Si / 1000 Ang^3
#
#
#
# Elastic Constant Matrix: (Units=GPa)
#
#
# Indices 1 2 3 4 5 6 
#
# 1 103.6034 46.5318 37.4015 0.0000 0.0000 0.0000
# 2 46.5318 103.6086 37.4031 0.0000 0.0000 0.0000
# 3 37.4015 37.4031 108.1190 0.0000 0.0000 0.0000
# 4 0.0000 0.0000 0.0000 18.3518 0.0000 0.0000
# 5 0.0000 0.0000 0.0000 0.0000 18.3514 0.0000
# 6 0.0000 0.0000 0.0000 0.0000 0.0000 6.4017
#
#
#
# Elastic Compliance Matrix: (Units=1/GPa)
#
#
# Indices 1 2 3 4 5 6 
#
# 1 0.012785 -0.004737 -0.002784 0.000000 0.000000 0.000000
# 2 -0.004737 0.012784 -0.002784 0.000000 0.000000 0.000000
# 3 -0.002784 -0.002784 0.011175 0.000000 0.000000 0.000000
# 4 0.000000 0.000000 0.000000 0.054490 0.000000 0.000000
# 5 0.000000 0.000000 0.000000 0.000000 0.054492 0.000000
# 6 0.000000 0.000000 0.000000 0.000000 0.000000 0.156209
#
#
# Mechanical properties :
#
#
# Convention : Reuss Voigt Hill
#
# Bulk Modulus (GPa) = 61.97858 62.00043 61.98950
# Shear Modulus (GPa) = 15.24749 21.55395 18.40072
#
# Velocity S-wave (km/s) = 2.80888 3.33962 3.08568
# Velocity P-wave (km/s) = 6.52614 6.85221 6.69116
#
# Compressibility (1/GPa) = 0.01613461
#
# Stress axis : x y z
#
# Youngs Moduli (GPa) = 78.21891 78.22240 89.48371
#
# Poissons Ratio (x) = 0.37052 0.24912
# Poissons Ratio (y) = 0.37050 0.24912
# Poissons Ratio (z) = 0.21776 0.21777
#
# Static dielectric constant tensor:
#      x y z
#    x 3.414840 0.000000 0.000000 
#    y 0.000000 3.414840 0.000000 
#    z 0.000000 0.000000 3.706600 
# 
# 
# High freq. dielectric constant tensor:
#      x y z
#    x 1.739260 0.000000 0.000000 
#    y 0.000000 1.739260 0.000000 
#    z 0.000000 0.000000 1.760310 
# 
# From -- ./inp_files/4742.got.cif
#   From: 2010.03.12/outbox.cif.g09.slc.cpg/sg137_3_cif.got.tgz:4742.got - 2010.04.08 09:34:49.
