data_PCOD8318335
_publ_section_title
;
Structure prediction by ZEFSAII (Michael W. Deem and Ramdas Pophale) SiO2 
 PCOD8318335
Probable space group: P 42/M N M
;
_chemical_formula_sum "Si O2"
_cell_formula_units_Z 112
_cell_length_a 27.711577
_cell_length_b 27.711577
_cell_length_c 9.838522
_cell_angle_alpha 90.000000
_cell_angle_beta 90.000000
_cell_angle_gamma 90.000000
_cell_volume 7555.310956
_symmetry_space_group_name_H-M "P 42/M N M"
_symmetry_group_IT_number 136
_symmetry_cell_setting 'tetragonal'
loop_
_space_group_symop_operation_xyz
x,y,z
1/2-y,1/2+x,1/2+z
-x,-y,z
1/2+y,1/2-x,1/2+z
1/2+x,1/2-y,1/2-z
1/2-x,1/2+y,1/2-z
y,x,-z
-y,-x,-z
-x,-y,-z
1/2+y,1/2-x,1/2-z
x,y,-z
1/2-y,1/2+x,1/2-z
1/2-x,1/2+y,1/2+z
1/2+x,1/2-y,1/2+z
-y,-x,z
y,x,z
loop_
_atom_site_type_symbol
_atom_site_label
_atom_site_fract_x
_atom_site_fract_y
_atom_site_fract_z
Si Si1 0.998969 0.736410 0.849642
Si Si2 0.980705 0.181905 0.657812
Si Si3 0.424136 0.500228 0.838817
Si Si4 0.889494 0.290080 0.150750
Si Si5 0.894649 0.583637 0.341932
Si Si6 0.292194 0.370741 0.156475
Si Si7 0.631115 0.974403 0.842538
O O1 0.988900 0.778108 0.739920
O O2 0.054853 0.723630 0.851425
O O3 0.969672 0.688198 0.810170
O O4 0.983402 0.754333 0.000000
O O5 0.993648 0.188367 0.500000
O O6 0.997458 0.130190 0.717004
O O7 0.923664 0.186342 0.683074
O O8 0.449120 0.550881 0.795951
O O9 0.455857 0.455857 0.780049
O O10 0.422656 0.495293 0.000000
O O11 0.885996 0.346212 0.193703
O O12 0.861054 0.256117 0.256319
O O13 0.867452 0.282458 0.000000
O O14 0.907640 0.590282 0.500000
O O15 0.937691 0.602692 0.250966
O O16 0.887457 0.527649 0.306938
O O17 0.332696 0.332696 0.201688
O O18 0.277757 0.364072 0.000000
O O19 0.621228 0.962369 0.000000
#
# Coordination Sequence:
#
# PCOD8318335 Si02
#       7
#    16  16  16  16  16  16  16
#     4   8  15  28  42  56  78 105 131 160 195 235
#     4   9  15  23  38  59  80 104 137 173 203 232
#     4   8  13  21  34  54  81 111 139 166 199 239
#     4   8  15  28  42  56  78 107 134 160 193 234
#     4   9  18  31  45  62  85 110 137 170 202 235
#     4   9  16  24  36  58  85 107 130 165 205 242
#     4   9  18  31  45  62  84 110 137 164 199 243
#
# _framework density 14.824009
#
# number of rings (size 3 to 8) (size 9 to 14) (size 15 to 20)
#    0.000    3.429    0.000    2.571    0.000    4.000 
#    0.000    4.286    0.000    1.714    0.000    2.000 
#    0.000    3.429    0.000    0.000    0.000    0.000 
#
# Total GULP energy -1388115.733398 kJ/mol
# GULP energy per Si atom -12393.890477 kJ/mol
# Density = 1.479027 g / cm^3
# Si number density = 14.824009 Si / 1000 Ang^3
#
#
#
# Elastic Constant Matrix: (Units=GPa)
#
#
# Indices 1 2 3 4 5 6 
#
# 1 87.0196 47.9165 54.0987 0.0000 0.0000 0.0000
# 2 47.9165 87.0196 54.0987 0.0000 0.0000 0.0000
# 3 54.0987 54.0987 71.2033 0.0000 0.0000 0.0000
# 4 0.0000 0.0000 0.0000 21.9072 0.0000 0.0000
# 5 0.0000 0.0000 0.0000 0.0000 21.9072 0.0000
# 6 0.0000 0.0000 0.0000 0.0000 0.0000 15.1737
#
#
#
# Elastic Compliance Matrix: (Units=1/GPa)
#
#
# Indices 1 2 3 4 5 6 
#
# 1 0.022269 -0.003304 -0.014409 0.000000 0.000000 0.000000
# 2 -0.003304 0.022269 -0.014409 0.000000 0.000000 0.000000
# 3 -0.014409 -0.014409 0.035939 0.000000 0.000000 0.000000
# 4 0.000000 0.000000 0.000000 0.045647 0.000000 0.000000
# 5 0.000000 0.000000 0.000000 0.000000 0.045647 0.000000
# 6 0.000000 0.000000 0.000000 0.000000 0.000000 0.065903
#
#
# Mechanical properties :
#
#
# Convention : Reuss Voigt Hill
#
# Bulk Modulus (GPa) = 61.60272 61.94114 61.77193
# Shear Modulus (GPa) = 16.26919 17.73955 17.00437
#
# Velocity S-wave (km/s) = 3.31643 3.46305 3.39054
# Velocity P-wave (km/s) = 7.50408 7.60693 7.55568
#
# Compressibility (1/GPa) = 0.01623305
#
# Stress axis : x y z
#
# Youngs Moduli (GPa) = 44.90562 44.90562 27.82480
#
# Poissons Ratio (x) = 0.14839 0.40092
# Poissons Ratio (y) = 0.14839 0.40092
# Poissons Ratio (z) = 0.64703 0.64703
#
# Static dielectric constant tensor:
#      x y z
#    x 2.833780 0.000000 0.000000 
#    y 0.000000 2.833780 0.000000 
#    z 0.000000 0.000000 2.874050 
# 
# 
# High freq. dielectric constant tensor:
#      x y z
#    x 1.548660 0.000000 0.000000 
#    y 0.000000 1.548660 0.000000 
#    z 0.000000 0.000000 1.557760 
# 
# From -- ./inp_files/4027.got.cif
#   From: 2010.03.12/outbox.cif.g09.slc.cpg/sg136_3_cif.got.tgz:4027.got - 2010.04.06 18:39:43.
