data_PCOD8318138
_publ_section_title
;
Structure prediction by ZEFSAII (Michael W. Deem and Ramdas Pophale) SiO2 
 PCOD8318138
Probable space group: P 42/M N M
;
_chemical_formula_sum "Si O2"
_cell_formula_units_Z 64
_cell_length_a 12.991441
_cell_length_b 12.991441
_cell_length_c 19.563487
_cell_angle_alpha 90.000000
_cell_angle_beta 90.000000
_cell_angle_gamma 90.000000
_cell_volume 3301.877195
_symmetry_space_group_name_H-M "P 42/M N M"
_symmetry_group_IT_number 136
_symmetry_cell_setting 'tetragonal'
loop_
_space_group_symop_operation_xyz
x,y,z
1/2-y,1/2+x,1/2+z
-x,-y,z
1/2+y,1/2-x,1/2+z
1/2+x,1/2-y,1/2-z
1/2-x,1/2+y,1/2-z
y,x,-z
-y,-x,-z
-x,-y,-z
1/2+y,1/2-x,1/2-z
x,y,-z
1/2-y,1/2+x,1/2-z
1/2-x,1/2+y,1/2+z
1/2+x,1/2-y,1/2+z
-y,-x,z
y,x,z
loop_
_atom_site_type_symbol
_atom_site_label
_atom_site_fract_x
_atom_site_fract_y
_atom_site_fract_z
Si Si1 0.064574 0.231718 0.201427
Si Si2 0.885235 0.474312 0.078360
Si Si3 0.397495 0.230586 0.186807
Si Si4 0.923108 0.243867 0.078119
O O1 0.127463 0.127463 0.213574
O O2 0.134825 0.331352 0.214839
O O3 0.968446 0.231691 0.251767
O O4 0.025170 0.234626 0.123475
O O5 0.800585 0.534423 0.121894
O O6 0.866246 0.353022 0.087723
O O7 0.000000 0.500000 0.104674
O O8 0.872563 0.509698 0.000000
O O9 0.322935 0.322935 0.163478
O O10 0.842534 0.157466 0.100812
O O11 0.959272 0.229982 0.000000
#
# Coordination Sequence:
#
# PCOD8318138 Si02
#       4
#    16  16  16  16
#     4  11  24  40  59  86 121 159 200 247 298 354
#     4  10  20  38  63  87 115 153 195 240 292 350
#     4  11  24  38  58  88 118 155 201 246 294 353
#     4  10  21  38  62  91 120 154 198 246 298 357
#
# _framework density 19.382912999999999
#
# number of rings (size 3 to 8) (size 9 to 14) (size 15 to 20)
#    0.000    1.500    2.500    2.250    0.000    6.000 
#    0.000    3.750    0.000    0.000    0.000    5.250 
#    0.000    0.000    0.000    0.000    0.000    0.000 
#
# Total GULP energy -793972.349369 kJ/mol
# GULP energy per Si atom -12405.817959 kJ/mol
# Density = 1.933880 g / cm^3
# Si number density = 19.382913 Si / 1000 Ang^3
#
#
#
# Elastic Constant Matrix: (Units=GPa)
#
#
# Indices 1 2 3 4 5 6 
#
# 1 98.7572 60.8770 51.6859 0.0000 0.0000 0.0000
# 2 60.8770 98.7572 51.6859 0.0000 0.0000 0.0000
# 3 51.6859 51.6859 97.7652 0.0000 0.0000 0.0000
# 4 0.0000 0.0000 0.0000 27.7141 0.0000 0.0000
# 5 0.0000 0.0000 0.0000 0.0000 27.7141 0.0000
# 6 0.0000 0.0000 0.0000 0.0000 0.0000 33.4378
#
#
#
# Elastic Compliance Matrix: (Units=1/GPa)
#
#
# Indices 1 2 3 4 5 6 
#
# 1 0.017962 -0.008437 -0.005036 0.000000 0.000000 0.000000
# 2 -0.008437 0.017962 -0.005036 0.000000 0.000000 0.000000
# 3 -0.005036 -0.005036 0.015553 0.000000 0.000000 0.000000
# 4 0.000000 0.000000 0.000000 0.036083 0.000000 0.000000
# 5 0.000000 0.000000 0.000000 0.000000 0.036083 0.000000
# 6 0.000000 0.000000 0.000000 0.000000 0.000000 0.029906
#
#
# Mechanical properties :
#
#
# Convention : Reuss Voigt Hill
#
# Bulk Modulus (GPa) = 69.15328 69.30854 69.23091
# Shear Modulus (GPa) = 25.59038 26.50861 26.04949
#
# Velocity S-wave (km/s) = 3.63747 3.70216 3.66996
# Velocity P-wave (km/s) = 7.30729 7.35594 7.33165
#
# Compressibility (1/GPa) = 0.01446063
#
# Stress axis : x y z
#
# Youngs Moduli (GPa) = 55.67271 55.67271 64.29581
#
# Poissons Ratio (x) = 0.46970 0.32378
# Poissons Ratio (y) = 0.46970 0.32378
# Poissons Ratio (z) = 0.28035 0.28035
#
# Static dielectric constant tensor:
#      x y z
#    x 3.555580 0.000000 0.000000 
#    y 0.000000 3.555580 0.000000 
#    z 0.000000 0.000000 3.505230 
# 
# 
# High freq. dielectric constant tensor:
#      x y z
#    x 1.754940 0.000000 0.000000 
#    y 0.000000 1.754940 0.000000 
#    z 0.000000 0.000000 1.757780 
# 
# From -- ./inp_files/7014.got.cif
#   From: 2010.03.12/outbox.cif.g09.slc.cpg/sg136_4_cif.got.tgz:7014.got - 2010.04.06 18:39:43.
