data_PCOD8318663
_publ_section_title
;
Structure prediction by ZEFSAII (Michael W. Deem and Ramdas Pophale) SiO2 
 PCOD8318663
Probable space group: P 42/N M C
;
_chemical_formula_sum "Si O2"
_cell_formula_units_Z 56
_cell_length_a 17.866438
_cell_length_b 17.866438
_cell_length_c 8.706153
_cell_angle_alpha 90.000000
_cell_angle_beta 90.000000
_cell_angle_gamma 90.000000
_cell_volume 2779.087676
_symmetry_space_group_name_H-M "P 42/N M C"
_symmetry_group_IT_number 137
_space_group.IT_coordinate_system_code '2'
_symmetry_cell_setting 'tetragonal'
loop_
_space_group_symop_operation_xyz
x,y,z
1/2-y,x,1/2+z
1/2-x,1/2-y,z
y,1/2-x,1/2+z
1/2+x,-y,-z
-x,1/2+y,-z
1/2+y,1/2+x,1/2-z
-y,-x,1/2-z
-x,-y,-z
1/2+y,-x,1/2-z
1/2+x,1/2+y,-z
-y,1/2+x,1/2-z
1/2-x,y,z
x,1/2-y,z
1/2-y,1/2-x,1/2+z
y,x,1/2+z
loop_
_atom_site_type_symbol
_atom_site_label
_atom_site_fract_x
_atom_site_fract_y
_atom_site_fract_z
Si Si1 0.250000 0.250000 0.681315
Si Si2 0.250000 0.124398 0.431657
Si Si3 0.537287 0.603192 0.135008
Si Si4 0.750000 0.250000 0.750000
Si Si5 0.250000 0.750000 0.750000
Si Si6 0.250000 0.875440 0.998888
Si Si7 0.605967 0.474065 0.968460
O O1 0.250000 0.175014 0.582334
O O2 0.324868 0.250000 0.780747
O O3 0.177655 0.072020 0.436137
O O4 0.459897 0.586838 0.046321
O O5 0.523630 0.613855 0.315120
O O6 0.591425 0.531714 0.108206
O O7 0.674608 0.250000 0.651382
O O8 0.250000 0.824527 0.849609
O O9 0.320280 0.929202 0.994541
#
# Coordination Sequence:
#
# PCOD8318663 Si02
#       7
#     4   8  16   2   2   8  16
#     4  10  24  36  54  86 114 152 204 234 280 366
#     4  11  21  39  57  81 119 155 191 243 294 336
#     4  10  21  37  60  89 117 153 199 243 292 354
#     4  10  20  38  64  94 116 158 224 242 288 378
#     4  10  28  42  60  94 120 154 200 234 296 378
#     4  11  23  43  63  87 125 161 195 253 302 346
#     4  10  22  39  61  90 119 152 199 244 293 355
#
# _framework density 20.150497999999999
#
# number of rings (size 3 to 8) (size 9 to 14) (size 15 to 20)
#    0.000    1.714    0.000    4.286    0.000    9.143 
#    0.000    4.286    0.000    0.000    0.000    0.000 
#    0.000    0.000    0.000    0.000    0.000    0.000 
#
# Total GULP energy -694638.642128 kJ/mol
# GULP energy per Si atom -12404.261467 kJ/mol
# Density = 2.010463 g / cm^3
# Si number density = 20.150498 Si / 1000 Ang^3
#
#
#
# Elastic Constant Matrix: (Units=GPa)
#
#
# Indices 1 2 3 4 5 6 
#
# 1 147.9934 108.0720 54.2283 0.0000 0.0000 0.0000
# 2 108.0720 147.9934 54.2283 0.0000 0.0000 0.0000
# 3 54.2283 54.2283 102.9113 0.0000 0.0000 0.0000
# 4 0.0000 0.0000 0.0000 3.4895 0.0000 0.0000
# 5 0.0000 0.0000 0.0000 0.0000 3.4895 0.0000
# 6 0.0000 0.0000 0.0000 0.0000 0.0000 48.5824
#
#
#
# Elastic Compliance Matrix: (Units=1/GPa)
#
#
# Indices 1 2 3 4 5 6 
#
# 1 0.015038 -0.010011 -0.002649 0.000000 0.000000 0.000000
# 2 -0.010011 0.015038 -0.002649 0.000000 0.000000 0.000000
# 3 -0.002649 -0.002649 0.012509 0.000000 0.000000 0.000000
# 4 0.000000 0.000000 0.000000 0.286574 0.000000 0.000000
# 5 0.000000 0.000000 0.000000 0.000000 0.286574 0.000000
# 6 0.000000 0.000000 0.000000 0.000000 0.000000 0.020584
#
#
# Mechanical properties :
#
#
# Convention : Reuss Voigt Hill
#
# Bulk Modulus (GPa) = 83.56210 92.43949 88.00080
# Shear Modulus (GPa) = 7.45241 23.27024 15.36132
#
# Velocity S-wave (km/s) = 1.92520 3.40195 2.76403
# Velocity P-wave (km/s) = 6.81916 7.83615 7.34527
#
# Compressibility (1/GPa) = 0.01196715
#
# Stress axis : x y z
#
# Youngs Moduli (GPa) = 66.49713 66.49713 79.94286
#
# Poissons Ratio (x) = 0.66570 0.21178
# Poissons Ratio (y) = 0.66570 0.21178
# Poissons Ratio (z) = 0.17616 0.17616
#
# Static dielectric constant tensor:
#      x y z
#    x 3.785900 0.000000 0.000000 
#    y 0.000000 3.785900 0.000000 
#    z 0.000000 0.000000 3.670980 
# 
# 
# High freq. dielectric constant tensor:
#      x y z
#    x 1.797500 0.000000 0.000000 
#    y 0.000000 1.797500 0.000000 
#    z 0.000000 0.000000 1.786200 
# 
# From -- ./inp_files/1638.got.cif
#   From: 2010.03.12/outbox.cif.g09.slc.cpg/sg137_1_cif.got.tgz:1638.got - 2010.04.08 09:34:49.
