data_PCOD8318428
_publ_section_title
;
Structure prediction by ZEFSAII (Michael W. Deem and Ramdas Pophale) SiO2 
 PCOD8318428
Probable space group: P 42/N M C
;
_chemical_formula_sum "Si O2"
_cell_formula_units_Z 104
_cell_length_a 17.774865
_cell_length_b 17.774865
_cell_length_c 20.291628
_cell_angle_alpha 90.000000
_cell_angle_beta 90.000000
_cell_angle_gamma 90.000000
_cell_volume 6411.055165
_symmetry_space_group_name_H-M "P 42/N M C"
_symmetry_group_IT_number 137
_space_group.IT_coordinate_system_code '2'
_symmetry_cell_setting 'tetragonal'
loop_
_space_group_symop_operation_xyz
x,y,z
1/2-y,x,1/2+z
1/2-x,1/2-y,z
y,1/2-x,1/2+z
1/2+x,-y,-z
-x,1/2+y,-z
1/2+y,1/2+x,1/2-z
-y,-x,1/2-z
-x,-y,-z
1/2+y,-x,1/2-z
1/2+x,1/2+y,-z
-y,1/2+x,1/2-z
1/2-x,y,z
x,1/2-y,z
1/2-y,1/2-x,1/2+z
y,x,1/2+z
loop_
_atom_site_type_symbol
_atom_site_label
_atom_site_fract_x
_atom_site_fract_y
_atom_site_fract_z
Si Si1 0.664110 0.463734 0.574505
Si Si2 0.335823 0.060243 0.549571
Si Si3 0.901417 0.429748 0.368067
Si Si4 0.039486 0.165325 0.591917
Si Si5 0.530631 0.463667 0.673101
Si Si6 0.836466 0.336466 0.250000
Si Si7 0.165103 0.903552 0.995809
O O1 0.750000 0.471806 0.598315
O O2 0.641653 0.528186 0.522141
O O3 0.610849 0.472532 0.637477
O O4 0.655524 0.383087 0.538553
O O5 0.250000 0.084449 0.551779
O O6 0.381601 0.135519 0.564523
O O7 0.350439 0.996949 0.604415
O O8 0.855689 0.390646 0.310172
O O9 0.916845 0.367759 0.423491
O O10 0.980744 0.462992 0.342898
O O11 0.049081 0.250000 0.619240
O O12 0.010121 0.112745 0.650610
O O13 0.983808 0.162583 0.530554
O O14 0.544666 0.455335 0.750000
O O15 0.849859 0.250000 0.270706
O O16 0.250000 0.872107 0.990803
#
# Coordination Sequence:
#
# PCOD8318428 Si02
#       7
#    16  16  16  16  16   8  16
#     4   9  18  31  48  72  97 122 159 202 241 287
#     4   9  17  30  49  70  92 121 155 197 246 286
#     4  10  18  32  48  68  94 126 163 196 228 283
#     4   9  18  31  48  72  96 118 156 202 241 286
#     4  10  19  32  50  69  94 131 166 199 236 278
#     4  11  22  32  44  68 100 128 154 189 232 282
#     4   9  17  30  49  70  94 124 155 193 242 289
#
# _framework density 16.221979999999999
#
# number of rings (size 3 to 8) (size 9 to 14) (size 15 to 20)
#    0.000    2.538    0.769    1.846    0.000    5.538 
#    0.000    0.000    0.000    0.000    0.000    2.154 
#    0.000    0.000    0.000    0.000    0.000    0.000 
#
# Total GULP energy -1289600.350510 kJ/mol
# GULP energy per Si atom -12400.003370 kJ/mol
# Density = 1.618506 g / cm^3
# Si number density = 16.221980 Si / 1000 Ang^3
#
#
#
# Elastic Constant Matrix: (Units=GPa)
#
#
# Indices 1 2 3 4 5 6 
#
# 1 76.6462 38.0063 31.7621 0.0000 0.0000 0.0000
# 2 38.0063 76.6462 31.7621 0.0000 0.0000 0.0000
# 3 31.7621 31.7621 98.1455 0.0000 0.0000 0.0000
# 4 0.0000 0.0000 0.0000 18.5244 0.0000 0.0000
# 5 0.0000 0.0000 0.0000 0.0000 18.5245 0.0000
# 6 0.0000 0.0000 0.0000 0.0000 0.0000 20.6351
#
#
#
# Elastic Compliance Matrix: (Units=1/GPa)
#
#
# Indices 1 2 3 4 5 6 
#
# 1 0.018254 -0.007626 -0.003439 0.000000 0.000000 0.000000
# 2 -0.007626 0.018254 -0.003439 0.000000 0.000000 0.000000
# 3 -0.003439 -0.003439 0.012415 0.000000 0.000000 0.000000
# 4 0.000000 0.000000 0.000000 0.053983 0.000000 0.000000
# 5 0.000000 0.000000 0.000000 0.000000 0.053983 0.000000
# 6 0.000000 0.000000 0.000000 0.000000 0.000000 0.048461
#
#
# Mechanical properties :
#
#
# Convention : Reuss Voigt Hill
#
# Bulk Modulus (GPa) = 50.21865 50.49988 50.35926
# Shear Modulus (GPa) = 20.74721 21.53064 21.13892
#
# Velocity S-wave (km/s) = 3.58013 3.64710 3.61377
# Velocity P-wave (km/s) = 6.93644 6.99523 6.96589
#
# Compressibility (1/GPa) = 0.01991292
#
# Stress axis : x y z
#
# Youngs Moduli (GPa) = 54.78315 54.78313 80.54748
#
# Poissons Ratio (x) = 0.41779 0.27703
# Poissons Ratio (y) = 0.41779 0.27703
# Poissons Ratio (z) = 0.18842 0.18842
#
# Static dielectric constant tensor:
#      x y z
#    x 3.111790 0.000000 0.000000 
#    y 0.000000 3.111790 0.000000 
#    z 0.000000 0.000000 2.956730 
# 
# 
# High freq. dielectric constant tensor:
#      x y z
#    x 1.623280 0.000000 0.000000 
#    y 0.000000 1.623280 0.000000 
#    z 0.000000 0.000000 1.616800 
# 
# From -- ./inp_files/8098.got.cif
#   From: 2010.03.12/outbox.cif.g09.slc.cpg/sg137_5_cif.got.tgz:8098.got - 2010.04.08 09:34:49.
