data_PCOD8318725
_publ_section_title
;
Structure prediction by ZEFSAII (Michael W. Deem and Ramdas Pophale) SiO2 
 PCOD8318725
Probable space group: P 42/N M C
;
_chemical_formula_sum "Si O2"
_cell_formula_units_Z 96
_cell_length_a 14.297013
_cell_length_b 14.297013
_cell_length_c 22.626068
_cell_angle_alpha 90.000000
_cell_angle_beta 90.000000
_cell_angle_gamma 90.000000
_cell_volume 4624.871943
_symmetry_space_group_name_H-M "P 42/N M C"
_symmetry_group_IT_number 137
_space_group.IT_coordinate_system_code '2'
_symmetry_cell_setting 'tetragonal'
loop_
_space_group_symop_operation_xyz
x,y,z
1/2-y,x,1/2+z
1/2-x,1/2-y,z
y,1/2-x,1/2+z
1/2+x,-y,-z
-x,1/2+y,-z
1/2+y,1/2+x,1/2-z
-y,-x,1/2-z
-x,-y,-z
1/2+y,-x,1/2-z
1/2+x,1/2+y,-z
-y,1/2+x,1/2-z
1/2-x,y,z
x,1/2-y,z
1/2-y,1/2-x,1/2+z
y,x,1/2+z
loop_
_atom_site_type_symbol
_atom_site_label
_atom_site_fract_x
_atom_site_fract_y
_atom_site_fract_z
Si Si1 0.143869 0.643869 0.250000
Si Si2 0.643287 0.950374 0.409891
Si Si3 0.489764 0.355029 0.847488
Si Si4 0.750000 0.854535 0.957537
Si Si5 0.750000 0.139016 0.135979
Si Si6 0.356285 0.931378 0.476946
Si Si7 0.044622 0.750000 0.509448
Si Si8 0.542813 0.428729 0.317563
O O1 0.128498 0.750000 0.271958
O O2 0.121773 0.578651 0.306107
O O3 0.750000 0.977987 0.395757
O O4 0.631948 0.839336 0.415567
O O5 0.610480 0.999746 0.470701
O O6 0.579321 0.984124 0.356100
O O7 0.451418 0.250000 0.835167
O O8 0.515651 0.365724 0.915636
O O9 0.410668 0.433490 0.834305
O O10 0.750000 0.750000 0.986373
O O11 0.750000 0.931273 0.009976
O O12 0.750000 0.250000 0.125947
O O13 0.750000 0.085266 0.074625
O O14 0.839986 0.108313 0.172399
O O15 0.250000 0.898576 0.488086
O O16 0.421528 0.840989 0.474436
O O17 0.544692 0.455309 0.250000
#
# Coordination Sequence:
#
# PCOD8318725 Si02
#       8
#     8  16  16   8   8  16   8  16
#     4   9  18  36  60  88 129 176 220 264 315 378
#     4  10  22  44  67  92 129 168 216 269 320 390
#     4  10  22  41  62  95 135 175 214 264 324 393
#     4  10  24  42  64  98 130 178 217 255 316 398
#     4  12  28  46  70  98 130 164 214 285 343 396
#     4  10  21  37  65  96 131 164 209 269 331 386
#     4  12  22  38  66 100 132 166 211 272 339 392
#     4  12  26  44  68  96 127 172 221 269 331 386
#
# _framework density 20.757332000000002
#
# number of rings (size 3 to 8) (size 9 to 14) (size 15 to 20)
#    0.000    1.417    2.500    2.250    5.833    1.333 
#    3.000    0.417    0.000    0.000    0.000    0.000 
#    0.000    0.000    0.000    0.000    0.000    0.000 
#
# Total GULP energy -1190481.938358 kJ/mol
# GULP energy per Si atom -12400.853525 kJ/mol
# Density = 2.071009 g / cm^3
# Si number density = 20.757332 Si / 1000 Ang^3
#
#
#
# Elastic Constant Matrix: (Units=GPa)
#
#
# Indices 1 2 3 4 5 6 
#
# 1 116.2458 57.3345 44.6473 0.0000 0.0000 0.0000
# 2 57.3345 116.2447 44.6468 0.0000 0.0000 0.0000
# 3 44.6473 44.6468 129.7068 0.0000 0.0000 0.0000
# 4 0.0000 0.0000 0.0000 21.5661 0.0000 0.0000
# 5 0.0000 0.0000 0.0000 0.0000 21.5662 0.0000
# 6 0.0000 0.0000 0.0000 0.0000 0.0000 29.4918
#
#
#
# Elastic Compliance Matrix: (Units=1/GPa)
#
#
# Indices 1 2 3 4 5 6 
#
# 1 0.011988 -0.004987 -0.002410 0.000000 0.000000 0.000000
# 2 -0.004987 0.011988 -0.002410 0.000000 0.000000 0.000000
# 3 -0.002410 -0.002410 0.009369 0.000000 0.000000 0.000000
# 4 0.000000 0.000000 0.000000 0.046369 0.000000 0.000000
# 5 0.000000 0.000000 0.000000 0.000000 0.046369 0.000000
# 6 0.000000 0.000000 0.000000 0.000000 0.000000 0.033908
#
#
# Mechanical properties :
#
#
# Convention : Reuss Voigt Hill
#
# Bulk Modulus (GPa) = 72.82772 72.82825 72.82799
# Shear Modulus (GPa) = 27.14739 28.89609 28.02174
#
# Velocity S-wave (km/s) = 3.62034 3.73512 3.67818
# Velocity P-wave (km/s) = 7.25515 7.33234 7.29385
#
# Compressibility (1/GPa) = 0.01373103
#
# Stress axis : x y z
#
# Youngs Moduli (GPa) = 83.41877 83.41819 106.73915
#
# Poissons Ratio (x) = 0.41601 0.25722
# Poissons Ratio (y) = 0.41602 0.25721
# Poissons Ratio (z) = 0.20102 0.20101
#
# Static dielectric constant tensor:
#      x y z
#    x 3.815050 0.000000 0.000000 
#    y 0.000000 3.815050 0.000000 
#    z 0.000000 0.000000 3.605820 
# 
# 
# High freq. dielectric constant tensor:
#      x y z
#    x 1.816830 0.000000 0.000000 
#    y 0.000000 1.816830 0.000000 
#    z 0.000000 0.000000 1.805940 
# 
# From -- ./inp_files/7936.got.cif
#   From: 2010.03.12/outbox.cif.g09.slc.cpg/sg137_4_cif.got.tgz:7936.got - 2010.04.08 09:34:49.
