data_PCOD8318556
_publ_section_title
;
Structure prediction by ZEFSAII (Michael W. Deem and Ramdas Pophale) SiO2 
 PCOD8318556
Probable space group: P 42/N M C
;
_chemical_formula_sum "Si O2"
_cell_formula_units_Z 96
_cell_length_a 22.217641
_cell_length_b 22.217641
_cell_length_c 10.174317
_cell_angle_alpha 90.000000
_cell_angle_beta 90.000000
_cell_angle_gamma 90.000000
_cell_volume 5022.282696
_symmetry_space_group_name_H-M "P 42/N M C"
_symmetry_group_IT_number 137
_space_group.IT_coordinate_system_code '2'
_symmetry_cell_setting 'tetragonal'
loop_
_space_group_symop_operation_xyz
x,y,z
1/2-y,x,1/2+z
1/2-x,1/2-y,z
y,1/2-x,1/2+z
1/2+x,-y,-z
-x,1/2+y,-z
1/2+y,1/2+x,1/2-z
-y,-x,1/2-z
-x,-y,-z
1/2+y,-x,1/2-z
1/2+x,1/2+y,-z
-y,1/2+x,1/2-z
1/2-x,y,z
x,1/2-y,z
1/2-y,1/2-x,1/2+z
y,x,1/2+z
loop_
_atom_site_type_symbol
_atom_site_label
_atom_site_fract_x
_atom_site_fract_y
_atom_site_fract_z
Si Si1 0.494362 0.320438 0.828963
Si Si2 0.935105 0.679140 0.895306
Si Si3 0.886390 0.386390 0.750000
Si Si4 0.819268 0.180733 0.250000
Si Si5 0.016433 0.180757 0.375688
Si Si6 0.317818 0.104966 0.106827
Si Si7 0.105840 0.678742 0.509694
O O1 0.517070 0.250000 0.827242
O O2 0.544964 0.369566 0.789399
O O3 0.441650 0.328060 0.724192
O O4 0.469574 0.339701 0.971994
O O5 0.930504 0.750000 0.884754
O O6 0.971205 0.652428 0.768774
O O7 0.866354 0.657480 0.887927
O O8 0.868892 0.345981 0.626398
O O9 0.750000 0.165663 0.264537
O O10 0.845763 0.150634 0.120397
O O11 0.999437 0.250000 0.354767
O O12 0.074362 0.172606 0.465811
O O13 0.959416 0.151506 0.450968
O O14 0.250000 0.131770 0.116526
O O15 0.104863 0.750000 0.496492
#
# Coordination Sequence:
#
# PCOD8318556 Si02
#       7
#    16  16   8   8  16  16  16
#     4  10  22  39  58  85 119 155 195 247 300 345
#     4  10  21  36  60  90 117 152 196 240 293 358
#     4  12  22  36  60  84 112 157 210 245 288 350
#     4   9  20  36  54  83 118 143 174 239 312 355
#     4   9  18  35  56  79 110 153 192 224 278 347
#     4  10  19  37  62  85 120 156 186 238 300 356
#     4  10  21  37  58  83 113 149 193 241 291 351
#
# _framework density 19.114815
#
# number of rings (size 3 to 8) (size 9 to 14) (size 15 to 20)
#    0.000    2.083    1.667    1.500    2.333    1.667 
#    0.000    0.833    0.000    8.250    0.000    0.000 
#    0.000    0.000    0.000    0.000    0.000    0.000 
#
# Total GULP energy -1189782.802817 kJ/mol
# GULP energy per Si atom -12393.570863 kJ/mol
# Density = 1.907131 g / cm^3
# Si number density = 19.114815 Si / 1000 Ang^3
#
#
#
# Elastic Constant Matrix: (Units=GPa)
#
#
# Indices 1 2 3 4 5 6 
#
# 1 63.0946 35.7001 42.7595 0.0000 0.0000 0.0000
# 2 35.7001 63.0942 42.7596 0.0000 0.0000 0.0000
# 3 42.7595 42.7596 176.7905 0.0000 0.0000 0.0000
# 4 0.0000 0.0000 0.0000 26.6391 0.0000 0.0000
# 5 0.0000 0.0000 0.0000 0.0000 26.6389 0.0000
# 6 0.0000 0.0000 0.0000 0.0000 0.0000 32.9364
#
#
#
# Elastic Compliance Matrix: (Units=1/GPa)
#
#
# Indices 1 2 3 4 5 6 
#
# 1 0.024653 -0.011851 -0.003096 0.000000 0.000000 0.000000
# 2 -0.011851 0.024653 -0.003097 0.000000 0.000000 0.000000
# 3 -0.003096 -0.003097 0.007154 0.000000 0.000000 0.000000
# 4 0.000000 0.000000 0.000000 0.037539 0.000000 0.000000
# 5 0.000000 0.000000 0.000000 0.000000 0.037539 0.000000
# 6 0.000000 0.000000 0.000000 0.000000 0.000000 0.030362
#
#
# Mechanical properties :
#
#
# Convention : Reuss Voigt Hill
#
# Bulk Modulus (GPa) = 49.08402 60.60196 54.84299
# Shear Modulus (GPa) = 24.41661 29.36021 26.88841
#
# Velocity S-wave (km/s) = 3.57790 3.92343 3.75464
# Velocity P-wave (km/s) = 6.54238 7.23169 6.89566
#
# Compressibility (1/GPa) = 0.02037323
#
# Stress axis : x y z
#
# Youngs Moduli (GPa) = 40.56290 40.56252 139.77675
#
# Poissons Ratio (x) = 0.48070 0.43281
# Poissons Ratio (y) = 0.48070 0.43282
# Poissons Ratio (z) = 0.12560 0.12560
#
# Static dielectric constant tensor:
#      x y z
#    x 3.395340 0.000000 0.000000 
#    y 0.000000 3.395320 0.000000 
#    z 0.000000 0.000000 3.952240 
# 
# 
# High freq. dielectric constant tensor:
#      x y z
#    x 1.721770 0.000000 0.000000 
#    y 0.000000 1.721770 0.000000 
#    z 0.000000 0.000000 1.773360 
# 
# From -- ./inp_files/2214.got.cif
#   From: 2010.03.12/outbox.cif.g09.slc.cpg/sg137_2_cif.got.tgz:2214.got - 2010.04.08 09:34:49.
