data_PCOD8318119
_publ_section_title
;
Structure prediction by ZEFSAII (Michael W. Deem and Ramdas Pophale) SiO2 
 PCOD8318119
Probable space group: P 42/M N M
;
_chemical_formula_sum "Si O2"
_cell_formula_units_Z 72
_cell_length_a 21.837867
_cell_length_b 21.837867
_cell_length_c 7.843891
_cell_angle_alpha 90.000000
_cell_angle_beta 90.000000
_cell_angle_gamma 90.000000
_cell_volume 3740.692280
_symmetry_space_group_name_H-M "P 42/M N M"
_symmetry_group_IT_number 136
_symmetry_cell_setting 'tetragonal'
loop_
_space_group_symop_operation_xyz
x,y,z
1/2-y,1/2+x,1/2+z
-x,-y,z
1/2+y,1/2-x,1/2+z
1/2+x,1/2-y,1/2-z
1/2-x,1/2+y,1/2-z
y,x,-z
-y,-x,-z
-x,-y,-z
1/2+y,1/2-x,1/2-z
x,y,-z
1/2-y,1/2+x,1/2-z
1/2-x,1/2+y,1/2+z
1/2+x,1/2-y,1/2+z
-y,-x,z
y,x,z
loop_
_atom_site_type_symbol
_atom_site_label
_atom_site_fract_x
_atom_site_fract_y
_atom_site_fract_z
Si Si1 0.101505 0.999383 0.000000
Si Si2 0.181676 0.514007 0.306273
Si Si3 0.481210 0.308312 0.806038
Si Si4 0.889062 0.371910 0.192652
Si Si5 0.149028 0.754041 0.300820
O O1 0.141667 0.004698 0.171902
O O2 0.057105 0.057105 0.000000
O O3 0.063849 0.936152 0.000000
O O4 0.198787 0.497687 0.500000
O O5 0.245612 0.520987 0.205213
O O6 0.142350 0.575492 0.302876
O O7 0.141965 0.456964 0.232526
O O8 0.411459 0.292773 0.757347
O O9 0.486736 0.333901 0.000000
O O10 0.849196 0.309969 0.201408
O O11 0.891961 0.396062 0.000000
O O12 0.151618 0.739612 0.500000
O O13 0.207306 0.792695 0.239005
#
# Coordination Sequence:
#
# PCOD8318119 Si02
#       5
#     8  16  16  16  16
#     4  11  24  40  60  90 122 153 198 246 290 351
#     4  10  20  37  58  82 116 155 196 241 295 350
#     4  10  20  38  62  86 116 156 195 238 295 352
#     4  10  21  34  53  82 112 150 194 241 293 347
#     4   9  18  33  55  83 110 141 187 240 295 346
#
# _framework density 19.247772999999999
#
# number of rings (size 3 to 8) (size 9 to 14) (size 15 to 20)
#    0.000    2.111    1.111    2.000    1.556    5.333 
#    0.000    4.444    0.000    2.667    0.000    0.000 
#    0.000    0.000    0.000    0.000    0.000    0.000 
#
# Total GULP energy -892861.521995 kJ/mol
# GULP energy per Si atom -12400.854472 kJ/mol
# Density = 1.920396 g / cm^3
# Si number density = 19.247773 Si / 1000 Ang^3
#
#
#
# Elastic Constant Matrix: (Units=GPa)
#
#
# Indices 1 2 3 4 5 6 
#
# 1 103.9514 67.0455 33.1869 0.0000 0.0000 0.0000
# 2 67.0455 103.9539 33.1872 0.0000 0.0000 0.0000
# 3 33.1869 33.1872 82.4067 0.0000 0.0000 0.0000
# 4 0.0000 0.0000 0.0000 27.9249 0.0000 0.0000
# 5 0.0000 0.0000 0.0000 0.0000 27.9247 0.0000
# 6 0.0000 0.0000 0.0000 0.0000 0.0000 30.8493
#
#
#
# Elastic Compliance Matrix: (Units=1/GPa)
#
#
# Indices 1 2 3 4 5 6 
#
# 1 0.017014 -0.010082 -0.002792 0.000000 0.000000 0.000000
# 2 -0.010082 0.017013 -0.002791 0.000000 0.000000 0.000000
# 3 -0.002792 -0.002791 0.014383 0.000000 0.000000 0.000000
# 4 0.000000 0.000000 0.000000 0.035810 0.000000 0.000000
# 5 0.000000 0.000000 0.000000 0.000000 0.035811 0.000000
# 6 0.000000 0.000000 0.000000 0.000000 0.000000 0.032416
#
#
# Mechanical properties :
#
#
# Convention : Reuss Voigt Hill
#
# Bulk Modulus (GPa) = 58.54643 61.90570 60.22606
# Shear Modulus (GPa) = 26.38947 27.79926 27.09437
#
# Velocity S-wave (km/s) = 3.70677 3.80450 3.75595
# Velocity P-wave (km/s) = 6.98595 7.17853 7.08289
#
# Compressibility (1/GPa) = 0.01708046
#
# Stress axis : x y z
#
# Youngs Moduli (GPa) = 58.77682 58.77828 69.52495
#
# Poissons Ratio (x) = 0.59259 0.19408
# Poissons Ratio (y) = 0.59257 0.19408
# Poissons Ratio (z) = 0.16408 0.16408
#
# Static dielectric constant tensor:
#      x y z
#    x 3.379590 0.000000 0.000000 
#    y 0.000000 3.379590 0.000000 
#    z 0.000000 0.000000 3.498200 
# 
# 
# High freq. dielectric constant tensor:
#      x y z
#    x 1.736380 0.000000 0.000000 
#    y 0.000000 1.736380 0.000000 
#    z 0.000000 0.000000 1.756260 
# 
# From -- ./inp_files/1605.got.cif
#   From: 2010.03.12/outbox.cif.g09.slc.cpg/sg136_1_cif.got.tgz:1605.got - 2010.04.06 18:39:43.
