data_PCOD8318539
_publ_section_title
;
Structure prediction by ZEFSAII (Michael W. Deem and Ramdas Pophale) SiO2 
 PCOD8318539
Probable space group: P 42/N M C
;
_chemical_formula_sum "Si O2"
_cell_formula_units_Z 112
_cell_length_a 14.136844
_cell_length_b 14.136844
_cell_length_c 29.059193
_cell_angle_alpha 90.000000
_cell_angle_beta 90.000000
_cell_angle_gamma 90.000000
_cell_volume 5807.490132
_symmetry_space_group_name_H-M "P 42/N M C"
_symmetry_group_IT_number 137
_space_group.IT_coordinate_system_code '2'
_symmetry_cell_setting 'tetragonal'
loop_
_space_group_symop_operation_xyz
x,y,z
1/2-y,x,1/2+z
1/2-x,1/2-y,z
y,1/2-x,1/2+z
1/2+x,-y,-z
-x,1/2+y,-z
1/2+y,1/2+x,1/2-z
-y,-x,1/2-z
-x,-y,-z
1/2+y,-x,1/2-z
1/2+x,1/2+y,-z
-y,1/2+x,1/2-z
1/2-x,y,z
x,1/2-y,z
1/2-y,1/2-x,1/2+z
y,x,1/2+z
loop_
_atom_site_type_symbol
_atom_site_label
_atom_site_fract_x
_atom_site_fract_y
_atom_site_fract_z
Si Si1 0.143870 0.904377 0.298793
Si Si2 0.028921 0.137996 0.974046
Si Si3 0.040246 0.099018 0.296619
Si Si4 0.497164 0.862133 0.464852
Si Si5 0.854110 0.992574 0.301489
Si Si6 0.473291 0.354635 0.639660
Si Si7 0.356224 0.146545 0.386030
O O1 0.149014 0.850986 0.250000
O O2 0.250000 0.907125 0.319729
O O3 0.075098 0.854628 0.335177
O O4 0.104030 0.007597 0.288883
O O5 0.024752 0.250000 0.983690
O O6 0.065686 0.115795 0.922304
O O7 0.924549 0.093161 0.981590
O O8 0.104927 0.091054 0.008357
O O9 0.052042 0.157988 0.249762
O O10 0.074144 0.150728 0.342457
O O11 0.928376 0.078380 0.302223
O O12 0.477560 0.750000 0.472579
O O13 0.512217 0.889456 0.412022
O O14 0.750000 0.026722 0.317685
O O15 0.892417 0.915017 0.336512
O O16 0.432082 0.250000 0.639717
O O17 0.250000 0.127590 0.367997
O O18 0.362698 0.250000 0.409899
#
# Coordination Sequence:
#
# PCOD8318539 Si02
#       7
#    16  16  16  16  16  16  16
#     4  11  20  32  51  76 111 152 188 225 274 333
#     4  10  21  39  62  87 115 147 187 240 293 342
#     4  10  19  35  52  76 109 143 183 238 286 333
#     4  10  22  39  60  85 116 154 193 232 285 348
#     4  10  20  34  52  72 101 146 190 229 279 330
#     4  10  21  36  51  77 113 149 189 227 267 328
#     4  10  20  34  58  89 114 141 181 231 289 345
#
# _framework density 19.285440000000001
#
# number of rings (size 3 to 8) (size 9 to 14) (size 15 to 20)
#    0.000    1.857    2.857    3.429    0.000    5.286 
#    0.000    2.857    0.000    7.286    0.000    0.000 
#    0.000    0.000    0.000    0.000    0.000    0.000 
#
# Total GULP energy -1388192.413217 kJ/mol
# GULP energy per Si atom -12394.575118 kJ/mol
# Density = 1.924155 g / cm^3
# Si number density = 19.285440 Si / 1000 Ang^3
#
#
#
# Elastic Constant Matrix: (Units=GPa)
#
#
# Indices 1 2 3 4 5 6 
#
# 1 120.6754 34.6742 35.1599 0.0000 0.0000 0.0000
# 2 34.6742 120.6757 35.1599 0.0000 0.0000 0.0000
# 3 35.1599 35.1599 101.6103 0.0000 0.0000 0.0000
# 4 0.0000 0.0000 0.0000 9.1776 0.0000 0.0000
# 5 0.0000 0.0000 0.0000 0.0000 9.1774 0.0000
# 6 0.0000 0.0000 0.0000 0.0000 0.0000 13.6156
#
#
#
# Elastic Compliance Matrix: (Units=1/GPa)
#
#
# Indices 1 2 3 4 5 6 
#
# 1 0.009630 -0.001998 -0.002641 0.000000 0.000000 0.000000
# 2 -0.001998 0.009630 -0.002641 0.000000 0.000000 0.000000
# 3 -0.002641 -0.002641 0.011669 0.000000 0.000000 0.000000
# 4 0.000000 0.000000 0.000000 0.108961 0.000000 0.000000
# 5 0.000000 0.000000 0.000000 0.000000 0.108963 0.000000
# 6 0.000000 0.000000 0.000000 0.000000 0.000000 0.073445
#
#
# Mechanical properties :
#
#
# Convention : Reuss Voigt Hill
#
# Bulk Modulus (GPa) = 61.08684 61.43884 61.26284
# Shear Modulus (GPa) = 14.60645 22.25862 18.43254
#
# Velocity S-wave (km/s) = 2.75504 3.40099 3.09491
# Velocity P-wave (km/s) = 6.47026 6.88107 6.67882
#
# Compressibility (1/GPa) = 0.01637014
#
# Stress axis : x y z
#
# Youngs Moduli (GPa) = 103.84032 103.84063 85.69494
#
# Poissons Ratio (x) = 0.20743 0.22633
# Poissons Ratio (y) = 0.20743 0.22633
# Poissons Ratio (z) = 0.27425 0.27425
#
# Static dielectric constant tensor:
#      x y z
#    x 3.494210 0.000000 0.000000 
#    y 0.000000 3.494220 0.000000 
#    z 0.000000 0.000000 3.577190 
# 
# 
# High freq. dielectric constant tensor:
#      x y z
#    x 1.744240 0.000000 0.000000 
#    y 0.000000 1.744240 0.000000 
#    z 0.000000 0.000000 1.749200 
# 
# From -- ./inp_files/10697.got.cif
#   From: 2010.03.12/outbox.cif.g09.slc.cpg/sg137_6_cif.got.tgz:10697.got - 2010.04.08 09:34:49.
