data_PCOD8318832
_publ_section_title
;
Structure prediction by ZEFSAII (Michael W. Deem and Ramdas Pophale) SiO2 
 PCOD8318832
Probable space group: P 42/N M C
;
_chemical_formula_sum "Si O2"
_cell_formula_units_Z 80
_cell_length_a 14.149692
_cell_length_b 14.149692
_cell_length_c 21.009465
_cell_angle_alpha 90.000000
_cell_angle_beta 90.000000
_cell_angle_gamma 90.000000
_cell_volume 4206.384481
_symmetry_space_group_name_H-M "P 42/N M C"
_symmetry_group_IT_number 137
_space_group.IT_coordinate_system_code '2'
_symmetry_cell_setting 'tetragonal'
loop_
_space_group_symop_operation_xyz
x,y,z
1/2-y,x,1/2+z
1/2-x,1/2-y,z
y,1/2-x,1/2+z
1/2+x,-y,-z
-x,1/2+y,-z
1/2+y,1/2+x,1/2-z
-y,-x,1/2-z
-x,-y,-z
1/2+y,-x,1/2-z
1/2+x,1/2+y,-z
-y,1/2+x,1/2-z
1/2-x,y,z
x,1/2-y,z
1/2-y,1/2-x,1/2+z
y,x,1/2+z
loop_
_atom_site_type_symbol
_atom_site_label
_atom_site_fract_x
_atom_site_fract_y
_atom_site_fract_z
Si Si1 0.144099 0.643371 0.373526
Si Si2 0.137206 0.142474 0.315224
Si Si3 0.040214 0.359574 0.691823
Si Si4 0.859762 0.958079 0.559621
Si Si5 0.640280 0.639196 0.934549
O O1 0.250000 0.627042 0.346096
O O2 0.131182 0.750000 0.400344
O O3 0.124613 0.570898 0.431565
O O4 0.072834 0.624343 0.314811
O O5 0.250000 0.136623 0.315544
O O6 0.102068 0.250000 0.309316
O O7 0.093997 0.082191 0.256004
O O8 0.095709 0.096766 0.379753
O O9 0.066933 0.250000 0.694281
O O10 0.089201 0.401017 0.628351
O O11 0.750000 0.931766 0.556989
O O12 0.903486 0.920559 0.493522
O O13 0.750000 0.614474 0.946895
O O14 0.625240 0.750000 0.925355
#
# Coordination Sequence:
#
# PCOD8318832 Si02
#       5
#    16  16  16  16  16
#     4   9  18  32  46  61  86 119 154 189 216 246
#     4   9  16  27  43  63  87 112 139 174 216 264
#     4   9  17  28  43  63  86 115 148 179 218 263
#     4   9  17  28  43  63  86 115 148 179 218 263
#     4   9  16  27  44  66  90 113 140 179 226 276
#
# _framework density 19.018709000000001
#
# number of rings (size 3 to 8) (size 9 to 14) (size 15 to 20)
#    0.000    3.000    0.000    1.200    0.000    6.400 
#    0.000    3.000    0.000    8.400    0.000    0.000 
#    0.000    0.000    0.000    0.000    0.000   40.400 
#
# Total GULP energy -991449.781131 kJ/mol
# GULP energy per Si atom -12393.122264 kJ/mol
# Density = 1.897542 g / cm^3
# Si number density = 19.018709 Si / 1000 Ang^3
#
#
#
# Elastic Constant Matrix: (Units=GPa)
#
#
# Indices 1 2 3 4 5 6 
#
# 1 67.3899 10.7461 26.8797 0.0000 0.0000 0.0000
# 2 10.7461 67.3899 26.8797 0.0000 0.0000 0.0000
# 3 26.8797 26.8797 133.0025 0.0000 0.0000 0.0000
# 4 0.0000 0.0000 0.0000 10.0684 0.0000 0.0000
# 5 0.0000 0.0000 0.0000 0.0000 10.0684 0.0000
# 6 0.0000 0.0000 0.0000 0.0000 0.0000 7.6417
#
#
#
# Elastic Compliance Matrix: (Units=1/GPa)
#
#
# Indices 1 2 3 4 5 6 
#
# 1 0.016260 -0.001394 -0.003004 0.000000 0.000000 0.000000
# 2 -0.001394 0.016260 -0.003004 0.000000 0.000000 0.000000
# 3 -0.003004 -0.003004 0.008733 0.000000 0.000000 0.000000
# 4 0.000000 0.000000 0.000000 0.099320 0.000000 0.000000
# 5 0.000000 0.000000 0.000000 0.000000 0.099320 0.000000
# 6 0.000000 0.000000 0.000000 0.000000 0.000000 0.130861
#
#
# Mechanical properties :
#
#
# Convention : Reuss Voigt Hill
#
# Bulk Modulus (GPa) = 37.81237 44.08816 40.95026
# Shear Modulus (GPa) = 12.67826 19.10749 15.89288
#
# Velocity S-wave (km/s) = 2.58470 3.17309 2.89389
# Velocity P-wave (km/s) = 5.36958 6.05446 5.72227
#
# Compressibility (1/GPa) = 0.02644637
#
# Stress axis : x y z
#
# Youngs Moduli (GPa) = 61.50179 61.50179 114.50860
#
# Poissons Ratio (x) = 0.08576 0.34401
# Poissons Ratio (y) = 0.08576 0.34401
# Poissons Ratio (z) = 0.18477 0.18477
#
# Static dielectric constant tensor:
#      x y z
#    x 3.325160 0.000000 0.000000 
#    y 0.000000 3.325160 0.000000 
#    z 0.000000 0.000000 3.656250 
# 
# 
# High freq. dielectric constant tensor:
#      x y z
#    x 1.711820 0.000000 0.000000 
#    y 0.000000 1.711820 0.000000 
#    z 0.000000 0.000000 1.736560 
# 
# From -- ./inp_files/7528.got.cif
#   From: 2010.03.12/outbox.cif.g09.slc.cpg/sg137_4_cif.got.tgz:7528.got - 2010.04.08 09:34:49.
