data_PCOD8318094
_publ_section_title
;
Structure prediction by ZEFSAII (Michael W. Deem and Ramdas Pophale) SiO2 
 PCOD8318094
Probable space group: P 42/M N M
;
_chemical_formula_sum "Si O2"
_cell_formula_units_Z 96
_cell_length_a 24.138800
_cell_length_b 24.138800
_cell_length_c 8.785046
_cell_angle_alpha 90.000000
_cell_angle_beta 90.000000
_cell_angle_gamma 90.000000
_cell_volume 5118.885234
_symmetry_space_group_name_H-M "P 42/M N M"
_symmetry_group_IT_number 136
_symmetry_cell_setting 'tetragonal'
loop_
_space_group_symop_operation_xyz
x,y,z
1/2-y,1/2+x,1/2+z
-x,-y,z
1/2+y,1/2-x,1/2+z
1/2+x,1/2-y,1/2-z
1/2-x,1/2+y,1/2-z
y,x,-z
-y,-x,-z
-x,-y,-z
1/2+y,1/2-x,1/2-z
x,y,-z
1/2-y,1/2+x,1/2-z
1/2-x,1/2+y,1/2+z
1/2+x,1/2-y,1/2+z
-y,-x,z
y,x,z
loop_
_atom_site_type_symbol
_atom_site_label
_atom_site_fract_x
_atom_site_fract_y
_atom_site_fract_z
Si Si1 0.640909 0.728987 0.820133
Si Si2 0.351959 0.849225 0.680069
Si Si3 0.850375 0.060679 0.825215
Si Si4 0.642891 0.447024 0.171905
Si Si5 0.558285 0.060687 0.317401
Si Si6 0.364869 0.723826 0.675588
O O1 0.693089 0.693089 0.755060
O O2 0.638867 0.790947 0.751438
O O3 0.583546 0.700386 0.773949
O O4 0.645959 0.731685 0.000000
O O5 0.349704 0.853279 0.500000
O O6 0.397335 0.893370 0.739609
O O7 0.366383 0.787058 0.731052
O O8 0.906042 0.093959 0.786338
O O9 0.861628 0.997629 0.785995
O O10 0.833548 0.066510 0.000000
O O11 0.585784 0.414217 0.187187
O O12 0.693896 0.408732 0.218084
O O13 0.652353 0.467757 0.000000
O O14 0.554260 0.057611 0.500000
O O15 0.498668 0.077331 0.248470
O O16 0.383301 0.718627 0.500000
O O17 0.303790 0.696211 0.696359
#
# Coordination Sequence:
#
# PCOD8318094 Si02
#       6
#    16  16  16  16  16  16
#     4   9  17  32  54  78 106 138 170 206 251 302
#     4   9  18  32  54  82 105 132 172 211 247 299
#     4  10  21  36  53  75 104 137 174 216 261 307
#     4  10  21  36  53  75 104 137 174 216 261 307
#     4  10  20  36  54  72  99 130 165 208 254 300
#     4   9  17  32  54  78 106 138 170 206 251 302
#
# _framework density 18.754082
#
# number of rings (size 3 to 8) (size 9 to 14) (size 15 to 20)
#    0.000    2.500    0.000    2.500    0.000    5.667 
#    0.000    9.167    0.000    4.000    0.000    0.000 
#    0.000    0.000    0.000    0.000    0.000    0.000 
#
# Total GULP energy -1190269.412074 kJ/mol
# GULP energy per Si atom -12398.639709 kJ/mol
# Density = 1.871140 g / cm^3
# Si number density = 18.754082 Si / 1000 Ang^3
#
#
#
# Elastic Constant Matrix: (Units=GPa)
#
#
# Indices 1 2 3 4 5 6 
#
# 1 112.8508 77.1407 22.6640 0.0000 0.0000 0.0000
# 2 77.1407 112.8508 22.6640 0.0000 0.0000 0.0000
# 3 22.6640 22.6640 32.5336 0.0000 0.0000 0.0000
# 4 0.0000 0.0000 0.0000 21.7713 0.0000 0.0000
# 5 0.0000 0.0000 0.0000 0.0000 21.7713 0.0000
# 6 0.0000 0.0000 0.0000 0.0000 0.0000 22.2339
#
#
#
# Elastic Compliance Matrix: (Units=1/GPa)
#
#
# Indices 1 2 3 4 5 6 
#
# 1 0.017158 -0.010845 -0.004398 0.000000 0.000000 0.000000
# 2 -0.010845 0.017158 -0.004398 0.000000 0.000000 0.000000
# 3 -0.004398 -0.004398 0.036864 0.000000 0.000000 0.000000
# 4 0.000000 0.000000 0.000000 0.045932 0.000000 0.000000
# 5 0.000000 0.000000 0.000000 0.000000 0.045932 0.000000
# 6 0.000000 0.000000 0.000000 0.000000 0.000000 0.044976
#
#
# Mechanical properties :
#
#
# Convention : Reuss Voigt Hill
#
# Bulk Modulus (GPa) = 31.34860 55.90806 43.62833
# Shear Modulus (GPa) = 19.38475 22.20640 20.79557
#
# Velocity S-wave (km/s) = 3.21850 3.44478 3.33356
# Velocity P-wave (km/s) = 5.52843 6.76002 6.17501
#
# Compressibility (1/GPa) = 0.03189935
#
# Stress axis : x y z
#
# Youngs Moduli (GPa) = 58.28214 58.28214 27.12644
#
# Poissons Ratio (x) = 0.63209 0.11929
# Poissons Ratio (y) = 0.63209 0.11929
# Poissons Ratio (z) = 0.25630 0.25630
#
# Static dielectric constant tensor:
#      x y z
#    x 3.548450 0.000000 0.000000 
#    y 0.000000 3.548450 0.000000 
#    z 0.000000 0.000000 3.257110 
# 
# 
# High freq. dielectric constant tensor:
#      x y z
#    x 1.730400 0.000000 0.000000 
#    y 0.000000 1.730400 0.000000 
#    z 0.000000 0.000000 1.712810 
# 
# From -- ./inp_files/1914.got.cif
#   From: 2010.03.12/outbox.cif.g09.slc.cpg/sg136_1_cif.got.tgz:1914.got - 2010.04.06 18:39:43.
