data_PCOD8318806
_publ_section_title
;
Structure prediction by ZEFSAII (Michael W. Deem and Ramdas Pophale) SiO2 
 PCOD8318806
Probable space group: P 42/N M C
;
_chemical_formula_sum "Si O2"
_cell_formula_units_Z 46
_cell_length_a 13.330458
_cell_length_b 13.330458
_cell_length_c 13.639543
_cell_angle_alpha 90.000000
_cell_angle_beta 90.000000
_cell_angle_gamma 90.000000
_cell_volume 2423.761938
_symmetry_space_group_name_H-M "P 42/N M C"
_symmetry_group_IT_number 137
_space_group.IT_coordinate_system_code '2'
_symmetry_cell_setting 'tetragonal'
loop_
_space_group_symop_operation_xyz
x,y,z
1/2-y,x,1/2+z
1/2-x,1/2-y,z
y,1/2-x,1/2+z
1/2+x,-y,-z
-x,1/2+y,-z
1/2+y,1/2+x,1/2-z
-y,-x,1/2-z
-x,-y,-z
1/2+y,-x,1/2-z
1/2+x,1/2+y,-z
-y,1/2+x,1/2-z
1/2-x,y,z
x,1/2-y,z
1/2-y,1/2-x,1/2+z
y,x,1/2+z
loop_
_atom_site_type_symbol
_atom_site_label
_atom_site_fract_x
_atom_site_fract_y
_atom_site_fract_z
Si Si1 0.750000 0.358520 0.065336
Si Si2 0.750000 0.750000 0.987502
Si Si3 0.250000 0.750000 0.750000
Si Si4 0.948926 0.750000 0.122844
Si Si5 0.250000 0.442164 0.153068
Si Si6 0.063746 0.921168 0.442831
O O1 0.750000 0.250000 0.013561
O O2 0.750000 0.350064 0.183643
O O3 0.850505 0.411210 0.033822
O O4 0.750000 0.652618 0.919064
O O5 0.851274 0.750000 0.052787
O O6 0.907617 0.750000 0.233979
O O7 0.021315 0.844738 0.107443
O O8 0.351935 0.506449 0.136618
O O9 0.000000 0.000000 0.500000
#
# Coordination Sequence:
#
# PCOD8318806 Si02
#       6
#     8   4   2   8   8  16
#     4   9  19  38  61  85 120 158 201 258 301 356
#     4  12  24  44  62  90 142 154 208 268 324 378
#     4   8  16  40  56  92 110 152 208 240 304 360
#     4  12  23  44  65  92 125 172 206 272 315 377
#     4  11  25  42  65  97 121 167 221 254 318 392
#     4  11  22  42  63  88 127 167 207 259 318 372
#
# _framework density 18.978762
#
# number of rings (size 3 to 8) (size 9 to 14) (size 15 to 20)
#    0.522    0.696    5.217    1.565    0.000    0.000 
#    6.261    1.739    0.000    0.000    0.000    0.000 
#    0.000    0.000    0.000    0.000    0.000    0.000 
#
# Total GULP energy -569904.247580 kJ/mol
# GULP energy per Si atom -12389.222773 kJ/mol
# Density = 1.893557 g / cm^3
# Si number density = 18.978762 Si / 1000 Ang^3
#
#
#
# Elastic Constant Matrix: (Units=GPa)
#
#
# Indices 1 2 3 4 5 6 
#
# 1 137.1349 65.9673 61.2698 0.0000 0.0000 0.0000
# 2 65.9673 137.1349 61.2698 0.0000 0.0000 0.0000
# 3 61.2698 61.2698 160.4236 0.0000 0.0000 0.0000
# 4 0.0000 0.0000 0.0000 12.7953 0.0000 0.0000
# 5 0.0000 0.0000 0.0000 0.0000 12.7953 0.0000
# 6 0.0000 0.0000 0.0000 0.0000 0.0000 40.4644
#
#
#
# Elastic Compliance Matrix: (Units=1/GPa)
#
#
# Indices 1 2 3 4 5 6 
#
# 1 0.010225 -0.003827 -0.002444 0.000000 0.000000 0.000000
# 2 -0.003827 0.010225 -0.002444 0.000000 0.000000 0.000000
# 3 -0.002444 -0.002444 0.008100 0.000000 0.000000 0.000000
# 4 0.000000 0.000000 0.000000 0.078154 0.000000 0.000000
# 5 0.000000 0.000000 0.000000 0.000000 0.078154 0.000000
# 6 0.000000 0.000000 0.000000 0.000000 0.000000 0.024713
#
#
# Mechanical properties :
#
#
# Convention : Reuss Voigt Hill
#
# Bulk Modulus (GPa) = 89.91425 90.18967 90.05196
# Shear Modulus (GPa) = 21.67277 29.62344 25.64810
#
# Velocity S-wave (km/s) = 3.38294 3.95507 3.68014
# Velocity P-wave (km/s) = 7.92074 8.27535 8.09998
#
# Compressibility (1/GPa) = 0.01112171
#
# Stress axis : x y z
#
# Youngs Moduli (GPa) = 97.80309 97.80309 123.45705
#
# Poissons Ratio (x) = 0.37427 0.30167
# Poissons Ratio (y) = 0.37427 0.30167
# Poissons Ratio (z) = 0.23898 0.23898
#
# Static dielectric constant tensor:
#      x y z
#    x 3.715830 0.000000 0.000000 
#    y 0.000000 3.715830 0.000000 
#    z 0.000000 0.000000 3.381590 
# 
# 
# High freq. dielectric constant tensor:
#      x y z
#    x 1.750900 0.000000 0.000000 
#    y 0.000000 1.750900 0.000000 
#    z 0.000000 0.000000 1.735990 
# 
# From -- ./inp_files/3001.got.cif
#   From: 2010.03.12/outbox.cif.g09.slc.cpg/sg137_2_cif.got.tgz:3001.got - 2010.04.08 09:34:49.
