data_PCOD8318134
_publ_section_title
;
Structure prediction by ZEFSAII (Michael W. Deem and Ramdas Pophale) SiO2 
 PCOD8318134
Probable space group: P 42/M N M
;
_chemical_formula_sum "Si O2"
_cell_formula_units_Z 88
_cell_length_a 12.417054
_cell_length_b 12.417054
_cell_length_c 28.691218
_cell_angle_alpha 90.000000
_cell_angle_beta 90.000000
_cell_angle_gamma 90.000000
_cell_volume 4423.704665
_symmetry_space_group_name_H-M "P 42/M N M"
_symmetry_group_IT_number 136
_symmetry_cell_setting 'tetragonal'
loop_
_space_group_symop_operation_xyz
x,y,z
1/2-y,1/2+x,1/2+z
-x,-y,z
1/2+y,1/2-x,1/2+z
1/2+x,1/2-y,1/2-z
1/2-x,1/2+y,1/2-z
y,x,-z
-y,-x,-z
-x,-y,-z
1/2+y,1/2-x,1/2-z
x,y,-z
1/2-y,1/2+x,1/2-z
1/2-x,1/2+y,1/2+z
1/2+x,1/2-y,1/2+z
-y,-x,z
y,x,z
loop_
_atom_site_type_symbol
_atom_site_label
_atom_site_fract_x
_atom_site_fract_y
_atom_site_fract_z
Si Si1 0.823022 0.000351 0.609888
Si Si2 0.087662 0.740430 0.794943
Si Si3 0.408906 0.591095 0.448049
Si Si4 0.266628 0.563006 0.789664
Si Si5 0.885349 0.447345 0.055134
Si Si6 0.235448 0.944119 0.104292
O O1 0.889697 0.889697 0.600508
O O2 0.788349 0.006252 0.664004
O O3 0.716597 0.008723 0.577772
O O4 0.896816 0.103185 0.598132
O O5 0.144079 0.855922 0.788287
O O6 0.174910 0.647999 0.800422
O O7 0.020442 0.733616 0.843185
O O8 0.011056 0.721958 0.751366
O O9 0.500000 0.500000 0.448077
O O10 0.376207 0.623794 0.500000
O O11 0.301191 0.550906 0.422763
O O12 0.376223 0.623778 0.774020
O O13 0.885219 0.328237 0.075773
O O14 0.000000 0.500000 0.068673
O O15 0.868237 0.444515 0.000000
O O16 0.139282 0.860719 0.108304
#
# Coordination Sequence:
#
# PCOD8318134 Si02
#       6
#    16  16   8  16  16  16
#     4  10  21  41  68  94 123 162 213 270 320 372
#     4  10  21  36  57  85 115 153 199 242 298 367
#     4   9  18  32  56  90 118 148 195 243 294 354
#     4  10  21  38  58  86 121 158 201 251 311 373
#     4  11  24  41  61  90 127 165 204 250 314 377
#     4  10  20  38  61  86 119 156 201 252 297 360
#
# _framework density 19.892827
#
# number of rings (size 3 to 8) (size 9 to 14) (size 15 to 20)
#    0.000    1.909    1.818    1.636    1.273    5.455 
#    1.636    0.909    0.000    0.000    0.000    0.000 
#    0.000    0.000    0.000    0.000    0.000    0.000 
#
# Total GULP energy -1091219.018370 kJ/mol
# GULP energy per Si atom -12400.216118 kJ/mol
# Density = 1.984755 g / cm^3
# Si number density = 19.892827 Si / 1000 Ang^3
#
#
#
# Elastic Constant Matrix: (Units=GPa)
#
#
# Indices 1 2 3 4 5 6 
#
# 1 80.1663 24.4893 56.5522 0.0000 0.0000 0.0000
# 2 24.4893 80.1663 56.5522 0.0000 0.0000 0.0000
# 3 56.5522 56.5522 149.2057 0.0000 0.0000 0.0000
# 4 0.0000 0.0000 0.0000 32.8827 0.0000 0.0000
# 5 0.0000 0.0000 0.0000 0.0000 32.8827 0.0000
# 6 0.0000 0.0000 0.0000 0.0000 0.0000 27.3203
#
#
#
# Elastic Compliance Matrix: (Units=1/GPa)
#
#
# Indices 1 2 3 4 5 6 
#
# 1 0.017073 -0.000888 -0.006134 0.000000 0.000000 0.000000
# 2 -0.000888 0.017073 -0.006134 0.000000 0.000000 0.000000
# 3 -0.006134 -0.006134 0.011352 0.000000 0.000000 0.000000
# 4 0.000000 0.000000 0.000000 0.030411 0.000000 0.000000
# 5 0.000000 0.000000 0.000000 0.000000 0.030411 0.000000
# 6 0.000000 0.000000 0.000000 0.000000 0.000000 0.036603
#
#
# Mechanical properties :
#
#
# Convention : Reuss Voigt Hill
#
# Bulk Modulus (GPa) = 52.12603 64.96954 58.54778
# Shear Modulus (GPa) = 28.46876 30.08010 29.27443
#
# Velocity S-wave (km/s) = 3.78710 3.89280 3.84032
# Velocity P-wave (km/s) = 6.73670 7.27571 7.01139
#
# Compressibility (1/GPa) = 0.01918427
#
# Stress axis : x y z
#
# Youngs Moduli (GPa) = 58.57294 58.57289 88.08805
#
# Poissons Ratio (x) = 0.05201 0.54036
# Poissons Ratio (y) = 0.05201 0.54036
# Poissons Ratio (z) = 0.35931 0.35931
#
# Static dielectric constant tensor:
#      x y z
#    x 3.577130 0.000000 0.000000 
#    y 0.000000 3.577130 0.000000 
#    z 0.000000 0.000000 3.725550 
# 
# 
# High freq. dielectric constant tensor:
#      x y z
#    x 1.766740 0.000000 0.000000 
#    y 0.000000 1.766740 0.000000 
#    z 0.000000 0.000000 1.787300 
# 
# From -- ./inp_files/9759.got.cif
#   From: 2010.03.12/outbox.cif.g09.slc.cpg/sg136_5_cif.got.tgz:9759.got - 2010.04.06 18:39:43.
