data_PCOD8318516
_publ_section_title
;
Structure prediction by ZEFSAII (Michael W. Deem and Ramdas Pophale) SiO2 
 PCOD8318516
Probable space group: P 42/N M C
;
_chemical_formula_sum "Si O2"
_cell_formula_units_Z 48
_cell_length_a 7.785791
_cell_length_b 7.785791
_cell_length_c 38.273645
_cell_angle_alpha 90.000000
_cell_angle_beta 90.000000
_cell_angle_gamma 90.000000
_cell_volume 2320.092538
_symmetry_space_group_name_H-M "P 42/N M C"
_symmetry_group_IT_number 137
_space_group.IT_coordinate_system_code '2'
_symmetry_cell_setting 'tetragonal'
loop_
_space_group_symop_operation_xyz
x,y,z
1/2-y,x,1/2+z
1/2-x,1/2-y,z
y,1/2-x,1/2+z
1/2+x,-y,-z
-x,1/2+y,-z
1/2+y,1/2+x,1/2-z
-y,-x,1/2-z
-x,-y,-z
1/2+y,-x,1/2-z
1/2+x,1/2+y,-z
-y,1/2+x,1/2-z
1/2-x,y,z
x,1/2-y,z
1/2-y,1/2-x,1/2+z
y,x,1/2+z
loop_
_atom_site_type_symbol
_atom_site_label
_atom_site_fract_x
_atom_site_fract_y
_atom_site_fract_z
Si Si1 0.750000 0.448314 0.162802
Si Si2 0.440877 0.047693 0.038413
Si Si3 0.440419 0.951873 0.211606
Si Si4 0.955712 0.250000 0.414730
O O1 0.750000 0.250000 0.156215
O O2 0.576720 0.495285 0.182778
O O3 0.750000 0.534256 0.124461
O O4 0.250000 0.970704 0.045828
O O5 0.433643 0.250000 0.042156
O O6 0.579163 0.972769 0.065945
O O7 0.500000 0.000000 0.000000
O O8 0.509120 0.009120 0.250000
O O9 0.250000 0.031132 0.203514
O O10 0.422363 0.750000 0.212267
O O11 0.750000 0.250000 0.415473
#
# Coordination Sequence:
#
# PCOD8318516 Si02
#       4
#     8  16  16   8
#     4  11  23  35  57  89 119 151 195 243 297 357
#     4  10  19  33  56  80 105 143 189 234 283 341
#     4   9  20  39  60  82 113 154 195 239 295 351
#     4   9  20  37  51  77 119 151 179 233 295 345
#
# _framework density 20.688832000000001
#
# number of rings (size 3 to 8) (size 9 to 14) (size 15 to 20)
#    0.000    2.333    1.667    1.500    2.333    2.000 
#    0.000    6.667    0.000    0.000    0.000    0.000 
#    0.000    0.000    0.000    0.000    0.000    0.000 
#
# Total GULP energy -594864.800301 kJ/mol
# GULP energy per Si atom -12393.016673 kJ/mol
# Density = 2.064174 g / cm^3
# Si number density = 20.688832 Si / 1000 Ang^3
#
#
#
# Elastic Constant Matrix: (Units=GPa)
#
#
# Indices 1 2 3 4 5 6 
#
# 1 100.1679 28.1924 65.8972 0.0000 0.0000 0.0000
# 2 28.1924 100.1679 65.8972 0.0000 0.0000 0.0000
# 3 65.8972 65.8972 204.8810 0.0000 0.0000 0.0000
# 4 0.0000 0.0000 0.0000 26.9063 0.0000 0.0000
# 5 0.0000 0.0000 0.0000 0.0000 26.9063 0.0000
# 6 0.0000 0.0000 0.0000 0.0000 0.0000 22.3128
#
#
#
# Elastic Compliance Matrix: (Units=1/GPa)
#
#
# Indices 1 2 3 4 5 6 
#
# 1 0.012763 -0.001131 -0.003741 0.000000 0.000000 0.000000
# 2 -0.001131 0.012763 -0.003741 0.000000 0.000000 0.000000
# 3 -0.003741 -0.003741 0.007288 0.000000 0.000000 0.000000
# 4 0.000000 0.000000 0.000000 0.037166 0.000000 0.000000
# 5 0.000000 0.000000 0.000000 0.000000 0.037166 0.000000
# 6 0.000000 0.000000 0.000000 0.000000 0.000000 0.044817
#
#
# Mechanical properties :
#
#
# Convention : Reuss Voigt Hill
#
# Bulk Modulus (GPa) = 64.15869 80.57673 72.36771
# Shear Modulus (GPa) = 28.67228 31.57376 30.12302
#
# Velocity S-wave (km/s) = 3.72678 3.91080 3.81990
# Velocity P-wave (km/s) = 7.04252 7.70870 7.38313
#
# Compressibility (1/GPa) = 0.01558635
#
# Stress axis : x y z
#
# Youngs Moduli (GPa) = 78.35299 78.35299 137.22085
#
# Poissons Ratio (x) = 0.08861 0.51338
# Poissons Ratio (y) = 0.08861 0.51338
# Poissons Ratio (z) = 0.29314 0.29314
#
# Static dielectric constant tensor:
#      x y z
#    x 3.814020 0.000000 0.000000 
#    y 0.000000 3.814020 0.000000 
#    z 0.000000 0.000000 4.590710 
# 
# 
# High freq. dielectric constant tensor:
#      x y z
#    x 1.805970 0.000000 0.000000 
#    y 0.000000 1.805970 0.000000 
#    z 0.000000 0.000000 1.806260 
# 
# From -- ./inp_files/10052.got.cif
#   From: 2010.03.12/outbox.cif.g09.slc.cpg/sg137_6_cif.got.tgz:10052.got - 2010.04.08 09:34:49.
