data_PCOD8318843
_publ_section_title
;
Structure prediction by ZEFSAII (Michael W. Deem and Ramdas Pophale) SiO2 
 PCOD8318843
Probable space group: P 42/N C M
;
_chemical_formula_sum "Si O2"
_cell_formula_units_Z 96
_cell_length_a 15.559681
_cell_length_b 15.559681
_cell_length_c 23.033240
_cell_angle_alpha 90.000000
_cell_angle_beta 90.000000
_cell_angle_gamma 90.000000
_cell_volume 5576.432001
_symmetry_space_group_name_H-M "P 42/N C M"
_symmetry_group_IT_number 138
_space_group.IT_coordinate_system_code '2'
_symmetry_cell_setting 'tetragonal'
loop_
_space_group_symop_operation_xyz
x,y,z
1/2-y,x,1/2+z
1/2-x,1/2-y,z
y,1/2-x,1/2+z
1/2+x,-y,1/2-z
-x,1/2+y,1/2-z
1/2+y,1/2+x,-z
-y,-x,-z
-x,-y,-z
1/2+y,-x,1/2-z
1/2+x,1/2+y,-z
-y,1/2+x,1/2-z
1/2-x,y,1/2+z
x,1/2-y,1/2+z
1/2-y,1/2-x,z
y,x,z
loop_
_atom_site_type_symbol
_atom_site_label
_atom_site_fract_x
_atom_site_fract_y
_atom_site_fract_z
Si Si1 0.392536 0.976384 0.182906
Si Si2 0.493938 0.685898 0.651300
Si Si3 0.822486 0.677515 0.342492
Si Si4 0.565071 0.704932 0.411993
Si Si5 0.778335 0.119718 0.235229
Si Si6 0.176669 0.323332 0.793117
Si Si7 0.860982 0.006030 0.521001
O O1 0.467056 0.906453 0.176125
O O2 0.318867 0.956577 0.228276
O O3 0.435795 0.064206 0.205530
O O4 0.348824 0.991817 0.121011
O O5 0.421358 0.752960 0.673612
O O6 0.589029 0.708235 0.675146
O O7 0.487113 0.687726 0.582075
O O8 0.750000 0.750000 0.342649
O O9 0.908747 0.708446 0.377003
O O10 0.843095 0.656906 0.274938
O O11 0.652464 0.652464 0.418166
O O12 0.524057 0.714570 0.476213
O O13 0.696855 0.153979 0.272518
O O14 0.250000 0.250000 0.800789
O O15 0.934931 0.934931 0.526137
O O16 0.904295 0.095706 0.500000
#
# Coordination Sequence:
#
# PCOD8318843 Si02
#       7
#    16  16   8  16  16   8  16
#     4  10  17  31  55  76  99 131 184 219 257 314
#     4  11  19  33  51  77 108 138 177 218 274 325
#     4   9  18  32  44  65 102 138 169 202 265 323
#     4   9  17  28  47  72  94 130 169 216 252 299
#     4   9  20  34  51  76 107 140 171 220 267 321
#     4  11  22  34  49  79 118 143 168 222 285 326
#     4  10  17  29  49  73 100 129 175 227 257 302
#
# _framework density 17.215309999999999
#
# number of rings (size 3 to 8) (size 9 to 14) (size 15 to 20)
#    0.000    2.167    3.333    1.000    0.000    2.000 
#    1.500    0.000    0.000    1.000    0.000    0.000 
#    0.000    4.333    0.000    0.000    0.000    0.000 
#
# Total GULP energy -1189487.396404 kJ/mol
# GULP energy per Si atom -12390.493713 kJ/mol
# Density = 1.717613 g / cm^3
# Si number density = 17.215310 Si / 1000 Ang^3
#
#
#
# Elastic Constant Matrix: (Units=GPa)
#
#
# Indices 1 2 3 4 5 6 
#
# 1 63.2001 47.4555 55.4683 0.0000 0.0000 0.0000
# 2 47.4555 63.1996 55.4681 0.0000 0.0000 0.0000
# 3 55.4683 55.4681 149.9355 0.0000 0.0000 0.0000
# 4 0.0000 0.0000 0.0000 24.9056 0.0000 0.0000
# 5 0.0000 0.0000 0.0000 0.0000 24.9058 0.0000
# 6 0.0000 0.0000 0.0000 0.0000 0.0000 19.9550
#
#
#
# Elastic Compliance Matrix: (Units=1/GPa)
#
#
# Indices 1 2 3 4 5 6 
#
# 1 0.038940 -0.024575 -0.005314 0.000000 0.000000 0.000000
# 2 -0.024575 0.038940 -0.005314 0.000000 0.000000 0.000000
# 3 -0.005314 -0.005314 0.010601 0.000000 0.000000 0.000000
# 4 0.000000 0.000000 0.000000 0.040152 0.000000 0.000000
# 5 0.000000 0.000000 0.000000 0.000000 0.040151 0.000000
# 6 0.000000 0.000000 0.000000 0.000000 0.000000 0.050113
#
#
# Mechanical properties :
#
#
# Convention : Reuss Voigt Hill
#
# Bulk Modulus (GPa) = 55.32745 65.90210 60.61478
# Shear Modulus (GPa) = 16.93033 21.81618 19.37326
#
# Velocity S-wave (km/s) = 3.13940 3.56371 3.35826
# Velocity P-wave (km/s) = 6.73419 7.43624 7.09391
#
# Compressibility (1/GPa) = 0.01807421
#
# Stress axis : x y z
#
# Youngs Moduli (GPa) = 25.68084 25.68060 94.32640
#
# Poissons Ratio (x) = 0.63110 0.50127
# Poissons Ratio (y) = 0.63111 0.50127
# Poissons Ratio (z) = 0.13647 0.13647
#
# Static dielectric constant tensor:
#      x y z
#    x 3.176320 0.000000 0.000000 
#    y 0.000000 3.176320 0.000000 
#    z 0.000000 0.000000 3.308830 
# 
# 
# High freq. dielectric constant tensor:
#      x y z
#    x 1.645890 0.000000 0.000000 
#    y 0.000000 1.645890 0.000000 
#    z 0.000000 0.000000 1.660820 
# 
# From -- ./inp_files/6410.got.cif
#   From: 2010.03.12/outbox.cif.g09.slc.cpg/sg138_4_cif.got.tgz:6410.got - 2010.04.08 09:41:05.
