data_PCOD8318970
_publ_section_title
;
Structure prediction by ZEFSAII (Michael W. Deem and Ramdas Pophale) SiO2 
 PCOD8318970
Probable space group: P 42/N C M
;
_chemical_formula_sum "Si O2"
_cell_formula_units_Z 76
_cell_length_a 16.045533
_cell_length_b 16.045533
_cell_length_c 15.497551
_cell_angle_alpha 90.000000
_cell_angle_beta 90.000000
_cell_angle_gamma 90.000000
_cell_volume 3989.985986
_symmetry_space_group_name_H-M "P 42/N C M"
_symmetry_group_IT_number 138
_space_group.IT_coordinate_system_code '2'
_symmetry_cell_setting 'tetragonal'
loop_
_space_group_symop_operation_xyz
x,y,z
1/2-y,x,1/2+z
1/2-x,1/2-y,z
y,1/2-x,1/2+z
1/2+x,-y,1/2-z
-x,1/2+y,1/2-z
1/2+y,1/2+x,-z
-y,-x,-z
-x,-y,-z
1/2+y,-x,1/2-z
1/2+x,1/2+y,-z
-y,1/2+x,1/2-z
1/2-x,y,1/2+z
x,1/2-y,1/2+z
1/2-y,1/2-x,z
y,x,z
loop_
_atom_site_type_symbol
_atom_site_label
_atom_site_fract_x
_atom_site_fract_y
_atom_site_fract_z
Si Si1 0.478877 0.348495 0.856021
Si Si2 0.419058 0.771025 0.353645
Si Si3 0.250000 0.750000 0.250000
Si Si4 0.666005 0.530553 0.704065
Si Si5 0.097910 0.532162 0.174392
Si Si6 0.897391 0.397391 0.500000
O O1 0.387110 0.387110 0.847397
O O2 0.465502 0.248814 0.855160
O O3 0.536737 0.375668 0.775574
O O4 0.520364 0.388779 0.941158
O O5 0.332514 0.764294 0.304238
O O6 0.492767 0.814531 0.298559
O O7 0.452534 0.679862 0.382114
O O8 0.398217 0.816502 0.441370
O O9 0.621269 0.621269 0.714651
O O10 0.603797 0.468723 0.654621
O O11 0.057699 0.442302 0.151903
#
# Coordination Sequence:
#
# PCOD8318970 Si02
#       6
#    16  16   4  16  16   8
#     4  10  21  37  57  85 116 151 194 241 295 352
#     4  11  21  35  57  87 118 154 193 243 292 352
#     4  12  20  38  56  80 124 158 204 240 292 338
#     4  10  19  37  61  83 110 153 202 243 283 341
#     4   9  18  36  59  79 109 151 197 239 280 341
#     4  12  23  35  56  90 124 152 188 240 310 358
#
# _framework density 19.047687
#
# number of rings (size 3 to 8) (size 9 to 14) (size 15 to 20)
#    0.000    1.684    4.211    1.579    0.000    1.684 
#    0.000    1.053    0.000    2.526    0.000    2.947 
#    0.000    0.000    0.000    0.000    0.000    0.000 
#
# Total GULP energy -941975.097689 kJ/mol
# GULP energy per Si atom -12394.409180 kJ/mol
# Density = 1.900433 g / cm^3
# Si number density = 19.047687 Si / 1000 Ang^3
#
#
#
# Elastic Constant Matrix: (Units=GPa)
#
#
# Indices 1 2 3 4 5 6 
#
# 1 119.2076 68.3242 40.0207 0.0000 0.0000 0.0000
# 2 68.3242 119.2076 40.0207 0.0000 0.0000 0.0000
# 3 40.0207 40.0207 52.9571 0.0000 0.0000 0.0000
# 4 0.0000 0.0000 0.0000 267.3454 0.0000 0.0000
# 5 0.0000 0.0000 0.0000 0.0000 267.3454 0.0000
# 6 0.0000 0.0000 0.0000 0.0000 0.0000 36.3131
#
#
#
# Elastic Compliance Matrix: (Units=1/GPa)
#
#
# Indices 1 2 3 4 5 6 
#
# 1 0.013762 -0.005891 -0.005949 0.000000 0.000000 0.000000
# 2 -0.005891 0.013762 -0.005949 0.000000 0.000000 0.000000
# 3 -0.005949 -0.005949 0.027874 0.000000 0.000000 0.000000
# 4 0.000000 0.000000 0.000000 0.003740 0.000000 0.000000
# 5 0.000000 0.000000 0.000000 0.000000 0.003740 0.000000
# 6 0.000000 0.000000 0.000000 0.000000 0.000000 0.027538
#
#
# Mechanical properties :
#
#
# Convention : Reuss Voigt Hill
#
# Bulk Modulus (GPa) = 50.44741 65.34484 57.89613
# Shear Modulus (GPa) = 37.70724 123.73455 80.72090
#
# Velocity S-wave (km/s) = 4.45412 8.06855 6.51693
# Velocity P-wave (km/s) = 7.27974 11.00828 9.33212
#
# Compressibility (1/GPa) = 0.01982262
#
# Stress axis : x y z
#
# Youngs Moduli (GPa) = 72.66355 72.66355 35.87561
#
# Poissons Ratio (x) = 0.42804 0.21341
# Poissons Ratio (y) = 0.42804 0.21341
# Poissons Ratio (z) = 0.43224 0.43224
#
# Static dielectric constant tensor:
#      x y z
#    x 3.649890 0.000000 0.000000 
#    y 0.000000 3.649890 0.000000 
#    z 0.000000 0.000000 3.205490 
# 
# 
# High freq. dielectric constant tensor:
#      x y z
#    x 1.749010 0.000000 0.000000 
#    y 0.000000 1.749010 0.000000 
#    z 0.000000 0.000000 1.701420 
# 
# From -- ./inp_files/4165.got.cif
#   From: 2010.03.12/outbox.cif.g09.slc.cpg/sg138_3_cif.got.tgz:4165.got - 2010.04.08 09:41:05.
