data_PCOD8318572
_publ_section_title
;
Structure prediction by ZEFSAII (Michael W. Deem and Ramdas Pophale) SiO2 
 PCOD8318572
Probable space group: P 42/N M C
;
_chemical_formula_sum "Si O2"
_cell_formula_units_Z 96
_cell_length_a 20.779662
_cell_length_b 20.779662
_cell_length_c 12.065730
_cell_angle_alpha 90.000000
_cell_angle_beta 90.000000
_cell_angle_gamma 90.000000
_cell_volume 5209.914077
_symmetry_space_group_name_H-M "P 42/N M C"
_symmetry_group_IT_number 137
_space_group.IT_coordinate_system_code '2'
_symmetry_cell_setting 'tetragonal'
loop_
_space_group_symop_operation_xyz
x,y,z
1/2-y,x,1/2+z
1/2-x,1/2-y,z
y,1/2-x,1/2+z
1/2+x,-y,-z
-x,1/2+y,-z
1/2+y,1/2+x,1/2-z
-y,-x,1/2-z
-x,-y,-z
1/2+y,-x,1/2-z
1/2+x,1/2+y,-z
-y,1/2+x,1/2-z
1/2-x,y,z
x,1/2-y,z
1/2-y,1/2-x,1/2+z
y,x,1/2+z
loop_
_atom_site_type_symbol
_atom_site_label
_atom_site_fract_x
_atom_site_fract_y
_atom_site_fract_z
Si Si1 0.018554 0.676116 0.772347
Si Si2 0.102728 0.174800 0.089819
Si Si3 0.175350 0.478838 0.381201
Si Si4 0.325630 0.447881 0.142044
Si Si5 0.600731 0.175454 0.017123
Si Si6 0.825953 0.051137 0.033199
O O1 0.004775 0.750000 0.748967
O O2 0.078099 0.668806 0.855892
O O3 0.034413 0.643100 0.654013
O O4 0.953555 0.649617 0.828377
O O5 0.121806 0.250000 0.110139
O O6 0.161639 0.126485 0.109728
O O7 0.080958 0.164323 0.963236
O O8 0.250000 0.489833 0.363752
O O9 0.143084 0.464210 0.262229
O O10 0.150120 0.544720 0.435469
O O11 0.250000 0.456120 0.147264
O O12 0.354415 0.498901 0.053511
O O13 0.621752 0.250000 0.993537
O O14 0.658080 0.124738 0.998575
O O15 0.750000 0.046359 0.036882
#
# Coordination Sequence:
#
# PCOD8318572 Si02
#       6
#    16  16  16  16  16  16
#     4   8  16  32  52  74 102 137 172 211 264 315
#     4   9  18  34  57  75  95 136 182 213 249 316
#     4   8  17  35  53  71  98 137 174 204 254 314
#     4  10  21  34  51  76 108 138 166 214 271 310
#     4   9  17  33  57  75  98 141 181 211 248 311
#     4  10  20  32  50  79 111 138 167 214 273 314
#
# _framework density 18.426407999999999
#
# number of rings (size 3 to 8) (size 9 to 14) (size 15 to 20)
#    0.000    3.000    0.000    2.500    2.333    1.333 
#    0.000    3.333    7.333    6.000    0.000    4.667 
#    0.000    0.000    0.000    0.000    0.000    0.000 
#
# Total GULP energy -1189408.927066 kJ/mol
# GULP energy per Si atom -12389.676324 kJ/mol
# Density = 1.838447 g / cm^3
# Si number density = 18.426408 Si / 1000 Ang^3
#
#
#
# Elastic Constant Matrix: (Units=GPa)
#
#
# Indices 1 2 3 4 5 6 
#
# 1 58.1342 20.3559 38.9061 0.0000 0.0000 0.0000
# 2 20.3559 58.1342 38.9061 0.0000 0.0000 0.0000
# 3 38.9061 38.9061 132.0513 0.0000 0.0000 0.0000
# 4 0.0000 0.0000 0.0000 16.8050 0.0000 0.0000
# 5 0.0000 0.0000 0.0000 0.0000 16.8050 0.0000
# 6 0.0000 0.0000 0.0000 0.0000 0.0000 25.6562
#
#
#
# Elastic Compliance Matrix: (Units=1/GPa)
#
#
# Indices 1 2 3 4 5 6 
#
# 1 0.022234 -0.004237 -0.005302 0.000000 0.000000 0.000000
# 2 -0.004237 0.022234 -0.005302 0.000000 0.000000 0.000000
# 3 -0.005302 -0.005302 0.010697 0.000000 0.000000 0.000000
# 4 0.000000 0.000000 0.000000 0.059506 0.000000 0.000000
# 5 0.000000 0.000000 0.000000 0.000000 0.059506 0.000000
# 6 0.000000 0.000000 0.000000 0.000000 0.000000 0.038977
#
#
# Mechanical properties :
#
#
# Convention : Reuss Voigt Hill
#
# Bulk Modulus (GPa) = 39.24382 49.40621 44.32502
# Shear Modulus (GPa) = 19.89412 21.86336 20.87874
#
# Velocity S-wave (km/s) = 3.28937 3.44833 3.36979
# Velocity P-wave (km/s) = 5.98084 6.53648 6.26482
#
# Compressibility (1/GPa) = 0.02548172
#
# Stress axis : x y z
#
# Youngs Moduli (GPa) = 44.97682 44.97682 93.48126
#
# Poissons Ratio (x) = 0.19055 0.49568
# Poissons Ratio (y) = 0.19055 0.49568
# Poissons Ratio (z) = 0.23849 0.23849
#
# Static dielectric constant tensor:
#      x y z
#    x 3.085750 0.000000 0.000000 
#    y 0.000000 3.085750 0.000000 
#    z 0.000000 0.000000 4.123890 
# 
# 
# High freq. dielectric constant tensor:
#      x y z
#    x 1.688070 0.000000 0.000000 
#    y 0.000000 1.688070 0.000000 
#    z 0.000000 0.000000 1.727670 
# 
# From -- ./inp_files/3740.got.cif
#   From: 2010.03.12/outbox.cif.g09.slc.cpg/sg137_2_cif.got.tgz:3740.got - 2010.04.08 09:34:49.
