data_PCOD8318807
_publ_section_title
;
Structure prediction by ZEFSAII (Michael W. Deem and Ramdas Pophale) SiO2 
 PCOD8318807
Probable space group: P 42/N M C
;
_chemical_formula_sum "Si O2"
_cell_formula_units_Z 56
_cell_length_a 15.250031
_cell_length_b 15.250031
_cell_length_c 10.457397
_cell_angle_alpha 90.000000
_cell_angle_beta 90.000000
_cell_angle_gamma 90.000000
_cell_volume 2432.008277
_symmetry_space_group_name_H-M "P 42/N M C"
_symmetry_group_IT_number 137
_space_group.IT_coordinate_system_code '2'
_symmetry_cell_setting 'tetragonal'
loop_
_space_group_symop_operation_xyz
x,y,z
1/2-y,x,1/2+z
1/2-x,1/2-y,z
y,1/2-x,1/2+z
1/2+x,-y,-z
-x,1/2+y,-z
1/2+y,1/2+x,1/2-z
-y,-x,1/2-z
-x,-y,-z
1/2+y,-x,1/2-z
1/2+x,1/2+y,-z
-y,1/2+x,1/2-z
1/2-x,y,z
x,1/2-y,z
1/2-y,1/2-x,1/2+z
y,x,1/2+z
loop_
_atom_site_type_symbol
_atom_site_label
_atom_site_fract_x
_atom_site_fract_y
_atom_site_fract_z
Si Si1 0.378728 0.250000 0.185690
Si Si2 0.750000 0.001505 0.081385
Si Si3 0.078255 0.928757 0.009266
Si Si4 0.096247 0.250000 0.689884
Si Si5 0.350933 0.649068 0.250000
Si Si6 0.750000 0.511338 0.542313
O O1 0.458241 0.250000 0.281591
O O2 0.332058 0.158563 0.213609
O O3 0.397428 0.250000 0.033556
O O4 0.750000 0.940347 0.954738
O O5 0.658438 0.055117 0.087791
O O6 0.128948 0.925628 0.145517
O O7 0.039015 0.833759 0.987846
O O8 0.000000 0.000000 0.000000
O O9 0.023401 0.250000 0.803691
O O10 0.250000 0.637719 0.300970
#
# Coordination Sequence:
#
# PCOD8318807 Si02
#       6
#     8   8  16   8   8   8
#     4  11  24  42  68  97 142 190 230 301 372 441
#     4  12  26  44  67 104 143 187 243 294 363 442
#     4  12  25  43  72 103 146 187 237 302 366 425
#     4  11  22  44  70  99 134 182 250 307 356 421
#     4  11  22  46  80 108 140 189 258 320 352 419
#     4  12  26  44  67 104 143 187 243 294 363 442
#
# _framework density 23.026236999999998
#
# number of rings (size 3 to 8) (size 9 to 14) (size 15 to 20)
#    0.000    0.429    2.857    6.857    0.000    6.286 
#    0.000    0.000    0.000    1.714    0.000    0.000 
#    0.000    0.000    0.000    0.000    0.000    0.000 
#
# Total GULP energy -693756.651577 kJ/mol
# GULP energy per Si atom -12388.511635 kJ/mol
# Density = 2.297383 g / cm^3
# Si number density = 23.026237 Si / 1000 Ang^3
#
#
#
# Elastic Constant Matrix: (Units=GPa)
#
#
# Indices 1 2 3 4 5 6 
#
# 1 132.1072 47.6797 11.4334 0.0000 0.0000 0.0000
# 2 47.6797 132.1075 11.4334 0.0000 0.0000 0.0000
# 3 11.4334 11.4334 91.0504 0.0000 0.0000 0.0000
# 4 0.0000 0.0000 0.0000 38.0666 0.0000 0.0000
# 5 0.0000 0.0000 0.0000 0.0000 38.0669 0.0000
# 6 0.0000 0.0000 0.0000 0.0000 0.0000 79.8891
#
#
#
# Elastic Compliance Matrix: (Units=1/GPa)
#
#
# Indices 1 2 3 4 5 6 
#
# 1 0.008748 -0.003096 -0.000710 0.000000 0.000000 0.000000
# 2 -0.003096 0.008748 -0.000710 0.000000 0.000000 0.000000
# 3 -0.000710 -0.000710 0.011161 0.000000 0.000000 0.000000
# 4 0.000000 0.000000 0.000000 0.026270 0.000000 0.000000
# 5 0.000000 0.000000 0.000000 0.000000 0.026270 0.000000
# 6 0.000000 0.000000 0.000000 0.000000 0.000000 0.012517
#
#
# Mechanical properties :
#
#
# Convention : Reuss Voigt Hill
#
# Bulk Modulus (GPa) = 50.95058 55.15091 53.05075
# Shear Modulus (GPa) = 45.75062 50.18577 47.96819
#
# Velocity S-wave (km/s) = 4.46229 4.67358 4.56916
# Velocity P-wave (km/s) = 6.98030 7.28879 7.13621
#
# Compressibility (1/GPa) = 0.01962686
#
# Stress axis : x y z
#
# Youngs Moduli (GPa) = 114.30603 114.30630 89.59624
#
# Poissons Ratio (x) = 0.35389 0.06359
# Poissons Ratio (y) = 0.35389 0.06359
# Poissons Ratio (z) = 0.08113 0.08113
#
# Static dielectric constant tensor:
#      x y z
#    x 4.576740 0.000000 0.000000 
#    y 0.000000 4.576720 0.000000 
#    z 0.000000 0.000000 4.015460 
# 
# 
# High freq. dielectric constant tensor:
#      x y z
#    x 1.930100 0.000000 0.000000 
#    y 0.000000 1.930100 0.000000 
#    z 0.000000 0.000000 1.896740 
# 
# From -- ./inp_files/3207.got.cif
#   From: 2010.03.12/outbox.cif.g09.slc.cpg/sg137_2_cif.got.tgz:3207.got - 2010.04.08 09:34:49.
