data_PCOD8318056
_publ_section_title
;
Structure prediction by ZEFSAII (Michael W. Deem and Ramdas Pophale) SiO2 
 PCOD8318056
Probable space group: P 42/M N M
;
_chemical_formula_sum "Si O2"
_cell_formula_units_Z 56
_cell_length_a 17.132932
_cell_length_b 17.132932
_cell_length_c 8.656017
_cell_angle_alpha 90.000000
_cell_angle_beta 90.000000
_cell_angle_gamma 90.000000
_cell_volume 2540.864369
_symmetry_space_group_name_H-M "P 42/M N M"
_symmetry_group_IT_number 136
_symmetry_cell_setting 'tetragonal'
loop_
_space_group_symop_operation_xyz
x,y,z
1/2-y,1/2+x,1/2+z
-x,-y,z
1/2+y,1/2-x,1/2+z
1/2+x,1/2-y,1/2-z
1/2-x,1/2+y,1/2-z
y,x,-z
-y,-x,-z
-x,-y,-z
1/2+y,1/2-x,1/2-z
x,y,-z
1/2-y,1/2+x,1/2-z
1/2-x,1/2+y,1/2+z
1/2+x,1/2-y,1/2+z
-y,-x,z
y,x,z
loop_
_atom_site_type_symbol
_atom_site_label
_atom_site_fract_x
_atom_site_fract_y
_atom_site_fract_z
Si Si1 0.439596 0.439596 0.683732
Si Si2 0.095055 0.432972 0.819629
Si Si3 0.817455 0.948000 0.828319
Si Si4 0.207881 0.666735 0.179533
O O1 0.500000 0.500000 0.762320
O O2 0.445201 0.445201 0.500000
O O3 0.350954 0.466831 0.729391
O O4 0.106400 0.512407 0.724313
O O5 0.164380 0.373407 0.772948
O O6 0.097984 0.452229 0.000000
O O7 0.891807 0.891807 0.837657
O O8 0.754255 0.914199 0.709698
O O9 0.779284 0.954152 0.000000
O O10 0.259487 0.740514 0.236935
O O11 0.189338 0.673417 0.000000
#
# Coordination Sequence:
#
# PCOD8318056 Si02
#       4
#     8  16  16  16
#     4   7  10  18  35  59  89 127 175 227 271 319
#     4  11  22  39  64  91 119 151 193 243 296 352
#     4   8  13  23  41  66  96 135 182 227 273 327
#     4  10  20  34  54  83 119 155 192 237 290 348
#
# _framework density 22.039742
#
# number of rings (size 3 to 8) (size 9 to 14) (size 15 to 20)
#    0.000    2.714    0.000    6.000    0.000    1.714 
#    0.000    0.714    3.143    4.286    0.000    0.000 
#    0.000    0.000    0.000    0.000    0.000    0.000 
#
# Total GULP energy -693803.795932 kJ/mol
# GULP energy per Si atom -12389.353499 kJ/mol
# Density = 2.198958 g / cm^3
# Si number density = 22.039742 Si / 1000 Ang^3
#
#
#
# Elastic Constant Matrix: (Units=GPa)
#
#
# Indices 1 2 3 4 5 6 
#
# 1 44.0246 18.0799 8.8530 0.0000 0.0000 0.0000
# 2 18.0799 44.0246 8.8530 0.0000 0.0000 0.0000
# 3 8.8530 8.8530 67.9729 0.0000 0.0000 0.0000
# 4 0.0000 0.0000 0.0000 26.5765 0.0000 0.0000
# 5 0.0000 0.0000 0.0000 0.0000 26.5765 0.0000
# 6 0.0000 0.0000 0.0000 0.0000 0.0000 17.2411
#
#
#
# Elastic Compliance Matrix: (Units=1/GPa)
#
#
# Indices 1 2 3 4 5 6 
#
# 1 0.027633 -0.010910 -0.002178 0.000000 0.000000 0.000000
# 2 -0.010910 0.027633 -0.002178 0.000000 0.000000 0.000000
# 3 -0.002178 -0.002178 0.015279 0.000000 0.000000 0.000000
# 4 0.000000 0.000000 0.000000 0.037627 0.000000 0.000000
# 5 0.000000 0.000000 0.000000 0.000000 0.037627 0.000000
# 6 0.000000 0.000000 0.000000 0.000000 0.000000 0.058001
#
#
# Mechanical properties :
#
#
# Convention : Reuss Voigt Hill
#
# Bulk Modulus (GPa) = 24.99212 25.28823 25.14018
# Shear Modulus (GPa) = 20.18806 22.09458 21.14132
#
# Velocity S-wave (km/s) = 3.02981 3.16964 3.10051
# Velocity P-wave (km/s) = 4.85838 4.98942 4.92434
#
# Compressibility (1/GPa) = 0.04001261
#
# Stress axis : x y z
#
# Youngs Moduli (GPa) = 36.18837 36.18837 65.44892
#
# Poissons Ratio (x) = 0.39483 0.14255
# Poissons Ratio (y) = 0.39483 0.14255
# Poissons Ratio (z) = 0.07882 0.07882
#
# Static dielectric constant tensor:
#      x y z
#    x 4.013930 0.000000 0.000000 
#    y 0.000000 4.013930 0.000000 
#    z 0.000000 0.000000 3.621760 
# 
# 
# High freq. dielectric constant tensor:
#      x y z
#    x 1.852510 0.000000 0.000000 
#    y 0.000000 1.852510 0.000000 
#    z 0.000000 0.000000 1.837110 
# 
# From -- ./inp_files/1139.got.cif
#   From: 2010.03.12/outbox.cif.g09.slc.cpg/sg136_1_cif.got.tgz:1139.got - 2010.04.06 18:39:43.
