data_PCOD8318968
_publ_section_title
;
Structure prediction by ZEFSAII (Michael W. Deem and Ramdas Pophale) SiO2 
 PCOD8318968
Probable space group: P 42/N C M
;
_chemical_formula_sum "Si O2"
_cell_formula_units_Z 48
_cell_length_a 11.451403
_cell_length_b 11.451403
_cell_length_c 17.049662
_cell_angle_alpha 90.000000
_cell_angle_beta 90.000000
_cell_angle_gamma 90.000000
_cell_volume 2235.801129
_symmetry_space_group_name_H-M "P 42/N C M"
_symmetry_group_IT_number 138
_space_group.IT_coordinate_system_code '2'
_symmetry_cell_setting 'tetragonal'
loop_
_space_group_symop_operation_xyz
x,y,z
1/2-y,x,1/2+z
1/2-x,1/2-y,z
y,1/2-x,1/2+z
1/2+x,-y,1/2-z
-x,1/2+y,1/2-z
1/2+y,1/2+x,-z
-y,-x,-z
-x,-y,-z
1/2+y,-x,1/2-z
1/2+x,1/2+y,-z
-y,1/2+x,1/2-z
1/2-x,y,1/2+z
x,1/2-y,1/2+z
1/2-y,1/2-x,z
y,x,z
loop_
_atom_site_type_symbol
_atom_site_label
_atom_site_fract_x
_atom_site_fract_y
_atom_site_fract_z
Si Si1 0.574884 0.259355 0.966841
Si Si2 0.093613 0.406388 0.030142
Si Si3 0.072408 0.767403 0.218663
Si Si4 0.844651 0.844651 0.299915
O O1 0.576555 0.259435 0.874105
O O2 0.666694 0.166694 0.000000
O O3 0.612654 0.387347 0.000000
O O4 0.445891 0.221149 0.997458
O O5 0.096496 0.403505 0.124200
O O6 0.000000 0.500000 0.000000
O O7 0.148322 0.878010 0.245297
O O8 0.940921 0.781417 0.247113
O O9 0.750000 0.750000 0.327533
#
# Coordination Sequence:
#
# PCOD8318968 Si02
#       4
#    16   8  16   8
#     4  10  19  36  65  96 127 168 227 270 338 403
#     4  10  20  40  66  89 129 175 214 272 332 396
#     4  11  23  43  73  99 135 182 229 281 346 415
#     4  12  28  44  67 104 142 176 229 288 342 405
#
# _framework density 21.468814999999999
#
# number of rings (size 3 to 8) (size 9 to 14) (size 15 to 20)
#    0.000    1.333    0.000   10.000    4.667    0.000 
#    3.000    0.833    0.000    0.000    0.000    0.000 
#    0.000    0.000    0.000    0.000    0.000    0.000 
#
# Total GULP energy -595145.296095 kJ/mol
# GULP energy per Si atom -12398.860335 kJ/mol
# Density = 2.141995 g / cm^3
# Si number density = 21.468815 Si / 1000 Ang^3
#
#
#
# Elastic Constant Matrix: (Units=GPa)
#
#
# Indices 1 2 3 4 5 6 
#
# 1 67.0212 85.4060 46.3265 0.0000 0.0000 0.0000
# 2 85.4060 67.0199 46.3256 0.0000 0.0000 0.0000
# 3 46.3265 46.3256 221.7632 0.0000 0.0000 0.0000
# 4 0.0000 0.0000 0.000026163.1431 0.0000 0.0000
# 5 0.0000 0.0000 0.0000 0.000045474.2734 0.0000
# 6 0.0000 0.0000 0.0000 0.0000 0.0000 49.2186
#
#
#
# Elastic Compliance Matrix: (Units=1/GPa)
#
#
# Indices 1 2 3 4 5 6 
#
# 1 -0.023438 0.030953 -0.001570 0.000000 0.000000 0.000000
# 2 0.030953 -0.023438 -0.001570 0.000000 0.000000 0.000000
# 3 -0.001570 -0.001570 0.005165 0.000000 0.000000 0.000000
# 4 0.000000 0.000000 0.000000 0.000038 0.000000 0.000000
# 5 0.000000 0.000000 0.000000 0.000000 0.000022 0.000000
# 6 0.000000 0.000000 0.000000 0.000000 0.000000 0.020318
#
#
# Mechanical properties :
#
#
# Convention : Reuss Voigt Hill
#
# Bulk Modulus (GPa) = 71.86284 79.10226 75.48255
# Shear Modulus (GPa) = -69.13595 14349.17677 7140.02041
#
# Velocity S-wave (km/s) = -5.68092 81.84278 57.73200
# Velocity P-wave (km/s) = 3.07972 94.69906 66.92693
#
# Compressibility (1/GPa) = 0.01391540
#
# Stress axis : x y z
#
# Youngs Moduli (GPa) = -42.66589 -42.66522 193.60401
#
# Poissons Ratio (x) = 1.32061 0.30391
# Poissons Ratio (y) = 1.32063 0.30394
# Poissons Ratio (z) = -0.06697 -0.06698
#
# Static dielectric constant tensor:
#      x y z
#    x 4.832150 0.000000 0.000000 
#    y 0.000000 4.832130 0.000000 
#    z 0.000000 0.000000 3.903530 
# 
# 
# High freq. dielectric constant tensor:
#      x y z
#    x 1.833750 0.000000 0.000000 
#    y 0.000000 1.833750 0.000000 
#    z 0.000000 0.000000 1.860810 
# 
# From -- ./inp_files/4744.got.cif
#   From: 2010.03.12/outbox.cif.g09.slc.cpg/sg138_3_cif.got.tgz:4744.got - 2010.04.08 09:41:05.
