data_PCOD8318155
_publ_section_title
;
Structure prediction by ZEFSAII (Michael W. Deem and Ramdas Pophale) SiO2 
 PCOD8318155
Probable space group: P 42/M N M
;
_chemical_formula_sum "Si O2"
_cell_formula_units_Z 84
_cell_length_a 14.831188
_cell_length_b 14.831188
_cell_length_c 22.252030
_cell_angle_alpha 90.000000
_cell_angle_beta 90.000000
_cell_angle_gamma 90.000000
_cell_volume 4894.648586
_symmetry_space_group_name_H-M "P 42/M N M"
_symmetry_group_IT_number 136
_symmetry_cell_setting 'tetragonal'
loop_
_space_group_symop_operation_xyz
x,y,z
1/2-y,1/2+x,1/2+z
-x,-y,z
1/2+y,1/2-x,1/2+z
1/2+x,1/2-y,1/2-z
1/2-x,1/2+y,1/2-z
y,x,-z
-y,-x,-z
-x,-y,-z
1/2+y,1/2-x,1/2-z
x,y,-z
1/2-y,1/2+x,1/2-z
1/2-x,1/2+y,1/2+z
1/2+x,1/2-y,1/2+z
-y,-x,z
y,x,z
loop_
_atom_site_type_symbol
_atom_site_label
_atom_site_fract_x
_atom_site_fract_y
_atom_site_fract_z
Si Si1 0.643787 0.031735 0.761188
Si Si2 0.455555 0.135019 0.929569
Si Si3 0.289174 0.436869 0.160737
Si Si4 0.927916 0.927916 0.612664
Si Si5 0.335489 0.664512 0.000000
Si Si6 0.219544 0.357728 0.500000
Si Si7 0.039831 0.636795 0.896379
O O1 0.605065 0.931447 0.755041
O O2 0.729503 0.046991 0.719391
O O3 0.676396 0.044123 0.829525
O O4 0.427990 0.229026 0.899378
O O5 0.544258 0.096091 0.897671
O O6 0.376915 0.062521 0.918436
O O7 0.472450 0.149241 0.000000
O O8 0.344620 0.344620 0.168256
O O9 0.355186 0.522160 0.154265
O O10 0.878705 0.878705 0.558407
O O11 0.000000 0.000000 0.586493
O O12 0.351673 0.773149 0.000000
O O13 0.321605 0.321605 0.500000
O O14 0.208943 0.416216 0.440426
#
# Coordination Sequence:
#
# PCOD8318155 Si02
#       7
#    16  16  16   8   4   8  16
#     4  11  20  36  59  82 110 147 187 238 290 337
#     4  11  19  33  59  81 111 150 183 234 289 348
#     4  11  24  40  55  84 115 153 199 230 277 344
#     4  10  23  40  56  74 118 159 186 225 273 342
#     4  10  21  34  54  86 114 150 189 218 278 350
#     4  10  22  30  49  85 116 137 178 235 286 347
#     4  11  18  34  55  83 111 144 183 230 304 338
#
# _framework density 17.1616
#
# number of rings (size 3 to 8) (size 9 to 14) (size 15 to 20)
#    0.286    0.952    5.714    3.000    1.333    1.143 
#    1.714    0.000    0.000    0.000    0.000    0.000 
#    0.000    0.762    0.000    0.000    0.000    0.000 
#
# Total GULP energy -1041705.008337 kJ/mol
# GULP energy per Si atom -12401.250099 kJ/mol
# Density = 1.712254 g / cm^3
# Si number density = 17.161600 Si / 1000 Ang^3
#
#
#
# Elastic Constant Matrix: (Units=GPa)
#
#
# Indices 1 2 3 4 5 6 
#
# 1 94.2705 53.5431 47.1343 0.0000 0.0000 0.0000
# 2 53.5431 94.2707 47.1343 0.0000 0.0000 0.0000
# 3 47.1343 47.1343 144.3911 0.0000 0.0000 0.0000
# 4 0.0000 0.0000 0.0000 22.4010 0.0000 0.0000
# 5 0.0000 0.0000 0.0000 0.0000 22.4011 0.0000
# 6 0.0000 0.0000 0.0000 0.0000 0.0000 27.1238
#
#
#
# Elastic Compliance Matrix: (Units=1/GPa)
#
#
# Indices 1 2 3 4 5 6 
#
# 1 0.016549 -0.008005 -0.002789 0.000000 0.000000 0.000000
# 2 -0.008005 0.016549 -0.002789 0.000000 0.000000 0.000000
# 3 -0.002789 -0.002789 0.008747 0.000000 0.000000 0.000000
# 4 0.000000 0.000000 0.000000 0.044641 0.000000 0.000000
# 5 0.000000 0.000000 0.000000 0.000000 0.044641 0.000000
# 6 0.000000 0.000000 0.000000 0.000000 0.000000 0.036868
#
#
# Mechanical properties :
#
#
# Convention : Reuss Voigt Hill
#
# Bulk Modulus (GPa) = 68.12781 69.83952 68.98366
# Shear Modulus (GPa) = 24.99350 26.72655 25.86003
#
# Velocity S-wave (km/s) = 3.82037 3.95060 3.88603
# Velocity P-wave (km/s) = 7.69703 7.84814 7.77295
#
# Compressibility (1/GPa) = 0.01467829
#
# Stress axis : x y z
#
# Youngs Moduli (GPa) = 60.42754 60.42776 114.33109
#
# Poissons Ratio (x) = 0.48371 0.31888
# Poissons Ratio (y) = 0.48370 0.31887
# Poissons Ratio (z) = 0.16854 0.16854
#
# Static dielectric constant tensor:
#      x y z
#    x 3.150360 0.000000 0.000000 
#    y 0.000000 3.150350 0.000000 
#    z 0.000000 0.000000 3.278390 
# 
# 
# High freq. dielectric constant tensor:
#      x y z
#    x 1.647370 0.000000 0.000000 
#    y 0.000000 1.647370 0.000000 
#    z 0.000000 0.000000 1.674190 
# 
# From -- ./inp_files/7445.got.cif
#   From: 2010.03.12/outbox.cif.g09.slc.cpg/sg136_4_cif.got.tgz:7445.got - 2010.04.06 18:39:43.
