data_PCOD8318234
_publ_section_title
;
Structure prediction by ZEFSAII (Michael W. Deem and Ramdas Pophale) SiO2 
 PCOD8318234
Probable space group: P 42/M N M
;
_chemical_formula_sum "Si O2"
_cell_formula_units_Z 96
_cell_length_a 14.798577
_cell_length_b 14.798577
_cell_length_c 22.235034
_cell_angle_alpha 90.000000
_cell_angle_beta 90.000000
_cell_angle_gamma 90.000000
_cell_volume 4869.425335
_symmetry_space_group_name_H-M "P 42/M N M"
_symmetry_group_IT_number 136
_symmetry_cell_setting 'tetragonal'
loop_
_space_group_symop_operation_xyz
x,y,z
1/2-y,1/2+x,1/2+z
-x,-y,z
1/2+y,1/2-x,1/2+z
1/2+x,1/2-y,1/2-z
1/2-x,1/2+y,1/2-z
y,x,-z
-y,-x,-z
-x,-y,-z
1/2+y,1/2-x,1/2-z
x,y,-z
1/2-y,1/2+x,1/2-z
1/2-x,1/2+y,1/2+z
1/2+x,1/2-y,1/2+z
-y,-x,z
y,x,z
loop_
_atom_site_type_symbol
_atom_site_label
_atom_site_fract_x
_atom_site_fract_y
_atom_site_fract_z
Si Si1 0.077619 0.298501 0.632166
Si Si2 0.644770 0.500207 0.350077
Si Si3 0.995498 0.140952 0.564870
Si Si4 0.072484 0.568739 0.649300
Si Si5 0.883267 0.735523 0.230391
Si Si6 0.192898 0.442450 0.428396
O O1 0.052909 0.199653 0.610867
O O2 0.106199 0.290805 0.700904
O O3 0.160507 0.344408 0.595877
O O4 0.985513 0.352358 0.619880
O O5 0.582591 0.417410 0.374042
O O6 0.582284 0.582284 0.326975
O O7 0.704417 0.467411 0.293249
O O8 0.706919 0.535038 0.404598
O O9 0.980939 0.190789 0.500000
O O10 0.054327 0.054327 0.552886
O O11 0.897374 0.102627 0.588804
O O12 0.140246 0.615164 0.696122
O O13 0.124906 0.518868 0.595638
O O14 0.000000 0.500000 0.680871
O O15 0.788935 0.788935 0.219775
O O16 0.194336 0.442355 0.500000
#
# Coordination Sequence:
#
# PCOD8318234 Si02
#       6
#    16  16  16  16  16  16
#     4  11  22  34  58  86 112 150 195 239 289 356
#     4   9  20  40  62  85 116 157 202 248 302 367
#     4   9  19  36  54  74 106 144 182 227 277 332
#     4   9  22  37  59  81 111 153 194 233 284 351
#     4  10  22  38  56  84 119 151 191 246 304 352
#     4  10  22  39  58  87 121 152 192 248 300 348
#
# _framework density 19.714850999999999
#
# number of rings (size 3 to 8) (size 9 to 14) (size 15 to 20)
#    0.000    2.333    0.000    1.500    7.000    7.000 
#    0.000    2.500    0.000    0.000    0.000    0.000 
#    0.000    0.000    0.000    0.000    0.000    0.000 
#
# Total GULP energy -1189541.302226 kJ/mol
# GULP energy per Si atom -12391.055232 kJ/mol
# Density = 1.966998 g / cm^3
# Si number density = 19.714851 Si / 1000 Ang^3
#
#
#
# Elastic Constant Matrix: (Units=GPa)
#
#
# Indices 1 2 3 4 5 6 
#
# 1 93.5213 35.1704 26.6775 0.0000 0.0000 0.0000
# 2 35.1704 93.5213 26.6775 0.0000 0.0000 0.0000
# 3 26.6775 26.6775 106.1646 0.0000 0.0000 0.0000
# 4 0.0000 0.0000 0.0000 18.2119 0.0000 0.0000
# 5 0.0000 0.0000 0.0000 0.0000 18.2119 0.0000
# 6 0.0000 0.0000 0.0000 0.0000 0.0000 32.1337
#
#
#
# Elastic Compliance Matrix: (Units=1/GPa)
#
#
# Indices 1 2 3 4 5 6 
#
# 1 0.012906 -0.004232 -0.002180 0.000000 0.000000 0.000000
# 2 -0.004232 0.012906 -0.002180 0.000000 0.000000 0.000000
# 3 -0.002180 -0.002180 0.010515 0.000000 0.000000 0.000000
# 4 0.000000 0.000000 0.000000 0.054909 0.000000 0.000000
# 5 0.000000 0.000000 0.000000 0.000000 0.054909 0.000000
# 6 0.000000 0.000000 0.000000 0.000000 0.000000 0.031120
#
#
# Mechanical properties :
#
#
# Convention : Reuss Voigt Hill
#
# Bulk Modulus (GPa) = 52.23458 52.25092 52.24275
# Shear Modulus (GPa) = 24.89681 27.35693 26.12687
#
# Velocity S-wave (km/s) = 3.55751 3.72913 3.64433
# Velocity P-wave (km/s) = 6.58992 6.71586 6.65319
#
# Compressibility (1/GPa) = 0.01914441
#
# Stress axis : x y z
#
# Youngs Moduli (GPa) = 77.48365 77.48365 95.10420
#
# Poissons Ratio (x) = 0.32789 0.20730
# Poissons Ratio (y) = 0.32789 0.20730
# Poissons Ratio (z) = 0.16889 0.16889
#
# Static dielectric constant tensor:
#      x y z
#    x 3.854660 0.000000 0.000000 
#    y 0.000000 3.854660 0.000000 
#    z 0.000000 0.000000 3.322220 
# 
# 
# High freq. dielectric constant tensor:
#      x y z
#    x 1.775940 0.000000 0.000000 
#    y 0.000000 1.775940 0.000000 
#    z 0.000000 0.000000 1.750850 
# 
# From -- ./inp_files/7509.got.cif
#   From: 2010.03.12/outbox.cif.g09.slc.cpg/sg136_4_cif.got.tgz:7509.got - 2010.04.06 18:39:43.
