data_PCOD8318266
_publ_section_title
;
Structure prediction by ZEFSAII (Michael W. Deem and Ramdas Pophale) SiO2 
 PCOD8318266
Probable space group: P 42/M N M
;
_chemical_formula_sum "Si O2"
_cell_formula_units_Z 88
_cell_length_a 26.421188
_cell_length_b 26.421188
_cell_length_c 9.444694
_cell_angle_alpha 90.000000
_cell_angle_beta 90.000000
_cell_angle_gamma 90.000000
_cell_volume 6593.144199
_symmetry_space_group_name_H-M "P 42/M N M"
_symmetry_group_IT_number 136
_symmetry_cell_setting 'tetragonal'
loop_
_space_group_symop_operation_xyz
x,y,z
1/2-y,1/2+x,1/2+z
-x,-y,z
1/2+y,1/2-x,1/2+z
1/2+x,1/2-y,1/2-z
1/2-x,1/2+y,1/2-z
y,x,-z
-y,-x,-z
-x,-y,-z
1/2+y,1/2-x,1/2-z
x,y,-z
1/2-y,1/2+x,1/2-z
1/2-x,1/2+y,1/2+z
1/2+x,1/2-y,1/2+z
-y,-x,z
y,x,z
loop_
_atom_site_type_symbol
_atom_site_label
_atom_site_fract_x
_atom_site_fract_y
_atom_site_fract_z
Si Si1 0.770518 0.314479 0.155895
Si Si2 0.985852 0.847440 0.830728
Si Si3 0.106548 0.189733 0.666206
Si Si4 0.248811 0.333564 0.155510
Si Si5 0.039885 0.039885 0.167601
Si Si6 0.586855 0.670222 0.834614
O O1 0.731430 0.268571 0.149974
O O2 0.740889 0.363950 0.212279
O O3 0.819255 0.299733 0.249542
O O4 0.791761 0.325593 0.000000
O O5 0.943136 0.811736 0.763005
O O6 0.974861 0.904506 0.779527
O O7 0.039323 0.830959 0.768409
O O8 0.985854 0.841799 0.000000
O O9 0.092559 0.191197 0.500000
O O10 0.141022 0.141022 0.699274
O O11 0.286803 0.286803 0.148626
O O12 0.279417 0.382376 0.211315
O O13 0.227350 0.345121 0.000000
O O14 0.037776 0.037776 0.000000
O O15 0.000000 0.000000 0.233319
O O16 0.620620 0.620620 0.807565
O O17 0.571138 0.672875 0.000000
#
# Coordination Sequence:
#
# PCOD8318266 Si02
#       6
#    16  16  16  16   8  16
#     4   8  14  24  39  58  76  94 116 145 184 229
#     4  11  20  29  41  56  74  98 129 167 206 236
#     4   9  17  29  42  55  75 100 124 154 193 236
#     4   8  14  25  40  57  75  94 116 148 187 228
#     4   9  18  30  39  49  69  93 123 169 215 241
#     4   9  18  31  43  55  74  99 128 160 197 239
#
# _framework density 13.347198000000001
#
# number of rings (size 3 to 8) (size 9 to 14) (size 15 to 20)
#    0.000    3.000    0.909    3.273    0.000    2.545 
#    0.000    3.636    0.000    2.182    0.000    0.000 
#    0.000    0.000    0.000    0.000    0.000    0.909 
#
# Total GULP energy -1090654.388600 kJ/mol
# GULP energy per Si atom -12393.799870 kJ/mol
# Density = 1.331682 g / cm^3
# Si number density = 13.347198 Si / 1000 Ang^3
#
#
#
# Elastic Constant Matrix: (Units=GPa)
#
#
# Indices 1 2 3 4 5 6 
#
# 1 63.3630 56.5540 45.2959 0.0000 0.0000 0.0000
# 2 56.5540 63.3630 45.2959 0.0000 0.0000 0.0000
# 3 45.2959 45.2959 67.3501 0.0000 0.0000 0.0000
# 4 0.0000 0.0000 0.0000 21.1961 0.0000 0.0000
# 5 0.0000 0.0000 0.0000 0.0000 21.1961 0.0000
# 6 0.0000 0.0000 0.0000 0.0000 0.0000 22.6368
#
#
#
# Elastic Compliance Matrix: (Units=1/GPa)
#
#
# Indices 1 2 3 4 5 6 
#
# 1 0.081908 -0.064956 -0.011401 0.000000 0.000000 0.000000
# 2 -0.064956 0.081908 -0.011401 0.000000 0.000000 0.000000
# 3 -0.011401 -0.011401 0.030183 0.000000 0.000000 0.000000
# 4 0.000000 0.000000 0.000000 0.047178 0.000000 0.000000
# 5 0.000000 0.000000 0.000000 0.000000 0.047178 0.000000
# 6 0.000000 0.000000 0.000000 0.000000 0.000000 0.044176
#
#
# Mechanical properties :
#
#
# Convention : Reuss Voigt Hill
#
# Bulk Modulus (GPa) = 54.10309 54.26308 54.18308
# Shear Modulus (GPa) = 9.72370 16.13452 12.92911
#
# Velocity S-wave (km/s) = 2.70204 3.48060 3.11573
# Velocity P-wave (km/s) = 7.09633 7.54295 7.32304
#
# Compressibility (1/GPa) = 0.01848323
#
# Stress axis : x y z
#
# Youngs Moduli (GPa) = 12.20886 12.20886 33.13119
#
# Poissons Ratio (x) = 0.79304 0.37773
# Poissons Ratio (y) = 0.79304 0.37773
# Poissons Ratio (z) = 0.13919 0.13919
#
# Static dielectric constant tensor:
#      x y z
#    x 2.547590 0.000000 0.000000 
#    y 0.000000 2.547590 0.000000 
#    z 0.000000 0.000000 2.788420 
# 
# 
# High freq. dielectric constant tensor:
#      x y z
#    x 1.480840 0.000000 0.000000 
#    y 0.000000 1.480840 0.000000 
#    z 0.000000 0.000000 1.509870 
# 
# From -- ./inp_files/2135.got.cif
#   From: 2010.03.12/outbox.cif.g09.slc.cpg/sg136_2_cif.got.tgz:2135.got - 2010.04.06 18:39:43.
