data_PCOD8318523
_publ_section_title
;
Structure prediction by ZEFSAII (Michael W. Deem and Ramdas Pophale) SiO2 
 PCOD8318523
Probable space group: P 42/N M C
;
_chemical_formula_sum "Si O2"
_cell_formula_units_Z 112
_cell_length_a 14.111883
_cell_length_b 14.111883
_cell_length_c 25.354285
_cell_angle_alpha 90.000000
_cell_angle_beta 90.000000
_cell_angle_gamma 90.000000
_cell_volume 5049.185217
_symmetry_space_group_name_H-M "P 42/N M C"
_symmetry_group_IT_number 137
_space_group.IT_coordinate_system_code '2'
_symmetry_cell_setting 'tetragonal'
loop_
_space_group_symop_operation_xyz
x,y,z
1/2-y,x,1/2+z
1/2-x,1/2-y,z
y,1/2-x,1/2+z
1/2+x,-y,-z
-x,1/2+y,-z
1/2+y,1/2+x,1/2-z
-y,-x,1/2-z
-x,-y,-z
1/2+y,-x,1/2-z
1/2+x,1/2+y,-z
-y,1/2+x,1/2-z
1/2-x,y,z
x,1/2-y,z
1/2-y,1/2-x,1/2+z
y,x,1/2+z
loop_
_atom_site_type_symbol
_atom_site_label
_atom_site_fract_x
_atom_site_fract_y
_atom_site_fract_z
Si Si1 0.142352 0.395683 0.347398
Si Si2 0.894811 0.146456 0.872435
Si Si3 0.354824 0.136873 0.557248
Si Si4 0.639997 0.540715 0.042888
Si Si5 0.140985 0.485420 0.748347
Si Si6 0.138088 0.854779 0.008857
Si Si7 0.646218 0.950047 0.837856
O O1 0.250000 0.350947 0.346801
O O2 0.152468 0.506883 0.341434
O O3 0.086356 0.376326 0.400990
O O4 0.074554 0.354616 0.302263
O O5 0.844041 0.250000 0.867393
O O6 0.910266 0.122763 0.934480
O O7 0.839074 0.063610 0.842296
O O8 0.250000 0.096064 0.563791
O O9 0.355118 0.250000 0.555459
O O10 0.396452 0.092025 0.503386
O O11 0.415281 0.101674 0.607099
O O12 0.750000 0.540020 0.030669
O O13 0.604448 0.431460 0.035279
O O14 0.250000 0.504149 0.730842
O O15 0.082081 0.423359 0.707454
O O16 0.086738 0.586738 0.750000
O O17 0.250000 0.861209 0.019624
O O18 0.109736 0.750000 0.988274
O O19 0.750000 0.905470 0.826532
#
# Coordination Sequence:
#
# PCOD8318523 Si02
#       7
#    16  16  16  16  16  16  16
#     4  11  24  42  65  94 130 172 220 275 339 403
#     4  10  20  36  60  94 135 175 215 266 330 401
#     4   9  17  30  52  88 129 165 208 266 329 390
#     4  10  19  33  57  88 123 168 220 276 329 391
#     4  12  27  49  73  97 127 168 219 279 339 400
#     4   9  17  32  55  86 129 180 224 262 318 393
#     4  11  21  39  68 100 133 171 217 271 333 402
#
# _framework density 22.181798000000001
#
# number of rings (size 3 to 8) (size 9 to 14) (size 15 to 20)
#    0.000    1.714    2.857    2.143    0.000    4.714 
#    0.000    0.714    0.000    1.714    0.000    0.000 
#    0.000    0.000    0.000    0.000    0.000    0.143 
#
# Total GULP energy -1387867.242265 kJ/mol
# GULP energy per Si atom -12391.671806 kJ/mol
# Density = 2.213131 g / cm^3
# Si number density = 22.181798 Si / 1000 Ang^3
#
#
#
# Elastic Constant Matrix: (Units=GPa)
#
#
# Indices 1 2 3 4 5 6 
#
# 1 122.4208 25.3064 42.3840 0.0000 0.0000 0.0000
# 2 25.3064 122.4208 42.3840 0.0000 0.0000 0.0000
# 3 42.3840 42.3840 118.3127 0.0000 0.0000 0.0000
# 4 0.0000 0.0000 0.0000 21.2757 0.0000 0.0000
# 5 0.0000 0.0000 0.0000 0.0000 21.2757 0.0000
# 6 0.0000 0.0000 0.0000 0.0000 0.0000 16.1538
#
#
#
# Elastic Compliance Matrix: (Units=1/GPa)
#
#
# Indices 1 2 3 4 5 6 
#
# 1 0.009409 -0.000888 -0.003052 0.000000 0.000000 0.000000
# 2 -0.000888 0.009409 -0.003052 0.000000 0.000000 0.000000
# 3 -0.003052 -0.003052 0.010639 0.000000 0.000000 0.000000
# 4 0.000000 0.000000 0.000000 0.047002 0.000000 0.000000
# 5 0.000000 0.000000 0.000000 0.000000 0.047002 0.000000
# 6 0.000000 0.000000 0.000000 0.000000 0.000000 0.061905
#
#
# Mechanical properties :
#
#
# Convention : Reuss Voigt Hill
#
# Bulk Modulus (GPa) = 64.63745 64.81146 64.72445
# Shear Modulus (GPa) = 24.44875 28.61301 26.53088
#
# Velocity S-wave (km/s) = 3.32354 3.59546 3.46217
# Velocity P-wave (km/s) = 6.62805 6.82042 6.72492
#
# Compressibility (1/GPa) = 0.01547091
#
# Stress axis : x y z
#
# Youngs Moduli (GPa) = 106.28167 106.28167 93.99208
#
# Poissons Ratio (x) = 0.09440 0.28691
# Poissons Ratio (y) = 0.09440 0.28691
# Poissons Ratio (z) = 0.32442 0.32442
#
# Static dielectric constant tensor:
#      x y z
#    x 4.152330 0.000000 0.000000 
#    y 0.000000 4.152330 0.000000 
#    z 0.000000 0.000000 3.833860 
# 
# 
# High freq. dielectric constant tensor:
#      x y z
#    x 1.875730 0.000000 0.000000 
#    y 0.000000 1.875730 0.000000 
#    z 0.000000 0.000000 1.852430 
# 
# From -- ./inp_files/8942.got.cif
#   From: 2010.03.12/outbox.cif.g09.slc.cpg/sg137_5_cif.got.tgz:8942.got - 2010.04.08 09:34:49.
