data_PCOD8318830
_publ_section_title
;
Structure prediction by ZEFSAII (Michael W. Deem and Ramdas Pophale) SiO2 
 PCOD8318830
Probable space group: P 42/N M C
;
_chemical_formula_sum "Si O2"
_cell_formula_units_Z 48
_cell_length_a 14.247115
_cell_length_b 14.247115
_cell_length_c 10.475819
_cell_angle_alpha 90.000000
_cell_angle_beta 90.000000
_cell_angle_gamma 90.000000
_cell_volume 2126.384735
_symmetry_space_group_name_H-M "P 42/N M C"
_symmetry_group_IT_number 137
_space_group.IT_coordinate_system_code '2'
_symmetry_cell_setting 'tetragonal'
loop_
_space_group_symop_operation_xyz
x,y,z
1/2-y,x,1/2+z
1/2-x,1/2-y,z
y,1/2-x,1/2+z
1/2+x,-y,-z
-x,1/2+y,-z
1/2+y,1/2+x,1/2-z
-y,-x,1/2-z
-x,-y,-z
1/2+y,-x,1/2-z
1/2+x,1/2+y,-z
-y,1/2+x,1/2-z
1/2-x,y,z
x,1/2-y,z
1/2-y,1/2-x,1/2+z
y,x,1/2+z
loop_
_atom_site_type_symbol
_atom_site_label
_atom_site_fract_x
_atom_site_fract_y
_atom_site_fract_z
Si Si1 0.638957 0.857240 0.239083
Si Si2 0.353057 0.638544 0.106711
Si Si3 0.861822 0.538491 0.486201
O O1 0.750000 0.865403 0.233984
O O2 0.607089 0.750000 0.262006
O O3 0.596167 0.918342 0.356095
O O4 0.599374 0.896583 0.106425
O O5 0.387100 0.612901 0.250000
O O6 0.250000 0.595423 0.074768
O O7 0.346353 0.750000 0.098680
O O8 0.431200 0.601544 0.006011
O O9 0.750000 0.542049 0.479395
#
# Coordination Sequence:
#
# PCOD8318830 Si02
#       3
#    16  16  16
#     4   9  16  26  41  64  96 130 159 187 224 276
#     4   8  14  26  44  64  85 113 155 204 244 277
#     4   9  16  26  42  65  92 122 156 194 235 279
#
# _framework density 22.573526000000001
#
# number of rings (size 3 to 8) (size 9 to 14) (size 15 to 20)
#    0.000    3.333    0.000    2.000    0.000    4.000 
#    0.000    1.667    0.000    0.000    0.000    2.333 
#    0.000   16.000    0.000    0.000    0.000    0.667 
#
# Total GULP energy -594925.772275 kJ/mol
# GULP energy per Si atom -12394.286922 kJ/mol
# Density = 2.252215 g / cm^3
# Si number density = 22.573526 Si / 1000 Ang^3
#
#
#
# Elastic Constant Matrix: (Units=GPa)
#
#
# Indices 1 2 3 4 5 6 
#
# 1 39.8676 18.6863 31.4046 0.0000 0.0000 0.0000
# 2 18.6863 39.8677 31.4040 0.0000 0.0000 0.0000
# 3 31.4046 31.4040 125.0352 0.0000 0.0000 0.0000
# 4 0.0000 0.0000 0.0000 10.0243 0.0000 0.0000
# 5 0.0000 0.0000 0.0000 0.0000 10.0241 0.0000
# 6 0.0000 0.0000 0.0000 0.0000 0.0000 11.4599
#
#
#
# Elastic Compliance Matrix: (Units=1/GPa)
#
#
# Indices 1 2 3 4 5 6 
#
# 1 0.035294 -0.011918 -0.005871 0.000000 0.000000 0.000000
# 2 -0.011918 0.035293 -0.005871 0.000000 0.000000 0.000000
# 3 -0.005871 -0.005871 0.010947 0.000000 0.000000 0.000000
# 4 0.000000 0.000000 0.000000 0.099758 0.000000 0.000000
# 5 0.000000 0.000000 0.000000 0.000000 0.099759 0.000000
# 6 0.000000 0.000000 0.000000 0.000000 0.000000 0.087261
#
#
# Mechanical properties :
#
#
# Convention : Reuss Voigt Hill
#
# Bulk Modulus (GPa) = 29.22753 40.86226 35.04490
# Shear Modulus (GPa) = 11.70857 14.52004 13.11431
#
# Velocity S-wave (km/s) = 2.27994 2.53896 2.41293
# Velocity P-wave (km/s) = 4.46169 5.17071 4.82923
#
# Compressibility (1/GPa) = 0.03421431
#
# Stress axis : x y z
#
# Youngs Moduli (GPa) = 28.33344 28.33384 91.34907
#
# Poissons Ratio (x) = 0.33767 0.53635
# Poissons Ratio (y) = 0.33767 0.53631
# Poissons Ratio (z) = 0.16636 0.16635
#
# Static dielectric constant tensor:
#      x y z
#    x 4.147420 0.000000 0.000000 
#    y 0.000000 4.147410 0.000000 
#    z 0.000000 0.000000 4.050420 
# 
# 
# High freq. dielectric constant tensor:
#      x y z
#    x 1.879890 0.000000 0.000000 
#    y 0.000000 1.879890 0.000000 
#    z 0.000000 0.000000 1.871140 
# 
# From -- ./inp_files/1260.got.cif
#   From: 2010.03.12/outbox.cif.g09.slc.cpg/sg137_1_cif.got.tgz:1260.got - 2010.04.08 09:34:49.
