data_PCOD8318005
_publ_section_title
;
Structure prediction by ZEFSAII (Michael W. Deem and Ramdas Pophale) SiO2 
 PCOD8318005
Probable space group: P 42/M N M
;
_chemical_formula_sum "Si O2"
_cell_formula_units_Z 80
_cell_length_a 15.767282
_cell_length_b 15.767282
_cell_length_c 18.396756
_cell_angle_alpha 90.000000
_cell_angle_beta 90.000000
_cell_angle_gamma 90.000000
_cell_volume 4573.565661
_symmetry_space_group_name_H-M "P 42/M N M"
_symmetry_group_IT_number 136
_symmetry_cell_setting 'tetragonal'
loop_
_space_group_symop_operation_xyz
x,y,z
1/2-y,1/2+x,1/2+z
-x,-y,z
1/2+y,1/2-x,1/2+z
1/2+x,1/2-y,1/2-z
1/2-x,1/2+y,1/2-z
y,x,-z
-y,-x,-z
-x,-y,-z
1/2+y,1/2-x,1/2-z
x,y,-z
1/2-y,1/2+x,1/2-z
1/2-x,1/2+y,1/2+z
1/2+x,1/2-y,1/2+z
-y,-x,z
y,x,z
loop_
_atom_site_type_symbol
_atom_site_label
_atom_site_fract_x
_atom_site_fract_y
_atom_site_fract_z
Si Si1 0.662476 0.801732 0.918457
Si Si2 0.639783 0.500494 0.708458
Si Si3 0.799349 0.515347 0.196735
Si Si4 0.445500 0.086432 0.664611
Si Si5 0.235125 0.519156 0.582975
O O1 0.718841 0.718841 0.914298
O O2 0.589089 0.789049 0.861013
O O3 0.719803 0.882461 0.898133
O O4 0.625021 0.813465 0.000000
O O5 0.583604 0.416397 0.706122
O O6 0.583222 0.583222 0.723135
O O7 0.707372 0.490078 0.773377
O O8 0.687540 0.513721 0.632042
O O9 0.863837 0.541315 0.260394
O O10 0.845290 0.435707 0.157600
O O11 0.469137 0.147678 0.598033
O O12 0.500000 0.000000 0.660868
O O13 0.262125 0.504863 0.500000
#
# Coordination Sequence:
#
# PCOD8318005 Si02
#       5
#    16  16  16  16  16
#     4  10  20  32  49  76 108 142 180 221 267 316
#     4  10  22  38  56  77 101 139 186 225 267 315
#     4  11  18  33  54  77 106 135 174 225 270 317
#     4  11  18  31  52  80 110 136 168 210 264 323
#     4  10  21  34  52  79 110 143 176 214 263 321
#
# _framework density 17.491823
#
# number of rings (size 3 to 8) (size 9 to 14) (size 15 to 20)
#    0.000    1.600    4.000    2.400    0.000    2.800 
#    0.000    5.000    0.000    0.600    0.000    2.800 
#    0.000    0.000    0.000    0.000    0.000    0.000 
#
# Total GULP energy -991881.810586 kJ/mol
# GULP energy per Si atom -12398.522632 kJ/mol
# Density = 1.745201 g / cm^3
# Si number density = 17.491823 Si / 1000 Ang^3
#
#
#
# Elastic Constant Matrix: (Units=GPa)
#
#
# Indices 1 2 3 4 5 6 
#
# 1 98.4170 40.7498 26.7525 0.0000 0.0000 0.0000
# 2 40.7498 98.4170 26.7525 0.0000 0.0000 0.0000
# 3 26.7525 26.7525 55.2132 0.0000 0.0000 0.0000
# 4 0.0000 0.0000 0.0000 21.6337 0.0000 0.0000
# 5 0.0000 0.0000 0.0000 0.0000 21.6337 0.0000
# 6 0.0000 0.0000 0.0000 0.0000 0.0000 24.9127
#
#
#
# Elastic Compliance Matrix: (Units=1/GPa)
#
#
# Indices 1 2 3 4 5 6 
#
# 1 0.013086 -0.004255 -0.004279 0.000000 0.000000 0.000000
# 2 -0.004255 0.013086 -0.004279 0.000000 0.000000 0.000000
# 3 -0.004279 -0.004279 0.022258 0.000000 0.000000 0.000000
# 4 0.000000 0.000000 0.000000 0.046224 0.000000 0.000000
# 5 0.000000 0.000000 0.000000 0.000000 0.046224 0.000000
# 6 0.000000 0.000000 0.000000 0.000000 0.000000 0.040140
#
#
# Mechanical properties :
#
#
# Convention : Reuss Voigt Hill
#
# Bulk Modulus (GPa) = 43.85127 48.95077 46.40102
# Shear Modulus (GPa) = 23.33780 24.15550 23.74665
#
# Velocity S-wave (km/s) = 3.65665 3.72016 3.68854
# Velocity P-wave (km/s) = 6.55379 6.81898 6.68770
#
# Compressibility (1/GPa) = 0.02280436
#
# Stress axis : x y z
#
# Youngs Moduli (GPa) = 76.41895 76.41895 44.92775
#
# Poissons Ratio (x) = 0.32517 0.19223
# Poissons Ratio (y) = 0.32517 0.19223
# Poissons Ratio (z) = 0.32698 0.32698
#
# Static dielectric constant tensor:
#      x y z
#    x 3.349970 0.000000 0.000000 
#    y 0.000000 3.349970 0.000000 
#    z 0.000000 0.000000 3.293510 
# 
# 
# High freq. dielectric constant tensor:
#      x y z
#    x 1.672320 0.000000 0.000000 
#    y 0.000000 1.672320 0.000000 
#    z 0.000000 0.000000 1.671930 
# 
# From -- ./inp_files/7238.got.cif
#   From: 2010.03.12/outbox.cif.g09.slc.cpg/sg136_4_cif.got.tgz:7238.got - 2010.04.06 18:39:43.
