data_PCOD8318911
_publ_section_title
;
Structure prediction by ZEFSAII (Michael W. Deem and Ramdas Pophale) SiO2 
 PCOD8318911
Probable space group: P 42/N C M
;
_chemical_formula_sum "Si O2"
_cell_formula_units_Z 112
_cell_length_a 24.146194
_cell_length_b 24.146194
_cell_length_c 10.585410
_cell_angle_alpha 90.000000
_cell_angle_beta 90.000000
_cell_angle_gamma 90.000000
_cell_volume 6171.703523
_symmetry_space_group_name_H-M "P 42/N C M"
_symmetry_group_IT_number 138
_space_group.IT_coordinate_system_code '2'
_symmetry_cell_setting 'tetragonal'
loop_
_space_group_symop_operation_xyz
x,y,z
1/2-y,x,1/2+z
1/2-x,1/2-y,z
y,1/2-x,1/2+z
1/2+x,-y,1/2-z
-x,1/2+y,1/2-z
1/2+y,1/2+x,-z
-y,-x,-z
-x,-y,-z
1/2+y,-x,1/2-z
1/2+x,1/2+y,-z
-y,1/2+x,1/2-z
1/2-x,y,1/2+z
x,1/2-y,1/2+z
1/2-y,1/2-x,z
y,x,z
loop_
_atom_site_type_symbol
_atom_site_label
_atom_site_fract_x
_atom_site_fract_y
_atom_site_fract_z
Si Si1 0.663134 0.750000 0.249991
Si Si2 0.465179 0.685268 0.246818
Si Si3 0.965178 0.185268 0.246827
Si Si4 0.313876 0.901422 0.500004
Si Si5 0.669158 0.580263 0.859475
Si Si6 0.830843 0.580262 0.640513
Si Si7 0.182065 0.593275 0.000004
O O1 0.702894 0.797107 0.185894
O O2 0.702895 0.702895 0.314086
O O3 0.623197 0.779550 0.350792
O O4 0.623197 0.720449 0.149191
O O5 0.456878 0.750000 0.249998
O O6 0.433150 0.662841 0.123697
O O7 0.530446 0.671374 0.240366
O O8 0.440717 0.661169 0.377086
O O9 0.940718 0.161170 0.377096
O O10 0.030446 0.171375 0.240377
O O11 0.933148 0.162841 0.123708
O O12 0.339859 0.839859 0.500000
O O13 0.247657 0.896180 0.500005
O O14 0.611646 0.611646 0.835507
O O15 0.672011 0.554936 0.999993
O O16 0.888355 0.611646 0.664481
O O17 0.153092 0.653092 0.000000
#
# Coordination Sequence:
#
# PCOD8318911 Si02
#       7
#    16  16  16  16  16  16  16
#     4   9  18  30  46  76 116 150 177 214 272 320
#     4  10  19  34  55  79 110 141 182 217 260 317
#     4  10  19  34  55  79 110 141 182 217 260 317
#     4  10  20  35  59  83 107 139 169 211 263 325
#     4  10  19  32  53  77 107 145 187 230 262 301
#     4  10  19  32  53  77 107 145 187 230 262 301
#     4  10  22  37  57  83 109 137 167 215 275 331
#
# _framework density 18.14734
#
# number of rings (size 3 to 8) (size 9 to 14) (size 15 to 20)
#    0.000    2.143    2.857    0.857    0.000    0.857 
#    0.000    3.571    0.000   10.286    0.000    0.000 
#    0.000    0.000    0.000    0.000    0.000    0.000 
#
# Total GULP energy -1388051.585968 kJ/mol
# GULP energy per Si atom -12393.317732 kJ/mol
# Density = 1.810604 g / cm^3
# Si number density = 18.147340 Si / 1000 Ang^3
#
#
#
# Elastic Constant Matrix: (Units=GPa)
#
#
# Indices 1 2 3 4 5 6 
#
# 1 80.6804 43.5668 43.2847 0.0000 0.0000 0.0000
# 2 43.5668 80.6804 43.2847 0.0000 0.0000 0.0000
# 3 43.2847 43.2847 131.3414 0.0000 0.0000 0.0000
# 4 0.0000 0.0000 0.0000 18.9345 0.0000 0.0000
# 5 0.0000 0.0000 0.0000 0.0000 18.9345 0.0000
# 6 0.0000 0.0000 0.0000 0.0000 0.0000 20.2363
#
#
#
# Elastic Compliance Matrix: (Units=1/GPa)
#
#
# Indices 1 2 3 4 5 6 
#
# 1 0.018696 -0.008248 -0.003443 0.000000 0.000000 0.000000
# 2 -0.008248 0.018696 -0.003443 0.000000 0.000000 0.000000
# 3 -0.003443 -0.003443 0.009883 0.000000 0.000000 0.000000
# 4 0.000000 0.000000 0.000000 0.052814 0.000000 0.000000
# 5 0.000000 0.000000 0.000000 0.000000 0.052814 0.000000
# 6 0.000000 0.000000 0.000000 0.000000 0.000000 0.049416
#
#
# Mechanical properties :
#
#
# Convention : Reuss Voigt Hill
#
# Bulk Modulus (GPa) = 58.80347 61.44161 60.12254
# Shear Modulus (GPa) = 20.98584 22.45879 21.72232
#
# Velocity S-wave (km/s) = 3.40430 3.52174 3.46352
# Velocity P-wave (km/s) = 6.92286 7.10405 7.01404
#
# Compressibility (1/GPa) = 0.01700580
#
# Stress axis : x y z
#
# Youngs Moduli (GPa) = 53.48777 53.48777 101.18277
#
# Poissons Ratio (x) = 0.44119 0.34838
# Poissons Ratio (y) = 0.44119 0.34838
# Poissons Ratio (z) = 0.18416 0.18416
#
# Static dielectric constant tensor:
#      x y z
#    x 3.204700 0.000000 0.000000 
#    y 0.000000 3.204700 0.000000 
#    z 0.000000 0.000000 3.599170 
# 
# 
# High freq. dielectric constant tensor:
#      x y z
#    x 1.691060 0.000000 0.000000 
#    y 0.000000 1.691060 0.000000 
#    z 0.000000 0.000000 1.699230 
# 
# From -- ./inp_files/3271.got.cif
#   From: 2010.03.12/outbox.cif.g09.slc.cpg/sg138_2_cif.got.tgz:3271.got - 2010.04.08 09:41:05.
