data_PCOD8318180
_publ_section_title
;
Structure prediction by ZEFSAII (Michael W. Deem and Ramdas Pophale) SiO2 
 PCOD8318180
Probable space group: P 42/M N M
;
_chemical_formula_sum "Si O2"
_cell_formula_units_Z 96
_cell_length_a 14.672329
_cell_length_b 14.672329
_cell_length_c 21.245929
_cell_angle_alpha 90.000000
_cell_angle_beta 90.000000
_cell_angle_gamma 90.000000
_cell_volume 4573.764920
_symmetry_space_group_name_H-M "P 42/M N M"
_symmetry_group_IT_number 136
_symmetry_cell_setting 'tetragonal'
loop_
_space_group_symop_operation_xyz
x,y,z
1/2-y,1/2+x,1/2+z
-x,-y,z
1/2+y,1/2-x,1/2+z
1/2+x,1/2-y,1/2-z
1/2-x,1/2+y,1/2-z
y,x,-z
-y,-x,-z
-x,-y,-z
1/2+y,1/2-x,1/2-z
x,y,-z
1/2-y,1/2+x,1/2-z
1/2-x,1/2+y,1/2+z
1/2+x,1/2-y,1/2+z
-y,-x,z
y,x,z
loop_
_atom_site_type_symbol
_atom_site_label
_atom_site_fract_x
_atom_site_fract_y
_atom_site_fract_z
Si Si1 0.534430 0.321354 0.661170
Si Si2 0.574202 0.574202 0.074374
Si Si3 0.739206 0.111345 0.240479
Si Si4 0.676309 0.925265 0.070849
Si Si5 0.942045 0.277486 0.620054
Si Si6 0.923180 0.076821 0.068697
Si Si7 0.924135 0.571133 0.350416
O O1 0.589748 0.410253 0.681278
O O2 0.482715 0.291887 0.724164
O O3 0.598445 0.248582 0.626221
O O4 0.459855 0.337116 0.606578
O O5 0.500000 0.500000 0.097839
O O6 0.673405 0.543607 0.099274
O O7 0.577551 0.577551 0.000000
O O8 0.799302 0.200699 0.222316
O O9 0.719723 0.111976 0.314108
O O10 0.644340 0.105163 0.203544
O O11 0.615259 0.834284 0.068671
O O12 0.623658 0.017483 0.091827
O O13 0.716115 0.939113 0.000000
O O14 0.036393 0.332899 0.625251
O O15 0.891113 0.108888 0.000000
O O16 0.000000 0.000000 0.063725
O O17 0.000000 0.500000 0.322758
#
# Coordination Sequence:
#
# PCOD8318180 Si02
#       7
#    16   8  16  16  16   8  16
#     4  10  21  36  57  90 129 171 207 253 314 380
#     4  11  26  47  67  89 121 167 230 287 331 377
#     4  11  23  40  61  93 130 168 219 259 314 394
#     4  10  22  40  65  99 131 164 212 264 324 395
#     4  11  24  42  64  92 125 167 210 271 327 381
#     4   9  16  29  51  79 117 162 199 233 294 370
#     4   9  23  40  68  97 131 169 210 264 330 393
#
# _framework density 20.989273000000001
#
# number of rings (size 3 to 8) (size 9 to 14) (size 15 to 20)
#    0.000    1.833    1.667    1.000    8.167    6.000 
#    0.000    0.000    0.000    0.000    0.000    0.000 
#    0.000    0.000    0.000    0.000    0.000    0.000 
#
# Total GULP energy -1189543.683436 kJ/mol
# GULP energy per Si atom -12391.080036 kJ/mol
# Density = 2.094150 g / cm^3
# Si number density = 20.989273 Si / 1000 Ang^3
#
#
#
# Elastic Constant Matrix: (Units=GPa)
#
#
# Indices 1 2 3 4 5 6 
#
# 1 96.4397 51.3085 19.4862 0.0000 0.0000 0.0000
# 2 51.3085 96.4397 19.4862 0.0000 0.0000 0.0000
# 3 19.4862 19.4862 81.7238 0.0000 0.0000 0.0000
# 4 0.0000 0.0000 0.0000 22.2914 0.0000 0.0000
# 5 0.0000 0.0000 0.0000 0.0000 22.2914 0.0000
# 6 0.0000 0.0000 0.0000 0.0000 0.0000 33.9677
#
#
#
# Elastic Compliance Matrix: (Units=1/GPa)
#
#
# Indices 1 2 3 4 5 6 
#
# 1 0.014690 -0.007468 -0.001722 0.000000 0.000000 0.000000
# 2 -0.007468 0.014690 -0.001722 0.000000 0.000000 0.000000
# 3 -0.001722 -0.001722 0.013058 0.000000 0.000000 0.000000
# 4 0.000000 0.000000 0.000000 0.044860 0.000000 0.000000
# 5 0.000000 0.000000 0.000000 0.000000 0.044860 0.000000
# 6 0.000000 0.000000 0.000000 0.000000 0.000000 0.029440
#
#
# Mechanical properties :
#
#
# Convention : Reuss Voigt Hill
#
# Bulk Modulus (GPa) = 48.51048 50.57388 49.54218
# Shear Modulus (GPa) = 26.27523 27.99824 27.13673
#
# Velocity S-wave (km/s) = 3.54197 3.65626 3.59957
# Velocity P-wave (km/s) = 6.31583 6.47856 6.39771
#
# Compressibility (1/GPa) = 0.02061410
#
# Stress axis : x y z
#
# Youngs Moduli (GPa) = 68.07311 68.07317 76.58379
#
# Poissons Ratio (x) = 0.50834 0.13189
# Poissons Ratio (y) = 0.50834 0.13189
# Poissons Ratio (z) = 0.11723 0.11723
#
# Static dielectric constant tensor:
#      x y z
#    x 3.947230 0.000000 0.000000 
#    y 0.000000 3.947240 0.000000 
#    z 0.000000 0.000000 3.684410 
# 
# 
# High freq. dielectric constant tensor:
#      x y z
#    x 1.820910 0.000000 0.000000 
#    y 0.000000 1.820910 0.000000 
#    z 0.000000 0.000000 1.816920 
# 
# From -- ./inp_files/7539.got.cif
#   From: 2010.03.12/outbox.cif.g09.slc.cpg/sg136_4_cif.got.tgz:7539.got - 2010.04.06 18:39:43.
