data_PCOD8318132
_publ_section_title
;
Structure prediction by ZEFSAII (Michael W. Deem and Ramdas Pophale) SiO2 
 PCOD8318132
Probable space group: P 42/M N M
;
_chemical_formula_sum "Si O2"
_cell_formula_units_Z 36
_cell_length_a 13.017987
_cell_length_b 13.017987
_cell_length_c 12.002413
_cell_angle_alpha 90.000000
_cell_angle_beta 90.000000
_cell_angle_gamma 90.000000
_cell_volume 2034.024753
_symmetry_space_group_name_H-M "P 42/M N M"
_symmetry_group_IT_number 136
_symmetry_cell_setting 'tetragonal'
loop_
_space_group_symop_operation_xyz
x,y,z
1/2-y,1/2+x,1/2+z
-x,-y,z
1/2+y,1/2-x,1/2+z
1/2+x,1/2-y,1/2-z
1/2-x,1/2+y,1/2-z
y,x,-z
-y,-x,-z
-x,-y,-z
1/2+y,1/2-x,1/2-z
x,y,-z
1/2-y,1/2+x,1/2-z
1/2-x,1/2+y,1/2+z
1/2+x,1/2-y,1/2+z
-y,-x,z
y,x,z
loop_
_atom_site_type_symbol
_atom_site_label
_atom_site_fract_x
_atom_site_fract_y
_atom_site_fract_z
Si Si1 0.426045 0.739355 0.500000
Si Si2 0.428029 0.851184 0.730102
Si Si3 0.776785 0.776785 0.375743
Si Si4 0.137118 0.862883 0.000000
O O1 0.317281 0.682720 0.500000
O O2 0.434953 0.812061 0.605277
O O3 0.515974 0.655092 0.500000
O O4 0.542498 0.866266 0.775825
O O5 0.373330 0.768526 0.809445
O O6 0.812810 0.812810 0.500000
O O7 0.688965 0.688965 0.390007
#
# Coordination Sequence:
#
# PCOD8318132 Si02
#       4
#     8  16   8   4
#     4  12  23  38  61  90 118 158 202 245 299 356
#     4  11  23  37  61  89 117 153 202 250 297 357
#     4  10  20  38  57  82 121 159 184 240 312 346
#     4  10  21  40  58  84 120 157 194 244 296 355
#
# _framework density 17.698899000000001
#
# number of rings (size 3 to 8) (size 9 to 14) (size 15 to 20)
#    0.667    0.444    6.667    0.333    3.111    1.778 
#    0.000    0.000    0.000    0.000    0.000    4.667 
#    0.000    0.000    0.000    0.000    0.000    0.000 
#
# Total GULP energy -446426.872937 kJ/mol
# GULP energy per Si atom -12400.746470 kJ/mol
# Density = 1.765862 g / cm^3
# Si number density = 17.698899 Si / 1000 Ang^3
#
#
#
# Elastic Constant Matrix: (Units=GPa)
#
#
# Indices 1 2 3 4 5 6 
#
# 1 99.9087 59.9071 63.9914 0.0000 0.0000 0.0000
# 2 59.9071 99.9076 63.9899 0.0000 0.0000 0.0000
# 3 63.9914 63.9899 143.2643 0.0000 0.0000 0.0000
# 4 0.0000 0.0000 0.0000 -37.7636 0.0000 0.0000
# 5 0.0000 0.0000 0.0000 0.0000 -37.7559 0.0000
# 6 0.0000 0.0000 0.0000 0.0000 0.0000 42.0624
#
#
#
# Elastic Compliance Matrix: (Units=1/GPa)
#
#
# Indices 1 2 3 4 5 6 
#
# 1 0.017371 -0.007629 -0.004351 0.000000 0.000000 0.000000
# 2 -0.007629 0.017371 -0.004351 0.000000 0.000000 0.000000
# 3 -0.004351 -0.004351 0.010867 0.000000 0.000000 0.000000
# 4 0.000000 0.000000 0.000000 -0.026481 0.000000 0.000000
# 5 0.000000 0.000000 0.000000 0.000000 -0.026486 0.000000
# 6 0.000000 0.000000 0.000000 0.000000 0.000000 0.023774
#
#
# Mechanical properties :
#
#
# Convention : Reuss Voigt Hill
#
# Bulk Modulus (GPa) = 77.24612 79.87304 78.55958
# Shear Modulus (GPa) = 93.64377 3.65473 48.64925
#
# Velocity S-wave (km/s) = 7.28177 1.43855 5.24851
# Velocity P-wave (km/s) = 10.69758 6.92719 9.01178
#
# Compressibility (1/GPa) = 0.01294563
#
# Stress axis : x y z
#
# Youngs Moduli (GPa) = 57.56872 57.56885 92.02012
#
# Poissons Ratio (x) = 0.43918 0.40042
# Poissons Ratio (y) = 0.43918 0.40039
# Poissons Ratio (z) = 0.25050 0.25049
#
# Static dielectric constant tensor:
#      x y z
#    x 3.235130 0.000000 0.000000 
#    y 0.000000 3.235120 0.000000 
#    z 0.000000 0.000000 3.285320 
# 
# 
# High freq. dielectric constant tensor:
#      x y z
#    x 1.684410 0.000000 0.000000 
#    y 0.000000 1.684410 0.000000 
#    z 0.000000 0.000000 1.690300 
# 
# From -- ./inp_files/2733.got.cif
#   From: 2010.03.12/outbox.cif.g09.slc.cpg/sg136_2_cif.got.tgz:2733.got - 2010.04.06 18:39:43.
