data_PCOD8318449
_publ_section_title
;
Structure prediction by ZEFSAII (Michael W. Deem and Ramdas Pophale) SiO2 
 PCOD8318449
Probable space group: P 42/N M C
;
_chemical_formula_sum "Si O2"
_cell_formula_units_Z 112
_cell_length_a 17.443810
_cell_length_b 17.443810
_cell_length_c 21.890968
_cell_angle_alpha 90.000000
_cell_angle_beta 90.000000
_cell_angle_gamma 90.000000
_cell_volume 6661.126194
_symmetry_space_group_name_H-M "P 42/N M C"
_symmetry_group_IT_number 137
_space_group.IT_coordinate_system_code '2'
_symmetry_cell_setting 'tetragonal'
loop_
_space_group_symop_operation_xyz
x,y,z
1/2-y,x,1/2+z
1/2-x,1/2-y,z
y,1/2-x,1/2+z
1/2+x,-y,-z
-x,1/2+y,-z
1/2+y,1/2+x,1/2-z
-y,-x,1/2-z
-x,-y,-z
1/2+y,-x,1/2-z
1/2+x,1/2+y,-z
-y,1/2+x,1/2-z
1/2-x,y,z
x,1/2-y,z
1/2-y,1/2-x,1/2+z
y,x,1/2+z
loop_
_atom_site_type_symbol
_atom_site_label
_atom_site_fract_x
_atom_site_fract_y
_atom_site_fract_z
Si Si1 0.838836 0.332524 0.082430
Si Si2 0.099024 0.930016 0.484225
Si Si3 0.979675 0.523018 0.187785
Si Si4 0.549091 0.663183 0.099325
Si Si5 0.922034 0.339532 0.300258
Si Si6 0.942486 0.948218 0.922268
Si Si7 0.161106 0.160267 0.008813
O O1 0.750000 0.320320 0.088870
O O2 0.880050 0.250000 0.091885
O O3 0.865865 0.390656 0.134126
O O4 0.856050 0.362963 0.014555
O O5 0.026914 0.903057 0.444572
O O6 0.161177 0.973548 0.442711
O O7 0.070561 0.982635 0.539375
O O8 0.963473 0.604421 0.155092
O O9 0.895232 0.494458 0.209109
O O10 0.030400 0.530400 0.250000
O O11 0.027690 0.462124 0.146562
O O12 0.560395 0.750000 0.124286
O O13 0.620830 0.637908 0.055958
O O14 0.856384 0.356384 0.250000
O O15 0.946117 0.250000 0.297259
O O16 0.878734 0.882108 0.933093
O O17 0.250000 0.136263 0.004383
O O18 0.151222 0.250000 0.021258
#
# Coordination Sequence:
#
# PCOD8318449 Si02
#       7
#    16  16  16  16  16  16  16
#     4  10  19  28  42  67  95 124 158 196 238 289
#     4   9  16  29  47  69  93 120 154 197 249 302
#     4  10  20  35  51  74 101 130 174 214 245 295
#     4   9  18  33  54  74  97 129 162 207 258 300
#     4  10  20  33  47  65  96 136 169 202 239 283
#     4   9  17  31  47  69  96 126 159 203 248 295
#     4   9  18  31  50  77 105 134 168 208 257 310
#
# _framework density 16.813974000000002
#
# number of rings (size 3 to 8) (size 9 to 14) (size 15 to 20)
#    0.000    2.571    1.429    1.714    0.000    2.429 
#    0.000    1.429    0.000    0.857    0.000    2.000 
#    0.000    0.000    0.000    0.000    0.000    0.000 
#
# Total GULP energy -1387736.617191 kJ/mol
# GULP energy per Si atom -12390.505511 kJ/mol
# Density = 1.677570 g / cm^3
# Si number density = 16.813974 Si / 1000 Ang^3
#
#
#
# Elastic Constant Matrix: (Units=GPa)
#
#
# Indices 1 2 3 4 5 6 
#
# 1 62.6401 33.4116 38.0586 0.0000 0.0000 0.0000
# 2 33.4116 62.6401 38.0586 0.0000 0.0000 0.0000
# 3 38.0586 38.0586 94.5126 0.0000 0.0000 0.0000
# 4 0.0000 0.0000 0.0000 21.8621 0.0000 0.0000
# 5 0.0000 0.0000 0.0000 0.0000 21.8621 0.0000
# 6 0.0000 0.0000 0.0000 0.0000 0.0000 22.3334
#
#
#
# Elastic Compliance Matrix: (Units=1/GPa)
#
#
# Indices 1 2 3 4 5 6 
#
# 1 0.024752 -0.009461 -0.006157 0.000000 0.000000 0.000000
# 2 -0.009461 0.024752 -0.006157 0.000000 0.000000 0.000000
# 3 -0.006157 -0.006157 0.015539 0.000000 0.000000 0.000000
# 4 0.000000 0.000000 0.000000 0.045741 0.000000 0.000000
# 5 0.000000 0.000000 0.000000 0.000000 0.045741 0.000000
# 6 0.000000 0.000000 0.000000 0.000000 0.000000 0.044776
#
#
# Mechanical properties :
#
#
# Convention : Reuss Voigt Hill
#
# Bulk Modulus (GPa) = 46.53013 48.76114 47.64563
# Shear Modulus (GPa) = 19.83993 20.56243 20.20118
#
# Velocity S-wave (km/s) = 3.43879 3.50085 3.46996
# Velocity P-wave (km/s) = 6.59550 6.73829 6.66728
#
# Compressibility (1/GPa) = 0.02149145
#
# Stress axis : x y z
#
# Youngs Moduli (GPa) = 40.40110 40.40110 64.35260
#
# Poissons Ratio (x) = 0.38225 0.39623
# Poissons Ratio (y) = 0.38225 0.39623
# Poissons Ratio (z) = 0.24876 0.24876
#
# Static dielectric constant tensor:
#      x y z
#    x 3.211060 0.000000 0.000000 
#    y 0.000000 3.211060 0.000000 
#    z 0.000000 0.000000 3.112500 
# 
# 
# High freq. dielectric constant tensor:
#      x y z
#    x 1.638580 0.000000 0.000000 
#    y 0.000000 1.638580 0.000000 
#    z 0.000000 0.000000 1.630200 
# 
# From -- ./inp_files/8093.got.cif
#   From: 2010.03.12/outbox.cif.g09.slc.cpg/sg137_5_cif.got.tgz:8093.got - 2010.04.08 09:34:49.
