data_PCOD8318779
_publ_section_title
;
Structure prediction by ZEFSAII (Michael W. Deem and Ramdas Pophale) SiO2 
 PCOD8318779
Probable space group: P 42/N M C
;
_chemical_formula_sum "Si O2"
_cell_formula_units_Z 58
_cell_length_a 10.853911
_cell_length_b 10.853911
_cell_length_c 23.774089
_cell_angle_alpha 90.000000
_cell_angle_beta 90.000000
_cell_angle_gamma 90.000000
_cell_volume 2800.763232
_symmetry_space_group_name_H-M "P 42/N M C"
_symmetry_group_IT_number 137
_space_group.IT_coordinate_system_code '2'
_symmetry_cell_setting 'tetragonal'
loop_
_space_group_symop_operation_xyz
x,y,z
1/2-y,x,1/2+z
1/2-x,1/2-y,z
y,1/2-x,1/2+z
1/2+x,-y,-z
-x,1/2+y,-z
1/2+y,1/2+x,1/2-z
-y,-x,1/2-z
-x,-y,-z
1/2+y,-x,1/2-z
1/2+x,1/2+y,-z
-y,1/2+x,1/2-z
1/2-x,y,z
x,1/2-y,z
1/2-y,1/2-x,1/2+z
y,x,1/2+z
loop_
_atom_site_type_symbol
_atom_site_label
_atom_site_fract_x
_atom_site_fract_y
_atom_site_fract_z
Si Si1 0.392030 0.250000 0.467300
Si Si2 0.986537 0.606620 0.099442
Si Si3 0.250000 0.750000 0.250000
Si Si4 0.518208 0.750000 0.290505
Si Si5 0.611008 0.533322 0.213855
Si Si6 0.991901 0.250000 0.583680
O O1 0.250000 0.250000 0.453239
O O2 0.447337 0.122782 0.440728
O O3 0.408544 0.250000 0.534161
O O4 0.965172 0.750000 0.110141
O O5 0.976786 0.538555 0.159515
O O6 0.124095 0.586792 0.075285
O O7 0.368812 0.750000 0.290487
O O8 0.572962 0.634223 0.259029
O O9 0.559430 0.750000 0.355882
O O10 0.592426 0.407575 0.250000
O O11 0.750000 0.549114 0.192955
#
# Coordination Sequence:
#
# PCOD8318779 Si02
#       6
#     8  16   2   8  16   8
#     4  10  24  43  63  86 125 176 216 257 320 403
#     4  11  22  40  66  93 123 168 214 266 329 398
#     4  12  20  40  64 108 136 144 208 264 342 380
#     4  12  23  35  65 101 134 157 194 273 337 386
#     4  12  24  41  64  93 128 171 213 261 327 400
#     4  12  23  38  62  94 132 158 210 273 323 364
#
# _framework density 20.708642000000001
#
# number of rings (size 3 to 8) (size 9 to 14) (size 15 to 20)
#    0.000    0.552    6.897    1.655    1.931    1.379 
#    0.000    0.000    0.000    1.655    0.000    0.000 
#    0.000    0.000    0.000    0.000    0.000    0.000 
#
# Total GULP energy -718909.586244 kJ/mol
# GULP energy per Si atom -12394.992866 kJ/mol
# Density = 2.066151 g / cm^3
# Si number density = 20.708642 Si / 1000 Ang^3
#
#
#
# Elastic Constant Matrix: (Units=GPa)
#
#
# Indices 1 2 3 4 5 6 
#
# 1 106.4889 21.8435 29.5115 0.0000 0.0000 0.0000
# 2 21.8435 106.4900 29.5117 0.0000 0.0000 0.0000
# 3 29.5115 29.5117 132.2951 0.0000 0.0000 0.0000
# 4 0.0000 0.0000 0.0000 18.5436 0.0000 0.0000
# 5 0.0000 0.0000 0.0000 0.0000 18.5539 0.0000
# 6 0.0000 0.0000 0.0000 0.0000 0.0000 12.8877
#
#
#
# Elastic Compliance Matrix: (Units=1/GPa)
#
#
# Indices 1 2 3 4 5 6 
#
# 1 0.010249 -0.001565 -0.001937 0.000000 0.000000 0.000000
# 2 -0.001565 0.010248 -0.001937 0.000000 0.000000 0.000000
# 3 -0.001937 -0.001937 0.008423 0.000000 0.000000 0.000000
# 4 0.000000 0.000000 0.000000 0.053927 0.000000 0.000000
# 5 0.000000 0.000000 0.000000 0.000000 0.053897 0.000000
# 6 0.000000 0.000000 0.000000 0.000000 0.000000 0.077593
#
#
# Mechanical properties :
#
#
# Convention : Reuss Voigt Hill
#
# Bulk Modulus (GPa) = 55.42830 56.33416 55.88123
# Shear Modulus (GPa) = 21.62349 27.62418 24.62384
#
# Velocity S-wave (km/s) = 3.23488 3.65628 3.45202
# Velocity P-wave (km/s) = 6.38565 6.71467 6.55222
#
# Compressibility (1/GPa) = 0.01804132
#
# Stress axis : x y z
#
# Youngs Moduli (GPa) = 97.57476 97.57575 118.72203
#
# Poissons Ratio (x) = 0.15275 0.22996
# Poissons Ratio (y) = 0.15274 0.22996
# Poissons Ratio (z) = 0.18900 0.18900
#
# Static dielectric constant tensor:
#      x y z
#    x 4.217110 0.000000 0.000000 
#    y 0.000000 4.217290 0.000000 
#    z 0.000000 0.000000 3.705500 
# 
# 
# High freq. dielectric constant tensor:
#      x y z
#    x 1.800280 0.000000 0.000000 
#    y 0.000000 1.800280 0.000000 
#    z 0.000000 0.000000 1.816920 
# 
# From -- ./inp_files/7388.got.cif
#   From: 2010.03.12/outbox.cif.g09.slc.cpg/sg137_4_cif.got.tgz:7388.got - 2010.04.08 09:34:49.
