data_PCOD8318951
_publ_section_title
;
Structure prediction by ZEFSAII (Michael W. Deem and Ramdas Pophale) SiO2 
 PCOD8318951
Probable space group: P 42/N C M
;
_chemical_formula_sum "Si O2"
_cell_formula_units_Z 56
_cell_length_a 11.129515
_cell_length_b 11.129515
_cell_length_c 23.861549
_cell_angle_alpha 90.000000
_cell_angle_beta 90.000000
_cell_angle_gamma 90.000000
_cell_volume 2955.637113
_symmetry_space_group_name_H-M "P 42/N C M"
_symmetry_group_IT_number 138
_space_group.IT_coordinate_system_code '2'
_symmetry_cell_setting 'tetragonal'
loop_
_space_group_symop_operation_xyz
x,y,z
1/2-y,x,1/2+z
1/2-x,1/2-y,z
y,1/2-x,1/2+z
1/2+x,-y,1/2-z
-x,1/2+y,1/2-z
1/2+y,1/2+x,-z
-y,-x,-z
-x,-y,-z
1/2+y,-x,1/2-z
1/2+x,1/2+y,-z
-y,1/2+x,1/2-z
1/2-x,y,1/2+z
x,1/2-y,1/2+z
1/2-y,1/2-x,z
y,x,z
loop_
_atom_site_type_symbol
_atom_site_label
_atom_site_fract_x
_atom_site_fract_y
_atom_site_fract_z
Si Si1 0.200641 0.487219 0.639643
Si Si2 0.551219 0.948782 0.662165
Si Si3 0.309895 0.511331 0.524442
Si Si4 0.150080 0.349921 0.222983
Si Si5 0.149357 0.350644 0.452750
O O1 0.142031 0.357970 0.621661
O O2 0.263997 0.545549 0.586128
O O3 0.296262 0.463533 0.689068
O O4 0.093388 0.574580 0.661029
O O5 0.605457 0.894544 0.717668
O O6 0.612539 0.887462 0.609227
O O7 0.367559 0.632442 0.500000
O O8 0.407284 0.407284 0.530046
O O9 0.200246 0.467186 0.485351
O O10 0.250000 0.250000 0.234476
O O11 0.250000 0.250000 0.447429
#
# Coordination Sequence:
#
# PCOD8318951 Si02
#       5
#    16   8  16   8   8
#     4   9  19  36  63  80 112 155 190 243 290 347
#     4  10  22  37  57  90 113 153 196 242 295 348
#     4  10  19  34  60  93 116 152 202 238 290 358
#     4  10  19  39  65  82 105 159 204 238 292 356
#     4  10  20  37  59  82 122 152 191 251 291 353
#
# _framework density 18.946843999999999
#
# number of rings (size 3 to 8) (size 9 to 14) (size 15 to 20)
#    0.857    1.429    2.857    0.429    0.000    2.286 
#    5.143    2.857    0.000    0.000    0.000    0.000 
#    0.000    0.000    0.000    0.000    0.000    0.000 
#
# Total GULP energy -694188.708378 kJ/mol
# GULP energy per Si atom -12396.226935 kJ/mol
# Density = 1.890372 g / cm^3
# Si number density = 18.946844 Si / 1000 Ang^3
#
#
#
# Elastic Constant Matrix: (Units=GPa)
#
#
# Indices 1 2 3 4 5 6 
#
# 1 67.9534 47.1963 67.9785 0.0000 0.0000 0.0000
# 2 47.1963 67.9528 67.9786 0.0000 0.0000 0.0000
# 3 67.9785 67.9786 196.4186 0.0000 0.0000 0.0000
# 4 0.0000 0.0000 0.0000 25.7922 0.0000 0.0000
# 5 0.0000 0.0000 0.0000 0.0000 25.7918 0.0000
# 6 0.0000 0.0000 0.0000 0.0000 0.0000 24.8549
#
#
#
# Elastic Compliance Matrix: (Units=1/GPa)
#
#
# Indices 1 2 3 4 5 6 
#
# 1 0.031431 -0.016746 -0.005082 0.000000 0.000000 0.000000
# 2 -0.016746 0.031431 -0.005082 0.000000 0.000000 0.000000
# 3 -0.005082 -0.005082 0.008609 0.000000 0.000000 0.000000
# 4 0.000000 0.000000 0.000000 0.038771 0.000000 0.000000
# 5 0.000000 0.000000 0.000000 0.000000 0.038772 0.000000
# 6 0.000000 0.000000 0.000000 0.000000 0.000000 0.040234
#
#
# Mechanical properties :
#
#
# Convention : Reuss Voigt Hill
#
# Bulk Modulus (GPa) = 56.65770 77.62573 67.14172
# Shear Modulus (GPa) = 20.08412 25.23253 22.65833
#
# Velocity S-wave (km/s) = 3.25933 3.65328 3.46191
# Velocity P-wave (km/s) = 6.64325 7.67167 7.17591
#
# Compressibility (1/GPa) = 0.01764985
#
# Stress axis : x y z
#
# Youngs Moduli (GPa) = 31.81590 31.81539 116.15625
#
# Poissons Ratio (x) = 0.53278 0.59034
# Poissons Ratio (y) = 0.53279 0.59036
# Poissons Ratio (z) = 0.16170 0.16170
#
# Static dielectric constant tensor:
#      x y z
#    x 3.335890 0.000000 0.000000 
#    y 0.000000 3.335890 0.000000 
#    z 0.000000 0.000000 3.308900 
# 
# 
# High freq. dielectric constant tensor:
#      x y z
#    x 1.719540 0.000000 0.000000 
#    y 0.000000 1.719540 0.000000 
#    z 0.000000 0.000000 1.738930 
# 
# From -- ./inp_files/6692.got.cif
#   From: 2010.03.12/outbox.cif.g09.slc.cpg/sg138_4_cif.got.tgz:6692.got - 2010.04.08 09:41:05.
