data_PCOD8318356
_publ_section_title
;
Structure prediction by ZEFSAII (Michael W. Deem and Ramdas Pophale) SiO2 
 PCOD8318356
Probable space group: P 42/N M C
;
_chemical_formula_sum "Si O2"
_cell_formula_units_Z 104
_cell_length_a 17.931032
_cell_length_b 17.931032
_cell_length_c 18.580502
_cell_angle_alpha 90.000000
_cell_angle_beta 90.000000
_cell_angle_gamma 90.000000
_cell_volume 5974.038466
_symmetry_space_group_name_H-M "P 42/N M C"
_symmetry_group_IT_number 137
_space_group.IT_coordinate_system_code '2'
_symmetry_cell_setting 'tetragonal'
loop_
_space_group_symop_operation_xyz
x,y,z
1/2-y,x,1/2+z
1/2-x,1/2-y,z
y,1/2-x,1/2+z
1/2+x,-y,-z
-x,1/2+y,-z
1/2+y,1/2+x,1/2-z
-y,-x,1/2-z
-x,-y,-z
1/2+y,-x,1/2-z
1/2+x,1/2+y,-z
-y,1/2+x,1/2-z
1/2-x,y,z
x,1/2-y,z
1/2-y,1/2-x,1/2+z
y,x,1/2+z
loop_
_atom_site_type_symbol
_atom_site_label
_atom_site_fract_x
_atom_site_fract_y
_atom_site_fract_z
Si Si1 0.335834 0.666868 0.386969
Si Si2 0.666552 0.953901 0.251083
Si Si3 0.399387 0.600614 0.250000
Si Si4 0.086122 0.460534 0.341861
Si Si5 0.337057 0.522176 0.472767
Si Si6 0.413196 0.979920 0.618758
Si Si7 0.614997 0.171066 0.318357
O O1 0.250000 0.654504 0.364343
O O2 0.349242 0.750000 0.418209
O O3 0.385639 0.657831 0.315481
O O4 0.357483 0.606538 0.447914
O O5 0.750000 0.921430 0.262112
O O6 0.620466 0.903364 0.194633
O O7 0.623339 0.960093 0.327030
O O8 0.667650 0.033934 0.215598
O O9 0.482263 0.611328 0.219811
O O10 0.142804 0.465374 0.408450
O O11 0.001835 0.478173 0.368956
O O12 0.250000 0.514207 0.493292
O O13 0.390278 0.497550 0.538334
O O14 0.374742 0.898403 0.628565
O O15 0.669998 0.169998 0.250000
O O16 0.627714 0.250000 0.359730
#
# Coordination Sequence:
#
# PCOD8318356 Si02
#       7
#    16  16   8  16  16  16  16
#     4   9  18  31  46  68 101 140 173 200 236 283
#     4   9  16  29  50  72  93 118 158 206 251 296
#     4  10  16  27  48  70  94 124 171 212 242 278
#     4  10  18  32  49  72  98 127 166 206 254 289
#     4  10  21  32  46  70 102 136 168 200 241 301
#     4  10  17  30  48  71  98 129 161 207 250 290
#     4   8  15  25  39  62  93 127 162 196 232 280
#
# _framework density 17.408659
#
# number of rings (size 3 to 8) (size 9 to 14) (size 15 to 20)
#    0.000    2.615    1.538    2.308    0.000    2.615 
#    0.000    0.000    0.000    0.462    0.000    0.000 
#    0.000    2.462    0.000    0.000    0.000    0.000 
#
# Total GULP energy -1288788.822574 kJ/mol
# GULP energy per Si atom -12392.200217 kJ/mol
# Density = 1.736904 g / cm^3
# Si number density = 17.408659 Si / 1000 Ang^3
#
#
#
# Elastic Constant Matrix: (Units=GPa)
#
#
# Indices 1 2 3 4 5 6 
#
# 1 51.4629 20.1869 21.6412 0.0000 0.0000 0.0000
# 2 20.1869 51.4622 21.6408 0.0000 0.0000 0.0000
# 3 21.6412 21.6408 83.8476 0.0000 0.0000 0.0000
# 4 0.0000 0.0000 0.0000 16.5414 0.0000 0.0000
# 5 0.0000 0.0000 0.0000 0.0000 16.5417 0.0000
# 6 0.0000 0.0000 0.0000 0.0000 0.0000 17.4614
#
#
#
# Elastic Compliance Matrix: (Units=1/GPa)
#
#
# Indices 1 2 3 4 5 6 
#
# 1 0.024254 -0.007719 -0.004268 0.000000 0.000000 0.000000
# 2 -0.007719 0.024254 -0.004268 0.000000 0.000000 0.000000
# 3 -0.004268 -0.004268 0.014129 0.000000 0.000000 0.000000
# 4 0.000000 0.000000 0.000000 0.060454 0.000000 0.000000
# 5 0.000000 0.000000 0.000000 0.000000 0.060453 0.000000
# 6 0.000000 0.000000 0.000000 0.000000 0.000000 0.057269
#
#
# Mechanical properties :
#
#
# Convention : Reuss Voigt Hill
#
# Bulk Modulus (GPa) = 33.19119 34.85674 34.02397
# Shear Modulus (GPa) = 17.64495 18.32915 17.98705
#
# Velocity S-wave (km/s) = 3.18712 3.24832 3.21787
# Velocity P-wave (km/s) = 5.71410 5.84251 5.77866
#
# Compressibility (1/GPa) = 0.03012848
#
# Stress axis : x y z
#
# Youngs Moduli (GPa) = 41.23002 41.22956 70.77466
#
# Poissons Ratio (x) = 0.31827 0.30204
# Poissons Ratio (y) = 0.31827 0.30204
# Poissons Ratio (z) = 0.17596 0.17595
#
# Static dielectric constant tensor:
#      x y z
#    x 3.264500 0.000000 0.000000 
#    y 0.000000 3.264510 0.000000 
#    z 0.000000 0.000000 3.167260 
# 
# 
# High freq. dielectric constant tensor:
#      x y z
#    x 1.651300 0.000000 0.000000 
#    y 0.000000 1.651300 0.000000 
#    z 0.000000 0.000000 1.666980 
# 
# From -- ./inp_files/6599.got.cif
#   From: 2010.03.12/outbox.cif.g09.slc.cpg/sg137_4_cif.got.tgz:6599.got - 2010.04.08 09:34:49.
