data_PCOD8318931
_publ_section_title
;
Structure prediction by ZEFSAII (Michael W. Deem and Ramdas Pophale) SiO2 
 PCOD8318931
Probable space group: P 42/N C M
;
_chemical_formula_sum "Si O2"
_cell_formula_units_Z 80
_cell_length_a 16.616309
_cell_length_b 16.616309
_cell_length_c 15.511747
_cell_angle_alpha 90.000000
_cell_angle_beta 90.000000
_cell_angle_gamma 90.000000
_cell_volume 4282.820101
_symmetry_space_group_name_H-M "P 42/N C M"
_symmetry_group_IT_number 138
_space_group.IT_coordinate_system_code '2'
_symmetry_cell_setting 'tetragonal'
loop_
_space_group_symop_operation_xyz
x,y,z
1/2-y,x,1/2+z
1/2-x,1/2-y,z
y,1/2-x,1/2+z
1/2+x,-y,1/2-z
-x,1/2+y,1/2-z
1/2+y,1/2+x,-z
-y,-x,-z
-x,-y,-z
1/2+y,-x,1/2-z
1/2+x,1/2+y,-z
-y,1/2+x,1/2-z
1/2-x,y,1/2+z
x,1/2-y,1/2+z
1/2-y,1/2-x,z
y,x,z
loop_
_atom_site_type_symbol
_atom_site_label
_atom_site_fract_x
_atom_site_fract_y
_atom_site_fract_z
Si Si1 0.057480 0.314891 0.551359
Si Si2 0.425862 0.642562 0.617668
Si Si3 0.860018 0.986548 0.447952
Si Si4 0.411188 0.820430 0.571716
Si Si5 0.464737 0.592453 0.804275
O O1 0.144100 0.355901 0.530974
O O2 0.065014 0.220096 0.570315
O O3 0.999736 0.327556 0.469416
O O4 0.021326 0.354494 0.636083
O O5 0.358485 0.572876 0.601543
O O6 0.498477 0.629632 0.550115
O O7 0.387748 0.730645 0.601920
O O8 0.460936 0.636773 0.712935
O O9 0.934946 0.934946 0.413355
O O10 0.346311 0.846311 0.500000
O O11 0.412506 0.875932 0.655961
O O12 0.503366 0.503366 0.794709
#
# Coordination Sequence:
#
# PCOD8318931 Si02
#       5
#    16  16  16  16  16
#     4   9  19  35  56  81 108 140 182 226 271 324
#     4  10  20  34  55  80 108 143 185 222 274 330
#     4  10  20  36  56  76 107 145 182 224 274 327
#     4   9  19  36  56  77 111 146 181 222 273 331
#     4  10  19  33  56  81 108 143 182 226 273 326
#
# _framework density 18.679282000000001
#
# number of rings (size 3 to 8) (size 9 to 14) (size 15 to 20)
#    0.000    2.400    0.000    3.000    2.800    2.800 
#    0.000   17.000    0.000    0.000    0.000    2.800 
#    0.000    0.000    0.000    0.000    0.000    0.000 
#
# Total GULP energy -991772.744538 kJ/mol
# GULP energy per Si atom -12397.159307 kJ/mol
# Density = 1.863677 g / cm^3
# Si number density = 18.679282 Si / 1000 Ang^3
#
#
#
# Elastic Constant Matrix: (Units=GPa)
#
#
# Indices 1 2 3 4 5 6 
#
# 1 116.8615 67.9648 28.6457 0.0000 0.0000 0.0000
# 2 67.9648 116.8615 28.6457 0.0000 0.0000 0.0000
# 3 28.6457 28.6457 93.7803 0.0000 0.0000 0.0000
# 4 0.0000 0.0000 0.0000 17.2016 0.0000 0.0000
# 5 0.0000 0.0000 0.0000 0.0000 17.2016 0.0000
# 6 0.0000 0.0000 0.0000 0.0000 0.0000 26.6730
#
#
#
# Elastic Compliance Matrix: (Units=1/GPa)
#
#
# Indices 1 2 3 4 5 6 
#
# 1 0.013214 -0.007237 -0.001826 0.000000 0.000000 0.000000
# 2 -0.007237 0.013214 -0.001826 0.000000 0.000000 0.000000
# 3 -0.001826 -0.001826 0.011778 0.000000 0.000000 0.000000
# 4 0.000000 0.000000 0.000000 0.058134 0.000000 0.000000
# 5 0.000000 0.000000 0.000000 0.000000 0.058134 0.000000
# 6 0.000000 0.000000 0.000000 0.000000 0.000000 0.037491
#
#
# Mechanical properties :
#
#
# Convention : Reuss Voigt Hill
#
# Bulk Modulus (GPa) = 60.86757 64.22394 62.54575
# Shear Modulus (GPa) = 22.80826 25.69838 24.25332
#
# Velocity S-wave (km/s) = 3.49814 3.71316 3.60725
# Velocity P-wave (km/s) = 6.99802 7.26915 7.13487
#
# Compressibility (1/GPa) = 0.01642911
#
# Stress axis : x y z
#
# Youngs Moduli (GPa) = 75.67836 75.67836 84.90092
#
# Poissons Ratio (x) = 0.54772 0.15499
# Poissons Ratio (y) = 0.54772 0.15499
# Poissons Ratio (z) = 0.13815 0.13815
#
# Static dielectric constant tensor:
#      x y z
#    x 3.449730 0.000000 0.000000 
#    y 0.000000 3.449730 0.000000 
#    z 0.000000 0.000000 3.364990 
# 
# 
# High freq. dielectric constant tensor:
#      x y z
#    x 1.716250 0.000000 0.000000 
#    y 0.000000 1.716250 0.000000 
#    z 0.000000 0.000000 1.722400 
# 
# From -- ./inp_files/4055.got.cif
#   From: 2010.03.12/outbox.cif.g09.slc.cpg/sg138_3_cif.got.tgz:4055.got - 2010.04.08 09:41:05.
