data_PCOD8318656
_publ_section_title
;
Structure prediction by ZEFSAII (Michael W. Deem and Ramdas Pophale) SiO2 
 PCOD8318656
Probable space group: P 42/N M C
;
_chemical_formula_sum "Si O2"
_cell_formula_units_Z 96
_cell_length_a 22.108869
_cell_length_b 22.108869
_cell_length_c 10.141718
_cell_angle_alpha 90.000000
_cell_angle_beta 90.000000
_cell_angle_gamma 90.000000
_cell_volume 4957.292939
_symmetry_space_group_name_H-M "P 42/N M C"
_symmetry_group_IT_number 137
_space_group.IT_coordinate_system_code '2'
_symmetry_cell_setting 'tetragonal'
loop_
_space_group_symop_operation_xyz
x,y,z
1/2-y,x,1/2+z
1/2-x,1/2-y,z
y,1/2-x,1/2+z
1/2+x,-y,-z
-x,1/2+y,-z
1/2+y,1/2+x,1/2-z
-y,-x,1/2-z
-x,-y,-z
1/2+y,-x,1/2-z
1/2+x,1/2+y,-z
-y,1/2+x,1/2-z
1/2-x,y,z
x,1/2-y,z
1/2-y,1/2-x,1/2+z
y,x,1/2+z
loop_
_atom_site_type_symbol
_atom_site_label
_atom_site_fract_x
_atom_site_fract_y
_atom_site_fract_z
Si Si1 0.495452 0.906025 0.582149
Si Si2 0.816700 0.998733 0.477790
Si Si3 0.181540 0.587276 0.747159
Si Si4 0.570009 0.016162 0.630605
Si Si5 0.180145 0.379780 0.680190
Si Si6 0.595690 0.819790 0.520561
O O1 0.454850 0.863438 0.671151
O O2 0.453570 0.949976 0.498109
O O3 0.538003 0.862806 0.493146
O O4 0.536557 0.952980 0.666238
O O5 0.750000 0.985476 0.534250
O O6 0.817604 0.062654 0.401833
O O7 0.860102 0.000180 0.604220
O O8 0.835629 0.946691 0.373521
O O9 0.155644 0.655644 0.750000
O O10 0.250000 0.586876 0.805285
O O11 0.562991 0.062991 0.750000
O O12 0.250000 0.363802 0.660167
O O13 0.163310 0.376819 0.835274
O O14 0.143549 0.330344 0.596012
O O15 0.575042 0.750000 0.519947
#
# Coordination Sequence:
#
# PCOD8318656 Si02
#       6
#    16  16  16  16  16  16
#     4  11  22  36  58  88 122 147 186 243 302 350
#     4  10  20  38  60  83 115 154 190 238 297 351
#     4  11  21  37  62  88 117 151 193 242 298 348
#     4  11  24  36  59  90 119 152 191 237 293 366
#     4  10  22  39  59  84 117 157 202 248 295 349
#     4  11  23  38  60  86 117 159 205 249 297 352
#
# _framework density 19.365407999999999
#
# number of rings (size 3 to 8) (size 9 to 14) (size 15 to 20)
#    0.000    1.333    5.000    1.000    4.667    1.167 
#    0.000    5.000    0.000    0.000    0.000    0.000 
#    0.000    0.000    0.000    0.000    0.000    0.000 
#
# Total GULP energy -1190211.984911 kJ/mol
# GULP energy per Si atom -12398.041509 kJ/mol
# Density = 1.932133 g / cm^3
# Si number density = 19.365408 Si / 1000 Ang^3
#
#
#
# Elastic Constant Matrix: (Units=GPa)
#
#
# Indices 1 2 3 4 5 6 
#
# 1 106.8205 39.3899 22.3163 0.0000 0.0000 0.0000
# 2 39.3899 106.8205 22.3163 0.0000 0.0000 0.0000
# 3 22.3163 22.3163 38.0709 0.0000 0.0000 0.0000
# 4 0.0000 0.0000 0.0000 28.2693 0.0000 0.0000
# 5 0.0000 0.0000 0.0000 0.0000 28.2693 0.0000
# 6 0.0000 0.0000 0.0000 0.0000 0.0000 27.1530
#
#
#
# Elastic Compliance Matrix: (Units=1/GPa)
#
#
# Indices 1 2 3 4 5 6 
#
# 1 0.011580 -0.003250 -0.004883 0.000000 0.000000 0.000000
# 2 -0.003250 0.011580 -0.004883 0.000000 0.000000 0.000000
# 3 -0.004883 -0.004883 0.031991 0.000000 0.000000 0.000000
# 4 0.000000 0.000000 0.000000 0.035374 0.000000 0.000000
# 5 0.000000 0.000000 0.000000 0.000000 0.035374 0.000000
# 6 0.000000 0.000000 0.000000 0.000000 0.000000 0.036828
#
#
# Mechanical properties :
#
#
# Convention : Reuss Voigt Hill
#
# Bulk Modulus (GPa) = 34.34089 46.63965 40.49027
# Shear Modulus (GPa) = 25.19325 27.91760 26.55543
#
# Velocity S-wave (km/s) = 3.61077 3.80099 3.70710
# Velocity P-wave (km/s) = 5.92918 6.58784 6.26717
#
# Compressibility (1/GPa) = 0.02911980
#
# Stress axis : x y z
#
# Youngs Moduli (GPa) = 86.35552 86.35552 31.25861
#
# Poissons Ratio (x) = 0.28066 0.15263
# Poissons Ratio (y) = 0.28066 0.15263
# Poissons Ratio (z) = 0.42166 0.42166
#
# Static dielectric constant tensor:
#      x y z
#    x 3.714150 0.000000 0.000000 
#    y 0.000000 3.714150 0.000000 
#    z 0.000000 0.000000 3.268090 
# 
# 
# High freq. dielectric constant tensor:
#      x y z
#    x 1.754590 0.000000 0.000000 
#    y 0.000000 1.754590 0.000000 
#    z 0.000000 0.000000 1.728920 
# 
# From -- ./inp_files/3734.got.cif
#   From: 2010.03.12/outbox.cif.g09.slc.cpg/sg137_2_cif.got.tgz:3734.got - 2010.04.08 09:34:49.
