data_PCOD8318291
_publ_section_title
;
Structure prediction by ZEFSAII (Michael W. Deem and Ramdas Pophale) SiO2 
 PCOD8318291
Probable space group: P 42/M N M
;
_chemical_formula_sum "Si O2"
_cell_formula_units_Z 64
_cell_length_a 20.026338
_cell_length_b 20.026338
_cell_length_c 8.722964
_cell_angle_alpha 90.000000
_cell_angle_beta 90.000000
_cell_angle_gamma 90.000000
_cell_volume 3498.381468
_symmetry_space_group_name_H-M "P 42/M N M"
_symmetry_group_IT_number 136
_symmetry_cell_setting 'tetragonal'
loop_
_space_group_symop_operation_xyz
x,y,z
1/2-y,1/2+x,1/2+z
-x,-y,z
1/2+y,1/2-x,1/2+z
1/2+x,1/2-y,1/2-z
1/2-x,1/2+y,1/2-z
y,x,-z
-y,-x,-z
-x,-y,-z
1/2+y,1/2-x,1/2-z
x,y,-z
1/2-y,1/2+x,1/2-z
1/2-x,1/2+y,1/2+z
1/2+x,1/2-y,1/2+z
-y,-x,z
y,x,z
loop_
_atom_site_type_symbol
_atom_site_label
_atom_site_fract_x
_atom_site_fract_y
_atom_site_fract_z
Si Si1 0.927317 0.072684 0.320363
Si Si2 0.319983 0.680018 0.182460
Si Si3 0.828007 0.171994 0.826348
Si Si4 0.575075 0.424926 0.182543
Si Si5 0.931235 0.427215 0.680799
Si Si6 0.670525 0.826414 0.321664
O O1 0.934189 0.065812 0.500000
O O2 0.872749 0.127252 0.282534
O O3 0.000645 0.093477 0.257940
O O4 0.372423 0.627578 0.253778
O O5 0.245810 0.659379 0.236829
O O6 0.318735 0.681266 0.000000
O O7 0.751212 0.154900 0.793492
O O8 0.846129 0.153872 0.000000
O O9 0.579838 0.420163 0.000000
O O10 0.906575 0.496367 0.755213
O O11 0.936170 0.436759 0.500000
O O12 0.879304 0.369283 0.719509
O O13 0.661690 0.845234 0.500000
#
# Coordination Sequence:
#
# PCOD8318291 Si02
#       6
#     8   8   8   8  16  16
#     4   9  17  29  48  73 101 128 165 213 254 297
#     4   8  15  30  53  74  99 137 176 209 250 305
#     4   9  19  34  51  72 105 139 168 209 259 304
#     4   8  15  29  47  71  99 128 164 209 251 292
#     4  11  22  37  56  78 105 137 172 215 260 310
#     4   9  18  34  53  75 102 135 173 213 255 303
#
# _framework density 18.294174000000002
#
# number of rings (size 3 to 8) (size 9 to 14) (size 15 to 20)
#    0.000    2.750    0.000    5.250    0.000    3.000 
#    0.000    5.625    0.000    1.500    0.000    0.000 
#    0.000    0.000    0.000    0.000    0.000    0.000 
#
# Total GULP energy -793436.739622 kJ/mol
# GULP energy per Si atom -12397.449057 kJ/mol
# Density = 1.825254 g / cm^3
# Si number density = 18.294174 Si / 1000 Ang^3
#
#
#
# Elastic Constant Matrix: (Units=GPa)
#
#
# Indices 1 2 3 4 5 6 
#
# 1 99.8572 73.0486 21.1825 0.0000 0.0000 0.0000
# 2 73.0486 99.8565 21.1825 0.0000 0.0000 0.0000
# 3 21.1825 21.1825 43.5666 0.0000 0.0000 0.0000
# 4 0.0000 0.0000 0.0000 24.3251 0.0000 0.0000
# 5 0.0000 0.0000 0.0000 0.0000 24.3252 0.0000
# 6 0.0000 0.0000 0.0000 0.0000 0.0000 42.7450
#
#
#
# Elastic Compliance Matrix: (Units=1/GPa)
#
#
# Indices 1 2 3 4 5 6 
#
# 1 0.021934 -0.015368 -0.003192 0.000000 0.000000 0.000000
# 2 -0.015368 0.021934 -0.003192 0.000000 0.000000 0.000000
# 3 -0.003192 -0.003192 0.026058 0.000000 0.000000 0.000000
# 4 0.000000 0.000000 0.000000 0.041110 0.000000 0.000000
# 5 0.000000 0.000000 0.000000 0.000000 0.041110 0.000000
# 6 0.000000 0.000000 0.000000 0.000000 0.000000 0.023395
#
#
# Mechanical properties :
#
#
# Convention : Reuss Voigt Hill
#
# Bulk Modulus (GPa) = 37.85042 52.67861 45.26452
# Shear Modulus (GPa) = 21.94412 26.80349 24.37381
#
# Velocity S-wave (km/s) = 3.46716 3.83186 3.65406
# Velocity P-wave (km/s) = 6.06325 6.95955 6.52681
#
# Compressibility (1/GPa) = 0.02641978
#
# Stress axis : x y z
#
# Youngs Moduli (GPa) = 45.59181 45.59145 38.37652
#
# Poissons Ratio (x) = 0.70066 0.12251
# Poissons Ratio (y) = 0.70066 0.12251
# Poissons Ratio (z) = 0.14554 0.14554
#
# Static dielectric constant tensor:
#      x y z
#    x 3.447290 0.000000 0.000000 
#    y 0.000000 3.447300 0.000000 
#    z 0.000000 0.000000 3.040860 
# 
# 
# High freq. dielectric constant tensor:
#      x y z
#    x 1.713740 0.000000 0.000000 
#    y 0.000000 1.713740 0.000000 
#    z 0.000000 0.000000 1.681440 
# 
# From -- ./inp_files/1504.got.cif
#   From: 2010.03.12/outbox.cif.g09.slc.cpg/sg136_1_cif.got.tgz:1504.got - 2010.04.06 18:39:43.
