data_PCOD8318936
_publ_section_title
;
Structure prediction by ZEFSAII (Michael W. Deem and Ramdas Pophale) SiO2 
 PCOD8318936
Probable space group: P 42/N C M
;
_chemical_formula_sum "Si O2"
_cell_formula_units_Z 68
_cell_length_a 16.697052
_cell_length_b 16.697052
_cell_length_c 13.166783
_cell_angle_alpha 90.000000
_cell_angle_beta 90.000000
_cell_angle_gamma 90.000000
_cell_volume 3670.787782
_symmetry_space_group_name_H-M "P 42/N C M"
_symmetry_group_IT_number 138
_space_group.IT_coordinate_system_code '2'
_symmetry_cell_setting 'tetragonal'
loop_
_space_group_symop_operation_xyz
x,y,z
1/2-y,x,1/2+z
1/2-x,1/2-y,z
y,1/2-x,1/2+z
1/2+x,-y,1/2-z
-x,1/2+y,1/2-z
1/2+y,1/2+x,-z
-y,-x,-z
-x,-y,-z
1/2+y,-x,1/2-z
1/2+x,1/2+y,-z
-y,1/2+x,1/2-z
1/2-x,y,1/2+z
x,1/2-y,1/2+z
1/2-y,1/2-x,z
y,x,z
loop_
_atom_site_type_symbol
_atom_site_label
_atom_site_fract_x
_atom_site_fract_y
_atom_site_fract_z
Si Si1 0.624618 0.749809 0.173784
Si Si2 0.605638 0.345504 0.800125
Si Si3 0.980163 0.652611 0.527368
Si Si4 0.250000 0.750000 0.750000
Si Si5 0.287394 0.515520 0.191927
O O1 0.683868 0.816133 0.128664
O O2 0.675014 0.675014 0.219888
O O3 0.571560 0.721039 0.080555
O O4 0.573021 0.790869 0.262343
O O5 0.556077 0.367583 0.901500
O O6 0.681483 0.287206 0.823771
O O7 0.550494 0.301954 0.715288
O O8 0.643310 0.428622 0.757287
O O9 0.928071 0.571930 0.507415
O O10 0.012575 0.694524 0.426746
#
# Coordination Sequence:
#
# PCOD8318936 Si02
#       5
#    16  16  16   4  16
#     4   9  19  35  53  75 102 132 171 214 255 309
#     4   9  19  34  51  76 105 133 173 214 250 305
#     4  10  20  33  53  80 106 135 172 215 261 307
#     4   8  16  36  54  68 100 142 172 208 262 300
#     4  10  19  34  53  74 103 138 169 207 258 304
#
# _framework density 18.524633000000001
#
# number of rings (size 3 to 8) (size 9 to 14) (size 15 to 20)
#    0.000    2.588    0.000    1.412    0.000    3.765 
#    0.000   28.235    0.000    1.412    0.000    0.000 
#    0.000    0.000    0.000    0.000    0.000    0.000 
#
# Total GULP energy -842618.666700 kJ/mol
# GULP energy per Si atom -12391.450981 kJ/mol
# Density = 1.848247 g / cm^3
# Si number density = 18.524633 Si / 1000 Ang^3
#
#
#
# Elastic Constant Matrix: (Units=GPa)
#
#
# Indices 1 2 3 4 5 6 
#
# 1 96.8445 40.5048 38.0020 0.0000 0.0000 0.0000
# 2 40.5048 96.8445 38.0020 0.0000 0.0000 0.0000
# 3 38.0020 38.0020 78.7495 0.0000 0.0000 0.0000
# 4 0.0000 0.0000 0.0000 15.6810 0.0000 0.0000
# 5 0.0000 0.0000 0.0000 0.0000 15.6810 0.0000
# 6 0.0000 0.0000 0.0000 0.0000 0.0000 21.6614
#
#
#
# Elastic Compliance Matrix: (Units=1/GPa)
#
#
# Indices 1 2 3 4 5 6 
#
# 1 0.013841 -0.003908 -0.004793 0.000000 0.000000 0.000000
# 2 -0.003908 0.013841 -0.004793 0.000000 0.000000 0.000000
# 3 -0.004793 -0.004793 0.017325 0.000000 0.000000 0.000000
# 4 0.000000 0.000000 0.000000 0.063771 0.000000 0.000000
# 5 0.000000 0.000000 0.000000 0.000000 0.063771 0.000000
# 6 0.000000 0.000000 0.000000 0.000000 0.000000 0.046165
#
#
# Mechanical properties :
#
#
# Convention : Reuss Voigt Hill
#
# Bulk Modulus (GPa) = 55.50174 56.16180 55.83177
# Shear Modulus (GPa) = 19.86401 20.99999 20.43200
#
# Velocity S-wave (km/s) = 3.27816 3.37059 3.32469
# Velocity P-wave (km/s) = 6.65992 6.74767 6.70393
#
# Compressibility (1/GPa) = 0.01801745
#
# Stress axis : x y z
#
# Youngs Moduli (GPa) = 72.24731 72.24731 57.72057
#
# Poissons Ratio (x) = 0.28235 0.27668
# Poissons Ratio (y) = 0.28235 0.27668
# Poissons Ratio (z) = 0.34632 0.34632
#
# Static dielectric constant tensor:
#      x y z
#    x 3.739020 0.000000 0.000000 
#    y 0.000000 3.739020 0.000000 
#    z 0.000000 0.000000 3.029760 
# 
# 
# High freq. dielectric constant tensor:
#      x y z
#    x 1.735170 0.000000 0.000000 
#    y 0.000000 1.735170 0.000000 
#    z 0.000000 0.000000 1.676940 
# 
# From -- ./inp_files/4005.got.cif
#   From: 2010.03.12/outbox.cif.g09.slc.cpg/sg138_3_cif.got.tgz:4005.got - 2010.04.08 09:41:05.
