data_PCOD8318876
_publ_section_title
;
Structure prediction by ZEFSAII (Michael W. Deem and Ramdas Pophale) SiO2 
 PCOD8318876
Probable space group: P 42/N C M
;
_chemical_formula_sum "Si O2"
_cell_formula_units_Z 128
_cell_length_a 19.184324
_cell_length_b 19.184324
_cell_length_c 18.815082
_cell_angle_alpha 90.000000
_cell_angle_beta 90.000000
_cell_angle_gamma 90.000000
_cell_volume 6924.670555
_symmetry_space_group_name_H-M "P 42/N C M"
_symmetry_group_IT_number 138
_space_group.IT_coordinate_system_code '2'
_symmetry_cell_setting 'tetragonal'
loop_
_space_group_symop_operation_xyz
x,y,z
1/2-y,x,1/2+z
1/2-x,1/2-y,z
y,1/2-x,1/2+z
1/2+x,-y,1/2-z
-x,1/2+y,1/2-z
1/2+y,1/2+x,-z
-y,-x,-z
-x,-y,-z
1/2+y,-x,1/2-z
1/2+x,1/2+y,-z
-y,1/2+x,1/2-z
1/2-x,y,1/2+z
x,1/2-y,1/2+z
1/2-y,1/2-x,z
y,x,z
loop_
_atom_site_type_symbol
_atom_site_label
_atom_site_fract_x
_atom_site_fract_y
_atom_site_fract_z
Si Si1 0.996400 0.272316 0.216148
Si Si2 0.523592 0.860671 0.913573
Si Si3 0.818500 0.937087 0.137643
Si Si4 0.656050 0.298538 0.760459
Si Si5 0.423371 0.535482 0.928177
Si Si6 0.560254 0.372025 0.197629
Si Si7 0.078762 0.537167 0.851139
Si Si8 0.825212 0.942294 0.568527
O O1 0.916452 0.297540 0.218813
O O2 0.996488 0.188705 0.207433
O O3 0.032768 0.302384 0.146409
O O4 0.041903 0.296261 0.283076
O O5 0.587212 0.912789 0.904878
O O6 0.450850 0.902357 0.902762
O O7 0.526229 0.822916 0.989378
O O8 0.872835 0.872835 0.140549
O O9 0.750669 0.915283 0.092465
O O10 0.849678 0.006395 0.100146
O O11 0.721313 0.324565 0.709252
O O12 0.653493 0.359824 0.820281
O O13 0.468209 0.468209 0.947448
O O14 0.462890 0.579162 0.866964
O O15 0.417437 0.582564 0.000000
O O16 0.566044 0.413995 0.271507
O O17 0.151376 0.506701 0.881118
O O18 0.025456 0.474545 0.849608
O O19 0.877237 0.877237 0.573546
#
# Coordination Sequence:
#
# PCOD8318876 Si02
#       8
#    16  16  16  16  16  16  16  16
#     4  11  20  33  56  85 109 148 192 232 285 336
#     4  10  20  35  56  83 114 142 181 237 294 346
#     4  11  22  39  60  83 115 153 198 242 285 347
#     4   9  18  31  48  75 109 146 183 223 268 333
#     4  10  22  38  55  80 111 147 188 236 287 333
#     4  11  19  32  55  82 111 146 190 230 275 339
#     4  10  18  33  55  81 110 138 175 230 287 341
#     4  10  22  38  57  84 113 147 187 234 295 354
#
# _framework density 18.484634
#
# number of rings (size 3 to 8) (size 9 to 14) (size 15 to 20)
#    0.000    1.750    3.750    1.125    1.750    3.750 
#    0.000    0.000    0.000    0.750    0.000    2.625 
#    0.000    0.000    0.000    0.000    0.000    0.000 
#
# Total GULP energy -1586029.453936 kJ/mol
# GULP energy per Si atom -12390.855109 kJ/mol
# Density = 1.844256 g / cm^3
# Si number density = 18.484634 Si / 1000 Ang^3
#
#
#
# Elastic Constant Matrix: (Units=GPa)
#
#
# Indices 1 2 3 4 5 6 
#
# 1 72.7908 18.1937 42.4945 0.0000 0.0000 0.0000
# 2 18.1937 72.7905 42.4943 0.0000 0.0000 0.0000
# 3 42.4945 42.4943 135.6095 0.0000 0.0000 0.0000
# 4 0.0000 0.0000 0.0000 24.5022 0.0000 0.0000
# 5 0.0000 0.0000 0.0000 0.0000 24.5023 0.0000
# 6 0.0000 0.0000 0.0000 0.0000 0.0000 13.6683
#
#
#
# Elastic Compliance Matrix: (Units=1/GPa)
#
#
# Indices 1 2 3 4 5 6 
#
# 1 0.016928 -0.001388 -0.004869 0.000000 0.000000 0.000000
# 2 -0.001388 0.016928 -0.004869 0.000000 0.000000 0.000000
# 3 -0.004869 -0.004869 0.010426 0.000000 0.000000 0.000000
# 4 0.000000 0.000000 0.000000 0.040813 0.000000 0.000000
# 5 0.000000 0.000000 0.000000 0.000000 0.040813 0.000000
# 6 0.000000 0.000000 0.000000 0.000000 0.000000 0.073162
#
#
# Mechanical properties :
#
#
# Convention : Reuss Voigt Hill
#
# Bulk Modulus (GPa) = 45.39866 54.17285 49.78575
# Shear Modulus (GPa) = 21.86605 24.40178 23.13391
#
# Velocity S-wave (km/s) = 3.44311 3.63728 3.54152
# Velocity P-wave (km/s) = 6.35769 6.85640 6.61175
#
# Compressibility (1/GPa) = 0.02202708
#
# Stress axis : x y z
#
# Youngs Moduli (GPa) = 59.07473 59.07452 95.91532
#
# Poissons Ratio (x) = 0.08201 0.46705
# Poissons Ratio (y) = 0.08201 0.46705
# Poissons Ratio (z) = 0.28766 0.28766
#
# Static dielectric constant tensor:
#      x y z
#    x 3.504800 0.000000 0.000000 
#    y 0.000000 3.504800 0.000000 
#    z 0.000000 0.000000 3.330800 
# 
# 
# High freq. dielectric constant tensor:
#      x y z
#    x 1.715100 0.000000 0.000000 
#    y 0.000000 1.715100 0.000000 
#    z 0.000000 0.000000 1.698800 
# 
# From -- ./inp_files/5495.got.cif
#   From: 2010.03.12/outbox.cif.g09.slc.cpg/sg138_3_cif.got.tgz:5495.got - 2010.04.08 09:41:05.
