data_PCOD8318486
_publ_section_title
;
Structure prediction by ZEFSAII (Michael W. Deem and Ramdas Pophale) SiO2 
 PCOD8318486
Probable space group: P 42/N M C
;
_chemical_formula_sum "Si O2"
_cell_formula_units_Z 42
_cell_length_a 7.935748
_cell_length_b 7.935748
_cell_length_c 32.186723
_cell_angle_alpha 90.000000
_cell_angle_beta 90.000000
_cell_angle_gamma 90.000000
_cell_volume 2026.994168
_symmetry_space_group_name_H-M "P 42/N M C"
_symmetry_group_IT_number 137
_space_group.IT_coordinate_system_code '2'
_symmetry_cell_setting 'tetragonal'
loop_
_space_group_symop_operation_xyz
x,y,z
1/2-y,x,1/2+z
1/2-x,1/2-y,z
y,1/2-x,1/2+z
1/2+x,-y,-z
-x,1/2+y,-z
1/2+y,1/2+x,1/2-z
-y,-x,1/2-z
-x,-y,-z
1/2+y,-x,1/2-z
1/2+x,1/2+y,-z
-y,1/2+x,1/2-z
1/2-x,y,z
x,1/2-y,z
1/2-y,1/2-x,1/2+z
y,x,1/2+z
loop_
_atom_site_type_symbol
_atom_site_label
_atom_site_fract_x
_atom_site_fract_y
_atom_site_fract_z
Si Si1 0.449504 0.933673 0.869840
Si Si2 0.551267 0.564797 0.044537
Si Si3 0.750000 0.952594 0.685661
Si Si4 0.250000 0.750000 0.250000
O O1 0.250000 0.937234 0.871434
O O2 0.512964 0.750000 0.853513
O O3 0.520485 0.956136 0.916876
O O4 0.507909 0.084094 0.839980
O O5 0.750000 0.568630 0.047281
O O6 0.475012 0.750000 0.050068
O O7 0.500000 0.500000 0.000000
O O8 0.750000 0.750000 0.696434
O O9 0.750000 0.072752 0.725473
#
# Coordination Sequence:
#
# PCOD8318486 Si02
#       4
#    16  16   8   2
#     4   9  17  34  61  85 113 160 206 245 311 377
#     4  10  19  32  50  78 117 159 206 257 300 353
#     4  10  22  44  66  90 126 160 198 258 316 382
#     4  12  28  44  68 104 124 156 212 260 332 384
#
# _framework density 20.720338000000002
#
# number of rings (size 3 to 8) (size 9 to 14) (size 15 to 20)
#    0.000    2.286    1.905    1.143    0.000    3.810 
#    3.429    0.000    0.000    0.000    0.000    0.000 
#    0.000    0.000    0.000    0.000    0.000    0.000 
#
# Total GULP energy -520302.446919 kJ/mol
# GULP energy per Si atom -12388.153498 kJ/mol
# Density = 2.067318 g / cm^3
# Si number density = 20.720338 Si / 1000 Ang^3
#
#
#
# Elastic Constant Matrix: (Units=GPa)
#
#
# Indices 1 2 3 4 5 6 
#
# 1 114.2324 29.0458 58.1078 0.0000 0.0000 0.0000
# 2 29.0458 114.2324 58.1078 0.0000 0.0000 0.0000
# 3 58.1078 58.1078 143.7228 0.0000 0.0000 0.0000
# 4 0.0000 0.0000 0.0000 35.2126 0.0000 0.0000
# 5 0.0000 0.0000 0.0000 0.0000 35.2126 0.0000
# 6 0.0000 0.0000 0.0000 0.0000 0.0000 13.4534
#
#
#
# Elastic Compliance Matrix: (Units=1/GPa)
#
#
# Indices 1 2 3 4 5 6 
#
# 1 0.011062 -0.000677 -0.004199 0.000000 0.000000 0.000000
# 2 -0.000677 0.011062 -0.004199 0.000000 0.000000 0.000000
# 3 -0.004199 -0.004199 0.010353 0.000000 0.000000 0.000000
# 4 0.000000 0.000000 0.000000 0.028399 0.000000 0.000000
# 5 0.000000 0.000000 0.000000 0.000000 0.028399 0.000000
# 6 0.000000 0.000000 0.000000 0.000000 0.000000 0.074330
#
#
# Mechanical properties :
#
#
# Convention : Reuss Voigt Hill
#
# Bulk Modulus (GPa) = 69.79235 73.63448 71.71342
# Shear Modulus (GPa) = 26.80530 31.90414 29.35472
#
# Velocity S-wave (km/s) = 3.60067 3.92822 3.76800
# Velocity P-wave (km/s) = 7.14441 7.49593 7.32228
#
# Compressibility (1/GPa) = 0.01432822
#
# Stress axis : x y z
#
# Youngs Moduli (GPa) = 90.39931 90.39931 96.59041
#
# Poissons Ratio (x) = 0.06119 0.40556
# Poissons Ratio (y) = 0.06119 0.40556
# Poissons Ratio (z) = 0.37956 0.37956
#
# Static dielectric constant tensor:
#      x y z
#    x 3.883030 0.000000 0.000000 
#    y 0.000000 3.883030 0.000000 
#    z 0.000000 0.000000 3.733510 
# 
# 
# High freq. dielectric constant tensor:
#      x y z
#    x 1.804490 0.000000 0.000000 
#    y 0.000000 1.804490 0.000000 
#    z 0.000000 0.000000 1.798940 
# 
# From -- ./inp_files/9318.got.cif
#   From: 2010.03.12/outbox.cif.g09.slc.cpg/sg137_5_cif.got.tgz:9318.got - 2010.04.08 09:34:49.
