data_PCOD8318312
_publ_section_title
;
Structure prediction by ZEFSAII (Michael W. Deem and Ramdas Pophale) SiO2 
 PCOD8318312
Probable space group: P 42/M N M
;
_chemical_formula_sum "Si O2"
_cell_formula_units_Z 96
_cell_length_a 23.485817
_cell_length_b 23.485817
_cell_length_c 8.631825
_cell_angle_alpha 90.000000
_cell_angle_beta 90.000000
_cell_angle_gamma 90.000000
_cell_volume 4761.173109
_symmetry_space_group_name_H-M "P 42/M N M"
_symmetry_group_IT_number 136
_symmetry_cell_setting 'tetragonal'
loop_
_space_group_symop_operation_xyz
x,y,z
1/2-y,1/2+x,1/2+z
-x,-y,z
1/2+y,1/2-x,1/2+z
1/2+x,1/2-y,1/2-z
1/2-x,1/2+y,1/2-z
y,x,-z
-y,-x,-z
-x,-y,-z
1/2+y,1/2-x,1/2-z
x,y,-z
1/2-y,1/2+x,1/2-z
1/2-x,1/2+y,1/2+z
1/2+x,1/2-y,1/2+z
-y,-x,z
y,x,z
loop_
_atom_site_type_symbol
_atom_site_label
_atom_site_fract_x
_atom_site_fract_y
_atom_site_fract_z
Si Si1 0.212774 0.985945 0.322179
Si Si2 0.592546 0.500344 0.320798
Si Si3 0.967547 0.579398 0.317995
Si Si4 0.933212 0.696959 0.821439
Si Si5 0.317227 0.774896 0.178636
Si Si6 0.725416 0.632054 0.676188
O O1 0.224983 0.000974 0.500000
O O2 0.148300 0.002938 0.283387
O O3 0.223192 0.919372 0.295611
O O4 0.256320 0.019512 0.214591
O O5 0.610259 0.504768 0.500000
O O6 0.556490 0.443511 0.290018
O O7 0.555514 0.555514 0.274016
O O8 0.969885 0.570579 0.500000
O O9 0.926197 0.531242 0.248366
O O10 0.942121 0.640842 0.280566
O O11 0.872305 0.724770 0.785880
O O12 0.937196 0.679639 0.000000
O O13 0.278328 0.721673 0.229218
O O14 0.283365 0.833516 0.203558
O O15 0.335400 0.768553 0.000000
O O16 0.722608 0.609237 0.500000
O O17 0.671779 0.671779 0.710330
#
# Coordination Sequence:
#
# PCOD8318312 Si02
#       6
#    16  16  16  16  16  16
#     4  12  25  38  56  87 124 159 200 251 301 357
#     4   9  19  38  63  88 117 157 203 250 304 367
#     4  11  23  43  68  95 126 161 203 252 308 368
#     4  12  26  42  62  89 123 166 209 255 306 361
#     4   9  20  41  66  90 119 156 198 248 306 364
#     4   9  19  38  64  90 119 157 197 241 299 361
#
# _framework density 20.163098000000002
#
# number of rings (size 3 to 8) (size 9 to 14) (size 15 to 20)
#    0.000    1.667    0.000    7.000    2.333    4.667 
#    0.000    2.500    0.000    0.000    0.000    0.000 
#    0.000    0.000    0.000    0.000    0.000    0.000 
#
# Total GULP energy -1190921.214768 kJ/mol
# GULP energy per Si atom -12405.429320 kJ/mol
# Density = 2.011721 g / cm^3
# Si number density = 20.163098 Si / 1000 Ang^3
#
#
#
# Elastic Constant Matrix: (Units=GPa)
#
#
# Indices 1 2 3 4 5 6 
#
# 1 154.8403 -30.6123 30.5344 0.0000 0.0000 0.0000
# 2 -30.6123 154.8403 30.5344 0.0000 0.0000 0.0000
# 3 30.5344 30.5344 108.0800 0.0000 0.0000 0.0000
# 4 0.0000 0.0000 0.0000 28.3293 0.0000 0.0000
# 5 0.0000 0.0000 0.0000 0.0000 28.3293 0.0000
# 6 0.0000 0.0000 0.0000 0.0000 0.0000 21.0987
#
#
#
# Elastic Compliance Matrix: (Units=1/GPa)
#
#
# Indices 1 2 3 4 5 6 
#
# 1 0.007370 0.001978 -0.002641 0.000000 0.000000 0.000000
# 2 0.001978 0.007370 -0.002641 0.000000 0.000000 0.000000
# 3 -0.002641 -0.002641 0.010745 0.000000 0.000000 0.000000
# 4 0.000000 0.000000 0.000000 0.035299 0.000000 0.000000
# 5 0.000000 0.000000 0.000000 0.000000 0.035299 0.000000
# 6 0.000000 0.000000 0.000000 0.000000 0.000000 0.047396
#
#
# Mechanical properties :
#
#
# Convention : Reuss Voigt Hill
#
# Bulk Modulus (GPa) = 52.97522 53.18595 53.08058
# Shear Modulus (GPa) = 31.97342 41.37171 36.67257
#
# Velocity S-wave (km/s) = 3.98645 4.53465 4.26936
# Velocity P-wave (km/s) = 6.89344 7.33843 7.11941
#
# Compressibility (1/GPa) = 0.01887675
#
# Stress axis : x y z
#
# Youngs Moduli (GPa) = 135.68343 135.68343 93.06967
#
# Poissons Ratio (x) = -0.26837 0.24579
# Poissons Ratio (y) = -0.26837 0.24579
# Poissons Ratio (z) = 0.35833 0.35833
#
# Static dielectric constant tensor:
#      x y z
#    x 3.643910 0.000000 0.000000 
#    y 0.000000 3.643910 0.000000 
#    z 0.000000 0.000000 3.532930 
# 
# 
# High freq. dielectric constant tensor:
#      x y z
#    x 1.793020 0.000000 0.000000 
#    y 0.000000 1.793020 0.000000 
#    z 0.000000 0.000000 1.783510 
# 
# From -- ./inp_files/2019.got.cif
#   From: 2010.03.12/outbox.cif.g09.slc.cpg/sg136_2_cif.got.tgz:2019.got - 2010.04.06 18:39:43.
