data_PCOD8318087
_publ_section_title
;
Structure prediction by ZEFSAII (Michael W. Deem and Ramdas Pophale) SiO2 
 PCOD8318087
Probable space group: P 42/M N M
;
_chemical_formula_sum "Si O2"
_cell_formula_units_Z 120
_cell_length_a 14.159504
_cell_length_b 14.159504
_cell_length_c 30.522261
_cell_angle_alpha 90.000000
_cell_angle_beta 90.000000
_cell_angle_gamma 90.000000
_cell_volume 6119.455525
_symmetry_space_group_name_H-M "P 42/M N M"
_symmetry_group_IT_number 136
_symmetry_cell_setting 'tetragonal'
loop_
_space_group_symop_operation_xyz
x,y,z
1/2-y,1/2+x,1/2+z
-x,-y,z
1/2+y,1/2-x,1/2+z
1/2+x,1/2-y,1/2-z
1/2-x,1/2+y,1/2-z
y,x,-z
-y,-x,-z
-x,-y,-z
1/2+y,1/2-x,1/2-z
x,y,-z
1/2-y,1/2+x,1/2-z
1/2-x,1/2+y,1/2+z
1/2+x,1/2-y,1/2+z
-y,-x,z
y,x,z
loop_
_atom_site_type_symbol
_atom_site_label
_atom_site_fract_x
_atom_site_fract_y
_atom_site_fract_z
Si Si1 0.607406 0.994996 0.449654
Si Si2 0.667713 0.813493 0.906458
Si Si3 0.782684 0.060425 0.331864
Si Si4 0.883967 0.733144 0.616975
Si Si5 0.024710 0.655535 0.751605
Si Si6 0.652171 0.495584 0.500000
Si Si7 0.183731 0.031551 0.905727
Si Si8 0.749723 0.602390 0.667514
O O1 0.607397 0.963646 0.500000
O O2 0.672750 0.922235 0.423657
O O3 0.500000 0.000000 0.431224
O O4 0.652151 0.098569 0.444601
O O5 0.721461 0.721461 0.925258
O O6 0.617139 0.791940 0.860867
O O7 0.739783 0.892939 0.891827
O O8 0.881686 0.118315 0.326237
O O9 0.733074 0.040489 0.285825
O O10 0.797400 0.961964 0.357939
O O11 0.803669 0.803669 0.598909
O O12 0.841565 0.657137 0.650333
O O13 0.107401 0.577470 0.751323
O O14 0.028155 0.714421 0.796647
O O15 0.570094 0.570094 0.500000
O O16 0.611016 0.388985 0.500000
O O17 0.710359 0.507193 0.545270
O O18 0.078270 0.078270 0.905292
O O19 0.191411 0.947149 0.871490
O O20 0.677888 0.677888 0.689165
#
# Coordination Sequence:
#
# PCOD8318087 Si02
#       8
#    16  16  16  16  16   8  16  16
#     4  10  21  36  58  87 119 157 200 251 302 357
#     4   9  19  34  56  83 111 147 189 242 298 347
#     4  10  20  39  62  86 115 151 199 250 302 363
#     4  10  22  41  61  85 120 161 201 249 306 359
#     4  11  22  37  61  90 118 152 194 242 301 368
#     4   9  18  32  50  74 109 154 196 230 275 350
#     4  10  20  35  56  83 117 156 196 239 292 358
#     4  11  22  38  58  83 117 153 193 245 296 352
#
# _framework density 19.609587999999999
#
# number of rings (size 3 to 8) (size 9 to 14) (size 15 to 20)
#    0.000    1.933    1.333    2.400    0.933    2.667 
#    1.200    1.333    0.000    1.600    0.000    3.733 
#    0.000    0.000    0.000    0.000    0.000    0.000 
#
# Total GULP energy -1487553.827935 kJ/mol
# GULP energy per Si atom -12396.281899 kJ/mol
# Density = 1.956496 g / cm^3
# Si number density = 19.609588 Si / 1000 Ang^3
#
#
#
# Elastic Constant Matrix: (Units=GPa)
#
#
# Indices 1 2 3 4 5 6 
#
# 1 79.5159 39.5870 41.5216 0.0000 0.0000 0.0000
# 2 39.5870 79.5160 41.5216 0.0000 0.0000 0.0000
# 3 41.5216 41.5216 110.0818 0.0000 0.0000 0.0000
# 4 0.0000 0.0000 0.0000 31.3008 0.0000 0.0000
# 5 0.0000 0.0000 0.0000 0.0000 31.3011 0.0000
# 6 0.0000 0.0000 0.0000 0.0000 0.0000 30.0260
#
#
#
# Elastic Compliance Matrix: (Units=1/GPa)
#
#
# Indices 1 2 3 4 5 6 
#
# 1 0.018218 -0.006826 -0.004297 0.000000 0.000000 0.000000
# 2 -0.006826 0.018218 -0.004297 0.000000 0.000000 0.000000
# 3 -0.004297 -0.004297 0.012326 0.000000 0.000000 0.000000
# 4 0.000000 0.000000 0.000000 0.031948 0.000000 0.000000
# 5 0.000000 0.000000 0.000000 0.000000 0.031948 0.000000
# 6 0.000000 0.000000 0.000000 0.000000 0.000000 0.033304
#
#
# Mechanical properties :
#
#
# Convention : Reuss Voigt Hill
#
# Bulk Modulus (GPa) = 55.79729 57.15269 56.47499
# Shear Modulus (GPa) = 27.35576 28.29114 27.82345
#
# Velocity S-wave (km/s) = 3.73905 3.80244 3.77088
# Velocity P-wave (km/s) = 6.86706 6.96323 6.91531
#
# Compressibility (1/GPa) = 0.01792202
#
# Stress axis : x y z
#
# Youngs Moduli (GPa) = 54.88986 54.88991 81.13128
#
# Poissons Ratio (x) = 0.37469 0.34862
# Poissons Ratio (y) = 0.37469 0.34862
# Poissons Ratio (z) = 0.23586 0.23586
#
# Static dielectric constant tensor:
#      x y z
#    x 3.626430 0.000000 0.000000 
#    y 0.000000 3.626430 0.000000 
#    z 0.000000 0.000000 3.495820 
# 
# 
# High freq. dielectric constant tensor:
#      x y z
#    x 1.764310 0.000000 0.000000 
#    y 0.000000 1.764310 0.000000 
#    z 0.000000 0.000000 1.759070 
# 
# From -- ./inp_files/10042.got.cif
#   From: 2010.03.12/outbox.cif.g09.slc.cpg/sg136_6_cif.got.tgz:10042.got - 2010.04.06 18:39:43.
