data_PCOD8318834
_publ_section_title
;
Structure prediction by ZEFSAII (Michael W. Deem and Ramdas Pophale) SiO2 
 PCOD8318834
Probable space group: P 42/N M C
;
_chemical_formula_sum "Si O2"
_cell_formula_units_Z 72
_cell_length_a 15.000000
_cell_length_b 15.000000
_cell_length_c 18.000000
_cell_angle_alpha 90.000000
_cell_angle_beta 90.000000
_cell_angle_gamma 90.000000
_cell_volume 4050.000000
_symmetry_space_group_name_H-M "P 42/N M C"
_symmetry_group_IT_number 137
_space_group.IT_coordinate_system_code '2'
_symmetry_cell_setting 'tetragonal'
loop_
_space_group_symop_operation_xyz
x,y,z
1/2-y,x,1/2+z
1/2-x,1/2-y,z
y,1/2-x,1/2+z
1/2+x,-y,-z
-x,1/2+y,-z
1/2+y,1/2+x,1/2-z
-y,-x,1/2-z
-x,-y,-z
1/2+y,-x,1/2-z
1/2+x,1/2+y,-z
-y,1/2+x,1/2-z
1/2-x,y,z
x,1/2-y,z
1/2-y,1/2-x,1/2+z
y,x,1/2+z
loop_
_atom_site_type_symbol
_atom_site_label
_atom_site_fract_x
_atom_site_fract_y
_atom_site_fract_z
Si Si1 0.087546 0.250000 0.264290
Si Si2 0.644905 0.616056 0.859517
Si Si3 0.750000 0.750000 0.115286
Si Si4 0.596889 0.250000 0.942521
Si Si5 0.589633 0.355327 0.668055
Si Si6 0.750000 0.599368 0.488457
Si Si7 0.250000 0.750000 0.567189
Si Si8 0.750000 0.375745 0.206493
O O1 0.100541 0.337419 0.212709
O O2 0.160107 0.250000 0.332500
O O3 0.984470 0.250000 0.294740
O O4 0.750000 0.630650 0.852367
O O5 0.620402 0.510673 0.859853
O O6 0.612827 0.662083 0.936620
O O7 0.835209 0.750000 0.060086
O O8 0.607763 0.338280 0.891207
O O9 0.499385 0.250000 0.978320
O O10 0.664769 0.250000 0.012282
O O11 0.603344 0.396656 0.750000
O O12 0.602919 0.250000 0.674165
O O13 0.162148 0.750000 0.621140
O O14 0.837556 0.337556 0.250000
#
# Coordination Sequence:
#
# PCOD8318834 Si02
#       8
#     8  16   4   8  16   8   4   8
#     4  11  22  40  67  91 127 165 210 269 310 371
#     4  10  22  44  65  89 125 172 209 254 321 377
#     4  12  24  40  62  96 128 164 216 258 310 374
#     4  12  25  41  67  94 130 170 203 263 317 368
#     4  11  23  40  66  94 127 166 213 258 310 374
#     4  11  25  43  64  89 133 166 207 261 316 370
#     4  10  23  44  59  90 124 168 212 244 319 384
#     4   9  23  43  64  91 122 163 216 262 311 375
#
# _framework density 17.777778000000001
#
# number of rings (size 3 to 8) (size 9 to 14) (size 15 to 20)
#    0.000    1.444    4.444    0.667    9.333    3.556 
#    0.000    0.000    0.000    0.000    0.000    0.000 
#    0.000    0.000    0.000    0.000    0.000    0.000 
#
# Total GULP energy -892408.055047 kJ/mol
# GULP energy per Si atom -12394.556320 kJ/mol
# Density = 1.773731 g / cm^3
# Si number density = 17.777778 Si / 1000 Ang^3
#
#
#
# Elastic Constant Matrix: (Units=GPa)
#
#
# Indices 1 2 3 4 5 6 
#
# 1 172.3100 49.4219 72.3725 0.0000 0.0000 0.0000
# 2 49.4219 172.3094 72.3720 0.0000 0.0000 0.0000
# 3 72.3725 72.3720 174.4133 0.0000 0.0000 0.0000
# 4 0.0000 0.0000 0.0000 43.3361 0.0000 0.0000
# 5 0.0000 0.0000 0.0000 0.0000 43.3361 0.0000
# 6 0.0000 0.0000 0.0000 0.0000 0.0000 29.0433
#
#
#
# Elastic Compliance Matrix: (Units=1/GPa)
#
#
# Indices 1 2 3 4 5 6 
#
# 1 0.007161 -0.000976 -0.002567 0.000000 0.000000 0.000000
# 2 -0.000976 0.007161 -0.002567 0.000000 0.000000 0.000000
# 3 -0.002567 -0.002567 0.007864 0.000000 0.000000 0.000000
# 4 0.000000 0.000000 0.000000 0.023075 0.000000 0.000000
# 5 0.000000 0.000000 0.000000 0.000000 0.023075 0.000000
# 6 0.000000 0.000000 0.000000 0.000000 0.000000 0.034431
#
#
# Mechanical properties :
#
#
# Convention : Reuss Voigt Hill
#
# Bulk Modulus (GPa) = 100.32210 100.81838 100.57024
# Shear Modulus (GPa) = 42.26187 44.80085 43.53136
#
# Velocity S-wave (km/s) = 4.88097 5.02545 4.95374
# Velocity P-wave (km/s) = 9.39781 9.51352 9.45584
#
# Compressibility (1/GPa) = 0.00996789
#
# Stress axis : x y z
#
# Youngs Moduli (GPa) = 139.63629 139.63613 127.16933
#
# Poissons Ratio (x) = 0.13629 0.32640
# Poissons Ratio (y) = 0.13629 0.32639
# Poissons Ratio (z) = 0.35840 0.35839
#
# Static dielectric constant tensor:
#      x y z
#    x 3.644190 0.000000 0.000000 
#    y 0.000000 3.644180 0.000000 
#    z 0.000000 0.000000 3.799020 
# 
# 
# High freq. dielectric constant tensor:
#      x y z
#    x 1.711600 0.000000 0.000000 
#    y 0.000000 1.711600 0.000000 
#    z 0.000000 0.000000 1.725970 
# 
# From -- ./inp_files/6316.got.cif
#   From: 2010.03.12/outbox.ucp.g09.slc.cvg/sg137_4_cif.got.tgz:6316.got - 2010.05.04 20:30:35.
