data_PCOD8318882
_publ_section_title
;
Structure prediction by ZEFSAII (Michael W. Deem and Ramdas Pophale) SiO2 
 PCOD8318882
Probable space group: P 42/N C M
;
_chemical_formula_sum "Si O2"
_cell_formula_units_Z 128
_cell_length_a 21.863777
_cell_length_b 21.863777
_cell_length_c 12.923574
_cell_angle_alpha 90.000000
_cell_angle_beta 90.000000
_cell_angle_gamma 90.000000
_cell_volume 6177.788162
_symmetry_space_group_name_H-M "P 42/N C M"
_symmetry_group_IT_number 138
_space_group.IT_coordinate_system_code '2'
_symmetry_cell_setting 'tetragonal'
loop_
_space_group_symop_operation_xyz
x,y,z
1/2-y,x,1/2+z
1/2-x,1/2-y,z
y,1/2-x,1/2+z
1/2+x,-y,1/2-z
-x,1/2+y,1/2-z
1/2+y,1/2+x,-z
-y,-x,-z
-x,-y,-z
1/2+y,-x,1/2-z
1/2+x,1/2+y,-z
-y,1/2+x,1/2-z
1/2-x,y,1/2+z
x,1/2-y,1/2+z
1/2-y,1/2-x,z
y,x,z
loop_
_atom_site_type_symbol
_atom_site_label
_atom_site_fract_x
_atom_site_fract_y
_atom_site_fract_z
Si Si1 0.111284 0.484711 0.026585
Si Si2 0.853809 0.311151 0.607812
Si Si3 0.308998 0.613654 0.717056
Si Si4 0.518947 0.772132 0.716666
Si Si5 0.436165 0.585989 0.656301
Si Si6 0.150944 0.985656 0.168945
Si Si7 0.677122 0.577723 0.009482
Si Si8 0.395133 0.293950 0.605766
O O1 0.064824 0.435177 0.981504
O O2 0.080186 0.515912 0.127940
O O3 0.175175 0.452988 0.049694
O O4 0.122405 0.533596 0.938279
O O5 0.820562 0.320562 0.500000
O O6 0.804991 0.344023 0.682484
O O7 0.863417 0.240145 0.634455
O O8 0.921525 0.339540 0.610769
O O9 0.307970 0.541422 0.746268
O O10 0.375321 0.626144 0.669342
O O11 0.503063 0.701582 0.743228
O O12 0.535654 0.792101 0.599000
O O13 0.582118 0.786976 0.776866
O O14 0.477974 0.589394 0.760794
O O15 0.145546 0.035651 0.078713
O O16 0.625320 0.625320 0.050692
O O17 0.730390 0.616992 0.953152
O O18 0.333627 0.333627 0.602443
#
# Coordination Sequence:
#
# PCOD8318882 Si02
#       8
#    16  16  16  16  16  16  16  16
#     4  10  20  34  58  88 117 148 194 253 299 352
#     4  10  21  41  60  84 118 158 202 256 298 350
#     4  10  21  38  60  86 116 157 205 243 298 364
#     4  10  19  39  61  86 113 159 204 241 292 368
#     4  10  18  35  56  88 119 148 196 246 298 357
#     4   9  21  37  61  86 118 159 198 249 300 367
#     4  11  23  38  61  92 122 153 200 251 309 375
#     4  10  21  39  61  84 117 156 195 242 300 362
#
# _framework density 20.719387999999999
#
# number of rings (size 3 to 8) (size 9 to 14) (size 15 to 20)
#    0.000    2.000    1.250    2.625    0.000    1.500 
#   13.500    4.375    0.000    6.375    0.000    0.000 
#    0.000    0.000    0.000    0.000    0.000    0.000 
#
# Total GULP energy -1585688.491488 kJ/mol
# GULP energy per Si atom -12388.191340 kJ/mol
# Density = 2.067223 g / cm^3
# Si number density = 20.719388 Si / 1000 Ang^3
#
#
#
# Elastic Constant Matrix: (Units=GPa)
#
#
# Indices 1 2 3 4 5 6 
#
# 1 71.0817 24.7322 40.9210 0.0000 0.0000 0.0000
# 2 24.7322 71.0817 40.9210 0.0000 0.0000 0.0000
# 3 40.9210 40.9210 119.7109 0.0000 0.0000 0.0000
# 4 0.0000 0.0000 0.0000 28.0100 0.0000 0.0000
# 5 0.0000 0.0000 0.0000 0.0000 28.0100 0.0000
# 6 0.0000 0.0000 0.0000 0.0000 0.0000 22.3806
#
#
#
# Elastic Compliance Matrix: (Units=1/GPa)
#
#
# Indices 1 2 3 4 5 6 
#
# 1 0.018158 -0.003417 -0.005039 0.000000 0.000000 0.000000
# 2 -0.003417 0.018158 -0.005039 0.000000 0.000000 0.000000
# 3 -0.005039 -0.005039 0.011798 0.000000 0.000000 0.000000
# 4 0.000000 0.000000 0.000000 0.035702 0.000000 0.000000
# 5 0.000000 0.000000 0.000000 0.000000 0.035702 0.000000
# 6 0.000000 0.000000 0.000000 0.000000 0.000000 0.044681
#
#
# Mechanical properties :
#
#
# Convention : Reuss Voigt Hill
#
# Bulk Modulus (GPa) = 47.33800 52.78031 50.05915
# Shear Modulus (GPa) = 25.22311 26.03345 25.62828
#
# Velocity S-wave (km/s) = 3.49286 3.54853 3.52081
# Velocity P-wave (km/s) = 6.25808 6.50527 6.38287
#
# Compressibility (1/GPa) = 0.02112468
#
# Stress axis : x y z
#
# Youngs Moduli (GPa) = 55.07171 55.07171 84.75710
#
# Poissons Ratio (x) = 0.18818 0.42709
# Poissons Ratio (y) = 0.18818 0.42709
# Poissons Ratio (z) = 0.27750 0.27750
#
# Static dielectric constant tensor:
#      x y z
#    x 3.667090 0.000000 0.000000 
#    y 0.000000 3.667090 0.000000 
#    z 0.000000 0.000000 3.736920 
# 
# 
# High freq. dielectric constant tensor:
#      x y z
#    x 1.803620 0.000000 0.000000 
#    y 0.000000 1.803620 0.000000 
#    z 0.000000 0.000000 1.808040 
# 
# From -- ./inp_files/3358.got.cif
#   From: 2010.03.12/outbox.cif.g09.slc.cpg/sg138_2_cif.got.tgz:3358.got - 2010.04.08 09:41:05.
