data_PCOD8318614
_publ_section_title
;
Structure prediction by ZEFSAII (Michael W. Deem and Ramdas Pophale) SiO2 
 PCOD8318614
Probable space group: P 42/N M C
;
_chemical_formula_sum "Si O2"
_cell_formula_units_Z 80
_cell_length_a 18.626951
_cell_length_b 18.626951
_cell_length_c 12.317859
_cell_angle_alpha 90.000000
_cell_angle_beta 90.000000
_cell_angle_gamma 90.000000
_cell_volume 4273.845051
_symmetry_space_group_name_H-M "P 42/N M C"
_symmetry_group_IT_number 137
_space_group.IT_coordinate_system_code '2'
_symmetry_cell_setting 'tetragonal'
loop_
_space_group_symop_operation_xyz
x,y,z
1/2-y,x,1/2+z
1/2-x,1/2-y,z
y,1/2-x,1/2+z
1/2+x,-y,-z
-x,1/2+y,-z
1/2+y,1/2+x,1/2-z
-y,-x,1/2-z
-x,-y,-z
1/2+y,-x,1/2-z
1/2+x,1/2+y,-z
-y,1/2+x,1/2-z
1/2-x,y,z
x,1/2-y,z
1/2-y,1/2-x,1/2+z
y,x,1/2+z
loop_
_atom_site_type_symbol
_atom_site_label
_atom_site_fract_x
_atom_site_fract_y
_atom_site_fract_z
Si Si1 0.665277 0.025127 0.072914
Si Si2 0.669979 0.437838 0.696457
Si Si3 0.167646 0.060518 0.140762
Si Si4 0.668624 0.418475 0.449499
Si Si5 0.450209 0.331921 0.210695
O O1 0.750000 0.031381 0.079803
O O2 0.636163 0.977424 0.173746
O O3 0.638746 0.107400 0.080067
O O4 0.640649 0.986246 0.962135
O O5 0.619675 0.380326 0.750000
O O6 0.750000 0.409607 0.718915
O O7 0.658652 0.514779 0.750407
O O8 0.654556 0.447235 0.570056
O O9 0.250000 0.085380 0.122950
O O10 0.118362 0.129188 0.159416
O O11 0.750000 0.385887 0.438124
O O12 0.659422 0.485412 0.372136
O O13 0.426389 0.250000 0.225867
#
# Coordination Sequence:
#
# PCOD8318614 Si02
#       5
#    16  16  16  16  16
#     4  10  21  39  59  85 118 150 191 237 279 336
#     4  10  20  35  55  82 115 149 186 231 279 334
#     4  10  22  39  59  81 110 148 189 237 290 342
#     4  10  21  37  58  85 119 154 188 230 280 337
#     4  10  23  40  58  83 114 147 191 243 287 337
#
# _framework density 18.718506999999999
#
# number of rings (size 3 to 8) (size 9 to 14) (size 15 to 20)
#    0.000    2.000    2.000    0.600    2.800    3.400 
#    0.000    2.000    0.000    7.200    0.000    0.000 
#    0.000    0.000    0.000    0.000    0.000    0.000 
#
# Total GULP energy -991860.796197 kJ/mol
# GULP energy per Si atom -12398.259952 kJ/mol
# Density = 1.867590 g / cm^3
# Si number density = 18.718507 Si / 1000 Ang^3
#
#
#
# Elastic Constant Matrix: (Units=GPa)
#
#
# Indices 1 2 3 4 5 6 
#
# 1 79.3150 64.0088 38.9990 0.0000 0.0000 0.0000
# 2 64.0088 79.3245 39.0003 0.0000 0.0000 0.0000
# 3 38.9990 39.0003 107.3702 0.0000 0.0000 0.0000
# 4 0.0000 0.0000 0.0000 28.2871 0.0000 0.0000
# 5 0.0000 0.0000 0.0000 0.0000 28.2860 0.0000
# 6 0.0000 0.0000 0.0000 0.0000 0.0000 41.8094
#
#
#
# Elastic Compliance Matrix: (Units=1/GPa)
#
#
# Indices 1 2 3 4 5 6 
#
# 1 0.037007 -0.028308 -0.003159 0.000000 0.000000 0.000000
# 2 -0.028308 0.037002 -0.003158 0.000000 0.000000 0.000000
# 3 -0.003159 -0.003158 0.011608 0.000000 0.000000 0.000000
# 4 0.000000 0.000000 0.000000 0.035352 0.000000 0.000000
# 5 0.000000 0.000000 0.000000 0.000000 0.035353 0.000000
# 6 0.000000 0.000000 0.000000 0.000000 0.000000 0.023918
#
#
# Mechanical properties :
#
#
# Convention : Reuss Voigt Hill
#
# Bulk Modulus (GPa) = 61.10382 61.11399 61.10890
# Shear Modulus (GPa) = 19.61199 27.94328 23.77764
#
# Velocity S-wave (km/s) = 3.24038 3.86789 3.56796
# Velocity P-wave (km/s) = 6.83480 7.25722 7.04918
#
# Compressibility (1/GPa) = 0.01636559
#
# Stress axis : x y z
#
# Youngs Moduli (GPa) = 27.02210 27.02565 86.14656
#
# Poissons Ratio (x) = 0.76505 0.27214
# Poissons Ratio (y) = 0.76495 0.27206
# Poissons Ratio (z) = 0.08536 0.08535
#
# Static dielectric constant tensor:
#      x y z
#    x 3.356790 0.000000 0.000000 
#    y 0.000000 3.356800 0.000000 
#    z 0.000000 0.000000 4.261540 
# 
# 
# High freq. dielectric constant tensor:
#      x y z
#    x 1.718120 0.000000 0.000000 
#    y 0.000000 1.718120 0.000000 
#    z 0.000000 0.000000 1.749420 
# 
# From -- ./inp_files/4945.got.cif
#   From: 2010.03.12/outbox.cif.g09.slc.cpg/sg137_3_cif.got.tgz:4945.got - 2010.04.08 09:34:49.
