data_PCOD8318113
_publ_section_title
;
Structure prediction by ZEFSAII (Michael W. Deem and Ramdas Pophale) SiO2 
 PCOD8318113
Probable space group: P 42/M N M
;
_chemical_formula_sum "Si O2"
_cell_formula_units_Z 60
_cell_length_a 15.452156
_cell_length_b 15.452156
_cell_length_c 13.525865
_cell_angle_alpha 90.000000
_cell_angle_beta 90.000000
_cell_angle_gamma 90.000000
_cell_volume 3229.558952
_symmetry_space_group_name_H-M "P 42/M N M"
_symmetry_group_IT_number 136
_symmetry_cell_setting 'tetragonal'
loop_
_space_group_symop_operation_xyz
x,y,z
1/2-y,1/2+x,1/2+z
-x,-y,z
1/2+y,1/2-x,1/2+z
1/2+x,1/2-y,1/2-z
1/2-x,1/2+y,1/2-z
y,x,-z
-y,-x,-z
-x,-y,-z
1/2+y,1/2-x,1/2-z
x,y,-z
1/2-y,1/2+x,1/2-z
1/2-x,1/2+y,1/2+z
1/2+x,1/2-y,1/2+z
-y,-x,z
y,x,z
loop_
_atom_site_type_symbol
_atom_site_label
_atom_site_fract_x
_atom_site_fract_y
_atom_site_fract_z
Si Si1 0.427889 0.572112 0.800820
Si Si2 0.374872 0.978889 0.706281
Si Si3 0.643942 0.356059 0.000000
Si Si4 0.694632 0.555333 0.289320
Si Si5 0.573805 0.160024 0.000000
Si Si6 0.603254 0.739548 0.500000
O O1 0.500000 0.500000 0.811937
O O2 0.399519 0.600482 0.907366
O O3 0.463880 0.654150 0.741523
O O4 0.403290 0.052655 0.786102
O O5 0.362350 0.016201 0.595865
O O6 0.286749 0.933066 0.738078
O O7 0.744628 0.383315 0.000000
O O8 0.635629 0.635629 0.253423
O O9 0.702760 0.552231 0.406697
O O10 0.656888 0.098140 0.000000
O O11 0.702351 0.702351 0.500000
#
# Coordination Sequence:
#
# PCOD8318113 Si02
#       6
#     8  16   4  16   8   8
#     4  10  21  37  60  93 125 160 196 252 308 362
#     4  11  24  40  61  90 123 161 202 254 304 363
#     4  12  21  34  64  90 120 157 210 248 298 380
#     4  10  21  39  61  91 126 158 201 253 306 358
#     4  12  22  37  63  94 115 164 210 247 304 368
#     4  10  20  36  62  89 118 162 207 247 289 364
#
# _framework density 18.578389000000001
#
# number of rings (size 3 to 8) (size 9 to 14) (size 15 to 20)
#    0.000    1.333    6.000    0.200    0.000    3.733 
#    2.400    3.333    0.000    0.000    0.000    0.000 
#    0.000    0.000    0.000    0.000    0.000    0.000 
#
# Total GULP energy -743776.251328 kJ/mol
# GULP energy per Si atom -12396.270855 kJ/mol
# Density = 1.853610 g / cm^3
# Si number density = 18.578389 Si / 1000 Ang^3
#
#
#
# Elastic Constant Matrix: (Units=GPa)
#
#
# Indices 1 2 3 4 5 6 
#
# 1 59.1204 10.7241 29.3793 0.0000 0.0000 0.0000
# 2 10.7241 59.1203 29.3794 0.0000 0.0000 0.0000
# 3 29.3793 29.3794 132.3304 0.0000 0.0000 0.0000
# 4 0.0000 0.0000 0.0000 28.9533 0.0000 0.0000
# 5 0.0000 0.0000 0.0000 0.0000 28.9563 0.0000
# 6 0.0000 0.0000 0.0000 0.0000 0.0000 2.8084
#
#
#
# Elastic Compliance Matrix: (Units=1/GPa)
#
#
# Indices 1 2 3 4 5 6 
#
# 1 0.019134 -0.001528 -0.003909 0.000000 0.000000 0.000000
# 2 -0.001528 0.019134 -0.003909 0.000000 0.000000 0.000000
# 3 -0.003909 -0.003909 0.009292 0.000000 0.000000 0.000000
# 4 0.000000 0.000000 0.000000 0.034538 0.000000 0.000000
# 5 0.000000 0.000000 0.000000 0.000000 0.034535 0.000000
# 6 0.000000 0.000000 0.000000 0.000000 0.000000 0.356076
#
#
# Mechanical properties :
#
#
# Convention : Reuss Voigt Hill
#
# Bulk Modulus (GPa) = 34.63904 43.28184 38.96044
# Shear Modulus (GPa) = 9.97953 24.21615 17.09784
#
# Velocity S-wave (km/s) = 2.32018 3.61426 3.03695
# Velocity P-wave (km/s) = 5.08556 6.38472 5.77181
#
# Compressibility (1/GPa) = 0.02886916
#
# Stress axis : x y z
#
# Youngs Moduli (GPa) = 52.26215 52.26198 107.61420
#
# Poissons Ratio (x) = 0.07988 0.42064
# Poissons Ratio (y) = 0.07988 0.42064
# Poissons Ratio (z) = 0.20428 0.20428
#
# Static dielectric constant tensor:
#      x y z
#    x 3.550050 0.000000 0.000000 
#    y 0.000000 3.550070 0.000000 
#    z 0.000000 0.000000 3.432830 
# 
# 
# High freq. dielectric constant tensor:
#      x y z
#    x 1.723170 0.000000 0.000000 
#    y 0.000000 1.723170 0.000000 
#    z 0.000000 0.000000 1.723940 
# 
# From -- ./inp_files/3380.got.cif
#   From: 2010.03.12/outbox.cif.g09.slc.cpg/sg136_2_cif.got.tgz:3380.got - 2010.04.06 18:39:43.
