data_PCOD8318313
_publ_section_title
;
Structure prediction by ZEFSAII (Michael W. Deem and Ramdas Pophale) SiO2 
 PCOD8318313
Probable space group: P 42/M N M
;
_chemical_formula_sum "Si O2"
_cell_formula_units_Z 36
_cell_length_a 11.401161
_cell_length_b 11.401161
_cell_length_c 13.798963
_cell_angle_alpha 90.000000
_cell_angle_beta 90.000000
_cell_angle_gamma 90.000000
_cell_volume 1793.678520
_symmetry_space_group_name_H-M "P 42/M N M"
_symmetry_group_IT_number 136
_symmetry_cell_setting 'tetragonal'
loop_
_space_group_symop_operation_xyz
x,y,z
1/2-y,1/2+x,1/2+z
-x,-y,z
1/2+y,1/2-x,1/2+z
1/2+x,1/2-y,1/2-z
1/2-x,1/2+y,1/2-z
y,x,-z
-y,-x,-z
-x,-y,-z
1/2+y,1/2-x,1/2-z
x,y,-z
1/2-y,1/2+x,1/2-z
1/2-x,1/2+y,1/2+z
1/2+x,1/2-y,1/2+z
-y,-x,z
y,x,z
loop_
_atom_site_type_symbol
_atom_site_label
_atom_site_fract_x
_atom_site_fract_y
_atom_site_fract_z
Si Si1 0.093900 0.906101 0.683898
Si Si2 0.790378 0.209623 0.500000
Si Si3 0.820353 0.523566 0.712523
Si Si4 0.519938 0.138251 0.500000
O O1 0.152827 0.847174 0.593012
O O2 0.189428 0.972619 0.748540
O O3 0.000000 0.000000 0.647106
O O4 0.653475 0.181008 0.500000
O O5 0.874851 0.396822 0.737048
O O6 0.813836 0.542792 0.596689
O O7 0.500000 0.000000 0.500000
#
# Coordination Sequence:
#
# PCOD8318313 Si02
#       4
#     8   4  16   8
#     4  12  27  41  68 103 135 170 221 283 330 399
#     4  12  23  44  72  95 134 172 230 273 342 396
#     4  11  23  44  70  94 133 175 223 272 337 395
#     4  12  22  42  71  97 127 180 226 274 337 404
#
# _framework density 20.070485000000001
#
# number of rings (size 3 to 8) (size 9 to 14) (size 15 to 20)
#    0.000    0.444    8.889    0.333    6.222    0.889 
#    0.000    1.111    0.000    0.000    0.000    0.000 
#    0.000    0.000    0.000    0.000    0.000    0.000 
#
# Total GULP energy -446510.495498 kJ/mol
# GULP energy per Si atom -12403.069319 kJ/mol
# Density = 2.002480 g / cm^3
# Si number density = 20.070485 Si / 1000 Ang^3
#
#
#
# Elastic Constant Matrix: (Units=GPa)
#
#
# Indices 1 2 3 4 5 6 
#
# 1 76.9417 18.7563 -0.4446 0.0000 0.0000 0.0000
# 2 18.7563 76.9424 -0.4448 0.0000 0.0000 0.0000
# 3 -0.4446 -0.4448 146.4137 0.0000 0.0000 0.0000
# 4 0.0000 0.0000 0.0000 -8.1172 0.0000 0.0000
# 5 0.0000 0.0000 0.0000 0.0000 -8.1389 0.0000
# 6 0.0000 0.0000 0.0000 0.0000 0.0000 28.0672
#
#
#
# Elastic Compliance Matrix: (Units=1/GPa)
#
#
# Indices 1 2 3 4 5 6 
#
# 1 0.013818 -0.003368 0.000032 0.000000 0.000000 0.000000
# 2 -0.003368 0.013818 0.000032 0.000000 0.000000 0.000000
# 3 0.000032 0.000032 0.006830 0.000000 0.000000 0.000000
# 4 0.000000 0.000000 0.000000 -0.123196 0.000000 0.000000
# 5 0.000000 0.000000 0.000000 0.000000 -0.122867 0.000000
# 6 0.000000 0.000000 0.000000 0.000000 0.000000 0.035629
#
#
# Mechanical properties :
#
#
# Convention : Reuss Voigt Hill
#
# Bulk Modulus (GPa) = 35.89800 37.33683 36.61742
# Shear Modulus (GPa) = -31.23595 21.19095 -5.02250
#
# Velocity S-wave (km/s) = -3.94929 3.25287 -1.58362
# Velocity P-wave (km/s) = 1.69443 5.72289 3.86526
#
# Compressibility (1/GPa) = 0.02785671
#
# Stress axis : x y z
#
# Youngs Moduli (GPa) = 72.36865 72.36936 146.40953
#
# Poissons Ratio (x) = 0.24376 -0.00465
# Poissons Ratio (y) = 0.24376 -0.00465
# Poissons Ratio (z) = -0.00230 -0.00230
#
# Static dielectric constant tensor:
#      x y z
#    x 3.609810 0.000000 0.000000 
#    y 0.000000 3.609800 0.000000 
#    z 0.000000 0.000000 4.271070 
# 
# 
# High freq. dielectric constant tensor:
#      x y z
#    x 1.776490 0.000000 0.000000 
#    y 0.000000 1.776490 0.000000 
#    z 0.000000 0.000000 1.808700 
# 
# From -- ./inp_files/2663.got.cif
#   From: 2010.03.12/outbox.cif.g09.slc.cpg/sg136_2_cif.got.tgz:2663.got - 2010.04.06 18:39:43.
