data_PCOD8318175
_publ_section_title
;
Structure prediction by ZEFSAII (Michael W. Deem and Ramdas Pophale) SiO2 
 PCOD8318175
Probable space group: P 42/M N M
;
_chemical_formula_sum "Si O2"
_cell_formula_units_Z 56
_cell_length_a 14.066388
_cell_length_b 14.066388
_cell_length_c 15.662835
_cell_angle_alpha 90.000000
_cell_angle_beta 90.000000
_cell_angle_gamma 90.000000
_cell_volume 3099.099772
_symmetry_space_group_name_H-M "P 42/M N M"
_symmetry_group_IT_number 136
_symmetry_cell_setting 'tetragonal'
loop_
_space_group_symop_operation_xyz
x,y,z
1/2-y,1/2+x,1/2+z
-x,-y,z
1/2+y,1/2-x,1/2+z
1/2+x,1/2-y,1/2-z
1/2-x,1/2+y,1/2-z
y,x,-z
-y,-x,-z
-x,-y,-z
1/2+y,1/2-x,1/2-z
x,y,-z
1/2-y,1/2+x,1/2-z
1/2-x,1/2+y,1/2+z
1/2+x,1/2-y,1/2+z
-y,-x,z
y,x,z
loop_
_atom_site_type_symbol
_atom_site_label
_atom_site_fract_x
_atom_site_fract_y
_atom_site_fract_z
Si Si1 0.021894 0.716541 0.837791
Si Si2 0.687913 0.163453 0.500000
Si Si3 0.308356 0.845650 0.316456
Si Si4 0.019735 0.612279 0.000000
Si Si5 0.920940 0.079061 0.099141
O O1 0.068512 0.685528 0.748901
O O2 0.068282 0.647312 0.911706
O O3 0.044252 0.825222 0.856552
O O4 0.909774 0.704773 0.825969
O O5 0.729502 0.270499 0.500000
O O6 0.720269 0.112210 0.411304
O O7 0.575605 0.174743 0.500000
O O8 0.231801 0.768200 0.284930
O O9 0.000000 0.500000 0.000000
O O10 0.901814 0.098187 0.000000
O O11 0.000000 0.000000 0.114409
#
# Coordination Sequence:
#
# PCOD8318175 Si02
#       5
#    16   8  16   8   8
#     4  11  22  37  57  86 117 153 196 240 298 356
#     4   8  18  36  53  72 103 151 193 231 269 345
#     4  10  21  36  56  81 113 148 193 236 288 349
#     4  10  22  35  54  84 119 151 191 239 300 356
#     4  11  22  40  64  89 119 156 193 255 313 355
#
# _framework density 18.069763999999999
#
# number of rings (size 3 to 8) (size 9 to 14) (size 15 to 20)
#    0.000    1.857    2.857    0.857    8.000    1.143 
#    0.000    0.000    0.000    0.000    0.000    4.000 
#    0.000    0.000    0.000    0.143    0.000    0.000 
#
# Total GULP energy -693811.673939 kJ/mol
# GULP energy per Si atom -12389.494177 kJ/mol
# Density = 1.802864 g / cm^3
# Si number density = 18.069764 Si / 1000 Ang^3
#
#
#
# Elastic Constant Matrix: (Units=GPa)
#
#
# Indices 1 2 3 4 5 6 
#
# 1 65.6948 23.3542 41.8230 0.0000 0.0000 0.0000
# 2 23.3542 65.6951 41.8221 0.0000 0.0000 0.0000
# 3 41.8230 41.8221 154.6125 0.0000 0.0000 0.0000
# 4 0.0000 0.0000 0.0000 28.5697 0.0000 0.0000
# 5 0.0000 0.0000 0.0000 0.0000 28.5699 0.0000
# 6 0.0000 0.0000 0.0000 0.0000 0.0000 25.0185
#
#
#
# Elastic Compliance Matrix: (Units=1/GPa)
#
#
# Indices 1 2 3 4 5 6 
#
# 1 0.019337 -0.004281 -0.004072 0.000000 0.000000 0.000000
# 2 -0.004281 0.019336 -0.004072 0.000000 0.000000 0.000000
# 3 -0.004072 -0.004072 0.008671 0.000000 0.000000 0.000000
# 4 0.000000 0.000000 0.000000 0.035002 0.000000 0.000000
# 5 0.000000 0.000000 0.000000 0.000000 0.035002 0.000000
# 6 0.000000 0.000000 0.000000 0.000000 0.000000 0.039970
#
#
# Mechanical properties :
#
#
# Convention : Reuss Voigt Hill
#
# Bulk Modulus (GPa) = 44.46138 55.55567 50.00853
# Shear Modulus (GPa) = 26.36188 28.36515 27.36351
#
# Velocity S-wave (km/s) = 3.82369 3.96631 3.89566
# Velocity P-wave (km/s) = 6.64477 7.19635 6.92605
#
# Compressibility (1/GPa) = 0.02249143
#
# Stress axis : x y z
#
# Youngs Moduli (GPa) = 51.71548 51.71614 115.32800
#
# Poissons Ratio (x) = 0.22142 0.46967
# Poissons Ratio (y) = 0.22142 0.46965
# Poissons Ratio (z) = 0.21061 0.21060
#
# Static dielectric constant tensor:
#      x y z
#    x 3.193490 0.000000 0.000000 
#    y 0.000000 3.193500 0.000000 
#    z 0.000000 0.000000 4.063350 
# 
# 
# High freq. dielectric constant tensor:
#      x y z
#    x 1.682220 0.000000 0.000000 
#    y 0.000000 1.682220 0.000000 
#    z 0.000000 0.000000 1.728690 
# 
# From -- ./inp_files/4613.got.cif
#   From: 2010.03.12/outbox.cif.g09.slc.cpg/sg136_3_cif.got.tgz:4613.got - 2010.04.06 18:39:43.
