data_PCOD8318536
_publ_section_title
;
Structure prediction by ZEFSAII (Michael W. Deem and Ramdas Pophale) SiO2 
 PCOD8318536
Probable space group: P 42/N M C
;
_chemical_formula_sum "Si O2"
_cell_formula_units_Z 64
_cell_length_a 13.532040
_cell_length_b 13.532040
_cell_length_c 18.426141
_cell_angle_alpha 90.000000
_cell_angle_beta 90.000000
_cell_angle_gamma 90.000000
_cell_volume 3374.123199
_symmetry_space_group_name_H-M "P 42/N M C"
_symmetry_group_IT_number 137
_space_group.IT_coordinate_system_code '2'
_symmetry_cell_setting 'tetragonal'
loop_
_space_group_symop_operation_xyz
x,y,z
1/2-y,x,1/2+z
1/2-x,1/2-y,z
y,1/2-x,1/2+z
1/2+x,-y,-z
-x,1/2+y,-z
1/2+y,1/2+x,1/2-z
-y,-x,1/2-z
-x,-y,-z
1/2+y,-x,1/2-z
1/2+x,1/2+y,-z
-y,1/2+x,1/2-z
1/2-x,y,z
x,1/2-y,z
1/2-y,1/2-x,1/2+z
y,x,1/2+z
loop_
_atom_site_type_symbol
_atom_site_label
_atom_site_fract_x
_atom_site_fract_y
_atom_site_fract_z
Si Si1 0.750000 0.633960 0.640358
Si Si2 0.750000 0.633114 0.468127
Si Si3 0.513667 0.555790 0.172069
Si Si4 0.087196 0.517732 0.555994
Si Si5 0.640714 0.141986 0.566957
O O1 0.750000 0.750000 0.658370
O O2 0.750000 0.613043 0.554656
O O3 0.849509 0.586526 0.674849
O O4 0.750000 0.750000 0.450453
O O5 0.652909 0.581843 0.433437
O O6 0.475857 0.524144 0.250000
O O7 0.559563 0.458288 0.132102
O O8 0.418798 0.574804 0.122470
O O9 0.150931 0.601364 0.515571
O O10 0.000000 0.500000 0.500000
O O11 0.750000 0.144897 0.600650
O O12 0.592595 0.250000 0.563019
#
# Coordination Sequence:
#
# PCOD8318536 Si02
#       5
#     8   8  16  16  16
#     4  11  22  42  64  88 124 163 204 247 307 374
#     4  11  20  38  64  88 116 159 208 257 301 356
#     4  11  23  40  58  88 125 161 196 245 303 371
#     4  10  19  37  57  84 118 150 202 251 297 353
#     4  10  19  34  59  87 113 146 193 247 303 356
#
# _framework density 18.967891000000002
#
# number of rings (size 3 to 8) (size 9 to 14) (size 15 to 20)
#    0.000    1.500    7.500    0.000    1.750    5.000 
#    2.250    1.250    0.000    0.000    0.000    1.750 
#    0.000    0.000    0.000    0.000    0.000    0.000 
#
# Total GULP energy -792878.359506 kJ/mol
# GULP energy per Si atom -12388.724367 kJ/mol
# Density = 1.892472 g / cm^3
# Si number density = 18.967891 Si / 1000 Ang^3
#
#
#
# Elastic Constant Matrix: (Units=GPa)
#
#
# Indices 1 2 3 4 5 6 
#
# 1 106.7353 35.6935 42.6521 0.0000 0.0000 0.0000
# 2 35.6935 106.7358 42.6519 0.0000 0.0000 0.0000
# 3 42.6521 42.6519 122.1914 0.0000 0.0000 0.0000
# 4 0.0000 0.0000 0.0000 16.8641 0.0000 0.0000
# 5 0.0000 0.0000 0.0000 0.0000 16.8638 0.0000
# 6 0.0000 0.0000 0.0000 0.0000 0.0000 20.2191
#
#
#
# Elastic Compliance Matrix: (Units=1/GPa)
#
#
# Indices 1 2 3 4 5 6 
#
# 1 0.011477 -0.002600 -0.003099 0.000000 0.000000 0.000000
# 2 -0.002600 0.011476 -0.003099 0.000000 0.000000 0.000000
# 3 -0.003099 -0.003099 0.010347 0.000000 0.000000 0.000000
# 4 0.000000 0.000000 0.000000 0.059298 0.000000 0.000000
# 5 0.000000 0.000000 0.000000 0.000000 0.059299 0.000000
# 6 0.000000 0.000000 0.000000 0.000000 0.000000 0.049458
#
#
# Mechanical properties :
#
#
# Convention : Reuss Voigt Hill
#
# Bulk Modulus (GPa) = 63.66777 64.18416 63.92596
# Shear Modulus (GPa) = 22.30315 25.10038 23.70177
#
# Velocity S-wave (km/s) = 3.43277 3.64168 3.53877
# Velocity P-wave (km/s) = 7.02501 7.18291 7.10440
#
# Compressibility (1/GPa) = 0.01570653
#
# Stress axis : x y z
#
# Youngs Moduli (GPa) = 87.13426 87.13486 96.64617
#
# Poissons Ratio (x) = 0.22652 0.29946
# Poissons Ratio (y) = 0.22652 0.29946
# Poissons Ratio (z) = 0.26999 0.26999
#
# Static dielectric constant tensor:
#      x y z
#    x 3.818550 0.000000 0.000000 
#    y 0.000000 3.818550 0.000000 
#    z 0.000000 0.000000 3.681210 
# 
# 
# High freq. dielectric constant tensor:
#      x y z
#    x 1.739800 0.000000 0.000000 
#    y 0.000000 1.739800 0.000000 
#    z 0.000000 0.000000 1.705620 
# 
# From -- ./inp_files/6096.got.cif
#   From: 2010.03.12/outbox.cif.g09.slc.cpg/sg137_4_cif.got.tgz:6096.got - 2010.04.08 09:34:49.
