data_PCOD8318859
_publ_section_title
;
Structure prediction by ZEFSAII (Michael W. Deem and Ramdas Pophale) SiO2 
 PCOD8318859
Probable space group: P 42/N C M
;
_chemical_formula_sum "Si O2"
_cell_formula_units_Z 112
_cell_length_a 14.010921
_cell_length_b 14.010921
_cell_length_c 35.551894
_cell_angle_alpha 90.000000
_cell_angle_beta 90.000000
_cell_angle_gamma 90.000000
_cell_volume 6979.046807
_symmetry_space_group_name_H-M "P 42/N C M"
_symmetry_group_IT_number 138
_space_group.IT_coordinate_system_code '2'
_symmetry_cell_setting 'tetragonal'
loop_
_space_group_symop_operation_xyz
x,y,z
1/2-y,x,1/2+z
1/2-x,1/2-y,z
y,1/2-x,1/2+z
1/2+x,-y,1/2-z
-x,1/2+y,1/2-z
1/2+y,1/2+x,-z
-y,-x,-z
-x,-y,-z
1/2+y,-x,1/2-z
1/2+x,1/2+y,-z
-y,1/2+x,1/2-z
1/2-x,y,1/2+z
x,1/2-y,1/2+z
1/2-y,1/2-x,z
y,x,z
loop_
_atom_site_type_symbol
_atom_site_label
_atom_site_fract_x
_atom_site_fract_y
_atom_site_fract_z
Si Si1 0.373280 0.968831 0.097177
Si Si2 0.021180 0.632217 0.818183
Si Si3 0.107560 0.542785 0.459491
Si Si4 0.297277 0.647540 0.458999
Si Si5 0.159415 0.008174 0.099350
Si Si6 0.354903 0.634653 0.249703
Si Si7 0.001392 0.849450 0.816170
O O1 0.380360 0.932840 0.140389
O O2 0.381387 0.876753 0.071006
O O3 0.456541 0.043460 0.086791
O O4 0.271624 0.021074 0.091706
O O5 0.095553 0.594177 0.787276
O O6 0.924164 0.575837 0.815513
O O7 0.988081 0.738415 0.808599
O O8 0.072907 0.572907 0.500000
O O9 0.221777 0.558753 0.458121
O O10 0.065582 0.434419 0.451538
O O11 0.066244 0.616463 0.429598
O O12 0.250000 0.750000 0.448685
O O13 0.345284 0.654717 0.500000
O O14 0.112439 0.112439 0.094219
O O15 0.135732 0.965637 0.140696
O O16 0.243841 0.619034 0.256863
O O17 0.391338 0.580262 0.212414
O O18 0.901200 0.901200 0.808365
#
# Coordination Sequence:
#
# PCOD8318859 Si02
#       7
#    16  16  16  16  16  16  16
#     4  10  20  32  47  70  97 127 160 195 240 289
#     4   9  18  31  45  64  91 121 151 186 231 282
#     4  10  18  30  49  71  97 126 156 194 239 282
#     4  11  19  33  51  74  98 125 162 201 236 281
#     4   9  17  29  45  69  95 122 156 193 238 291
#     4   9  17  29  43  64  89 116 150 190 233 275
#     4   9  17  28  44  64  88 118 150 186 226 274
#
# _framework density 16.048037000000001
#
# number of rings (size 3 to 8) (size 9 to 14) (size 15 to 20)
#    0.000    2.429    2.857    0.429    0.000    2.000 
#    2.571    2.857    0.000    0.429    0.000    0.000 
#    0.000    5.714    0.000    0.000    0.000    0.000 
#
# Total GULP energy -1388028.463632 kJ/mol
# GULP energy per Si atom -12393.111282 kJ/mol
# Density = 1.601151 g / cm^3
# Si number density = 16.048037 Si / 1000 Ang^3
#
#
#
# Elastic Constant Matrix: (Units=GPa)
#
#
# Indices 1 2 3 4 5 6 
#
# 1 78.2400 42.1840 54.9355 0.0000 0.0000 0.0000
# 2 42.1840 78.2400 54.9354 0.0000 0.0000 0.0000
# 3 54.9355 54.9354 118.2540 0.0000 0.0000 0.0000
# 4 0.0000 0.0000 0.0000 25.6337 0.0000 0.0000
# 5 0.0000 0.0000 0.0000 0.0000 25.6336 0.0000
# 6 0.0000 0.0000 0.0000 0.0000 0.0000 23.7664
#
#
#
# Elastic Compliance Matrix: (Units=1/GPa)
#
#
# Indices 1 2 3 4 5 6 
#
# 1 0.021074 -0.006661 -0.006696 0.000000 0.000000 0.000000
# 2 -0.006661 0.021074 -0.006696 0.000000 0.000000 0.000000
# 3 -0.006696 -0.006696 0.014677 0.000000 0.000000 0.000000
# 4 0.000000 0.000000 0.000000 0.039011 0.000000 0.000000
# 5 0.000000 0.000000 0.000000 0.000000 0.039011 0.000000
# 6 0.000000 0.000000 0.000000 0.000000 0.000000 0.042076
#
#
# Mechanical properties :
#
#
# Convention : Reuss Voigt Hill
#
# Bulk Modulus (GPa) = 59.80611 64.31597 62.06104
# Shear Modulus (GPa) = 22.46174 23.18535 22.82354
#
# Velocity S-wave (km/s) = 3.74526 3.80511 3.77530
# Velocity P-wave (km/s) = 7.48668 7.71163 7.59999
#
# Compressibility (1/GPa) = 0.01672070
#
# Stress axis : x y z
#
# Youngs Moduli (GPa) = 47.45251 47.45253 68.13266
#
# Poissons Ratio (x) = 0.31608 0.45618
# Poissons Ratio (y) = 0.31608 0.45618
# Poissons Ratio (z) = 0.31772 0.31772
#
# Static dielectric constant tensor:
#      x y z
#    x 3.044810 0.000000 0.000000 
#    y 0.000000 3.044810 0.000000 
#    z 0.000000 0.000000 3.301860 
# 
# 
# High freq. dielectric constant tensor:
#      x y z
#    x 1.601480 0.000000 0.000000 
#    y 0.000000 1.601480 0.000000 
#    z 0.000000 0.000000 1.632470 
# 
# From -- ./inp_files/8275.got.cif
#   From: 2010.03.12/outbox.cif.g09.slc.cpg/sg138_5_cif.got.tgz:8275.got - 2010.04.08 09:41:05.
