data_PCOD8318408
_publ_section_title
;
Structure prediction by ZEFSAII (Michael W. Deem and Ramdas Pophale) SiO2 
 PCOD8318408
Probable space group: P 42/N M C
;
_chemical_formula_sum "Si O2"
_cell_formula_units_Z 96
_cell_length_a 17.609048
_cell_length_b 17.609048
_cell_length_c 17.624333
_cell_angle_alpha 90.000000
_cell_angle_beta 90.000000
_cell_angle_gamma 90.000000
_cell_volume 5464.928000
_symmetry_space_group_name_H-M "P 42/N M C"
_symmetry_group_IT_number 137
_space_group.IT_coordinate_system_code '2'
_symmetry_cell_setting 'tetragonal'
loop_
_space_group_symop_operation_xyz
x,y,z
1/2-y,x,1/2+z
1/2-x,1/2-y,z
y,1/2-x,1/2+z
1/2+x,-y,-z
-x,1/2+y,-z
1/2+y,1/2+x,1/2-z
-y,-x,1/2-z
-x,-y,-z
1/2+y,-x,1/2-z
1/2+x,1/2+y,-z
-y,1/2+x,1/2-z
1/2-x,y,z
x,1/2-y,z
1/2-y,1/2-x,1/2+z
y,x,1/2+z
loop_
_atom_site_type_symbol
_atom_site_label
_atom_site_fract_x
_atom_site_fract_y
_atom_site_fract_z
Si Si1 0.088903 0.597199 0.164935
Si Si2 0.520444 0.161569 0.434409
Si Si3 0.934834 0.542408 0.200265
Si Si4 0.337643 0.833460 0.025195
Si Si5 0.542001 0.664238 0.409565
Si Si6 0.661761 0.836747 0.292553
O O1 0.117736 0.617736 0.250000
O O2 0.117988 0.657776 0.104397
O O3 0.115192 0.512024 0.144465
O O4 0.997429 0.596913 0.162113
O O5 0.514963 0.250000 0.412363
O O6 0.503767 0.111988 0.361649
O O7 0.604873 0.138564 0.462658
O O8 0.461706 0.139475 0.502189
O O9 0.876704 0.598679 0.241925
O O10 0.978952 0.478952 0.250000
O O11 0.250000 0.843862 0.045742
O O12 0.355212 0.750000 0.991897
O O13 0.510369 0.750000 0.405423
O O14 0.627305 0.657425 0.377776
O O15 0.750000 0.855590 0.298179
O O16 0.648517 0.750000 0.261528
#
# Coordination Sequence:
#
# PCOD8318408 Si02
#       6
#    16  16  16  16  16  16
#     4  10  18  30  49  77 105 142 168 215 264 319
#     4   9  19  36  59  76 103 145 181 223 269 318
#     4  11  21  36  54  81 110 143 181 222 271 323
#     4   9  19  34  51  76 107 141 180 217 262 316
#     4   9  17  33  53  76 101 137 180 216 268 326
#     4  10  20  36  57  79 108 144 183 229 277 328
#
# _framework density 17.566562999999999
#
# number of rings (size 3 to 8) (size 9 to 14) (size 15 to 20)
#    0.000    2.333    3.333    2.000    0.000    4.667 
#    0.000    3.333    0.000    3.000    0.000    0.000 
#    0.000    0.000    0.000    0.000    0.000    0.000 
#
# Total GULP energy -1189697.272723 kJ/mol
# GULP energy per Si atom -12392.679924 kJ/mol
# Density = 1.752658 g / cm^3
# Si number density = 17.566563 Si / 1000 Ang^3
#
#
#
# Elastic Constant Matrix: (Units=GPa)
#
#
# Indices 1 2 3 4 5 6 
#
# 1 103.5944 48.8486 55.5525 0.0000 0.0000 0.0000
# 2 48.8486 103.5944 55.5525 0.0000 0.0000 0.0000
# 3 55.5525 55.5525 98.9263 0.0000 0.0000 0.0000
# 4 0.0000 0.0000 0.0000 21.7351 0.0000 0.0000
# 5 0.0000 0.0000 0.0000 0.0000 21.7351 0.0000
# 6 0.0000 0.0000 0.0000 0.0000 0.0000 27.9711
#
#
#
# Elastic Compliance Matrix: (Units=1/GPa)
#
#
# Indices 1 2 3 4 5 6 
#
# 1 0.014685 -0.003581 -0.006236 0.000000 0.000000 0.000000
# 2 -0.003581 0.014685 -0.006236 0.000000 0.000000 0.000000
# 3 -0.006236 -0.006236 0.017112 0.000000 0.000000 0.000000
# 4 0.000000 0.000000 0.000000 0.046009 0.000000 0.000000
# 5 0.000000 0.000000 0.000000 0.000000 0.046009 0.000000
# 6 0.000000 0.000000 0.000000 0.000000 0.000000 0.035751
#
#
# Mechanical properties :
#
#
# Convention : Reuss Voigt Hill
#
# Bulk Modulus (GPa) = 69.55087 69.55806 69.55447
# Shear Modulus (GPa) = 23.67993 24.03236 23.85615
#
# Velocity S-wave (km/s) = 3.67551 3.70276 3.68916
# Velocity P-wave (km/s) = 7.59547 7.61337 7.60443
#
# Compressibility (1/GPa) = 0.01437797
#
# Stress axis : x y z
#
# Youngs Moduli (GPa) = 68.09440 68.09440 58.43797
#
# Poissons Ratio (x) = 0.24383 0.36442
# Poissons Ratio (y) = 0.24383 0.36442
# Poissons Ratio (z) = 0.42463 0.42463
#
# Static dielectric constant tensor:
#      x y z
#    x 3.309610 0.000000 0.000000 
#    y 0.000000 3.309610 0.000000 
#    z 0.000000 0.000000 3.143030 
# 
# 
# High freq. dielectric constant tensor:
#      x y z
#    x 1.677070 0.000000 0.000000 
#    y 0.000000 1.677070 0.000000 
#    z 0.000000 0.000000 1.664970 
# 
# From -- ./inp_files/6526.got.cif
#   From: 2010.03.12/outbox.cif.g09.slc.cpg/sg137_4_cif.got.tgz:6526.got - 2010.04.08 09:34:49.
