data_PCOD8318551
_publ_section_title
;
Structure prediction by ZEFSAII (Michael W. Deem and Ramdas Pophale) SiO2 
 PCOD8318551
Probable space group: P 42/N M C
;
_chemical_formula_sum "Si O2"
_cell_formula_units_Z 80
_cell_length_a 14.273132
_cell_length_b 14.273132
_cell_length_c 19.896045
_cell_angle_alpha 90.000000
_cell_angle_beta 90.000000
_cell_angle_gamma 90.000000
_cell_volume 4053.267990
_symmetry_space_group_name_H-M "P 42/N M C"
_symmetry_group_IT_number 137
_space_group.IT_coordinate_system_code '2'
_symmetry_cell_setting 'tetragonal'
loop_
_space_group_symop_operation_xyz
x,y,z
1/2-y,x,1/2+z
1/2-x,1/2-y,z
y,1/2-x,1/2+z
1/2+x,-y,-z
-x,1/2+y,-z
1/2+y,1/2+x,1/2-z
-y,-x,1/2-z
-x,-y,-z
1/2+y,-x,1/2-z
1/2+x,1/2+y,-z
-y,1/2+x,1/2-z
1/2-x,y,z
x,1/2-y,z
1/2-y,1/2-x,1/2+z
y,x,1/2+z
loop_
_atom_site_type_symbol
_atom_site_label
_atom_site_fract_x
_atom_site_fract_y
_atom_site_fract_z
Si Si1 0.111112 0.850656 0.323980
Si Si2 0.640694 0.855700 0.494364
Si Si3 0.355014 0.009304 0.762570
Si Si4 0.450053 0.355542 0.870691
Si Si5 0.855673 0.599943 0.847293
O O1 0.153543 0.846458 0.250000
O O2 0.135728 0.750000 0.359147
O O3 0.000827 0.859443 0.313136
O O4 0.149354 0.937094 0.367253
O O5 0.750000 0.863919 0.479646
O O6 0.612359 0.750000 0.514433
O O7 0.609156 0.923172 0.554826
O O8 0.590509 0.886730 0.425218
O O9 0.250000 0.980527 0.786416
O O10 0.405757 0.073471 0.817800
O O11 0.340051 0.069555 0.694459
O O12 0.415763 0.915763 0.750000
O O13 0.410214 0.250000 0.858461
O O14 0.750000 0.642872 0.843243
#
# Coordination Sequence:
#
# PCOD8318551 Si02
#       5
#    16  16  16  16  16
#     4  11  21  35  56  86 121 155 193 236 287 347
#     4   9  19  34  54  85 119 149 186 240 300 347
#     4  12  24  40  60  85 115 150 195 243 293 347
#     4  11  21  37  60  88 119 152 193 238 292 349
#     4  10  19  36  61  87 114 148 193 240 291 348
#
# _framework density 19.737161
#
# number of rings (size 3 to 8) (size 9 to 14) (size 15 to 20)
#    0.000    1.400    4.000    2.400    0.000    5.600 
#    0.000    0.000    0.000    0.000    0.000    2.800 
#    0.000    0.000    0.000    0.000    0.000    0.000 
#
# Total GULP energy -991661.539394 kJ/mol
# GULP energy per Si atom -12395.769242 kJ/mol
# Density = 1.969224 g / cm^3
# Si number density = 19.737161 Si / 1000 Ang^3
#
#
#
# Elastic Constant Matrix: (Units=GPa)
#
#
# Indices 1 2 3 4 5 6 
#
# 1 109.8935 33.2159 42.8779 0.0000 0.0000 0.0000
# 2 33.2159 109.8941 42.8780 0.0000 0.0000 0.0000
# 3 42.8779 42.8780 105.6336 0.0000 0.0000 0.0000
# 4 0.0000 0.0000 0.0000 18.5586 0.0000 0.0000
# 5 0.0000 0.0000 0.0000 0.0000 18.5632 0.0000
# 6 0.0000 0.0000 0.0000 0.0000 0.0000 17.3928
#
#
#
# Elastic Compliance Matrix: (Units=1/GPa)
#
#
# Indices 1 2 3 4 5 6 
#
# 1 0.011138 -0.001904 -0.003748 0.000000 0.000000 0.000000
# 2 -0.001904 0.011138 -0.003748 0.000000 0.000000 0.000000
# 3 -0.003748 -0.003748 0.012509 0.000000 0.000000 0.000000
# 4 0.000000 0.000000 0.000000 0.053883 0.000000 0.000000
# 5 0.000000 0.000000 0.000000 0.000000 0.053870 0.000000
# 6 0.000000 0.000000 0.000000 0.000000 0.000000 0.057495
#
#
# Mechanical properties :
#
#
# Convention : Reuss Voigt Hill
#
# Bulk Modulus (GPa) = 62.56065 62.59611 62.57838
# Shear Modulus (GPa) = 22.30536 24.66621 23.48579
#
# Velocity S-wave (km/s) = 3.36537 3.53899 3.45327
# Velocity P-wave (km/s) = 6.84592 6.96297 6.90470
#
# Compressibility (1/GPa) = 0.01598449
#
# Stress axis : x y z
#
# Youngs Moduli (GPa) = 89.78593 89.78646 79.93982
#
# Poissons Ratio (x) = 0.17095 0.29962
# Poissons Ratio (y) = 0.17095 0.29961
# Poissons Ratio (z) = 0.33652 0.33652
#
# Static dielectric constant tensor:
#      x y z
#    x 3.641190 0.000000 0.000000 
#    y 0.000000 3.641190 0.000000 
#    z 0.000000 0.000000 3.548340 
# 
# 
# High freq. dielectric constant tensor:
#      x y z
#    x 1.763880 0.000000 0.000000 
#    y 0.000000 1.763880 0.000000 
#    z 0.000000 0.000000 1.757150 
# 
# From -- ./inp_files/7600.got.cif
#   From: 2010.03.12/outbox.cif.g09.slc.cpg/sg137_4_cif.got.tgz:7600.got - 2010.04.08 09:34:49.
