data_PCOD8318504
_publ_section_title
;
Structure prediction by ZEFSAII (Michael W. Deem and Ramdas Pophale) SiO2 
 PCOD8318504
Probable space group: P 42/N M C
;
_chemical_formula_sum "Si O2"
_cell_formula_units_Z 42
_cell_length_a 9.248234
_cell_length_b 9.248234
_cell_length_c 29.023144
_cell_angle_alpha 90.000000
_cell_angle_beta 90.000000
_cell_angle_gamma 90.000000
_cell_volume 2482.344634
_symmetry_space_group_name_H-M "P 42/N M C"
_symmetry_group_IT_number 137
_space_group.IT_coordinate_system_code '2'
_symmetry_cell_setting 'tetragonal'
loop_
_space_group_symop_operation_xyz
x,y,z
1/2-y,x,1/2+z
1/2-x,1/2-y,z
y,1/2-x,1/2+z
1/2+x,-y,-z
-x,1/2+y,-z
1/2+y,1/2+x,1/2-z
-y,-x,1/2-z
-x,-y,-z
1/2+y,-x,1/2-z
1/2+x,1/2+y,-z
-y,1/2+x,1/2-z
1/2-x,y,z
x,1/2-y,z
1/2-y,1/2-x,1/2+z
y,x,1/2+z
loop_
_atom_site_type_symbol
_atom_site_label
_atom_site_fract_x
_atom_site_fract_y
_atom_site_fract_z
Si Si1 0.250000 0.750000 0.750000
Si Si2 0.250000 0.423862 0.075448
Si Si3 0.750000 0.413201 0.162173
Si Si4 0.582048 0.750000 0.527527
Si Si5 0.923016 0.528730 0.604460
O O1 0.106359 0.750000 0.717738
O O2 0.250000 0.250000 0.078182
O O3 0.380881 0.492048 0.103151
O O4 0.250000 0.488318 0.023193
O O5 0.750000 0.250000 0.139554
O O6 0.611890 0.507610 0.147567
O O7 0.750000 0.750000 0.518547
O O8 0.537692 0.890379 0.556718
O O9 0.750000 0.512981 0.611032
#
# Coordination Sequence:
#
# PCOD8318504 Si02
#       5
#     2   8   8   8  16
#     4   8  20  36  68  80 104 116 180 224 264 340
#     4  11  20  30  47  77 112 150 189 223 249 299
#     4   9  18  36  59  79 100 126 171 217 268 328
#     4   8  17  31  47  72 106 147 191 220 256 308
#     4  10  19  33  53  76 108 145 176 221 273 318
#
# _framework density 16.919487
#
# number of rings (size 3 to 8) (size 9 to 14) (size 15 to 20)
#    0.571    1.905    0.000    4.571    0.000    0.000 
#    0.000    9.524    8.381    0.000    0.000    0.000 
#    0.000    0.000    0.000    0.000    0.000    0.000 
#
# Total GULP energy -520401.270024 kJ/mol
# GULP energy per Si atom -12390.506429 kJ/mol
# Density = 1.688098 g / cm^3
# Si number density = 16.919487 Si / 1000 Ang^3
#
#
#
# Elastic Constant Matrix: (Units=GPa)
#
#
# Indices 1 2 3 4 5 6 
#
# 1 128.0138 58.5961 48.9799 0.0000 0.0000 0.0000
# 2 58.5961 128.0138 48.9799 0.0000 0.0000 0.0000
# 3 48.9799 48.9799 109.7767 0.0000 0.0000 0.0000
# 4 0.0000 0.0000 0.0000 17.8619 0.0000 0.0000
# 5 0.0000 0.0000 0.0000 0.0000 17.8619 0.0000
# 6 0.0000 0.0000 0.0000 0.0000 0.0000 29.2914
#
#
#
# Elastic Compliance Matrix: (Units=1/GPa)
#
#
# Indices 1 2 3 4 5 6 
#
# 1 0.010702 -0.003704 -0.003122 0.000000 0.000000 0.000000
# 2 -0.003704 0.010702 -0.003122 0.000000 0.000000 0.000000
# 3 -0.003122 -0.003122 0.011896 0.000000 0.000000 0.000000
# 4 0.000000 0.000000 0.000000 0.055985 0.000000 0.000000
# 5 0.000000 0.000000 0.000000 0.000000 0.055985 0.000000
# 6 0.000000 0.000000 0.000000 0.000000 0.000000 0.034140
#
#
# Mechanical properties :
#
#
# Convention : Reuss Voigt Hill
#
# Bulk Modulus (GPa) = 74.61514 75.43514 75.02514
# Shear Modulus (GPa) = 24.53715 26.95295 25.74505
#
# Velocity S-wave (km/s) = 3.81232 3.99559 3.90503
# Velocity P-wave (km/s) = 7.97335 8.12206 8.04805
#
# Compressibility (1/GPa) = 0.01340211
#
# Stress axis : x y z
#
# Youngs Moduli (GPa) = 93.44338 93.44338 84.06500
#
# Poissons Ratio (x) = 0.34610 0.26247
# Poissons Ratio (y) = 0.34610 0.26247
# Poissons Ratio (z) = 0.29175 0.29175
#
# Static dielectric constant tensor:
#      x y z
#    x 3.171900 0.000000 0.000000 
#    y 0.000000 3.171900 0.000000 
#    z 0.000000 0.000000 2.951950 
# 
# 
# High freq. dielectric constant tensor:
#      x y z
#    x 1.654800 0.000000 0.000000 
#    y 0.000000 1.654800 0.000000 
#    z 0.000000 0.000000 1.620610 
# 
# From -- ./inp_files/9987.got.cif
#   From: 2010.03.12/outbox.cif.g09.slc.cpg/sg137_5_cif.got.tgz:9987.got - 2010.04.08 09:34:49.
