data_PCOD8318444
_publ_section_title
;
Structure prediction by ZEFSAII (Michael W. Deem and Ramdas Pophale) SiO2 
 PCOD8318444
Probable space group: P 42/N M C
;
_chemical_formula_sum "Si O2"
_cell_formula_units_Z 128
_cell_length_a 19.681570
_cell_length_b 19.681570
_cell_length_c 18.000276
_cell_angle_alpha 90.000000
_cell_angle_beta 90.000000
_cell_angle_gamma 90.000000
_cell_volume 6972.662470
_symmetry_space_group_name_H-M "P 42/N M C"
_symmetry_group_IT_number 137
_space_group.IT_coordinate_system_code '2'
_symmetry_cell_setting 'tetragonal'
loop_
_space_group_symop_operation_xyz
x,y,z
1/2-y,x,1/2+z
1/2-x,1/2-y,z
y,1/2-x,1/2+z
1/2+x,-y,-z
-x,1/2+y,-z
1/2+y,1/2+x,1/2-z
-y,-x,1/2-z
-x,-y,-z
1/2+y,-x,1/2-z
1/2+x,1/2+y,-z
-y,1/2+x,1/2-z
1/2-x,y,z
x,1/2-y,z
1/2-y,1/2-x,1/2+z
y,x,1/2+z
loop_
_atom_site_type_symbol
_atom_site_label
_atom_site_fract_x
_atom_site_fract_y
_atom_site_fract_z
Si Si1 0.933504 0.670181 0.619751
Si Si2 0.907679 0.670942 0.019162
Si Si3 0.021173 0.033883 0.610209
Si Si4 0.617942 0.043449 0.689419
Si Si5 0.899081 0.039551 0.025583
Si Si6 0.065700 0.826187 0.039601
Si Si7 0.671730 0.674541 0.378045
Si Si8 0.907266 0.606044 0.260271
O O1 0.918550 0.750000 0.623895
O O2 0.871136 0.630918 0.581854
O O3 0.936675 0.638213 0.702142
O O4 0.005100 0.659602 0.575670
O O5 0.892039 0.750000 0.034170
O O6 0.987817 0.655845 0.019242
O O7 0.879759 0.646857 0.939233
O O8 0.073066 0.054376 0.674189
O O9 0.948984 0.018949 0.646911
O O10 0.010273 0.090000 0.545163
O O11 0.047900 0.965272 0.575225
O O12 0.602033 0.102033 0.750000
O O13 0.671412 0.072431 0.629623
O O14 0.643838 0.974210 0.727971
O O15 0.884198 0.117361 0.997762
O O16 0.085758 0.750000 0.013235
O O17 0.750000 0.663593 0.361788
O O18 0.656249 0.750000 0.408781
O O19 0.635682 0.665422 0.298829
#
# Coordination Sequence:
#
# PCOD8318444 Si02
#       8
#    16  16  16  16  16  16  16  16
#     4  12  23  33  49  76 109 145 182 223 266 322
#     4  10  20  36  54  76 105 143 187 229 267 313
#     4   9  17  31  55  74  98 130 173 219 275 316
#     4   9  17  30  50  77 103 134 164 210 276 330
#     4  10  18  34  54  78 103 134 177 232 277 321
#     4  10  19  33  56  83 106 131 173 230 283 335
#     4  10  21  34  45  61  95 144 189 218 246 297
#     4  11  19  31  48  72  99 137 176 219 264 317
#
# _framework density 18.357406000000001
#
# number of rings (size 3 to 8) (size 9 to 14) (size 15 to 20)
#    0.000    1.875    2.500    3.750    0.000    1.750 
#    0.000    0.625    0.000    4.875    0.000    0.000 
#    0.000    0.000    0.000    0.000    0.000    0.000 
#
# Total GULP energy -1586573.632942 kJ/mol
# GULP energy per Si atom -12395.106507 kJ/mol
# Density = 1.831562 g / cm^3
# Si number density = 18.357406 Si / 1000 Ang^3
#
#
#
# Elastic Constant Matrix: (Units=GPa)
#
#
# Indices 1 2 3 4 5 6 
#
# 1 52.3700 27.3665 25.8355 0.0000 0.0000 0.0000
# 2 27.3665 52.3700 25.8355 0.0000 0.0000 0.0000
# 3 25.8355 25.8355 97.9645 0.0000 0.0000 0.0000
# 4 0.0000 0.0000 0.0000 23.1080 0.0000 0.0000
# 5 0.0000 0.0000 0.0000 0.0000 23.1080 0.0000
# 6 0.0000 0.0000 0.0000 0.0000 0.0000 20.9245
#
#
#
# Elastic Compliance Matrix: (Units=1/GPa)
#
#
# Indices 1 2 3 4 5 6 
#
# 1 0.027560 -0.012434 -0.003989 0.000000 0.000000 0.000000
# 2 -0.012434 0.027560 -0.003989 0.000000 0.000000 0.000000
# 3 -0.003989 -0.003989 0.012312 0.000000 0.000000 0.000000
# 4 0.000000 0.000000 0.000000 0.043275 0.000000 0.000000
# 5 0.000000 0.000000 0.000000 0.000000 0.043275 0.000000
# 6 0.000000 0.000000 0.000000 0.000000 0.000000 0.047791
#
#
# Mechanical properties :
#
#
# Convention : Reuss Voigt Hill
#
# Bulk Modulus (GPa) = 37.58277 40.08658 38.83468
# Shear Modulus (GPa) = 19.88327 21.67255 20.77791
#
# Velocity S-wave (km/s) = 3.29465 3.43970 3.36795
# Velocity P-wave (km/s) = 5.91525 6.13673 6.02701
#
# Compressibility (1/GPa) = 0.02660794
#
# Stress axis : x y z
#
# Youngs Moduli (GPa) = 36.28395 36.28395 81.22250
#
# Poissons Ratio (x) = 0.45115 0.32401
# Poissons Ratio (y) = 0.45115 0.32401
# Poissons Ratio (z) = 0.14474 0.14474
#
# Static dielectric constant tensor:
#      x y z
#    x 3.224580 0.000000 0.000000 
#    y 0.000000 3.224580 0.000000 
#    z 0.000000 0.000000 3.741040 
# 
# 
# High freq. dielectric constant tensor:
#      x y z
#    x 1.686820 0.000000 0.000000 
#    y 0.000000 1.686820 0.000000 
#    z 0.000000 0.000000 1.727080 
# 
# From -- ./inp_files/6838.got.cif
#   From: 2010.03.12/outbox.cif.g09.slc.cpg/sg137_4_cif.got.tgz:6838.got - 2010.04.08 09:34:49.
