data_PCOD8318797
_publ_section_title
;
Structure prediction by ZEFSAII (Michael W. Deem and Ramdas Pophale) SiO2 
 PCOD8318797
Probable space group: P 42/N M C
;
_chemical_formula_sum "Si O2"
_cell_formula_units_Z 80
_cell_length_a 28.470617
_cell_length_b 28.470617
_cell_length_c 4.920486
_cell_angle_alpha 90.000000
_cell_angle_beta 90.000000
_cell_angle_gamma 90.000000
_cell_volume 3988.428019
_symmetry_space_group_name_H-M "P 42/N M C"
_symmetry_group_IT_number 137
_space_group.IT_coordinate_system_code '2'
_symmetry_cell_setting 'tetragonal'
loop_
_space_group_symop_operation_xyz
x,y,z
1/2-y,x,1/2+z
1/2-x,1/2-y,z
y,1/2-x,1/2+z
1/2+x,-y,-z
-x,1/2+y,-z
1/2+y,1/2+x,1/2-z
-y,-x,1/2-z
-x,-y,-z
1/2+y,-x,1/2-z
1/2+x,1/2+y,-z
-y,1/2+x,1/2-z
1/2-x,y,z
x,1/2-y,z
1/2-y,1/2-x,1/2+z
y,x,1/2+z
loop_
_atom_site_type_symbol
_atom_site_label
_atom_site_fract_x
_atom_site_fract_y
_atom_site_fract_z
Si Si1 0.672859 0.548508 0.328618
Si Si2 0.071304 0.471749 0.767483
Si Si3 0.932268 0.110764 0.483375
Si Si4 0.697305 0.488939 0.842453
Si Si5 0.302933 0.152369 0.626390
O O1 0.619617 0.557881 0.229757
O O2 0.673956 0.511030 0.574033
O O3 0.695406 0.596827 0.428765
O O4 0.701831 0.528285 0.075194
O O5 0.050066 0.467895 0.466215
O O6 0.082915 0.524496 0.848967
O O7 0.891448 0.108553 0.250000
O O8 0.946092 0.164415 0.554346
O O9 0.915536 0.084465 0.750000
O O10 0.750000 0.470241 0.779101
O O11 0.250000 0.169989 0.579416
O O12 0.337650 0.181078 0.432882
#
# Coordination Sequence:
#
# PCOD8318797 Si02
#       5
#    16  16  16  16  16
#     4  11  22  39  60  83 108 136 182 240 287 323
#     4  11  21  35  55  79 110 150 190 224 263 322
#     4  11  23  38  55  82 119 154 186 226 271 320
#     4  11  22  39  63  86 111 143 184 229 274 323
#     4  12  25  40  58  77 102 136 177 231 294 356
#
# _framework density 20.058029000000001
#
# number of rings (size 3 to 8) (size 9 to 14) (size 15 to 20)
#    0.000    0.800    0.000   10.800    0.000    3.600 
#    0.000    0.000    0.000    0.000    0.000    0.000 
#    0.000    2.400    0.000    0.000    0.000    0.000 
#
# Total GULP energy -992143.083241 kJ/mol
# GULP energy per Si atom -12401.788541 kJ/mol
# Density = 2.001238 g / cm^3
# Si number density = 20.058029 Si / 1000 Ang^3
#
#
#
# Elastic Constant Matrix: (Units=GPa)
#
#
# Indices 1 2 3 4 5 6 
#
# 1 77.6592 57.8454 29.7391 0.0000 0.0000 0.0000
# 2 57.8454 77.6608 29.7397 0.0000 0.0000 0.0000
# 3 29.7391 29.7397 117.8797 0.0000 0.0000 0.0000
# 4 0.0000 0.0000 0.0000 4.1878 0.0000 0.0000
# 5 0.0000 0.0000 0.0000 0.0000 4.1928 0.0000
# 6 0.0000 0.0000 0.0000 0.0000 0.0000 18.4758
#
#
#
# Elastic Compliance Matrix: (Units=1/GPa)
#
#
# Indices 1 2 3 4 5 6 
#
# 1 0.029384 -0.021084 -0.002094 0.000000 0.000000 0.000000
# 2 -0.021084 0.029383 -0.002094 0.000000 0.000000 0.000000
# 3 -0.002094 -0.002094 0.009540 0.000000 0.000000 0.000000
# 4 0.000000 0.000000 0.000000 0.238790 0.000000 0.000000
# 5 0.000000 0.000000 0.000000 0.000000 0.238504 0.000000
# 6 0.000000 0.000000 0.000000 0.000000 0.000000 0.054125
#
#
# Mechanical properties :
#
#
# Convention : Reuss Voigt Hill
#
# Bulk Modulus (GPa) = 56.29830 56.42754 56.36292
# Shear Modulus (GPa) = 7.61974 15.76298 11.69136
#
# Velocity S-wave (km/s) = 1.95118 2.80638 2.41690
# Velocity P-wave (km/s) = 5.76236 6.22047 5.99579
#
# Compressibility (1/GPa) = 0.01776253
#
# Stress axis : x y z
#
# Youngs Moduli (GPa) = 34.03265 34.03329 104.82586
#
# Poissons Ratio (x) = 0.71757 0.21946
# Poissons Ratio (y) = 0.71756 0.21948
# Poissons Ratio (z) = 0.07125 0.07126
#
# Static dielectric constant tensor:
#      x y z
#    x 3.596970 0.000000 0.000000 
#    y 0.000000 3.596980 0.000000 
#    z 0.000000 0.000000 3.868530 
# 
# 
# High freq. dielectric constant tensor:
#      x y z
#    x 1.760010 0.000000 0.000000 
#    y 0.000000 1.760010 0.000000 
#    z 0.000000 0.000000 1.808140 
# 
# From -- ./inp_files/570.got.cif
#   From: 2010.03.12/outbox.cif.g09.slc.cpg/sg137_1_cif.got.tgz:570.got - 2010.04.08 09:34:49.
