data_PCOD8318559
_publ_section_title
;
Structure prediction by ZEFSAII (Michael W. Deem and Ramdas Pophale) SiO2 
 PCOD8318559
Probable space group: P 42/N M C
;
_chemical_formula_sum "Si O2"
_cell_formula_units_Z 112
_cell_length_a 15.086523
_cell_length_b 15.086523
_cell_length_c 24.379983
_cell_angle_alpha 90.000000
_cell_angle_beta 90.000000
_cell_angle_gamma 90.000000
_cell_volume 5548.961567
_symmetry_space_group_name_H-M "P 42/N M C"
_symmetry_group_IT_number 137
_space_group.IT_coordinate_system_code '2'
_symmetry_cell_setting 'tetragonal'
loop_
_space_group_symop_operation_xyz
x,y,z
1/2-y,x,1/2+z
1/2-x,1/2-y,z
y,1/2-x,1/2+z
1/2+x,-y,-z
-x,1/2+y,-z
1/2+y,1/2+x,1/2-z
-y,-x,1/2-z
-x,-y,-z
1/2+y,-x,1/2-z
1/2+x,1/2+y,-z
-y,1/2+x,1/2-z
1/2-x,y,z
x,1/2-y,z
1/2-y,1/2-x,1/2+z
y,x,1/2+z
loop_
_atom_site_type_symbol
_atom_site_label
_atom_site_fract_x
_atom_site_fract_y
_atom_site_fract_z
Si Si1 0.652131 0.474871 0.217026
Si Si2 0.437063 0.650885 0.590063
Si Si3 0.482636 0.348934 0.648878
Si Si4 0.033270 0.349667 0.082793
Si Si5 0.576714 0.558066 0.526743
Si Si6 0.349970 0.554356 0.376130
Si Si7 0.935311 0.651503 0.229209
O O1 0.579972 0.420029 0.250000
O O2 0.750000 0.445660 0.236480
O O3 0.638949 0.458491 0.153367
O O4 0.642513 0.579375 0.228793
O O5 0.398185 0.750000 0.578294
O O6 0.368944 0.572188 0.574646
O O7 0.528870 0.641484 0.555791
O O8 0.452272 0.250000 0.631300
O O9 0.414332 0.422705 0.627161
O O10 0.579746 0.365540 0.623059
O O11 0.489790 0.356786 0.714349
O O12 0.044956 0.250000 0.104278
O O13 0.084057 0.360010 0.024245
O O14 0.500000 0.500000 0.500000
O O15 0.635122 0.506784 0.571183
O O16 0.250000 0.592245 0.377813
O O17 0.368044 0.500795 0.320679
O O18 0.893315 0.750000 0.223636
#
# Coordination Sequence:
#
# PCOD8318559 Si02
#       7
#    16  16  16  16  16  16  16
#     4  11  22  37  59  87 123 162 203 247 300 358
#     4  10  21  38  63  91 122 161 201 250 308 362
#     4  11  23  39  59  90 125 160 203 249 303 368
#     4  11  23  41  64  89 123 164 204 252 304 359
#     4  10  19  39  62  88 118 156 200 249 297 356
#     4  11  20  37  64  89 117 157 200 248 308 364
#     4  10  21  37  62  88 118 159 201 248 307 371
#
# _framework density 20.183955999999998
#
# number of rings (size 3 to 8) (size 9 to 14) (size 15 to 20)
#    0.000    1.429    4.286    2.571    0.000    4.143 
#    0.000    2.857    0.000    5.571    0.000    0.000 
#    0.000    0.000    0.000    0.000    0.000    0.000 
#
# Total GULP energy -1388325.379118 kJ/mol
# GULP energy per Si atom -12395.762314 kJ/mol
# Density = 2.013802 g / cm^3
# Si number density = 20.183956 Si / 1000 Ang^3
#
#
#
# Elastic Constant Matrix: (Units=GPa)
#
#
# Indices 1 2 3 4 5 6 
#
# 1 110.4847 46.3387 29.5368 0.0000 0.0000 0.0000
# 2 46.3387 110.4850 29.5355 0.0000 0.0000 0.0000
# 3 29.5368 29.5355 98.5519 0.0000 0.0000 0.0000
# 4 0.0000 0.0000 0.0000 20.8243 0.0000 0.0000
# 5 0.0000 0.0000 0.0000 0.0000 20.8222 0.0000
# 6 0.0000 0.0000 0.0000 0.0000 0.0000 15.5316
#
#
#
# Elastic Compliance Matrix: (Units=1/GPa)
#
#
# Indices 1 2 3 4 5 6 
#
# 1 0.011389 -0.004201 -0.002154 0.000000 0.000000 0.000000
# 2 -0.004201 0.011389 -0.002154 0.000000 0.000000 0.000000
# 3 -0.002154 -0.002154 0.011438 0.000000 0.000000 0.000000
# 4 0.000000 0.000000 0.000000 0.048021 0.000000 0.000000
# 5 0.000000 0.000000 0.000000 0.000000 0.048026 0.000000
# 6 0.000000 0.000000 0.000000 0.000000 0.000000 0.064385
#
#
# Mechanical properties :
#
#
# Convention : Reuss Voigt Hill
#
# Bulk Modulus (GPa) = 58.14882 58.92706 58.53794
# Shear Modulus (GPa) = 22.99929 25.70966 24.35447
#
# Velocity S-wave (km/s) = 3.37929 3.57286 3.47742
# Velocity P-wave (km/s) = 6.64064 6.80285 6.72223
#
# Compressibility (1/GPa) = 0.01719725
#
# Stress axis : x y z
#
# Youngs Moduli (GPa) = 87.80563 87.80656 87.42618
#
# Poissons Ratio (x) = 0.36885 0.18835
# Poissons Ratio (y) = 0.36884 0.18833
# Poissons Ratio (z) = 0.18917 0.18915
#
# Static dielectric constant tensor:
#      x y z
#    x 3.832200 0.000000 0.000000 
#    y 0.000000 3.832210 0.000000 
#    z 0.000000 0.000000 4.091060 
# 
# 
# High freq. dielectric constant tensor:
#      x y z
#    x 1.772810 0.000000 0.000000 
#    y 0.000000 1.772810 0.000000 
#    z 0.000000 0.000000 1.807280 
# 
# From -- ./inp_files/9005.got.cif
#   From: 2010.03.12/outbox.cif.g09.slc.cpg/sg137_5_cif.got.tgz:9005.got - 2010.04.08 09:34:49.
