data_PCOD8318582
_publ_section_title
;
Structure prediction by ZEFSAII (Michael W. Deem and Ramdas Pophale) SiO2 
 PCOD8318582
Probable space group: P 42/N M C
;
_chemical_formula_sum "Si O2"
_cell_formula_units_Z 80
_cell_length_a 18.018425
_cell_length_b 18.018425
_cell_length_c 13.150236
_cell_angle_alpha 90.000000
_cell_angle_beta 90.000000
_cell_angle_gamma 90.000000
_cell_volume 4269.403480
_symmetry_space_group_name_H-M "P 42/N M C"
_symmetry_group_IT_number 137
_space_group.IT_coordinate_system_code '2'
_symmetry_cell_setting 'tetragonal'
loop_
_space_group_symop_operation_xyz
x,y,z
1/2-y,x,1/2+z
1/2-x,1/2-y,z
y,1/2-x,1/2+z
1/2+x,-y,-z
-x,1/2+y,-z
1/2+y,1/2+x,1/2-z
-y,-x,1/2-z
-x,-y,-z
1/2+y,-x,1/2-z
1/2+x,1/2+y,-z
-y,1/2+x,1/2-z
1/2-x,y,z
x,1/2-y,z
1/2-y,1/2-x,1/2+z
y,x,1/2+z
loop_
_atom_site_type_symbol
_atom_site_label
_atom_site_fract_x
_atom_site_fract_y
_atom_site_fract_z
Si Si1 0.614054 0.334892 0.142081
Si Si2 0.903740 0.333071 0.558419
Si Si3 0.662464 0.020623 0.635438
Si Si4 0.164228 0.453945 0.575814
Si Si5 0.665678 0.554345 0.842677
O O1 0.649574 0.350427 0.250000
O O2 0.628429 0.250000 0.109595
O O3 0.526019 0.350342 0.145836
O O4 0.654239 0.386136 0.059648
O O5 0.877494 0.250000 0.591766
O O6 0.866919 0.395016 0.630323
O O7 0.992353 0.338438 0.570005
O O8 0.750000 0.027569 0.635445
O O9 0.634545 0.980042 0.737109
O O10 0.635458 0.973023 0.538018
O O11 0.250000 0.431489 0.573419
O O12 0.122388 0.384688 0.623755
O O13 0.750000 0.583273 0.828478
#
# Coordination Sequence:
#
# PCOD8318582 Si02
#       5
#    16  16  16  16  16
#     4  10  21  35  53  80 112 145 181 219 260 311
#     4  10  20  33  52  79 108 141 179 215 259 316
#     4   9  19  36  55  78 109 141 176 219 263 310
#     4   9  20  38  57  77 103 139 182 223 266 319
#     4  10  21  36  55  81 110 137 174 226 273 316
#
# _framework density 18.737981000000001
#
# number of rings (size 3 to 8) (size 9 to 14) (size 15 to 20)
#    0.000    2.400    0.000    3.000    0.000    9.400 
#    0.000    4.000    0.000   10.800    0.000    0.000 
#    0.000    0.000    0.000    0.000    0.000    0.000 
#
# Total GULP energy -991912.834720 kJ/mol
# GULP energy per Si atom -12398.910434 kJ/mol
# Density = 1.869533 g / cm^3
# Si number density = 18.737981 Si / 1000 Ang^3
#
#
#
# Elastic Constant Matrix: (Units=GPa)
#
#
# Indices 1 2 3 4 5 6 
#
# 1 89.0285 59.9984 45.6871 0.0000 0.0000 0.0000
# 2 59.9984 89.0306 45.6892 0.0000 0.0000 0.0000
# 3 45.6871 45.6892 98.9256 0.0000 0.0000 0.0000
# 4 0.0000 0.0000 0.0000 28.7224 0.0000 0.0000
# 5 0.0000 0.0000 0.0000 0.0000 28.7226 0.0000
# 6 0.0000 0.0000 0.0000 0.0000 0.0000 37.5177
#
#
#
# Elastic Compliance Matrix: (Units=1/GPa)
#
#
# Indices 1 2 3 4 5 6 
#
# 1 0.021903 -0.012542 -0.004323 0.000000 0.000000 0.000000
# 2 -0.012542 0.021903 -0.004324 0.000000 0.000000 0.000000
# 3 -0.004323 -0.004324 0.014102 0.000000 0.000000 0.000000
# 4 0.000000 0.000000 0.000000 0.034816 0.000000 0.000000
# 5 0.000000 0.000000 0.000000 0.000000 0.034816 0.000000
# 6 0.000000 0.000000 0.000000 0.000000 0.000000 0.026654
#
#
# Mechanical properties :
#
#
# Convention : Reuss Voigt Hill
#
# Bulk Modulus (GPa) = 64.38853 64.41492 64.40172
# Shear Modulus (GPa) = 24.78322 27.36655 26.07488
#
# Velocity S-wave (km/s) = 3.64073 3.82578 3.73440
# Velocity P-wave (km/s) = 7.21875 7.34620 7.28276
#
# Compressibility (1/GPa) = 0.01553072
#
# Stress axis : x y z
#
# Youngs Moduli (GPa) = 45.65507 45.65519 70.91199
#
# Poissons Ratio (x) = 0.57262 0.30655
# Poissons Ratio (y) = 0.57262 0.30660
# Poissons Ratio (z) = 0.19736 0.19740
#
# Static dielectric constant tensor:
#      x y z
#    x 3.345590 0.000000 0.000000 
#    y 0.000000 3.345590 0.000000 
#    z 0.000000 0.000000 3.698760 
# 
# 
# High freq. dielectric constant tensor:
#      x y z
#    x 1.720700 0.000000 0.000000 
#    y 0.000000 1.720700 0.000000 
#    z 0.000000 0.000000 1.730570 
# 
# From -- ./inp_files/4934.got.cif
#   From: 2010.03.12/outbox.cif.g09.slc.cpg/sg137_3_cif.got.tgz:4934.got - 2010.04.08 09:34:49.
