data_PCOD8318676
_publ_section_title
;
Structure prediction by ZEFSAII (Michael W. Deem and Ramdas Pophale) SiO2 
 PCOD8318676
Probable space group: P 42/N M C
;
_chemical_formula_sum "Si O2"
_cell_formula_units_Z 112
_cell_length_a 14.101398
_cell_length_b 14.101398
_cell_length_c 29.524049
_cell_angle_alpha 90.000000
_cell_angle_beta 90.000000
_cell_angle_gamma 90.000000
_cell_volume 5870.840184
_symmetry_space_group_name_H-M "P 42/N M C"
_symmetry_group_IT_number 137
_space_group.IT_coordinate_system_code '2'
_symmetry_cell_setting 'tetragonal'
loop_
_space_group_symop_operation_xyz
x,y,z
1/2-y,x,1/2+z
1/2-x,1/2-y,z
y,1/2-x,1/2+z
1/2+x,-y,-z
-x,1/2+y,-z
1/2+y,1/2+x,1/2-z
-y,-x,1/2-z
-x,-y,-z
1/2+y,-x,1/2-z
1/2+x,1/2+y,-z
-y,1/2+x,1/2-z
1/2-x,y,z
x,1/2-y,z
1/2-y,1/2-x,1/2+z
y,x,1/2+z
loop_
_atom_site_type_symbol
_atom_site_label
_atom_site_fract_x
_atom_site_fract_y
_atom_site_fract_z
Si Si1 0.145761 0.862548 0.300187
Si Si2 0.028976 0.137493 0.972458
Si Si3 0.009355 0.141605 0.301376
Si Si4 0.501052 0.861557 0.464533
Si Si5 0.857811 0.987453 0.300353
Si Si6 0.475960 0.359816 0.640455
Si Si7 0.359559 0.141944 0.382920
O O1 0.108984 0.891016 0.250000
O O2 0.250000 0.906193 0.310541
O O3 0.153756 0.750000 0.302716
O O4 0.072204 0.902615 0.337134
O O5 0.021524 0.250000 0.980912
O O6 0.071286 0.112629 0.923339
O O7 0.924142 0.091408 0.977803
O O8 0.102070 0.092991 0.008515
O O9 0.980453 0.250000 0.308701
O O10 0.050529 0.124845 0.250836
O O11 0.087482 0.108908 0.337543
O O12 0.914529 0.083173 0.309885
O O13 0.480862 0.750000 0.474390
O O14 0.524455 0.879657 0.412411
O O15 0.750000 0.014558 0.308787
O O16 0.885682 0.907203 0.336209
O O17 0.469302 0.250000 0.651725
O O18 0.250000 0.134636 0.371322
O O19 0.386538 0.250000 0.396783
#
# Coordination Sequence:
#
# PCOD8318676 Si02
#       7
#    16  16  16  16  16  16  16
#     4   8  15  29  49  76 110 145 179 213 250 301
#     4  10  21  38  60  85 110 141 183 230 280 332
#     4   9  19  35  54  76 103 136 178 232 286 330
#     4  10  22  39  58  82 114 148 184 227 275 331
#     4  10  21  35  51  72 103 143 186 230 271 318
#     4  10  21  35  53  80 113 151 183 211 259 326
#     4   9  17  32  57  86 111 135 169 219 280 339
#
# _framework density 19.077338000000001
#
# number of rings (size 3 to 8) (size 9 to 14) (size 15 to 20)
#    0.000    2.571    0.000    1.714    2.000    3.429 
#    0.000    6.429    0.000    0.000    0.000    4.000 
#    0.000    0.000    0.000    0.000    0.000    0.000 
#
# Total GULP energy -1388684.253999 kJ/mol
# GULP energy per Si atom -12398.966554 kJ/mol
# Density = 1.903392 g / cm^3
# Si number density = 19.077338 Si / 1000 Ang^3
#
#
#
# Elastic Constant Matrix: (Units=GPa)
#
#
# Indices 1 2 3 4 5 6 
#
# 1 101.3832 54.2946 58.6604 0.0000 0.0000 0.0000
# 2 54.2946 101.3832 58.6604 0.0000 0.0000 0.0000
# 3 58.6604 58.6604 118.0675 0.0000 0.0000 0.0000
# 4 0.0000 0.0000 0.0000 28.5384 0.0000 0.0000
# 5 0.0000 0.0000 0.0000 0.0000 28.5384 0.0000
# 6 0.0000 0.0000 0.0000 0.0000 0.0000 27.6975
#
#
#
# Elastic Compliance Matrix: (Units=1/GPa)
#
#
# Indices 1 2 3 4 5 6 
#
# 1 0.015752 -0.005484 -0.005102 0.000000 0.000000 0.000000
# 2 -0.005484 0.015752 -0.005102 0.000000 0.000000 0.000000
# 3 -0.005102 -0.005102 0.013539 0.000000 0.000000 0.000000
# 4 0.000000 0.000000 0.000000 0.035041 0.000000 0.000000
# 5 0.000000 0.000000 0.000000 0.000000 0.035040 0.000000
# 6 0.000000 0.000000 0.000000 0.000000 0.000000 0.036104
#
#
# Mechanical properties :
#
#
# Convention : Reuss Voigt Hill
#
# Bulk Modulus (GPa) = 73.15847 73.78497 73.47172
# Shear Modulus (GPa) = 26.71506 26.90275 26.80891
#
# Velocity S-wave (km/s) = 3.74619 3.75933 3.75277
# Velocity P-wave (km/s) = 7.55934 7.58974 7.57455
#
# Compressibility (1/GPa) = 0.01366896
#
# Stress axis : x y z
#
# Youngs Moduli (GPa) = 63.48251 63.48250 73.86021
#
# Poissons Ratio (x) = 0.34815 0.37681
# Poissons Ratio (y) = 0.34815 0.37681
# Poissons Ratio (z) = 0.32386 0.32386
#
# Static dielectric constant tensor:
#      x y z
#    x 3.518950 0.000000 0.000000 
#    y 0.000000 3.518950 0.000000 
#    z 0.000000 0.000000 3.565810 
# 
# 
# High freq. dielectric constant tensor:
#      x y z
#    x 1.738980 0.000000 0.000000 
#    y 0.000000 1.738980 0.000000 
#    z 0.000000 0.000000 1.742640 
# 
# From -- ./inp_files/10698.got.cif
#   From: 2010.03.12/outbox.cif.g09.slc.cpg/sg137_6_cif.got.tgz:10698.got - 2010.04.08 09:34:49.
