data_PCOD8318022
_publ_section_title
;
Structure prediction by ZEFSAII (Michael W. Deem and Ramdas Pophale) SiO2 
 PCOD8318022
Probable space group: P 42/M N M
;
_chemical_formula_sum "Si O2"
_cell_formula_units_Z 88
_cell_length_a 19.239573
_cell_length_b 19.239573
_cell_length_c 14.029771
_cell_angle_alpha 90.000000
_cell_angle_beta 90.000000
_cell_angle_gamma 90.000000
_cell_volume 5193.276437
_symmetry_space_group_name_H-M "P 42/M N M"
_symmetry_group_IT_number 136
_symmetry_cell_setting 'tetragonal'
loop_
_space_group_symop_operation_xyz
x,y,z
1/2-y,1/2+x,1/2+z
-x,-y,z
1/2+y,1/2-x,1/2+z
1/2+x,1/2-y,1/2-z
1/2-x,1/2+y,1/2-z
y,x,-z
-y,-x,-z
-x,-y,-z
1/2+y,1/2-x,1/2-z
x,y,-z
1/2-y,1/2+x,1/2-z
1/2-x,1/2+y,1/2+z
1/2+x,1/2-y,1/2+z
-y,-x,z
y,x,z
loop_
_atom_site_type_symbol
_atom_site_label
_atom_site_fract_x
_atom_site_fract_y
_atom_site_fract_z
Si Si1 0.929101 0.293173 0.611351
Si Si2 0.610439 0.990760 0.256142
Si Si3 0.554980 0.333089 0.391600
Si Si4 0.184199 0.598849 0.607321
Si Si5 0.037748 0.845845 0.717907
Si Si6 0.058415 0.058415 0.606766
O O1 0.942980 0.280295 0.500000
O O2 0.853681 0.328143 0.631012
O O3 0.929720 0.220519 0.666117
O O4 0.988700 0.344610 0.651212
O O5 0.556920 0.930563 0.286717
O O6 0.660327 0.964422 0.173185
O O7 0.527306 0.337207 0.500000
O O8 0.598233 0.401768 0.365065
O O9 0.606417 0.266977 0.379567
O O10 0.488007 0.326905 0.323866
O O11 0.164413 0.577120 0.500000
O O12 0.096624 0.903377 0.725721
O O13 0.971120 0.873379 0.659039
O O14 0.079925 0.079925 0.500000
O O15 0.000000 0.000000 0.604986
#
# Coordination Sequence:
#
# PCOD8318022 Si02
#       6
#    16  16  16  16  16   8
#     4  10  20  33  51  77 106 135 170 208 250 304
#     4   9  17  30  50  76 104 132 165 207 255 303
#     4  10  20  35  55  77 101 131 170 214 258 303
#     4   9  18  33  53  76 102 132 168 210 255 304
#     4  11  21  34  52  76 104 134 171 213 256 302
#     4   9  18  32  49  71 101 135 168 206 253 300
#
# _framework density 16.944986
#
# number of rings (size 3 to 8) (size 9 to 14) (size 15 to 20)
#    0.000    2.273    2.727    0.545    0.000    2.909 
#    0.000    6.364    0.000    0.000    0.000    0.000 
#    0.000    0.000    0.000    0.000    0.000    0.000 
#
# Total GULP energy -1091062.302853 kJ/mol
# GULP energy per Si atom -12398.435260 kJ/mol
# Density = 1.690642 g / cm^3
# Si number density = 16.944986 Si / 1000 Ang^3
#
#
#
# Elastic Constant Matrix: (Units=GPa)
#
#
# Indices 1 2 3 4 5 6 
#
# 1 83.3652 33.9283 50.9146 0.0000 0.0000 0.0000
# 2 33.9283 83.3652 50.9146 0.0000 0.0000 0.0000
# 3 50.9146 50.9146 115.0143 0.0000 0.0000 0.0000
# 4 0.0000 0.0000 0.0000 25.7676 0.0000 0.0000
# 5 0.0000 0.0000 0.0000 0.0000 25.7676 0.0000
# 6 0.0000 0.0000 0.0000 0.0000 0.0000 20.0560
#
#
#
# Elastic Compliance Matrix: (Units=1/GPa)
#
#
# Indices 1 2 3 4 5 6 
#
# 1 0.017038 -0.003190 -0.006130 0.000000 0.000000 0.000000
# 2 -0.003190 0.017038 -0.006130 0.000000 0.000000 0.000000
# 3 -0.006130 -0.006130 0.014122 0.000000 0.000000 0.000000
# 4 0.000000 0.000000 0.000000 0.038808 0.000000 0.000000
# 5 0.000000 0.000000 0.000000 0.000000 0.038808 0.000000
# 6 0.000000 0.000000 0.000000 0.000000 0.000000 0.049860
#
#
# Mechanical properties :
#
#
# Convention : Reuss Voigt Hill
#
# Bulk Modulus (GPa) = 57.81441 61.47327 59.64384
# Shear Modulus (GPa) = 23.54713 24.05072 23.79893
#
# Velocity S-wave (km/s) = 3.73181 3.77150 3.75171
# Velocity P-wave (km/s) = 7.26371 7.43791 7.35133
#
# Compressibility (1/GPa) = 0.01729673
#
# Stress axis : x y z
#
# Youngs Moduli (GPa) = 58.69368 58.69368 70.81246
#
# Poissons Ratio (x) = 0.18724 0.43408
# Poissons Ratio (y) = 0.18724 0.43408
# Poissons Ratio (z) = 0.35979 0.35979
#
# Static dielectric constant tensor:
#      x y z
#    x 3.137750 0.000000 0.000000 
#    y 0.000000 3.137750 0.000000 
#    z 0.000000 0.000000 3.229360 
# 
# 
# High freq. dielectric constant tensor:
#      x y z
#    x 1.647220 0.000000 0.000000 
#    y 0.000000 1.647220 0.000000 
#    z 0.000000 0.000000 1.657130 
# 
# From -- ./inp_files/5052.got.cif
#   From: 2010.03.12/outbox.cif.g09.slc.cpg/sg136_3_cif.got.tgz:5052.got - 2010.04.06 18:39:43.
