data_PCOD8318764
_publ_section_title
;
Structure prediction by ZEFSAII (Michael W. Deem and Ramdas Pophale) SiO2 
 PCOD8318764
Probable space group: P 42/N M C
;
_chemical_formula_sum "Si O2"
_cell_formula_units_Z 64
_cell_length_a 14.509311
_cell_length_b 14.509311
_cell_length_c 14.744095
_cell_angle_alpha 90.000000
_cell_angle_beta 90.000000
_cell_angle_gamma 90.000000
_cell_volume 3103.928438
_symmetry_space_group_name_H-M "P 42/N M C"
_symmetry_group_IT_number 137
_space_group.IT_coordinate_system_code '2'
_symmetry_cell_setting 'tetragonal'
loop_
_space_group_symop_operation_xyz
x,y,z
1/2-y,x,1/2+z
1/2-x,1/2-y,z
y,1/2-x,1/2+z
1/2+x,-y,-z
-x,1/2+y,-z
1/2+y,1/2+x,1/2-z
-y,-x,1/2-z
-x,-y,-z
1/2+y,-x,1/2-z
1/2+x,1/2+y,-z
-y,1/2+x,1/2-z
1/2-x,y,z
x,1/2-y,z
1/2-y,1/2-x,1/2+z
y,x,1/2+z
loop_
_atom_site_type_symbol
_atom_site_label
_atom_site_fract_x
_atom_site_fract_y
_atom_site_fract_z
Si Si1 0.146598 0.853829 0.901511
Si Si2 0.648764 0.855434 0.655908
Si Si3 0.471187 0.144573 0.510947
Si Si4 0.967885 0.923337 0.812262
O O1 0.250000 0.868719 0.858060
O O2 0.136326 0.750000 0.937802
O O3 0.066333 0.873722 0.828800
O O4 0.136690 0.920853 0.987901
O O5 0.750000 0.903887 0.657546
O O6 0.662840 0.750000 0.631768
O O7 0.584922 0.896489 0.575639
O O8 0.600307 0.859864 0.753919
O O9 0.443955 0.250000 0.533908
O O10 0.449558 0.079797 0.594585
O O11 0.986315 0.013686 0.750000
#
# Coordination Sequence:
#
# PCOD8318764 Si02
#       4
#    16  16  16  16
#     4  10  22  40  63  90 123 163 207 256 307 362
#     4  10  22  40  61  89 124 161 205 255 306 365
#     4  10  22  43  63  89 124 162 207 255 308 371
#     4  12  23  38  61  92 127 159 208 252 309 368
#
# _framework density 20.619032000000001
#
# number of rings (size 3 to 8) (size 9 to 14) (size 15 to 20)
#    0.000    1.500    2.500    2.250    0.000    3.000 
#    0.000    5.000    0.000    0.000    0.000    0.000 
#    0.000    0.000    0.000    0.000    0.000    0.000 
#
# Total GULP energy -793240.697880 kJ/mol
# GULP energy per Si atom -12394.385904 kJ/mol
# Density = 2.057210 g / cm^3
# Si number density = 20.619032 Si / 1000 Ang^3
#
#
#
# Elastic Constant Matrix: (Units=GPa)
#
#
# Indices 1 2 3 4 5 6 
#
# 1 137.7592 43.4208 68.8865 0.0000 0.0000 0.0000
# 2 43.4208 137.7583 68.8863 0.0000 0.0000 0.0000
# 3 68.8865 68.8863 149.2861 0.0000 0.0000 0.0000
# 4 0.0000 0.0000 0.0000 23.3475 0.0000 0.0000
# 5 0.0000 0.0000 0.0000 0.0000 23.3475 0.0000
# 6 0.0000 0.0000 0.0000 0.0000 0.0000 16.3546
#
#
#
# Elastic Compliance Matrix: (Units=1/GPa)
#
#
# Indices 1 2 3 4 5 6 
#
# 1 0.009552 -0.001049 -0.003924 0.000000 0.000000 0.000000
# 2 -0.001049 0.009552 -0.003924 0.000000 0.000000 0.000000
# 3 -0.003924 -0.003924 0.010320 0.000000 0.000000 0.000000
# 4 0.000000 0.000000 0.000000 0.042831 0.000000 0.000000
# 5 0.000000 0.000000 0.000000 0.000000 0.042831 0.000000
# 6 0.000000 0.000000 0.000000 0.000000 0.000000 0.061145
#
#
# Mechanical properties :
#
#
# Convention : Reuss Voigt Hill
#
# Bulk Modulus (GPa) = 85.97643 87.46564 86.72103
# Shear Modulus (GPa) = 25.26548 28.85059 27.05803
#
# Velocity S-wave (km/s) = 3.50429 3.74467 3.62648
# Velocity P-wave (km/s) = 7.62637 7.82360 7.72562
#
# Compressibility (1/GPa) = 0.01163110
#
# Stress axis : x y z
#
# Youngs Moduli (GPa) = 104.69494 104.69430 96.90332
#
# Poissons Ratio (x) = 0.10978 0.38021
# Poissons Ratio (y) = 0.10978 0.38021
# Poissons Ratio (z) = 0.41078 0.41078
#
# Static dielectric constant tensor:
#      x y z
#    x 4.002260 0.000000 0.000000 
#    y 0.000000 4.002270 0.000000 
#    z 0.000000 0.000000 3.511890 
# 
# 
# High freq. dielectric constant tensor:
#      x y z
#    x 1.807530 0.000000 0.000000 
#    y 0.000000 1.807530 0.000000 
#    z 0.000000 0.000000 1.792930 
# 
# From -- ./inp_files/4699.got.cif
#   From: 2010.03.12/outbox.cif.g09.slc.cpg/sg137_3_cif.got.tgz:4699.got - 2010.04.08 09:34:49.
