data_PCOD8318706
_publ_section_title
;
Structure prediction by ZEFSAII (Michael W. Deem and Ramdas Pophale) SiO2 
 PCOD8318706
Probable space group: P 42/N M C
;
_chemical_formula_sum "Si O2"
_cell_formula_units_Z 96
_cell_length_a 19.833818
_cell_length_b 19.833818
_cell_length_c 11.197361
_cell_angle_alpha 90.000000
_cell_angle_beta 90.000000
_cell_angle_gamma 90.000000
_cell_volume 4404.821638
_symmetry_space_group_name_H-M "P 42/N M C"
_symmetry_group_IT_number 137
_space_group.IT_coordinate_system_code '2'
_symmetry_cell_setting 'tetragonal'
loop_
_space_group_symop_operation_xyz
x,y,z
1/2-y,x,1/2+z
1/2-x,1/2-y,z
y,1/2-x,1/2+z
1/2+x,-y,-z
-x,1/2+y,-z
1/2+y,1/2+x,1/2-z
-y,-x,1/2-z
-x,-y,-z
1/2+y,-x,1/2-z
1/2+x,1/2+y,-z
-y,1/2+x,1/2-z
1/2-x,y,z
x,1/2-y,z
1/2-y,1/2-x,1/2+z
y,x,1/2+z
loop_
_atom_site_type_symbol
_atom_site_label
_atom_site_fract_x
_atom_site_fract_y
_atom_site_fract_z
Si Si1 0.675617 0.945022 0.832114
Si Si2 0.673447 0.673083 0.668596
Si Si3 0.549758 0.323386 0.315252
Si Si4 0.326674 0.614852 0.570647
Si Si5 0.942519 0.904600 0.554637
Si Si6 0.614269 0.035597 0.647403
O O1 0.750000 0.956219 0.888470
O O2 0.666067 0.867059 0.793714
O O3 0.670340 0.990175 0.712923
O O4 0.616014 0.967671 0.922293
O O5 0.750000 0.668734 0.620595
O O6 0.651578 0.750000 0.691919
O O7 0.625542 0.638859 0.570568
O O8 0.519577 0.250000 0.347151
O O9 0.621232 0.327940 0.385748
O O10 0.557381 0.329424 0.172459
O O11 0.499077 0.382378 0.351105
O O12 0.250000 0.643445 0.559701
O O13 0.349475 0.586604 0.442477
O O14 0.933269 0.984789 0.570217
O O15 0.574301 0.074301 0.750000
#
# Coordination Sequence:
#
# PCOD8318706 Si02
#       6
#    16  16  16  16  16  16
#     4  10  21  37  56  82 116 157 202 254 310 367
#     4   9  19  35  54  82 119 161 210 257 306 366
#     4  10  22  40  67  98 125 159 207 266 327 390
#     4  10  23  43  67  94 126 163 208 264 327 392
#     4  11  23  37  60  87 125 167 212 261 316 381
#     4  11  25  39  61  89 124 169 207 259 311 387
#
# _framework density 21.794298999999999
#
# number of rings (size 3 to 8) (size 9 to 14) (size 15 to 20)
#    0.000    1.833    0.000    3.000    7.000    3.000 
#    0.000    4.167    0.000    0.000    0.000    0.000 
#    0.000    0.000    0.000    0.000    0.000    0.000 
#
# Total GULP energy -1190058.259809 kJ/mol
# GULP energy per Si atom -12396.440206 kJ/mol
# Density = 2.174469 g / cm^3
# Si number density = 21.794299 Si / 1000 Ang^3
#
#
#
# Elastic Constant Matrix: (Units=GPa)
#
#
# Indices 1 2 3 4 5 6 
#
# 1 65.8543 10.6763 19.1434 0.0000 0.0000 0.0000
# 2 10.6763 65.8543 19.1434 0.0000 0.0000 0.0000
# 3 19.1434 19.1434 107.9248 0.0000 0.0000 0.0000
# 4 0.0000 0.0000 0.0000 29.2388 0.0000 0.0000
# 5 0.0000 0.0000 0.0000 0.0000 29.2388 0.0000
# 6 0.0000 0.0000 0.0000 0.0000 0.0000 26.2959
#
#
#
# Elastic Compliance Matrix: (Units=1/GPa)
#
#
# Indices 1 2 3 4 5 6 
#
# 1 0.016231 -0.001892 -0.002543 0.000000 0.000000 0.000000
# 2 -0.001892 0.016231 -0.002543 0.000000 0.000000 0.000000
# 3 -0.002543 -0.002543 0.010168 0.000000 0.000000 0.000000
# 4 0.000000 0.000000 0.000000 0.034201 0.000000 0.000000
# 5 0.000000 0.000000 0.000000 0.000000 0.034201 0.000000
# 6 0.000000 0.000000 0.000000 0.000000 0.000000 0.038029
#
#
# Mechanical properties :
#
#
# Convention : Reuss Voigt Hill
#
# Bulk Modulus (GPa) = 34.87668 37.50665 36.19166
# Shear Modulus (GPa) = 28.97266 29.66606 29.31936
#
# Velocity S-wave (km/s) = 3.65001 3.69343 3.67178
# Velocity P-wave (km/s) = 5.81385 5.95275 5.88371
#
# Compressibility (1/GPa) = 0.02867246
#
# Stress axis : x y z
#
# Youngs Moduli (GPa) = 61.61002 61.61002 98.34767
#
# Poissons Ratio (x) = 0.11657 0.25014
# Poissons Ratio (y) = 0.11657 0.25014
# Poissons Ratio (z) = 0.15670 0.15670
#
# Static dielectric constant tensor:
#      x y z
#    x 3.913700 0.000000 0.000000 
#    y 0.000000 3.913700 0.000000 
#    z 0.000000 0.000000 3.817190 
# 
# 
# High freq. dielectric constant tensor:
#      x y z
#    x 1.853930 0.000000 0.000000 
#    y 0.000000 1.853930 0.000000 
#    z 0.000000 0.000000 1.851710 
# 
# From -- ./inp_files/3774.got.cif
#   From: 2010.03.12/outbox.cif.g09.slc.cpg/sg137_2_cif.got.tgz:3774.got - 2010.04.08 09:34:49.
