data_PCOD8318241
_publ_section_title
;
Structure prediction by ZEFSAII (Michael W. Deem and Ramdas Pophale) SiO2 
 PCOD8318241
Probable space group: P 42/M N M
;
_chemical_formula_sum "Si O2"
_cell_formula_units_Z 96
_cell_length_a 23.628481
_cell_length_b 23.628481
_cell_length_c 8.861830
_cell_angle_alpha 90.000000
_cell_angle_beta 90.000000
_cell_angle_gamma 90.000000
_cell_volume 4947.605012
_symmetry_space_group_name_H-M "P 42/M N M"
_symmetry_group_IT_number 136
_symmetry_cell_setting 'tetragonal'
loop_
_space_group_symop_operation_xyz
x,y,z
1/2-y,1/2+x,1/2+z
-x,-y,z
1/2+y,1/2-x,1/2+z
1/2+x,1/2-y,1/2-z
1/2-x,1/2+y,1/2-z
y,x,-z
-y,-x,-z
-x,-y,-z
1/2+y,1/2-x,1/2-z
x,y,-z
1/2-y,1/2+x,1/2-z
1/2-x,1/2+y,1/2+z
1/2+x,1/2-y,1/2+z
-y,-x,z
y,x,z
loop_
_atom_site_type_symbol
_atom_site_label
_atom_site_fract_x
_atom_site_fract_y
_atom_site_fract_z
Si Si1 0.592713 0.881621 0.668485
Si Si2 0.996921 0.652416 0.668884
Si Si3 0.703015 0.169560 0.322799
Si Si4 0.232342 0.014058 0.823359
Si Si5 0.195892 0.892245 0.173180
Si Si6 0.864476 0.772952 0.326728
O O1 0.583326 0.857987 0.500000
O O2 0.533162 0.897378 0.749359
O O3 0.615957 0.834577 0.781187
O O4 0.635766 0.932376 0.663245
O O5 0.018515 0.665528 0.500000
O O6 0.004140 0.704918 0.779510
O O7 0.705979 0.180316 0.500000
O O8 0.764876 0.152401 0.263679
O O9 0.674789 0.225474 0.250776
O O10 0.195444 0.958504 0.773257
O O11 0.216936 0.072809 0.740620
O O12 0.226844 0.026191 0.000000
O O13 0.131873 0.868128 0.189822
O O14 0.216690 0.890697 0.000000
O O15 0.872091 0.754074 0.500000
O O16 0.832847 0.832847 0.312330
#
# Coordination Sequence:
#
# PCOD8318241 Si02
#       6
#    16  16  16  16  16  16
#     4  11  23  38  57  80 113 155 199 244 294 345
#     4  11  23  38  58  82 113 154 200 248 293 343
#     4  12  23  35  58  89 120 154 194 242 292 346
#     4  11  22  37  62  88 115 153 193 238 288 349
#     4  10  22  40  61  87 121 157 191 233 292 354
#     4  11  24  41  61  86 120 158 194 239 296 352
#
# _framework density 19.403327999999998
#
# number of rings (size 3 to 8) (size 9 to 14) (size 15 to 20)
#    0.000    1.000    3.333    4.000    0.000    6.667 
#    0.000    1.667    0.000    0.500    0.000    3.500 
#    0.000    0.000    0.000    0.000    0.000    0.000 
#
# Total GULP energy -1189591.211005 kJ/mol
# GULP energy per Si atom -12391.575115 kJ/mol
# Density = 1.935916 g / cm^3
# Si number density = 19.403328 Si / 1000 Ang^3
#
#
#
# Elastic Constant Matrix: (Units=GPa)
#
#
# Indices 1 2 3 4 5 6 
#
# 1 79.2051 49.7782 48.2353 0.0000 0.0000 0.0000
# 2 49.7782 79.2051 48.2353 0.0000 0.0000 0.0000
# 3 48.2353 48.2353 121.3871 0.0000 0.0000 0.0000
# 4 0.0000 0.0000 0.0000 26.8725 0.0000 0.0000
# 5 0.0000 0.0000 0.0000 0.0000 26.8725 0.0000
# 6 0.0000 0.0000 0.0000 0.0000 0.0000 25.8689
#
#
#
# Elastic Compliance Matrix: (Units=1/GPa)
#
#
# Indices 1 2 3 4 5 6 
#
# 1 0.022507 -0.011476 -0.004384 0.000000 0.000000 0.000000
# 2 -0.011476 0.022507 -0.004384 0.000000 0.000000 0.000000
# 3 -0.004384 -0.004384 0.011722 0.000000 0.000000 0.000000
# 4 0.000000 0.000000 0.000000 0.037213 0.000000 0.000000
# 5 0.000000 0.000000 0.000000 0.000000 0.037213 0.000000
# 6 0.000000 0.000000 0.000000 0.000000 0.000000 0.038656
#
#
# Mechanical properties :
#
#
# Convention : Reuss Voigt Hill
#
# Bulk Modulus (GPa) = 61.53589 63.58832 62.56210
# Shear Modulus (GPa) = 23.17815 24.82600 24.00207
#
# Velocity S-wave (km/s) = 3.45997 3.58085 3.52093
# Velocity P-wave (km/s) = 6.90976 7.06680 6.98872
#
# Compressibility (1/GPa) = 0.01625068
#
# Stress axis : x y z
#
# Youngs Moduli (GPa) = 44.43046 44.43046 85.31040
#
# Poissons Ratio (x) = 0.50986 0.37397
# Poissons Ratio (y) = 0.50986 0.37397
# Poissons Ratio (z) = 0.19476 0.19476
#
# Static dielectric constant tensor:
#      x y z
#    x 3.604480 0.000000 0.000000 
#    y 0.000000 3.604480 0.000000 
#    z 0.000000 0.000000 3.777360 
# 
# 
# High freq. dielectric constant tensor:
#      x y z
#    x 1.747110 0.000000 0.000000 
#    y 0.000000 1.747110 0.000000 
#    z 0.000000 0.000000 1.769440 
# 
# From -- ./inp_files/2008.got.cif
#   From: 2010.03.12/outbox.cif.g09.slc.cpg/sg136_2_cif.got.tgz:2008.got - 2010.04.06 18:39:43.
