data_PCOD8318694
_publ_section_title
;
Structure prediction by ZEFSAII (Michael W. Deem and Ramdas Pophale) SiO2 
 PCOD8318694
Probable space group: P 42/N M C
;
_chemical_formula_sum "Si O2"
_cell_formula_units_Z 48
_cell_length_a 15.132642
_cell_length_b 15.132642
_cell_length_c 9.771770
_cell_angle_alpha 90.000000
_cell_angle_beta 90.000000
_cell_angle_gamma 90.000000
_cell_volume 2237.704587
_symmetry_space_group_name_H-M "P 42/N M C"
_symmetry_group_IT_number 137
_space_group.IT_coordinate_system_code '2'
_symmetry_cell_setting 'tetragonal'
loop_
_space_group_symop_operation_xyz
x,y,z
1/2-y,x,1/2+z
1/2-x,1/2-y,z
y,1/2-x,1/2+z
1/2+x,-y,-z
-x,1/2+y,-z
1/2+y,1/2+x,1/2-z
-y,-x,1/2-z
-x,-y,-z
1/2+y,-x,1/2-z
1/2+x,1/2+y,-z
-y,1/2+x,1/2-z
1/2-x,y,z
x,1/2-y,z
1/2-y,1/2-x,1/2+z
y,x,1/2+z
loop_
_atom_site_type_symbol
_atom_site_label
_atom_site_fract_x
_atom_site_fract_y
_atom_site_fract_z
Si Si1 0.467762 0.347709 0.203460
Si Si2 0.650645 0.153941 0.067653
Si Si3 0.650893 0.969683 0.979318
O O1 0.431835 0.250000 0.165614
O O2 0.572904 0.353140 0.180168
O O3 0.449125 0.368544 0.361717
O O4 0.418936 0.419590 0.112475
O O5 0.750000 0.143096 0.136188
O O6 0.644823 0.250000 0.993870
O O7 0.639278 0.075546 0.956470
O O8 0.750000 0.939647 0.939320
#
# Coordination Sequence:
#
# PCOD8318694 Si02
#       3
#    16  16  16
#     4  10  21  36  56  82 109 141 181 222 267 318
#     4   9  18  34  57  84 112 141 176 220 269 323
#     4  10  21  36  56  82 109 141 181 222 267 318
#
# _framework density 21.450552999999999
#
# number of rings (size 3 to 8) (size 9 to 14) (size 15 to 20)
#    0.000    2.333    0.000    2.000    0.000    6.000 
#    0.000   13.333    0.000    6.000    0.000   14.000 
#    0.000    0.000    0.000    0.000    0.000    0.000 
#
# Total GULP energy -594636.226098 kJ/mol
# GULP energy per Si atom -12388.254710 kJ/mol
# Density = 2.140173 g / cm^3
# Si number density = 21.450553 Si / 1000 Ang^3
#
#
#
# Elastic Constant Matrix: (Units=GPa)
#
#
# Indices 1 2 3 4 5 6 
#
# 1 150.1761 91.1237 64.1622 0.0000 0.0000 0.0000
# 2 91.1237 150.1761 64.1622 0.0000 0.0000 0.0000
# 3 64.1622 64.1622 60.9653 0.0000 0.0000 0.0000
# 4 0.0000 0.0000 0.0000 22.0505 0.0000 0.0000
# 5 0.0000 0.0000 0.0000 0.0000 22.0505 0.0000
# 6 0.0000 0.0000 0.0000 0.0000 0.0000 39.1618
#
#
#
# Elastic Compliance Matrix: (Units=1/GPa)
#
#
# Indices 1 2 3 4 5 6 
#
# 1 0.013173 -0.003761 -0.009906 0.000000 0.000000 0.000000
# 2 -0.003761 0.013173 -0.009906 0.000000 0.000000 0.000000
# 3 -0.009906 -0.009906 0.037253 0.000000 0.000000 0.000000
# 4 0.000000 0.000000 0.000000 0.045350 0.000000 0.000000
# 5 0.000000 0.000000 0.000000 0.000000 0.045350 0.000000
# 6 0.000000 0.000000 0.000000 0.000000 0.000000 0.025535
#
#
# Mechanical properties :
#
#
# Convention : Reuss Voigt Hill
#
# Bulk Modulus (GPa) = 60.77355 88.91265 74.84310
# Shear Modulus (GPa) = 21.50866 26.11051 23.80958
#
# Velocity S-wave (km/s) = 3.16999 3.49268 3.33524
# Velocity P-wave (km/s) = 6.46467 7.60297 7.05681
#
# Compressibility (1/GPa) = 0.01645453
#
# Stress axis : x y z
#
# Youngs Moduli (GPa) = 75.91223 75.91223 26.84354
#
# Poissons Ratio (x) = 0.28551 0.26590
# Poissons Ratio (y) = 0.28551 0.26590
# Poissons Ratio (z) = 0.75196 0.75196
#
# Static dielectric constant tensor:
#      x y z
#    x 4.172770 0.000000 0.000000 
#    y 0.000000 4.172770 0.000000 
#    z 0.000000 0.000000 3.154670 
# 
# 
# High freq. dielectric constant tensor:
#      x y z
#    x 1.859180 0.000000 0.000000 
#    y 0.000000 1.859180 0.000000 
#    z 0.000000 0.000000 1.787500 
# 
# From -- ./inp_files/2902.got.cif
#   From: 2010.03.12/outbox.cif.g09.slc.cpg/sg137_2_cif.got.tgz:2902.got - 2010.04.08 09:34:49.
