data_PCOD8318634
_publ_section_title
;
Structure prediction by ZEFSAII (Michael W. Deem and Ramdas Pophale) SiO2 
 PCOD8318634
Probable space group: P 42/N M C
;
_chemical_formula_sum "Si O2"
_cell_formula_units_Z 96
_cell_length_a 14.245631
_cell_length_b 14.245631
_cell_length_c 21.733926
_cell_angle_alpha 90.000000
_cell_angle_beta 90.000000
_cell_angle_gamma 90.000000
_cell_volume 4410.639531
_symmetry_space_group_name_H-M "P 42/N M C"
_symmetry_group_IT_number 137
_space_group.IT_coordinate_system_code '2'
_symmetry_cell_setting 'tetragonal'
loop_
_space_group_symop_operation_xyz
x,y,z
1/2-y,x,1/2+z
1/2-x,1/2-y,z
y,1/2-x,1/2+z
1/2+x,-y,-z
-x,1/2+y,-z
1/2+y,1/2+x,1/2-z
-y,-x,1/2-z
-x,-y,-z
1/2+y,-x,1/2-z
1/2+x,1/2+y,-z
-y,1/2+x,1/2-z
1/2-x,y,z
x,1/2-y,z
1/2-y,1/2-x,1/2+z
y,x,1/2+z
loop_
_atom_site_type_symbol
_atom_site_label
_atom_site_fract_x
_atom_site_fract_y
_atom_site_fract_z
Si Si1 0.354910 0.638113 0.817779
Si Si2 0.855008 0.519847 0.885387
Si Si3 0.859225 0.485860 0.426418
Si Si4 0.139994 0.144847 0.360335
Si Si5 0.469365 0.857797 0.064928
Si Si6 0.988372 0.856705 0.247305
O O1 0.392952 0.607049 0.750000
O O2 0.250000 0.598985 0.828474
O O3 0.353014 0.750000 0.820351
O O4 0.419375 0.596819 0.872829
O O5 0.750000 0.516459 0.911686
O O6 0.900594 0.416696 0.891589
O O7 0.856547 0.555644 0.815308
O O8 0.912546 0.594040 0.925342
O O9 0.750000 0.499169 0.415143
O O10 0.880125 0.444750 0.493946
O O11 0.250000 0.158187 0.352741
O O12 0.094693 0.250000 0.366539
O O13 0.117128 0.078599 0.419449
O O14 0.101366 0.090219 0.299494
O O15 0.449467 0.750000 0.080696
O O16 0.082293 0.917708 0.250000
O O17 0.015322 0.750000 0.227560
#
# Coordination Sequence:
#
# PCOD8318634 Si02
#       6
#    16  16  16  16  16  16
#     4   8  15  32  59  89 121 158 203 257 317 378
#     4  11  24  39  59  87 123 163 202 251 308 371
#     4  10  22  39  61  88 123 164 204 254 312 374
#     4   9  18  35  60  88 118 156 205 256 305 363
#     4  10  21  40  63  88 121 161 208 259 311 372
#     4  10  20  36  59  86 121 161 202 254 308 368
#
# _framework density 21.765550999999999
#
# number of rings (size 3 to 8) (size 9 to 14) (size 15 to 20)
#    0.000    2.333    1.667    1.000    0.000    3.500 
#    0.000    7.500    0.000    0.000    0.000    0.000 
#    0.000    0.333    0.000    0.000    0.000    0.000 
#
# Total GULP energy -1189960.863023 kJ/mol
# GULP energy per Si atom -12395.425656 kJ/mol
# Density = 2.171601 g / cm^3
# Si number density = 21.765551 Si / 1000 Ang^3
#
#
#
# Elastic Constant Matrix: (Units=GPa)
#
#
# Indices 1 2 3 4 5 6 
#
# 1 86.3747 26.8388 44.6763 0.0000 0.0000 0.0000
# 2 26.8388 86.3759 44.6759 0.0000 0.0000 0.0000
# 3 44.6763 44.6759 138.0957 0.0000 0.0000 0.0000
# 4 0.0000 0.0000 0.0000 22.1115 0.0000 0.0000
# 5 0.0000 0.0000 0.0000 0.0000 22.1113 0.0000
# 6 0.0000 0.0000 0.0000 0.0000 0.0000 22.9162
#
#
#
# Elastic Compliance Matrix: (Units=1/GPa)
#
#
# Indices 1 2 3 4 5 6 
#
# 1 0.014329 -0.002468 -0.003837 0.000000 0.000000 0.000000
# 2 -0.002468 0.014329 -0.003837 0.000000 0.000000 0.000000
# 3 -0.003837 -0.003837 0.009724 0.000000 0.000000 0.000000
# 4 0.000000 0.000000 0.000000 0.045225 0.000000 0.000000
# 5 0.000000 0.000000 0.000000 0.000000 0.045226 0.000000
# 6 0.000000 0.000000 0.000000 0.000000 0.000000 0.043637
#
#
# Mechanical properties :
#
#
# Convention : Reuss Voigt Hill
#
# Bulk Modulus (GPa) = 55.25586 60.35871 57.80729
# Shear Modulus (GPa) = 25.15251 26.40482 25.77867
#
# Velocity S-wave (km/s) = 3.40312 3.48681 3.44521
# Velocity P-wave (km/s) = 6.39402 6.63339 6.51481
#
# Compressibility (1/GPa) = 0.01809763
#
# Stress axis : x y z
#
# Youngs Moduli (GPa) = 69.78829 69.78977 102.83588
#
# Poissons Ratio (x) = 0.17221 0.39462
# Poissons Ratio (y) = 0.17220 0.39461
# Poissons Ratio (z) = 0.26781 0.26780
#
# Static dielectric constant tensor:
#      x y z
#    x 3.878110 0.000000 0.000000 
#    y 0.000000 3.878110 0.000000 
#    z 0.000000 0.000000 4.159950 
# 
# 
# High freq. dielectric constant tensor:
#      x y z
#    x 1.845530 0.000000 0.000000 
#    y 0.000000 1.845530 0.000000 
#    z 0.000000 0.000000 1.862350 
# 
# From -- ./inp_files/7804.got.cif
#   From: 2010.03.12/outbox.cif.g09.slc.cpg/sg137_4_cif.got.tgz:7804.got - 2010.04.08 09:34:49.
