data_PCOD8318713
_publ_section_title
;
Structure prediction by ZEFSAII (Michael W. Deem and Ramdas Pophale) SiO2 
 PCOD8318713
Probable space group: P 42/N M C
;
_chemical_formula_sum "Si O2"
_cell_formula_units_Z 96
_cell_length_a 16.140802
_cell_length_b 16.140802
_cell_length_c 18.096919
_cell_angle_alpha 90.000000
_cell_angle_beta 90.000000
_cell_angle_gamma 90.000000
_cell_volume 4714.708676
_symmetry_space_group_name_H-M "P 42/N M C"
_symmetry_group_IT_number 137
_space_group.IT_coordinate_system_code '2'
_symmetry_cell_setting 'tetragonal'
loop_
_space_group_symop_operation_xyz
x,y,z
1/2-y,x,1/2+z
1/2-x,1/2-y,z
y,1/2-x,1/2+z
1/2+x,-y,-z
-x,1/2+y,-z
1/2+y,1/2+x,1/2-z
-y,-x,1/2-z
-x,-y,-z
1/2+y,-x,1/2-z
1/2+x,1/2+y,-z
-y,1/2+x,1/2-z
1/2-x,y,z
x,1/2-y,z
1/2-y,1/2-x,1/2+z
y,x,1/2+z
loop_
_atom_site_type_symbol
_atom_site_label
_atom_site_fract_x
_atom_site_fract_y
_atom_site_fract_z
Si Si1 0.066324 0.453770 0.706348
Si Si2 0.158238 0.618213 0.012227
Si Si3 0.157514 0.073980 0.980049
Si Si4 0.345482 0.155915 0.825129
Si Si5 0.156191 0.917099 0.176421
Si Si6 0.989647 0.841664 0.934765
O O1 0.106694 0.384909 0.757985
O O2 0.129836 0.495129 0.649710
O O3 0.032260 0.532260 0.750000
O O4 0.992490 0.406532 0.664875
O O5 0.250000 0.654534 0.990185
O O6 0.146472 0.634345 0.100301
O O7 0.157860 0.523529 0.987885
O O8 0.081070 0.659615 0.970858
O O9 0.250000 0.108163 0.003113
O O10 0.137535 0.100749 0.896857
O O11 0.081056 0.104274 0.027790
O O12 0.250000 0.157019 0.803587
O O13 0.377738 0.250000 0.838201
O O14 0.135586 0.864415 0.250000
O O15 0.250000 0.949974 0.183526
O O16 0.954263 0.750000 0.937253
#
# Coordination Sequence:
#
# PCOD8318713 Si02
#       6
#    16  16  16  16  16  16
#     4  11  23  39  60  85 119 158 204 248 298 368
#     4  10  22  42  65  89 124 167 211 261 314 371
#     4  10  21  39  63  92 126 163 206 255 312 376
#     4  10  21  37  58  86 121 159 198 247 308 369
#     4  10  22  38  60  89 121 160 204 254 311 371
#     4  12  25  39  63  94 125 161 207 259 316 376
#
# _framework density 20.361809999999998
#
# number of rings (size 3 to 8) (size 9 to 14) (size 15 to 20)
#    0.000    1.500    1.667    3.000    4.667    2.833 
#    0.000    2.500    0.000    0.000    0.000    0.000 
#    0.000    0.000    0.000    0.000    0.000    0.000 
#
# Total GULP energy -1189860.392634 kJ/mol
# GULP energy per Si atom -12394.379090 kJ/mol
# Density = 2.031547 g / cm^3
# Si number density = 20.361810 Si / 1000 Ang^3
#
#
#
# Elastic Constant Matrix: (Units=GPa)
#
#
# Indices 1 2 3 4 5 6 
#
# 1 74.6806 16.1984 30.6166 0.0000 0.0000 0.0000
# 2 16.1984 74.6809 30.6166 0.0000 0.0000 0.0000
# 3 30.6166 30.6166 96.7390 0.0000 0.0000 0.0000
# 4 0.0000 0.0000 0.0000 38.9074 0.0000 0.0000
# 5 0.0000 0.0000 0.0000 0.0000 38.9050 0.0000
# 6 0.0000 0.0000 0.0000 0.0000 0.0000 -73.7594
#
#
#
# Elastic Compliance Matrix: (Units=1/GPa)
#
#
# Indices 1 2 3 4 5 6 
#
# 1 0.015543 -0.001557 -0.004426 0.000000 0.000000 0.000000
# 2 -0.001557 0.015543 -0.004426 0.000000 0.000000 0.000000
# 3 -0.004426 -0.004426 0.013139 0.000000 0.000000 0.000000
# 4 0.000000 0.000000 0.000000 0.025702 0.000000 0.000000
# 5 0.000000 0.000000 0.000000 0.000000 0.025704 0.000000
# 6 0.000000 0.000000 0.000000 0.000000 0.000000 -0.013558
#
#
# Mechanical properties :
#
#
# Convention : Reuss Voigt Hill
#
# Bulk Modulus (GPa) = 42.72518 44.55155 43.63836
# Shear Modulus (GPa) = 45.17008 12.05519 28.61264
#
# Velocity S-wave (km/s) = 4.71507 2.43585 3.75268
# Velocity P-wave (km/s) = 7.11836 5.46247 6.34467
#
# Compressibility (1/GPa) = 0.02340540
#
# Stress axis : x y z
#
# Youngs Moduli (GPa) = 64.33905 64.33937 76.10998
#
# Poissons Ratio (x) = 0.10015 0.33689
# Poissons Ratio (y) = 0.10015 0.33689
# Poissons Ratio (z) = 0.28479 0.28479
#
# Static dielectric constant tensor:
#      x y z
#    x 3.872700 0.000000 0.000000 
#    y 0.000000 3.872690 0.000000 
#    z 0.000000 0.000000 3.766880 
# 
# 
# High freq. dielectric constant tensor:
#      x y z
#    x 1.798480 0.000000 0.000000 
#    y 0.000000 1.798480 0.000000 
#    z 0.000000 0.000000 1.797070 
# 
# From -- ./inp_files/7887.got.cif
#   From: 2010.03.12/outbox.cif.g09.slc.cpg/sg137_4_cif.got.tgz:7887.got - 2010.04.08 09:34:49.
