data_PCOD8318585
_publ_section_title
;
Structure prediction by ZEFSAII (Michael W. Deem and Ramdas Pophale) SiO2 
 PCOD8318585
Probable space group: P 42/N M C
;
_chemical_formula_sum "Si O2"
_cell_formula_units_Z 112
_cell_length_a 14.527431
_cell_length_b 14.527431
_cell_length_c 25.331296
_cell_angle_alpha 90.000000
_cell_angle_beta 90.000000
_cell_angle_gamma 90.000000
_cell_volume 5346.075065
_symmetry_space_group_name_H-M "P 42/N M C"
_symmetry_group_IT_number 137
_space_group.IT_coordinate_system_code '2'
_symmetry_cell_setting 'tetragonal'
loop_
_space_group_symop_operation_xyz
x,y,z
1/2-y,x,1/2+z
1/2-x,1/2-y,z
y,1/2-x,1/2+z
1/2+x,-y,-z
-x,1/2+y,-z
1/2+y,1/2+x,1/2-z
-y,-x,1/2-z
-x,-y,-z
1/2+y,-x,1/2-z
1/2+x,1/2+y,-z
-y,1/2+x,1/2-z
1/2-x,y,z
x,1/2-y,z
1/2-y,1/2-x,1/2+z
y,x,1/2+z
loop_
_atom_site_type_symbol
_atom_site_label
_atom_site_fract_x
_atom_site_fract_y
_atom_site_fract_z
Si Si1 0.644826 0.088930 0.430584
Si Si2 0.646294 0.851082 0.314748
Si Si3 0.525167 0.649348 0.615935
Si Si4 0.859285 0.498861 0.231217
Si Si5 0.451990 0.401486 0.583714
Si Si6 0.856192 0.647666 0.023550
Si Si7 0.147737 0.857850 0.451268
O O1 0.750000 0.094193 0.408990
O O2 0.579449 0.167249 0.406329
O O3 0.644912 0.087454 0.493640
O O4 0.587250 0.002915 0.407778
O O5 0.750000 0.878642 0.332231
O O6 0.645487 0.750000 0.288564
O O7 0.608830 0.921367 0.271122
O O8 0.582577 0.844439 0.366326
O O9 0.567811 0.750000 0.624821
O O10 0.525143 0.600433 0.673197
O O11 0.590356 0.597466 0.572231
O O12 0.750000 0.484798 0.229745
O O13 0.903282 0.403282 0.250000
O O14 0.411005 0.362996 0.529556
O O15 0.563777 0.396011 0.584024
O O16 0.750000 0.660669 0.036146
O O17 0.902321 0.750000 0.017838
O O18 0.250000 0.873733 0.425517
O O19 0.133267 0.750000 0.462965
#
# Coordination Sequence:
#
# PCOD8318585 Si02
#       7
#    16  16  16  16  16  16  16
#     4  11  22  35  54  83 119 154 189 233 288 350
#     4  10  21  37  60  87 114 152 200 248 298 349
#     4  10  21  37  56  79 109 151 195 237 291 350
#     4  10  22  40  60  83 114 149 193 246 296 352
#     4  12  21  35  56  85 117 152 190 239 292 345
#     4  10  20  33  52  80 114 150 186 228 282 346
#     4  10  21  36  54  78 114 159 197 228 273 342
#
# _framework density 20.949947999999999
#
# number of rings (size 3 to 8) (size 9 to 14) (size 15 to 20)
#    0.000    1.571    1.429    4.286    0.000    4.429 
#    0.000    4.286    0.000    2.571    0.000    0.000 
#    0.000    0.000    0.000    0.000    0.000    0.000 
#
# Total GULP energy -1387847.914890 kJ/mol
# GULP energy per Si atom -12391.499240 kJ/mol
# Density = 2.090227 g / cm^3
# Si number density = 20.949948 Si / 1000 Ang^3
#
#
#
# Elastic Constant Matrix: (Units=GPa)
#
#
# Indices 1 2 3 4 5 6 
#
# 1 104.6527 23.4492 37.4669 0.0000 0.0000 0.0000
# 2 23.4492 104.6527 37.4669 0.0000 0.0000 0.0000
# 3 37.4669 37.4669 138.1344 0.0000 0.0000 0.0000
# 4 0.0000 0.0000 0.0000 24.6615 0.0000 0.0000
# 5 0.0000 0.0000 0.0000 0.0000 24.6615 0.0000
# 6 0.0000 0.0000 0.0000 0.0000 0.0000 23.1851
#
#
#
# Elastic Compliance Matrix: (Units=1/GPa)
#
#
# Indices 1 2 3 4 5 6 
#
# 1 0.010797 -0.001518 -0.002517 0.000000 0.000000 0.000000
# 2 -0.001518 0.010797 -0.002517 0.000000 0.000000 0.000000
# 3 -0.002517 -0.002517 0.008605 0.000000 0.000000 0.000000
# 4 0.000000 0.000000 0.000000 0.040549 0.000000 0.000000
# 5 0.000000 0.000000 0.000000 0.000000 0.040549 0.000000
# 6 0.000000 0.000000 0.000000 0.000000 0.000000 0.043131
#
#
# Mechanical properties :
#
#
# Convention : Reuss Voigt Hill
#
# Bulk Modulus (GPa) = 58.49729 60.46730 59.48230
# Shear Modulus (GPa) = 28.86369 31.10541 29.98455
#
# Velocity S-wave (km/s) = 3.71583 3.85742 3.78729
# Velocity P-wave (km/s) = 6.81123 6.98320 6.89775
#
# Compressibility (1/GPa) = 0.01709481
#
# Stress axis : x y z
#
# Youngs Moduli (GPa) = 92.62207 92.62207 116.21806
#
# Poissons Ratio (x) = 0.14062 0.29248
# Poissons Ratio (y) = 0.14062 0.29248
# Poissons Ratio (z) = 0.23309 0.23309
#
# Static dielectric constant tensor:
#      x y z
#    x 3.964960 0.000000 0.000000 
#    y 0.000000 3.964960 0.000000 
#    z 0.000000 0.000000 3.668920 
# 
# 
# High freq. dielectric constant tensor:
#      x y z
#    x 1.821890 0.000000 0.000000 
#    y 0.000000 1.821890 0.000000 
#    z 0.000000 0.000000 1.796200 
# 
# From -- ./inp_files/9780.got.cif
#   From: 2010.03.12/outbox.cif.g09.slc.cpg/sg137_5_cif.got.tgz:9780.got - 2010.04.08 09:34:49.
