data_PCOD8318008
_publ_section_title
;
Structure prediction by ZEFSAII (Michael W. Deem and Ramdas Pophale) SiO2 
 PCOD8318008
Probable space group: P 42/M N M
;
_chemical_formula_sum "Si O2"
_cell_formula_units_Z 128
_cell_length_a 22.118135
_cell_length_b 22.118135
_cell_length_c 13.720077
_cell_angle_alpha 90.000000
_cell_angle_beta 90.000000
_cell_angle_gamma 90.000000
_cell_volume 6712.024881
_symmetry_space_group_name_H-M "P 42/M N M"
_symmetry_group_IT_number 136
_symmetry_cell_setting 'tetragonal'
loop_
_space_group_symop_operation_xyz
x,y,z
1/2-y,1/2+x,1/2+z
-x,-y,z
1/2+y,1/2-x,1/2+z
1/2+x,1/2-y,1/2-z
1/2-x,1/2+y,1/2-z
y,x,-z
-y,-x,-z
-x,-y,-z
1/2+y,1/2-x,1/2-z
x,y,-z
1/2-y,1/2+x,1/2-z
1/2-x,1/2+y,1/2+z
1/2+x,1/2-y,1/2+z
-y,-x,z
y,x,z
loop_
_atom_site_type_symbol
_atom_site_label
_atom_site_fract_x
_atom_site_fract_y
_atom_site_fract_z
Si Si1 0.066711 0.671221 0.225890
Si Si2 0.132829 0.614228 0.608410
Si Si3 0.405648 0.496843 0.802613
Si Si4 0.433158 0.987440 0.109014
Si Si5 0.841780 0.004913 0.890262
Si Si6 0.238066 0.558856 0.714141
Si Si7 0.418446 0.682973 0.111108
Si Si8 0.129758 0.773638 0.111166
O O1 0.090060 0.660644 0.334920
O O2 0.060621 0.605688 0.172266
O O3 0.116422 0.712906 0.171801
O O4 0.002433 0.702556 0.237425
O O5 0.143131 0.639994 0.500000
O O6 0.103391 0.548828 0.603251
O O7 0.196369 0.609120 0.664355
O O8 0.457553 0.542448 0.833589
O O9 0.428927 0.428927 0.829142
O O10 0.395919 0.501824 0.686259
O O11 0.346312 0.515617 0.863679
O O12 0.500000 0.000000 0.154348
O O13 0.440821 0.960176 0.000000
O O14 0.817330 0.072563 0.881558
O O15 0.790829 0.955921 0.862551
O O16 0.864574 0.991558 0.000000
O O17 0.261382 0.589133 0.814816
O O18 0.364919 0.635081 0.129375
O O19 0.418321 0.706239 0.000000
O O20 0.188951 0.811050 0.148954
O O21 0.140242 0.753460 0.000000
#
# Coordination Sequence:
#
# PCOD8318008 Si02
#       8
#    16  16  16  16  16  16  16  16
#     4  10  20  32  54  77 106 140 171 210 256 314
#     4  10  21  35  52  76 104 137 169 203 252 309
#     4   9  17  27  41  69 107 138 166 205 258 317
#     4   9  19  33  52  79 111 140 168 205 250 310
#     4   9  16  28  48  70  95 132 176 214 251 299
#     4   9  19  35  53  75 102 137 169 212 259 311
#     4   9  18  34  55  76 100 134 178 224 267 310
#     4   9  17  31  51  73  97 128 171 218 260 302
#
# _framework density 19.070250999999999
#
# number of rings (size 3 to 8) (size 9 to 14) (size 15 to 20)
#    0.000    2.750    0.000    1.125    3.500    4.750 
#    0.000    3.750    0.000    3.750    0.000    0.000 
#    0.000    0.000    0.000    0.000    0.000    0.000 
#
# Total GULP energy -1586472.540489 kJ/mol
# GULP energy per Si atom -12394.316723 kJ/mol
# Density = 1.902685 g / cm^3
# Si number density = 19.070251 Si / 1000 Ang^3
#
#
#
# Elastic Constant Matrix: (Units=GPa)
#
#
# Indices 1 2 3 4 5 6 
#
# 1 58.3941 13.4420 36.9899 0.0000 0.0000 0.0000
# 2 13.4420 58.3941 36.9899 0.0000 0.0000 0.0000
# 3 36.9899 36.9899 132.5235 0.0000 0.0000 0.0000
# 4 0.0000 0.0000 0.0000 19.8260 0.0000 0.0000
# 5 0.0000 0.0000 0.0000 0.0000 19.8260 0.0000
# 6 0.0000 0.0000 0.0000 0.0000 0.0000 21.7329
#
#
#
# Elastic Compliance Matrix: (Units=1/GPa)
#
#
# Indices 1 2 3 4 5 6 
#
# 1 0.020891 -0.001355 -0.005453 0.000000 0.000000 0.000000
# 2 -0.001355 0.020891 -0.005453 0.000000 0.000000 0.000000
# 3 -0.005453 -0.005453 0.010590 0.000000 0.000000 0.000000
# 4 0.000000 0.000000 0.000000 0.050439 0.000000 0.000000
# 5 0.000000 0.000000 0.000000 0.000000 0.050439 0.000000
# 6 0.000000 0.000000 0.000000 0.000000 0.000000 0.046013
#
#
# Mechanical properties :
#
#
# Convention : Reuss Voigt Hill
#
# Bulk Modulus (GPa) = 35.90588 47.12836 41.51712
# Shear Modulus (GPa) = 21.45297 23.06963 22.26130
#
# Velocity S-wave (km/s) = 3.35766 3.48187 3.42033
# Velocity P-wave (km/s) = 5.82245 6.39776 6.11687
#
# Compressibility (1/GPa) = 0.02785059
#
# Stress axis : x y z
#
# Youngs Moduli (GPa) = 47.86729 47.86729 94.42978
#
# Poissons Ratio (x) = 0.06485 0.51492
# Poissons Ratio (y) = 0.06485 0.51492
# Poissons Ratio (z) = 0.26102 0.26102
#
# Static dielectric constant tensor:
#      x y z
#    x 3.428930 0.000000 0.000000 
#    y 0.000000 3.428930 0.000000 
#    z 0.000000 0.000000 3.594160 
# 
# 
# High freq. dielectric constant tensor:
#      x y z
#    x 1.722320 0.000000 0.000000 
#    y 0.000000 1.722320 0.000000 
#    z 0.000000 0.000000 1.741420 
# 
# From -- ./inp_files/4074.got.cif
#   From: 2010.03.12/outbox.cif.g09.slc.cpg/sg136_3_cif.got.tgz:4074.got - 2010.04.06 18:39:43.
