data_PCOD8318894
_publ_section_title
;
Structure prediction by ZEFSAII (Michael W. Deem and Ramdas Pophale) SiO2 
 PCOD8318894
Probable space group: P 42/N C M
;
_chemical_formula_sum "Si O2"
_cell_formula_units_Z 96
_cell_length_a 24.093835
_cell_length_b 24.093835
_cell_length_c 9.077642
_cell_angle_alpha 90.000000
_cell_angle_beta 90.000000
_cell_angle_gamma 90.000000
_cell_volume 5269.688146
_symmetry_space_group_name_H-M "P 42/N C M"
_symmetry_group_IT_number 138
_space_group.IT_coordinate_system_code '2'
_symmetry_cell_setting 'tetragonal'
loop_
_space_group_symop_operation_xyz
x,y,z
1/2-y,x,1/2+z
1/2-x,1/2-y,z
y,1/2-x,1/2+z
1/2+x,-y,1/2-z
-x,1/2+y,1/2-z
1/2+y,1/2+x,-z
-y,-x,-z
-x,-y,-z
1/2+y,-x,1/2-z
1/2+x,1/2+y,-z
-y,1/2+x,1/2-z
1/2-x,y,1/2+z
x,1/2-y,1/2+z
1/2-y,1/2-x,z
y,x,z
loop_
_atom_site_type_symbol
_atom_site_label
_atom_site_fract_x
_atom_site_fract_y
_atom_site_fract_z
Si Si1 0.695967 0.606968 0.844727
Si Si2 0.192164 0.103467 0.808259
Si Si3 0.196307 0.978258 0.820599
Si Si4 0.617746 0.120766 0.667991
Si Si5 0.689310 0.200593 0.828387
Si Si6 0.307523 0.518122 0.160342
O O1 0.647418 0.647418 0.788678
O O2 0.753704 0.626623 0.774182
O O3 0.680739 0.544909 0.789439
O O4 0.702413 0.609475 0.019101
O O5 0.139275 0.139275 0.757186
O O6 0.180580 0.039622 0.762691
O O7 0.141598 0.939928 0.789712
O O8 0.253381 0.956876 0.744463
O O9 0.210623 0.979509 0.991542
O O10 0.636024 0.136024 0.500000
O O11 0.638102 0.161868 0.794729
O O12 0.551613 0.133770 0.681427
O O13 0.675111 0.261321 0.769421
O O14 0.703612 0.203612 0.000000
#
# Coordination Sequence:
#
# PCOD8318894 Si02
#       6
#    16  16  16  16  16  16
#     4   9  18  33  52  74 100 128 158 193 236 287
#     4   9  18  33  52  74 100 128 158 193 236 287
#     4   9  18  32  49  69  95 127 161 199 241 285
#     4  10  19  31  47  68  93 123 162 201 238 283
#     4  11  21  32  45  63  89 120 156 201 251 294
#     4   9  18  32  49  69  95 127 161 199 241 285
#
# _framework density 18.217397999999999
#
# number of rings (size 3 to 8) (size 9 to 14) (size 15 to 20)
#    0.000    2.500    0.000    3.000    0.000    5.000 
#    0.000    2.500    0.000    5.000    0.000    0.000 
#    0.000   12.000    0.000    0.000    0.000    0.000 
#
# Total GULP energy -1189453.345518 kJ/mol
# GULP energy per Si atom -12390.139016 kJ/mol
# Density = 1.817593 g / cm^3
# Si number density = 18.217398 Si / 1000 Ang^3
#
#
#
# Elastic Constant Matrix: (Units=GPa)
#
#
# Indices 1 2 3 4 5 6 
#
# 1 107.6851 57.3391 18.9453 0.0000 0.0000 0.0000
# 2 57.3391 107.6851 18.9453 0.0000 0.0000 0.0000
# 3 18.9453 18.9453 48.4830 0.0000 0.0000 0.0000
# 4 0.0000 0.0000 0.0000 23.9945 0.0000 0.0000
# 5 0.0000 0.0000 0.0000 0.0000 23.9945 0.0000
# 6 0.0000 0.0000 0.0000 0.0000 0.0000 35.5657
#
#
#
# Elastic Compliance Matrix: (Units=1/GPa)
#
#
# Indices 1 2 3 4 5 6 
#
# 1 0.013260 -0.006603 -0.002601 0.000000 0.000000 0.000000
# 2 -0.006603 0.013260 -0.002601 0.000000 0.000000 0.000000
# 3 -0.002601 -0.002601 0.022659 0.000000 0.000000 0.000000
# 4 0.000000 0.000000 0.000000 0.041676 0.000000 0.000000
# 5 0.000000 0.000000 0.000000 0.000000 0.041676 0.000000
# 6 0.000000 0.000000 0.000000 0.000000 0.000000 0.028117
#
#
# Mechanical properties :
#
#
# Convention : Reuss Voigt Hill
#
# Bulk Modulus (GPa) = 39.11211 50.47921 44.79566
# Shear Modulus (GPa) = 25.93614 27.95247 26.94430
#
# Velocity S-wave (km/s) = 3.77729 3.92137 3.85000
# Velocity P-wave (km/s) = 6.36711 6.94783 6.66380
#
# Compressibility (1/GPa) = 0.02556753
#
# Stress axis : x y z
#
# Youngs Moduli (GPa) = 75.41604 75.41604 44.13306
#
# Poissons Ratio (x) = 0.49796 0.11480
# Poissons Ratio (y) = 0.49796 0.11480
# Poissons Ratio (z) = 0.19618 0.19618
#
# Static dielectric constant tensor:
#      x y z
#    x 3.450790 0.000000 0.000000 
#    y 0.000000 3.450790 0.000000 
#    z 0.000000 0.000000 3.289450 
# 
# 
# High freq. dielectric constant tensor:
#      x y z
#    x 1.695520 0.000000 0.000000 
#    y 0.000000 1.695520 0.000000 
#    z 0.000000 0.000000 1.700660 
# 
# From -- ./inp_files/1718.got.cif
#   From: 2010.03.12/outbox.cif.g09.slc.cpg/sg138_1_cif.got.tgz:1718.got - 2010.04.08 09:41:05.
