data_PCOD8318497
_publ_section_title
;
Structure prediction by ZEFSAII (Michael W. Deem and Ramdas Pophale) SiO2 
 PCOD8318497
Probable space group: P 42/N M C
;
_chemical_formula_sum "Si O2"
_cell_formula_units_Z 112
_cell_length_a 14.004764
_cell_length_b 14.004764
_cell_length_c 30.162009
_cell_angle_alpha 90.000000
_cell_angle_beta 90.000000
_cell_angle_gamma 90.000000
_cell_volume 5915.777819
_symmetry_space_group_name_H-M "P 42/N M C"
_symmetry_group_IT_number 137
_space_group.IT_coordinate_system_code '2'
_symmetry_cell_setting 'tetragonal'
loop_
_space_group_symop_operation_xyz
x,y,z
1/2-y,x,1/2+z
1/2-x,1/2-y,z
y,1/2-x,1/2+z
1/2+x,-y,-z
-x,1/2+y,-z
1/2+y,1/2+x,1/2-z
-y,-x,1/2-z
-x,-y,-z
1/2+y,-x,1/2-z
1/2+x,1/2+y,-z
-y,1/2+x,1/2-z
1/2-x,y,z
x,1/2-y,z
1/2-y,1/2-x,1/2+z
y,x,1/2+z
loop_
_atom_site_type_symbol
_atom_site_label
_atom_site_fract_x
_atom_site_fract_y
_atom_site_fract_z
Si Si1 0.861363 0.545161 0.970825
Si Si2 0.057222 0.017359 0.365623
Si Si3 0.996174 0.362928 0.770379
Si Si4 0.860110 0.542459 0.388805
Si Si5 0.139951 0.858628 0.078348
Si Si6 0.140676 0.140118 0.440926
Si Si7 0.852480 0.639109 0.299302
O O1 0.750000 0.570068 0.967395
O O2 0.913830 0.614098 0.936176
O O3 0.879652 0.431560 0.962720
O O4 0.899856 0.572480 0.019721
O O5 0.095823 0.912392 0.379326
O O6 0.943362 0.033840 0.375354
O O7 0.082526 0.029531 0.314473
O O8 0.116482 0.091430 0.394725
O O9 0.996574 0.250000 0.778607
O O10 0.068359 0.403318 0.733068
O O11 0.893560 0.393560 0.750000
O O12 0.750000 0.501873 0.389753
O O13 0.872779 0.622763 0.351145
O O14 0.250000 0.856503 0.091465
O O15 0.105118 0.750000 0.066651
O O16 0.250000 0.119836 0.454077
O O17 0.120597 0.250000 0.433117
O O18 0.750000 0.592991 0.286763
O O19 0.849917 0.750000 0.290462
#
# Coordination Sequence:
#
# PCOD8318497 Si02
#       7
#    16  16  16  16  16  16  16
#     4   9  18  32  52  78 107 141 184 231 275 322
#     4  11  22  37  55  77 110 144 181 222 272 322
#     4  11  22  36  53  77 107 142 181 216 260 318
#     4  10  19  32  54  80 106 137 175 222 277 329
#     4   9  18  32  51  77 110 149 186 219 266 329
#     4  10  21  37  56  79 108 143 184 229 276 324
#     4   9  18  33  54  79 105 132 170 223 276 321
#
# _framework density 18.932421999999999
#
# number of rings (size 3 to 8) (size 9 to 14) (size 15 to 20)
#    0.000    2.143    1.429    2.143    0.000    5.571 
#    0.000    3.571    0.000    1.286    0.000    0.000 
#    0.000    0.286    0.000    0.000    0.000    0.000 
#
# Total GULP energy -1387736.325656 kJ/mol
# GULP energy per Si atom -12390.502908 kJ/mol
# Density = 1.888933 g / cm^3
# Si number density = 18.932422 Si / 1000 Ang^3
#
#
#
# Elastic Constant Matrix: (Units=GPa)
#
#
# Indices 1 2 3 4 5 6 
#
# 1 75.3044 22.5942 31.0642 0.0000 0.0000 0.0000
# 2 22.5942 75.3044 31.0642 0.0000 0.0000 0.0000
# 3 31.0642 31.0642 113.8731 0.0000 0.0000 0.0000
# 4 0.0000 0.0000 0.0000 23.7894 0.0000 0.0000
# 5 0.0000 0.0000 0.0000 0.0000 23.7894 0.0000
# 6 0.0000 0.0000 0.0000 0.0000 0.0000 15.2816
#
#
#
# Elastic Compliance Matrix: (Units=1/GPa)
#
#
# Indices 1 2 3 4 5 6 
#
# 1 0.015662 -0.003309 -0.003370 0.000000 0.000000 0.000000
# 2 -0.003309 0.015662 -0.003370 0.000000 0.000000 0.000000
# 3 -0.003370 -0.003370 0.010620 0.000000 0.000000 0.000000
# 4 0.000000 0.000000 0.000000 0.042036 0.000000 0.000000
# 5 0.000000 0.000000 0.000000 0.000000 0.042036 0.000000
# 6 0.000000 0.000000 0.000000 0.000000 0.000000 0.065438
#
#
# Mechanical properties :
#
#
# Convention : Reuss Voigt Hill
#
# Bulk Modulus (GPa) = 45.77257 48.21412 46.99335
# Shear Modulus (GPa) = 22.84824 24.55601 23.70213
#
# Velocity S-wave (km/s) = 3.47772 3.60534 3.54211
# Velocity P-wave (km/s) = 6.35258 6.54622 6.45013
#
# Compressibility (1/GPa) = 0.02184714
#
# Stress axis : x y z
#
# Youngs Moduli (GPa) = 63.84691 63.84691 94.15908
#
# Poissons Ratio (x) = 0.21128 0.31731
# Poissons Ratio (y) = 0.21128 0.31731
# Poissons Ratio (z) = 0.21516 0.21516
#
# Static dielectric constant tensor:
#      x y z
#    x 3.629160 0.000000 0.000000 
#    y 0.000000 3.629160 0.000000 
#    z 0.000000 0.000000 3.468410 
# 
# 
# High freq. dielectric constant tensor:
#      x y z
#    x 1.726640 0.000000 0.000000 
#    y 0.000000 1.726640 0.000000 
#    z 0.000000 0.000000 1.735620 
# 
# From -- ./inp_files/9839.got.cif
#   From: 2010.03.12/outbox.cif.g09.slc.cpg/sg137_5_cif.got.tgz:9839.got - 2010.04.08 09:34:49.
