data_PCOD8318661
_publ_section_title
;
Structure prediction by ZEFSAII (Michael W. Deem and Ramdas Pophale) SiO2 
 PCOD8318661
Probable space group: P 42/N M C
;
_chemical_formula_sum "Si O2"
_cell_formula_units_Z 80
_cell_length_a 17.071579
_cell_length_b 17.071579
_cell_length_c 13.755043
_cell_angle_alpha 90.000000
_cell_angle_beta 90.000000
_cell_angle_gamma 90.000000
_cell_volume 4008.753357
_symmetry_space_group_name_H-M "P 42/N M C"
_symmetry_group_IT_number 137
_space_group.IT_coordinate_system_code '2'
_symmetry_cell_setting 'tetragonal'
loop_
_space_group_symop_operation_xyz
x,y,z
1/2-y,x,1/2+z
1/2-x,1/2-y,z
y,1/2-x,1/2+z
1/2+x,-y,-z
-x,1/2+y,-z
1/2+y,1/2+x,1/2-z
-y,-x,1/2-z
-x,-y,-z
1/2+y,-x,1/2-z
1/2+x,1/2+y,-z
-y,1/2+x,1/2-z
1/2-x,y,z
x,1/2-y,z
1/2-y,1/2-x,1/2+z
y,x,1/2+z
loop_
_atom_site_type_symbol
_atom_site_label
_atom_site_fract_x
_atom_site_fract_y
_atom_site_fract_z
Si Si1 0.573880 0.901161 0.636022
Si Si2 0.034076 0.844665 0.478289
Si Si3 0.334597 0.250000 0.365014
Si Si4 0.073880 0.401161 0.136022
Si Si5 0.844665 0.034076 0.521712
Si Si6 0.250000 0.334597 0.634986
O O1 0.493343 0.886759 0.578421
O O2 0.623749 0.827726 0.599309
O O3 0.555148 0.903461 0.750000
O O4 0.622412 0.978696 0.608017
O O5 0.034983 0.750000 0.481576
O O6 0.122265 0.877735 0.459628
O O7 0.978696 0.877588 0.391983
O O8 0.250000 0.250000 0.413780
O O9 0.329599 0.250000 0.250000
O O10 0.123749 0.327726 0.099309
O O11 0.993343 0.386759 0.078421
O O12 0.750000 0.034982 0.518424
O O13 0.250000 0.250000 0.586220
#
# Coordination Sequence:
#
# PCOD8318661 Si02
#       6
#    16  16   8  16  16   8
#     4  10  20  38  61  88 120 152 192 244 298 355
#     4  11  24  40  59  87 119 157 204 245 291 349
#     4   9  16  28  52  84 116 148 178 219 286 356
#     4  10  20  38  61  88 120 152 192 244 298 355
#     4  11  24  40  59  87 119 157 204 245 291 349
#     4   9  16  28  52  84 116 148 178 219 286 356
#
# _framework density 19.956329
#
# number of rings (size 3 to 8) (size 9 to 14) (size 15 to 20)
#    0.000    1.800    2.000    3.600    0.000    6.000 
#    0.000    0.000    0.000    0.000    0.000    5.600 
#    0.000    0.000    0.000    0.000    0.000    0.000 
#
# Total GULP energy -991200.275692 kJ/mol
# GULP energy per Si atom -12390.003446 kJ/mol
# Density = 1.991091 g / cm^3
# Si number density = 19.956329 Si / 1000 Ang^3
#
#
#
# Elastic Constant Matrix: (Units=GPa)
#
#
# Indices 1 2 3 4 5 6 
#
# 1 105.2071 86.0266 17.3441 0.0000 0.0000 0.0000
# 2 86.0266 105.2071 17.3441 0.0000 0.0000 0.0000
# 3 17.3441 17.3441 95.8438 0.0000 0.0000 0.0000
# 4 0.0000 0.0000 0.0000 9.0452 0.0000 0.0000
# 5 0.0000 0.0000 0.0000 0.0000 9.0452 0.0000
# 6 0.0000 0.0000 0.0000 0.0000 0.0000 278.5942
#
#
#
# Elastic Compliance Matrix: (Units=1/GPa)
#
#
# Indices 1 2 3 4 5 6 
#
# 1 0.028772 -0.023365 -0.000978 0.000000 0.000000 0.000000
# 2 -0.023365 0.028772 -0.000978 0.000000 0.000000 0.000000
# 3 -0.000978 -0.000978 0.010788 0.000000 0.000000 0.000000
# 4 0.000000 0.000000 0.000000 0.110556 0.000000 0.000000
# 5 0.000000 0.000000 0.000000 0.000000 0.110556 0.000000
# 6 0.000000 0.000000 0.000000 0.000000 0.000000 0.003589
#
#
# Mechanical properties :
#
#
# Convention : Reuss Voigt Hill
#
# Bulk Modulus (GPa) = 56.53713 60.85418 58.69566
# Shear Modulus (GPa) = 14.30322 71.70645 43.00484
#
# Velocity S-wave (km/s) = 2.68008 6.00081 4.64718
# Velocity P-wave (km/s) = 6.16190 8.86413 7.63354
#
# Compressibility (1/GPa) = 0.01768749
#
# Stress axis : x y z
#
# Youngs Moduli (GPa) = 34.75661 34.75661 92.69769
#
# Poissons Ratio (x) = 0.81208 0.09070
# Poissons Ratio (y) = 0.81208 0.09070
# Poissons Ratio (z) = 0.03401 0.03401
#
# Static dielectric constant tensor:
#      x y z
#    x 3.014470 0.000000 0.000000 
#    y 0.000000 3.014470 0.000000 
#    z 0.000000 0.000000 3.471090 
# 
# 
# High freq. dielectric constant tensor:
#      x y z
#    x 1.775050 0.000000 0.000000 
#    y 0.000000 1.775050 0.000000 
#    z 0.000000 0.000000 1.781150 
# 
# From -- ./inp_files/5003.got.cif
#   From: 2010.03.12/outbox.cif.g09.slc.cpg/sg137_3_cif.got.tgz:5003.got - 2010.04.08 09:34:49.
