data_PCOD8318057
_publ_section_title
;
Structure prediction by ZEFSAII (Michael W. Deem and Ramdas Pophale) SiO2 
 PCOD8318057
Probable space group: P 42/M N M
;
_chemical_formula_sum "Si O2"
_cell_formula_units_Z 96
_cell_length_a 14.937425
_cell_length_b 14.937425
_cell_length_c 22.221722
_cell_angle_alpha 90.000000
_cell_angle_beta 90.000000
_cell_angle_gamma 90.000000
_cell_volume 4958.258734
_symmetry_space_group_name_H-M "P 42/M N M"
_symmetry_group_IT_number 136
_symmetry_cell_setting 'tetragonal'
loop_
_space_group_symop_operation_xyz
x,y,z
1/2-y,1/2+x,1/2+z
-x,-y,z
1/2+y,1/2-x,1/2+z
1/2+x,1/2-y,1/2-z
1/2-x,1/2+y,1/2-z
y,x,-z
-y,-x,-z
-x,-y,-z
1/2+y,1/2-x,1/2-z
x,y,-z
1/2-y,1/2+x,1/2-z
1/2-x,1/2+y,1/2+z
1/2+x,1/2-y,1/2+z
-y,-x,z
y,x,z
loop_
_atom_site_type_symbol
_atom_site_label
_atom_site_fract_x
_atom_site_fract_y
_atom_site_fract_z
Si Si1 0.860097 0.542756 0.430857
Si Si2 0.787597 0.061684 0.167145
Si Si3 0.823405 0.033561 0.565796
Si Si4 0.074381 0.074381 0.789863
Si Si5 0.924369 0.924369 0.654745
Si Si6 0.636060 0.049436 0.262960
Si Si7 0.367924 0.957549 0.399539
O O1 0.843208 0.570158 0.500000
O O2 0.768638 0.558172 0.394362
O O3 0.939204 0.601203 0.401905
O O4 0.890243 0.440126 0.427190
O O5 0.854415 0.145585 0.164564
O O6 0.723056 0.074077 0.224273
O O7 0.842137 0.968078 0.174132
O O8 0.854031 0.997300 0.500000
O O9 0.876470 0.123531 0.582165
O O10 0.838460 0.960020 0.618001
O O11 0.719503 0.056612 0.561010
O O12 0.104004 0.104004 0.722145
O O13 0.000000 0.000000 0.780141
O O14 0.000000 0.000000 0.652666
O O15 0.554494 0.111688 0.242738
O O16 0.655754 0.070969 0.331928
#
# Coordination Sequence:
#
# PCOD8318057 Si02
#       7
#    16  16  16   8   8  16  16
#     4  11  22  40  63  87 117 161 206 249 302 360
#     4  11  23  42  62  91 123 158 204 254 305 359
#     4  10  20  34  54  85 124 161 196 234 284 356
#     4   9  20  39  61  81 115 156 195 247 305 353
#     4   9  17  34  57  81 114 159 193 227 287 360
#     4  11  19  38  62  88 120 153 192 246 307 363
#     4  11  20  38  64  87 120 157 199 247 308 362
#
# _framework density 19.361635
#
# number of rings (size 3 to 8) (size 9 to 14) (size 15 to 20)
#    0.000    1.500    3.333    4.250    0.000    3.333 
#    4.500    0.417    0.000    1.500    0.000    0.000 
#    0.000    0.000    0.000    0.000    0.000    0.000 
#
# Total GULP energy -1190319.796893 kJ/mol
# GULP energy per Si atom -12399.164551 kJ/mol
# Density = 1.931757 g / cm^3
# Si number density = 19.361635 Si / 1000 Ang^3
#
#
#
# Elastic Constant Matrix: (Units=GPa)
#
#
# Indices 1 2 3 4 5 6 
#
# 1 95.3892 37.3507 21.3462 0.0000 0.0000 0.0000
# 2 37.3507 95.3892 21.3462 0.0000 0.0000 0.0000
# 3 21.3462 21.3462 111.3915 0.0000 0.0000 0.0000
# 4 0.0000 0.0000 0.0000 22.2770 0.0000 0.0000
# 5 0.0000 0.0000 0.0000 0.0000 22.2770 0.0000
# 6 0.0000 0.0000 0.0000 0.0000 0.0000 14.1137
#
#
#
# Elastic Compliance Matrix: (Units=1/GPa)
#
#
# Indices 1 2 3 4 5 6 
#
# 1 0.012629 -0.004601 -0.001538 0.000000 0.000000 0.000000
# 2 -0.004601 0.012629 -0.001538 0.000000 0.000000 0.000000
# 3 -0.001538 -0.001538 0.009567 0.000000 0.000000 0.000000
# 4 0.000000 0.000000 0.000000 0.044889 0.000000 0.000000
# 5 0.000000 0.000000 0.000000 0.000000 0.044889 0.000000
# 6 0.000000 0.000000 0.000000 0.000000 0.000000 0.070853
#
#
# Mechanical properties :
#
#
# Convention : Reuss Voigt Hill
#
# Bulk Modulus (GPa) = 51.36181 51.36181 51.36181
# Shear Modulus (GPa) = 23.00942 26.54201 24.77572
#
# Velocity S-wave (km/s) = 3.45106 3.70652 3.58107
# Velocity P-wave (km/s) = 6.51652 6.70097 6.60939
#
# Compressibility (1/GPa) = 0.01946972
#
# Stress axis : x y z
#
# Youngs Moduli (GPa) = 79.18198 79.18198 104.52605
#
# Poissons Ratio (x) = 0.36430 0.16081
# Poissons Ratio (y) = 0.36430 0.16081
# Poissons Ratio (z) = 0.12182 0.12182
#
# Static dielectric constant tensor:
#      x y z
#    x 3.452490 0.000000 0.000000 
#    y 0.000000 3.452490 0.000000 
#    z 0.000000 0.000000 3.738190 
# 
# 
# High freq. dielectric constant tensor:
#      x y z
#    x 1.740680 0.000000 0.000000 
#    y 0.000000 1.740680 0.000000 
#    z 0.000000 0.000000 1.767230 
# 
# From -- ./inp_files/8440.got.cif
#   From: 2010.03.12/outbox.cif.g09.slc.cpg/sg136_5_cif.got.tgz:8440.got - 2010.04.06 18:39:43.
