data_PCOD8318463
_publ_section_title
;
Structure prediction by ZEFSAII (Michael W. Deem and Ramdas Pophale) SiO2 
 PCOD8318463
Probable space group: P 42/N M C
;
_chemical_formula_sum "Si O2"
_cell_formula_units_Z 112
_cell_length_a 14.138346
_cell_length_b 14.138346
_cell_length_c 27.094922
_cell_angle_alpha 90.000000
_cell_angle_beta 90.000000
_cell_angle_gamma 90.000000
_cell_volume 5416.080573
_symmetry_space_group_name_H-M "P 42/N M C"
_symmetry_group_IT_number 137
_space_group.IT_coordinate_system_code '2'
_symmetry_cell_setting 'tetragonal'
loop_
_space_group_symop_operation_xyz
x,y,z
1/2-y,x,1/2+z
1/2-x,1/2-y,z
y,1/2-x,1/2+z
1/2+x,-y,-z
-x,1/2+y,-z
1/2+y,1/2+x,1/2-z
-y,-x,1/2-z
-x,-y,-z
1/2+y,-x,1/2-z
1/2+x,1/2+y,-z
-y,1/2+x,1/2-z
1/2-x,y,z
x,1/2-y,z
1/2-y,1/2-x,1/2+z
y,x,1/2+z
loop_
_atom_site_type_symbol
_atom_site_label
_atom_site_fract_x
_atom_site_fract_y
_atom_site_fract_z
Si Si1 0.456612 0.859301 0.903153
Si Si2 0.035148 0.360860 0.859869
Si Si3 0.862452 0.145708 0.695503
Si Si4 0.143000 0.144047 0.540813
Si Si5 0.966402 0.138190 0.207493
Si Si6 0.029921 0.359131 0.442961
Si Si7 0.146197 0.361636 0.261748
O O1 0.426176 0.750000 0.908344
O O2 0.567290 0.872754 0.916308
O O3 0.440882 0.898510 0.847301
O O4 0.389018 0.919553 0.939474
O O5 0.039700 0.250000 0.870763
O O6 0.069965 0.413251 0.908189
O O7 0.101870 0.389297 0.814448
O O8 0.928501 0.394740 0.846437
O O9 0.892840 0.107161 0.750000
O O10 0.750000 0.151705 0.696907
O O11 0.904703 0.250000 0.683578
O O12 0.250000 0.135022 0.519413
O O13 0.127959 0.250000 0.562604
O O14 0.067385 0.124422 0.497949
O O15 0.896119 0.103882 0.250000
O O16 0.960544 0.250000 0.207176
O O17 0.073275 0.104581 0.219796
O O18 0.043350 0.250000 0.427068
O O19 0.250000 0.403597 0.248839
O O20 0.150183 0.250000 0.265302
#
# Coordination Sequence:
#
# PCOD8318463 Si02
#       7
#    16  16  16  16  16  16  16
#     4  10  22  39  59  83 112 149 191 232 277 331
#     4  10  19  30  49  78 109 143 183 229 284 343
#     4   8  15  29  47  68 100 143 187 229 277 341
#     4   9  19  38  64  91 116 142 176 223 281 342
#     4  10  21  36  54  78 109 146 187 229 271 318
#     4  11  22  36  57  83 112 146 185 232 282 332
#     4   9  18  32  49  71 101 136 177 228 283 336
#
# _framework density 20.679161000000001
#
# number of rings (size 3 to 8) (size 9 to 14) (size 15 to 20)
#    0.000    2.429    0.000    2.571    0.000    5.857 
#    0.000    5.000    0.000    0.857    0.000    2.000 
#    0.000    0.000    0.000    0.000    0.000    0.000 
#
# Total GULP energy -1388463.011825 kJ/mol
# GULP energy per Si atom -12396.991177 kJ/mol
# Density = 2.063209 g / cm^3
# Si number density = 20.679161 Si / 1000 Ang^3
#
#
#
# Elastic Constant Matrix: (Units=GPa)
#
#
# Indices 1 2 3 4 5 6 
#
# 1 46.1986 28.7249 28.2699 0.0000 0.0000 0.0000
# 2 28.7249 46.1911 28.2674 0.0000 0.0000 0.0000
# 3 28.2699 28.2674 77.2533 0.0000 0.0000 0.0000
# 4 0.0000 0.0000 0.0000 30.1384 0.0000 0.0000
# 5 0.0000 0.0000 0.0000 0.0000 30.1383 0.0000
# 6 0.0000 0.0000 0.0000 0.0000 0.0000 25.3425
#
#
#
# Elastic Compliance Matrix: (Units=1/GPa)
#
#
# Indices 1 2 3 4 5 6 
#
# 1 0.037837 -0.019401 -0.006747 0.000000 0.000000 0.000000
# 2 -0.019401 0.037843 -0.006748 0.000000 0.000000 0.000000
# 3 -0.006747 -0.006748 0.017882 0.000000 0.000000 0.000000
# 4 0.000000 0.000000 0.000000 0.033180 0.000000 0.000000
# 5 0.000000 0.000000 0.000000 0.000000 0.033180 0.000000
# 6 0.000000 0.000000 0.000000 0.000000 0.000000 0.039459
#
#
# Mechanical properties :
#
#
# Convention : Reuss Voigt Hill
#
# Bulk Modulus (GPa) = 36.00776 37.79639 36.90207
# Shear Modulus (GPa) = 18.21947 22.74923 20.48435
#
# Velocity S-wave (km/s) = 2.97148 3.32038 3.15076
# Velocity P-wave (km/s) = 5.40586 5.74605 5.57855
#
# Compressibility (1/GPa) = 0.02777179
#
# Stress axis : x y z
#
# Youngs Moduli (GPa) = 26.42892 26.42477 55.92066
#
# Poissons Ratio (x) = 0.51266 0.37731
# Poissons Ratio (y) = 0.51274 0.37733
# Poissons Ratio (z) = 0.17832 0.17830
#
# Static dielectric constant tensor:
#      x y z
#    x 3.939400 0.000000 0.000000 
#    y 0.000000 3.939400 0.000000 
#    z 0.000000 0.000000 3.550270 
# 
# 
# High freq. dielectric constant tensor:
#      x y z
#    x 1.813950 0.000000 0.000000 
#    y 0.000000 1.813950 0.000000 
#    z 0.000000 0.000000 1.783040 
# 
# From -- ./inp_files/9762.got.cif
#   From: 2010.03.12/outbox.cif.g09.slc.cpg/sg137_5_cif.got.tgz:9762.got - 2010.04.08 09:34:49.
