data_PCOD8318851
_publ_section_title
;
Structure prediction by ZEFSAII (Michael W. Deem and Ramdas Pophale) SiO2 
 PCOD8318851
Probable space group: P 42/N C M
;
_chemical_formula_sum "Si O2"
_cell_formula_units_Z 96
_cell_length_a 19.502778
_cell_length_b 19.502778
_cell_length_c 12.410028
_cell_angle_alpha 90.000000
_cell_angle_beta 90.000000
_cell_angle_gamma 90.000000
_cell_volume 4720.257770
_symmetry_space_group_name_H-M "P 42/N C M"
_symmetry_group_IT_number 138
_space_group.IT_coordinate_system_code '2'
_symmetry_cell_setting 'tetragonal'
loop_
_space_group_symop_operation_xyz
x,y,z
1/2-y,x,1/2+z
1/2-x,1/2-y,z
y,1/2-x,1/2+z
1/2+x,-y,1/2-z
-x,1/2+y,1/2-z
1/2+y,1/2+x,-z
-y,-x,-z
-x,-y,-z
1/2+y,-x,1/2-z
1/2+x,1/2+y,-z
-y,1/2+x,1/2-z
1/2-x,y,1/2+z
x,1/2-y,1/2+z
1/2-y,1/2-x,z
y,x,z
loop_
_atom_site_type_symbol
_atom_site_label
_atom_site_fract_x
_atom_site_fract_y
_atom_site_fract_z
Si Si1 0.524752 0.633315 0.433095
Si Si2 0.835102 0.123172 0.387694
Si Si3 0.744629 0.970638 0.595462
Si Si4 0.927131 0.209106 0.236279
Si Si5 0.115773 0.223322 0.711138
Si Si6 0.843566 0.951860 0.897442
O O1 0.561105 0.561105 0.459528
O O2 0.445407 0.619995 0.405936
O O3 0.531471 0.682513 0.536105
O O4 0.559640 0.668959 0.330438
O O5 0.834312 0.165689 0.500000
O O6 0.866809 0.165607 0.289473
O O7 0.757058 0.104226 0.357284
O O8 0.737504 0.900521 0.663555
O O9 0.680311 0.977068 0.515083
O O10 0.743630 0.036690 0.673566
O O11 0.983843 0.158462 0.183988
O O12 0.192371 0.192371 0.699788
O O13 0.108744 0.292488 0.642050
O O14 0.920158 0.920158 0.902290
#
# Coordination Sequence:
#
# PCOD8318851 Si02
#       6
#    16  16  16  16  16  16
#     4  10  20  36  62  94 124 163 211 260 313 372
#     4  12  23  45  68  92 126 161 205 263 321 379
#     4  10  17  37  59  86 122 167 204 254 311 368
#     4  11  23  41  66  90 123 161 208 260 321 379
#     4   9  18  33  56  85 125 170 209 252 308 370
#     4  10  20  35  57  87 124 164 209 257 309 376
#
# _framework density 20.337871
#
# number of rings (size 3 to 8) (size 9 to 14) (size 15 to 20)
#    0.000    1.667    6.667    0.500    0.000    4.333 
#    0.000    4.167    0.000    8.000    0.000    0.000 
#    0.000    0.000    0.000    0.000    0.000    0.000 
#
# Total GULP energy -1190314.870730 kJ/mol
# GULP energy per Si atom -12399.113237 kJ/mol
# Density = 2.029158 g / cm^3
# Si number density = 20.337871 Si / 1000 Ang^3
#
#
#
# Elastic Constant Matrix: (Units=GPa)
#
#
# Indices 1 2 3 4 5 6 
#
# 1 75.4967 39.5219 34.1485 0.0000 0.0000 0.0000
# 2 39.5219 75.4963 34.1486 0.0000 0.0000 0.0000
# 3 34.1485 34.1486 110.5851 0.0000 0.0000 0.0000
# 4 0.0000 0.0000 0.0000 21.4077 0.0000 0.0000
# 5 0.0000 0.0000 0.0000 0.0000 21.4077 0.0000
# 6 0.0000 0.0000 0.0000 0.0000 0.0000 32.8828
#
#
#
# Elastic Compliance Matrix: (Units=1/GPa)
#
#
# Indices 1 2 3 4 5 6 
#
# 1 0.019222 -0.008575 -0.003288 0.000000 0.000000 0.000000
# 2 -0.008575 0.019222 -0.003288 0.000000 0.000000 0.000000
# 3 -0.003288 -0.003288 0.011073 0.000000 0.000000 0.000000
# 4 0.000000 0.000000 0.000000 0.046712 0.000000 0.000000
# 5 0.000000 0.000000 0.000000 0.000000 0.046712 0.000000
# 6 0.000000 0.000000 0.000000 0.000000 0.000000 0.030411
#
#
# Mechanical properties :
#
#
# Convention : Reuss Voigt Hill
#
# Bulk Modulus (GPa) = 52.04090 53.02400 52.53245
# Shear Modulus (GPa) = 23.80283 25.39024 24.59653
#
# Velocity S-wave (km/s) = 3.42478 3.53713 3.48141
# Velocity P-wave (km/s) = 6.42515 6.54293 6.48431
#
# Compressibility (1/GPa) = 0.01921565
#
# Stress axis : x y z
#
# Youngs Moduli (GPa) = 52.02426 52.02388 90.30797
#
# Poissons Ratio (x) = 0.44613 0.29689
# Poissons Ratio (y) = 0.44613 0.29690
# Poissons Ratio (z) = 0.17103 0.17104
#
# Static dielectric constant tensor:
#      x y z
#    x 3.532920 0.000000 0.000000 
#    y 0.000000 3.532920 0.000000 
#    z 0.000000 0.000000 3.865760 
# 
# 
# High freq. dielectric constant tensor:
#      x y z
#    x 1.774370 0.000000 0.000000 
#    y 0.000000 1.774370 0.000000 
#    z 0.000000 0.000000 1.805890 
# 
# From -- ./inp_files/3092.got.cif
#   From: 2010.03.12/outbox.cif.g09.slc.cpg/sg138_2_cif.got.tgz:3092.got - 2010.04.08 09:41:05.
