data_PCOD8318270
_publ_section_title
;
Structure prediction by ZEFSAII (Michael W. Deem and Ramdas Pophale) SiO2 
 PCOD8318270
Probable space group: P 42/M N M
;
_chemical_formula_sum "Si O2"
_cell_formula_units_Z 88
_cell_length_a 15.223375
_cell_length_b 15.223375
_cell_length_c 17.687773
_cell_angle_alpha 90.000000
_cell_angle_beta 90.000000
_cell_angle_gamma 90.000000
_cell_volume 4099.161670
_symmetry_space_group_name_H-M "P 42/M N M"
_symmetry_group_IT_number 136
_symmetry_cell_setting 'tetragonal'
loop_
_space_group_symop_operation_xyz
x,y,z
1/2-y,1/2+x,1/2+z
-x,-y,z
1/2+y,1/2-x,1/2+z
1/2+x,1/2-y,1/2-z
1/2-x,1/2+y,1/2-z
y,x,-z
-y,-x,-z
-x,-y,-z
1/2+y,1/2-x,1/2-z
x,y,-z
1/2-y,1/2+x,1/2-z
1/2-x,1/2+y,1/2+z
1/2+x,1/2-y,1/2+z
-y,-x,z
y,x,z
loop_
_atom_site_type_symbol
_atom_site_label
_atom_site_fract_x
_atom_site_fract_y
_atom_site_fract_z
Si Si1 0.664965 0.664965 0.879365
Si Si2 0.259108 0.008725 0.414961
Si Si3 0.503503 0.707370 0.662566
Si Si4 0.363059 0.985068 0.272029
Si Si5 0.563714 0.563714 0.239231
Si Si6 0.182717 0.817284 0.914498
Si Si7 0.182782 0.182782 0.656617
Si Si8 0.809397 0.809397 0.162450
O O1 0.580853 0.703169 0.923225
O O2 0.630078 0.630078 0.799774
O O3 0.738598 0.738598 0.865700
O O4 0.288547 0.036139 0.500000
O O5 0.203874 0.086225 0.375581
O O6 0.343794 0.992189 0.361810
O O7 0.534402 0.777719 0.724203
O O8 0.498225 0.616791 0.707219
O O9 0.579780 0.704341 0.599406
O O10 0.404862 0.721107 0.629154
O O11 0.426189 0.903175 0.260718
O O12 0.500000 0.500000 0.188190
O O13 0.245351 0.754650 0.866197
O O14 0.204623 0.795378 0.000000
O O15 0.183714 0.183714 0.747028
#
# Coordination Sequence:
#
# PCOD8318270 Si02
#       8
#     8  16  16  16   8   8   8   8
#     4  12  25  39  66  99 141 184 226 271 344 414
#     4  12  26  43  64 100 142 179 221 283 352 413
#     4  11  22  39  68  96 134 171 226 283 338 398
#     4  11  23  41  66  98 128 175 235 279 331 410
#     4  11  20  36  60  98 126 169 216 288 333 399
#     4  11  26  46  68 103 137 178 231 288 353 403
#     4  12  24  42  74 100 139 175 227 290 346 406
#     4  12  22  42  69 107 128 180 239 285 332 407
#
# _framework density 21.467804000000001
#
# number of rings (size 3 to 8) (size 9 to 14) (size 15 to 20)
#    0.000    0.545    4.545    4.364    1.273    0.000 
#    0.000    8.182    0.000    0.000    0.000    0.000 
#    0.000    0.000    0.000    0.000    0.000    0.000 
#
# Total GULP energy -1090660.470421 kJ/mol
# GULP energy per Si atom -12393.868982 kJ/mol
# Density = 2.141894 g / cm^3
# Si number density = 21.467804 Si / 1000 Ang^3
#
#
#
# Elastic Constant Matrix: (Units=GPa)
#
#
# Indices 1 2 3 4 5 6 
#
# 1 113.7004 60.5950 28.3914 0.0000 0.0000 0.0000
# 2 60.5950 113.7003 28.3913 0.0000 0.0000 0.0000
# 3 28.3914 28.3913 84.1161 0.0000 0.0000 0.0000
# 4 0.0000 0.0000 0.0000 14.6011 0.0000 0.0000
# 5 0.0000 0.0000 0.0000 0.0000 14.6011 0.0000
# 6 0.0000 0.0000 0.0000 0.0000 0.0000 28.4879
#
#
#
# Elastic Compliance Matrix: (Units=1/GPa)
#
#
# Indices 1 2 3 4 5 6 
#
# 1 0.012638 -0.006192 -0.002176 0.000000 0.000000 0.000000
# 2 -0.006192 0.012638 -0.002176 0.000000 0.000000 0.000000
# 3 -0.002176 -0.002176 0.013357 0.000000 0.000000 0.000000
# 4 0.000000 0.000000 0.000000 0.068488 0.000000 0.000000
# 5 0.000000 0.000000 0.000000 0.000000 0.068488 0.000000
# 6 0.000000 0.000000 0.000000 0.000000 0.000000 0.035103
#
#
# Mechanical properties :
#
#
# Convention : Reuss Voigt Hill
#
# Bulk Modulus (GPa) = 56.99156 60.69691 58.84423
# Shear Modulus (GPa) = 21.03947 24.48062 22.76005
#
# Velocity S-wave (km/s) = 3.13397 3.38056 3.25960
# Velocity P-wave (km/s) = 6.30085 6.60094 6.45264
#
# Compressibility (1/GPa) = 0.01754646
#
# Stress axis : x y z
#
# Youngs Moduli (GPa) = 79.12422 79.12424 74.86666
#
# Poissons Ratio (x) = 0.48995 0.16289
# Poissons Ratio (y) = 0.48995 0.16289
# Poissons Ratio (z) = 0.17216 0.17216
#
# Static dielectric constant tensor:
#      x y z
#    x 3.988700 0.000000 0.000000 
#    y 0.000000 3.988710 0.000000 
#    z 0.000000 0.000000 3.586650 
# 
# 
# High freq. dielectric constant tensor:
#      x y z
#    x 1.860970 0.000000 0.000000 
#    y 0.000000 1.860970 0.000000 
#    z 0.000000 0.000000 1.809580 
# 
# From -- ./inp_files/7460.got.cif
#   From: 2010.03.12/outbox.cif.g09.slc.cpg/sg136_4_cif.got.tgz:7460.got - 2010.04.06 18:39:43.
