data_PCOD8318702
_publ_section_title
;
Structure prediction by ZEFSAII (Michael W. Deem and Ramdas Pophale) SiO2 
 PCOD8318702
Probable space group: P 42/N M C
;
_chemical_formula_sum "Si O2"
_cell_formula_units_Z 96
_cell_length_a 14.633697
_cell_length_b 14.633697
_cell_length_c 23.032722
_cell_angle_alpha 90.000000
_cell_angle_beta 90.000000
_cell_angle_gamma 90.000000
_cell_volume 4932.344277
_symmetry_space_group_name_H-M "P 42/N M C"
_symmetry_group_IT_number 137
_space_group.IT_coordinate_system_code '2'
_symmetry_cell_setting 'tetragonal'
loop_
_space_group_symop_operation_xyz
x,y,z
1/2-y,x,1/2+z
1/2-x,1/2-y,z
y,1/2-x,1/2+z
1/2+x,-y,-z
-x,1/2+y,-z
1/2+y,1/2+x,1/2-z
-y,-x,1/2-z
-x,-y,-z
1/2+y,-x,1/2-z
1/2+x,1/2+y,-z
-y,1/2+x,1/2-z
1/2-x,y,z
x,1/2-y,z
1/2-y,1/2-x,1/2+z
y,x,1/2+z
loop_
_atom_site_type_symbol
_atom_site_label
_atom_site_fract_x
_atom_site_fract_y
_atom_site_fract_z
Si Si1 0.855184 0.142508 0.620047
Si Si2 0.357855 0.849316 0.508763
Si Si3 0.997663 0.478864 0.817705
Si Si4 0.142124 0.349525 0.505904
Si Si5 0.641187 0.501764 0.402706
Si Si6 0.142666 0.355857 0.876419
O O1 0.750000 0.112487 0.630402
O O2 0.865663 0.250000 0.630368
O O3 0.887946 0.115110 0.554853
O O4 0.921030 0.091019 0.664394
O O5 0.250000 0.841429 0.506552
O O6 0.401327 0.750000 0.521298
O O7 0.388791 0.913562 0.560681
O O8 0.088196 0.421592 0.833162
O O9 0.995812 0.495812 0.750000
O O10 0.997263 0.580674 0.845075
O O11 0.250000 0.342132 0.505527
O O12 0.098742 0.250000 0.517920
O O13 0.109595 0.414034 0.557421
O O14 0.113461 0.384832 0.441988
O O15 0.750000 0.503372 0.387854
O O16 0.250000 0.369382 0.865730
O O17 0.115540 0.250000 0.865443
#
# Coordination Sequence:
#
# PCOD8318702 Si02
#       6
#    16  16  16  16  16  16
#     4   9  19  37  60  86 115 140 165 212 280 345
#     4   8  15  31  57  86 110 132 165 215 278 343
#     4  12  26  38  52  77 110 151 199 236 257 302
#     4   8  15  31  57  86 111 135 170 222 284 344
#     4  10  21  37  55  76 109 149 181 221 278 325
#     4   9  19  38  63  87 110 138 176 228 287 337
#
# _framework density 19.463363000000001
#
# number of rings (size 3 to 8) (size 9 to 14) (size 15 to 20)
#    0.000    2.667    0.000    3.500    0.000    8.667 
#    0.000    4.167    0.000    2.000    0.000    1.167 
#    0.000    0.000    0.000    0.000    0.000    0.000 
#
# Total GULP energy -1189901.263254 kJ/mol
# GULP energy per Si atom -12394.804826 kJ/mol
# Density = 1.941906 g / cm^3
# Si number density = 19.463363 Si / 1000 Ang^3
#
#
#
# Elastic Constant Matrix: (Units=GPa)
#
#
# Indices 1 2 3 4 5 6 
#
# 1 100.5244 46.9870 67.3003 0.0000 0.0000 0.0000
# 2 46.9870 100.5244 67.3003 0.0000 0.0000 0.0000
# 3 67.3003 67.3003 163.3619 0.0000 0.0000 0.0000
# 4 0.0000 0.0000 0.0000 13.3244 0.0000 0.0000
# 5 0.0000 0.0000 0.0000 0.0000 13.3244 0.0000
# 6 0.0000 0.0000 0.0000 0.0000 0.0000 14.6725
#
#
#
# Elastic Compliance Matrix: (Units=1/GPa)
#
#
# Indices 1 2 3 4 5 6 
#
# 1 0.014771 -0.003908 -0.004475 0.000000 0.000000 0.000000
# 2 -0.003908 0.014771 -0.004475 0.000000 0.000000 0.000000
# 3 -0.004475 -0.004475 0.009809 0.000000 0.000000 0.000000
# 4 0.000000 0.000000 0.000000 0.075051 0.000000 0.000000
# 5 0.000000 0.000000 0.000000 0.000000 0.075051 0.000000
# 6 0.000000 0.000000 0.000000 0.000000 0.000000 0.068155
#
#
# Mechanical properties :
#
#
# Convention : Reuss Voigt Hill
#
# Bulk Modulus (GPa) = 73.34919 80.84285 77.09602
# Shear Modulus (GPa) = 17.36920 20.45245 18.91082
#
# Velocity S-wave (km/s) = 2.99056 3.24515 3.12045
# Velocity P-wave (km/s) = 7.04927 7.46106 7.25808
#
# Compressibility (1/GPa) = 0.01363342
#
# Stress axis : x y z
#
# Youngs Moduli (GPa) = 67.70243 67.70243 101.95202
#
# Poissons Ratio (x) = 0.26458 0.45624
# Poissons Ratio (y) = 0.26458 0.45624
# Poissons Ratio (z) = 0.30297 0.30297
#
# Static dielectric constant tensor:
#      x y z
#    x 3.932250 0.000000 0.000000 
#    y 0.000000 3.932250 0.000000 
#    z 0.000000 0.000000 3.261170 
# 
# 
# High freq. dielectric constant tensor:
#      x y z
#    x 1.763090 0.000000 0.000000 
#    y 0.000000 1.763090 0.000000 
#    z 0.000000 0.000000 1.723480 
# 
# From -- ./inp_files/7795.got.cif
#   From: 2010.03.12/outbox.cif.g09.slc.cpg/sg137_4_cif.got.tgz:7795.got - 2010.04.08 09:34:49.
