data_PCOD8318964
_publ_section_title
;
Structure prediction by ZEFSAII (Michael W. Deem and Ramdas Pophale) SiO2 
 PCOD8318964
Probable space group: P 42/N C M
;
_chemical_formula_sum "Si O2"
_cell_formula_units_Z 80
_cell_length_a 12.140757
_cell_length_b 12.140757
_cell_length_c 27.566377
_cell_angle_alpha 90.000000
_cell_angle_beta 90.000000
_cell_angle_gamma 90.000000
_cell_volume 4063.228300
_symmetry_space_group_name_H-M "P 42/N C M"
_symmetry_group_IT_number 138
_space_group.IT_coordinate_system_code '2'
_symmetry_cell_setting 'tetragonal'
loop_
_space_group_symop_operation_xyz
x,y,z
1/2-y,x,1/2+z
1/2-x,1/2-y,z
y,1/2-x,1/2+z
1/2+x,-y,1/2-z
-x,1/2+y,1/2-z
1/2+y,1/2+x,-z
-y,-x,-z
-x,-y,-z
1/2+y,-x,1/2-z
1/2+x,1/2+y,-z
-y,1/2+x,1/2-z
1/2-x,y,1/2+z
x,1/2-y,1/2+z
1/2-y,1/2-x,z
y,x,z
loop_
_atom_site_type_symbol
_atom_site_label
_atom_site_fract_x
_atom_site_fract_y
_atom_site_fract_z
Si Si1 0.428163 0.252532 0.096105
Si Si2 0.330529 0.649119 0.552735
Si Si3 0.914655 0.230642 0.350220
Si Si4 0.262103 0.928211 0.682479
Si Si5 0.927139 0.752280 0.228895
O O1 0.355464 0.144537 0.087518
O O2 0.361060 0.361060 0.078743
O O3 0.542722 0.239468 0.068007
O O4 0.457148 0.264364 0.152842
O O5 0.250000 0.750000 0.546443
O O6 0.381765 0.618236 0.500000
O O7 0.419177 0.691701 0.593084
O O8 0.853437 0.133007 0.322171
O O9 0.855652 0.347685 0.339458
O O10 0.036321 0.240753 0.327577
O O11 0.270125 0.963942 0.738577
O O12 0.838609 0.661392 0.241720
O O13 0.873248 0.873248 0.237039
#
# Coordination Sequence:
#
# PCOD8318964 Si02
#       5
#    16  16  16  16  16
#     4  10  20  35  59  91 121 149 194 253 303 348
#     4  10  20  41  64  85 115 154 199 247 302 368
#     4  10  20  37  57  86 110 148 196 249 292 349
#     4  10  19  36  58  84 112 152 195 239 289 348
#     4  11  24  37  51  79 120 161 197 237 291 356
#
# _framework density 19.688777000000002
#
# number of rings (size 3 to 8) (size 9 to 14) (size 15 to 20)
#    0.000    1.800    4.000    2.400    0.000   10.800 
#    0.000    3.000    0.000    2.400    0.000    0.000 
#    0.000    0.000    0.000    0.000    0.000    0.000 
#
# Total GULP energy -991120.043864 kJ/mol
# GULP energy per Si atom -12389.000548 kJ/mol
# Density = 1.964396 g / cm^3
# Si number density = 19.688777 Si / 1000 Ang^3
#
#
#
# Elastic Constant Matrix: (Units=GPa)
#
#
# Indices 1 2 3 4 5 6 
#
# 1 95.9671 32.2039 38.7562 0.0000 0.0000 0.0000
# 2 32.2039 95.9673 38.7563 0.0000 0.0000 0.0000
# 3 38.7562 38.7563 145.1548 0.0000 0.0000 0.0000
# 4 0.0000 0.0000 0.0000 10.3728 0.0000 0.0000
# 5 0.0000 0.0000 0.0000 0.0000 10.3726 0.0000
# 6 0.0000 0.0000 0.0000 0.0000 0.0000 12.9916
#
#
#
# Elastic Compliance Matrix: (Units=1/GPa)
#
#
# Indices 1 2 3 4 5 6 
#
# 1 0.012494 -0.003189 -0.002484 0.000000 0.000000 0.000000
# 2 -0.003189 0.012494 -0.002484 0.000000 0.000000 0.000000
# 3 -0.002484 -0.002484 0.008216 0.000000 0.000000 0.000000
# 4 0.000000 0.000000 0.000000 0.096406 0.000000 0.000000
# 5 0.000000 0.000000 0.000000 0.000000 0.096408 0.000000
# 6 0.000000 0.000000 0.000000 0.000000 0.000000 0.076973
#
#
# Mechanical properties :
#
#
# Convention : Reuss Voigt Hill
#
# Bulk Modulus (GPa) = 59.21511 61.83578 60.52545
# Shear Modulus (GPa) = 15.38766 21.90557 18.64662
#
# Velocity S-wave (km/s) = 2.79865 3.33917 3.08079
# Velocity P-wave (km/s) = 6.37056 6.80746 6.59263
#
# Compressibility (1/GPa) = 0.01688758
#
# Stress axis : x y z
#
# Youngs Moduli (GPa) = 80.04005 80.04023 121.71670
#
# Poissons Ratio (x) = 0.25527 0.30238
# Poissons Ratio (y) = 0.25527 0.30238
# Poissons Ratio (z) = 0.19884 0.19884
#
# Static dielectric constant tensor:
#      x y z
#    x 3.503430 0.000000 0.000000 
#    y 0.000000 3.503430 0.000000 
#    z 0.000000 0.000000 4.113910 
# 
# 
# High freq. dielectric constant tensor:
#      x y z
#    x 1.758200 0.000000 0.000000 
#    y 0.000000 1.758200 0.000000 
#    z 0.000000 0.000000 1.762850 
# 
# From -- ./inp_files/7892.got.cif
#   From: 2010.03.12/outbox.cif.g09.slc.cpg/sg138_4_cif.got.tgz:7892.got - 2010.04.08 09:41:05.
