data_PCOD8318635
_publ_section_title
;
Structure prediction by ZEFSAII (Michael W. Deem and Ramdas Pophale) SiO2 
 PCOD8318635
Probable space group: P 42/N M C
;
_chemical_formula_sum "Si O2"
_cell_formula_units_Z 80
_cell_length_a 23.810428
_cell_length_b 23.810428
_cell_length_c 7.722827
_cell_angle_alpha 90.000000
_cell_angle_beta 90.000000
_cell_angle_gamma 90.000000
_cell_volume 4378.352367
_symmetry_space_group_name_H-M "P 42/N M C"
_symmetry_group_IT_number 137
_space_group.IT_coordinate_system_code '2'
_symmetry_cell_setting 'tetragonal'
loop_
_space_group_symop_operation_xyz
x,y,z
1/2-y,x,1/2+z
1/2-x,1/2-y,z
y,1/2-x,1/2+z
1/2+x,-y,-z
-x,1/2+y,-z
1/2+y,1/2+x,1/2-z
-y,-x,1/2-z
-x,-y,-z
1/2+y,-x,1/2-z
1/2+x,1/2+y,-z
-y,1/2+x,1/2-z
1/2-x,y,z
x,1/2-y,z
1/2-y,1/2-x,1/2+z
y,x,1/2+z
loop_
_atom_site_type_symbol
_atom_site_label
_atom_site_fract_x
_atom_site_fract_y
_atom_site_fract_z
Si Si1 0.750000 0.062630 0.475469
Si Si2 0.996315 0.750000 0.640807
Si Si3 0.870420 0.543235 0.746435
Si Si4 0.631454 0.421675 0.586784
Si Si5 0.429703 0.929703 0.750000
Si Si6 0.250000 0.027871 0.239864
Si Si7 0.462026 0.375855 0.364633
O O1 0.805505 0.095755 0.532320
O O2 0.750000 0.050200 0.267934
O O3 0.750000 0.005174 0.581616
O O4 0.012049 0.750000 0.435338
O O5 0.962854 0.691185 0.680108
O O6 0.876193 0.488343 0.624596
O O7 0.806039 0.565092 0.761047
O O8 0.901483 0.598194 0.676697
O O9 0.889903 0.524114 0.936463
O O10 0.615594 0.384407 0.750000
O O11 0.594056 0.402301 0.424954
O O12 0.495271 0.913123 0.751569
#
# Coordination Sequence:
#
# PCOD8318635 Si02
#       7
#     8   8  16  16   8   8  16
#     4  10  20  36  60  75 109 150 184 222 274 333
#     4  10  20  38  52  77 109 149 191 220 273 336
#     4  10  21  36  53  81 113 147 185 229 280 331
#     4  11  22  37  55  87 112 144 186 226 278 337
#     4  12  22  34  54  80 116 147 176 224 279 332
#     4   8  20  36  54  75 106 146 193 230 263 329
#     4  11  22  34  55  80 114 149 183 231 279 339
#
# _framework density 18.271713999999999
#
# number of rings (size 3 to 8) (size 9 to 14) (size 15 to 20)
#    0.000    1.600    4.000    1.200    4.200    1.600 
#    0.000    0.000    0.000    0.900    0.000    4.200 
#    0.000    0.400    0.000    0.000    0.000    0.000 
#
# Total GULP energy -991077.615997 kJ/mol
# GULP energy per Si atom -12388.470200 kJ/mol
# Density = 1.823013 g / cm^3
# Si number density = 18.271714 Si / 1000 Ang^3
#
#
#
# Elastic Constant Matrix: (Units=GPa)
#
#
# Indices 1 2 3 4 5 6 
#
# 1 87.1095 44.4553 27.7043 0.0000 0.0000 0.0000
# 2 44.4553 87.1102 27.7044 0.0000 0.0000 0.0000
# 3 27.7043 27.7044 109.6753 0.0000 0.0000 0.0000
# 4 0.0000 0.0000 0.0000 23.1078 0.0000 0.0000
# 5 0.0000 0.0000 0.0000 0.0000 23.1078 0.0000
# 6 0.0000 0.0000 0.0000 0.0000 0.0000 10.3770
#
#
#
# Elastic Compliance Matrix: (Units=1/GPa)
#
#
# Indices 1 2 3 4 5 6 
#
# 1 0.015975 -0.007469 -0.002149 0.000000 0.000000 0.000000
# 2 -0.007469 0.015975 -0.002149 0.000000 0.000000 0.000000
# 3 -0.002149 -0.002149 0.010203 0.000000 0.000000 0.000000
# 4 0.000000 0.000000 0.000000 0.043275 0.000000 0.000000
# 5 0.000000 0.000000 0.000000 0.000000 0.043275 0.000000
# 6 0.000000 0.000000 0.000000 0.000000 0.000000 0.096367
#
#
# Mechanical properties :
#
#
# Convention : Reuss Voigt Hill
#
# Bulk Modulus (GPa) = 53.70460 53.73589 53.72025
# Shear Modulus (GPa) = 19.62240 23.58726 21.60483
#
# Velocity S-wave (km/s) = 3.28063 3.59683 3.44236
# Velocity P-wave (km/s) = 6.61862 6.83541 6.72788
#
# Compressibility (1/GPa) = 0.01862038
#
# Stress axis : x y z
#
# Youngs Moduli (GPa) = 62.59791 62.59847 98.00763
#
# Poissons Ratio (x) = 0.46756 0.21058
# Poissons Ratio (y) = 0.46756 0.21057
# Poissons Ratio (z) = 0.13450 0.13450
#
# Static dielectric constant tensor:
#      x y z
#    x 3.323360 0.000000 0.000000 
#    y 0.000000 3.323370 0.000000 
#    z 0.000000 0.000000 3.675580 
# 
# 
# High freq. dielectric constant tensor:
#      x y z
#    x 1.680190 0.000000 0.000000 
#    y 0.000000 1.680190 0.000000 
#    z 0.000000 0.000000 1.738570 
# 
# From -- ./inp_files/2106.got.cif
#   From: 2010.03.12/outbox.cif.g09.slc.cpg/sg137_2_cif.got.tgz:2106.got - 2010.04.08 09:34:49.
