data_PCOD8318414
_publ_section_title
;
Structure prediction by ZEFSAII (Michael W. Deem and Ramdas Pophale) SiO2 
 PCOD8318414
Probable space group: P 42/N M C
;
_chemical_formula_sum "Si O2"
_cell_formula_units_Z 96
_cell_length_a 14.603866
_cell_length_b 14.603866
_cell_length_c 23.625881
_cell_angle_alpha 90.000000
_cell_angle_beta 90.000000
_cell_angle_gamma 90.000000
_cell_volume 5038.760207
_symmetry_space_group_name_H-M "P 42/N M C"
_symmetry_group_IT_number 137
_space_group.IT_coordinate_system_code '2'
_symmetry_cell_setting 'tetragonal'
loop_
_space_group_symop_operation_xyz
x,y,z
1/2-y,x,1/2+z
1/2-x,1/2-y,z
y,1/2-x,1/2+z
1/2+x,-y,-z
-x,1/2+y,-z
1/2+y,1/2+x,1/2-z
-y,-x,1/2-z
-x,-y,-z
1/2+y,-x,1/2-z
1/2+x,1/2+y,-z
-y,1/2+x,1/2-z
1/2-x,y,z
x,1/2-y,z
1/2-y,1/2-x,1/2+z
y,x,1/2+z
loop_
_atom_site_type_symbol
_atom_site_label
_atom_site_fract_x
_atom_site_fract_y
_atom_site_fract_z
Si Si1 0.750000 0.893861 0.566573
Si Si2 0.750000 0.352177 0.521989
Si Si3 0.469876 0.560788 0.185208
Si Si4 0.750000 0.424153 0.637089
Si Si5 0.144110 0.250000 0.058892
Si Si6 0.553701 0.642514 0.400800
Si Si7 0.351987 0.060818 0.884752
Si Si8 0.358914 0.944891 0.990224
O O1 0.750000 0.911179 0.499557
O O2 0.659611 0.840224 0.586007
O O3 0.750000 0.992659 0.593654
O O4 0.750000 0.250000 0.497680
O O5 0.750000 0.342469 0.591058
O O6 0.657577 0.400278 0.497856
O O7 0.466758 0.533243 0.250000
O O8 0.424049 0.660606 0.176535
O O9 0.411977 0.485429 0.152217
O O10 0.576426 0.562236 0.166744
O O11 0.250000 0.250000 0.040306
O O12 0.120875 0.161514 0.096433
O O13 0.534678 0.750000 0.391821
O O14 0.506358 0.604427 0.457909
O O15 0.250000 0.032983 0.862854
O O16 0.390420 0.988022 0.930745
O O17 0.250000 0.944742 0.993396
#
# Coordination Sequence:
#
# PCOD8318414 Si02
#       8
#     8   8  16   8   8  16  16  16
#     4  10  18  30  58  90 118 140 175 219 282 353
#     4  10  18  32  52  82 122 152 182 216 281 344
#     4  11  25  41  57  79 110 153 200 239 274 322
#     4  10  22  36  54  82 110 150 191 235 270 324
#     4  10  18  32  56  92 122 148 169 216 289 355
#     4  10  20  35  58  85 122 150 182 225 281 340
#     4  10  20  37  60  84 112 146 185 232 285 337
#     4   9  17  30  55  85 115 150 177 227 282 342
#
# _framework density 19.052305
#
# number of rings (size 3 to 8) (size 9 to 14) (size 15 to 20)
#    0.000    2.000    3.333    0.750    1.167    2.000 
#    1.500    0.000    0.000    0.000    0.000    0.000 
#    0.000    0.000    0.000    0.000    0.000    0.000 
#
# Total GULP energy -1190278.426108 kJ/mol
# GULP energy per Si atom -12398.733605 kJ/mol
# Density = 1.900894 g / cm^3
# Si number density = 19.052305 Si / 1000 Ang^3
#
#
#
# Elastic Constant Matrix: (Units=GPa)
#
#
# Indices 1 2 3 4 5 6 
#
# 1 104.0185 29.4970 44.9198 0.0000 0.0000 0.0000
# 2 29.4970 104.0191 44.9201 0.0000 0.0000 0.0000
# 3 44.9198 44.9201 118.8367 0.0000 0.0000 0.0000
# 4 0.0000 0.0000 0.0000 20.9523 0.0000 0.0000
# 5 0.0000 0.0000 0.0000 0.0000 20.9523 0.0000
# 6 0.0000 0.0000 0.0000 0.0000 0.0000 20.7292
#
#
#
# Elastic Compliance Matrix: (Units=1/GPa)
#
#
# Indices 1 2 3 4 5 6 
#
# 1 0.011732 -0.001687 -0.003797 0.000000 0.000000 0.000000
# 2 -0.001687 0.011732 -0.003797 0.000000 0.000000 0.000000
# 3 -0.003797 -0.003797 0.011285 0.000000 0.000000 0.000000
# 4 0.000000 0.000000 0.000000 0.047728 0.000000 0.000000
# 5 0.000000 0.000000 0.000000 0.000000 0.047728 0.000000
# 6 0.000000 0.000000 0.000000 0.000000 0.000000 0.048241
#
#
# Mechanical properties :
#
#
# Convention : Reuss Voigt Hill
#
# Bulk Modulus (GPa) = 61.77751 62.83867 62.30809
# Shear Modulus (GPa) = 24.70328 26.36257 25.53292
#
# Velocity S-wave (km/s) = 3.60474 3.72384 3.66478
# Velocity P-wave (km/s) = 7.05841 7.17935 7.11914
#
# Compressibility (1/GPa) = 0.01618712
#
# Stress axis : x y z
#
# Youngs Moduli (GPa) = 85.23889 85.23919 88.61105
#
# Poissons Ratio (x) = 0.14381 0.33644
# Poissons Ratio (y) = 0.14381 0.33644
# Poissons Ratio (z) = 0.32363 0.32364
#
# Static dielectric constant tensor:
#      x y z
#    x 3.619450 0.000000 0.000000 
#    y 0.000000 3.619450 0.000000 
#    z 0.000000 0.000000 3.112350 
# 
# 
# High freq. dielectric constant tensor:
#      x y z
#    x 1.746860 0.000000 0.000000 
#    y 0.000000 1.746860 0.000000 
#    z 0.000000 0.000000 1.700370 
# 
# From -- ./inp_files/8902.got.cif
#   From: 2010.03.12/outbox.cif.g09.slc.cpg/sg137_5_cif.got.tgz:8902.got - 2010.04.08 09:34:49.
