data_PCOD8318703
_publ_section_title
;
Structure prediction by ZEFSAII (Michael W. Deem and Ramdas Pophale) SiO2 
 PCOD8318703
Probable space group: P 42/N M C
;
_chemical_formula_sum "Si O2"
_cell_formula_units_Z 112
_cell_length_a 13.827772
_cell_length_b 13.827772
_cell_length_c 27.627761
_cell_angle_alpha 90.000000
_cell_angle_beta 90.000000
_cell_angle_gamma 90.000000
_cell_volume 5282.628991
_symmetry_space_group_name_H-M "P 42/N M C"
_symmetry_group_IT_number 137
_space_group.IT_coordinate_system_code '2'
_symmetry_cell_setting 'tetragonal'
loop_
_space_group_symop_operation_xyz
x,y,z
1/2-y,x,1/2+z
1/2-x,1/2-y,z
y,1/2-x,1/2+z
1/2+x,-y,-z
-x,1/2+y,-z
1/2+y,1/2+x,1/2-z
-y,-x,1/2-z
-x,-y,-z
1/2+y,-x,1/2-z
1/2+x,1/2+y,-z
-y,1/2+x,1/2-z
1/2-x,y,z
x,1/2-y,z
1/2-y,1/2-x,1/2+z
y,x,1/2+z
loop_
_atom_site_type_symbol
_atom_site_label
_atom_site_fract_x
_atom_site_fract_y
_atom_site_fract_z
Si Si1 0.856219 0.959773 0.852173
Si Si2 0.362678 0.361846 0.852215
Si Si3 0.052513 0.136424 0.952271
Si Si4 0.644450 0.358696 0.909061
Si Si5 0.864387 0.357283 0.393740
Si Si6 0.865114 0.552285 0.441504
Si Si7 0.039059 0.947017 0.695135
O O1 0.750000 0.929287 0.831941
O O2 0.871265 0.906399 0.903520
O O3 0.940424 0.934343 0.814681
O O4 0.858844 0.074743 0.861572
O O5 0.250000 0.374702 0.841753
O O6 0.394771 0.250000 0.846965
O O7 0.385634 0.403201 0.906548
O O8 0.423930 0.425321 0.814007
O O9 0.068880 0.250000 0.953359
O O10 0.939170 0.109320 0.946153
O O11 0.082504 0.095990 0.005060
O O12 0.750000 0.366652 0.934771
O O13 0.624677 0.250000 0.890696
O O14 0.750000 0.359639 0.393336
O O15 0.900742 0.250000 0.409995
O O16 0.903249 0.443017 0.428972
O O17 0.899563 0.376781 0.339070
O O18 0.750000 0.554583 0.438953
O O19 0.071123 0.928878 0.750000
#
# Coordination Sequence:
#
# PCOD8318703 Si02
#       7
#    16  16  16  16  16  16  16
#     4  10  21  37  55  80 111 146 187 228 278 338
#     4  10  21  38  60  87 118 149 184 230 284 338
#     4   9  17  32  55  83 115 151 189 226 270 326
#     4   9  17  31  52  77 109 147 183 222 269 324
#     4   9  19  37  58  82 114 148 186 235 285 335
#     4   9  19  34  55  83 116 154 191 228 272 328
#     4  11  23  39  60  82 108 142 185 239 294 346
#
# _framework density 21.201564999999999
#
# number of rings (size 3 to 8) (size 9 to 14) (size 15 to 20)
#    0.000    2.429    1.429    0.429    0.000    3.714 
#    0.000    5.000    0.000    0.000    0.000    1.000 
#    0.000    0.000    0.000    0.000    0.000    0.000 
#
# Total GULP energy -1387980.262717 kJ/mol
# GULP energy per Si atom -12392.680917 kJ/mol
# Density = 2.115331 g / cm^3
# Si number density = 21.201565 Si / 1000 Ang^3
#
#
#
# Elastic Constant Matrix: (Units=GPa)
#
#
# Indices 1 2 3 4 5 6 
#
# 1 49.9732 7.7647 1.4769 0.0000 0.0000 0.0000
# 2 7.7647 49.9736 1.4772 0.0000 0.0000 0.0000
# 3 1.4769 1.4772 87.5183 0.0000 0.0000 0.0000
# 4 0.0000 0.0000 0.0000 18.4691 0.0000 0.0000
# 5 0.0000 0.0000 0.0000 0.0000 18.4690 0.0000
# 6 0.0000 0.0000 0.0000 0.0000 0.0000 19.2826
#
#
#
# Elastic Compliance Matrix: (Units=1/GPa)
#
#
# Indices 1 2 3 4 5 6 
#
# 1 0.020513 -0.003179 -0.000293 0.000000 0.000000 0.000000
# 2 -0.003179 0.020513 -0.000293 0.000000 0.000000 0.000000
# 3 -0.000293 -0.000293 0.011436 0.000000 0.000000 0.000000
# 4 0.000000 0.000000 0.000000 0.054144 0.000000 0.000000
# 5 0.000000 0.000000 0.000000 0.000000 0.054145 0.000000
# 6 0.000000 0.000000 0.000000 0.000000 0.000000 0.051860
#
#
# Mechanical properties :
#
#
# Convention : Reuss Voigt Hill
#
# Bulk Modulus (GPa) = 22.25440 23.21142 22.73291
# Shear Modulus (GPa) = 21.26593 23.02721 22.14657
#
# Velocity S-wave (km/s) = 3.17051 3.29919 3.23549
# Velocity P-wave (km/s) = 4.89103 5.04823 4.97025
#
# Compressibility (1/GPa) = 0.04493493
#
# Stress axis : x y z
#
# Youngs Moduli (GPa) = 48.74901 48.74936 87.44269
#
# Poissons Ratio (x) = 0.15495 0.02558
# Poissons Ratio (y) = 0.15495 0.02559
# Poissons Ratio (z) = 0.01426 0.01426
#
# Static dielectric constant tensor:
#      x y z
#    x 4.011830 0.000000 0.000000 
#    y 0.000000 4.011830 0.000000 
#    z 0.000000 0.000000 3.540770 
# 
# 
# High freq. dielectric constant tensor:
#      x y z
#    x 1.838460 0.000000 0.000000 
#    y 0.000000 1.838460 0.000000 
#    z 0.000000 0.000000 1.787420 
# 
# From -- ./inp_files/9837.got.cif
#   From: 2010.03.12/outbox.cif.g09.slc.cpg/sg137_5_cif.got.tgz:9837.got - 2010.04.08 09:34:49.
