data_PCOD8318678
_publ_section_title
;
Structure prediction by ZEFSAII (Michael W. Deem and Ramdas Pophale) SiO2 
 PCOD8318678
Probable space group: P 42/N M C
;
_chemical_formula_sum "Si O2"
_cell_formula_units_Z 64
_cell_length_a 23.548154
_cell_length_b 23.548154
_cell_length_c 5.330870
_cell_angle_alpha 90.000000
_cell_angle_beta 90.000000
_cell_angle_gamma 90.000000
_cell_volume 2956.050346
_symmetry_space_group_name_H-M "P 42/N M C"
_symmetry_group_IT_number 137
_space_group.IT_coordinate_system_code '2'
_symmetry_cell_setting 'tetragonal'
loop_
_space_group_symop_operation_xyz
x,y,z
1/2-y,x,1/2+z
1/2-x,1/2-y,z
y,1/2-x,1/2+z
1/2+x,-y,-z
-x,1/2+y,-z
1/2+y,1/2+x,1/2-z
-y,-x,1/2-z
-x,-y,-z
1/2+y,-x,1/2-z
1/2+x,1/2+y,-z
-y,1/2+x,1/2-z
1/2-x,y,z
x,1/2-y,z
1/2-y,1/2-x,1/2+z
y,x,1/2+z
loop_
_atom_site_type_symbol
_atom_site_label
_atom_site_fract_x
_atom_site_fract_y
_atom_site_fract_z
Si Si1 0.410614 0.458719 0.476217
Si Si2 0.653796 0.067547 0.501316
Si Si3 0.310701 0.597810 0.998737
Si Si4 0.366288 0.183753 0.982694
O O1 0.448787 0.442270 0.713892
O O2 0.400193 0.526117 0.495454
O O3 0.350945 0.425226 0.483364
O O4 0.637803 0.134502 0.499789
O O5 0.688690 0.056809 0.246098
O O6 0.689521 0.057372 0.754779
O O7 0.250000 0.631412 0.996372
O O8 0.381550 0.250000 0.982052
O O9 0.330456 0.169290 0.733224
#
# Coordination Sequence:
#
# PCOD8318678 Si02
#       4
#    16  16  16  16
#     4  10  21  39  59  85 121 157 199 251 300 352
#     4  10  21  39  62  89 117 158 202 241 309 366
#     4  10  21  38  60  88 120 150 196 250 297 365
#     4  10  21  35  53  79 111 150 195 242 294 350
#
# _framework density 21.650509
#
# number of rings (size 3 to 8) (size 9 to 14) (size 15 to 20)
#    0.000    2.000    0.000    3.000    0.000    3.500 
#    0.000   15.000    0.000   36.000    0.000    0.000 
#    0.000    0.000    0.000    0.000    0.000    0.000 
#
# Total GULP energy -792899.608292 kJ/mol
# GULP energy per Si atom -12389.056380 kJ/mol
# Density = 2.160123 g / cm^3
# Si number density = 21.650509 Si / 1000 Ang^3
#
#
#
# Elastic Constant Matrix: (Units=GPa)
#
#
# Indices 1 2 3 4 5 6 
#
# 1 90.3163 38.1676 18.9801 0.0000 0.0000 0.0000
# 2 38.1676 90.3163 18.9801 0.0000 0.0000 0.0000
# 3 18.9801 18.9801 212.6856 0.0000 0.0000 0.0000
# 4 0.0000 0.0000 0.0000 104.1769 0.0000 0.0000
# 5 0.0000 0.0000 0.0000 0.0000 104.1769 0.0000
# 6 0.0000 0.0000 0.0000 0.0000 0.0000 17.6519
#
#
#
# Elastic Compliance Matrix: (Units=1/GPa)
#
#
# Indices 1 2 3 4 5 6 
#
# 1 0.013585 -0.005591 -0.000713 0.000000 0.000000 0.000000
# 2 -0.005591 0.013585 -0.000713 0.000000 0.000000 0.000000
# 3 -0.000713 -0.000713 0.004829 0.000000 0.000000 0.000000
# 4 0.000000 0.000000 0.000000 0.009599 0.000000 0.000000
# 5 0.000000 0.000000 0.000000 0.000000 0.009599 0.000000
# 6 0.000000 0.000000 0.000000 0.000000 0.000000 0.056651
#
#
# Mechanical properties :
#
#
# Convention : Reuss Voigt Hill
#
# Bulk Modulus (GPa) = 55.66909 60.61931 58.14420
# Shear Modulus (GPa) = 39.10176 66.34717 52.72447
#
# Velocity S-wave (km/s) = 4.25437 5.54176 4.94018
# Velocity P-wave (km/s) = 7.06408 8.30711 7.71068
#
# Compressibility (1/GPa) = 0.01796329
#
# Stress axis : x y z
#
# Youngs Moduli (GPa) = 73.61123 73.61123 207.07793
#
# Poissons Ratio (x) = 0.41156 0.14772
# Poissons Ratio (y) = 0.41156 0.14772
# Poissons Ratio (z) = 0.05251 0.05251
#
# Static dielectric constant tensor:
#      x y z
#    x 3.612520 0.000000 0.000000 
#    y 0.000000 3.612520 0.000000 
#    z 0.000000 0.000000 5.818900 
# 
# 
# High freq. dielectric constant tensor:
#      x y z
#    x 1.825280 0.000000 0.000000 
#    y 0.000000 1.825280 0.000000 
#    z 0.000000 0.000000 1.898300 
# 
# From -- ./inp_files/443.got.cif
#   From: 2010.03.12/outbox.cif.g09.slc.cpg/sg137_1_cif.got.tgz:443.got - 2010.04.08 09:34:49.
