data_PCOD8318693
_publ_section_title
;
Structure prediction by ZEFSAII (Michael W. Deem and Ramdas Pophale) SiO2 
 PCOD8318693
Probable space group: P 42/N M C
;
_chemical_formula_sum "Si O2"
_cell_formula_units_Z 96
_cell_length_a 14.594726
_cell_length_b 14.594726
_cell_length_c 21.102123
_cell_angle_alpha 90.000000
_cell_angle_beta 90.000000
_cell_angle_gamma 90.000000
_cell_volume 4494.879382
_symmetry_space_group_name_H-M "P 42/N M C"
_symmetry_group_IT_number 137
_space_group.IT_coordinate_system_code '2'
_symmetry_cell_setting 'tetragonal'
loop_
_space_group_symop_operation_xyz
x,y,z
1/2-y,x,1/2+z
1/2-x,1/2-y,z
y,1/2-x,1/2+z
1/2+x,-y,-z
-x,1/2+y,-z
1/2+y,1/2+x,1/2-z
-y,-x,1/2-z
-x,-y,-z
1/2+y,-x,1/2-z
1/2+x,1/2+y,-z
-y,1/2+x,1/2-z
1/2-x,y,z
x,1/2-y,z
1/2-y,1/2-x,1/2+z
y,x,1/2+z
loop_
_atom_site_type_symbol
_atom_site_label
_atom_site_fract_x
_atom_site_fract_y
_atom_site_fract_z
Si Si1 0.640845 0.467392 0.564186
Si Si2 0.855624 0.433351 0.188246
Si Si3 0.961345 0.475318 0.816856
Si Si4 0.141690 0.151319 0.493102
Si Si5 0.642702 0.350824 0.446848
Si Si6 0.143379 0.355179 0.136526
O O1 0.750000 0.456377 0.572095
O O2 0.591194 0.429311 0.626661
O O3 0.609941 0.573379 0.555754
O O4 0.601945 0.415703 0.501887
O O5 0.868915 0.368915 0.250000
O O6 0.750000 0.467585 0.186430
O O7 0.882964 0.378772 0.124207
O O8 0.927650 0.517143 0.189207
O O9 0.929842 0.429842 0.750000
O O10 0.917216 0.576629 0.821500
O O11 0.250000 0.158381 0.493335
O O12 0.099885 0.250000 0.472077
O O13 0.112925 0.126350 0.564394
O O14 0.750000 0.351243 0.455463
O O15 0.601913 0.250000 0.459058
O O16 0.250000 0.364890 0.154531
O O17 0.110966 0.250000 0.147819
#
# Coordination Sequence:
#
# PCOD8318693 Si02
#       6
#    16  16  16  16  16  16
#     4  10  21  38  57  78 111 151 188 235 290 334
#     4  10  21  36  55  83 121 157 184 216 269 340
#     4  11  25  39  55  81 112 150 197 243 284 332
#     4   8  15  30  55  86 114 141 179 228 283 344
#     4   9  18  33  55  83 111 142 183 227 275 339
#     4   9  19  38  63  87 111 142 183 234 288 339
#
# _framework density 21.357635999999999
#
# number of rings (size 3 to 8) (size 9 to 14) (size 15 to 20)
#    0.000    2.500    0.000    2.500    0.000   10.167 
#    0.000    3.333    0.000    2.000    0.000    1.167 
#    0.000    0.000    0.000    0.000    0.000    0.000 
#
# Total GULP energy -1189738.289454 kJ/mol
# GULP energy per Si atom -12393.107182 kJ/mol
# Density = 2.130903 g / cm^3
# Si number density = 21.357636 Si / 1000 Ang^3
#
#
#
# Elastic Constant Matrix: (Units=GPa)
#
#
# Indices 1 2 3 4 5 6 
#
# 1 56.5524 27.1156 50.5201 0.0000 0.0000 0.0000
# 2 27.1156 56.5524 50.5201 0.0000 0.0000 0.0000
# 3 50.5201 50.5201 173.8613 0.0000 0.0000 0.0000
# 4 0.0000 0.0000 0.0000 14.1680 0.0000 0.0000
# 5 0.0000 0.0000 0.0000 0.0000 14.1680 0.0000
# 6 0.0000 0.0000 0.0000 0.0000 0.0000 13.8353
#
#
#
# Elastic Compliance Matrix: (Units=1/GPa)
#
#
# Indices 1 2 3 4 5 6 
#
# 1 0.026192 -0.007779 -0.005351 0.000000 0.000000 0.000000
# 2 -0.007779 0.026192 -0.005351 0.000000 0.000000 0.000000
# 3 -0.005351 -0.005351 0.008861 0.000000 0.000000 0.000000
# 4 0.000000 0.000000 0.000000 0.070582 0.000000 0.000000
# 5 0.000000 0.000000 0.000000 0.000000 0.070582 0.000000
# 6 0.000000 0.000000 0.000000 0.000000 0.000000 0.072279
#
#
# Mechanical properties :
#
#
# Convention : Reuss Voigt Hill
#
# Bulk Modulus (GPa) = 41.17597 60.36417 50.77007
# Shear Modulus (GPa) = 15.63757 19.02162 17.32959
#
# Velocity S-wave (km/s) = 2.70881 2.98757 2.85160
# Velocity P-wave (km/s) = 5.39488 6.34237 5.88771
#
# Compressibility (1/GPa) = 0.02428601
#
# Stress axis : x y z
#
# Youngs Moduli (GPa) = 38.17915 38.17915 112.85166
#
# Poissons Ratio (x) = 0.29699 0.60382
# Poissons Ratio (y) = 0.29699 0.60382
# Poissons Ratio (z) = 0.20428 0.20428
#
# Static dielectric constant tensor:
#      x y z
#    x 3.980540 0.000000 0.000000 
#    y 0.000000 3.980540 0.000000 
#    z 0.000000 0.000000 3.965390 
# 
# 
# High freq. dielectric constant tensor:
#      x y z
#    x 1.824710 0.000000 0.000000 
#    y 0.000000 1.824710 0.000000 
#    z 0.000000 0.000000 1.835280 
# 
# From -- ./inp_files/7819.got.cif
#   From: 2010.03.12/outbox.cif.g09.slc.cpg/sg137_4_cif.got.tgz:7819.got - 2010.04.08 09:34:49.
