data_PCOD8318733
_publ_section_title
;
Structure prediction by ZEFSAII (Michael W. Deem and Ramdas Pophale) SiO2 
 PCOD8318733
Probable space group: P 42/N M C
;
_chemical_formula_sum "Si O2"
_cell_formula_units_Z 96
_cell_length_a 14.192062
_cell_length_b 14.192062
_cell_length_c 21.487188
_cell_angle_alpha 90.000000
_cell_angle_beta 90.000000
_cell_angle_gamma 90.000000
_cell_volume 4327.833888
_symmetry_space_group_name_H-M "P 42/N M C"
_symmetry_group_IT_number 137
_space_group.IT_coordinate_system_code '2'
_symmetry_cell_setting 'tetragonal'
loop_
_space_group_symop_operation_xyz
x,y,z
1/2-y,x,1/2+z
1/2-x,1/2-y,z
y,1/2-x,1/2+z
1/2+x,-y,-z
-x,1/2+y,-z
1/2+y,1/2+x,1/2-z
-y,-x,1/2-z
-x,-y,-z
1/2+y,-x,1/2-z
1/2+x,1/2+y,-z
-y,1/2+x,1/2-z
1/2-x,y,z
x,1/2-y,z
1/2-y,1/2-x,1/2+z
y,x,1/2+z
loop_
_atom_site_type_symbol
_atom_site_label
_atom_site_fract_x
_atom_site_fract_y
_atom_site_fract_z
Si Si1 0.141011 0.517544 0.930412
Si Si2 0.353537 0.361866 0.624656
Si Si3 0.862512 0.354718 0.181732
Si Si4 0.354257 0.361480 0.762788
Si Si5 0.546323 0.358335 0.569184
Si Si6 0.140285 0.471094 0.379452
O O1 0.250000 0.494750 0.919549
O O2 0.098759 0.582233 0.875027
O O3 0.085806 0.418456 0.931469
O O4 0.126810 0.569642 0.996440
O O5 0.250000 0.397200 0.601260
O O6 0.351591 0.250000 0.628190
O O7 0.374266 0.403495 0.694030
O O8 0.438465 0.393970 0.579781
O O9 0.894285 0.394285 0.250000
O O10 0.750000 0.351379 0.180504
O O11 0.903393 0.250000 0.171412
O O12 0.250000 0.395585 0.785489
O O13 0.355142 0.250000 0.758130
O O14 0.433468 0.394328 0.811863
O O15 0.559509 0.250000 0.589484
O O16 0.617650 0.418162 0.612160
O O17 0.250000 0.451568 0.390125
#
# Coordination Sequence:
#
# PCOD8318733 Si02
#       6
#    16  16  16  16  16  16
#     4  10  21  38  60  87 120 153 195 250 307 367
#     4   8  15  32  58  84 111 145 189 244 303 355
#     4   8  15  32  59  89 120 151 185 236 309 385
#     4   8  15  31  56  83 108 139 186 246 306 351
#     4  10  22  39  58  84 120 162 204 247 296 359
#     4  11  23  38  57  81 117 161 203 249 297 355
#
# _framework density 22.181996999999999
#
# number of rings (size 3 to 8) (size 9 to 14) (size 15 to 20)
#    0.000    2.833    0.000    2.500    0.000    3.333 
#    3.000    4.167    0.000    0.000    0.000    4.667 
#    0.000    0.000    0.000    0.000    0.000    0.000 
#
# Total GULP energy -1189883.539676 kJ/mol
# GULP energy per Si atom -12394.620205 kJ/mol
# Density = 2.213151 g / cm^3
# Si number density = 22.181997 Si / 1000 Ang^3
#
#
#
# Elastic Constant Matrix: (Units=GPa)
#
#
# Indices 1 2 3 4 5 6 
#
# 1 75.9144 23.0794 45.5028 0.0000 0.0000 0.0000
# 2 23.0794 75.9144 45.5028 0.0000 0.0000 0.0000
# 3 45.5028 45.5028 123.2928 0.0000 0.0000 0.0000
# 4 0.0000 0.0000 0.0000 31.4663 0.0000 0.0000
# 5 0.0000 0.0000 0.0000 0.0000 31.4663 0.0000
# 6 0.0000 0.0000 0.0000 0.0000 0.0000 28.8728
#
#
#
# Elastic Compliance Matrix: (Units=1/GPa)
#
#
# Indices 1 2 3 4 5 6 
#
# 1 0.017108 -0.001819 -0.005643 0.000000 0.000000 0.000000
# 2 -0.001819 0.017108 -0.005643 0.000000 0.000000 0.000000
# 3 -0.005643 -0.005643 0.012276 0.000000 0.000000 0.000000
# 4 0.000000 0.000000 0.000000 0.031780 0.000000 0.000000
# 5 0.000000 0.000000 0.000000 0.000000 0.031780 0.000000
# 6 0.000000 0.000000 0.000000 0.000000 0.000000 0.034635
#
#
# Mechanical properties :
#
#
# Convention : Reuss Voigt Hill
#
# Bulk Modulus (GPa) = 49.30185 55.92130 52.61158
# Shear Modulus (GPa) = 28.14436 29.09684 28.62060
#
# Velocity S-wave (km/s) = 3.56588 3.62571 3.59592
# Velocity P-wave (km/s) = 6.26325 6.54161 6.40394
#
# Compressibility (1/GPa) = 0.02028321
#
# Stress axis : x y z
#
# Youngs Moduli (GPa) = 58.45266 58.45266 81.46186
#
# Poissons Ratio (x) = 0.10632 0.45965
# Poissons Ratio (y) = 0.10632 0.45965
# Poissons Ratio (z) = 0.32982 0.32982
#
# Static dielectric constant tensor:
#      x y z
#    x 3.931620 0.000000 0.000000 
#    y 0.000000 3.931620 0.000000 
#    z 0.000000 0.000000 4.134270 
# 
# 
# High freq. dielectric constant tensor:
#      x y z
#    x 1.861890 0.000000 0.000000 
#    y 0.000000 1.861890 0.000000 
#    z 0.000000 0.000000 1.865650 
# 
# From -- ./inp_files/7834.got.cif
#   From: 2010.03.12/outbox.cif.g09.slc.cpg/sg137_4_cif.got.tgz:7834.got - 2010.04.08 09:34:49.
