data_PCOD8318933
_publ_section_title
;
Structure prediction by ZEFSAII (Michael W. Deem and Ramdas Pophale) SiO2 
 PCOD8318933
Probable space group: P 42/N C M
;
_chemical_formula_sum "Si O2"
_cell_formula_units_Z 96
_cell_length_a 22.721991
_cell_length_b 22.721991
_cell_length_c 9.173890
_cell_angle_alpha 90.000000
_cell_angle_beta 90.000000
_cell_angle_gamma 90.000000
_cell_volume 4736.377348
_symmetry_space_group_name_H-M "P 42/N C M"
_symmetry_group_IT_number 138
_space_group.IT_coordinate_system_code '2'
_symmetry_cell_setting 'tetragonal'
loop_
_space_group_symop_operation_xyz
x,y,z
1/2-y,x,1/2+z
1/2-x,1/2-y,z
y,1/2-x,1/2+z
1/2+x,-y,1/2-z
-x,1/2+y,1/2-z
1/2+y,1/2+x,-z
-y,-x,-z
-x,-y,-z
1/2+y,-x,1/2-z
1/2+x,1/2+y,-z
-y,1/2+x,1/2-z
1/2-x,y,1/2+z
x,1/2-y,1/2+z
1/2-y,1/2-x,z
y,x,z
loop_
_atom_site_type_symbol
_atom_site_label
_atom_site_fract_x
_atom_site_fract_y
_atom_site_fract_z
Si Si1 0.971400 0.834544 0.691451
Si Si2 0.385299 0.208647 0.577449
Si Si3 0.934243 0.138475 0.095664
Si Si4 0.491007 0.293847 0.870927
Si Si5 0.662552 0.928217 0.884001
Si Si6 0.202218 0.683183 0.666363
O O1 0.912264 0.823686 0.782272
O O2 0.005666 0.773614 0.662464
O O3 0.952683 0.861737 0.537890
O O4 0.016750 0.876143 0.781659
O O5 0.319688 0.180313 0.552830
O O6 0.426162 0.196180 0.438478
O O7 0.386911 0.279105 0.600523
O O8 0.875999 0.163687 0.172852
O O9 0.919657 0.080344 0.000000
O O10 0.958265 0.185636 0.979037
O O11 0.485882 0.327694 0.716712
O O12 0.612101 0.887900 0.815119
O O13 0.206191 0.706191 0.500000
O O14 0.171292 0.732540 0.768909
#
# Coordination Sequence:
#
# PCOD8318933 Si02
#       6
#    16  16  16  16  16  16
#     4   9  19  35  54  79 112 148 193 234 276 335
#     4   9  17  32  55  83 118 153 182 225 282 349
#     4  10  22  37  58  80 106 148 196 234 275 334
#     4   9  19  36  54  80 114 149 193 231 278 343
#     4  10  19  33  57  85 114 151 188 235 291 339
#     4  10  21  38  55  83 121 151 176 213 288 360
#
# _framework density 20.268656
#
# number of rings (size 3 to 8) (size 9 to 14) (size 15 to 20)
#    0.000    2.500    0.000    3.000    4.667    0.333 
#    0.000    0.833    0.000   25.000    0.000    0.000 
#    0.000    0.000    0.000    0.000    0.000    0.000 
#
# Total GULP energy -1189499.776225 kJ/mol
# GULP energy per Si atom -12390.622669 kJ/mol
# Density = 2.022252 g / cm^3
# Si number density = 20.268656 Si / 1000 Ang^3
#
#
#
# Elastic Constant Matrix: (Units=GPa)
#
#
# Indices 1 2 3 4 5 6 
#
# 1 41.7311 13.2157 4.7882 0.0000 0.0000 0.0000
# 2 13.2157 41.7306 4.7877 0.0000 0.0000 0.0000
# 3 4.7882 4.7877 88.8227 0.0000 0.0000 0.0000
# 4 0.0000 0.0000 0.0000 27.2513 0.0000 0.0000
# 5 0.0000 0.0000 0.0000 0.0000 27.2505 0.0000
# 6 0.0000 0.0000 0.0000 0.0000 0.0000 23.5904
#
#
#
# Elastic Compliance Matrix: (Units=1/GPa)
#
#
# Indices 1 2 3 4 5 6 
#
# 1 0.026720 -0.008349 -0.000990 0.000000 0.000000 0.000000
# 2 -0.008349 0.026721 -0.000990 0.000000 0.000000 0.000000
# 3 -0.000990 -0.000990 0.011365 0.000000 0.000000 0.000000
# 4 0.000000 0.000000 0.000000 0.036696 0.000000 0.000000
# 5 0.000000 0.000000 0.000000 0.000000 0.036697 0.000000
# 6 0.000000 0.000000 0.000000 0.000000 0.000000 0.042390
#
#
# Mechanical properties :
#
#
# Convention : Reuss Voigt Hill
#
# Bulk Modulus (GPa) = 22.65110 24.20752 23.42931
# Shear Modulus (GPa) = 23.15212 25.58462 24.36837
#
# Velocity S-wave (km/s) = 3.38340 3.55671 3.47114
# Velocity P-wave (km/s) = 5.14421 5.36993 5.25828
#
# Compressibility (1/GPa) = 0.04414796
#
# Stress axis : x y z
#
# Youngs Moduli (GPa) = 37.42454 37.42410 87.98831
#
# Poissons Ratio (x) = 0.31244 0.08715
# Poissons Ratio (y) = 0.31244 0.08713
# Poissons Ratio (z) = 0.03707 0.03706
#
# Static dielectric constant tensor:
#      x y z
#    x 3.428690 0.000000 0.000000 
#    y 0.000000 3.428680 0.000000 
#    z 0.000000 0.000000 3.960190 
# 
# 
# High freq. dielectric constant tensor:
#      x y z
#    x 1.761430 0.000000 0.000000 
#    y 0.000000 1.761430 0.000000 
#    z 0.000000 0.000000 1.812470 
# 
# From -- ./inp_files/1751.got.cif
#   From: 2010.03.12/outbox.cif.g09.slc.cpg/sg138_1_cif.got.tgz:1751.got - 2010.04.08 09:41:05.
