data_PCOD8318986
_publ_section_title
;
Structure prediction by ZEFSAII (Michael W. Deem and Ramdas Pophale) SiO2 
 PCOD8318986
Probable space group: P 42/N C M
;
_chemical_formula_sum "Si O2"
_cell_formula_units_Z 80
_cell_length_a 13.083920
_cell_length_b 13.083920
_cell_length_c 25.315419
_cell_angle_alpha 90.000000
_cell_angle_beta 90.000000
_cell_angle_gamma 90.000000
_cell_volume 4333.720316
_symmetry_space_group_name_H-M "P 42/N C M"
_symmetry_group_IT_number 138
_space_group.IT_coordinate_system_code '2'
_symmetry_cell_setting 'tetragonal'
loop_
_space_group_symop_operation_xyz
x,y,z
1/2-y,x,1/2+z
1/2-x,1/2-y,z
y,1/2-x,1/2+z
1/2+x,-y,1/2-z
-x,1/2+y,1/2-z
1/2+y,1/2+x,-z
-y,-x,-z
-x,-y,-z
1/2+y,-x,1/2-z
1/2+x,1/2+y,-z
-y,1/2+x,1/2-z
1/2-x,y,1/2+z
x,1/2-y,1/2+z
1/2-y,1/2-x,z
y,x,z
loop_
_atom_site_type_symbol
_atom_site_label
_atom_site_fract_x
_atom_site_fract_y
_atom_site_fract_z
Si Si1 0.995714 0.167774 0.499956
Si Si2 0.081811 0.246942 0.101602
Si Si3 0.251790 0.915945 0.310829
Si Si4 0.415999 0.744534 0.310908
Si Si5 0.749002 0.918054 0.602251
O O1 0.082874 0.082874 0.500595
O O2 0.007228 0.239128 0.551390
O O3 0.007228 0.236774 0.447783
O O4 0.884056 0.115945 0.500000
O O5 0.162093 0.337908 0.104607
O O6 0.138766 0.138766 0.095976
O O7 0.017506 0.248757 0.154960
O O8 0.344723 0.840640 0.323703
O O9 0.144864 0.859809 0.323837
O O10 0.254399 0.949652 0.249976
O O11 0.264198 0.016888 0.345076
O O12 0.648120 0.851881 0.592136
O O13 0.847129 0.847129 0.610007
#
# Coordination Sequence:
#
# PCOD8318986 Si02
#       5
#    16  16  16  16  16
#     4   9  17  31  52  75 100 135 176 212 250 301
#     4  10  20  33  51  77 107 135 166 209 258 305
#     4   9  19  36  55  74  99 133 172 212 254 302
#     4   9  19  36  55  74  99 133 172 212 254 302
#     4  10  20  33  51  77 107 135 166 209 258 305
#
# _framework density 18.459890000000001
#
# number of rings (size 3 to 8) (size 9 to 14) (size 15 to 20)
#    0.000    2.600    0.000    3.000    0.000    7.200 
#    0.000    7.000    0.000    6.000    0.000    0.000 
#    0.000    0.000    0.000    0.000    0.000    0.000 
#
# Total GULP energy -992151.688418 kJ/mol
# GULP energy per Si atom -12401.896105 kJ/mol
# Density = 1.841787 g / cm^3
# Si number density = 18.459890 Si / 1000 Ang^3
#
#
#
# Elastic Constant Matrix: (Units=GPa)
#
#
# Indices 1 2 3 4 5 6 
#
# 1 63.7939 6.4807 33.3722 0.0000 0.0000 0.0000
# 2 6.4807 63.7935 33.3721 0.0000 0.0000 0.0000
# 3 33.3722 33.3721 96.5556 0.0000 0.0000 0.0000
# 4 0.0000 0.0000 0.0000 29.7006 0.0000 0.0000
# 5 0.0000 0.0000 0.0000 0.0000 29.7010 0.0000
# 6 0.0000 0.0000 0.0000 0.0000 0.0000 19.2371
#
#
#
# Elastic Compliance Matrix: (Units=1/GPa)
#
#
# Indices 1 2 3 4 5 6 
#
# 1 0.019316 0.001868 -0.007322 0.000000 0.000000 0.000000
# 2 0.001868 0.019316 -0.007322 0.000000 0.000000 0.000000
# 3 -0.007322 -0.007322 0.015418 0.000000 0.000000 0.000000
# 4 0.000000 0.000000 0.000000 0.033669 0.000000 0.000000
# 5 0.000000 0.000000 0.000000 0.000000 0.033669 0.000000
# 6 0.000000 0.000000 0.000000 0.000000 0.000000 0.051983
#
#
# Mechanical properties :
#
#
# Convention : Reuss Voigt Hill
#
# Bulk Modulus (GPa) = 35.08924 41.17700 38.13312
# Shear Modulus (GPa) = 23.98988 25.78896 24.88942
#
# Velocity S-wave (km/s) = 3.60886 3.74174 3.67590
# Velocity P-wave (km/s) = 6.03447 6.40485 6.22242
#
# Compressibility (1/GPa) = 0.02849876
#
# Stress axis : x y z
#
# Youngs Moduli (GPa) = 51.77085 51.77060 64.85985
#
# Poissons Ratio (x) = -0.09670 0.47488
# Poissons Ratio (y) = -0.09670 0.47488
# Poissons Ratio (z) = 0.37905 0.37905
#
# Static dielectric constant tensor:
#      x y z
#    x 3.268710 0.000000 0.000000 
#    y 0.000000 3.268710 0.000000 
#    z 0.000000 0.000000 3.443600 
# 
# 
# High freq. dielectric constant tensor:
#      x y z
#    x 1.704800 0.000000 0.000000 
#    y 0.000000 1.704800 0.000000 
#    z 0.000000 0.000000 1.727290 
# 
# From -- ./inp_files/7913.got.cif
#   From: 2010.03.12/outbox.cif.g09.slc.cpg/sg138_4_cif.got.tgz:7913.got - 2010.04.08 09:41:05.
