data_PCOD8318602
_publ_section_title
;
Structure prediction by ZEFSAII (Michael W. Deem and Ramdas Pophale) SiO2 
 PCOD8318602
Probable space group: P 42/N M C
;
_chemical_formula_sum "Si O2"
_cell_formula_units_Z 80
_cell_length_a 11.342887
_cell_length_b 11.342887
_cell_length_c 33.204321
_cell_angle_alpha 90.000000
_cell_angle_beta 90.000000
_cell_angle_gamma 90.000000
_cell_volume 4272.103983
_symmetry_space_group_name_H-M "P 42/N M C"
_symmetry_group_IT_number 137
_space_group.IT_coordinate_system_code '2'
_symmetry_cell_setting 'tetragonal'
loop_
_space_group_symop_operation_xyz
x,y,z
1/2-y,x,1/2+z
1/2-x,1/2-y,z
y,1/2-x,1/2+z
1/2+x,-y,-z
-x,1/2+y,-z
1/2+y,1/2+x,1/2-z
-y,-x,1/2-z
-x,-y,-z
1/2+y,-x,1/2-z
1/2+x,1/2+y,-z
-y,1/2+x,1/2-z
1/2-x,y,z
x,1/2-y,z
1/2-y,1/2-x,1/2+z
y,x,1/2+z
loop_
_atom_site_type_symbol
_atom_site_label
_atom_site_fract_x
_atom_site_fract_y
_atom_site_fract_z
Si Si1 0.750000 0.611919 0.672581
Si Si2 0.034776 0.975695 0.068293
Si Si3 0.616451 0.996497 0.214297
Si Si4 0.377323 0.381483 0.501322
Si Si5 0.615105 0.114284 0.131555
Si Si6 0.885443 0.250000 0.887991
O O1 0.750000 0.750000 0.654633
O O2 0.636842 0.594551 0.700416
O O3 0.750000 0.502624 0.640735
O O4 0.106786 0.863280 0.083450
O O5 0.122815 0.064292 0.045740
O O6 0.971487 0.034210 0.106044
O O7 0.940108 0.951786 0.033747
O O8 0.750000 0.012681 0.229912
O O9 0.526288 0.026288 0.250000
O O10 0.591083 0.086375 0.178085
O O11 0.250000 0.445020 0.504858
O O12 0.360465 0.250000 0.486322
O O13 0.750000 0.082886 0.120506
O O14 0.587197 0.250000 0.123048
O O15 0.750000 0.250000 0.868563
#
# Coordination Sequence:
#
# PCOD8318602 Si02
#       6
#     8  16  16  16  16   8
#     4  10  22  42  66  90 120 166 210 250 296 372
#     4  11  21  37  56  82 116 157 194 247 301 362
#     4  10  20  37  61  89 121 156 197 245 300 358
#     4  10  21  36  56  80 109 150 199 247 297 358
#     4  10  20  34  57  88 118 152 199 253 305 357
#     4  12  24  40  62  90 122 162 206 254 308 362
#
# _framework density 18.726136
#
# number of rings (size 3 to 8) (size 9 to 14) (size 15 to 20)
#    0.000    1.600    3.000    2.400    0.000    1.800 
#    1.800    0.000    0.000    0.000    0.000    0.000 
#    0.000    0.000    0.000    0.000    0.000    0.000 
#
# Total GULP energy -991380.567448 kJ/mol
# GULP energy per Si atom -12392.257093 kJ/mol
# Density = 1.868351 g / cm^3
# Si number density = 18.726136 Si / 1000 Ang^3
#
#
#
# Elastic Constant Matrix: (Units=GPa)
#
#
# Indices 1 2 3 4 5 6 
#
# 1 87.7866 24.1570 34.4167 0.0000 0.0000 0.0000
# 2 24.1570 87.7866 34.4167 0.0000 0.0000 0.0000
# 3 34.4167 34.4167 75.3256 0.0000 0.0000 0.0000
# 4 0.0000 0.0000 0.0000 29.4850 0.0000 0.0000
# 5 0.0000 0.0000 0.0000 0.0000 29.4850 0.0000
# 6 0.0000 0.0000 0.0000 0.0000 0.0000 46.6915
#
#
#
# Elastic Compliance Matrix: (Units=1/GPa)
#
#
# Indices 1 2 3 4 5 6 
#
# 1 0.014070 -0.001646 -0.005676 0.000000 0.000000 0.000000
# 2 -0.001646 0.014070 -0.005676 0.000000 0.000000 0.000000
# 3 -0.005676 -0.005676 0.018463 0.000000 0.000000 0.000000
# 4 0.000000 0.000000 0.000000 0.033916 0.000000 0.000000
# 5 0.000000 0.000000 0.000000 0.000000 0.033916 0.000000
# 6 0.000000 0.000000 0.000000 0.000000 0.000000 0.021417
#
#
# Mechanical properties :
#
#
# Convention : Reuss Voigt Hill
#
# Bulk Modulus (GPa) = 48.53356 48.54218 48.53787
# Shear Modulus (GPa) = 29.63553 31.65953 30.64753
#
# Velocity S-wave (km/s) = 3.98248 4.11622 4.04990
# Velocity P-wave (km/s) = 6.86445 6.96918 6.91701
#
# Compressibility (1/GPa) = 0.02060430
#
# Stress axis : x y z
#
# Youngs Moduli (GPa) = 71.07476 71.07476 54.16293
#
# Poissons Ratio (x) = 0.11701 0.30745
# Poissons Ratio (y) = 0.11701 0.30745
# Poissons Ratio (z) = 0.40344 0.40344
#
# Static dielectric constant tensor:
#      x y z
#    x 3.628230 0.000000 0.000000 
#    y 0.000000 3.628230 0.000000 
#    z 0.000000 0.000000 3.283150 
# 
# 
# High freq. dielectric constant tensor:
#      x y z
#    x 1.732450 0.000000 0.000000 
#    y 0.000000 1.732450 0.000000 
#    z 0.000000 0.000000 1.716490 
# 
# From -- ./inp_files/10338.got.cif
#   From: 2010.03.12/outbox.cif.g09.slc.cpg/sg137_6_cif.got.tgz:10338.got - 2010.04.08 09:34:49.
