data_PCOD8318927
_publ_section_title
;
Structure prediction by ZEFSAII (Michael W. Deem and Ramdas Pophale) SiO2 
 PCOD8318927
Probable space group: P 42/N C M
;
_chemical_formula_sum "Si O2"
_cell_formula_units_Z 80
_cell_length_a 13.158188
_cell_length_b 13.158188
_cell_length_c 24.456252
_cell_angle_alpha 90.000000
_cell_angle_beta 90.000000
_cell_angle_gamma 90.000000
_cell_volume 4234.304393
_symmetry_space_group_name_H-M "P 42/N C M"
_symmetry_group_IT_number 138
_space_group.IT_coordinate_system_code '2'
_symmetry_cell_setting 'tetragonal'
loop_
_space_group_symop_operation_xyz
x,y,z
1/2-y,x,1/2+z
1/2-x,1/2-y,z
y,1/2-x,1/2+z
1/2+x,-y,1/2-z
-x,1/2+y,1/2-z
1/2+y,1/2+x,-z
-y,-x,-z
-x,-y,-z
1/2+y,-x,1/2-z
1/2+x,1/2+y,-z
-y,1/2+x,1/2-z
1/2-x,y,1/2+z
x,1/2-y,1/2+z
1/2-y,1/2-x,z
y,x,z
loop_
_atom_site_type_symbol
_atom_site_label
_atom_site_fract_x
_atom_site_fract_y
_atom_site_fract_z
Si Si1 0.854122 0.478924 0.619064
Si Si2 0.724120 0.406929 0.233315
Si Si3 0.584057 0.751634 0.313022
Si Si4 0.491524 0.324894 0.079232
Si Si5 0.754592 0.916334 0.527126
O O1 0.809012 0.420947 0.670873
O O2 0.761019 0.522789 0.583584
O O3 0.932772 0.567229 0.637582
O O4 0.911167 0.398271 0.579961
O O5 0.835546 0.356801 0.235584
O O6 0.725631 0.517344 0.260393
O O7 0.641936 0.858065 0.301965
O O8 0.663013 0.663013 0.324141
O O9 0.510272 0.757700 0.365658
O O10 0.387644 0.387644 0.078837
O O11 0.492213 0.254742 0.024959
O O12 0.668553 0.831448 0.523154
O O13 0.866043 0.866043 0.527650
#
# Coordination Sequence:
#
# PCOD8318927 Si02
#       5
#    16  16  16  16  16
#     4  10  19  33  54  80 111 148 190 235 286 339
#     4  11  23  38  55  77 110 150 196 235 278 338
#     4  10  20  34  56  84 110 142 185 235 288 335
#     4   9  16  30  52  80 112 144 182 230 281 337
#     4   9  17  29  49  81 117 148 182 230 286 342
#
# _framework density 18.893304000000001
#
# number of rings (size 3 to 8) (size 9 to 14) (size 15 to 20)
#    0.000    2.200    2.000    1.800    0.000    6.400 
#    0.000    2.000    0.000    1.200    0.000    2.800 
#    0.000    0.000    0.000    0.000    0.000    0.000 
#
# Total GULP energy -992004.623481 kJ/mol
# GULP energy per Si atom -12400.057794 kJ/mol
# Density = 1.885030 g / cm^3
# Si number density = 18.893304 Si / 1000 Ang^3
#
#
#
# Elastic Constant Matrix: (Units=GPa)
#
#
# Indices 1 2 3 4 5 6 
#
# 1 69.4323 33.8521 47.3878 0.0000 0.0000 0.0000
# 2 33.8521 69.4323 47.3878 0.0000 0.0000 0.0000
# 3 47.3878 47.3878 114.2035 0.0000 0.0000 0.0000
# 4 0.0000 0.0000 0.0000 24.1618 0.0000 0.0000
# 5 0.0000 0.0000 0.0000 0.0000 24.1618 0.0000
# 6 0.0000 0.0000 0.0000 0.0000 0.0000 23.9665
#
#
#
# Elastic Compliance Matrix: (Units=1/GPa)
#
#
# Indices 1 2 3 4 5 6 
#
# 1 0.021870 -0.006235 -0.006488 0.000000 0.000000 0.000000
# 2 -0.006235 0.021870 -0.006488 0.000000 0.000000 0.000000
# 3 -0.006488 -0.006488 0.014140 0.000000 0.000000 0.000000
# 4 0.000000 0.000000 0.000000 0.041388 0.000000 0.000000
# 5 0.000000 0.000000 0.000000 0.000000 0.041388 0.000000
# 6 0.000000 0.000000 0.000000 0.000000 0.000000 0.041725
#
#
# Mechanical properties :
#
#
# Convention : Reuss Voigt Hill
#
# Bulk Modulus (GPa) = 51.38755 56.70264 54.04509
# Shear Modulus (GPa) = 21.99840 22.75403 22.37622
#
# Velocity S-wave (km/s) = 3.41596 3.47413 3.44517
# Velocity P-wave (km/s) = 6.54341 6.79485 6.67031
#
# Compressibility (1/GPa) = 0.01945997
#
# Stress axis : x y z
#
# Youngs Moduli (GPa) = 45.72393 45.72393 70.71958
#
# Poissons Ratio (x) = 0.28509 0.45881
# Poissons Ratio (y) = 0.28509 0.45881
# Poissons Ratio (z) = 0.29664 0.29664
#
# Static dielectric constant tensor:
#      x y z
#    x 3.330420 0.000000 0.000000 
#    y 0.000000 3.330420 0.000000 
#    z 0.000000 0.000000 3.502460 
# 
# 
# High freq. dielectric constant tensor:
#      x y z
#    x 1.713680 0.000000 0.000000 
#    y 0.000000 1.713680 0.000000 
#    z 0.000000 0.000000 1.740380 
# 
# From -- ./inp_files/5993.got.cif
#   From: 2010.03.12/outbox.cif.g09.slc.cpg/sg138_3_cif.got.tgz:5993.got - 2010.04.08 09:41:05.
