data_PCOD8318512
_publ_section_title
;
Structure prediction by ZEFSAII (Michael W. Deem and Ramdas Pophale) SiO2 
 PCOD8318512
Probable space group: P 42/N M C
;
_chemical_formula_sum "Si O2"
_cell_formula_units_Z 80
_cell_length_a 18.214384
_cell_length_b 18.214384
_cell_length_c 13.171106
_cell_angle_alpha 90.000000
_cell_angle_beta 90.000000
_cell_angle_gamma 90.000000
_cell_volume 4369.695973
_symmetry_space_group_name_H-M "P 42/N M C"
_symmetry_group_IT_number 137
_space_group.IT_coordinate_system_code '2'
_symmetry_cell_setting 'tetragonal'
loop_
_space_group_symop_operation_xyz
x,y,z
1/2-y,x,1/2+z
1/2-x,1/2-y,z
y,1/2-x,1/2+z
1/2+x,-y,-z
-x,1/2+y,-z
1/2+y,1/2+x,1/2-z
-y,-x,1/2-z
-x,-y,-z
1/2+y,-x,1/2-z
1/2+x,1/2+y,-z
-y,1/2+x,1/2-z
1/2-x,y,z
x,1/2-y,z
1/2-y,1/2-x,1/2+z
y,x,1/2+z
loop_
_atom_site_type_symbol
_atom_site_label
_atom_site_fract_x
_atom_site_fract_y
_atom_site_fract_z
Si Si1 0.667470 0.966906 0.065228
Si Si2 0.401919 0.466163 0.349928
Si Si3 0.126406 0.831946 0.636865
Si Si4 0.035113 0.068812 0.622692
Si Si5 0.168213 0.979785 0.539020
O O1 0.750000 0.937432 0.049513
O O2 0.619955 0.904032 0.120617
O O3 0.666192 0.038443 0.136050
O O4 0.631985 0.985414 0.956352
O O5 0.479641 0.500753 0.384409
O O6 0.389364 0.472438 0.230263
O O7 0.340726 0.507539 0.417257
O O8 0.152680 0.847320 0.750000
O O9 0.153357 0.750000 0.603629
O O10 0.157862 0.893305 0.561023
O O11 0.114726 0.032787 0.603539
O O12 0.250000 0.002800 0.570631
#
# Coordination Sequence:
#
# PCOD8318512 Si02
#       5
#    16  16  16  16  16
#     4  10  19  33  55  80 106 138 178 218 264 315
#     4  10  19  35  56  77 103 139 181 226 264 306
#     4  11  21  33  49  76 113 148 176 207 255 315
#     4  10  19  36  57  75 105 140 180 224 268 305
#     4  11  21  34  53  81 110 140 178 220 264 315
#
# _framework density 18.307908999999999
#
# number of rings (size 3 to 8) (size 9 to 14) (size 15 to 20)
#    0.000    1.600    4.000    3.000    0.000    4.600 
#    0.000    0.000    0.000    9.600    0.000   11.200 
#    0.000    0.000    0.000    0.000    0.000    0.000 
#
# Total GULP energy -991747.295017 kJ/mol
# GULP energy per Si atom -12396.841188 kJ/mol
# Density = 1.826624 g / cm^3
# Si number density = 18.307909 Si / 1000 Ang^3
#
#
#
# Elastic Constant Matrix: (Units=GPa)
#
#
# Indices 1 2 3 4 5 6 
#
# 1 89.5561 31.5409 22.0109 0.0000 0.0000 0.0000
# 2 31.5409 89.5561 22.0109 0.0000 0.0000 0.0000
# 3 22.0109 22.0109 62.5456 0.0000 0.0000 0.0000
# 4 0.0000 0.0000 0.0000 15.4448 0.0000 0.0000
# 5 0.0000 0.0000 0.0000 0.0000 15.4448 0.0000
# 6 0.0000 0.0000 0.0000 0.0000 0.0000 13.9971
#
#
#
# Elastic Compliance Matrix: (Units=1/GPa)
#
#
# Indices 1 2 3 4 5 6 
#
# 1 0.013353 -0.003884 -0.003332 0.000000 0.000000 0.000000
# 2 -0.003884 0.013353 -0.003332 0.000000 0.000000 0.000000
# 3 -0.003332 -0.003332 0.018334 0.000000 0.000000 0.000000
# 4 0.000000 0.000000 0.000000 0.064747 0.000000 0.000000
# 5 0.000000 0.000000 0.000000 0.000000 0.064747 0.000000
# 6 0.000000 0.000000 0.000000 0.000000 0.000000 0.071443
#
#
# Mechanical properties :
#
#
# Convention : Reuss Voigt Hill
#
# Bulk Modulus (GPa) = 41.76638 43.64260 42.70449
# Shear Modulus (GPa) = 18.17821 20.05036 19.11428
#
# Velocity S-wave (km/s) = 3.15447 3.31293 3.23467
# Velocity P-wave (km/s) = 6.01086 6.20676 6.10960
#
# Compressibility (1/GPa) = 0.02394270
#
# Stress axis : x y z
#
# Youngs Moduli (GPa) = 74.88924 74.88924 54.54404
#
# Poissons Ratio (x) = 0.29085 0.18176
# Poissons Ratio (y) = 0.29085 0.18176
# Poissons Ratio (z) = 0.24956 0.24956
#
# Static dielectric constant tensor:
#      x y z
#    x 3.311660 0.000000 0.000000 
#    y 0.000000 3.311660 0.000000 
#    z 0.000000 0.000000 3.486270 
# 
# 
# High freq. dielectric constant tensor:
#      x y z
#    x 1.693780 0.000000 0.000000 
#    y 0.000000 1.693780 0.000000 
#    z 0.000000 0.000000 1.713450 
# 
# From -- ./inp_files/4943.got.cif
#   From: 2010.03.12/outbox.cif.g09.slc.cpg/sg137_3_cif.got.tgz:4943.got - 2010.04.08 09:34:49.
