data_PCOD8318072
_publ_section_title
;
Structure prediction by ZEFSAII (Michael W. Deem and Ramdas Pophale) SiO2 
 PCOD8318072
Probable space group: P 42/M N M
;
_chemical_formula_sum "Si O2"
_cell_formula_units_Z 64
_cell_length_a 12.212542
_cell_length_b 12.212542
_cell_length_c 25.851895
_cell_angle_alpha 90.000000
_cell_angle_beta 90.000000
_cell_angle_gamma 90.000000
_cell_volume 3855.711439
_symmetry_space_group_name_H-M "P 42/M N M"
_symmetry_group_IT_number 136
_symmetry_cell_setting 'tetragonal'
loop_
_space_group_symop_operation_xyz
x,y,z
1/2-y,1/2+x,1/2+z
-x,-y,z
1/2+y,1/2-x,1/2+z
1/2+x,1/2-y,1/2-z
1/2-x,1/2+y,1/2-z
y,x,-z
-y,-x,-z
-x,-y,-z
1/2+y,1/2-x,1/2-z
x,y,-z
1/2-y,1/2+x,1/2-z
1/2-x,1/2+y,1/2+z
1/2+x,1/2-y,1/2+z
-y,-x,z
y,x,z
loop_
_atom_site_type_symbol
_atom_site_label
_atom_site_fract_x
_atom_site_fract_y
_atom_site_fract_z
Si Si1 0.113226 0.292038 0.309407
Si Si2 0.725557 0.102605 0.642466
Si Si3 0.529487 0.211368 0.697986
Si Si4 0.412243 0.587758 0.369789
Si Si5 0.768832 0.768832 0.060965
O O1 0.221667 0.221667 0.317568
O O2 0.145050 0.418468 0.309973
O O3 0.048490 0.257761 0.257651
O O4 0.028927 0.264828 0.356555
O O5 0.837521 0.162480 0.661947
O O6 0.628990 0.133824 0.681665
O O7 0.698092 0.149242 0.584720
O O8 0.526760 0.321565 0.664559
O O9 0.500000 0.500000 0.389687
O O10 0.357863 0.642138 0.420489
O O11 0.763118 0.763118 0.000000
#
# Coordination Sequence:
#
# PCOD8318072 Si02
#       5
#    16  16  16   8   8
#     4  12  22  32  51  77 114 155 190 218 268 330
#     4   9  20  36  54  80 106 138 192 221 278 329
#     4  11  20  33  49  76 113 156 183 217 268 334
#     4  10  20  35  52  83 117 142 184 239 283 334
#     4   8  18  39  63  80 104 137 195 244 278 331
#
# _framework density 16.598752999999999
#
# number of rings (size 3 to 8) (size 9 to 14) (size 15 to 20)
#    0.750    1.000    5.000    1.500    0.000    1.750 
#    0.000    0.000    0.000   13.500    0.000    0.000 
#    0.000    0.000    0.000    0.000    0.000    0.000 
#
# Total GULP energy -793224.557052 kJ/mol
# GULP energy per Si atom -12394.133704 kJ/mol
# Density = 1.656097 g / cm^3
# Si number density = 16.598753 Si / 1000 Ang^3
#
#
#
# Elastic Constant Matrix: (Units=GPa)
#
#
# Indices 1 2 3 4 5 6 
#
# 1 73.8217 18.6383 19.4105 0.0000 0.0000 0.0000
# 2 18.6383 73.8217 19.4105 0.0000 0.0000 0.0000
# 3 19.4105 19.4105 89.6680 0.0000 0.0000 0.0000
# 4 0.0000 0.0000 0.0000 14.0610 0.0000 0.0000
# 5 0.0000 0.0000 0.0000 0.0000 14.0610 0.0000
# 6 0.0000 0.0000 0.0000 0.0000 0.0000 18.9933
#
#
#
# Elastic Compliance Matrix: (Units=1/GPa)
#
#
# Indices 1 2 3 4 5 6 
#
# 1 0.015009 -0.003112 -0.002575 0.000000 0.000000 0.000000
# 2 -0.003112 0.015009 -0.002575 0.000000 0.000000 0.000000
# 3 -0.002575 -0.002575 0.012267 0.000000 0.000000 0.000000
# 4 0.000000 0.000000 0.000000 0.071119 0.000000 0.000000
# 5 0.000000 0.000000 0.000000 0.000000 0.071119 0.000000
# 6 0.000000 0.000000 0.000000 0.000000 0.000000 0.052650
#
#
# Mechanical properties :
#
#
# Convention : Reuss Voigt Hill
#
# Bulk Modulus (GPa) = 38.82057 39.13666 38.97862
# Shear Modulus (GPa) = 19.06321 21.41319 20.23820
#
# Velocity S-wave (km/s) = 3.39259 3.59562 3.49558
# Velocity P-wave (km/s) = 6.22773 6.39275 6.31078
#
# Compressibility (1/GPa) = 0.02575954
#
# Stress axis : x y z
#
# Youngs Moduli (GPa) = 66.62635 66.62635 81.51813
#
# Poissons Ratio (x) = 0.20736 0.20993
# Poissons Ratio (y) = 0.20736 0.20993
# Poissons Ratio (z) = 0.17158 0.17158
#
# Static dielectric constant tensor:
#      x y z
#    x 3.138330 0.000000 0.000000 
#    y 0.000000 3.138330 0.000000 
#    z 0.000000 0.000000 2.707130 
# 
# 
# High freq. dielectric constant tensor:
#      x y z
#    x 1.643050 0.000000 0.000000 
#    y 0.000000 1.643050 0.000000 
#    z 0.000000 0.000000 1.594640 
# 
# From -- ./inp_files/8853.got.cif
#   From: 2010.03.12/outbox.cif.g09.slc.cpg/sg136_5_cif.got.tgz:8853.got - 2010.04.06 18:39:43.
