data_PCOD8318982
_publ_section_title
;
Structure prediction by ZEFSAII (Michael W. Deem and Ramdas Pophale) SiO2 
 PCOD8318982
Probable space group: P 42/N C M
;
_chemical_formula_sum "Si O2"
_cell_formula_units_Z 112
_cell_length_a 13.782606
_cell_length_b 13.782606
_cell_length_c 31.085860
_cell_angle_alpha 90.000000
_cell_angle_beta 90.000000
_cell_angle_gamma 90.000000
_cell_volume 5905.077058
_symmetry_space_group_name_H-M "P 42/N C M"
_symmetry_group_IT_number 138
_space_group.IT_coordinate_system_code '2'
_symmetry_cell_setting 'tetragonal'
loop_
_space_group_symop_operation_xyz
x,y,z
1/2-y,x,1/2+z
1/2-x,1/2-y,z
y,1/2-x,1/2+z
1/2+x,-y,1/2-z
-x,1/2+y,1/2-z
1/2+y,1/2+x,-z
-y,-x,-z
-x,-y,-z
1/2+y,-x,1/2-z
1/2+x,1/2+y,-z
-y,1/2+x,1/2-z
1/2-x,y,1/2+z
x,1/2-y,1/2+z
1/2-y,1/2-x,z
y,x,z
loop_
_atom_site_type_symbol
_atom_site_label
_atom_site_fract_x
_atom_site_fract_y
_atom_site_fract_z
Si Si1 0.016483 0.172918 0.127125
Si Si2 0.619013 0.457053 0.386198
Si Si3 0.882956 0.463629 0.195747
Si Si4 0.600837 0.438196 0.789481
Si Si5 0.527549 0.376181 0.921368
Si Si6 0.804592 0.958577 0.167287
Si Si7 0.350585 0.791740 0.047188
O O1 0.123025 0.123025 0.124818
O O2 0.020346 0.282765 0.109812
O O3 0.977853 0.179356 0.176305
O O4 0.942045 0.112510 0.098071
O O5 0.527455 0.527455 0.390835
O O6 0.618018 0.397566 0.340976
O O7 0.610479 0.378495 0.423808
O O8 0.851968 0.420189 0.242368
O O9 0.808104 0.546552 0.179453
O O10 0.986270 0.513731 0.202458
O O11 0.516614 0.516614 0.788301
O O12 0.553802 0.339492 0.806777
O O13 0.446776 0.446776 0.943894
O O14 0.474540 0.318141 0.883314
O O15 0.571429 0.297148 0.954455
O O16 0.860565 0.860565 0.181731
O O17 0.250000 0.750000 0.066484
O O18 0.333779 0.833779 0.000000
#
# Coordination Sequence:
#
# PCOD8318982 Si02
#       7
#    16  16  16  16  16  16  16
#     4   9  18  35  58  80 109 152 193 230 276 330
#     4  11  23  37  56  83 117 153 185 231 287 341
#     4  10  20  32  48  75 110 145 186 228 274 333
#     4   8  17  32  49  73 104 141 186 233 276 318
#     4   9  17  35  61  84 108 142 187 233 276 326
#     4   9  17  31  53  74 101 144 184 227 276 322
#     4  11  22  39  62  89 115 143 184 234 286 343
#
# _framework density 18.966728
#
# number of rings (size 3 to 8) (size 9 to 14) (size 15 to 20)
#    0.000    2.429    2.857    1.714    2.000    0.857 
#    0.000    2.143    0.000    3.000    0.000    0.000 
#    0.000    0.000    0.000    0.000    0.000    0.000 
#
# Total GULP energy -1387922.127585 kJ/mol
# GULP energy per Si atom -12392.161853 kJ/mol
# Density = 1.892356 g / cm^3
# Si number density = 18.966728 Si / 1000 Ang^3
#
#
#
# Elastic Constant Matrix: (Units=GPa)
#
#
# Indices 1 2 3 4 5 6 
#
# 1 87.0494 37.0498 39.6890 0.0000 0.0000 0.0000
# 2 37.0498 87.0494 39.6890 0.0000 0.0000 0.0000
# 3 39.6890 39.6890 88.6409 0.0000 0.0000 0.0000
# 4 0.0000 0.0000 0.0000 23.3051 0.0000 0.0000
# 5 0.0000 0.0000 0.0000 0.0000 23.3051 0.0000
# 6 0.0000 0.0000 0.0000 0.0000 0.0000 31.6435
#
#
#
# Elastic Compliance Matrix: (Units=1/GPa)
#
#
# Indices 1 2 3 4 5 6 
#
# 1 0.015646 -0.004354 -0.005056 0.000000 0.000000 0.000000
# 2 -0.004354 0.015646 -0.005056 0.000000 0.000000 0.000000
# 3 -0.005056 -0.005056 0.015809 0.000000 0.000000 0.000000
# 4 0.000000 0.000000 0.000000 0.042909 0.000000 0.000000
# 5 0.000000 0.000000 0.000000 0.000000 0.042909 0.000000
# 6 0.000000 0.000000 0.000000 0.000000 0.000000 0.031602
#
#
# Mechanical properties :
#
#
# Convention : Reuss Voigt Hill
#
# Bulk Modulus (GPa) = 55.03824 55.06613 55.05219
# Shear Modulus (GPa) = 25.06139 25.40488 25.23314
#
# Velocity S-wave (km/s) = 3.63896 3.66381 3.65141
# Velocity P-wave (km/s) = 6.83647 6.85522 6.84585
#
# Compressibility (1/GPa) = 0.01816918
#
# Stress axis : x y z
#
# Youngs Moduli (GPa) = 63.91365 63.91365 63.25446
#
# Poissons Ratio (x) = 0.27828 0.31982
# Poissons Ratio (y) = 0.27828 0.31982
# Poissons Ratio (z) = 0.32315 0.32315
#
# Static dielectric constant tensor:
#      x y z
#    x 3.351250 0.000000 0.000000 
#    y 0.000000 3.351250 0.000000 
#    z 0.000000 0.000000 3.491040 
# 
# 
# High freq. dielectric constant tensor:
#      x y z
#    x 1.724060 0.000000 0.000000 
#    y 0.000000 1.724060 0.000000 
#    z 0.000000 0.000000 1.723610 
# 
# From -- ./inp_files/8222.got.cif
#   From: 2010.03.12/outbox.cif.g09.slc.cpg/sg138_5_cif.got.tgz:8222.got - 2010.04.08 09:41:05.
