data_PCOD8318701
_publ_section_title
;
Structure prediction by ZEFSAII (Michael W. Deem and Ramdas Pophale) SiO2 
 PCOD8318701
Probable space group: P 42/N M C
;
_chemical_formula_sum "Si O2"
_cell_formula_units_Z 112
_cell_length_a 15.307050
_cell_length_b 15.307050
_cell_length_c 27.195518
_cell_angle_alpha 90.000000
_cell_angle_beta 90.000000
_cell_angle_gamma 90.000000
_cell_volume 6372.067049
_symmetry_space_group_name_H-M "P 42/N M C"
_symmetry_group_IT_number 137
_space_group.IT_coordinate_system_code '2'
_symmetry_cell_setting 'tetragonal'
loop_
_space_group_symop_operation_xyz
x,y,z
1/2-y,x,1/2+z
1/2-x,1/2-y,z
y,1/2-x,1/2+z
1/2+x,-y,-z
-x,1/2+y,-z
1/2+y,1/2+x,1/2-z
-y,-x,1/2-z
-x,-y,-z
1/2+y,-x,1/2-z
1/2+x,1/2+y,-z
-y,1/2+x,1/2-z
1/2-x,y,z
x,1/2-y,z
1/2-y,1/2-x,1/2+z
y,x,1/2+z
loop_
_atom_site_type_symbol
_atom_site_label
_atom_site_fract_x
_atom_site_fract_y
_atom_site_fract_z
Si Si1 0.148933 0.149484 0.203845
Si Si2 0.155068 0.850995 0.403301
Si Si3 0.072888 0.150941 0.808659
Si Si4 0.955855 0.003215 0.052336
Si Si5 0.652693 0.651079 0.586890
Si Si6 0.147606 0.651119 0.987912
Si Si7 0.012725 0.942815 0.348722
O O1 0.250000 0.138044 0.188521
O O2 0.118967 0.250000 0.192015
O O3 0.135354 0.133174 0.261471
O O4 0.092389 0.075901 0.175734
O O5 0.250000 0.891545 0.387285
O O6 0.168879 0.750000 0.410525
O O7 0.129114 0.889685 0.456996
O O8 0.081078 0.866736 0.362805
O O9 0.031164 0.250000 0.806188
O O10 0.135769 0.143311 0.855146
O O11 0.003416 0.070986 0.812348
O O12 0.892195 0.086690 0.052540
O O13 0.014653 0.016907 0.100224
O O14 0.906745 0.911727 0.055340
O O15 0.000000 0.000000 0.000000
O O16 0.750000 0.627721 0.569029
O O17 0.629145 0.750000 0.575525
O O18 0.250000 0.636731 0.986826
O O19 0.122569 0.750000 0.973676
#
# Coordination Sequence:
#
# PCOD8318701 Si02
#       7
#    16  16  16  16  16  16  16
#     4  10  21  37  54  73 103 143 179 210 254 317
#     4   9  17  30  49  71  97 131 168 207 251 304
#     4   9  18  33  56  81 103 128 164 217 274 323
#     4  11  21  32  47  73 103 135 165 210 257 301
#     4   9  18  33  53  76 100 129 168 214 261 308
#     4   9  18  33  51  67  89 129 175 210 247 299
#     4  11  20  32  52  77 107 131 173 214 261 309
#
# _framework density 17.576713000000002
#
# number of rings (size 3 to 8) (size 9 to 14) (size 15 to 20)
#    0.000    2.286    1.429    3.000    0.000    3.429 
#    0.000    0.000    0.000    1.714    0.000    6.000 
#    0.000    5.714    0.000    0.000    0.000    0.000 
#
# Total GULP energy -1387624.457703 kJ/mol
# GULP energy per Si atom -12389.504087 kJ/mol
# Density = 1.753671 g / cm^3
# Si number density = 17.576713 Si / 1000 Ang^3
#
#
#
# Elastic Constant Matrix: (Units=GPa)
#
#
# Indices 1 2 3 4 5 6 
#
# 1 104.8053 62.2111 53.1960 0.0000 0.0000 0.0000
# 2 62.2111 104.8053 53.1960 0.0000 0.0000 0.0000
# 3 53.1960 53.1960 78.4845 0.0000 0.0000 0.0000
# 4 0.0000 0.0000 0.0000 25.9401 0.0000 0.0000
# 5 0.0000 0.0000 0.0000 0.0000 25.9401 0.0000
# 6 0.0000 0.0000 0.0000 0.0000 0.0000 29.5553
#
#
#
# Elastic Compliance Matrix: (Units=1/GPa)
#
#
# Indices 1 2 3 4 5 6 
#
# 1 0.017007 -0.006470 -0.007142 0.000000 0.000000 0.000000
# 2 -0.006470 0.017007 -0.007142 0.000000 0.000000 0.000000
# 3 -0.007142 -0.007142 0.022423 0.000000 0.000000 0.000000
# 4 0.000000 0.000000 0.000000 0.038550 0.000000 0.000000
# 5 0.000000 0.000000 0.000000 0.000000 0.038550 0.000000
# 6 0.000000 0.000000 0.000000 0.000000 0.000000 0.033835
#
#
# Mechanical properties :
#
#
# Convention : Reuss Voigt Hill
#
# Bulk Modulus (GPa) = 66.98271 69.47793 68.23032
# Shear Modulus (GPa) = 23.38014 24.25321 23.81668
#
# Velocity S-wave (km/s) = 3.65112 3.71866 3.68504
# Velocity P-wave (km/s) = 7.48102 7.61920 7.55043
#
# Compressibility (1/GPa) = 0.01492923
#
# Stress axis : x y z
#
# Youngs Moduli (GPa) = 58.79886 58.79886 44.59779
#
# Poissons Ratio (x) = 0.38044 0.31851
# Poissons Ratio (y) = 0.38044 0.31851
# Poissons Ratio (z) = 0.41993 0.41993
#
# Static dielectric constant tensor:
#      x y z
#    x 3.450040 0.000000 0.000000 
#    y 0.000000 3.450040 0.000000 
#    z 0.000000 0.000000 3.204780 
# 
# 
# High freq. dielectric constant tensor:
#      x y z
#    x 1.681480 0.000000 0.000000 
#    y 0.000000 1.681480 0.000000 
#    z 0.000000 0.000000 1.664140 
# 
# From -- ./inp_files/9767.got.cif
#   From: 2010.03.12/outbox.cif.g09.slc.cpg/sg137_5_cif.got.tgz:9767.got - 2010.04.08 09:34:49.
