data_PCOD8318850
_publ_section_title
;
Structure prediction by ZEFSAII (Michael W. Deem and Ramdas Pophale) SiO2 
 PCOD8318850
Probable space group: P 42/N C M
;
_chemical_formula_sum "Si O2"
_cell_formula_units_Z 96
_cell_length_a 14.678989
_cell_length_b 14.678989
_cell_length_c 24.718738
_cell_angle_alpha 90.000000
_cell_angle_beta 90.000000
_cell_angle_gamma 90.000000
_cell_volume 5326.213664
_symmetry_space_group_name_H-M "P 42/N C M"
_symmetry_group_IT_number 138
_space_group.IT_coordinate_system_code '2'
_symmetry_cell_setting 'tetragonal'
loop_
_space_group_symop_operation_xyz
x,y,z
1/2-y,x,1/2+z
1/2-x,1/2-y,z
y,1/2-x,1/2+z
1/2+x,-y,1/2-z
-x,1/2+y,1/2-z
1/2+y,1/2+x,-z
-y,-x,-z
-x,-y,-z
1/2+y,-x,1/2-z
1/2+x,1/2+y,-z
-y,1/2+x,1/2-z
1/2-x,y,1/2+z
x,1/2-y,1/2+z
1/2-y,1/2-x,z
y,x,z
loop_
_atom_site_type_symbol
_atom_site_label
_atom_site_fract_x
_atom_site_fract_y
_atom_site_fract_z
Si Si1 0.825621 0.029635 0.990347
Si Si2 0.607338 0.275521 0.411752
Si Si3 0.812544 0.964568 0.676322
Si Si4 0.726740 0.110883 0.384665
Si Si5 0.674858 0.825143 0.652140
Si Si6 0.890574 0.216331 0.236739
Si Si7 0.828898 0.828898 0.029647
O O1 0.807954 0.034860 0.926159
O O2 0.804123 0.925235 0.003312
O O3 0.928164 0.071837 0.000000
O O4 0.754689 0.088613 0.026462
O O5 0.516253 0.305495 0.380792
O O6 0.654926 0.192903 0.380040
O O7 0.676372 0.359588 0.409442
O O8 0.898677 0.898677 0.672391
O O9 0.717492 0.909804 0.684685
O O10 0.825811 0.028868 0.727737
O O11 0.735866 0.072405 0.323792
O O12 0.750000 0.750000 0.643496
O O13 0.647487 0.852514 0.591486
O O14 0.809263 0.143252 0.235684
O O15 0.750000 0.750000 0.020851
#
# Coordination Sequence:
#
# PCOD8318850 Si02
#       7
#    16  16  16  16   8  16   8
#     4  10  21  34  57  87 114 141 186 239 282 336
#     4  10  17  34  58  84 109 144 181 229 283 338
#     4  11  21  36  57  83 110 145 192 234 275 326
#     4  10  19  34  56  83 117 144 177 228 295 339
#     4   9  20  37  59  79 105 147 190 233 273 321
#     4  11  19  36  59  83 114 149 187 233 284 332
#     4  11  21  37  59  79 111 155 187 223 283 348
#
# _framework density 18.024059999999999
#
# number of rings (size 3 to 8) (size 9 to 14) (size 15 to 20)
#    0.000    1.667    5.000    1.750    0.000    2.000 
#    3.000    0.833    1.833    2.000    0.000    0.000 
#    0.000    0.000    0.000    0.000    0.000    0.000 
#
# Total GULP energy -1189661.159940 kJ/mol
# GULP energy per Si atom -12392.303749 kJ/mol
# Density = 1.798304 g / cm^3
# Si number density = 18.024060 Si / 1000 Ang^3
#
#
#
# Elastic Constant Matrix: (Units=GPa)
#
#
# Indices 1 2 3 4 5 6 
#
# 1 79.7368 37.6722 22.2858 0.0000 0.0000 0.0000
# 2 37.6722 79.7368 22.2856 0.0000 0.0000 0.0000
# 3 22.2858 22.2856 111.4686 0.0000 0.0000 0.0000
# 4 0.0000 0.0000 0.0000 25.5248 0.0000 0.0000
# 5 0.0000 0.0000 0.0000 0.0000 25.5246 0.0000
# 6 0.0000 0.0000 0.0000 0.0000 0.0000 22.4206
#
#
#
# Elastic Compliance Matrix: (Units=1/GPa)
#
#
# Indices 1 2 3 4 5 6 
#
# 1 0.016495 -0.007278 -0.001843 0.000000 0.000000 0.000000
# 2 -0.007278 0.016495 -0.001843 0.000000 0.000000 0.000000
# 3 -0.001843 -0.001843 0.009708 0.000000 0.000000 0.000000
# 4 0.000000 0.000000 0.000000 0.039178 0.000000 0.000000
# 5 0.000000 0.000000 0.000000 0.000000 0.039178 0.000000
# 6 0.000000 0.000000 0.000000 0.000000 0.000000 0.044602
#
#
# Mechanical properties :
#
#
# Convention : Reuss Voigt Hill
#
# Bulk Modulus (GPa) = 48.14470 48.38104 48.26287
# Shear Modulus (GPa) = 25.70622 27.27392 26.49007
#
# Velocity S-wave (km/s) = 3.78063 3.89420 3.83783
# Velocity P-wave (km/s) = 6.76955 6.86444 6.81716
#
# Compressibility (1/GPa) = 0.02077072
#
# Stress axis : x y z
#
# Youngs Moduli (GPa) = 60.62490 60.62499 103.00846
#
# Poissons Ratio (x) = 0.44123 0.18981
# Poissons Ratio (y) = 0.44123 0.18981
# Poissons Ratio (z) = 0.11171 0.11171
#
# Static dielectric constant tensor:
#      x y z
#    x 3.324380 0.000000 0.000000 
#    y 0.000000 3.324380 0.000000 
#    z 0.000000 0.000000 3.290840 
# 
# 
# High freq. dielectric constant tensor:
#      x y z
#    x 1.682440 0.000000 0.000000 
#    y 0.000000 1.682440 0.000000 
#    z 0.000000 0.000000 1.701340 
# 
# From -- ./inp_files/7015.got.cif
#   From: 2010.03.12/outbox.cif.g09.slc.cpg/sg138_4_cif.got.tgz:7015.got - 2010.04.08 09:41:05.
