data_PCOD8318517
_publ_section_title
;
Structure prediction by ZEFSAII (Michael W. Deem and Ramdas Pophale) SiO2 
 PCOD8318517
Probable space group: P 42/N M C
;
_chemical_formula_sum "Si O2"
_cell_formula_units_Z 42
_cell_length_a 8.114641
_cell_length_b 8.114641
_cell_length_c 32.141199
_cell_angle_alpha 90.000000
_cell_angle_beta 90.000000
_cell_angle_gamma 90.000000
_cell_volume 2116.414341
_symmetry_space_group_name_H-M "P 42/N M C"
_symmetry_group_IT_number 137
_space_group.IT_coordinate_system_code '2'
_symmetry_cell_setting 'tetragonal'
loop_
_space_group_symop_operation_xyz
x,y,z
1/2-y,x,1/2+z
1/2-x,1/2-y,z
y,1/2-x,1/2+z
1/2+x,-y,-z
-x,1/2+y,-z
1/2+y,1/2+x,1/2-z
-y,-x,1/2-z
-x,-y,-z
1/2+y,-x,1/2-z
1/2+x,1/2+y,-z
-y,1/2+x,1/2-z
1/2-x,y,z
x,1/2-y,z
1/2-y,1/2-x,1/2+z
y,x,1/2+z
loop_
_atom_site_type_symbol
_atom_site_label
_atom_site_fract_x
_atom_site_fract_y
_atom_site_fract_z
Si Si1 0.570314 0.558752 0.628444
Si Si2 0.057450 0.060488 0.044454
Si Si3 0.566401 0.250000 0.170602
Si Si4 0.750000 0.250000 0.250000
O O1 0.750000 0.481205 0.640486
O O2 0.577380 0.750000 0.639674
O O3 0.543984 0.535851 0.579366
O O4 0.417747 0.475697 0.654505
O O5 0.250000 0.030767 0.049644
O O6 0.008912 0.250000 0.050279
O O7 0.000000 0.000000 0.000000
O O8 0.750000 0.250000 0.150153
O O9 0.585379 0.250000 0.221029
#
# Coordination Sequence:
#
# PCOD8318517 Si02
#       4
#    16  16   8   2
#     4  10  19  33  56  82 109 146 189 232 290 344
#     4  11  23  36  51  75 111 153 200 246 291 348
#     4   8  16  32  55  84 113 146 183 235 284 360
#     4   8  16  32  60  88 112 152 184 224 308 336
#
# _framework density 19.844884
#
# number of rings (size 3 to 8) (size 9 to 14) (size 15 to 20)
#    0.571    1.524    1.905    2.286    0.000    7.619 
#    0.000    0.000    0.000    4.571    0.000    0.000 
#    0.000    0.000    0.000    0.000    0.000    0.000 
#
# Total GULP energy -520407.386016 kJ/mol
# GULP energy per Si atom -12390.652048 kJ/mol
# Density = 1.979972 g / cm^3
# Si number density = 19.844884 Si / 1000 Ang^3
#
#
#
# Elastic Constant Matrix: (Units=GPa)
#
#
# Indices 1 2 3 4 5 6 
#
# 1 99.1639 26.7151 30.8752 0.0000 0.0000 0.0000
# 2 26.7151 99.1639 30.8752 0.0000 0.0000 0.0000
# 3 30.8752 30.8752 126.7570 0.0000 0.0000 0.0000
# 4 0.0000 0.0000 0.0000 22.4712 0.0000 0.0000
# 5 0.0000 0.0000 0.0000 0.0000 22.4712 0.0000
# 6 0.0000 0.0000 0.0000 0.0000 0.0000 16.4380
#
#
#
# Elastic Compliance Matrix: (Units=1/GPa)
#
#
# Indices 1 2 3 4 5 6 
#
# 1 0.011413 -0.002390 -0.002198 0.000000 0.000000 0.000000
# 2 -0.002390 0.011413 -0.002198 0.000000 0.000000 0.000000
# 3 -0.002198 -0.002198 0.008960 0.000000 0.000000 0.000000
# 4 0.000000 0.000000 0.000000 0.044501 0.000000 0.000000
# 5 0.000000 0.000000 0.000000 0.000000 0.044501 0.000000
# 6 0.000000 0.000000 0.000000 0.000000 0.000000 0.060835
#
#
# Mechanical properties :
#
#
# Convention : Reuss Voigt Hill
#
# Bulk Modulus (GPa) = 54.90394 55.77954 55.34174
# Shear Modulus (GPa) = 24.84294 28.05070 26.44682
#
# Velocity S-wave (km/s) = 3.54200 3.76373 3.65455
# Velocity P-wave (km/s) = 6.66740 6.85976 6.76427
#
# Compressibility (1/GPa) = 0.01821363
#
# Stress axis : x y z
#
# Youngs Moduli (GPa) = 87.62308 87.62308 111.61101
#
# Poissons Ratio (x) = 0.20945 0.24528
# Poissons Ratio (y) = 0.20945 0.24528
# Poissons Ratio (z) = 0.19256 0.19256
#
# Static dielectric constant tensor:
#      x y z
#    x 3.783620 0.000000 0.000000 
#    y 0.000000 3.783620 0.000000 
#    z 0.000000 0.000000 3.313260 
# 
# 
# High freq. dielectric constant tensor:
#      x y z
#    x 1.763190 0.000000 0.000000 
#    y 0.000000 1.763190 0.000000 
#    z 0.000000 0.000000 1.749560 
# 
# From -- ./inp_files/9970.got.cif
#   From: 2010.03.12/outbox.cif.g09.slc.cpg/sg137_5_cif.got.tgz:9970.got - 2010.04.08 09:34:49.
