data_PCOD8318188
_publ_section_title
;
Structure prediction by ZEFSAII (Michael W. Deem and Ramdas Pophale) SiO2 
 PCOD8318188
Probable space group: P 42/M N M
;
_chemical_formula_sum "Si O2"
_cell_formula_units_Z 80
_cell_length_a 12.268581
_cell_length_b 12.268581
_cell_length_c 28.289720
_cell_angle_alpha 90.000000
_cell_angle_beta 90.000000
_cell_angle_gamma 90.000000
_cell_volume 4258.114331
_symmetry_space_group_name_H-M "P 42/M N M"
_symmetry_group_IT_number 136
_symmetry_cell_setting 'tetragonal'
loop_
_space_group_symop_operation_xyz
x,y,z
1/2-y,1/2+x,1/2+z
-x,-y,z
1/2+y,1/2-x,1/2+z
1/2+x,1/2-y,1/2-z
1/2-x,1/2+y,1/2-z
y,x,-z
-y,-x,-z
-x,-y,-z
1/2+y,1/2-x,1/2-z
x,y,-z
1/2-y,1/2+x,1/2-z
1/2-x,1/2+y,1/2+z
1/2+x,1/2-y,1/2+z
-y,-x,z
y,x,z
loop_
_atom_site_type_symbol
_atom_site_label
_atom_site_fract_x
_atom_site_fract_y
_atom_site_fract_z
Si Si1 0.397223 0.214577 0.853333
Si Si2 0.004704 0.825041 0.105099
Si Si3 0.641247 0.177045 0.551625
Si Si4 0.693547 0.997413 0.195292
Si Si5 0.406222 0.772234 0.792846
O O1 0.300787 0.300787 0.844797
O O2 0.408294 0.184573 0.909117
O O3 0.511976 0.262092 0.835325
O O4 0.373435 0.106099 0.823541
O O5 0.899182 0.899182 0.112734
O O6 0.974380 0.728067 0.068806
O O7 0.036616 0.779999 0.156384
O O8 0.106241 0.893760 0.084429
O O9 0.625245 0.120564 0.500000
O O10 0.726229 0.273772 0.546210
O O11 0.614637 0.098570 0.205788
O O12 0.756228 0.963853 0.243149
O O13 0.295415 0.704586 0.798925
#
# Coordination Sequence:
#
# PCOD8318188 Si02
#       5
#    16  16  16  16  16
#     4  10  21  37  57  82 112 145 185 230 272 320
#     4   9  17  29  48  76 110 143 178 228 283 330
#     4   8  15  30  53  79 106 139 181 227 275 326
#     4  11  21  36  53  75 107 148 187 220 267 329
#     4  12  24  36  56  81 109 147 187 227 271 324
#
# _framework density 18.787656999999999
#
# number of rings (size 3 to 8) (size 9 to 14) (size 15 to 20)
#    0.000    2.000    2.000    4.200    0.000    1.600 
#    0.000    2.000    0.000   10.200    0.000    2.800 
#    0.000    0.000    0.000    0.000    0.000    0.000 
#
# Total GULP energy -991679.433408 kJ/mol
# GULP energy per Si atom -12395.992918 kJ/mol
# Density = 1.874490 g / cm^3
# Si number density = 18.787657 Si / 1000 Ang^3
#
#
#
# Elastic Constant Matrix: (Units=GPa)
#
#
# Indices 1 2 3 4 5 6 
#
# 1 73.1444 22.6539 36.9647 0.0000 0.0000 0.0000
# 2 22.6539 73.1444 36.9647 0.0000 0.0000 0.0000
# 3 36.9647 36.9647 157.3064 0.0000 0.0000 0.0000
# 4 0.0000 0.0000 0.0000 19.3780 0.0000 0.0000
# 5 0.0000 0.0000 0.0000 0.0000 19.3780 0.0000
# 6 0.0000 0.0000 0.0000 0.0000 0.0000 13.1616
#
#
#
# Elastic Compliance Matrix: (Units=1/GPa)
#
#
# Indices 1 2 3 4 5 6 
#
# 1 0.016278 -0.003527 -0.002996 0.000000 0.000000 0.000000
# 2 -0.003527 0.016278 -0.002996 0.000000 0.000000 0.000000
# 3 -0.002996 -0.002996 0.007765 0.000000 0.000000 0.000000
# 4 0.000000 0.000000 0.000000 0.051605 0.000000 0.000000
# 5 0.000000 0.000000 0.000000 0.000000 0.051605 0.000000
# 6 0.000000 0.000000 0.000000 0.000000 0.000000 0.075978
#
#
# Mechanical properties :
#
#
# Convention : Reuss Voigt Hill
#
# Bulk Modulus (GPa) = 46.98838 55.19575 51.09207
# Shear Modulus (GPa) = 20.35465 24.18430 22.26948
#
# Velocity S-wave (km/s) = 3.29508 3.59171 3.44659
# Velocity P-wave (km/s) = 6.28819 6.82957 6.56446
#
# Compressibility (1/GPa) = 0.02128186
#
# Stress axis : x y z
#
# Youngs Moduli (GPa) = 61.43154 61.43154 128.77999
#
# Poissons Ratio (x) = 0.21669 0.38586
# Poissons Ratio (y) = 0.21669 0.38586
# Poissons Ratio (z) = 0.18407 0.18407
#
# Static dielectric constant tensor:
#      x y z
#    x 3.259220 0.000000 0.000000 
#    y 0.000000 3.259220 0.000000 
#    z 0.000000 0.000000 3.892550 
# 
# 
# High freq. dielectric constant tensor:
#      x y z
#    x 1.708630 0.000000 0.000000 
#    y 0.000000 1.708630 0.000000 
#    z 0.000000 0.000000 1.731800 
# 
# From -- ./inp_files/9504.got.cif
#   From: 2010.03.12/outbox.cif.g09.slc.cpg/sg136_5_cif.got.tgz:9504.got - 2010.04.06 18:39:43.
