data_PCOD8318499
_publ_section_title
;
Structure prediction by ZEFSAII (Michael W. Deem and Ramdas Pophale) SiO2 
 PCOD8318499
Probable space group: P 42/N M C
;
_chemical_formula_sum "Si O2"
_cell_formula_units_Z 112
_cell_length_a 15.079803
_cell_length_b 15.079803
_cell_length_c 23.873669
_cell_angle_alpha 90.000000
_cell_angle_beta 90.000000
_cell_angle_gamma 90.000000
_cell_volume 5428.883277
_symmetry_space_group_name_H-M "P 42/N M C"
_symmetry_group_IT_number 137
_space_group.IT_coordinate_system_code '2'
_symmetry_cell_setting 'tetragonal'
loop_
_space_group_symop_operation_xyz
x,y,z
1/2-y,x,1/2+z
1/2-x,1/2-y,z
y,1/2-x,1/2+z
1/2+x,-y,-z
-x,1/2+y,-z
1/2+y,1/2+x,1/2-z
-y,-x,1/2-z
-x,-y,-z
1/2+y,-x,1/2-z
1/2+x,1/2+y,-z
-y,1/2+x,1/2-z
1/2-x,y,z
x,1/2-y,z
1/2-y,1/2-x,1/2+z
y,x,1/2+z
loop_
_atom_site_type_symbol
_atom_site_label
_atom_site_fract_x
_atom_site_fract_y
_atom_site_fract_z
Si Si1 0.467372 0.152212 0.363047
Si Si2 0.845381 0.094905 0.360049
Si Si3 0.650253 0.534926 0.266884
Si Si4 0.469592 0.151989 0.658190
Si Si5 0.351406 0.466249 0.443556
Si Si6 0.150794 0.418800 0.567780
Si Si7 0.649962 0.150534 0.894260
O O1 0.427880 0.250000 0.375183
O O2 0.572221 0.155798 0.377913
O O3 0.463261 0.126661 0.298101
O O4 0.414413 0.078992 0.397634
O O5 0.750000 0.144586 0.367392
O O6 0.854006 0.062524 0.295146
O O7 0.846912 0.010653 0.400058
O O8 0.750000 0.573919 0.276904
O O9 0.573473 0.590987 0.295486
O O10 0.456200 0.250000 0.681000
O O11 0.420632 0.144088 0.597810
O O12 0.574804 0.131650 0.652163
O O13 0.250000 0.437913 0.431333
O O14 0.382002 0.434079 0.504425
O O15 0.360422 0.573505 0.441313
O O16 0.250000 0.376628 0.568432
O O17 0.750000 0.137276 0.919644
O O18 0.642688 0.250000 0.867692
#
# Coordination Sequence:
#
# PCOD8318499 Si02
#       7
#    16  16  16  16  16  16  16
#     4  11  23  36  54  83 116 150 186 223 270 335
#     4   9  18  35  57  78 104 140 183 232 280 322
#     4   9  19  35  54  79 110 143 184 231 273 322
#     4  10  19  32  56  84 108 143 187 232 283 326
#     4  10  21  38  58  78 109 152 186 222 277 331
#     4   9  19  35  55  81 110 142 186 234 274 320
#     4   9  19  36  57  82 109 137 178 229 278 334
#
# _framework density 20.630393999999999
#
# number of rings (size 3 to 8) (size 9 to 14) (size 15 to 20)
#    0.000    2.429    0.000    3.429    0.000    5.143 
#    0.000    5.000    0.000    7.714    0.000    6.000 
#    0.000    0.000    0.000    0.000    0.000    0.000 
#
# Total GULP energy -1387626.530147 kJ/mol
# GULP energy per Si atom -12389.522591 kJ/mol
# Density = 2.058344 g / cm^3
# Si number density = 20.630394 Si / 1000 Ang^3
#
#
#
# Elastic Constant Matrix: (Units=GPa)
#
#
# Indices 1 2 3 4 5 6 
#
# 1 95.6411 36.9984 24.9108 0.0000 0.0000 0.0000
# 2 36.9984 95.6411 24.9108 0.0000 0.0000 0.0000
# 3 24.9108 24.9108 84.9498 0.0000 0.0000 0.0000
# 4 0.0000 0.0000 0.0000 12.3770 0.0000 0.0000
# 5 0.0000 0.0000 0.0000 0.0000 12.3770 0.0000
# 6 0.0000 0.0000 0.0000 0.0000 0.0000 23.1736
#
#
#
# Elastic Compliance Matrix: (Units=1/GPa)
#
#
# Indices 1 2 3 4 5 6 
#
# 1 0.012762 -0.004290 -0.002484 0.000000 0.000000 0.000000
# 2 -0.004290 0.012762 -0.002484 0.000000 0.000000 0.000000
# 3 -0.002484 -0.002484 0.013229 0.000000 0.000000 0.000000
# 4 0.000000 0.000000 0.000000 0.080795 0.000000 0.000000
# 5 0.000000 0.000000 0.000000 0.000000 0.080795 0.000000
# 6 0.000000 0.000000 0.000000 0.000000 0.000000 0.043153
#
#
# Mechanical properties :
#
#
# Convention : Reuss Voigt Hill
#
# Bulk Modulus (GPa) = 49.41746 49.98576 49.70161
# Shear Modulus (GPa) = 18.60397 22.21297 20.40847
#
# Velocity S-wave (km/s) = 3.00621 3.28489 3.14864
# Velocity P-wave (km/s) = 6.00462 6.21845 6.11247
#
# Compressibility (1/GPa) = 0.02023576
#
# Stress axis : x y z
#
# Youngs Moduli (GPa) = 78.35502 78.35502 75.59288
#
# Poissons Ratio (x) = 0.33614 0.18781
# Poissons Ratio (y) = 0.33614 0.18781
# Poissons Ratio (z) = 0.19467 0.19467
#
# Static dielectric constant tensor:
#      x y z
#    x 3.859960 0.000000 0.000000 
#    y 0.000000 3.859960 0.000000 
#    z 0.000000 0.000000 3.539060 
# 
# 
# High freq. dielectric constant tensor:
#      x y z
#    x 1.808800 0.000000 0.000000 
#    y 0.000000 1.808800 0.000000 
#    z 0.000000 0.000000 1.782370 
# 
# From -- ./inp_files/8968.got.cif
#   From: 2010.03.12/outbox.cif.g09.slc.cpg/sg137_5_cif.got.tgz:8968.got - 2010.04.08 09:34:49.
