data_PCOD8318835
_publ_section_title
;
Structure prediction by ZEFSAII (Michael W. Deem and Ramdas Pophale) SiO2 
 PCOD8318835
Probable space group: P 42/N C M
;
_chemical_formula_sum "Si O2"
_cell_formula_units_Z 56
_cell_length_a 29.910008
_cell_length_b 29.910008
_cell_length_c 5.263643
_cell_angle_alpha 90.000000
_cell_angle_beta 90.000000
_cell_angle_gamma 90.000000
_cell_volume 4708.900182
_symmetry_space_group_name_H-M "P 42/N C M"
_symmetry_group_IT_number 138
_space_group.IT_coordinate_system_code '2'
_symmetry_cell_setting 'tetragonal'
loop_
_space_group_symop_operation_xyz
x,y,z
1/2-y,x,1/2+z
1/2-x,1/2-y,z
y,1/2-x,1/2+z
1/2+x,-y,1/2-z
-x,1/2+y,1/2-z
1/2+y,1/2+x,-z
-y,-x,-z
-x,-y,-z
1/2+y,-x,1/2-z
1/2+x,1/2+y,-z
-y,1/2+x,1/2-z
1/2-x,y,1/2+z
x,1/2-y,1/2+z
1/2-y,1/2-x,z
y,x,z
loop_
_atom_site_type_symbol
_atom_site_label
_atom_site_fract_x
_atom_site_fract_y
_atom_site_fract_z
Si Si1 0.979054 0.520947 0.750002
Si Si2 0.221307 0.352726 0.775274
Si Si3 0.616659 0.546530 0.250106
Si Si4 0.851163 0.926101 0.750043
O O1 0.988072 0.574679 0.750014
O O2 0.000000 0.500000 0.500000
O O3 0.000000 0.500000 0.000000
O O4 0.258444 0.350649 0.557073
O O5 0.189319 0.310682 0.737353
O O6 0.194673 0.398868 0.747492
O O7 0.597406 0.597406 0.249511
O O8 0.646952 0.541540 0.502584
O O9 0.646956 0.541594 0.997521
O O10 0.894457 0.894457 0.748001
#
# Coordination Sequence:
#
# PCOD8318835 Si02
#       4
#     8  16  16  16
#     4  10  16  22  34  56  78  88  99 118 139 162
#     4  11  22  32  43  54  65  80 102 138 182 222
#     4   8  15  23  37  49  66  87 104 116 138 167
#     4   9  15  28  39  49  60  81 108 126 144 193
#
# _framework density 11.892374
#
# number of rings (size 3 to 8) (size 9 to 14) (size 15 to 20)
#    0.857    1.714    0.000    4.286    0.000    6.286 
#    0.000    0.000    0.000    0.000    0.000    0.000 
#    0.000    0.000    0.000    0.000    0.000    0.000 
#
# Total GULP energy -693837.802943 kJ/mol
# GULP energy per Si atom -12389.960767 kJ/mol
# Density = 1.186531 g / cm^3
# Si number density = 11.892374 Si / 1000 Ang^3
#
#
#
# Elastic Constant Matrix: (Units=GPa)
#
#
# Indices 1 2 3 4 5 6 
#
# 1 29.6688 29.8531 24.9515 0.0000 0.0000 0.0000
# 2 29.8531 29.6688 24.9515 0.0000 0.0000 0.0000
# 3 24.9515 24.9515 114.1717 0.0000 0.0000 0.0000
# 4 0.0000 0.0000 0.0000 19.4062 0.0000 0.0000
# 5 0.0000 0.0000 0.0000 0.0000 19.4062 0.0000
# 6 0.0000 0.0000 0.0000 0.0000 0.0000 15.8763
#
#
#
# Elastic Compliance Matrix: (Units=1/GPa)
#
#
# Indices 1 2 3 4 5 6 
#
# 1 -2.703255 2.723824 -0.004495 0.000000 0.000000 0.000000
# 2 2.723824 -2.703255 -0.004495 0.000000 0.000000 0.000000
# 3 -0.004495 -0.004495 0.010724 0.000000 0.000000 0.000000
# 4 0.000000 0.000000 0.000000 0.051530 0.000000 0.000000
# 5 0.000000 0.000000 0.000000 0.000000 0.051530 0.000000
# 6 0.000000 0.000000 0.000000 0.000000 0.000000 0.062987
#
#
# Mechanical properties :
#
#
# Convention : Reuss Voigt Hill
#
# Bulk Modulus (GPa) = 29.51497 37.00241 33.25869
# Shear Modulus (GPa) = -0.46957 17.18796 8.35920
#
# Velocity S-wave (km/s) = -0.62905 3.80582 2.65411
# Velocity P-wave (km/s) = 4.93403 7.10594 6.11715
#
# Compressibility (1/GPa) = 0.03388111
#
# Stress axis : x y z
#
# Youngs Moduli (GPa) = -0.36992 -0.36992 93.25232
#
# Poissons Ratio (x) = 1.00761 0.41920
# Poissons Ratio (y) = 1.00761 0.41920
# Poissons Ratio (z) = -0.00166 -0.00166
#
# Static dielectric constant tensor:
#      x y z
#    x 2.175130 0.000000 0.000000 
#    y 0.000000 2.175130 0.000000 
#    z 0.000000 0.000000 2.814250 
# 
# 
# High freq. dielectric constant tensor:
#      x y z
#    x 1.404330 0.000000 0.000000 
#    y 0.000000 1.404330 0.000000 
#    z 0.000000 0.000000 1.483680 
# 
# From -- ./inp_files/347.got.cif
#   From: 2010.03.12/outbox.cif.g09.slc.cpg/sg138_1_cif.got.tgz:347.got - 2010.04.08 09:41:05.
