data_PCOD8318991
_publ_section_title
;
Structure prediction by ZEFSAII (Michael W. Deem and Ramdas Pophale) SiO2 
 PCOD8318991
Probable space group: P 42/N C M
;
_chemical_formula_sum "Si O2"
_cell_formula_units_Z 68
_cell_length_a 11.232924
_cell_length_b 11.232924
_cell_length_c 26.501027
_cell_angle_alpha 90.000000
_cell_angle_beta 90.000000
_cell_angle_gamma 90.000000
_cell_volume 3343.861998
_symmetry_space_group_name_H-M "P 42/N C M"
_symmetry_group_IT_number 138
_space_group.IT_coordinate_system_code '2'
_symmetry_cell_setting 'tetragonal'
loop_
_space_group_symop_operation_xyz
x,y,z
1/2-y,x,1/2+z
1/2-x,1/2-y,z
y,1/2-x,1/2+z
1/2+x,-y,1/2-z
-x,1/2+y,1/2-z
1/2+y,1/2+x,-z
-y,-x,-z
-x,-y,-z
1/2+y,-x,1/2-z
1/2+x,1/2+y,-z
-y,1/2+x,1/2-z
1/2-x,y,1/2+z
x,1/2-y,1/2+z
1/2-y,1/2-x,z
y,x,z
loop_
_atom_site_type_symbol
_atom_site_label
_atom_site_fract_x
_atom_site_fract_y
_atom_site_fract_z
Si Si1 0.698185 0.990927 0.887631
Si Si2 0.248828 0.443469 0.501817
Si Si3 0.250000 0.750000 0.250000
Si Si4 0.401050 0.593526 0.175068
Si Si5 0.389687 0.770292 0.090355
O O1 0.634667 0.865334 0.877384
O O2 0.795369 0.007906 0.844116
O O3 0.597969 0.095154 0.888310
O O4 0.766481 0.990971 0.941421
O O5 0.136908 0.363093 0.486893
O O6 0.371209 0.371209 0.497144
O O7 0.254828 0.553591 0.464256
O O8 0.349062 0.678962 0.218255
O O9 0.511368 0.511368 0.194202
O O10 0.447895 0.677802 0.129699
O O11 0.250000 0.750000 0.085943
#
# Coordination Sequence:
#
# PCOD8318991 Si02
#       5
#    16  16   4  16  16
#     4  10  20  37  60  89 127 169 211 252 304 371
#     4  10  20  33  53  86 129 171 212 252 293 357
#     4  12  24  52  64  98 120 156 208 268 340 390
#     4  11  24  43  68  91 119 157 203 262 322 383
#     4  10  20  37  56  87 122 162 207 246 306 368
#
# _framework density 20.335768999999999
#
# number of rings (size 3 to 8) (size 9 to 14) (size 15 to 20)
#    0.000    1.647    3.529    2.824    0.000   10.824 
#    0.000    5.882    0.000    2.824    0.000    0.000 
#    0.000    0.000    0.000    0.000    0.000    0.000 
#
# Total GULP energy -843148.577584 kJ/mol
# GULP energy per Si atom -12399.243788 kJ/mol
# Density = 2.028948 g / cm^3
# Si number density = 20.335769 Si / 1000 Ang^3
#
#
#
# Elastic Constant Matrix: (Units=GPa)
#
#
# Indices 1 2 3 4 5 6 
#
# 1 65.6846 28.2894 24.5433 0.0000 0.0000 0.0000
# 2 28.2894 65.6846 24.5433 0.0000 0.0000 0.0000
# 3 24.5433 24.5433 68.4631 0.0000 0.0000 0.0000
# 4 0.0000 0.0000 0.0000 21.8105 0.0000 0.0000
# 5 0.0000 0.0000 0.0000 0.0000 21.8105 0.0000
# 6 0.0000 0.0000 0.0000 0.0000 0.0000 35.0491
#
#
#
# Elastic Compliance Matrix: (Units=1/GPa)
#
#
# Indices 1 2 3 4 5 6 
#
# 1 0.019917 -0.006824 -0.004694 0.000000 0.000000 0.000000
# 2 -0.006824 0.019917 -0.004694 0.000000 0.000000 0.000000
# 3 -0.004694 -0.004694 0.017972 0.000000 0.000000 0.000000
# 4 0.000000 0.000000 0.000000 0.045850 0.000000 0.000000
# 5 0.000000 0.000000 0.000000 0.000000 0.045850 0.000000
# 6 0.000000 0.000000 0.000000 0.000000 0.000000 0.028531
#
#
# Mechanical properties :
#
#
# Convention : Reuss Voigt Hill
#
# Bulk Modulus (GPa) = 39.39669 39.39826 39.39747
# Shear Modulus (GPa) = 22.83933 23.89776 23.36855
#
# Velocity S-wave (km/s) = 3.35492 3.43178 3.39357
# Velocity P-wave (km/s) = 5.86707 5.92611 5.89666
#
# Compressibility (1/GPa) = 0.02538284
#
# Stress axis : x y z
#
# Youngs Moduli (GPa) = 50.20792 50.20792 55.64303
#
# Poissons Ratio (x) = 0.34263 0.26117
# Poissons Ratio (y) = 0.34263 0.26117
# Poissons Ratio (z) = 0.23566 0.23566
#
# Static dielectric constant tensor:
#      x y z
#    x 3.928810 0.000000 0.000000 
#    y 0.000000 3.928810 0.000000 
#    z 0.000000 0.000000 3.552620 
# 
# 
# High freq. dielectric constant tensor:
#      x y z
#    x 1.796250 0.000000 0.000000 
#    y 0.000000 1.796250 0.000000 
#    z 0.000000 0.000000 1.774320 
# 
# From -- ./inp_files/7418.got.cif
#   From: 2010.03.12/outbox.cif.g09.slc.cpg/sg138_4_cif.got.tgz:7418.got - 2010.04.08 09:41:05.
