data_PCOD8318660
_publ_section_title
;
Structure prediction by ZEFSAII (Michael W. Deem and Ramdas Pophale) SiO2 
 PCOD8318660
Probable space group: P 42/N M C
;
_chemical_formula_sum "Si O2"
_cell_formula_units_Z 52
_cell_length_a 15.747657
_cell_length_b 15.747657
_cell_length_c 10.488872
_cell_angle_alpha 90.000000
_cell_angle_beta 90.000000
_cell_angle_gamma 90.000000
_cell_volume 2601.121742
_symmetry_space_group_name_H-M "P 42/N M C"
_symmetry_group_IT_number 137
_space_group.IT_coordinate_system_code '2'
_symmetry_cell_setting 'tetragonal'
loop_
_space_group_symop_operation_xyz
x,y,z
1/2-y,x,1/2+z
1/2-x,1/2-y,z
y,1/2-x,1/2+z
1/2+x,-y,-z
-x,1/2+y,-z
1/2+y,1/2+x,1/2-z
-y,-x,1/2-z
-x,-y,-z
1/2+y,-x,1/2-z
1/2+x,1/2+y,-z
-y,1/2+x,1/2-z
1/2-x,y,z
x,1/2-y,z
1/2-y,1/2-x,1/2+z
y,x,1/2+z
loop_
_atom_site_type_symbol
_atom_site_label
_atom_site_fract_x
_atom_site_fract_y
_atom_site_fract_z
Si Si1 0.750000 0.750000 0.867274
Si Si2 0.045447 0.907223 0.381178
Si Si3 0.100115 0.964777 0.631657
Si Si4 0.250000 0.430510 0.733575
Si Si5 0.437489 0.250000 0.531285
O O1 0.829409 0.750000 0.772389
O O2 0.750000 0.835403 0.953039
O O3 0.100014 0.899987 0.250000
O O4 0.112837 0.914016 0.498489
O O5 0.979763 0.830596 0.400604
O O6 0.993555 0.994843 0.374557
O O7 0.101573 0.898428 0.750000
O O8 0.169983 0.035990 0.654527
O O9 0.250000 0.459038 0.880770
#
# Coordination Sequence:
#
# PCOD8318660 Si02
#       5
#     4  16  16   8   8
#     4  12  26  36  56 106 132 166 192 248 346 374
#     4  10  22  38  62  89 121 166 215 251 304 374
#     4  10  20  38  61  88 119 168 214 247 301 374
#     4  12  23  40  64  89 135 164 206 262 311 387
#     4  12  23  42  62  91 137 162 200 268 313 377
#
# _framework density 19.991375000000001
#
# number of rings (size 3 to 8) (size 9 to 14) (size 15 to 20)
#    0.000    1.231    6.154    0.462    0.000    1.231 
#    5.538    0.000    0.000    5.538    0.000    0.000 
#    0.000    0.000    0.000    0.000    0.000    0.000 
#
# Total GULP energy -644527.196258 kJ/mol
# GULP energy per Si atom -12394.753774 kJ/mol
# Density = 1.994587 g / cm^3
# Si number density = 19.991375 Si / 1000 Ang^3
#
#
#
# Elastic Constant Matrix: (Units=GPa)
#
#
# Indices 1 2 3 4 5 6 
#
# 1 73.1875 35.5787 51.4391 0.0000 0.0000 0.0000
# 2 35.5787 73.1893 51.4396 0.0000 0.0000 0.0000
# 3 51.4391 51.4396 200.0125 0.0000 0.0000 0.0000
# 4 0.0000 0.0000 0.0000 24.8173 0.0000 0.0000
# 5 0.0000 0.0000 0.0000 0.0000 24.8173 0.0000
# 6 0.0000 0.0000 0.0000 0.0000 0.0000 38.7645
#
#
#
# Elastic Compliance Matrix: (Units=1/GPa)
#
#
# Indices 1 2 3 4 5 6 
#
# 1 0.019369 -0.007220 -0.003125 0.000000 0.000000 0.000000
# 2 -0.007220 0.019369 -0.003125 0.000000 0.000000 0.000000
# 3 -0.003125 -0.003125 0.006607 0.000000 0.000000 0.000000
# 4 0.000000 0.000000 0.000000 0.040294 0.000000 0.000000
# 5 0.000000 0.000000 0.000000 0.000000 0.040294 0.000000
# 6 0.000000 0.000000 0.000000 0.000000 0.000000 0.025797
#
#
# Mechanical properties :
#
#
# Convention : Reuss Voigt Hill
#
# Bulk Modulus (GPa) = 54.32632 69.25601 61.79117
# Shear Modulus (GPa) = 27.05562 31.54196 29.29879
#
# Velocity S-wave (km/s) = 3.68280 3.97643 3.83243
# Velocity P-wave (km/s) = 6.73186 7.47000 7.11051
#
# Compressibility (1/GPa) = 0.01840728
#
# Stress axis : x y z
#
# Youngs Moduli (GPa) = 51.62784 51.62913 151.35797
#
# Poissons Ratio (x) = 0.37275 0.47294
# Poissons Ratio (y) = 0.37274 0.47293
# Poissons Ratio (z) = 0.16132 0.16132
#
# Static dielectric constant tensor:
#      x y z
#    x 3.337320 0.000000 0.000000 
#    y 0.000000 3.337310 0.000000 
#    z 0.000000 0.000000 4.184210 
# 
# 
# High freq. dielectric constant tensor:
#      x y z
#    x 1.753390 0.000000 0.000000 
#    y 0.000000 1.753390 0.000000 
#    z 0.000000 0.000000 1.804700 
# 
# From -- ./inp_files/1422.got.cif
#   From: 2010.03.12/outbox.cif.g09.slc.cpg/sg137_1_cif.got.tgz:1422.got - 2010.04.08 09:34:49.
