data_PCOD8318489
_publ_section_title
;
Structure prediction by ZEFSAII (Michael W. Deem and Ramdas Pophale) SiO2 
 PCOD8318489
Probable space group: P 42/N M C
;
_chemical_formula_sum "Si O2"
_cell_formula_units_Z 112
_cell_length_a 14.367282
_cell_length_b 14.367282
_cell_length_c 29.456084
_cell_angle_alpha 90.000000
_cell_angle_beta 90.000000
_cell_angle_gamma 90.000000
_cell_volume 6080.289278
_symmetry_space_group_name_H-M "P 42/N M C"
_symmetry_group_IT_number 137
_space_group.IT_coordinate_system_code '2'
_symmetry_cell_setting 'tetragonal'
loop_
_space_group_symop_operation_xyz
x,y,z
1/2-y,x,1/2+z
1/2-x,1/2-y,z
y,1/2-x,1/2+z
1/2+x,-y,-z
-x,1/2+y,-z
1/2+y,1/2+x,1/2-z
-y,-x,1/2-z
-x,-y,-z
1/2+y,-x,1/2-z
1/2+x,1/2+y,-z
-y,1/2+x,1/2-z
1/2-x,y,z
x,1/2-y,z
1/2-y,1/2-x,1/2+z
y,x,1/2+z
loop_
_atom_site_type_symbol
_atom_site_label
_atom_site_fract_x
_atom_site_fract_y
_atom_site_fract_z
Si Si1 0.144811 0.855865 0.614834
Si Si2 0.643156 0.059617 0.020604
Si Si3 0.917195 0.854339 0.314324
Si Si4 0.145160 0.354172 0.783950
Si Si5 0.030781 0.528546 0.441749
Si Si6 0.020878 0.019493 0.846059
Si Si7 0.145909 0.144133 0.586422
O O1 0.250000 0.883330 0.628091
O O2 0.122445 0.750000 0.630092
O O3 0.136692 0.862813 0.559996
O O4 0.075549 0.925609 0.640194
O O5 0.750000 0.025302 0.014721
O O6 0.572984 0.974944 0.033993
O O7 0.600432 0.093758 0.971773
O O8 0.959206 0.750000 0.311218
O O9 0.858668 0.878735 0.269367
O O10 0.853602 0.864427 0.358856
O O11 0.000658 0.928261 0.317171
O O12 0.250000 0.365887 0.800638
O O13 0.108930 0.250000 0.792116
O O14 0.085264 0.420123 0.814904
O O15 0.074201 0.510567 0.391926
O O16 0.927440 0.573718 0.435877
O O17 0.250000 0.117863 0.569811
O O18 0.120815 0.250000 0.572151
#
# Coordination Sequence:
#
# PCOD8318489 Si02
#       7
#    16  16  16  16  16  16  16
#     4   9  18  32  51  75 101 130 163 197 238 296
#     4   9  17  30  46  64  90 122 155 191 234 284
#     4   9  18  31  48  73 102 131 164 200 241 290
#     4  10  20  34  52  73  99 132 169 206 244 291
#     4   9  18  29  45  69  93 123 160 199 239 286
#     4  10  19  32  52  75 101 131 163 203 250 291
#     4   9  16  27  46  72 101 129 157 195 241 285
#
# _framework density 18.420175
#
# number of rings (size 3 to 8) (size 9 to 14) (size 15 to 20)
#    0.000    2.714    0.000    1.714    0.000    8.571 
#    0.000    0.714    0.000    5.571    0.000   26.000 
#    0.000    0.000    0.000    0.000    0.000    0.000 
#
# Total GULP energy -1387554.196958 kJ/mol
# GULP energy per Si atom -12388.876759 kJ/mol
# Density = 1.837825 g / cm^3
# Si number density = 18.420175 Si / 1000 Ang^3
#
#
#
# Elastic Constant Matrix: (Units=GPa)
#
#
# Indices 1 2 3 4 5 6 
#
# 1 80.7290 29.4882 40.9831 0.0000 0.0000 0.0000
# 2 29.4882 80.7290 40.9831 0.0000 0.0000 0.0000
# 3 40.9831 40.9831 75.7424 0.0000 0.0000 0.0000
# 4 0.0000 0.0000 0.0000 21.5577 0.0000 0.0000
# 5 0.0000 0.0000 0.0000 0.0000 21.5577 0.0000
# 6 0.0000 0.0000 0.0000 0.0000 0.0000 21.0393
#
#
#
# Elastic Compliance Matrix: (Units=1/GPa)
#
#
# Indices 1 2 3 4 5 6 
#
# 1 0.017349 -0.002167 -0.008215 0.000000 0.000000 0.000000
# 2 -0.002167 0.017349 -0.008215 0.000000 0.000000 0.000000
# 3 -0.008215 -0.008215 0.022093 0.000000 0.000000 0.000000
# 4 0.000000 0.000000 0.000000 0.046387 0.000000 0.000000
# 5 0.000000 0.000000 0.000000 0.000000 0.046387 0.000000
# 6 0.000000 0.000000 0.000000 0.000000 0.000000 0.047530
#
#
# Mechanical properties :
#
#
# Convention : Reuss Voigt Hill
#
# Bulk Modulus (GPa) = 51.02695 51.12323 51.07509
# Shear Modulus (GPa) = 20.76237 21.21401 20.98819
#
# Velocity S-wave (km/s) = 3.36095 3.39731 3.37918
# Velocity P-wave (km/s) = 6.54394 6.57291 6.55844
#
# Compressibility (1/GPa) = 0.01959749
#
# Stress axis : x y z
#
# Youngs Moduli (GPa) = 57.64035 57.64035 45.26418
#
# Poissons Ratio (x) = 0.12489 0.37184
# Poissons Ratio (y) = 0.12489 0.37184
# Poissons Ratio (z) = 0.47351 0.47351
#
# Static dielectric constant tensor:
#      x y z
#    x 3.333060 0.000000 0.000000 
#    y 0.000000 3.333060 0.000000 
#    z 0.000000 0.000000 3.541400 
# 
# 
# High freq. dielectric constant tensor:
#      x y z
#    x 1.697370 0.000000 0.000000 
#    y 0.000000 1.697370 0.000000 
#    z 0.000000 0.000000 1.716040 
# 
# From -- ./inp_files/10704.got.cif
#   From: 2010.03.12/outbox.cif.g09.slc.cpg/sg137_6_cif.got.tgz:10704.got - 2010.04.08 09:34:49.
