data_PCOD8318654
_publ_section_title
;
Structure prediction by ZEFSAII (Michael W. Deem and Ramdas Pophale) SiO2 
 PCOD8318654
Probable space group: P 42/N M C
;
_chemical_formula_sum "Si O2"
_cell_formula_units_Z 96
_cell_length_a 15.268726
_cell_length_b 15.268726
_cell_length_c 19.593040
_cell_angle_alpha 90.000000
_cell_angle_beta 90.000000
_cell_angle_gamma 90.000000
_cell_volume 4567.803663
_symmetry_space_group_name_H-M "P 42/N M C"
_symmetry_group_IT_number 137
_space_group.IT_coordinate_system_code '2'
_symmetry_cell_setting 'tetragonal'
loop_
_space_group_symop_operation_xyz
x,y,z
1/2-y,x,1/2+z
1/2-x,1/2-y,z
y,1/2-x,1/2+z
1/2+x,-y,-z
-x,1/2+y,-z
1/2+y,1/2+x,1/2-z
-y,-x,1/2-z
-x,-y,-z
1/2+y,-x,1/2-z
1/2+x,1/2+y,-z
-y,1/2+x,1/2-z
1/2-x,y,z
x,1/2-y,z
1/2-y,1/2-x,1/2+z
y,x,1/2+z
loop_
_atom_site_type_symbol
_atom_site_label
_atom_site_fract_x
_atom_site_fract_y
_atom_site_fract_z
Si Si1 0.046059 0.492551 0.322161
Si Si2 0.526202 0.153507 0.580448
Si Si3 0.850734 0.845585 0.625809
Si Si4 0.653146 0.402383 0.176637
Si Si5 0.894425 0.154353 0.035507
Si Si6 0.401180 0.149868 0.025617
O O1 0.059690 0.572213 0.374560
O O2 0.126363 0.423851 0.321787
O O3 0.038561 0.538561 0.250000
O O4 0.966226 0.427896 0.338493
O O5 0.545658 0.250000 0.612789
O O6 0.577375 0.149324 0.508490
O O7 0.420771 0.148670 0.572326
O O8 0.750000 0.829715 0.631869
O O9 0.895627 0.750000 0.640618
O O10 0.877556 0.879170 0.551303
O O11 0.644159 0.355842 0.250000
O O12 0.750000 0.446521 0.176770
O O13 0.646868 0.338787 0.111457
O O14 0.877627 0.250000 0.001365
O O15 0.997354 0.137154 0.039995
O O16 0.370432 0.250000 0.041906
#
# Coordination Sequence:
#
# PCOD8318654 Si02
#       6
#    16  16  16  16  16  16
#     4  11  24  42  60  85 123 165 212 263 322 374
#     4  12  24  40  63  91 124 164 212 260 315 377
#     4  10  20  37  65  95 121 159 211 264 318 376
#     4  11  23  39  61  89 126 169 208 248 304 376
#     4  11  22  39  64  93 129 167 205 254 312 373
#     4  10  20  38  64  92 126 161 199 257 318 368
#
# _framework density 21.016666000000001
#
# number of rings (size 3 to 8) (size 9 to 14) (size 15 to 20)
#    0.000    1.167    3.333    3.500    0.000    3.833 
#    0.000    0.833    0.000    0.000    0.000    1.167 
#    0.000    0.000    0.000    0.000    0.000    0.000 
#
# Total GULP energy -1189267.472715 kJ/mol
# GULP energy per Si atom -12388.202841 kJ/mol
# Density = 2.096883 g / cm^3
# Si number density = 21.016666 Si / 1000 Ang^3
#
#
#
# Elastic Constant Matrix: (Units=GPa)
#
#
# Indices 1 2 3 4 5 6 
#
# 1 95.5316 51.1259 41.6009 0.0000 0.0000 0.0000
# 2 51.1259 95.5316 41.6010 0.0000 0.0000 0.0000
# 3 41.6009 41.6010 97.4846 0.0000 0.0000 0.0000
# 4 0.0000 0.0000 0.0000 23.7323 0.0000 0.0000
# 5 0.0000 0.0000 0.0000 0.0000 23.7327 0.0000
# 6 0.0000 0.0000 0.0000 0.0000 0.0000 15.3634
#
#
#
# Elastic Compliance Matrix: (Units=1/GPa)
#
#
# Indices 1 2 3 4 5 6 
#
# 1 0.015758 -0.006761 -0.003839 0.000000 0.000000 0.000000
# 2 -0.006761 0.015758 -0.003839 0.000000 0.000000 0.000000
# 3 -0.003839 -0.003839 0.013535 0.000000 0.000000 0.000000
# 4 0.000000 0.000000 0.000000 0.042137 0.000000 0.000000
# 5 0.000000 0.000000 0.000000 0.000000 0.042136 0.000000
# 6 0.000000 0.000000 0.000000 0.000000 0.000000 0.065090
#
#
# Mechanical properties :
#
#
# Convention : Reuss Voigt Hill
#
# Bulk Modulus (GPa) = 61.83878 61.91149 61.87514
# Shear Modulus (GPa) = 21.86423 22.84702 22.35563
#
# Velocity S-wave (km/s) = 3.22891 3.30068 3.26499
# Velocity P-wave (km/s) = 6.58701 6.63689 6.61200
#
# Compressibility (1/GPa) = 0.01617108
#
# Stress axis : x y z
#
# Youngs Moduli (GPa) = 63.45915 63.45911 73.88347
#
# Poissons Ratio (x) = 0.42908 0.28366
# Poissons Ratio (y) = 0.42908 0.28366
# Poissons Ratio (z) = 0.24364 0.24364
#
# Static dielectric constant tensor:
#      x y z
#    x 3.941870 0.000000 0.000000 
#    y 0.000000 3.941870 0.000000 
#    z 0.000000 0.000000 3.621160 
# 
# 
# High freq. dielectric constant tensor:
#      x y z
#    x 1.832910 0.000000 0.000000 
#    y 0.000000 1.832910 0.000000 
#    z 0.000000 0.000000 1.791390 
# 
# From -- ./inp_files/7850.got.cif
#   From: 2010.03.12/outbox.cif.g09.slc.cpg/sg137_4_cif.got.tgz:7850.got - 2010.04.08 09:34:49.
