data_PCOD8318804
_publ_section_title
;
Structure prediction by ZEFSAII (Michael W. Deem and Ramdas Pophale) SiO2 
 PCOD8318804
Probable space group: P 42/N M C
;
_chemical_formula_sum "Si O2"
_cell_formula_units_Z 64
_cell_length_a 14.072262
_cell_length_b 14.072262
_cell_length_c 14.701592
_cell_angle_alpha 90.000000
_cell_angle_beta 90.000000
_cell_angle_gamma 90.000000
_cell_volume 2911.335061
_symmetry_space_group_name_H-M "P 42/N M C"
_symmetry_group_IT_number 137
_space_group.IT_coordinate_system_code '2'
_symmetry_cell_setting 'tetragonal'
loop_
_space_group_symop_operation_xyz
x,y,z
1/2-y,x,1/2+z
1/2-x,1/2-y,z
y,1/2-x,1/2+z
1/2+x,-y,-z
-x,1/2+y,-z
1/2+y,1/2+x,1/2-z
-y,-x,1/2-z
-x,-y,-z
1/2+y,-x,1/2-z
1/2+x,1/2+y,-z
-y,1/2+x,1/2-z
1/2-x,y,z
x,1/2-y,z
1/2-y,1/2-x,1/2+z
y,x,1/2+z
loop_
_atom_site_type_symbol
_atom_site_label
_atom_site_fract_x
_atom_site_fract_y
_atom_site_fract_z
Si Si1 0.647094 0.109439 0.353539
Si Si2 0.392133 0.358006 0.111233
Si Si3 0.855506 0.945975 0.082579
Si Si4 0.354890 0.489769 0.268907
O O1 0.642715 0.142715 0.250000
O O2 0.750000 0.142945 0.393604
O O3 0.561232 0.149023 0.415052
O O4 0.643267 0.997142 0.350767
O O5 0.350992 0.250000 0.105755
O O6 0.335380 0.424085 0.180998
O O7 0.388477 0.408964 0.014471
O O8 0.750000 0.906735 0.104372
O O9 0.929811 0.908700 0.155109
O O10 0.415972 0.584029 0.250000
O O11 0.250000 0.520904 0.303654
#
# Coordination Sequence:
#
# PCOD8318804 Si02
#       4
#    16  16  16  16
#     4  11  22  40  69  99 134 179 222 270 329 395
#     4  11  23  43  69  97 132 174 221 275 335 397
#     4  12  24  42  68 100 137 175 219 275 339 399
#     4  12  26  45  68  95 131 174 225 280 337 403
#
# _framework density 21.983039999999999
#
# number of rings (size 3 to 8) (size 9 to 14) (size 15 to 20)
#    0.000    0.500    5.000    3.750    0.000    6.500 
#    0.000    0.000    0.000    3.000    0.000    0.000 
#    0.000    0.000    0.000    0.000    0.000    0.000 
#
# Total GULP energy -793375.854535 kJ/mol
# GULP energy per Si atom -12396.497727 kJ/mol
# Density = 2.193301 g / cm^3
# Si number density = 21.983040 Si / 1000 Ang^3
#
#
#
# Elastic Constant Matrix: (Units=GPa)
#
#
# Indices 1 2 3 4 5 6 
#
# 1 158.1268 37.4212 36.7801 0.0000 0.0000 0.0000
# 2 37.4212 158.1246 36.7784 0.0000 0.0000 0.0000
# 3 36.7801 36.7784 94.4550 0.0000 0.0000 0.0000
# 4 0.0000 0.0000 0.0000 18.4037 0.0000 0.0000
# 5 0.0000 0.0000 0.0000 0.0000 18.4027 0.0000
# 6 0.0000 0.0000 0.0000 0.0000 0.0000 -17.8615
#
#
#
# Elastic Compliance Matrix: (Units=1/GPa)
#
#
# Indices 1 2 3 4 5 6 
#
# 1 0.007138 -0.001147 -0.002333 0.000000 0.000000 0.000000
# 2 -0.001147 0.007138 -0.002333 0.000000 0.000000 0.000000
# 3 -0.002333 -0.002333 0.012404 0.000000 0.000000 0.000000
# 4 0.000000 0.000000 0.000000 0.054337 0.000000 0.000000
# 5 0.000000 0.000000 0.000000 0.000000 0.054340 0.000000
# 6 0.000000 0.000000 0.000000 0.000000 0.000000 -0.055986
#
#
# Mechanical properties :
#
#
# Convention : Reuss Voigt Hill
#
# Bulk Modulus (GPa) = 66.42353 70.29618 68.35985
# Shear Modulus (GPa) = 52.07583 23.77076 37.92330
#
# Velocity S-wave (km/s) = 4.87242 3.29191 4.15796
# Velocity P-wave (km/s) = 7.86991 6.81878 7.36313
#
# Compressibility (1/GPa) = 0.01505491
#
# Stress axis : x y z
#
# Youngs Moduli (GPa) = 140.09420 140.09335 80.61982
#
# Poissons Ratio (x) = 0.16063 0.18809
# Poissons Ratio (y) = 0.16063 0.18808
# Poissons Ratio (z) = 0.32685 0.32683
#
# Static dielectric constant tensor:
#      x y z
#    x 4.440300 0.000000 0.000000 
#    y 0.000000 4.440320 0.000000 
#    z 0.000000 0.000000 4.025110 
# 
# 
# High freq. dielectric constant tensor:
#      x y z
#    x 1.878590 0.000000 0.000000 
#    y 0.000000 1.878590 0.000000 
#    z 0.000000 0.000000 1.849050 
# 
# From -- ./inp_files/4724.got.cif
#   From: 2010.03.12/outbox.cif.g09.slc.cpg/sg137_3_cif.got.tgz:4724.got - 2010.04.08 09:34:49.
