data_PCOD8318562
_publ_section_title
;
Structure prediction by ZEFSAII (Michael W. Deem and Ramdas Pophale) SiO2 
 PCOD8318562
Probable space group: P 42/N M C
;
_chemical_formula_sum "Si O2"
_cell_formula_units_Z 112
_cell_length_a 14.095031
_cell_length_b 14.095031
_cell_length_c 26.723853
_cell_angle_alpha 90.000000
_cell_angle_beta 90.000000
_cell_angle_gamma 90.000000
_cell_volume 5309.225173
_symmetry_space_group_name_H-M "P 42/N M C"
_symmetry_group_IT_number 137
_space_group.IT_coordinate_system_code '2'
_symmetry_cell_setting 'tetragonal'
loop_
_space_group_symop_operation_xyz
x,y,z
1/2-y,x,1/2+z
1/2-x,1/2-y,z
y,1/2-x,1/2+z
1/2+x,-y,-z
-x,1/2+y,-z
1/2+y,1/2+x,1/2-z
-y,-x,1/2-z
-x,-y,-z
1/2+y,-x,1/2-z
1/2+x,1/2+y,-z
-y,1/2+x,1/2-z
1/2-x,y,z
x,1/2-y,z
1/2-y,1/2-x,1/2+z
y,x,1/2+z
loop_
_atom_site_type_symbol
_atom_site_label
_atom_site_fract_x
_atom_site_fract_y
_atom_site_fract_z
Si Si1 0.542607 0.361308 0.503124
Si Si2 0.543548 0.359782 0.796950
Si Si3 0.356692 0.860680 0.903896
Si Si4 0.538931 0.860686 0.850335
Si Si5 0.357244 0.140860 0.746968
Si Si6 0.359511 0.638089 0.103533
Si Si7 0.138456 0.144329 0.050646
O O1 0.562133 0.250000 0.500921
O O2 0.585808 0.402847 0.451897
O O3 0.594405 0.401583 0.552418
O O4 0.430123 0.386434 0.506218
O O5 0.592881 0.407120 0.750000
O O6 0.572182 0.250000 0.795324
O O7 0.428913 0.373488 0.793553
O O8 0.579717 0.403462 0.849583
O O9 0.250000 0.895337 0.890359
O O10 0.356579 0.750000 0.917414
O O11 0.426087 0.881333 0.856925
O O12 0.561301 0.750000 0.847681
O O13 0.577018 0.901935 0.798027
O O14 0.595601 0.899251 0.898367
O O15 0.250000 0.110253 0.762617
O O16 0.357640 0.250000 0.728994
O O17 0.250000 0.608848 0.111789
O O18 0.371513 0.750000 0.099425
O O19 0.250000 0.148558 0.058679
O O20 0.098685 0.250000 0.037615
#
# Coordination Sequence:
#
# PCOD8318562 Si02
#       7
#    16  16  16  16  16  16  16
#     4   9  17  28  46  71 101 136 168 202 251 305
#     4  10  20  31  48  75 105 134 165 204 254 311
#     4   9  17  30  48  72 101 131 165 204 248 305
#     4   9  17  29  47  71  97 124 158 206 257 297
#     4   9  18  33  53  77 102 129 167 215 263 308
#     4   9  17  29  45  70 105 139 167 198 244 308
#     4   9  17  28  43  66  93 120 157 205 252 293
#
# _framework density 21.095355999999999
#
# number of rings (size 3 to 8) (size 9 to 14) (size 15 to 20)
#    0.000    2.857    0.000    1.286    2.000    4.714 
#    0.000    0.000    0.000    0.857    0.000    3.000 
#    0.000   13.714    0.000    0.000    0.000    0.000 
#
# Total GULP energy -1388160.301825 kJ/mol
# GULP energy per Si atom -12394.288409 kJ/mol
# Density = 2.104734 g / cm^3
# Si number density = 21.095356 Si / 1000 Ang^3
#
#
#
# Elastic Constant Matrix: (Units=GPa)
#
#
# Indices 1 2 3 4 5 6 
#
# 1 61.6295 22.5729 34.7957 0.0000 0.0000 0.0000
# 2 22.5729 61.6308 34.7949 0.0000 0.0000 0.0000
# 3 34.7957 34.7949 70.8413 0.0000 0.0000 0.0000
# 4 0.0000 0.0000 0.0000 21.2284 0.0000 0.0000
# 5 0.0000 0.0000 0.0000 0.0000 21.2285 0.0000
# 6 0.0000 0.0000 0.0000 0.0000 0.0000 14.9419
#
#
#
# Elastic Compliance Matrix: (Units=1/GPa)
#
#
# Indices 1 2 3 4 5 6 
#
# 1 0.022798 -0.002806 -0.009820 0.000000 0.000000 0.000000
# 2 -0.002806 0.022797 -0.009819 0.000000 0.000000 0.000000
# 3 -0.009820 -0.009819 0.023762 0.000000 0.000000 0.000000
# 4 0.000000 0.000000 0.000000 0.047107 0.000000 0.000000
# 5 0.000000 0.000000 0.000000 0.000000 0.047106 0.000000
# 6 0.000000 0.000000 0.000000 0.000000 0.000000 0.066926
#
#
# Mechanical properties :
#
#
# Convention : Reuss Voigt Hill
#
# Bulk Modulus (GPa) = 40.87016 42.04759 41.45888
# Shear Modulus (GPa) = 17.63419 18.27563 17.95491
#
# Velocity S-wave (km/s) = 2.89438 2.94655 2.92058
# Velocity P-wave (km/s) = 5.53046 5.61708 5.57394
#
# Compressibility (1/GPa) = 0.02446773
#
# Stress axis : x y z
#
# Youngs Moduli (GPa) = 43.86380 43.86583 42.08433
#
# Poissons Ratio (x) = 0.12309 0.41325
# Poissons Ratio (y) = 0.12309 0.41321
# Poissons Ratio (z) = 0.43072 0.43071
#
# Static dielectric constant tensor:
#      x y z
#    x 3.877730 0.000000 0.000000 
#    y 0.000000 3.877730 0.000000 
#    z 0.000000 0.000000 3.662350 
# 
# 
# High freq. dielectric constant tensor:
#      x y z
#    x 1.824710 0.000000 0.000000 
#    y 0.000000 1.824710 0.000000 
#    z 0.000000 0.000000 1.795240 
# 
# From -- ./inp_files/9846.got.cif
#   From: 2010.03.12/outbox.cif.g09.slc.cpg/sg137_5_cif.got.tgz:9846.got - 2010.04.08 09:34:49.
