data_PCOD8318286
_publ_section_title
;
Structure prediction by ZEFSAII (Michael W. Deem and Ramdas Pophale) SiO2 
 PCOD8318286
Probable space group: P 42/M N M
;
_chemical_formula_sum "Si O2"
_cell_formula_units_Z 52
_cell_length_a 13.440504
_cell_length_b 13.440504
_cell_length_c 13.489229
_cell_angle_alpha 90.000000
_cell_angle_beta 90.000000
_cell_angle_gamma 90.000000
_cell_volume 2436.790745
_symmetry_space_group_name_H-M "P 42/M N M"
_symmetry_group_IT_number 136
_symmetry_cell_setting 'tetragonal'
loop_
_space_group_symop_operation_xyz
x,y,z
1/2-y,1/2+x,1/2+z
-x,-y,z
1/2+y,1/2-x,1/2+z
1/2+x,1/2-y,1/2-z
1/2-x,1/2+y,1/2-z
y,x,-z
-y,-x,-z
-x,-y,-z
1/2+y,1/2-x,1/2-z
x,y,-z
1/2-y,1/2+x,1/2-z
1/2-x,1/2+y,1/2+z
1/2+x,1/2-y,1/2+z
-y,-x,z
y,x,z
loop_
_atom_site_type_symbol
_atom_site_label
_atom_site_fract_x
_atom_site_fract_y
_atom_site_fract_z
Si Si1 0.235237 0.764764 0.500000
Si Si2 0.377091 0.912606 0.785531
Si Si3 0.783095 0.783095 0.787696
Si Si4 0.591678 0.073326 0.000000
Si Si5 0.422055 0.577946 0.163786
Si Si6 0.005863 0.781677 0.500000
O O1 0.287075 0.712926 0.406176
O O2 0.118157 0.743296 0.500000
O O3 0.490894 0.870222 0.785530
O O4 0.302808 0.828854 0.748389
O O5 0.347383 0.945432 0.898055
O O6 0.862702 0.862702 0.748409
O O7 0.500000 0.000000 0.000000
O O8 0.566967 0.189237 0.000000
O O9 0.500000 0.500000 0.212959
O O10 0.345722 0.515289 0.097617
#
# Coordination Sequence:
#
# PCOD8318286 Si02
#       6
#     4  16   8   8   8   8
#     4  12  26  41  67 100 136 186 224 286 336 430
#     4  11  24  42  65  97 135 185 229 284 354 417
#     4  12  27  42  67 102 140 173 242 282 341 421
#     4  12  21  38  69  91 133 172 226 285 348 415
#     4  11  22  42  69 104 134 173 222 291 351 409
#     4  11  21  42  69 100 129 172 228 281 351 401
#
# _framework density 21.339544
#
# number of rings (size 3 to 8) (size 9 to 14) (size 15 to 20)
#    0.000    0.615    7.692    2.308    0.000    0.615 
#    0.000    0.385    0.000    0.000    0.000    0.000 
#    0.000    0.000    0.000    0.000    0.000    0.000 
#
# Total GULP energy -644863.051193 kJ/mol
# GULP energy per Si atom -12401.212523 kJ/mol
# Density = 2.129097 g / cm^3
# Si number density = 21.339544 Si / 1000 Ang^3
#
#
#
# Elastic Constant Matrix: (Units=GPa)
#
#
# Indices 1 2 3 4 5 6 
#
# 1 82.4243 23.6591 28.6712 0.0000 0.0000 0.0000
# 2 23.6591 82.4244 28.6710 0.0000 0.0000 0.0000
# 3 28.6712 28.6710 175.4753 0.0000 0.0000 0.0000
# 4 0.0000 0.0000 0.0000 23.6187 0.0000 0.0000
# 5 0.0000 0.0000 0.0000 0.0000 23.6185 0.0000
# 6 0.0000 0.0000 0.0000 0.0000 0.0000 43.5558
#
#
#
# Elastic Compliance Matrix: (Units=1/GPa)
#
#
# Indices 1 2 3 4 5 6 
#
# 1 0.013678 -0.003339 -0.001689 0.000000 0.000000 0.000000
# 2 -0.003339 0.013678 -0.001689 0.000000 0.000000 0.000000
# 3 -0.001689 -0.001689 0.006251 0.000000 0.000000 0.000000
# 4 0.000000 0.000000 0.000000 0.042339 0.000000 0.000000
# 5 0.000000 0.000000 0.000000 0.000000 0.042340 0.000000
# 6 0.000000 0.000000 0.000000 0.000000 0.000000 0.022959
#
#
# Mechanical properties :
#
#
# Convention : Reuss Voigt Hill
#
# Bulk Modulus (GPa) = 49.57200 55.81407 52.69304
# Shear Modulus (GPa) = 30.97806 35.44678 33.21242
#
# Velocity S-wave (km/s) = 3.81422 4.08006 3.94938
# Velocity P-wave (km/s) = 6.53286 6.95758 6.74856
#
# Compressibility (1/GPa) = 0.02017268
#
# Stress axis : x y z
#
# Youngs Moduli (GPa) = 73.10843 73.10857 159.97742
#
# Poissons Ratio (x) = 0.24408 0.27027
# Poissons Ratio (y) = 0.24408 0.27027
# Poissons Ratio (z) = 0.12351 0.12351
#
# Static dielectric constant tensor:
#      x y z
#    x 3.859020 0.000000 0.000000 
#    y 0.000000 3.859010 0.000000 
#    z 0.000000 0.000000 4.221570 
# 
# 
# High freq. dielectric constant tensor:
#      x y z
#    x 1.826290 0.000000 0.000000 
#    y 0.000000 1.826290 0.000000 
#    z 0.000000 0.000000 1.842930 
# 
# From -- ./inp_files/3152.got.cif
#   From: 2010.03.12/outbox.cif.g09.slc.cpg/sg136_2_cif.got.tgz:3152.got - 2010.04.06 18:39:43.
