data_PCOD8318278
_publ_section_title
;
Structure prediction by ZEFSAII (Michael W. Deem and Ramdas Pophale) SiO2 
 PCOD8318278
Probable space group: P 42/M N M
;
_chemical_formula_sum "Si O2"
_cell_formula_units_Z 104
_cell_length_a 15.994361
_cell_length_b 15.994361
_cell_length_c 22.600202
_cell_angle_alpha 90.000000
_cell_angle_beta 90.000000
_cell_angle_gamma 90.000000
_cell_volume 5781.574269
_symmetry_space_group_name_H-M "P 42/M N M"
_symmetry_group_IT_number 136
_symmetry_cell_setting 'tetragonal'
loop_
_space_group_symop_operation_xyz
x,y,z
1/2-y,1/2+x,1/2+z
-x,-y,z
1/2+y,1/2-x,1/2+z
1/2+x,1/2-y,1/2-z
1/2-x,1/2+y,1/2-z
y,x,-z
-y,-x,-z
-x,-y,-z
1/2+y,1/2-x,1/2-z
x,y,-z
1/2-y,1/2+x,1/2-z
1/2-x,1/2+y,1/2+z
1/2+x,1/2-y,1/2+z
-y,-x,z
y,x,z
loop_
_atom_site_type_symbol
_atom_site_label
_atom_site_fract_x
_atom_site_fract_y
_atom_site_fract_z
Si Si1 0.787002 0.351423 0.858973
Si Si2 0.664171 0.801644 0.143040
Si Si3 0.283058 0.587099 0.433299
Si Si4 0.935854 0.064147 0.570063
Si Si5 0.089961 0.396316 0.748456
Si Si6 0.486802 0.254396 0.929657
Si Si7 0.899755 0.233938 0.933774
O O1 0.706867 0.293134 0.841550
O O2 0.830154 0.397925 0.804322
O O3 0.760580 0.420084 0.906865
O O4 0.858372 0.296932 0.888671
O O5 0.711313 0.711313 0.152807
O O6 0.727773 0.862859 0.112129
O O7 0.633661 0.842728 0.203649
O O8 0.583347 0.802301 0.100575
O O9 0.246937 0.596029 0.500000
O O10 0.377364 0.622637 0.431094
O O11 0.284142 0.492521 0.411653
O O12 0.940026 0.059974 0.500000
O O13 0.961111 0.154414 0.592245
O O14 0.000000 0.000000 0.599625
O O15 0.109633 0.492914 0.730191
O O16 0.484679 0.241652 0.000000
O O17 0.854673 0.145328 0.932848
O O18 0.897562 0.272482 0.000000
#
# Coordination Sequence:
#
# PCOD8318278 Si02
#       7
#    16  16  16   8  16  16  16
#     4  11  22  38  58  82 113 150 191 234 283 341
#     4  11  21  37  58  82 113 149 190 235 284 340
#     4   9  18  32  53  81 111 143 180 226 281 340
#     4   9  18  32  52  82 118 152 183 223 278 338
#     4  11  23  40  60  80 109 145 194 244 282 332
#     4  11  21  35  57  86 118 151 188 232 284 343
#     4   9  18  33  53  79 111 144 180 226 281 341
#
# _framework density 17.98818
#
# number of rings (size 3 to 8) (size 9 to 14) (size 15 to 20)
#    0.000    1.769    2.308    2.769    0.000    2.462 
#    0.000    1.538    0.000    3.692    0.000    0.000 
#    0.000    0.000    0.000    0.000    0.000    0.000 
#
# Total GULP energy -1289005.372951 kJ/mol
# GULP energy per Si atom -12394.282432 kJ/mol
# Density = 1.794724 g / cm^3
# Si number density = 17.988180 Si / 1000 Ang^3
#
#
#
# Elastic Constant Matrix: (Units=GPa)
#
#
# Indices 1 2 3 4 5 6 
#
# 1 94.3730 37.9976 29.8858 0.0000 0.0000 0.0000
# 2 37.9976 94.3740 29.8854 0.0000 0.0000 0.0000
# 3 29.8858 29.8854 69.1888 0.0000 0.0000 0.0000
# 4 0.0000 0.0000 0.0000 28.1642 0.0000 0.0000
# 5 0.0000 0.0000 0.0000 0.0000 28.1642 0.0000
# 6 0.0000 0.0000 0.0000 0.0000 0.0000 22.7568
#
#
#
# Elastic Compliance Matrix: (Units=1/GPa)
#
#
# Indices 1 2 3 4 5 6 
#
# 1 0.013562 -0.004177 -0.004054 0.000000 0.000000 0.000000
# 2 -0.004177 0.013561 -0.004054 0.000000 0.000000 0.000000
# 3 -0.004054 -0.004054 0.017955 0.000000 0.000000 0.000000
# 4 0.000000 0.000000 0.000000 0.035506 0.000000 0.000000
# 5 0.000000 0.000000 0.000000 0.000000 0.035506 0.000000
# 6 0.000000 0.000000 0.000000 0.000000 0.000000 0.043943
#
#
# Mechanical properties :
#
#
# Convention : Reuss Voigt Hill
#
# Bulk Modulus (GPa) = 48.75659 50.38595 49.57127
# Shear Modulus (GPa) = 26.11809 26.49483 26.30646
#
# Velocity S-wave (km/s) = 3.81459 3.84200 3.82832
# Velocity P-wave (km/s) = 6.82386 6.91034 6.86724
#
# Compressibility (1/GPa) = 0.02051005
#
# Stress axis : x y z
#
# Youngs Moduli (GPa) = 73.73740 73.73859 55.69421
#
# Poissons Ratio (x) = 0.30797 0.22578
# Poissons Ratio (y) = 0.30797 0.22577
# Poissons Ratio (z) = 0.29892 0.29891
#
# Static dielectric constant tensor:
#      x y z
#    x 3.419940 0.000000 0.000000 
#    y 0.000000 3.419940 0.000000 
#    z 0.000000 0.000000 3.175420 
# 
# 
# High freq. dielectric constant tensor:
#      x y z
#    x 1.705360 0.000000 0.000000 
#    y 0.000000 1.705360 0.000000 
#    z 0.000000 0.000000 1.683770 
# 
# From -- ./inp_files/8522.got.cif
#   From: 2010.03.12/outbox.cif.g09.slc.cpg/sg136_5_cif.got.tgz:8522.got - 2010.04.06 18:39:43.
