data_PCOD8318526
_publ_section_title
;
Structure prediction by ZEFSAII (Michael W. Deem and Ramdas Pophale) SiO2 
 PCOD8318526
Probable space group: P 42/N M C
;
_chemical_formula_sum "Si O2"
_cell_formula_units_Z 96
_cell_length_a 15.090785
_cell_length_b 15.090785
_cell_length_c 22.158958
_cell_angle_alpha 90.000000
_cell_angle_beta 90.000000
_cell_angle_gamma 90.000000
_cell_volume 5046.299212
_symmetry_space_group_name_H-M "P 42/N M C"
_symmetry_group_IT_number 137
_space_group.IT_coordinate_system_code '2'
_symmetry_cell_setting 'tetragonal'
loop_
_space_group_symop_operation_xyz
x,y,z
1/2-y,x,1/2+z
1/2-x,1/2-y,z
y,1/2-x,1/2+z
1/2+x,-y,-z
-x,1/2+y,-z
1/2+y,1/2+x,1/2-z
-y,-x,1/2-z
-x,-y,-z
1/2+y,-x,1/2-z
1/2+x,1/2+y,-z
-y,1/2+x,1/2-z
1/2-x,y,z
x,1/2-y,z
1/2-y,1/2-x,1/2+z
y,x,1/2+z
loop_
_atom_site_type_symbol
_atom_site_label
_atom_site_fract_x
_atom_site_fract_y
_atom_site_fract_z
Si Si1 0.523629 0.344009 0.469830
Si Si2 0.465438 0.479546 0.862262
Si Si3 0.063345 0.349192 0.162232
Si Si4 0.648917 0.061095 0.554037
Si Si5 0.612013 0.846756 0.974293
Si Si6 0.649452 0.651909 0.215021
O O1 0.546979 0.250000 0.439297
O O2 0.523327 0.419319 0.420035
O O3 0.597735 0.359734 0.520899
O O4 0.426593 0.331181 0.499448
O O5 0.500625 0.565426 0.826033
O O6 0.537674 0.408205 0.885992
O O7 0.400585 0.426143 0.819069
O O8 0.017327 0.250000 0.166315
O O9 0.106726 0.360849 0.097170
O O10 0.138733 0.355237 0.213091
O O11 0.750000 0.087604 0.572201
O O12 0.650226 0.983216 0.505416
O O13 0.655535 0.750000 0.987761
O O14 0.750000 0.647538 0.191907
O O15 0.610366 0.750000 0.200145
#
# Coordination Sequence:
#
# PCOD8318526 Si02
#       6
#    16  16  16  16  16  16
#     4  11  21  32  50  78 110 140 174 219 273 329
#     4  11  19  37  56  80 103 145 184 226 268 332
#     4  10  19  34  58  80 106 143 182 228 275 325
#     4  10  19  34  54  75 105 142 180 219 264 319
#     4   9  17  33  54  76 102 137 179 221 268 325
#     4  10  22  37  54  81 111 139 177 226 281 335
#
# _framework density 19.023841000000001
#
# number of rings (size 3 to 8) (size 9 to 14) (size 15 to 20)
#    0.000    1.833    3.333    2.500    0.000    2.000 
#    0.000    1.667    0.000    1.500    0.000    4.667 
#    0.000    1.333    0.000    0.000    0.000    0.000 
#
# Total GULP energy -1189363.611124 kJ/mol
# GULP energy per Si atom -12389.204283 kJ/mol
# Density = 1.898054 g / cm^3
# Si number density = 19.023841 Si / 1000 Ang^3
#
#
#
# Elastic Constant Matrix: (Units=GPa)
#
#
# Indices 1 2 3 4 5 6 
#
# 1 100.3328 46.3914 12.8586 0.0000 0.0000 0.0000
# 2 46.3914 100.3328 12.8586 0.0000 0.0000 0.0000
# 3 12.8586 12.8586 52.7487 0.0000 0.0000 0.0000
# 4 0.0000 0.0000 0.0000 2.5366 0.0000 0.0000
# 5 0.0000 0.0000 0.0000 0.0000 2.5366 0.0000
# 6 0.0000 0.0000 0.0000 0.0000 0.0000 4.6899
#
#
#
# Elastic Compliance Matrix: (Units=1/GPa)
#
#
# Indices 1 2 3 4 5 6 
#
# 1 0.012829 -0.005709 -0.001736 0.000000 0.000000 0.000000
# 2 -0.005709 0.012829 -0.001736 0.000000 0.000000 0.000000
# 3 -0.001736 -0.001736 0.019804 0.000000 0.000000 0.000000
# 4 0.000000 0.000000 0.000000 0.394231 0.000000 0.000000
# 5 0.000000 0.000000 0.000000 0.000000 0.394231 0.000000
# 6 0.000000 0.000000 0.000000 0.000000 0.000000 0.213223
#
#
# Mechanical properties :
#
#
# Convention : Reuss Voigt Hill
#
# Bulk Modulus (GPa) = 36.89886 44.18127 40.54006
# Shear Modulus (GPa) = 4.65314 14.03967 9.34641
#
# Velocity S-wave (km/s) = 1.56565 2.71957 2.21893
# Velocity P-wave (km/s) = 4.76514 5.75639 5.28406
#
# Compressibility (1/GPa) = 0.02710111
#
# Stress axis : x y z
#
# Youngs Moduli (GPa) = 77.94735 77.94735 50.49490
#
# Poissons Ratio (x) = 0.44504 0.08764
# Poissons Ratio (y) = 0.44504 0.08764
# Poissons Ratio (z) = 0.13528 0.13528
#
# Static dielectric constant tensor:
#      x y z
#    x 3.554550 0.000000 0.000000 
#    y 0.000000 3.554550 0.000000 
#    z 0.000000 0.000000 3.379320 
# 
# 
# High freq. dielectric constant tensor:
#      x y z
#    x 1.732730 0.000000 0.000000 
#    y 0.000000 1.732730 0.000000 
#    z 0.000000 0.000000 1.730520 
# 
# From -- ./inp_files/7864.got.cif
#   From: 2010.03.12/outbox.cif.g09.slc.cpg/sg137_4_cif.got.tgz:7864.got - 2010.04.08 09:34:49.
