data_PCOD8318086
_publ_section_title
;
Structure prediction by ZEFSAII (Michael W. Deem and Ramdas Pophale) SiO2 
 PCOD8318086
Probable space group: P 42/M N M
;
_chemical_formula_sum "Si O2"
_cell_formula_units_Z 96
_cell_length_a 19.811419
_cell_length_b 19.811419
_cell_length_c 13.046098
_cell_angle_alpha 90.000000
_cell_angle_beta 90.000000
_cell_angle_gamma 90.000000
_cell_volume 5120.493307
_symmetry_space_group_name_H-M "P 42/M N M"
_symmetry_group_IT_number 136
_symmetry_cell_setting 'tetragonal'
loop_
_space_group_symop_operation_xyz
x,y,z
1/2-y,1/2+x,1/2+z
-x,-y,z
1/2+y,1/2-x,1/2+z
1/2+x,1/2-y,1/2-z
1/2-x,1/2+y,1/2-z
y,x,-z
-y,-x,-z
-x,-y,-z
1/2+y,1/2-x,1/2-z
x,y,-z
1/2-y,1/2+x,1/2-z
1/2-x,1/2+y,1/2+z
1/2+x,1/2-y,1/2+z
-y,-x,z
y,x,z
loop_
_atom_site_type_symbol
_atom_site_label
_atom_site_fract_x
_atom_site_fract_y
_atom_site_fract_z
Si Si1 0.574391 0.315802 0.708762
Si Si2 0.472228 0.895110 0.750439
Si Si3 0.313744 0.125835 0.117884
Si Si4 0.760692 0.129266 0.694812
Si Si5 0.068316 0.822218 0.114934
Si Si6 0.987517 0.732570 0.616427
O O1 0.618428 0.381573 0.729768
O O2 0.612279 0.265510 0.631028
O O3 0.505423 0.339178 0.656514
O O4 0.562320 0.278856 0.817069
O O5 0.544140 0.923927 0.712333
O O6 0.439422 0.855608 0.654955
O O7 0.484778 0.844704 0.845032
O O8 0.331380 0.190588 0.186402
O O9 0.331160 0.140463 0.000000
O O10 0.822601 0.177400 0.661580
O O11 0.767307 0.105457 0.813151
O O12 0.760740 0.063849 0.622149
O O13 0.107221 0.892780 0.117022
O O14 0.065592 0.791975 0.000000
O O15 0.962379 0.735171 0.500000
#
# Coordination Sequence:
#
# PCOD8318086 Si02
#       6
#    16  16  16  16  16  16
#     4  10  22  38  56  84 119 148 186 238 284 335
#     4  10  21  37  56  81 115 149 185 233 285 341
#     4  11  22  36  56  83 112 147 189 232 283 339
#     4  10  20  35  56  82 111 145 189 238 281 332
#     4   9  19  37  60  84 113 150 189 231 283 341
#     4  10  21  38  58  81 112 152 195 235 280 337
#
# _framework density 18.748194000000002
#
# number of rings (size 3 to 8) (size 9 to 14) (size 15 to 20)
#    0.000    2.000    1.667    1.500    0.000    4.667 
#    0.000    5.833    0.000    4.000    0.000    4.667 
#    0.000    0.000    0.000    0.000    0.000    0.000 
#
# Total GULP energy -1190610.041465 kJ/mol
# GULP energy per Si atom -12402.187932 kJ/mol
# Density = 1.870552 g / cm^3
# Si number density = 18.748194 Si / 1000 Ang^3
#
#
#
# Elastic Constant Matrix: (Units=GPa)
#
#
# Indices 1 2 3 4 5 6 
#
# 1 103.1921 53.2018 55.3342 0.0000 0.0000 0.0000
# 2 53.2018 103.1921 55.3342 0.0000 0.0000 0.0000
# 3 55.3342 55.3342 133.2257 0.0000 0.0000 0.0000
# 4 0.0000 0.0000 0.0000 17.4728 0.0000 0.0000
# 5 0.0000 0.0000 0.0000 0.0000 17.4728 0.0000
# 6 0.0000 0.0000 0.0000 0.0000 0.0000 33.6856
#
#
#
# Elastic Compliance Matrix: (Units=1/GPa)
#
#
# Indices 1 2 3 4 5 6 
#
# 1 0.014530 -0.005474 -0.003761 0.000000 0.000000 0.000000
# 2 -0.005474 0.014530 -0.003761 0.000000 0.000000 0.000000
# 3 -0.003761 -0.003761 0.010630 0.000000 0.000000 0.000000
# 4 0.000000 0.000000 0.000000 0.057232 0.000000 0.000000
# 5 0.000000 0.000000 0.000000 0.000000 0.057232 0.000000
# 6 0.000000 0.000000 0.000000 0.000000 0.000000 0.029686
#
#
# Mechanical properties :
#
#
# Convention : Reuss Voigt Hill
#
# Bulk Modulus (GPa) = 73.00901 74.15001 73.57951
# Shear Modulus (GPa) = 23.32106 25.44221 24.38164
#
# Velocity S-wave (km/s) = 3.53074 3.68781 3.61013
# Velocity P-wave (km/s) = 7.45975 7.60063 7.53052
#
# Compressibility (1/GPa) = 0.01369694
#
# Stress axis : x y z
#
# Youngs Moduli (GPa) = 68.82437 68.82437 94.06979
#
# Poissons Ratio (x) = 0.37675 0.35381
# Poissons Ratio (y) = 0.37675 0.35381
# Poissons Ratio (z) = 0.25886 0.25886
#
# Static dielectric constant tensor:
#      x y z
#    x 3.516400 0.000000 0.000000 
#    y 0.000000 3.516400 0.000000 
#    z 0.000000 0.000000 3.347470 
# 
# 
# High freq. dielectric constant tensor:
#      x y z
#    x 1.732760 0.000000 0.000000 
#    y 0.000000 1.732760 0.000000 
#    z 0.000000 0.000000 1.716430 
# 
# From -- ./inp_files/3781.got.cif
#   From: 2010.03.12/outbox.cif.g09.slc.cpg/sg136_2_cif.got.tgz:3781.got - 2010.04.06 18:39:43.
