data_PCOD8318801
_publ_section_title
;
Structure prediction by ZEFSAII (Michael W. Deem and Ramdas Pophale) SiO2 
 PCOD8318801
Probable space group: P 42/N M C
;
_chemical_formula_sum "Si O2"
_cell_formula_units_Z 96
_cell_length_a 14.589276
_cell_length_b 14.589276
_cell_length_c 23.326994
_cell_angle_alpha 90.000000
_cell_angle_beta 90.000000
_cell_angle_gamma 90.000000
_cell_volume 4965.080090
_symmetry_space_group_name_H-M "P 42/N M C"
_symmetry_group_IT_number 137
_space_group.IT_coordinate_system_code '2'
_symmetry_cell_setting 'tetragonal'
loop_
_space_group_symop_operation_xyz
x,y,z
1/2-y,x,1/2+z
1/2-x,1/2-y,z
y,1/2-x,1/2+z
1/2+x,-y,-z
-x,1/2+y,-z
1/2+y,1/2+x,1/2-z
-y,-x,1/2-z
-x,-y,-z
1/2+y,-x,1/2-z
1/2+x,1/2+y,-z
-y,1/2+x,1/2-z
1/2-x,y,z
x,1/2-y,z
1/2-y,1/2-x,1/2+z
y,x,1/2+z
loop_
_atom_site_type_symbol
_atom_site_label
_atom_site_fract_x
_atom_site_fract_y
_atom_site_fract_z
Si Si1 0.553664 0.650304 0.341890
Si Si2 0.857611 0.495207 0.415819
Si Si3 0.077295 0.438043 0.275200
Si Si4 0.532659 0.852610 0.046862
Si Si5 0.407838 0.648901 0.150139
Si Si6 0.645727 0.996454 0.115048
O O1 0.585208 0.750000 0.362199
O O2 0.590597 0.581282 0.388764
O O3 0.601388 0.630073 0.280224
O O4 0.441680 0.651585 0.335988
O O5 0.750000 0.493302 0.400272
O O6 0.876316 0.501266 0.483055
O O7 0.906060 0.405239 0.390442
O O8 0.146996 0.504349 0.308530
O O9 0.989123 0.489123 0.250000
O O10 0.042484 0.361794 0.320039
O O11 0.575010 0.750000 0.049814
O O12 0.440598 0.858792 0.084560
O O13 0.607707 0.924104 0.068929
O O14 0.359364 0.750000 0.159256
O O15 0.750000 0.015124 0.099972
#
# Coordination Sequence:
#
# PCOD8318801 Si02
#       6
#    16  16  16  16  16  16
#     4  11  22  36  58  86 117 155 197 240 295 357
#     4  11  23  41  60  82 122 161 195 240 290 345
#     4   9  17  37  56  82 114 152 188 237 291 347
#     4   9  19  38  62  86 117 155 189 232 290 345
#     4   9  17  33  59  85 115 150 187 234 288 346
#     4  11  22  38  65  91 114 151 199 246 293 343
#
# _framework density 19.335037
#
# number of rings (size 3 to 8) (size 9 to 14) (size 15 to 20)
#    0.000    2.000    5.000    1.000    0.000    3.333 
#    0.000    1.667    0.000    6.000    0.000    0.000 
#    0.000    0.000    0.000    0.000    0.000    0.000 
#
# Total GULP energy -1189687.367147 kJ/mol
# GULP energy per Si atom -12392.576741 kJ/mol
# Density = 1.929103 g / cm^3
# Si number density = 19.335037 Si / 1000 Ang^3
#
#
#
# Elastic Constant Matrix: (Units=GPa)
#
#
# Indices 1 2 3 4 5 6 
#
# 1 100.4533 32.8446 17.5248 0.0000 0.0000 0.0000
# 2 32.8446 100.4533 17.5248 0.0000 0.0000 0.0000
# 3 17.5248 17.5248 102.3243 0.0000 0.0000 0.0000
# 4 0.0000 0.0000 0.0000 11.2967 0.0000 0.0000
# 5 0.0000 0.0000 0.0000 0.0000 11.2967 0.0000
# 6 0.0000 0.0000 0.0000 0.0000 0.0000 5.1467
#
#
#
# Elastic Compliance Matrix: (Units=1/GPa)
#
#
# Indices 1 2 3 4 5 6 
#
# 1 0.011323 -0.003468 -0.001345 0.000000 0.000000 0.000000
# 2 -0.003468 0.011323 -0.001345 0.000000 0.000000 0.000000
# 3 -0.001345 -0.001345 0.010234 0.000000 0.000000 0.000000
# 4 0.000000 0.000000 0.000000 0.088522 0.000000 0.000000
# 5 0.000000 0.000000 0.000000 0.000000 0.088522 0.000000
# 6 0.000000 0.000000 0.000000 0.000000 0.000000 0.194299
#
#
# Mechanical properties :
#
#
# Convention : Reuss Voigt Hill
#
# Bulk Modulus (GPa) = 48.62983 48.77989 48.70486
# Shear Modulus (GPa) = 11.80932 21.23712 16.52322
#
# Velocity S-wave (km/s) = 2.47406 3.31777 2.92648
# Velocity P-wave (km/s) = 5.77642 6.32142 6.05506
#
# Compressibility (1/GPa) = 0.02056351
#
# Stress axis : x y z
#
# Youngs Moduli (GPa) = 88.31281 88.31281 97.71629
#
# Poissons Ratio (x) = 0.30624 0.13147
# Poissons Ratio (y) = 0.30624 0.13147
# Poissons Ratio (z) = 0.11882 0.11882
#
# Static dielectric constant tensor:
#      x y z
#    x 3.423350 0.000000 0.000000 
#    y 0.000000 3.423350 0.000000 
#    z 0.000000 0.000000 3.851010 
# 
# 
# High freq. dielectric constant tensor:
#      x y z
#    x 1.733190 0.000000 0.000000 
#    y 0.000000 1.733190 0.000000 
#    z 0.000000 0.000000 1.767680 
# 
# From -- ./inp_files/7801.got.cif
#   From: 2010.03.12/outbox.cif.g09.slc.cpg/sg137_4_cif.got.tgz:7801.got - 2010.04.08 09:34:49.
