data_PCOD8318320
_publ_section_title
;
Structure prediction by ZEFSAII (Michael W. Deem and Ramdas Pophale) SiO2 
 PCOD8318320
Probable space group: P 42/M N M
;
_chemical_formula_sum "Si O2"
_cell_formula_units_Z 48
_cell_length_a 12.150620
_cell_length_b 12.150620
_cell_length_c 16.541658
_cell_angle_alpha 90.000000
_cell_angle_beta 90.000000
_cell_angle_gamma 90.000000
_cell_volume 2442.170131
_symmetry_space_group_name_H-M "P 42/M N M"
_symmetry_group_IT_number 136
_symmetry_cell_setting 'tetragonal'
loop_
_space_group_symop_operation_xyz
x,y,z
1/2-y,1/2+x,1/2+z
-x,-y,z
1/2+y,1/2-x,1/2+z
1/2+x,1/2-y,1/2-z
1/2-x,1/2+y,1/2-z
y,x,-z
-y,-x,-z
-x,-y,-z
1/2+y,1/2-x,1/2-z
x,y,-z
1/2-y,1/2+x,1/2-z
1/2-x,1/2+y,1/2+z
1/2+x,1/2-y,1/2+z
-y,-x,z
y,x,z
loop_
_atom_site_type_symbol
_atom_site_label
_atom_site_fract_x
_atom_site_fract_y
_atom_site_fract_z
Si Si1 0.518975 0.185565 0.666505
Si Si2 0.025551 0.331020 0.348674
Si Si3 0.504669 0.676433 0.000000
Si Si4 0.414073 0.585928 0.405835
O O1 0.398150 0.140385 0.642401
O O2 0.525861 0.223574 0.759912
O O3 0.554495 0.289828 0.615303
O O4 0.596041 0.083143 0.645963
O O5 0.019620 0.243161 0.419097
O O6 0.630389 0.630389 0.000000
O O7 0.425556 0.574445 0.000000
O O8 0.500000 0.500000 0.364668
O O9 0.425005 0.574996 0.500000
#
# Coordination Sequence:
#
# PCOD8318320 Si02
#       4
#    16  16   8   8
#     4   9  21  42  66  91 120 158 211 253 305 370
#     4   9  21  42  66  91 118 162 207 254 308 365
#     4  11  26  39  56  93 129 160 205 254 312 366
#     4  11  26  40  58  95 129 163 202 252 316 364
#
# _framework density 19.654648999999999
#
# number of rings (size 3 to 8) (size 9 to 14) (size 15 to 20)
#    0.000    2.333    0.000    2.000    9.333    4.000 
#    6.000    0.000    0.000    0.000    0.000    0.000 
#    0.000    0.000    0.000    0.000    0.000    0.000 
#
# Total GULP energy -594906.137746 kJ/mol
# GULP energy per Si atom -12393.877870 kJ/mol
# Density = 1.960991 g / cm^3
# Si number density = 19.654649 Si / 1000 Ang^3
#
#
#
# Elastic Constant Matrix: (Units=GPa)
#
#
# Indices 1 2 3 4 5 6 
#
# 1 93.0942 55.2088 57.4630 0.0000 0.0000 0.0000
# 2 55.2088 93.0958 57.4643 0.0000 0.0000 0.0000
# 3 57.4630 57.4643 112.8652 0.0000 0.0000 0.0000
# 4 0.0000 0.0000 0.0000 20.9731 0.0000 0.0000
# 5 0.0000 0.0000 0.0000 0.0000 20.9726 0.0000
# 6 0.0000 0.0000 0.0000 0.0000 0.0000 18.1734
#
#
#
# Elastic Compliance Matrix: (Units=1/GPa)
#
#
# Indices 1 2 3 4 5 6 
#
# 1 0.018766 -0.007629 -0.005670 0.000000 0.000000 0.000000
# 2 -0.007629 0.018766 -0.005670 0.000000 0.000000 0.000000
# 3 -0.005670 -0.005670 0.014634 0.000000 0.000000 0.000000
# 4 0.000000 0.000000 0.000000 0.047680 0.000000 0.000000
# 5 0.000000 0.000000 0.000000 0.000000 0.047681 0.000000
# 6 0.000000 0.000000 0.000000 0.000000 0.000000 0.055026
#
#
# Mechanical properties :
#
#
# Convention : Reuss Voigt Hill
#
# Bulk Modulus (GPa) = 70.28873 71.03641 70.66257
# Shear Modulus (GPa) = 20.38869 20.61843 20.50356
#
# Velocity S-wave (km/s) = 3.22428 3.24240 3.23335
# Velocity P-wave (km/s) = 7.04988 7.08790 7.06891
#
# Compressibility (1/GPa) = 0.01422703
#
# Stress axis : x y z
#
# Youngs Moduli (GPa) = 53.28786 53.28810 68.33399
#
# Poissons Ratio (x) = 0.40653 0.38746
# Poissons Ratio (y) = 0.40653 0.38748
# Poissons Ratio (z) = 0.30215 0.30217
#
# Static dielectric constant tensor:
#      x y z
#    x 3.672900 0.000000 0.000000 
#    y 0.000000 3.672900 0.000000 
#    z 0.000000 0.000000 3.845390 
# 
# 
# High freq. dielectric constant tensor:
#      x y z
#    x 1.766280 0.000000 0.000000 
#    y 0.000000 1.766280 0.000000 
#    z 0.000000 0.000000 1.773080 
# 
# From -- ./inp_files/5738.got.cif
#   From: 2010.03.12/outbox.cif.g09.slc.cpg/sg136_3_cif.got.tgz:5738.got - 2010.04.06 18:39:43.
