data_PCOD8318935
_publ_section_title
;
Structure prediction by ZEFSAII (Michael W. Deem and Ramdas Pophale) SiO2 
 PCOD8318935
Probable space group: P 42/N C M
;
_chemical_formula_sum "Si O2"
_cell_formula_units_Z 128
_cell_length_a 23.406043
_cell_length_b 23.406043
_cell_length_c 13.116752
_cell_angle_alpha 90.000000
_cell_angle_beta 90.000000
_cell_angle_gamma 90.000000
_cell_volume 7185.918784
_symmetry_space_group_name_H-M "P 42/N C M"
_symmetry_group_IT_number 138
_space_group.IT_coordinate_system_code '2'
_symmetry_cell_setting 'tetragonal'
loop_
_space_group_symop_operation_xyz
x,y,z
1/2-y,x,1/2+z
1/2-x,1/2-y,z
y,1/2-x,1/2+z
1/2+x,-y,1/2-z
-x,1/2+y,1/2-z
1/2+y,1/2+x,-z
-y,-x,-z
-x,-y,-z
1/2+y,-x,1/2-z
1/2+x,1/2+y,-z
-y,1/2+x,1/2-z
1/2-x,y,1/2+z
x,1/2-y,1/2+z
1/2-y,1/2-x,z
y,x,z
loop_
_atom_site_type_symbol
_atom_site_label
_atom_site_fract_x
_atom_site_fract_y
_atom_site_fract_z
Si Si1 0.855464 0.552332 0.648553
Si Si2 0.265492 0.019946 0.499695
Si Si3 0.928629 0.251952 0.332497
Si Si4 0.931348 0.659990 0.881583
Si Si5 0.687104 0.074964 0.365632
Si Si6 0.659559 0.252995 0.495039
Si Si7 0.931751 0.118976 0.800436
Si Si8 0.025086 0.932853 0.397625
O O1 0.900927 0.599074 0.621381
O O2 0.805809 0.561374 0.565824
O O3 0.828760 0.561066 0.761195
O O4 0.888640 0.491331 0.638253
O O5 0.218746 0.059275 0.556591
O O6 0.238276 0.975682 0.419001
O O7 0.306353 0.985927 0.578878
O O8 0.933138 0.201259 0.252339
O O9 0.867136 0.252972 0.383955
O O10 0.933302 0.313127 0.276509
O O11 0.868971 0.631030 0.903549
O O12 0.979850 0.616746 0.918148
O O13 0.734034 0.117053 0.414910
O O14 0.622019 0.099502 0.370757
O O15 0.713739 0.213739 0.500000
O O16 0.681106 0.318895 0.500000
O O17 0.932844 0.082980 0.695635
O O18 0.062181 0.937820 0.500000
O O19 0.992140 0.992140 0.372349
#
# Coordination Sequence:
#
# PCOD8318935 Si02
#       8
#    16  16  16  16  16  16  16  16
#     4   9  19  37  61  83 110 146 184 217 264 334
#     4  10  20  35  57  81 111 136 181 226 272 332
#     4  10  22  35  48  74 103 139 186 234 282 322
#     4   9  18  36  58  81 109 145 180 218 272 324
#     4  11  22  34  50  75 107 141 185 235 283 319
#     4  10  21  36  50  63  92 138 192 239 279 319
#     4  10  19  34  52  71 107 146 180 230 278 323
#     4   9  18  32  52  79 108 138 179 221 263 322
#
# _framework density 17.812614
#
# number of rings (size 3 to 8) (size 9 to 14) (size 15 to 20)
#    0.000    2.250    1.250    3.375    3.500    0.000 
#    0.000    3.125    0.000    3.375    0.000    1.750 
#    0.000    0.000    0.000    0.000    0.000    0.000 
#
# Total GULP energy -1586234.912210 kJ/mol
# GULP energy per Si atom -12392.460252 kJ/mol
# Density = 1.777207 g / cm^3
# Si number density = 17.812614 Si / 1000 Ang^3
#
#
#
# Elastic Constant Matrix: (Units=GPa)
#
#
# Indices 1 2 3 4 5 6 
#
# 1 84.3680 56.4059 50.4919 0.0000 0.0000 0.0000
# 2 56.4059 84.3671 50.4923 0.0000 0.0000 0.0000
# 3 50.4919 50.4923 100.0427 0.0000 0.0000 0.0000
# 4 0.0000 0.0000 0.0000 26.8335 0.0000 0.0000
# 5 0.0000 0.0000 0.0000 0.0000 26.8341 0.0000
# 6 0.0000 0.0000 0.0000 0.0000 0.0000 30.4598
#
#
#
# Elastic Compliance Matrix: (Units=1/GPa)
#
#
# Indices 1 2 3 4 5 6 
#
# 1 0.023449 -0.012314 -0.005620 0.000000 0.000000 0.000000
# 2 -0.012314 0.023449 -0.005620 0.000000 0.000000 0.000000
# 3 -0.005620 -0.005620 0.015669 0.000000 0.000000 0.000000
# 4 0.000000 0.000000 0.000000 0.037267 0.000000 0.000000
# 5 0.000000 0.000000 0.000000 0.000000 0.037266 0.000000
# 6 0.000000 0.000000 0.000000 0.000000 0.000000 0.032830
#
#
# Mechanical properties :
#
#
# Convention : Reuss Voigt Hill
#
# Bulk Modulus (GPa) = 64.68730 64.83976 64.76353
# Shear Modulus (GPa) = 22.50317 24.25133 23.37725
#
# Velocity S-wave (km/s) = 3.55819 3.69381 3.62663
# Velocity P-wave (km/s) = 7.29899 7.39408 7.34669
#
# Compressibility (1/GPa) = 0.01545898
#
# Stress axis : x y z
#
# Youngs Moduli (GPa) = 42.64588 42.64492 63.82205
#
# Poissons Ratio (x) = 0.52513 0.35866
# Poissons Ratio (y) = 0.52515 0.35869
# Poissons Ratio (z) = 0.23966 0.23967
#
# Static dielectric constant tensor:
#      x y z
#    x 3.255340 0.000000 0.000000 
#    y 0.000000 3.255330 0.000000 
#    z 0.000000 0.000000 3.323160 
# 
# 
# High freq. dielectric constant tensor:
#      x y z
#    x 1.671530 0.000000 0.000000 
#    y 0.000000 1.671530 0.000000 
#    z 0.000000 0.000000 1.690680 
# 
# From -- ./inp_files/3363.got.cif
#   From: 2010.03.12/outbox.cif.g09.slc.cpg/sg138_2_cif.got.tgz:3363.got - 2010.04.08 09:41:05.
