data_PCOD8318896
_publ_section_title
;
Structure prediction by ZEFSAII (Michael W. Deem and Ramdas Pophale) SiO2 
 PCOD8318896
Probable space group: P 42/N C M
;
_chemical_formula_sum "Si O2"
_cell_formula_units_Z 96
_cell_length_a 14.199456
_cell_length_b 14.199456
_cell_length_c 27.314010
_cell_angle_alpha 90.000000
_cell_angle_beta 90.000000
_cell_angle_gamma 90.000000
_cell_volume 5507.174994
_symmetry_space_group_name_H-M "P 42/N C M"
_symmetry_group_IT_number 138
_space_group.IT_coordinate_system_code '2'
_symmetry_cell_setting 'tetragonal'
loop_
_space_group_symop_operation_xyz
x,y,z
1/2-y,x,1/2+z
1/2-x,1/2-y,z
y,1/2-x,1/2+z
1/2+x,-y,1/2-z
-x,1/2+y,1/2-z
1/2+y,1/2+x,-z
-y,-x,-z
-x,-y,-z
1/2+y,-x,1/2-z
1/2+x,1/2+y,-z
-y,1/2+x,1/2-z
1/2-x,y,1/2+z
x,1/2-y,1/2+z
1/2-y,1/2-x,z
y,x,z
loop_
_atom_site_type_symbol
_atom_site_label
_atom_site_fract_x
_atom_site_fract_y
_atom_site_fract_z
Si Si1 0.249237 0.096262 0.482901
Si Si2 0.743136 0.599456 0.627920
Si Si3 0.608420 0.247599 0.023012
Si Si4 0.767333 0.358574 0.363837
Si Si5 0.122486 0.681424 0.766976
Si Si6 0.469500 0.877512 0.677285
O O1 0.346215 0.153786 0.489840
O O2 0.161517 0.161517 0.499387
O O3 0.235199 0.061701 0.427388
O O4 0.253940 0.002555 0.514992
O O5 0.816365 0.683636 0.628114
O O6 0.641676 0.641676 0.645201
O O7 0.777163 0.516245 0.663004
O O8 0.618355 0.239676 0.081217
O O9 0.652959 0.152959 0.000000
O O10 0.661782 0.338219 0.000000
O O11 0.750000 0.250000 0.352711
O O12 0.700341 0.410237 0.323162
O O13 0.874329 0.389162 0.353789
O O14 0.129100 0.777771 0.735528
O O15 0.046353 0.620988 0.736076
O O16 0.536217 0.963784 0.662115
#
# Coordination Sequence:
#
# PCOD8318896 Si02
#       6
#    16  16  16  16  16  16
#     4   9  19  36  55  75 107 153 191 219 274 345
#     4   8  15  29  50  75 103 136 172 214 267 318
#     4  11  22  33  53  84 114 138 181 243 279 318
#     4  11  19  35  55  73 103 147 178 207 281 341
#     4   9  16  31  53  69  93 139 174 198 259 328
#     4  10  19  31  53  82 105 129 177 232 264 313
#
# _framework density 17.431805000000001
#
# number of rings (size 3 to 8) (size 9 to 14) (size 15 to 20)
#    0.000    2.333    5.000    2.000    0.000    1.333 
#    0.000    4.167    0.000    0.000    0.000    2.333 
#    0.000    0.000    0.000    0.000    0.000    0.000 
#
# Total GULP energy -1189579.282089 kJ/mol
# GULP energy per Si atom -12391.450855 kJ/mol
# Density = 1.739213 g / cm^3
# Si number density = 17.431805 Si / 1000 Ang^3
#
#
#
# Elastic Constant Matrix: (Units=GPa)
#
#
# Indices 1 2 3 4 5 6 
#
# 1 71.9313 24.2455 30.9433 0.0000 0.0000 0.0000
# 2 24.2455 71.9309 30.9435 0.0000 0.0000 0.0000
# 3 30.9433 30.9435 126.1771 0.0000 0.0000 0.0000
# 4 0.0000 0.0000 0.0000 19.5750 0.0000 0.0000
# 5 0.0000 0.0000 0.0000 0.0000 19.5750 0.0000
# 6 0.0000 0.0000 0.0000 0.0000 0.0000 14.4543
#
#
#
# Elastic Compliance Matrix: (Units=1/GPa)
#
#
# Indices 1 2 3 4 5 6 
#
# 1 0.016658 -0.004312 -0.003028 0.000000 0.000000 0.000000
# 2 -0.004312 0.016658 -0.003028 0.000000 0.000000 0.000000
# 3 -0.003028 -0.003028 0.009410 0.000000 0.000000 0.000000
# 4 0.000000 0.000000 0.000000 0.051086 0.000000 0.000000
# 5 0.000000 0.000000 0.000000 0.000000 0.051086 0.000000
# 6 0.000000 0.000000 0.000000 0.000000 0.000000 0.069184
#
#
# Mechanical properties :
#
#
# Convention : Reuss Voigt Hill
#
# Bulk Modulus (GPa) = 45.47265 49.14491 47.30878
# Shear Modulus (GPa) = 20.64856 22.98131 21.81494
#
# Velocity S-wave (km/s) = 3.44544 3.63486 3.54141
# Velocity P-wave (km/s) = 6.47848 6.77275 6.62725
#
# Compressibility (1/GPa) = 0.02199124
#
# Stress axis : x y z
#
# Youngs Moduli (GPa) = 60.03069 60.03020 106.26592
#
# Poissons Ratio (x) = 0.25888 0.32173
# Poissons Ratio (y) = 0.25888 0.32174
# Poissons Ratio (z) = 0.18175 0.18175
#
# Static dielectric constant tensor:
#      x y z
#    x 3.427090 0.000000 0.000000 
#    y 0.000000 3.427090 0.000000 
#    z 0.000000 0.000000 3.360130 
# 
# 
# High freq. dielectric constant tensor:
#      x y z
#    x 1.656490 0.000000 0.000000 
#    y 0.000000 1.656490 0.000000 
#    z 0.000000 0.000000 1.673760 
# 
# From -- ./inp_files/8188.got.cif
#   From: 2010.03.12/outbox.cif.g09.slc.cpg/sg138_5_cif.got.tgz:8188.got - 2010.04.08 09:41:05.
