data_PCOD8318201
_publ_section_title
;
Structure prediction by ZEFSAII (Michael W. Deem and Ramdas Pophale) SiO2 
 PCOD8318201
Probable space group: P 42/M N M
;
_chemical_formula_sum "Si O2"
_cell_formula_units_Z 64
_cell_length_a 14.254090
_cell_length_b 14.254090
_cell_length_c 14.659703
_cell_angle_alpha 90.000000
_cell_angle_beta 90.000000
_cell_angle_gamma 90.000000
_cell_volume 2978.544994
_symmetry_space_group_name_H-M "P 42/M N M"
_symmetry_group_IT_number 136
_symmetry_cell_setting 'tetragonal'
loop_
_space_group_symop_operation_xyz
x,y,z
1/2-y,1/2+x,1/2+z
-x,-y,z
1/2+y,1/2-x,1/2+z
1/2+x,1/2-y,1/2-z
1/2-x,1/2+y,1/2-z
y,x,-z
-y,-x,-z
-x,-y,-z
1/2+y,1/2-x,1/2-z
x,y,-z
1/2-y,1/2+x,1/2-z
1/2-x,1/2+y,1/2+z
1/2+x,1/2-y,1/2+z
-y,-x,z
y,x,z
loop_
_atom_site_type_symbol
_atom_site_label
_atom_site_fract_x
_atom_site_fract_y
_atom_site_fract_z
Si Si1 0.166798 0.314511 0.101913
Si Si2 0.944223 0.201547 0.289091
Si Si3 0.452024 0.216710 0.602943
Si Si4 0.266287 0.116403 0.601731
O O1 0.209068 0.209068 0.117225
O O2 0.211470 0.384411 0.174172
O O3 0.056184 0.322633 0.115833
O O4 0.192756 0.348556 0.000000
O O5 0.897380 0.102621 0.320473
O O6 0.940600 0.202894 0.178986
O O7 0.048875 0.214635 0.326458
O O8 0.438426 0.257738 0.500000
O O9 0.377002 0.132743 0.620358
O O10 0.251839 0.074841 0.500000
O O11 0.218088 0.218088 0.610883
#
# Coordination Sequence:
#
# PCOD8318201 Si02
#       4
#    16  16  16  16
#     4   9  19  37  60  86 115 145 183 235 290 342
#     4  11  22  36  58  86 116 150 189 235 287 343
#     4  10  21  37  59  85 115 153 192 233 286 345
#     4  10  22  40  60  83 114 152 195 241 286 336
#
# _framework density 21.486999999999998
#
# number of rings (size 3 to 8) (size 9 to 14) (size 15 to 20)
#    0.000    2.000    0.000    3.000    0.000    7.500 
#    0.000    7.500    0.000    2.250    0.000   17.500 
#    0.000    0.000    0.000    0.000    0.000    0.000 
#
# Total GULP energy -793191.292712 kJ/mol
# GULP energy per Si atom -12393.613949 kJ/mol
# Density = 2.143809 g / cm^3
# Si number density = 21.487000 Si / 1000 Ang^3
#
#
#
# Elastic Constant Matrix: (Units=GPa)
#
#
# Indices 1 2 3 4 5 6 
#
# 1 89.0083 44.9223 27.5339 0.0000 0.0000 0.0000
# 2 44.9223 89.0083 27.5339 0.0000 0.0000 0.0000
# 3 27.5339 27.5339 125.5886 0.0000 0.0000 0.0000
# 4 0.0000 0.0000 0.0000 27.3404 0.0000 0.0000
# 5 0.0000 0.0000 0.0000 0.0000 27.3404 0.0000
# 6 0.0000 0.0000 0.0000 0.0000 0.0000 20.7089
#
#
#
# Elastic Compliance Matrix: (Units=1/GPa)
#
#
# Indices 1 2 3 4 5 6 
#
# 1 0.015445 -0.007238 -0.001799 0.000000 0.000000 0.000000
# 2 -0.007238 0.015445 -0.001799 0.000000 0.000000 0.000000
# 3 -0.001799 -0.001799 0.008751 0.000000 0.000000 0.000000
# 4 0.000000 0.000000 0.000000 0.036576 0.000000 0.000000
# 5 0.000000 0.000000 0.000000 0.000000 0.036576 0.000000
# 6 0.000000 0.000000 0.000000 0.000000 0.000000 0.048288
#
#
# Mechanical properties :
#
#
# Convention : Reuss Voigt Hill
#
# Bulk Modulus (GPa) = 55.65626 55.95393 55.80509
# Shear Modulus (GPa) = 26.49104 28.65230 27.57167
#
# Velocity S-wave (km/s) = 3.51506 3.65563 3.58604
# Velocity P-wave (km/s) = 6.51404 6.62688 6.57070
#
# Compressibility (1/GPa) = 0.01796743
#
# Stress axis : x y z
#
# Youngs Moduli (GPa) = 64.74751 64.74751 114.26761
#
# Poissons Ratio (x) = 0.46866 0.20558
# Poissons Ratio (y) = 0.46866 0.20558
# Poissons Ratio (z) = 0.11649 0.11649
#
# Static dielectric constant tensor:
#      x y z
#    x 3.673930 0.000000 0.000000 
#    y 0.000000 3.673930 0.000000 
#    z 0.000000 0.000000 4.296610 
# 
# 
# High freq. dielectric constant tensor:
#      x y z
#    x 1.824690 0.000000 0.000000 
#    y 0.000000 1.824690 0.000000 
#    z 0.000000 0.000000 1.864800 
# 
# From -- ./inp_files/4686.got.cif
#   From: 2010.03.12/outbox.cif.g09.slc.cpg/sg136_3_cif.got.tgz:4686.got - 2010.04.06 18:39:43.
