data_PCOD8318210
_publ_section_title
;
Structure prediction by ZEFSAII (Michael W. Deem and Ramdas Pophale) SiO2 
 PCOD8318210
Probable space group: P 42/M N M
;
_chemical_formula_sum "Si O2"
_cell_formula_units_Z 120
_cell_length_a 26.449627
_cell_length_b 26.449627
_cell_length_c 8.541258
_cell_angle_alpha 90.000000
_cell_angle_beta 90.000000
_cell_angle_gamma 90.000000
_cell_volume 5975.316918
_symmetry_space_group_name_H-M "P 42/M N M"
_symmetry_group_IT_number 136
_symmetry_cell_setting 'tetragonal'
loop_
_space_group_symop_operation_xyz
x,y,z
1/2-y,1/2+x,1/2+z
-x,-y,z
1/2+y,1/2-x,1/2+z
1/2+x,1/2-y,1/2-z
1/2-x,1/2+y,1/2-z
y,x,-z
-y,-x,-z
-x,-y,-z
1/2+y,1/2-x,1/2-z
x,y,-z
1/2-y,1/2+x,1/2-z
1/2-x,1/2+y,1/2+z
1/2+x,1/2-y,1/2+z
-y,-x,z
y,x,z
loop_
_atom_site_type_symbol
_atom_site_label
_atom_site_fract_x
_atom_site_fract_y
_atom_site_fract_z
Si Si1 0.458798 0.541203 0.684954
Si Si2 0.382980 0.920010 0.317169
Si Si3 0.178269 0.257350 0.186277
Si Si4 0.969800 0.647928 0.681984
Si Si5 0.251679 0.564393 0.315303
Si Si6 0.637155 0.783500 0.185356
Si Si7 0.321797 0.401886 0.813381
Si Si8 0.512151 0.349839 0.814957
O O1 0.500000 0.500000 0.749939
O O2 0.459829 0.540172 0.500000
O O3 0.470997 0.597560 0.740637
O O4 0.393473 0.910206 0.500000
O O5 0.425265 0.890615 0.221065
O O6 0.328939 0.898949 0.265047
O O7 0.382106 0.979070 0.273360
O O8 0.207901 0.207901 0.247388
O O9 0.121162 0.256800 0.247505
O O10 0.206440 0.306883 0.253068
O O11 0.178055 0.259248 0.000000
O O12 0.969621 0.661678 0.500000
O O13 0.967234 0.701549 0.771467
O O14 0.259926 0.561822 0.500000
O O15 0.302786 0.546767 0.232487
O O16 0.614197 0.732328 0.257696
O O17 0.640008 0.778044 0.000000
O O18 0.362813 0.362813 0.748927
O O19 0.337030 0.456624 0.750200
O O20 0.319984 0.401988 0.000000
O O21 0.513364 0.356489 0.000000
#
# Coordination Sequence:
#
# PCOD8318210 Si02
#       8
#     8  16  16  16  16  16  16  16
#     4  11  25  45  67  91 123 167 219 269 321 383
#     4  10  21  38  58  82 116 155 198 249 306 364
#     4   9  17  29  51  83 114 148 190 236 287 349
#     4  11  23  39  61  88 118 155 201 255 306 363
#     4  11  22  38  60  87 123 163 202 247 300 366
#     4   9  15  29  53  82 113 147 188 233 286 355
#     4   9  17  30  53  85 118 148 185 238 299 362
#     4  11  23  39  60  90 125 161 204 257 315 371
#
# _framework density 20.082618
#
# number of rings (size 3 to 8) (size 9 to 14) (size 15 to 20)
#    0.000    1.933    1.333    3.000    0.933    6.133 
#    0.000    1.333    0.000    0.000    0.000    0.000 
#    0.000    0.000    0.000    0.000    0.000    0.000 
#
# Total GULP energy -1487958.158837 kJ/mol
# GULP energy per Si atom -12399.651324 kJ/mol
# Density = 2.003691 g / cm^3
# Si number density = 20.082618 Si / 1000 Ang^3
#
#
#
# Elastic Constant Matrix: (Units=GPa)
#
#
# Indices 1 2 3 4 5 6 
#
# 1 144.6210 75.1210 19.3200 0.0000 0.0000 0.0000
# 2 75.1210 144.6213 19.3201 0.0000 0.0000 0.0000
# 3 19.3200 19.3201 32.7928 0.0000 0.0000 0.0000
# 4 0.0000 0.0000 0.0000 24.5203 0.0000 0.0000
# 5 0.0000 0.0000 0.0000 0.0000 24.5203 0.0000
# 6 0.0000 0.0000 0.0000 0.0000 0.0000 37.9834
#
#
#
# Elastic Compliance Matrix: (Units=1/GPa)
#
#
# Indices 1 2 3 4 5 6 
#
# 1 0.009733 -0.004656 -0.002991 0.000000 0.000000 0.000000
# 2 -0.004656 0.009733 -0.002991 0.000000 0.000000 0.000000
# 3 -0.002991 -0.002991 0.034019 0.000000 0.000000 0.000000
# 4 0.000000 0.000000 0.000000 0.040782 0.000000 0.000000
# 5 0.000000 0.000000 0.000000 0.000000 0.040782 0.000000
# 6 0.000000 0.000000 0.000000 0.000000 0.000000 0.026327
#
#
# Mechanical properties :
#
#
# Convention : Reuss Voigt Hill
#
# Bulk Modulus (GPa) = 31.04785 61.06190 46.05488
# Shear Modulus (GPa) = 25.85476 31.28975 28.57225
#
# Velocity S-wave (km/s) = 3.59196 3.95150 3.77601
# Velocity P-wave (km/s) = 5.71808 7.16174 6.48024
#
# Compressibility (1/GPa) = 0.03220835
#
# Stress axis : x y z
#
# Youngs Moduli (GPa) = 102.74742 102.74754 29.39550
#
# Poissons Ratio (x) = 0.47838 0.08792
# Poissons Ratio (y) = 0.47838 0.08792
# Poissons Ratio (z) = 0.30731 0.30732
#
# Static dielectric constant tensor:
#      x y z
#    x 3.878440 0.000000 0.000000 
#    y 0.000000 3.878440 0.000000 
#    z 0.000000 0.000000 3.230660 
# 
# 
# High freq. dielectric constant tensor:
#      x y z
#    x 1.800220 0.000000 0.000000 
#    y 0.000000 1.800220 0.000000 
#    z 0.000000 0.000000 1.743760 
# 
# From -- ./inp_files/2339.got.cif
#   From: 2010.03.12/outbox.cif.g09.slc.cpg/sg136_2_cif.got.tgz:2339.got - 2010.04.06 18:39:43.
