data_PCOD8318947
_publ_section_title
;
Structure prediction by ZEFSAII (Michael W. Deem and Ramdas Pophale) SiO2 
 PCOD8318947
Probable space group: P 42/N C M
;
_chemical_formula_sum "Si O2"
_cell_formula_units_Z 48
_cell_length_a 11.869471
_cell_length_b 11.869471
_cell_length_c 16.517023
_cell_angle_alpha 90.000000
_cell_angle_beta 90.000000
_cell_angle_gamma 90.000000
_cell_volume 2326.989914
_symmetry_space_group_name_H-M "P 42/N C M"
_symmetry_group_IT_number 138
_space_group.IT_coordinate_system_code '2'
_symmetry_cell_setting 'tetragonal'
loop_
_space_group_symop_operation_xyz
x,y,z
1/2-y,x,1/2+z
1/2-x,1/2-y,z
y,1/2-x,1/2+z
1/2+x,-y,1/2-z
-x,1/2+y,1/2-z
1/2+y,1/2+x,-z
-y,-x,-z
-x,-y,-z
1/2+y,-x,1/2-z
1/2+x,1/2+y,-z
-y,1/2+x,1/2-z
1/2-x,y,1/2+z
x,1/2-y,1/2+z
1/2-y,1/2-x,z
y,x,z
loop_
_atom_site_type_symbol
_atom_site_label
_atom_site_fract_x
_atom_site_fract_y
_atom_site_fract_z
Si Si1 0.160108 0.339893 0.278290
Si Si2 0.839043 0.660958 0.529135
Si Si3 0.918396 0.270675 0.280451
Si Si4 0.421681 0.743848 0.530840
O O1 0.250000 0.250000 0.246297
O O2 0.155340 0.344661 0.374613
O O3 0.194066 0.461557 0.243972
O O4 0.750000 0.750000 0.496791
O O5 0.793233 0.540253 0.496524
O O6 0.875485 0.166856 0.226273
O O7 0.926938 0.233343 0.372900
O O8 0.330306 0.830306 0.500000
O O9 0.381484 0.618517 0.500000
#
# Coordination Sequence:
#
# PCOD8318947 Si02
#       4
#     8   8  16  16
#     4   9  20  35  55  80 109 144 177 228 272 320
#     4   9  19  35  53  81 108 141 180 218 276 329
#     4  10  20  35  58  81 107 143 187 221 270 329
#     4  10  19  34  59  78 107 144 181 225 271 325
#
# _framework density 20.627507999999999
#
# number of rings (size 3 to 8) (size 9 to 14) (size 15 to 20)
#    0.000    2.333    0.000    4.500    2.333    0.667 
#    0.000    0.000   14.667    0.000    0.000    0.000 
#    0.000    0.000    0.000    0.000    0.000    0.000 
#
# Total GULP energy -594875.578210 kJ/mol
# GULP energy per Si atom -12393.241213 kJ/mol
# Density = 2.058056 g / cm^3
# Si number density = 20.627508 Si / 1000 Ang^3
#
#
#
# Elastic Constant Matrix: (Units=GPa)
#
#
# Indices 1 2 3 4 5 6 
#
# 1 160.8187 114.2388 14.0000 0.0000 0.0000 0.0000
# 2 114.2388 160.8219 13.9996 0.0000 0.0000 0.0000
# 3 14.0000 13.9996 39.0430 0.0000 0.0000 0.0000
# 4 0.0000 0.0000 0.0000 17.4845 0.0000 0.0000
# 5 0.0000 0.0000 0.0000 0.0000 17.4844 0.0000
# 6 0.0000 0.0000 0.0000 0.0000 0.0000 36.6253
#
#
#
# Elastic Compliance Matrix: (Units=1/GPa)
#
#
# Indices 1 2 3 4 5 6 
#
# 1 0.012621 -0.008847 -0.001353 0.000000 0.000000 0.000000
# 2 -0.008847 0.012620 -0.001353 0.000000 0.000000 0.000000
# 3 -0.001353 -0.001353 0.026583 0.000000 0.000000 0.000000
# 4 0.000000 0.000000 0.000000 0.057193 0.000000 0.000000
# 5 0.000000 0.000000 0.000000 0.000000 0.057194 0.000000
# 6 0.000000 0.000000 0.000000 0.000000 0.000000 0.027304
#
#
# Mechanical properties :
#
#
# Convention : Reuss Voigt Hill
#
# Bulk Modulus (GPa) = 34.82179 71.68449 53.25314
# Shear Modulus (GPa) = 22.10493 28.88186 25.49340
#
# Velocity S-wave (km/s) = 3.27712 3.74593 3.51934
# Velocity P-wave (km/s) = 5.58903 7.31688 6.51053
#
# Compressibility (1/GPa) = 0.02871765
#
# Stress axis : x y z
#
# Youngs Moduli (GPa) = 79.23515 79.23687 37.61793
#
# Poissons Ratio (x) = 0.70103 0.05090
# Poissons Ratio (y) = 0.70101 0.05089
# Poissons Ratio (z) = 0.10722 0.10720
#
# Static dielectric constant tensor:
#      x y z
#    x 4.211200 0.000000 0.000000 
#    y 0.000000 4.211200 0.000000 
#    z 0.000000 0.000000 3.405460 
# 
# 
# High freq. dielectric constant tensor:
#      x y z
#    x 1.814120 0.000000 0.000000 
#    y 0.000000 1.814120 0.000000 
#    z 0.000000 0.000000 1.775210 
# 
# From -- ./inp_files/4752.got.cif
#   From: 2010.03.12/outbox.cif.g09.slc.cpg/sg138_3_cif.got.tgz:4752.got - 2010.04.08 09:41:05.
