data_PCOD8318673
_publ_section_title
;
Structure prediction by ZEFSAII (Michael W. Deem and Ramdas Pophale) SiO2 
 PCOD8318673
Probable space group: P 42/N M C
;
_chemical_formula_sum "Si O2"
_cell_formula_units_Z 84
_cell_length_a 15.224457
_cell_length_b 15.224457
_cell_length_c 21.958819
_cell_angle_alpha 90.000000
_cell_angle_beta 90.000000
_cell_angle_gamma 90.000000
_cell_volume 5089.704900
_symmetry_space_group_name_H-M "P 42/N M C"
_symmetry_group_IT_number 137
_space_group.IT_coordinate_system_code '2'
_symmetry_cell_setting 'tetragonal'
loop_
_space_group_symop_operation_xyz
x,y,z
1/2-y,x,1/2+z
1/2-x,1/2-y,z
y,1/2-x,1/2+z
1/2+x,-y,-z
-x,1/2+y,-z
1/2+y,1/2+x,1/2-z
-y,-x,1/2-z
-x,-y,-z
1/2+y,-x,1/2-z
1/2+x,1/2+y,-z
-y,1/2+x,1/2-z
1/2-x,y,z
x,1/2-y,z
1/2-y,1/2-x,1/2+z
y,x,1/2+z
loop_
_atom_site_type_symbol
_atom_site_label
_atom_site_fract_x
_atom_site_fract_y
_atom_site_fract_z
Si Si1 0.934991 0.513734 0.190896
Si Si2 0.503852 0.424709 0.075941
Si Si3 0.353566 0.028601 0.988618
Si Si4 0.059946 0.750000 0.864110
Si Si5 0.063160 0.750000 0.722479
Si Si6 0.650545 0.847000 0.126949
Si Si7 0.750000 0.250000 0.173574
O O1 0.994380 0.488904 0.133610
O O2 0.839421 0.466443 0.189006
O O3 0.911359 0.616223 0.181610
O O4 0.991937 0.491937 0.250000
O O5 0.406805 0.431211 0.045916
O O6 0.515058 0.328897 0.101704
O O7 0.586943 0.444572 0.031022
O O8 0.250000 0.005675 0.003814
O O9 0.356866 0.098216 0.934581
O O10 0.033107 0.750000 0.792685
O O11 0.165423 0.750000 0.870675
O O12 0.167116 0.750000 0.718520
O O13 0.750000 0.847795 0.151477
O O14 0.617620 0.750000 0.111539
#
# Coordination Sequence:
#
# PCOD8318673 Si02
#       7
#    16  16  16   8   8  16   4
#     4  11  19  32  51  72 105 134 165 202 251 305
#     4  10  21  33  51  77 103 136 171 208 250 308
#     4   9  20  38  54  70 100 138 176 214 253 292
#     4  12  21  28  49  78 109 133 170 197 251 316
#     4  12  19  32  45  76 109 141 158 194 250 319
#     4   9  18  32  52  72  93 129 174 212 245 287
#     4  12  21  28  44  76 112 144 160 190 249 322
#
# _framework density 16.503905
#
# number of rings (size 3 to 8) (size 9 to 14) (size 15 to 20)
#    0.000    1.714    4.762    0.857    4.000    0.000 
#    0.000    0.952    0.000    1.143    0.000    0.000 
#    0.000    2.286    0.000    0.000    0.000    0.000 
#
# Total GULP energy -1040612.619051 kJ/mol
# GULP energy per Si atom -12388.245465 kJ/mol
# Density = 1.646634 g / cm^3
# Si number density = 16.503905 Si / 1000 Ang^3
#
#
#
# Elastic Constant Matrix: (Units=GPa)
#
#
# Indices 1 2 3 4 5 6 
#
# 1 85.9884 24.0462 32.6088 0.0000 0.0000 0.0000
# 2 24.0462 85.9884 32.6088 0.0000 0.0000 0.0000
# 3 32.6088 32.6088 78.5280 0.0000 0.0000 0.0000
# 4 0.0000 0.0000 0.0000 26.8613 0.0000 0.0000
# 5 0.0000 0.0000 0.0000 0.0000 26.8613 0.0000
# 6 0.0000 0.0000 0.0000 0.0000 0.0000 5.7810
#
#
#
# Elastic Compliance Matrix: (Units=1/GPa)
#
#
# Indices 1 2 3 4 5 6 
#
# 1 0.014100 -0.002045 -0.005006 0.000000 0.000000 0.000000
# 2 -0.002045 0.014100 -0.005006 0.000000 0.000000 0.000000
# 3 -0.005006 -0.005006 0.016892 0.000000 0.000000 0.000000
# 4 0.000000 0.000000 0.000000 0.037228 0.000000 0.000000
# 5 0.000000 0.000000 0.000000 0.000000 0.037228 0.000000
# 6 0.000000 0.000000 0.000000 0.000000 0.000000 0.172982
#
#
# Mechanical properties :
#
#
# Convention : Reuss Voigt Hill
#
# Bulk Modulus (GPa) = 47.66831 47.67029 47.66930
# Shear Modulus (GPa) = 15.44953 22.65010 19.04981
#
# Velocity S-wave (km/s) = 3.06292 3.70862 3.40113
# Velocity P-wave (km/s) = 6.43851 6.87644 6.66107
#
# Compressibility (1/GPa) = 0.02097830
#
# Stress axis : x y z
#
# Youngs Moduli (GPa) = 70.92418 70.92418 59.20072
#
# Poissons Ratio (x) = 0.14501 0.29635
# Poissons Ratio (y) = 0.14501 0.29635
# Poissons Ratio (z) = 0.35504 0.35504
#
# Static dielectric constant tensor:
#      x y z
#    x 3.152890 0.000000 0.000000 
#    y 0.000000 3.152890 0.000000 
#    z 0.000000 0.000000 3.113600 
# 
# 
# High freq. dielectric constant tensor:
#      x y z
#    x 1.625170 0.000000 0.000000 
#    y 0.000000 1.625170 0.000000 
#    z 0.000000 0.000000 1.626090 
# 
# From -- ./inp_files/7757.got.cif
#   From: 2010.03.12/outbox.cif.g09.slc.cpg/sg137_4_cif.got.tgz:7757.got - 2010.04.08 09:34:49.
