data_PCOD8318088
_publ_section_title
;
Structure prediction by ZEFSAII (Michael W. Deem and Ramdas Pophale) SiO2 
 PCOD8318088
Probable space group: P 42/M N M
;
_chemical_formula_sum "Si O2"
_cell_formula_units_Z 88
_cell_length_a 13.041693
_cell_length_b 13.041693
_cell_length_c 26.573498
_cell_angle_alpha 90.000000
_cell_angle_beta 90.000000
_cell_angle_gamma 90.000000
_cell_volume 4519.773505
_symmetry_space_group_name_H-M "P 42/M N M"
_symmetry_group_IT_number 136
_symmetry_cell_setting 'tetragonal'
loop_
_space_group_symop_operation_xyz
x,y,z
1/2-y,1/2+x,1/2+z
-x,-y,z
1/2+y,1/2-x,1/2+z
1/2+x,1/2-y,1/2-z
1/2-x,1/2+y,1/2-z
y,x,-z
-y,-x,-z
-x,-y,-z
1/2+y,1/2-x,1/2-z
x,y,-z
1/2-y,1/2+x,1/2-z
1/2-x,1/2+y,1/2+z
1/2+x,1/2-y,1/2+z
-y,-x,z
y,x,z
loop_
_atom_site_type_symbol
_atom_site_label
_atom_site_fract_x
_atom_site_fract_y
_atom_site_fract_z
Si Si1 0.994102 0.167189 0.500000
Si Si2 0.518612 0.880022 0.558043
Si Si3 0.003843 0.337955 0.237639
Si Si4 0.402450 0.759738 0.088453
Si Si5 0.876987 0.710666 0.861010
Si Si6 0.951715 0.211333 0.672187
O O1 0.879609 0.120391 0.500000
O O2 0.006199 0.240512 0.451730
O O3 0.075063 0.075063 0.500000
O O4 0.523861 0.843644 0.500000
O O5 0.624504 0.862655 0.587664
O O6 0.432203 0.812748 0.586020
O O7 0.500000 0.000000 0.562103
O O8 0.091203 0.402667 0.267326
O O9 0.039507 0.297017 0.183567
O O10 0.975806 0.237823 0.270031
O O11 0.304859 0.695142 0.071714
O O12 0.442082 0.719391 0.142130
O O13 0.822763 0.822763 0.862458
O O14 0.792900 0.624591 0.852074
O O15 0.902384 0.097617 0.669463
#
# Coordination Sequence:
#
# PCOD8318088 Si02
#       6
#     8  16  16  16  16  16
#     4   9  18  32  49  76 119 159 187 224 285 355
#     4  11  22  38  61  86 113 153 200 246 288 343
#     4   9  18  33  57  81 111 159 203 242 286 344
#     4  11  21  35  56  84 116 154 194 237 291 352
#     4  10  21  37  58  85 120 153 193 247 300 346
#     4  10  20  35  56  87 123 154 189 238 296 356
#
# _framework density 19.470002999999998
#
# number of rings (size 3 to 8) (size 9 to 14) (size 15 to 20)
#    0.000    1.909    2.727    1.636    2.545    2.182 
#    0.000    4.545    0.000    1.636    0.000    1.273 
#    0.000    0.000    0.000    0.000    0.000    0.000 
#
# Total GULP energy -1091090.510577 kJ/mol
# GULP energy per Si atom -12398.755802 kJ/mol
# Density = 1.942569 g / cm^3
# Si number density = 19.470003 Si / 1000 Ang^3
#
#
#
# Elastic Constant Matrix: (Units=GPa)
#
#
# Indices 1 2 3 4 5 6 
#
# 1 66.8781 36.0925 37.4121 0.0000 0.0000 0.0000
# 2 36.0925 66.8779 37.4121 0.0000 0.0000 0.0000
# 3 37.4121 37.4121 95.3537 0.0000 0.0000 0.0000
# 4 0.0000 0.0000 0.0000 24.3621 0.0000 0.0000
# 5 0.0000 0.0000 0.0000 0.0000 24.3626 0.0000
# 6 0.0000 0.0000 0.0000 0.0000 0.0000 25.9666
#
#
#
# Elastic Compliance Matrix: (Units=1/GPa)
#
#
# Indices 1 2 3 4 5 6 
#
# 1 0.023034 -0.009449 -0.005330 0.000000 0.000000 0.000000
# 2 -0.009449 0.023034 -0.005330 0.000000 0.000000 0.000000
# 3 -0.005330 -0.005330 0.014670 0.000000 0.000000 0.000000
# 4 0.000000 0.000000 0.000000 0.041047 0.000000 0.000000
# 5 0.000000 0.000000 0.000000 0.000000 0.041047 0.000000
# 6 0.000000 0.000000 0.000000 0.000000 0.000000 0.038511
#
#
# Mechanical properties :
#
#
# Convention : Reuss Voigt Hill
#
# Bulk Modulus (GPa) = 48.73505 50.10477 49.41991
# Shear Modulus (GPa) = 21.89148 22.81780 22.35464
#
# Velocity S-wave (km/s) = 3.35680 3.42708 3.39212
# Velocity P-wave (km/s) = 6.33319 6.43817 6.38590
#
# Compressibility (1/GPa) = 0.02051911
#
# Stress axis : x y z
#
# Youngs Moduli (GPa) = 43.41481 43.41466 68.16796
#
# Poissons Ratio (x) = 0.41023 0.36333
# Poissons Ratio (y) = 0.41023 0.36333
# Poissons Ratio (z) = 0.23140 0.23140
#
# Static dielectric constant tensor:
#      x y z
#    x 3.480630 0.000000 0.000000 
#    y 0.000000 3.480630 0.000000 
#    z 0.000000 0.000000 3.520320 
# 
# 
# High freq. dielectric constant tensor:
#      x y z
#    x 1.740560 0.000000 0.000000 
#    y 0.000000 1.740560 0.000000 
#    z 0.000000 0.000000 1.759760 
# 
# From -- ./inp_files/9737.got.cif
#   From: 2010.03.12/outbox.cif.g09.slc.cpg/sg136_5_cif.got.tgz:9737.got - 2010.04.06 18:39:43.
