data_PCOD8318605
_publ_section_title
;
Structure prediction by ZEFSAII (Michael W. Deem and Ramdas Pophale) SiO2 
 PCOD8318605
Probable space group: P 42/N M C
;
_chemical_formula_sum "Si O2"
_cell_formula_units_Z 96
_cell_length_a 20.517931
_cell_length_b 20.517931
_cell_length_c 11.067361
_cell_angle_alpha 90.000000
_cell_angle_beta 90.000000
_cell_angle_gamma 90.000000
_cell_volume 4659.198421
_symmetry_space_group_name_H-M "P 42/N M C"
_symmetry_group_IT_number 137
_space_group.IT_coordinate_system_code '2'
_symmetry_cell_setting 'tetragonal'
loop_
_space_group_symop_operation_xyz
x,y,z
1/2-y,x,1/2+z
1/2-x,1/2-y,z
y,1/2-x,1/2+z
1/2+x,-y,-z
-x,1/2+y,-z
1/2+y,1/2+x,1/2-z
-y,-x,1/2-z
-x,-y,-z
1/2+y,-x,1/2-z
1/2+x,1/2+y,-z
-y,1/2+x,1/2-z
1/2-x,y,z
x,1/2-y,z
1/2-y,1/2-x,1/2+z
y,x,1/2+z
loop_
_atom_site_type_symbol
_atom_site_label
_atom_site_fract_x
_atom_site_fract_y
_atom_site_fract_z
Si Si1 0.181402 0.012966 0.155031
Si Si2 0.626037 0.357494 0.614142
Si Si3 0.645540 0.001142 0.576967
Si Si4 0.575816 0.750000 0.691207
Si Si5 0.676098 0.250000 0.045189
Si Si6 0.250000 0.327220 0.587472
Si Si7 0.750000 0.033138 0.381727
Si Si8 0.611110 0.635482 0.515343
O O1 0.250000 0.043224 0.113624
O O2 0.184431 0.005670 0.298481
O O3 0.178267 0.942021 0.092144
O O4 0.131388 0.066931 0.105928
O O5 0.651494 0.348507 0.750000
O O6 0.605195 0.432294 0.587538
O O7 0.684195 0.329955 0.532487
O O8 0.601855 0.937035 0.566881
O O9 0.689123 0.008027 0.458247
O O10 0.634834 0.750000 0.786548
O O11 0.504160 0.750000 0.753868
O O12 0.581050 0.685142 0.611656
O O13 0.750000 0.250000 0.104005
O O14 0.612970 0.250000 0.136432
O O15 0.250000 0.250000 0.613560
O O16 0.186423 0.347210 0.510613
#
# Coordination Sequence:
#
# PCOD8318605 Si02
#       8
#    16  16  16   8   8   8   8  16
#     4  11  21  39  59  88 123 157 201 252 323 374
#     4   9  21  34  60  93 125 158 193 257 317 376
#     4  10  20  38  57  86 120 164 199 252 320 370
#     4  12  24  39  59  90 119 173 212 259 315 383
#     4  10  20  34  63 100 122 156 201 249 317 372
#     4  12  24  40  57  91 121 156 211 275 312 349
#     4  10  20  39  59  85 130 165 198 249 326 374
#     4  12  24  38  60  87 117 170 215 257 311 369
#
# _framework density 20.604403000000001
#
# number of rings (size 3 to 8) (size 9 to 14) (size 15 to 20)
#    0.000    1.333    4.167    1.500    5.833    0.667 
#    0.000    0.000    0.000    0.000    2.167    0.000 
#    0.000    0.000    0.000    0.000    0.000    0.000 
#
# Total GULP energy -1189310.790932 kJ/mol
# GULP energy per Si atom -12388.654072 kJ/mol
# Density = 2.055751 g / cm^3
# Si number density = 20.604403 Si / 1000 Ang^3
#
#
#
# Elastic Constant Matrix: (Units=GPa)
#
#
# Indices 1 2 3 4 5 6 
#
# 1 123.8545 14.3553 26.3624 0.0000 0.0000 0.0000
# 2 14.3553 123.8542 26.3621 0.0000 0.0000 0.0000
# 3 26.3624 26.3621 61.5764 0.0000 0.0000 0.0000
# 4 0.0000 0.0000 0.0000 1.3922 0.0000 0.0000
# 5 0.0000 0.0000 0.0000 0.0000 1.3227 0.0000
# 6 0.0000 0.0000 0.0000 0.0000 0.0000 14.7455
#
#
#
# Elastic Compliance Matrix: (Units=1/GPa)
#
#
# Indices 1 2 3 4 5 6 
#
# 1 0.008890 -0.000242 -0.003702 0.000000 0.000000 0.000000
# 2 -0.000242 0.008890 -0.003702 0.000000 0.000000 0.000000
# 3 -0.003702 -0.003702 0.019410 0.000000 0.000000 0.000000
# 4 0.000000 0.000000 0.000000 0.718268 0.000000 0.000000
# 5 0.000000 0.000000 0.000000 0.000000 0.756028 0.000000
# 6 0.000000 0.000000 0.000000 0.000000 0.000000 0.067817
#
#
# Mechanical properties :
#
#
# Convention : Reuss Voigt Hill
#
# Bulk Modulus (GPa) = 45.66968 49.27165 47.47066
# Shear Modulus (GPa) = 3.12130 19.63910 11.38020
#
# Velocity S-wave (km/s) = 1.23214 3.09066 2.35270
# Velocity P-wave (km/s) = 4.92314 6.05816 5.51990
#
# Compressibility (1/GPa) = 0.02189637
#
# Stress axis : x y z
#
# Youngs Moduli (GPa) = 112.48439 112.48444 51.51964
#
# Poissons Ratio (x) = 0.02726 0.19074
# Poissons Ratio (y) = 0.02726 0.19074
# Poissons Ratio (z) = 0.41645 0.41645
#
# Static dielectric constant tensor:
#      x y z
#    x 3.995930 0.000000 0.000000 
#    y 0.000000 3.995890 0.000000 
#    z 0.000000 0.000000 3.528560 
# 
# 
# High freq. dielectric constant tensor:
#      x y z
#    x 1.810020 0.000000 0.000000 
#    y 0.000000 1.810020 0.000000 
#    z 0.000000 0.000000 1.788510 
# 
# From -- ./inp_files/3824.got.cif
#   From: 2010.03.12/outbox.cif.g09.slc.cpg/sg137_2_cif.got.tgz:3824.got - 2010.04.08 09:34:49.
