data_PCOD8318494
_publ_section_title
;
Structure prediction by ZEFSAII (Michael W. Deem and Ramdas Pophale) SiO2 
 PCOD8318494
Probable space group: P 42/N M C
;
_chemical_formula_sum "Si O2"
_cell_formula_units_Z 80
_cell_length_a 14.252123
_cell_length_b 14.252123
_cell_length_c 20.588000
_cell_angle_alpha 90.000000
_cell_angle_beta 90.000000
_cell_angle_gamma 90.000000
_cell_volume 4181.896530
_symmetry_space_group_name_H-M "P 42/N M C"
_symmetry_group_IT_number 137
_space_group.IT_coordinate_system_code '2'
_symmetry_cell_setting 'tetragonal'
loop_
_space_group_symop_operation_xyz
x,y,z
1/2-y,x,1/2+z
1/2-x,1/2-y,z
y,1/2-x,1/2+z
1/2+x,-y,-z
-x,1/2+y,-z
1/2+y,1/2+x,1/2-z
-y,-x,1/2-z
-x,-y,-z
1/2+y,-x,1/2-z
1/2+x,1/2+y,-z
-y,1/2+x,1/2-z
1/2-x,y,z
x,1/2-y,z
1/2-y,1/2-x,1/2+z
y,x,1/2+z
loop_
_atom_site_type_symbol
_atom_site_label
_atom_site_fract_x
_atom_site_fract_y
_atom_site_fract_z
Si Si1 0.138374 0.143633 0.876392
Si Si2 0.042417 0.146040 0.118177
Si Si3 0.642412 0.543371 0.993124
Si Si4 0.646072 0.353958 0.056105
Si Si5 0.987970 0.641365 0.740278
O O1 0.250000 0.144690 0.874497
O O2 0.099246 0.250000 0.869531
O O3 0.102589 0.099052 0.944171
O O4 0.101681 0.078142 0.817425
O O5 0.073186 0.250000 0.094558
O O6 0.071832 0.131279 0.192804
O O7 0.928785 0.136111 0.114010
O O8 0.088578 0.069949 0.071886
O O9 0.750000 0.569977 0.982879
O O10 0.626454 0.431826 0.001160
O O11 0.750000 0.372050 0.086264
O O12 0.640311 0.250000 0.024050
O O13 0.015754 0.750000 0.728554
O O14 0.081712 0.581712 0.750000
#
# Coordination Sequence:
#
# PCOD8318494 Si02
#       5
#    16  16  16  16  16
#     4   9  18  33  51  71  99 136 173 207 250 306
#     4  10  20  32  49  74 101 130 167 212 257 297
#     4  10  19  32  53  78 103 132 169 213 256 304
#     4   9  18  32  49  71 101 134 166 205 255 307
#     4  10  21  35  51  74 104 136 168 205 251 304
#
# _framework density 19.130078000000001
#
# number of rings (size 3 to 8) (size 9 to 14) (size 15 to 20)
#    0.000    2.400    0.000    2.400    0.000    4.600 
#    0.000    4.000    0.000    0.000    0.000    0.000 
#    0.000    0.400    0.000    0.800    0.000    0.200 
#
# Total GULP energy -991576.258242 kJ/mol
# GULP energy per Si atom -12394.703228 kJ/mol
# Density = 1.908654 g / cm^3
# Si number density = 19.130078 Si / 1000 Ang^3
#
#
#
# Elastic Constant Matrix: (Units=GPa)
#
#
# Indices 1 2 3 4 5 6 
#
# 1 77.4740 32.0689 34.0090 0.0000 0.0000 0.0000
# 2 32.0689 77.4740 34.0090 0.0000 0.0000 0.0000
# 3 34.0090 34.0090 102.0318 0.0000 0.0000 0.0000
# 4 0.0000 0.0000 0.0000 19.1837 0.0000 0.0000
# 5 0.0000 0.0000 0.0000 0.0000 19.1837 0.0000
# 6 0.0000 0.0000 0.0000 0.0000 0.0000 20.8156
#
#
#
# Elastic Compliance Matrix: (Units=1/GPa)
#
#
# Indices 1 2 3 4 5 6 
#
# 1 0.016768 -0.005256 -0.003837 0.000000 0.000000 0.000000
# 2 -0.005256 0.016768 -0.003837 0.000000 0.000000 0.000000
# 3 -0.003837 -0.003837 0.012359 0.000000 0.000000 0.000000
# 4 0.000000 0.000000 0.000000 0.052128 0.000000 0.000000
# 5 0.000000 0.000000 0.000000 0.000000 0.052128 0.000000
# 6 0.000000 0.000000 0.000000 0.000000 0.000000 0.048041
#
#
# Mechanical properties :
#
#
# Convention : Reuss Voigt Hill
#
# Bulk Modulus (GPa) = 49.91613 50.79483 50.35548
# Shear Modulus (GPa) = 21.67052 22.29612 21.98332
#
# Velocity S-wave (km/s) = 3.36936 3.41765 3.39359
# Velocity P-wave (km/s) = 6.42545 6.49490 6.46027
#
# Compressibility (1/GPa) = 0.02003360
#
# Stress axis : x y z
#
# Youngs Moduli (GPa) = 59.63875 59.63875 80.91472
#
# Poissons Ratio (x) = 0.31348 0.31046
# Poissons Ratio (y) = 0.31348 0.31046
# Poissons Ratio (z) = 0.22883 0.22883
#
# Static dielectric constant tensor:
#      x y z
#    x 3.519190 0.000000 0.000000 
#    y 0.000000 3.519190 0.000000 
#    z 0.000000 0.000000 3.389270 
# 
# 
# High freq. dielectric constant tensor:
#      x y z
#    x 1.734540 0.000000 0.000000 
#    y 0.000000 1.734540 0.000000 
#    z 0.000000 0.000000 1.729280 
# 
# From -- ./inp_files/7527.got.cif
#   From: 2010.03.12/outbox.cif.g09.slc.cpg/sg137_4_cif.got.tgz:7527.got - 2010.04.08 09:34:49.
