data_PCOD8318220
_publ_section_title
;
Structure prediction by ZEFSAII (Michael W. Deem and Ramdas Pophale) SiO2 
 PCOD8318220
Probable space group: P 42/M N M
;
_chemical_formula_sum "Si O2"
_cell_formula_units_Z 96
_cell_length_a 22.747424
_cell_length_b 22.747424
_cell_length_c 9.219481
_cell_angle_alpha 90.000000
_cell_angle_beta 90.000000
_cell_angle_gamma 90.000000
_cell_volume 4770.577099
_symmetry_space_group_name_H-M "P 42/M N M"
_symmetry_group_IT_number 136
_symmetry_cell_setting 'tetragonal'
loop_
_space_group_symop_operation_xyz
x,y,z
1/2-y,1/2+x,1/2+z
-x,-y,z
1/2+y,1/2-x,1/2+z
1/2+x,1/2-y,1/2-z
1/2-x,1/2+y,1/2-z
y,x,-z
-y,-x,-z
-x,-y,-z
1/2+y,1/2-x,1/2-z
x,y,-z
1/2-y,1/2+x,1/2-z
1/2-x,1/2+y,1/2+z
1/2+x,1/2-y,1/2+z
-y,-x,z
y,x,z
loop_
_atom_site_type_symbol
_atom_site_label
_atom_site_fract_x
_atom_site_fract_y
_atom_site_fract_z
Si Si1 0.323274 0.585902 0.666452
Si Si2 0.109295 0.792434 0.659781
Si Si3 0.215310 0.310707 0.668886
Si Si4 0.083146 0.524352 0.824974
Si Si5 0.532872 0.624944 0.335732
Si Si6 0.706727 0.917646 0.330594
O O1 0.304475 0.593988 0.500000
O O2 0.353117 0.646884 0.724550
O O3 0.375323 0.537292 0.680612
O O4 0.266392 0.562598 0.751972
O O5 0.089474 0.771854 0.500000
O O6 0.161879 0.838122 0.651375
O O7 0.131075 0.736184 0.748346
O O8 0.054417 0.821497 0.737622
O O9 0.220449 0.324286 0.500000
O O10 0.253079 0.253079 0.711246
O O11 0.149082 0.302028 0.719559
O O12 0.071314 0.461244 0.749700
O O13 0.149994 0.543357 0.787648
O O14 0.072905 0.522250 0.000000
O O15 0.551794 0.639168 0.500000
O O16 0.562447 0.562447 0.288375
O O17 0.718520 0.922181 0.500000
#
# Coordination Sequence:
#
# PCOD8318220 Si02
#       6
#    16  16  16  16  16  16
#     4  10  22  38  56  81 111 143 183 231 276 318
#     4   9  17  29  47  74 105 134 171 223 274 315
#     4   9  17  31  51  74 105 147 189 224 266 325
#     4  10  21  39  62  87 115 146 182 224 273 329
#     4   9  18  34  55  77 105 143 183 223 271 326
#     4  10  22  38  57  82 111 146 184 222 270 329
#
# _framework density 20.123351
#
# number of rings (size 3 to 8) (size 9 to 14) (size 15 to 20)
#    0.000    2.500    0.000    2.000    0.000    7.333 
#    0.000    8.333    0.000    0.000    0.000    3.500 
#    0.000    0.000    0.000    0.000    0.000    0.000 
#
# Total GULP energy -1189738.843795 kJ/mol
# GULP energy per Si atom -12393.112956 kJ/mol
# Density = 2.007755 g / cm^3
# Si number density = 20.123351 Si / 1000 Ang^3
#
#
#
# Elastic Constant Matrix: (Units=GPa)
#
#
# Indices 1 2 3 4 5 6 
#
# 1 98.0235 51.0726 38.1157 0.0000 0.0000 0.0000
# 2 51.0726 98.0235 38.1157 0.0000 0.0000 0.0000
# 3 38.1157 38.1157 70.4624 0.0000 0.0000 0.0000
# 4 0.0000 0.0000 0.0000 25.6379 0.0000 0.0000
# 5 0.0000 0.0000 0.0000 0.0000 25.6379 0.0000
# 6 0.0000 0.0000 0.0000 0.0000 0.0000 30.3496
#
#
#
# Elastic Compliance Matrix: (Units=1/GPa)
#
#
# Indices 1 2 3 4 5 6 
#
# 1 0.015285 -0.006014 -0.005015 0.000000 0.000000 0.000000
# 2 -0.006014 0.015285 -0.005015 0.000000 0.000000 0.000000
# 3 -0.005015 -0.005015 0.019618 0.000000 0.000000 0.000000
# 4 0.000000 0.000000 0.000000 0.039005 0.000000 0.000000
# 5 0.000000 0.000000 0.000000 0.000000 0.039005 0.000000
# 6 0.000000 0.000000 0.000000 0.000000 0.000000 0.032949
#
#
# Mechanical properties :
#
#
# Convention : Reuss Voigt Hill
#
# Bulk Modulus (GPa) = 55.24980 57.90193 56.57587
# Shear Modulus (GPa) = 25.09177 25.60541 25.34859
#
# Velocity S-wave (km/s) = 3.53498 3.57097 3.55302
# Velocity P-wave (km/s) = 6.64655 6.77041 6.70876
#
# Compressibility (1/GPa) = 0.01809961
#
# Stress axis : x y z
#
# Youngs Moduli (GPa) = 65.42327 65.42327 50.97418
#
# Poissons Ratio (x) = 0.39344 0.25565
# Poissons Ratio (y) = 0.39344 0.25565
# Poissons Ratio (z) = 0.32811 0.32811
#
# Static dielectric constant tensor:
#      x y z
#    x 3.618870 0.000000 0.000000 
#    y 0.000000 3.618870 0.000000 
#    z 0.000000 0.000000 3.715880 
# 
# 
# High freq. dielectric constant tensor:
#      x y z
#    x 1.780330 0.000000 0.000000 
#    y 0.000000 1.780330 0.000000 
#    z 0.000000 0.000000 1.780690 
# 
# From -- ./inp_files/1931.got.cif
#   From: 2010.03.12/outbox.cif.g09.slc.cpg/sg136_1_cif.got.tgz:1931.got - 2010.04.06 18:39:43.
