data_PCOD8318659
_publ_section_title
;
Structure prediction by ZEFSAII (Michael W. Deem and Ramdas Pophale) SiO2 
 PCOD8318659
Probable space group: P 42/N M C
;
_chemical_formula_sum "Si O2"
_cell_formula_units_Z 96
_cell_length_a 13.835022
_cell_length_b 13.835022
_cell_length_c 21.847733
_cell_angle_alpha 90.000000
_cell_angle_beta 90.000000
_cell_angle_gamma 90.000000
_cell_volume 4181.827246
_symmetry_space_group_name_H-M "P 42/N M C"
_symmetry_group_IT_number 137
_space_group.IT_coordinate_system_code '2'
_symmetry_cell_setting 'tetragonal'
loop_
_space_group_symop_operation_xyz
x,y,z
1/2-y,x,1/2+z
1/2-x,1/2-y,z
y,1/2-x,1/2+z
1/2+x,-y,-z
-x,1/2+y,-z
1/2+y,1/2+x,1/2-z
-y,-x,1/2-z
-x,-y,-z
1/2+y,-x,1/2-z
1/2+x,1/2+y,-z
-y,1/2+x,1/2-z
1/2-x,y,z
x,1/2-y,z
1/2-y,1/2-x,1/2+z
y,x,1/2+z
loop_
_atom_site_type_symbol
_atom_site_label
_atom_site_fract_x
_atom_site_fract_y
_atom_site_fract_z
Si Si1 0.641055 0.981930 0.254347
Si Si2 0.136510 0.137494 0.126623
Si Si3 0.035904 0.355707 0.382355
Si Si4 0.355837 0.863028 0.314855
Si Si5 0.859263 0.142446 0.045362
Si Si6 0.459042 0.944098 0.428901
O O1 0.750000 0.017833 0.266433
O O2 0.610471 0.904890 0.306017
O O3 0.634412 0.931248 0.187754
O O4 0.575003 0.075003 0.250000
O O5 0.250000 0.110970 0.125328
O O6 0.120536 0.250000 0.111076
O O7 0.075516 0.075242 0.076116
O O8 0.070269 0.250000 0.407956
O O9 0.078139 0.445688 0.420007
O O10 0.918036 0.363126 0.391100
O O11 0.402328 0.902328 0.250000
O O12 0.250000 0.908790 0.327737
O O13 0.345714 0.750000 0.304075
O O14 0.421158 0.880038 0.373294
O O15 0.750000 0.152396 0.021408
O O16 0.903411 0.250000 0.054870
O O17 0.916129 0.079852 0.994970
#
# Coordination Sequence:
#
# PCOD8318659 Si02
#       6
#    16  16  16  16  16  16
#     4  10  20  38  61  88 119 158 209 259 309 363
#     4  10  22  38  58  88 125 165 206 252 307 371
#     4  10  23  40  59  83 120 165 209 258 306 359
#     4   9  19  34  54  87 125 156 193 246 307 369
#     4  10  22  41  65  95 125 154 198 259 322 376
#     4  12  21  36  64  90 119 161 206 248 304 375
#
# _framework density 22.956472000000002
#
# number of rings (size 3 to 8) (size 9 to 14) (size 15 to 20)
#    0.000    1.833    1.667    3.000    2.333    2.833 
#    0.000    2.500    0.000    4.000    0.000    7.000 
#    0.000    0.000    0.000    0.000    0.000    0.000 
#
# Total GULP energy -1189512.913589 kJ/mol
# GULP energy per Si atom -12390.759517 kJ/mol
# Density = 2.290422 g / cm^3
# Si number density = 22.956472 Si / 1000 Ang^3
#
#
#
# Elastic Constant Matrix: (Units=GPa)
#
#
# Indices 1 2 3 4 5 6 
#
# 1 67.8585 5.8983 14.5715 0.0000 0.0000 0.0000
# 2 5.8983 67.8585 14.5715 0.0000 0.0000 0.0000
# 3 14.5715 14.5715 93.7519 0.0000 0.0000 0.0000
# 4 0.0000 0.0000 0.0000 25.6896 0.0000 0.0000
# 5 0.0000 0.0000 0.0000 0.0000 25.6896 0.0000
# 6 0.0000 0.0000 0.0000 0.0000 0.0000 23.7420
#
#
#
# Elastic Compliance Matrix: (Units=1/GPa)
#
#
# Indices 1 2 3 4 5 6 
#
# 1 0.015292 -0.000847 -0.002245 0.000000 0.000000 0.000000
# 2 -0.000847 0.015292 -0.002245 0.000000 0.000000 0.000000
# 3 -0.002245 -0.002245 0.011364 0.000000 0.000000 0.000000
# 4 0.000000 0.000000 0.000000 0.038926 0.000000 0.000000
# 5 0.000000 0.000000 0.000000 0.000000 0.038926 0.000000
# 6 0.000000 0.000000 0.000000 0.000000 0.000000 0.042120
#
#
# Mechanical properties :
#
#
# Convention : Reuss Voigt Hill
#
# Bulk Modulus (GPa) = 31.97537 33.28351 32.62944
# Shear Modulus (GPa) = 27.31932 27.98605 27.65269
#
# Velocity S-wave (km/s) = 3.45345 3.49534 3.47446
# Velocity P-wave (km/s) = 5.46449 5.55156 5.50820
#
# Compressibility (1/GPa) = 0.03127408
#
# Stress axis : x y z
#
# Youngs Moduli (GPa) = 65.39246 65.39246 87.99435
#
# Poissons Ratio (x) = 0.05539 0.19756
# Poissons Ratio (y) = 0.05539 0.19756
# Poissons Ratio (z) = 0.14682 0.14682
#
# Static dielectric constant tensor:
#      x y z
#    x 4.220770 0.000000 0.000000 
#    y 0.000000 4.220770 0.000000 
#    z 0.000000 0.000000 4.148120 
# 
# 
# High freq. dielectric constant tensor:
#      x y z
#    x 1.903390 0.000000 0.000000 
#    y 0.000000 1.903390 0.000000 
#    z 0.000000 0.000000 1.903290 
# 
# From -- ./inp_files/7888.got.cif
#   From: 2010.03.12/outbox.cif.g09.slc.cpg/sg137_4_cif.got.tgz:7888.got - 2010.04.08 09:34:49.
