data_PCOD8318828
_publ_section_title
;
Structure prediction by ZEFSAII (Michael W. Deem and Ramdas Pophale) SiO2 
 PCOD8318828
Probable space group: P 42/N M C
;
_chemical_formula_sum "Si O2"
_cell_formula_units_Z 96
_cell_length_a 19.664535
_cell_length_b 19.664535
_cell_length_c 15.345019
_cell_angle_alpha 90.000000
_cell_angle_beta 90.000000
_cell_angle_gamma 90.000000
_cell_volume 5933.825807
_symmetry_space_group_name_H-M "P 42/N M C"
_symmetry_group_IT_number 137
_space_group.IT_coordinate_system_code '2'
_symmetry_cell_setting 'tetragonal'
loop_
_space_group_symop_operation_xyz
x,y,z
1/2-y,x,1/2+z
1/2-x,1/2-y,z
y,1/2-x,1/2+z
1/2+x,-y,-z
-x,1/2+y,-z
1/2+y,1/2+x,1/2-z
-y,-x,1/2-z
-x,-y,-z
1/2+y,-x,1/2-z
1/2+x,1/2+y,-z
-y,1/2+x,1/2-z
1/2-x,y,z
x,1/2-y,z
1/2-y,1/2-x,1/2+z
y,x,1/2+z
loop_
_atom_site_type_symbol
_atom_site_label
_atom_site_fract_x
_atom_site_fract_y
_atom_site_fract_z
Si Si1 0.174223 0.668950 0.653578
Si Si2 0.575250 0.830444 0.310064
Si Si3 0.169498 0.573114 0.990966
Si Si4 0.330867 0.077747 0.998010
Si Si5 0.670402 0.828847 0.658072
Si Si6 0.170084 0.920581 0.188504
O O1 0.147775 0.647775 0.750000
O O2 0.250000 0.639975 0.636514
O O3 0.176283 0.750000 0.648694
O O4 0.124535 0.637438 0.580068
O O5 0.581482 0.750000 0.311520
O O6 0.596454 0.858906 0.405522
O O7 0.627357 0.859381 0.238307
O O8 0.497838 0.851085 0.287897
O O9 0.250000 0.573588 0.981874
O O10 0.142089 0.497129 0.971447
O O11 0.149461 0.595694 0.088637
O O12 0.250000 0.076152 0.001923
O O13 0.355994 0.133144 0.928634
O O14 0.750000 0.840793 0.643313
O O15 0.654046 0.750000 0.677069
O O16 0.130618 0.869383 0.250000
O O17 0.250000 0.909381 0.202983
#
# Coordination Sequence:
#
# PCOD8318828 Si02
#       6
#    16  16  16  16  16  16
#     4   8  13  21  35  56  79 103 133 169 207 241
#     4   8  15  28  43  60  86 116 139 164 209 260
#     4   8  14  25  40  57  80 111 141 167 201 246
#     4   8  14  25  41  60  82 109 137 163 198 246
#     4   9  16  25  42  68  88 104 134 173 207 242
#     4   9  17  28  43  62  83 112 146 176 209 245
#
# _framework density 16.178432000000001
#
# number of rings (size 3 to 8) (size 9 to 14) (size 15 to 20)
#    0.000    3.667    0.000    2.500    0.000    1.500 
#    0.000    5.000    0.000    7.000    0.000    7.000 
#    0.000    0.000    0.000    0.000    0.000    0.000 
#
# Total GULP energy -1189575.052883 kJ/mol
# GULP energy per Si atom -12391.406801 kJ/mol
# Density = 1.614161 g / cm^3
# Si number density = 16.178432 Si / 1000 Ang^3
#
#
#
# Elastic Constant Matrix: (Units=GPa)
#
#
# Indices 1 2 3 4 5 6 
#
# 1 52.6103 30.6943 62.9963 0.0000 0.0000 0.0000
# 2 30.6943 52.6120 62.9977 0.0000 0.0000 0.0000
# 3 62.9963 62.9977 156.1723 0.0000 0.0000 0.0000
# 4 0.0000 0.0000 0.0000 5.5088 0.0000 0.0000
# 5 0.0000 0.0000 0.0000 0.0000 5.5098 0.0000
# 6 0.0000 0.0000 0.0000 0.0000 0.0000 9.1166
#
#
#
# Elastic Compliance Matrix: (Units=1/GPa)
#
#
# Indices 1 2 3 4 5 6 
#
# 1 0.038207 -0.007420 -0.012419 0.000000 0.000000 0.000000
# 2 -0.007420 0.038206 -0.012419 0.000000 0.000000 0.000000
# 3 -0.012419 -0.012419 0.016422 0.000000 0.000000 0.000000
# 4 0.000000 0.000000 0.000000 0.181527 0.000000 0.000000
# 5 0.000000 0.000000 0.000000 0.000000 0.181496 0.000000
# 6 0.000000 0.000000 0.000000 0.000000 0.000000 0.109690
#
#
# Mechanical properties :
#
#
# Convention : Reuss Voigt Hill
#
# Bulk Modulus (GPa) = 35.31033 63.86347 49.58690
# Shear Modulus (GPa) = 7.81856 11.00746 9.41301
#
# Velocity S-wave (km/s) = 2.20073 2.61124 2.41472
# Velocity P-wave (km/s) = 5.32264 6.97507 6.20411
#
# Compressibility (1/GPa) = 0.02832032
#
# Stress axis : x y z
#
# Youngs Moduli (GPa) = 26.17310 26.17366 60.89343
#
# Poissons Ratio (x) = 0.19422 0.75622
# Poissons Ratio (y) = 0.19421 0.75622
# Poissons Ratio (z) = 0.32504 0.32504
#
# Static dielectric constant tensor:
#      x y z
#    x 2.883790 0.000000 0.000000 
#    y 0.000000 2.883790 0.000000 
#    z 0.000000 0.000000 3.520640 
# 
# 
# High freq. dielectric constant tensor:
#      x y z
#    x 1.586350 0.000000 0.000000 
#    y 0.000000 1.586350 0.000000 
#    z 0.000000 0.000000 1.634700 
# 
# From -- ./inp_files/5270.got.cif
#   From: 2010.03.12/outbox.cif.g09.slc.cpg/sg137_3_cif.got.tgz:5270.got - 2010.04.08 09:34:49.
