data_PCOD8318652
_publ_section_title
;
Structure prediction by ZEFSAII (Michael W. Deem and Ramdas Pophale) SiO2 
 PCOD8318652
Probable space group: P 42/N M C
;
_chemical_formula_sum "Si O2"
_cell_formula_units_Z 112
_cell_length_a 14.113228
_cell_length_b 14.113228
_cell_length_c 27.100713
_cell_angle_alpha 90.000000
_cell_angle_beta 90.000000
_cell_angle_gamma 90.000000
_cell_volume 5398.006862
_symmetry_space_group_name_H-M "P 42/N M C"
_symmetry_group_IT_number 137
_space_group.IT_coordinate_system_code '2'
_symmetry_cell_setting 'tetragonal'
loop_
_space_group_symop_operation_xyz
x,y,z
1/2-y,x,1/2+z
1/2-x,1/2-y,z
y,1/2-x,1/2+z
1/2+x,-y,-z
-x,1/2+y,-z
1/2+y,1/2+x,1/2-z
-y,-x,1/2-z
-x,-y,-z
1/2+y,-x,1/2-z
1/2+x,1/2+y,-z
-y,1/2+x,1/2-z
1/2-x,y,z
x,1/2-y,z
1/2-y,1/2-x,1/2+z
y,x,1/2+z
loop_
_atom_site_type_symbol
_atom_site_label
_atom_site_fract_x
_atom_site_fract_y
_atom_site_fract_z
Si Si1 0.362852 0.143787 0.115109
Si Si2 0.859814 0.010238 0.059801
Si Si3 0.638359 0.991562 0.607870
Si Si4 0.361421 0.531354 0.051644
Si Si5 0.857795 0.647704 0.278542
Si Si6 0.639154 0.141347 0.149169
Si Si7 0.549811 0.529333 0.204016
O O1 0.250000 0.145309 0.115813
O O2 0.401593 0.250000 0.102572
O O3 0.399006 0.104804 0.169249
O O4 0.399155 0.068684 0.074331
O O5 0.750000 0.985239 0.060185
O O6 0.908489 0.914177 0.078178
O O7 0.882227 0.100538 0.094564
O O8 0.894184 0.035662 0.005023
O O9 0.750000 0.971135 0.609914
O O10 0.594327 0.996325 0.662395
O O11 0.618497 0.090781 0.580484
O O12 0.250000 0.543312 0.057841
O O13 0.750000 0.666654 0.291426
O O14 0.907644 0.750000 0.269167
O O15 0.862905 0.584660 0.229428
O O16 0.750000 0.137897 0.161128
O O17 0.601782 0.250000 0.152620
O O18 0.585207 0.074741 0.188026
O O19 0.476591 0.523410 0.250000
#
# Coordination Sequence:
#
# PCOD8318652 Si02
#       7
#    16  16  16  16  16  16  16
#     4   8  15  29  52  84 117 147 185 236 289 337
#     4   9  20  39  62  87 115 151 193 234 283 344
#     4  11  24  40  58  85 119 153 195 243 291 341
#     4  10  20  37  61  87 118 154 193 236 281 337
#     4   9  17  31  52  76 103 139 184 232 282 336
#     4   9  19  36  56  80 112 146 182 229 285 349
#     4  11  22  36  54  78 109 147 190 236 286 341
#
# _framework density 20.748398999999999
#
# number of rings (size 3 to 8) (size 9 to 14) (size 15 to 20)
#    0.000    2.429    0.000    3.000    0.000    3.429 
#    0.000    8.571    0.000    0.000    0.000    0.000 
#    0.000    0.000    0.000    0.000    0.000    0.000 
#
# Total GULP energy -1388015.268502 kJ/mol
# GULP energy per Si atom -12392.993469 kJ/mol
# Density = 2.070117 g / cm^3
# Si number density = 20.748399 Si / 1000 Ang^3
#
#
#
# Elastic Constant Matrix: (Units=GPa)
#
#
# Indices 1 2 3 4 5 6 
#
# 1 76.7319 10.2895 32.3606 0.0000 0.0000 0.0000
# 2 10.2895 76.7306 32.3600 0.0000 0.0000 0.0000
# 3 32.3606 32.3600 152.1440 0.0000 0.0000 0.0000
# 4 0.0000 0.0000 0.0000 19.9637 0.0000 0.0000
# 5 0.0000 0.0000 0.0000 0.0000 19.9644 0.0000
# 6 0.0000 0.0000 0.0000 0.0000 0.0000 23.7889
#
#
#
# Elastic Compliance Matrix: (Units=1/GPa)
#
#
# Indices 1 2 3 4 5 6 
#
# 1 0.014351 -0.000700 -0.002904 0.000000 0.000000 0.000000
# 2 -0.000700 0.014351 -0.002903 0.000000 0.000000 0.000000
# 3 -0.002904 -0.002903 0.007808 0.000000 0.000000 0.000000
# 4 0.000000 0.000000 0.000000 0.050091 0.000000 0.000000
# 5 0.000000 0.000000 0.000000 0.000000 0.050089 0.000000
# 6 0.000000 0.000000 0.000000 0.000000 0.000000 0.042036
#
#
# Mechanical properties :
#
#
# Convention : Reuss Voigt Hill
#
# Bulk Modulus (GPa) = 42.56086 50.62520 46.59303
# Shear Modulus (GPa) = 25.05363 28.11648 26.58506
#
# Velocity S-wave (km/s) = 3.47868 3.68518 3.58342
# Velocity P-wave (km/s) = 6.05742 6.52380 6.29493
#
# Compressibility (1/GPa) = 0.02349577
#
# Stress axis : x y z
#
# Youngs Moduli (GPa) = 69.68269 69.68175 128.07643
#
# Poissons Ratio (x) = 0.04877 0.37187
# Poissons Ratio (y) = 0.04877 0.37187
# Poissons Ratio (z) = 0.20232 0.20232
#
# Static dielectric constant tensor:
#      x y z
#    x 3.730870 0.000000 0.000000 
#    y 0.000000 3.730870 0.000000 
#    z 0.000000 0.000000 4.074280 
# 
# 
# High freq. dielectric constant tensor:
#      x y z
#    x 1.804820 0.000000 0.000000 
#    y 0.000000 1.804820 0.000000 
#    z 0.000000 0.000000 1.822840 
# 
# From -- ./inp_files/9007.got.cif
#   From: 2010.03.12/outbox.cif.g09.slc.cpg/sg137_5_cif.got.tgz:9007.got - 2010.04.08 09:34:49.
