data_PCOD8318311
_publ_section_title
;
Structure prediction by ZEFSAII (Michael W. Deem and Ramdas Pophale) SiO2 
 PCOD8318311
Probable space group: P 42/M N M
;
_chemical_formula_sum "Si O2"
_cell_formula_units_Z 72
_cell_length_a 14.282762
_cell_length_b 14.282762
_cell_length_c 16.913511
_cell_angle_alpha 90.000000
_cell_angle_beta 90.000000
_cell_angle_gamma 90.000000
_cell_volume 3450.310414
_symmetry_space_group_name_H-M "P 42/M N M"
_symmetry_group_IT_number 136
_symmetry_cell_setting 'tetragonal'
loop_
_space_group_symop_operation_xyz
x,y,z
1/2-y,1/2+x,1/2+z
-x,-y,z
1/2+y,1/2-x,1/2+z
1/2+x,1/2-y,1/2-z
1/2-x,1/2+y,1/2-z
y,x,-z
-y,-x,-z
-x,-y,-z
1/2+y,1/2-x,1/2-z
x,y,-z
1/2-y,1/2+x,1/2-z
1/2-x,1/2+y,1/2+z
1/2+x,1/2-y,1/2+z
-y,-x,z
y,x,z
loop_
_atom_site_type_symbol
_atom_site_label
_atom_site_fract_x
_atom_site_fract_y
_atom_site_fract_z
Si Si1 0.754434 0.603828 0.087152
Si Si2 0.598683 0.050862 0.088458
Si Si3 0.076943 0.076943 0.093822
Si Si4 0.745144 0.407967 0.848426
Si Si5 0.417390 0.775987 0.332942
O O1 0.661534 0.661534 0.075854
O O2 0.720030 0.516941 0.140676
O O3 0.833449 0.669394 0.124770
O O4 0.790597 0.570387 0.000000
O O5 0.601679 0.161757 0.099479
O O6 0.500000 0.000000 0.101412
O O7 0.663971 0.010894 0.157495
O O8 0.635599 0.028635 0.000000
O O9 0.053349 0.178670 0.127301
O O10 0.080153 0.080153 0.000000
O O11 0.000000 0.000000 0.122383
O O12 0.662876 0.337125 0.878225
O O13 0.763235 0.387359 0.756951
#
# Coordination Sequence:
#
# PCOD8318311 Si02
#       5
#    16  16   8  16  16
#     4  11  23  42  71  98 127 178 235 282 335 416
#     4  11  24  41  69 103 134 177 230 283 341 413
#     4  11  24  42  68 100 136 180 232 281 330 400
#     4  12  26  43  65 103 141 175 221 289 356 404
#     4  12  23  43  70  98 136 180 228 277 346 417
#
# _framework density 20.867688000000001
#
# number of rings (size 3 to 8) (size 9 to 14) (size 15 to 20)
#    0.000    0.556    4.444    4.000    0.000    4.000 
#    0.000    1.111    0.000    0.000    0.000    0.000 
#    0.000    0.000    0.000    0.000    0.000    0.000 
#
# Total GULP energy -892393.210861 kJ/mol
# GULP energy per Si atom -12394.350151 kJ/mol
# Density = 2.082019 g / cm^3
# Si number density = 20.867688 Si / 1000 Ang^3
#
#
#
# Elastic Constant Matrix: (Units=GPa)
#
#
# Indices 1 2 3 4 5 6 
#
# 1 134.2683 61.6733 35.4322 0.0000 0.0000 0.0000
# 2 61.6733 134.2683 35.4322 0.0000 0.0000 0.0000
# 3 35.4322 35.4322 93.3959 0.0000 0.0000 0.0000
# 4 0.0000 0.0000 0.0000 23.0473 0.0000 0.0000
# 5 0.0000 0.0000 0.0000 0.0000 23.0473 0.0000
# 6 0.0000 0.0000 0.0000 0.0000 0.0000 53.0205
#
#
#
# Elastic Compliance Matrix: (Units=1/GPa)
#
#
# Indices 1 2 3 4 5 6 
#
# 1 0.009845 -0.003930 -0.002244 0.000000 0.000000 0.000000
# 2 -0.003930 0.009845 -0.002244 0.000000 0.000000 0.000000
# 3 -0.002244 -0.002244 0.012410 0.000000 0.000000 0.000000
# 4 0.000000 0.000000 0.000000 0.043389 0.000000 0.000000
# 5 0.000000 0.000000 0.000000 0.000000 0.043389 0.000000
# 6 0.000000 0.000000 0.000000 0.000000 0.000000 0.018861
#
#
# Mechanical properties :
#
#
# Convention : Reuss Voigt Hill
#
# Bulk Modulus (GPa) = 65.51433 69.66752 67.59092
# Shear Modulus (GPa) = 31.31602 35.11603 33.21602
#
# Velocity S-wave (km/s) = 3.87808 4.10664 3.99400
# Velocity P-wave (km/s) = 7.17746 7.47956 7.33007
#
# Compressibility (1/GPa) = 0.01526384
#
# Stress axis : x y z
#
# Youngs Moduli (GPa) = 101.57338 101.57338 80.58150
#
# Poissons Ratio (x) = 0.39918 0.18083
# Poissons Ratio (y) = 0.39918 0.18083
# Poissons Ratio (z) = 0.22794 0.22794
#
# Static dielectric constant tensor:
#      x y z
#    x 3.993660 0.000000 0.000000 
#    y 0.000000 3.993660 0.000000 
#    z 0.000000 0.000000 4.304380 
# 
# 
# High freq. dielectric constant tensor:
#      x y z
#    x 1.822580 0.000000 0.000000 
#    y 0.000000 1.822580 0.000000 
#    z 0.000000 0.000000 1.825310 
# 
# From -- ./inp_files/6057.got.cif
#   From: 2010.03.12/outbox.cif.g09.slc.cpg/sg136_4_cif.got.tgz:6057.got - 2010.04.06 18:39:43.
