data_PCOD8318390
_publ_section_title
;
Structure prediction by ZEFSAII (Michael W. Deem and Ramdas Pophale) SiO2 
 PCOD8318390
Probable space group: P 42/N M C
;
_chemical_formula_sum "Si O2"
_cell_formula_units_Z 80
_cell_length_a 14.403029
_cell_length_b 14.403029
_cell_length_c 20.740826
_cell_angle_alpha 90.000000
_cell_angle_beta 90.000000
_cell_angle_gamma 90.000000
_cell_volume 4302.627200
_symmetry_space_group_name_H-M "P 42/N M C"
_symmetry_group_IT_number 137
_space_group.IT_coordinate_system_code '2'
_symmetry_cell_setting 'tetragonal'
loop_
_space_group_symop_operation_xyz
x,y,z
1/2-y,x,1/2+z
1/2-x,1/2-y,z
y,1/2-x,1/2+z
1/2+x,-y,-z
-x,1/2+y,-z
1/2+y,1/2+x,1/2-z
-y,-x,1/2-z
-x,-y,-z
1/2+y,-x,1/2-z
1/2+x,1/2+y,-z
-y,1/2+x,1/2-z
1/2-x,y,z
x,1/2-y,z
1/2-y,1/2-x,1/2+z
y,x,1/2+z
loop_
_atom_site_type_symbol
_atom_site_label
_atom_site_fract_x
_atom_site_fract_y
_atom_site_fract_z
Si Si1 0.462113 0.356925 0.492241
Si Si2 0.960814 0.857103 0.119278
Si Si3 0.146513 0.646394 0.055687
Si Si4 0.354251 0.360082 0.757082
Si Si5 0.353931 0.139873 0.615492
O O1 0.433878 0.250000 0.481306
O O2 0.422008 0.415715 0.434351
O O3 0.573529 0.370147 0.497451
O O4 0.421621 0.396990 0.559718
O O5 0.929352 0.750000 0.108547
O O6 0.927084 0.894418 0.188832
O O7 0.072414 0.866284 0.113614
O O8 0.250000 0.630078 0.085162
O O9 0.137655 0.750000 0.026006
O O10 0.250000 0.395164 0.774251
O O11 0.353879 0.250000 0.754585
O O12 0.384161 0.398394 0.686320
O O13 0.250000 0.105598 0.599512
O O14 0.357424 0.250000 0.617035
#
# Coordination Sequence:
#
# PCOD8318390 Si02
#       5
#    16  16  16  16  16
#     4  10  18  28  46  70  93 115 146 189 229 270
#     4  10  18  28  46  70  93 115 146 189 229 270
#     4   9  19  34  47  60  85 123 160 192 227 267
#     4   8  14  25  41  63  93 123 142 163 213 281
#     4   8  14  25  41  63  93 123 142 163 213 281
#
# _framework density 18.593292000000002
#
# number of rings (size 3 to 8) (size 9 to 14) (size 15 to 20)
#    0.000    3.000    0.000    3.000    0.000    2.000 
#    0.000    1.000    0.000    3.600    0.000   11.200 
#    0.000    1.600    0.000   14.800    0.000    0.400 
#
# Total GULP energy -991258.374309 kJ/mol
# GULP energy per Si atom -12390.729679 kJ/mol
# Density = 1.855097 g / cm^3
# Si number density = 18.593292 Si / 1000 Ang^3
#
#
#
# Elastic Constant Matrix: (Units=GPa)
#
#
# Indices 1 2 3 4 5 6 
#
# 1 73.3286 20.9698 35.4581 0.0000 0.0000 0.0000
# 2 20.9698 73.3286 35.4581 0.0000 0.0000 0.0000
# 3 35.4581 35.4581 106.9917 0.0000 0.0000 0.0000
# 4 0.0000 0.0000 0.0000 10.1783 0.0000 0.0000
# 5 0.0000 0.0000 0.0000 0.0000 10.1783 0.0000
# 6 0.0000 0.0000 0.0000 0.0000 0.0000 14.2379
#
#
#
# Elastic Compliance Matrix: (Units=1/GPa)
#
#
# Indices 1 2 3 4 5 6 
#
# 1 0.016612 -0.002487 -0.004681 0.000000 0.000000 0.000000
# 2 -0.002487 0.016612 -0.004681 0.000000 0.000000 0.000000
# 3 -0.004681 -0.004681 0.012449 0.000000 0.000000 0.000000
# 4 0.000000 0.000000 0.000000 0.098249 0.000000 0.000000
# 5 0.000000 0.000000 0.000000 0.000000 0.098249 0.000000
# 6 0.000000 0.000000 0.000000 0.000000 0.000000 0.070235
#
#
# Mechanical properties :
#
#
# Convention : Reuss Voigt Hill
#
# Bulk Modulus (GPa) = 45.50690 48.60235 47.05462
# Shear Modulus (GPa) = 14.55903 17.70307 16.13105
#
# Velocity S-wave (km/s) = 2.80130 3.08899 2.94866
# Velocity P-wave (km/s) = 5.91532 6.23851 6.07906
#
# Compressibility (1/GPa) = 0.02197469
#
# Stress axis : x y z
#
# Youngs Moduli (GPa) = 60.19736 60.19736 80.32578
#
# Poissons Ratio (x) = 0.14971 0.37602
# Poissons Ratio (y) = 0.14971 0.37602
# Poissons Ratio (z) = 0.28180 0.28180
#
# Static dielectric constant tensor:
#      x y z
#    x 3.413350 0.000000 0.000000 
#    y 0.000000 3.413350 0.000000 
#    z 0.000000 0.000000 3.645730 
# 
# 
# High freq. dielectric constant tensor:
#      x y z
#    x 1.706100 0.000000 0.000000 
#    y 0.000000 1.706100 0.000000 
#    z 0.000000 0.000000 1.700380 
# 
# From -- ./inp_files/7589.got.cif
#   From: 2010.03.12/outbox.cif.g09.slc.cpg/sg137_4_cif.got.tgz:7589.got - 2010.04.08 09:34:49.
