data_PCOD8318365
_publ_section_title
;
Structure prediction by ZEFSAII (Michael W. Deem and Ramdas Pophale) SiO2 
 PCOD8318365
Probable space group: P 42/N M C
;
_chemical_formula_sum "Si O2"
_cell_formula_units_Z 88
_cell_length_a 15.037577
_cell_length_b 15.037577
_cell_length_c 25.253896
_cell_angle_alpha 90.000000
_cell_angle_beta 90.000000
_cell_angle_gamma 90.000000
_cell_volume 5710.631229
_symmetry_space_group_name_H-M "P 42/N M C"
_symmetry_group_IT_number 137
_space_group.IT_coordinate_system_code '2'
_symmetry_cell_setting 'tetragonal'
loop_
_space_group_symop_operation_xyz
x,y,z
1/2-y,x,1/2+z
1/2-x,1/2-y,z
y,1/2-x,1/2+z
1/2+x,-y,-z
-x,1/2+y,-z
1/2+y,1/2+x,1/2-z
-y,-x,1/2-z
-x,-y,-z
1/2+y,-x,1/2-z
1/2+x,1/2+y,-z
-y,1/2+x,1/2-z
1/2-x,y,z
x,1/2-y,z
1/2-y,1/2-x,1/2+z
y,x,1/2+z
loop_
_atom_site_type_symbol
_atom_site_label
_atom_site_fract_x
_atom_site_fract_y
_atom_site_fract_z
Si Si1 0.847593 0.925151 0.063434
Si Si2 0.912604 0.149661 0.361953
Si Si3 0.149752 0.649752 0.750000
Si Si4 0.648105 0.991089 0.945509
Si Si5 0.848657 0.030035 0.545925
Si Si6 0.348253 0.489373 0.573478
O O1 0.750000 0.877506 0.064704
O O2 0.929083 0.856832 0.068173
O O3 0.856175 0.989643 0.113549
O O4 0.856015 0.979793 0.008811
O O5 0.873295 0.250000 0.371953
O O6 0.916968 0.131157 0.298838
O O7 0.853030 0.071974 0.386606
O O8 0.136694 0.750000 0.771668
O O9 0.750000 0.990987 0.925285
O O10 0.592674 0.914491 0.915020
O O11 0.600282 0.083085 0.928726
O O12 0.750000 0.064008 0.559171
O O13 0.868441 0.029579 0.483790
O O14 0.250000 0.447860 0.576307
#
# Coordination Sequence:
#
# PCOD8318365 Si02
#       6
#    16  16   8  16  16  16
#     4   9  16  28  45  61  85 120 149 177 217 261
#     4  10  17  28  45  63  89 121 149 177 213 256
#     4   9  18  28  38  62  94 116 141 180 218 256
#     4  10  18  30  42  59  90 118 149 187 216 252
#     4  10  18  28  42  63  89 115 149 185 217 257
#     4  10  18  28  44  63  86 119 152 178 214 260
#
# _framework density 15.409853999999999
#
# number of rings (size 3 to 8) (size 9 to 14) (size 15 to 20)
#    0.000    2.273    3.636    1.636    0.000    2.182 
#    0.000    5.455    0.000    0.000    0.000    1.273 
#    0.000    4.364    0.000    1.636    0.000    0.000 
#
# Total GULP energy -1090466.182416 kJ/mol
# GULP energy per Si atom -12391.661164 kJ/mol
# Density = 1.537478 g / cm^3
# Si number density = 15.409854 Si / 1000 Ang^3
#
#
#
# Elastic Constant Matrix: (Units=GPa)
#
#
# Indices 1 2 3 4 5 6 
#
# 1 93.9785 57.5186 17.2370 0.0000 0.0000 0.0000
# 2 57.5186 93.9785 17.2370 0.0000 0.0000 0.0000
# 3 17.2370 17.2370 58.3741 0.0000 0.0000 0.0000
# 4 0.0000 0.0000 0.0000 14.0965 0.0000 0.0000
# 5 0.0000 0.0000 0.0000 0.0000 14.0965 0.0000
# 6 0.0000 0.0000 0.0000 0.0000 0.0000 13.5013
#
#
#
# Elastic Compliance Matrix: (Units=1/GPa)
#
#
# Indices 1 2 3 4 5 6 
#
# 1 0.017252 -0.010176 -0.002090 0.000000 0.000000 0.000000
# 2 -0.010176 0.017252 -0.002090 0.000000 0.000000 0.000000
# 3 -0.002090 -0.002090 0.018365 0.000000 0.000000 0.000000
# 4 0.000000 0.000000 0.000000 0.070940 0.000000 0.000000
# 5 0.000000 0.000000 0.000000 0.000000 0.070940 0.000000
# 6 0.000000 0.000000 0.000000 0.000000 0.000000 0.074067
#
#
# Mechanical properties :
#
#
# Convention : Reuss Voigt Hill
#
# Bulk Modulus (GPa) = 41.39180 47.81290 44.60235
# Shear Modulus (GPa) = 16.36248 18.62808 17.49528
#
# Velocity S-wave (km/s) = 3.26209 3.48061 3.37312
# Velocity P-wave (km/s) = 6.41149 6.87370 6.64661
#
# Compressibility (1/GPa) = 0.02415937
#
# Stress axis : x y z
#
# Youngs Moduli (GPa) = 57.96482 57.96482 54.45171
#
# Poissons Ratio (x) = 0.58983 0.11378
# Poissons Ratio (y) = 0.58983 0.11378
# Poissons Ratio (z) = 0.12112 0.12112
#
# Static dielectric constant tensor:
#      x y z
#    x 2.982760 0.000000 0.000000 
#    y 0.000000 2.982760 0.000000 
#    z 0.000000 0.000000 2.604590 
# 
# 
# High freq. dielectric constant tensor:
#      x y z
#    x 1.589090 0.000000 0.000000 
#    y 0.000000 1.589090 0.000000 
#    z 0.000000 0.000000 1.536170 
# 
# From -- ./inp_files/8796.got.cif
#   From: 2010.03.12/outbox.cif.g09.slc.cpg/sg137_5_cif.got.tgz:8796.got - 2010.04.08 09:34:49.
