data_PCOD8318480
_publ_section_title
;
Structure prediction by ZEFSAII (Michael W. Deem and Ramdas Pophale) SiO2 
 PCOD8318480
Probable space group: P 42/N M C
;
_chemical_formula_sum "Si O2"
_cell_formula_units_Z 112
_cell_length_a 13.968189
_cell_length_b 13.968189
_cell_length_c 27.341463
_cell_angle_alpha 90.000000
_cell_angle_beta 90.000000
_cell_angle_gamma 90.000000
_cell_volume 5334.601156
_symmetry_space_group_name_H-M "P 42/N M C"
_symmetry_group_IT_number 137
_space_group.IT_coordinate_system_code '2'
_symmetry_cell_setting 'tetragonal'
loop_
_space_group_symop_operation_xyz
x,y,z
1/2-y,x,1/2+z
1/2-x,1/2-y,z
y,1/2-x,1/2+z
1/2+x,-y,-z
-x,1/2+y,-z
1/2+y,1/2+x,1/2-z
-y,-x,1/2-z
-x,-y,-z
1/2+y,-x,1/2-z
1/2+x,1/2+y,-z
-y,1/2+x,1/2-z
1/2-x,y,z
x,1/2-y,z
1/2-y,1/2-x,1/2+z
y,x,1/2+z
loop_
_atom_site_type_symbol
_atom_site_label
_atom_site_fract_x
_atom_site_fract_y
_atom_site_fract_z
Si Si1 0.032756 0.361866 0.954021
Si Si2 0.360673 0.509851 0.897864
Si Si3 0.136547 0.356619 0.154252
Si Si4 0.144520 0.136520 0.048180
Si Si5 0.861699 0.017055 0.211980
Si Si6 0.517054 0.863596 0.254403
Si Si7 0.860469 0.356869 0.487986
O O1 0.051694 0.250000 0.945244
O O2 0.072884 0.416780 0.906909
O O3 0.921216 0.385126 0.964428
O O4 0.084017 0.403273 0.002941
O O5 0.250000 0.478096 0.902500
O O6 0.379410 0.552359 0.843676
O O7 0.388336 0.588498 0.937998
O O8 0.250000 0.348592 0.149938
O O9 0.097254 0.250000 0.168791
O O10 0.097295 0.390122 0.100919
O O11 0.108011 0.437642 0.193080
O O12 0.250000 0.091072 0.043075
O O13 0.150263 0.250000 0.044922
O O14 0.909688 0.090313 0.250000
O O15 0.750000 0.009699 0.224282
O O16 0.910061 0.911578 0.215760
O O17 0.508866 0.750000 0.245547
O O18 0.411723 0.911723 0.250000
O O19 0.750000 0.370068 0.474616
O O20 0.886976 0.250000 0.503895
#
# Coordination Sequence:
#
# PCOD8318480 Si02
#       7
#    16  16  16  16  16  16  16
#     4  10  19  31  53  84 116 152 191 231 277 331
#     4  10  21  37  57  84 118 153 188 229 283 344
#     4   8  14  27  49  76 106 139 177 230 296 356
#     4   8  14  25  44  76 113 140 168 216 282 351
#     4  10  23  41  62  90 120 152 193 241 296 360
#     4  10  21  37  57  81 110 147 195 249 301 354
#     4   9  19  36  56  79 111 153 198 237 274 327
#
# _framework density 20.995011000000002
#
# number of rings (size 3 to 8) (size 9 to 14) (size 15 to 20)
#    0.000    2.714    0.000    2.143    0.000    5.429 
#    0.000    4.286    0.000    3.429    0.000    4.000 
#    0.000    0.000    0.000    0.000    0.000    0.000 
#
# Total GULP energy -1388147.930561 kJ/mol
# GULP energy per Si atom -12394.177951 kJ/mol
# Density = 2.094722 g / cm^3
# Si number density = 20.995011 Si / 1000 Ang^3
#
#
#
# Elastic Constant Matrix: (Units=GPa)
#
#
# Indices 1 2 3 4 5 6 
#
# 1 93.0274 39.3092 37.7186 0.0000 0.0000 0.0000
# 2 39.3092 93.0266 37.7183 0.0000 0.0000 0.0000
# 3 37.7186 37.7183 97.0300 0.0000 0.0000 0.0000
# 4 0.0000 0.0000 0.0000 28.3527 0.0000 0.0000
# 5 0.0000 0.0000 0.0000 0.0000 28.3527 0.0000
# 6 0.0000 0.0000 0.0000 0.0000 0.0000 23.8681
#
#
#
# Elastic Compliance Matrix: (Units=1/GPa)
#
#
# Indices 1 2 3 4 5 6 
#
# 1 0.014162 -0.004454 -0.003774 0.000000 0.000000 0.000000
# 2 -0.004454 0.014162 -0.003774 0.000000 0.000000 0.000000
# 3 -0.003774 -0.003774 0.013240 0.000000 0.000000 0.000000
# 4 0.000000 0.000000 0.000000 0.035270 0.000000 0.000000
# 5 0.000000 0.000000 0.000000 0.000000 0.035270 0.000000
# 6 0.000000 0.000000 0.000000 0.000000 0.000000 0.041897
#
#
# Mechanical properties :
#
#
# Convention : Reuss Voigt Hill
#
# Bulk Modulus (GPa) = 56.94555 56.95291 56.94923
# Shear Modulus (GPa) = 27.19510 27.33723 27.26617
#
# Velocity S-wave (km/s) = 3.60295 3.61235 3.60765
# Velocity P-wave (km/s) = 6.67013 6.67717 6.67365
#
# Compressibility (1/GPa) = 0.01756064
#
# Stress axis : x y z
#
# Youngs Moduli (GPa) = 70.61316 70.61261 75.52892
#
# Poissons Ratio (x) = 0.31451 0.28502
# Poissons Ratio (y) = 0.31452 0.28502
# Poissons Ratio (z) = 0.26647 0.26647
#
# Static dielectric constant tensor:
#      x y z
#    x 3.770890 0.000000 0.000000 
#    y 0.000000 3.770890 0.000000 
#    z 0.000000 0.000000 3.903860 
# 
# 
# High freq. dielectric constant tensor:
#      x y z
#    x 1.817400 0.000000 0.000000 
#    y 0.000000 1.817400 0.000000 
#    z 0.000000 0.000000 1.811830 
# 
# From -- ./inp_files/9829.got.cif
#   From: 2010.03.12/outbox.cif.g09.slc.cpg/sg137_5_cif.got.tgz:9829.got - 2010.04.08 09:34:49.
