data_PCOD8318666
_publ_section_title
;
Structure prediction by ZEFSAII (Michael W. Deem and Ramdas Pophale) SiO2 
 PCOD8318666
Probable space group: P 42/N M C
;
_chemical_formula_sum "Si O2"
_cell_formula_units_Z 64
_cell_length_a 15.673326
_cell_length_b 15.673326
_cell_length_c 13.072825
_cell_angle_alpha 90.000000
_cell_angle_beta 90.000000
_cell_angle_gamma 90.000000
_cell_volume 3211.380613
_symmetry_space_group_name_H-M "P 42/N M C"
_symmetry_group_IT_number 137
_space_group.IT_coordinate_system_code '2'
_symmetry_cell_setting 'tetragonal'
loop_
_space_group_symop_operation_xyz
x,y,z
1/2-y,x,1/2+z
1/2-x,1/2-y,z
y,1/2-x,1/2+z
1/2+x,-y,-z
-x,1/2+y,-z
1/2+y,1/2+x,1/2-z
-y,-x,1/2-z
-x,-y,-z
1/2+y,-x,1/2-z
1/2+x,1/2+y,-z
-y,1/2+x,1/2-z
1/2-x,y,z
x,1/2-y,z
1/2-y,1/2-x,1/2+z
y,x,1/2+z
loop_
_atom_site_type_symbol
_atom_site_label
_atom_site_fract_x
_atom_site_fract_y
_atom_site_fract_z
Si Si1 0.155206 0.516741 0.288730
Si Si2 0.343001 0.583772 0.840348
Si Si3 0.599745 0.009576 0.484668
Si Si4 0.848806 0.582966 0.288298
O O1 0.082335 0.582335 0.250000
O O2 0.250000 0.552419 0.262693
O O3 0.149479 0.504203 0.409927
O O4 0.151069 0.422189 0.238080
O O5 0.346030 0.653971 0.750000
O O6 0.250000 0.574991 0.887012
O O7 0.398102 0.613627 0.935693
O O8 0.372038 0.495414 0.786860
O O9 0.500000 0.000000 0.500000
O O10 0.639342 0.940087 0.407566
O O11 0.750000 0.614162 0.271529
#
# Coordination Sequence:
#
# PCOD8318666 Si02
#       4
#    16  16  16  16
#     4  12  25  42  62  89 128 172 212 255 308 374
#     4   9  18  33  58  87 117 153 198 254 314 367
#     4  11  19  38  64  89 122 163 209 252 311 368
#     4  10  20  39  65  92 119 153 203 263 317 370
#
# _framework density 19.929123000000001
#
# number of rings (size 3 to 8) (size 9 to 14) (size 15 to 20)
#    0.000    1.500    5.000    1.500    0.000    3.000 
#    0.000    1.250    0.000    3.000    0.000    0.000 
#    0.000    0.000    0.000    0.000    0.000    0.000 
#
# Total GULP energy -793090.225034 kJ/mol
# GULP energy per Si atom -12392.034766 kJ/mol
# Density = 1.988376 g / cm^3
# Si number density = 19.929123 Si / 1000 Ang^3
#
#
#
# Elastic Constant Matrix: (Units=GPa)
#
#
# Indices 1 2 3 4 5 6 
#
# 1 106.2653 37.1266 36.5513 0.0000 0.0000 0.0000
# 2 37.1266 106.2625 36.5517 0.0000 0.0000 0.0000
# 3 36.5513 36.5517 123.8979 0.0000 0.0000 0.0000
# 4 0.0000 0.0000 0.0000 16.3542 0.0000 0.0000
# 5 0.0000 0.0000 0.0000 0.0000 16.3542 0.0000
# 6 0.0000 0.0000 0.0000 0.0000 0.0000 15.2202
#
#
#
# Elastic Compliance Matrix: (Units=1/GPa)
#
#
# Indices 1 2 3 4 5 6 
#
# 1 0.011336 -0.003128 -0.002422 0.000000 0.000000 0.000000
# 2 -0.003128 0.011336 -0.002422 0.000000 0.000000 0.000000
# 3 -0.002422 -0.002422 0.009500 0.000000 0.000000 0.000000
# 4 0.000000 0.000000 0.000000 0.061146 0.000000 0.000000
# 5 0.000000 0.000000 0.000000 0.000000 0.061146 0.000000
# 6 0.000000 0.000000 0.000000 0.000000 0.000000 0.065702
#
#
# Mechanical properties :
#
#
# Convention : Reuss Voigt Hill
#
# Bulk Modulus (GPa) = 61.61213 61.87611 61.74412
# Shear Modulus (GPa) = 20.70226 24.66545 22.68385
#
# Velocity S-wave (km/s) = 3.22653 3.52185 3.37742
# Velocity P-wave (km/s) = 6.69801 6.90315 6.80135
#
# Compressibility (1/GPa) = 0.01623057
#
# Stress axis : x y z
#
# Youngs Moduli (GPa) = 88.21382 88.21104 105.26324
#
# Poissons Ratio (x) = 0.27590 0.25490
# Poissons Ratio (y) = 0.27591 0.25492
# Poissons Ratio (z) = 0.21362 0.21362
#
# Static dielectric constant tensor:
#      x y z
#    x 3.535790 0.000000 0.000000 
#    y 0.000000 3.535790 0.000000 
#    z 0.000000 0.000000 3.636370 
# 
# 
# High freq. dielectric constant tensor:
#      x y z
#    x 1.766060 0.000000 0.000000 
#    y 0.000000 1.766060 0.000000 
#    z 0.000000 0.000000 1.780120 
# 
# From -- ./inp_files/4704.got.cif
#   From: 2010.03.12/outbox.cif.g09.slc.cpg/sg137_3_cif.got.tgz:4704.got - 2010.04.08 09:34:49.
