data_PCOD8318534
_publ_section_title
;
Structure prediction by ZEFSAII (Michael W. Deem and Ramdas Pophale) SiO2 
 PCOD8318534
Probable space group: P 42/N M C
;
_chemical_formula_sum "Si O2"
_cell_formula_units_Z 112
_cell_length_a 14.152177
_cell_length_b 14.152177
_cell_length_c 29.672427
_cell_angle_alpha 90.000000
_cell_angle_beta 90.000000
_cell_angle_gamma 90.000000
_cell_volume 5942.915747
_symmetry_space_group_name_H-M "P 42/N M C"
_symmetry_group_IT_number 137
_space_group.IT_coordinate_system_code '2'
_symmetry_cell_setting 'tetragonal'
loop_
_space_group_symop_operation_xyz
x,y,z
1/2-y,x,1/2+z
1/2-x,1/2-y,z
y,1/2-x,1/2+z
1/2+x,-y,-z
-x,1/2+y,-z
1/2+y,1/2+x,1/2-z
-y,-x,1/2-z
-x,-y,-z
1/2+y,-x,1/2-z
1/2+x,1/2+y,-z
-y,1/2+x,1/2-z
1/2-x,y,z
x,1/2-y,z
1/2-y,1/2-x,1/2+z
y,x,1/2+z
loop_
_atom_site_type_symbol
_atom_site_label
_atom_site_fract_x
_atom_site_fract_y
_atom_site_fract_z
Si Si1 0.042298 0.360672 0.361433
Si Si2 0.637806 0.644560 0.226542
Si Si3 0.146832 0.996333 0.422330
Si Si4 0.137807 0.355319 0.174681
Si Si5 0.602797 0.988045 0.480996
Si Si6 0.645239 0.141988 0.408618
Si Si7 0.361607 0.473321 0.089797
O O1 0.063305 0.250000 0.365918
O O2 0.071820 0.397939 0.311807
O O3 0.105509 0.410897 0.398915
O O4 0.931824 0.384559 0.370329
O O5 0.750000 0.650254 0.227051
O O6 0.597119 0.750000 0.216726
O O7 0.605605 0.607227 0.275911
O O8 0.250000 0.970753 0.401877
O O9 0.166829 0.022346 0.474857
O O10 0.076389 0.908142 0.415522
O O11 0.250000 0.347864 0.173328
O O12 0.095796 0.250000 0.165298
O O13 0.103027 0.429373 0.137162
O O14 0.600793 0.896052 0.448588
O O15 0.500000 0.000000 0.500000
O O16 0.633844 0.079643 0.453088
O O17 0.750000 0.127095 0.387825
O O18 0.630520 0.250000 0.424257
O O19 0.250000 0.485174 0.086617
#
# Coordination Sequence:
#
# PCOD8318534 Si02
#       7
#    16  16  16  16  16  16  16
#     4  10  19  34  56  83 111 138 178 229 276 324
#     4   8  14  27  51  82 112 141 174 220 276 328
#     4  11  23  38  54  79 111 147 186 223 273 330
#     4   8  15  30  53  81 110 140 180 227 275 326
#     4  10  20  37  53  77 106 142 183 230 267 312
#     4  10  20  35  57  81 108 145 183 220 271 333
#     4  10  21  37  56  81 111 145 184 229 276 318
#
# _framework density 18.845967000000002
#
# number of rings (size 3 to 8) (size 9 to 14) (size 15 to 20)
#    0.000    2.429    2.857    1.714    0.000    5.143 
#    0.000    0.714    0.000    0.000    0.000    1.000 
#    0.000    6.857    0.000    0.000    0.000    0.000 
#
# Total GULP energy -1387841.794953 kJ/mol
# GULP energy per Si atom -12391.444598 kJ/mol
# Density = 1.880307 g / cm^3
# Si number density = 18.845967 Si / 1000 Ang^3
#
#
#
# Elastic Constant Matrix: (Units=GPa)
#
#
# Indices 1 2 3 4 5 6 
#
# 1 99.6284 37.4604 56.0008 0.0000 0.0000 0.0000
# 2 37.4604 99.6284 56.0008 0.0000 0.0000 0.0000
# 3 56.0008 56.0008 153.4116 0.0000 0.0000 0.0000
# 4 0.0000 0.0000 0.0000 26.6614 0.0000 0.0000
# 5 0.0000 0.0000 0.0000 0.0000 26.6614 0.0000
# 6 0.0000 0.0000 0.0000 0.0000 0.0000 17.0732
#
#
#
# Elastic Compliance Matrix: (Units=1/GPa)
#
#
# Indices 1 2 3 4 5 6 
#
# 1 0.013240 -0.002845 -0.003794 0.000000 0.000000 0.000000
# 2 -0.002845 0.013240 -0.003794 0.000000 0.000000 0.000000
# 3 -0.003794 -0.003794 0.009289 0.000000 0.000000 0.000000
# 4 0.000000 0.000000 0.000000 0.037507 0.000000 0.000000
# 5 0.000000 0.000000 0.000000 0.000000 0.037507 0.000000
# 6 0.000000 0.000000 0.000000 0.000000 0.000000 0.058571
#
#
# Mechanical properties :
#
#
# Convention : Reuss Voigt Hill
#
# Bulk Modulus (GPa) = 67.11343 72.39916 69.75629
# Shear Modulus (GPa) = 25.61607 27.62629 26.62118
#
# Velocity S-wave (km/s) = 3.69078 3.83286 3.76249
# Velocity P-wave (km/s) = 7.33835 7.62151 7.48127
#
# Compressibility (1/GPa) = 0.01490015
#
# Stress axis : x y z
#
# Youngs Moduli (GPa) = 75.52865 75.52865 107.65897
#
# Poissons Ratio (x) = 0.21491 0.40850
# Poissons Ratio (y) = 0.21491 0.40850
# Poissons Ratio (z) = 0.28659 0.28659
#
# Static dielectric constant tensor:
#      x y z
#    x 3.458210 0.000000 0.000000 
#    y 0.000000 3.458210 0.000000 
#    z 0.000000 0.000000 4.035600 
# 
# 
# High freq. dielectric constant tensor:
#      x y z
#    x 1.719920 0.000000 0.000000 
#    y 0.000000 1.719920 0.000000 
#    z 0.000000 0.000000 1.734750 
# 
# From -- ./inp_files/9835.got.cif
#   From: 2010.03.12/outbox.cif.g09.slc.cpg/sg137_5_cif.got.tgz:9835.got - 2010.04.08 09:34:49.
