data_PCOD8318785
_publ_section_title
;
Structure prediction by ZEFSAII (Michael W. Deem and Ramdas Pophale) SiO2 
 PCOD8318785
Probable space group: P 42/N M C
;
_chemical_formula_sum "Si O2"
_cell_formula_units_Z 72
_cell_length_a 17.226641
_cell_length_b 17.226641
_cell_length_c 12.692025
_cell_angle_alpha 90.000000
_cell_angle_beta 90.000000
_cell_angle_gamma 90.000000
_cell_volume 3766.449295
_symmetry_space_group_name_H-M "P 42/N M C"
_symmetry_group_IT_number 137
_space_group.IT_coordinate_system_code '2'
_symmetry_cell_setting 'tetragonal'
loop_
_space_group_symop_operation_xyz
x,y,z
1/2-y,x,1/2+z
1/2-x,1/2-y,z
y,1/2-x,1/2+z
1/2+x,-y,-z
-x,1/2+y,-z
1/2+y,1/2+x,1/2-z
-y,-x,1/2-z
-x,-y,-z
1/2+y,-x,1/2-z
1/2+x,1/2+y,-z
-y,1/2+x,1/2-z
1/2-x,y,z
x,1/2-y,z
1/2-y,1/2-x,1/2+z
y,x,1/2+z
loop_
_atom_site_type_symbol
_atom_site_label
_atom_site_fract_x
_atom_site_fract_y
_atom_site_fract_z
Si Si1 0.336229 0.836229 0.750000
Si Si2 0.434688 0.159892 0.569488
Si Si3 0.596382 0.981463 0.712759
Si Si4 0.973420 0.837555 0.995093
Si Si5 0.953857 0.405118 0.402367
O O1 0.346277 0.750000 0.798311
O O2 0.399139 0.844475 0.657375
O O3 0.421481 0.250000 0.549658
O O4 0.440347 0.142258 0.693215
O O5 0.358973 0.116799 0.522544
O O6 0.512849 0.132173 0.509188
O O7 0.656866 0.994525 0.618221
O O8 0.523683 0.929263 0.674640
O O9 0.565127 0.065127 0.750000
O O10 0.990526 0.750000 0.956055
O O11 0.019852 0.902118 0.929037
#
# Coordination Sequence:
#
# PCOD8318785 Si02
#       5
#     8  16  16  16  16
#     4  11  22  34  50  78 112 142 180 239 306 352
#     4  11  22  37  59  86 119 155 194 244 299 352
#     4  11  18  37  61  85 109 144 204 247 278 338
#     4  11  22  36  59  88 119 154 197 245 298 357
#     4  11  20  37  60  82 109 152 203 243 283 348
#
# _framework density 19.116147000000002
#
# number of rings (size 3 to 8) (size 9 to 14) (size 15 to 20)
#    0.000    1.000    5.556    3.333    0.000    0.444 
#    0.000    4.444    0.000    5.333    0.000    1.556 
#    0.000    0.000    0.000    0.000    0.000    0.000 
#
# Total GULP energy -892864.746562 kJ/mol
# GULP energy per Si atom -12400.899258 kJ/mol
# Density = 1.907264 g / cm^3
# Si number density = 19.116147 Si / 1000 Ang^3
#
#
#
# Elastic Constant Matrix: (Units=GPa)
#
#
# Indices 1 2 3 4 5 6 
#
# 1 103.9472 36.7019 23.8273 0.0000 0.0000 0.0000
# 2 36.7019 103.9472 23.8273 0.0000 0.0000 0.0000
# 3 23.8273 23.8273 89.4905 0.0000 0.0000 0.0000
# 4 0.0000 0.0000 0.0000 24.5613 0.0000 0.0000
# 5 0.0000 0.0000 0.0000 0.0000 24.5613 0.0000
# 6 0.0000 0.0000 0.0000 0.0000 0.0000 20.7351
#
#
#
# Elastic Compliance Matrix: (Units=1/GPa)
#
#
# Indices 1 2 3 4 5 6 
#
# 1 0.011343 -0.003528 -0.002081 0.000000 0.000000 0.000000
# 2 -0.003528 0.011343 -0.002081 0.000000 0.000000 0.000000
# 3 -0.002081 -0.002081 0.012282 0.000000 0.000000 0.000000
# 4 0.000000 0.000000 0.000000 0.040715 0.000000 0.000000
# 5 0.000000 0.000000 0.000000 0.000000 0.040715 0.000000
# 6 0.000000 0.000000 0.000000 0.000000 0.000000 0.048227
#
#
# Mechanical properties :
#
#
# Convention : Reuss Voigt Hill
#
# Bulk Modulus (GPa) = 51.04864 51.78866 51.41865
# Shear Modulus (GPa) = 26.80486 28.17343 27.48915
#
# Velocity S-wave (km/s) = 3.74867 3.84318 3.79622
# Velocity P-wave (km/s) = 6.74531 6.84425 6.79496
#
# Compressibility (1/GPa) = 0.01958916
#
# Stress axis : x y z
#
# Youngs Moduli (GPa) = 88.16085 88.16085 81.41733
#
# Poissons Ratio (x) = 0.31103 0.16941
# Poissons Ratio (y) = 0.31103 0.16941
# Poissons Ratio (z) = 0.18344 0.18344
#
# Static dielectric constant tensor:
#      x y z
#    x 3.407260 0.000000 0.000000 
#    y 0.000000 3.407260 0.000000 
#    z 0.000000 0.000000 3.675970 
# 
# 
# High freq. dielectric constant tensor:
#      x y z
#    x 1.731090 0.000000 0.000000 
#    y 0.000000 1.731090 0.000000 
#    z 0.000000 0.000000 1.756190 
# 
# From -- ./inp_files/3460.got.cif
#   From: 2010.03.12/outbox.cif.g09.slc.cpg/sg137_2_cif.got.tgz:3460.got - 2010.04.08 09:34:49.
