data_PCOD8318829
_publ_section_title
;
Structure prediction by ZEFSAII (Michael W. Deem and Ramdas Pophale) SiO2 
 PCOD8318829
Probable space group: P 42/N M C
;
_chemical_formula_sum "Si O2"
_cell_formula_units_Z 48
_cell_length_a 9.851974
_cell_length_b 9.851974
_cell_length_c 30.621894
_cell_angle_alpha 90.000000
_cell_angle_beta 90.000000
_cell_angle_gamma 90.000000
_cell_volume 2972.203648
_symmetry_space_group_name_H-M "P 42/N M C"
_symmetry_group_IT_number 137
_space_group.IT_coordinate_system_code '2'
_symmetry_cell_setting 'tetragonal'
loop_
_space_group_symop_operation_xyz
x,y,z
1/2-y,x,1/2+z
1/2-x,1/2-y,z
y,1/2-x,1/2+z
1/2+x,-y,-z
-x,1/2+y,-z
1/2+y,1/2+x,1/2-z
-y,-x,1/2-z
-x,-y,-z
1/2+y,-x,1/2-z
1/2+x,1/2+y,-z
-y,1/2+x,1/2-z
1/2-x,y,z
x,1/2-y,z
1/2-y,1/2-x,1/2+z
y,x,1/2+z
loop_
_atom_site_type_symbol
_atom_site_label
_atom_site_fract_x
_atom_site_fract_y
_atom_site_fract_z
Si Si1 0.900860 0.411883 0.701881
Si Si2 0.592597 0.591435 0.969626
Si Si3 0.089188 0.399753 0.128967
O O1 0.954787 0.454787 0.750000
O O2 0.750000 0.470279 0.693697
O O3 0.896702 0.250000 0.699621
O O4 0.997653 0.474275 0.664502
O O5 0.750000 0.557387 0.978516
O O6 0.564581 0.750000 0.978618
O O7 0.500000 0.500000 0.000000
O O8 0.552340 0.553589 0.919957
O O9 0.250000 0.394726 0.133855
O O10 0.029161 0.250000 0.138044
#
# Coordination Sequence:
#
# PCOD8318829 Si02
#       3
#    16  16  16
#     4   8  13  21  35  57  81 102 130 170 208 241
#     4   9  18  31  46  66  90 115 147 185 221 260
#     4   8  14  25  40  58  82 111 140 170 206 250
#
# _framework density 16.149633999999999
#
# number of rings (size 3 to 8) (size 9 to 14) (size 15 to 20)
#    0.000    3.667    0.000    3.000    0.000    2.000 
#    0.000    3.333    0.000    2.000    0.000    4.667 
#    0.000    0.000    0.000    0.000    0.000    0.000 
#
# Total GULP energy -594792.703642 kJ/mol
# GULP energy per Si atom -12391.514659 kJ/mol
# Density = 1.611288 g / cm^3
# Si number density = 16.149634 Si / 1000 Ang^3
#
#
#
# Elastic Constant Matrix: (Units=GPa)
#
#
# Indices 1 2 3 4 5 6 
#
# 1 61.2902 40.2712 70.9942 0.0000 0.0000 0.0000
# 2 40.2712 61.2902 70.9942 0.0000 0.0000 0.0000
# 3 70.9942 70.9942 162.8795 0.0000 0.0000 0.0000
# 4 0.0000 0.0000 0.0000 25.5222 0.0000 0.0000
# 5 0.0000 0.0000 0.0000 0.0000 25.5222 0.0000
# 6 0.0000 0.0000 0.0000 0.0000 0.0000 17.9421
#
#
#
# Elastic Compliance Matrix: (Units=1/GPa)
#
#
# Indices 1 2 3 4 5 6 
#
# 1 0.036391 -0.011185 -0.010987 0.000000 0.000000 0.000000
# 2 -0.011185 0.036391 -0.010987 0.000000 0.000000 0.000000
# 3 -0.010987 -0.010987 0.015717 0.000000 0.000000 0.000000
# 4 0.000000 0.000000 0.000000 0.039182 0.000000 0.000000
# 5 0.000000 0.000000 0.000000 0.000000 0.039182 0.000000
# 6 0.000000 0.000000 0.000000 0.000000 0.000000 0.055735
#
#
# Mechanical properties :
#
#
# Convention : Reuss Voigt Hill
#
# Bulk Modulus (GPa) = 45.07989 72.21990 58.64990
# Shear Modulus (GPa) = 16.87436 20.67731 18.77583
#
# Velocity S-wave (km/s) = 3.23596 3.58209 3.41342
# Velocity P-wave (km/s) = 6.47583 7.86923 7.20629
#
# Compressibility (1/GPa) = 0.02218284
#
# Stress axis : x y z
#
# Youngs Moduli (GPa) = 27.47930 27.47930 63.62570
#
# Poissons Ratio (x) = 0.30735 0.69903
# Poissons Ratio (y) = 0.30735 0.69903
# Poissons Ratio (z) = 0.30190 0.30190
#
# Static dielectric constant tensor:
#      x y z
#    x 3.061720 0.000000 0.000000 
#    y 0.000000 3.061720 0.000000 
#    z 0.000000 0.000000 3.332230 
# 
# 
# High freq. dielectric constant tensor:
#      x y z
#    x 1.585690 0.000000 0.000000 
#    y 0.000000 1.585690 0.000000 
#    z 0.000000 0.000000 1.633640 
# 
# From -- ./inp_files/7066.got.cif
#   From: 2010.03.12/outbox.cif.g09.slc.cpg/sg137_4_cif.got.tgz:7066.got - 2010.04.08 09:34:49.
