data_PCOD8318345
_publ_section_title
;
Structure prediction by ZEFSAII (Michael W. Deem and Ramdas Pophale) SiO2 
 PCOD8318345
Probable space group: P 42/M N M
;
_chemical_formula_sum "Si O2"
_cell_formula_units_Z 72
_cell_length_a 21.976347
_cell_length_b 21.976347
_cell_length_c 9.807828
_cell_angle_alpha 90.000000
_cell_angle_beta 90.000000
_cell_angle_gamma 90.000000
_cell_volume 4736.786919
_symmetry_space_group_name_H-M "P 42/M N M"
_symmetry_group_IT_number 136
_symmetry_cell_setting 'tetragonal'
loop_
_space_group_symop_operation_xyz
x,y,z
1/2-y,1/2+x,1/2+z
-x,-y,z
1/2+y,1/2-x,1/2+z
1/2+x,1/2-y,1/2-z
1/2-x,1/2+y,1/2-z
y,x,-z
-y,-x,-z
-x,-y,-z
1/2+y,1/2-x,1/2-z
x,y,-z
1/2-y,1/2+x,1/2-z
1/2-x,1/2+y,1/2+z
1/2+x,1/2-y,1/2+z
-y,-x,z
y,x,z
loop_
_atom_site_type_symbol
_atom_site_label
_atom_site_fract_x
_atom_site_fract_y
_atom_site_fract_z
Si Si1 0.997563 0.100006 0.500000
Si Si2 0.130784 0.602121 0.658712
Si Si3 0.164912 0.493607 0.157692
Si Si4 0.642988 0.262054 0.344123
Si Si5 0.793232 0.958795 0.350794
O O1 0.050981 0.050981 0.500000
O O2 0.003385 0.143297 0.635002
O O3 0.931953 0.068048 0.500000
O O4 0.130062 0.583333 0.500000
O O5 0.128540 0.541339 0.748988
O O6 0.190937 0.641553 0.695628
O O7 0.073763 0.643757 0.697931
O O8 0.237137 0.497022 0.189145
O O9 0.149940 0.507652 0.000000
O O10 0.623593 0.270931 0.500000
O O11 0.710310 0.289691 0.317157
O O12 0.594542 0.300776 0.257861
O O13 0.778982 0.929218 0.500000
#
# Coordination Sequence:
#
# PCOD8318345 Si02
#       5
#     8  16  16  16  16
#     4   9  16  26  44  70  92 111 142 178 214 261
#     4   9  18  30  45  62  87 116 144 183 221 261
#     4   9  17  31  45  62  87 115 148 183 218 262
#     4   9  16  27  44  66  87 110 144 181 221 260
#     4   8  16  28  45  63  86 116 143 176 219 258
#
# _framework density 15.200177
#
# number of rings (size 3 to 8) (size 9 to 14) (size 15 to 20)
#    0.667    2.556    0.000    0.667    0.000    1.333 
#    0.000    3.333    0.000    0.667    0.000    3.111 
#    0.000    5.333    0.000    0.000    0.000    0.000 
#
# Total GULP energy -892141.526962 kJ/mol
# GULP energy per Si atom -12390.854541 kJ/mol
# Density = 1.516558 g / cm^3
# Si number density = 15.200177 Si / 1000 Ang^3
#
#
#
# Elastic Constant Matrix: (Units=GPa)
#
#
# Indices 1 2 3 4 5 6 
#
# 1 100.1009 65.5267 39.4726 0.0000 0.0000 0.0000
# 2 65.5267 100.0998 39.4725 0.0000 0.0000 0.0000
# 3 39.4726 39.4725 46.3469 0.0000 0.0000 0.0000
# 4 0.0000 0.0000 0.0000 21.3207 0.0000 0.0000
# 5 0.0000 0.0000 0.0000 0.0000 21.3207 0.0000
# 6 0.0000 0.0000 0.0000 0.0000 0.0000 27.8688
#
#
#
# Elastic Compliance Matrix: (Units=1/GPa)
#
#
# Indices 1 2 3 4 5 6 
#
# 1 0.019543 -0.009380 -0.008656 0.000000 0.000000 0.000000
# 2 -0.009380 0.019544 -0.008656 0.000000 0.000000 0.000000
# 3 -0.008656 -0.008656 0.036321 0.000000 0.000000 0.000000
# 4 0.000000 0.000000 0.000000 0.046903 0.000000 0.000000
# 5 0.000000 0.000000 0.000000 0.000000 0.046903 0.000000
# 6 0.000000 0.000000 0.000000 0.000000 0.000000 0.035882
#
#
# Mechanical properties :
#
#
# Convention : Reuss Voigt Hill
#
# Bulk Modulus (GPa) = 45.40579 59.49903 52.45241
# Shear Modulus (GPa) = 18.80962 20.90709 19.85835
#
# Velocity S-wave (km/s) = 3.52157 3.71273 3.61841
# Velocity P-wave (km/s) = 6.81704 7.58998 7.21387
#
# Compressibility (1/GPa) = 0.02202362
#
# Stress axis : x y z
#
# Youngs Moduli (GPa) = 51.16792 51.16721 27.53251
#
# Poissons Ratio (x) = 0.47996 0.23832
# Poissons Ratio (y) = 0.47996 0.23832
# Poissons Ratio (z) = 0.44291 0.44291
#
# Static dielectric constant tensor:
#      x y z
#    x 2.908380 0.000000 0.000000 
#    y 0.000000 2.908380 0.000000 
#    z 0.000000 0.000000 2.896300 
# 
# 
# High freq. dielectric constant tensor:
#      x y z
#    x 1.573100 0.000000 0.000000 
#    y 0.000000 1.573100 0.000000 
#    z 0.000000 0.000000 1.574690 
# 
# From -- ./inp_files/3646.got.cif
#   From: 2010.03.12/outbox.cif.g09.slc.cpg/sg136_2_cif.got.tgz:3646.got - 2010.04.06 18:39:43.
