data_PCOD8318842
_publ_section_title
;
Structure prediction by ZEFSAII (Michael W. Deem and Ramdas Pophale) SiO2 
 PCOD8318842
Probable space group: P 42/N C M
;
_chemical_formula_sum "Si O2"
_cell_formula_units_Z 128
_cell_length_a 24.871001
_cell_length_b 24.871001
_cell_length_c 12.098059
_cell_angle_alpha 90.000000
_cell_angle_beta 90.000000
_cell_angle_gamma 90.000000
_cell_volume 7483.456320
_symmetry_space_group_name_H-M "P 42/N C M"
_symmetry_group_IT_number 138
_space_group.IT_coordinate_system_code '2'
_symmetry_cell_setting 'tetragonal'
loop_
_space_group_symop_operation_xyz
x,y,z
1/2-y,x,1/2+z
1/2-x,1/2-y,z
y,1/2-x,1/2+z
1/2+x,-y,1/2-z
-x,1/2+y,1/2-z
1/2+y,1/2+x,-z
-y,-x,-z
-x,-y,-z
1/2+y,-x,1/2-z
1/2+x,1/2+y,-z
-y,1/2+x,1/2-z
1/2-x,y,1/2+z
x,1/2-y,1/2+z
1/2-y,1/2-x,z
y,x,z
loop_
_atom_site_type_symbol
_atom_site_label
_atom_site_fract_x
_atom_site_fract_y
_atom_site_fract_z
Si Si1 0.061695 0.761313 0.550882
Si Si2 0.207095 0.846831 0.597141
Si Si3 0.751452 0.836355 0.951703
Si Si4 0.057749 0.249650 0.413344
Si Si5 0.308907 0.108218 0.720700
Si Si6 0.435280 0.853225 0.452655
Si Si7 0.378975 0.696896 0.757229
Si Si8 0.945527 0.859374 0.994072
O O1 0.094872 0.797830 0.463056
O O2 0.072723 0.699241 0.526881
O O3 0.082745 0.769553 0.675373
O O4 0.998099 0.773966 0.536820
O O5 0.198999 0.801002 0.500000
O O6 0.161216 0.841044 0.689075
O O7 0.264398 0.843771 0.660899
O O8 0.699503 0.800498 0.955907
O O9 0.803813 0.803813 0.000674
O O10 0.763612 0.850459 0.823635
O O11 0.735056 0.889634 0.017540
O O12 0.064455 0.220021 0.296490
O O13 0.053189 0.314913 0.406854
O O14 0.357722 0.142279 0.778105
O O15 0.330672 0.079317 0.611928
O O16 0.398701 0.898701 0.500000
O O17 0.418818 0.840937 0.326560
O O18 0.495115 0.877207 0.459459
O O19 0.911107 0.911107 0.031775
#
# Coordination Sequence:
#
# PCOD8318842 Si02
#       8
#    16  16  16  16  16  16  16  16
#     4   9  19  32  48  71  95 121 155 191 229 274
#     4   9  19  33  49  71  96 123 153 183 226 280
#     4   9  18  30  43  66 100 130 157 193 235 280
#     4  10  17  29  49  69  91 123 159 192 230 274
#     4   9  17  29  46  68  92 120 155 189 226 276
#     4  10  19  31  49  70  90 118 155 190 226 271
#     4  10  18  33  51  69  97 124 149 188 230 272
#     4   9  19  33  46  66  94 119 150 193 232 267
#
# _framework density 17.104396000000001
#
# number of rings (size 3 to 8) (size 9 to 14) (size 15 to 20)
#    0.000    2.625    0.000    3.000    0.000    2.500 
#    0.000    5.625    0.000    0.000    0.000    1.750 
#    0.000    9.500    0.000    0.000    0.000    0.875 
#
# Total GULP energy -1585865.249970 kJ/mol
# GULP energy per Si atom -12389.572265 kJ/mol
# Density = 1.706547 g / cm^3
# Si number density = 17.104396 Si / 1000 Ang^3
#
#
#
# Elastic Constant Matrix: (Units=GPa)
#
#
# Indices 1 2 3 4 5 6 
#
# 1 83.5633 57.1458 33.6171 0.0000 0.0000 0.0000
# 2 57.1458 83.5643 33.6166 0.0000 0.0000 0.0000
# 3 33.6171 33.6166 65.6301 0.0000 0.0000 0.0000
# 4 0.0000 0.0000 0.0000 21.2241 0.0000 0.0000
# 5 0.0000 0.0000 0.0000 0.0000 21.2239 0.0000
# 6 0.0000 0.0000 0.0000 0.0000 0.0000 23.8676
#
#
#
# Elastic Compliance Matrix: (Units=1/GPa)
#
#
# Indices 1 2 3 4 5 6 
#
# 1 0.023632 -0.014222 -0.004820 0.000000 0.000000 0.000000
# 2 -0.014222 0.023631 -0.004820 0.000000 0.000000 0.000000
# 3 -0.004820 -0.004820 0.020175 0.000000 0.000000 0.000000
# 4 0.000000 0.000000 0.000000 0.047116 0.000000 0.000000
# 5 0.000000 0.000000 0.000000 0.000000 0.047117 0.000000
# 6 0.000000 0.000000 0.000000 0.000000 0.000000 0.041898
#
#
# Mechanical properties :
#
#
# Convention : Reuss Voigt Hill
#
# Bulk Modulus (GPa) = 50.72349 53.50187 52.11268
# Shear Modulus (GPa) = 19.39017 20.48832 19.93925
#
# Velocity S-wave (km/s) = 3.37060 3.46474 3.41799
# Velocity P-wave (km/s) = 6.69833 6.88138 6.79047
#
# Compressibility (1/GPa) = 0.01971473
#
# Stress axis : x y z
#
# Youngs Moduli (GPa) = 42.31602 42.31699 49.56734
#
# Poissons Ratio (x) = 0.60181 0.23892
# Poissons Ratio (y) = 0.60180 0.23890
# Poissons Ratio (z) = 0.20397 0.20395
#
# Static dielectric constant tensor:
#      x y z
#    x 3.339810 0.000000 0.000000 
#    y 0.000000 3.339810 0.000000 
#    z 0.000000 0.000000 3.310470 
# 
# 
# High freq. dielectric constant tensor:
#      x y z
#    x 1.653990 0.000000 0.000000 
#    y 0.000000 1.653990 0.000000 
#    z 0.000000 0.000000 1.650050 
# 
# From -- ./inp_files/3349.got.cif
#   From: 2010.03.12/outbox.cif.g09.slc.cpg/sg138_2_cif.got.tgz:3349.got - 2010.04.08 09:41:05.
