data_PCOD8318381
_publ_section_title
;
Structure prediction by ZEFSAII (Michael W. Deem and Ramdas Pophale) SiO2 
 PCOD8318381
Probable space group: P 42/N M C
;
_chemical_formula_sum "Si O2"
_cell_formula_units_Z 80
_cell_length_a 31.592927
_cell_length_b 31.592927
_cell_length_c 5.193542
_cell_angle_alpha 90.000000
_cell_angle_beta 90.000000
_cell_angle_gamma 90.000000
_cell_volume 5183.741975
_symmetry_space_group_name_H-M "P 42/N M C"
_symmetry_group_IT_number 137
_space_group.IT_coordinate_system_code '2'
_symmetry_cell_setting 'tetragonal'
loop_
_space_group_symop_operation_xyz
x,y,z
1/2-y,x,1/2+z
1/2-x,1/2-y,z
y,1/2-x,1/2+z
1/2+x,-y,-z
-x,1/2+y,-z
1/2+y,1/2+x,1/2-z
-y,-x,1/2-z
-x,-y,-z
1/2+y,-x,1/2-z
1/2+x,1/2+y,-z
-y,1/2+x,1/2-z
1/2-x,y,z
x,1/2-y,z
1/2-y,1/2-x,1/2+z
y,x,1/2+z
loop_
_atom_site_type_symbol
_atom_site_label
_atom_site_fract_x
_atom_site_fract_y
_atom_site_fract_z
Si Si1 0.908614 0.156551 0.215328
Si Si2 0.008289 0.347878 0.223458
Si Si3 0.202980 0.909270 0.215375
Si Si4 0.798425 0.510199 0.777304
Si Si5 0.947208 0.985623 0.225806
O O1 0.890702 0.109299 0.250000
O O2 0.891588 0.185677 0.446549
O O3 0.958369 0.155365 0.222960
O O4 0.891374 0.174958 0.947795
O O5 0.027186 0.323423 0.471340
O O6 0.018660 0.397410 0.225020
O O7 0.026936 0.324348 0.971556
O O8 0.250000 0.891846 0.252507
O O9 0.202552 0.959865 0.219954
O O10 0.750000 0.527632 0.773723
O O11 0.969893 0.956078 0.436553
O O12 0.966429 0.033572 0.250000
#
# Coordination Sequence:
#
# PCOD8318381 Si02
#       5
#    16  16  16  16  16
#     4  10  18  27  41  60  79  96 121 153 187 237
#     4  10  18  29  44  60  82 110 135 167 213 249
#     4   9  17  28  40  55  78 101 116 141 186 239
#     4   9  17  28  43  62  81 103 130 161 207 263
#     4  10  20  32  44  59  82 114 154 192 219 244
#
# _framework density 15.432866000000001
#
# number of rings (size 3 to 8) (size 9 to 14) (size 15 to 20)
#    0.000    2.400    0.000    3.600    0.000    4.800 
#    0.000    6.000    0.000    0.000    0.000    0.000 
#    0.000   28.000    0.000    0.000    0.000    0.000 
#
# Total GULP energy -991564.100695 kJ/mol
# GULP energy per Si atom -12394.551259 kJ/mol
# Density = 1.539774 g / cm^3
# Si number density = 15.432866 Si / 1000 Ang^3
#
#
#
# Elastic Constant Matrix: (Units=GPa)
#
#
# Indices 1 2 3 4 5 6 
#
# 1 13.8114 49.6141 19.4912 0.0000 0.0000 0.0000
# 2 49.6141 13.7988 19.4518 0.0000 0.0000 0.0000
# 3 19.4912 19.4518 110.5477 0.0000 0.0000 0.0000
# 4 0.0000 0.0000 0.0000 17.6817 0.0000 0.0000
# 5 0.0000 0.0000 0.0000 0.0000 17.6811 0.0000
# 6 0.0000 0.0000 0.0000 0.0000 0.0000 9.1413
#
#
#
# Elastic Compliance Matrix: (Units=1/GPa)
#
#
# Indices 1 2 3 4 5 6 
#
# 1 -0.005123 0.022803 -0.003109 0.000000 0.000000 0.000000
# 2 0.022803 -0.005122 -0.003119 0.000000 0.000000 0.000000
# 3 -0.003109 -0.003119 0.010143 0.000000 0.000000 0.000000
# 4 0.000000 0.000000 0.000000 0.056556 0.000000 0.000000
# 5 0.000000 0.000000 0.000000 0.000000 0.056558 0.000000
# 6 0.000000 0.000000 0.000000 0.000000 0.000000 0.109394
#
#
# Mechanical properties :
#
#
# Convention : Reuss Voigt Hill
#
# Bulk Modulus (GPa) = 30.25995 35.03024 32.64509
# Shear Modulus (GPa) = 24.96623 12.20753 18.58688
#
# Velocity S-wave (km/s) = 4.02647 2.81554 3.47417
# Velocity P-wave (km/s) = 6.42391 5.77212 6.10672
#
# Compressibility (1/GPa) = 0.03304698
#
# Stress axis : x y z
#
# Youngs Moduli (GPa) = -195.19429 -195.21731 98.59112
#
# Poissons Ratio (x) = 4.45157 0.30653
# Poissons Ratio (y) = 4.45104 0.30752
# Poissons Ratio (z) = -0.60689 -0.60892
#
# Static dielectric constant tensor:
#      x y z
#    x 2.692890 0.000000 0.000000 
#    y 0.000000 2.692890 0.000000 
#    z 0.000000 0.000000 3.380080 
# 
# 
# High freq. dielectric constant tensor:
#      x y z
#    x 1.550580 0.000000 0.000000 
#    y 0.000000 1.550580 0.000000 
#    z 0.000000 0.000000 1.620660 
# 
# From -- ./inp_files/552.got.cif
#   From: 2010.03.12/outbox.cif.g09.slc.cpg/sg137_1_cif.got.tgz:552.got - 2010.04.08 09:34:49.
