data_PCOD8318236
_publ_section_title
;
Structure prediction by ZEFSAII (Michael W. Deem and Ramdas Pophale) SiO2 
 PCOD8318236
Probable space group: P 42/M N M
;
_chemical_formula_sum "Si O2"
_cell_formula_units_Z 104
_cell_length_a 14.115424
_cell_length_b 14.115424
_cell_length_c 25.181419
_cell_angle_alpha 90.000000
_cell_angle_beta 90.000000
_cell_angle_gamma 90.000000
_cell_volume 5017.276731
_symmetry_space_group_name_H-M "P 42/M N M"
_symmetry_group_IT_number 136
_symmetry_cell_setting 'tetragonal'
loop_
_space_group_symop_operation_xyz
x,y,z
1/2-y,1/2+x,1/2+z
-x,-y,z
1/2+y,1/2-x,1/2+z
1/2+x,1/2-y,1/2-z
1/2-x,1/2+y,1/2-z
y,x,-z
-y,-x,-z
-x,-y,-z
1/2+y,1/2-x,1/2-z
x,y,-z
1/2-y,1/2+x,1/2-z
1/2-x,1/2+y,1/2+z
1/2+x,1/2-y,1/2+z
-y,-x,z
y,x,z
loop_
_atom_site_type_symbol
_atom_site_label
_atom_site_fract_x
_atom_site_fract_y
_atom_site_fract_z
Si Si1 0.761246 0.082965 0.660481
Si Si2 0.641855 0.059913 0.758598
Si Si3 0.997545 0.157486 0.500000
Si Si4 0.239447 0.084634 0.400908
Si Si5 0.186594 0.032168 0.059571
Si Si6 0.683539 0.159120 0.558457
Si Si7 0.380430 0.229051 0.366038
O O1 0.855965 0.144036 0.654805
O O2 0.712454 0.106811 0.716024
O O3 0.686419 0.095109 0.611418
O O4 0.784620 0.970807 0.654294
O O5 0.546860 0.121476 0.759589
O O6 0.692162 0.060438 0.815645
O O7 0.076881 0.076881 0.500000
O O8 0.007803 0.226247 0.551405
O O9 0.893849 0.106152 0.500000
O O10 0.163805 0.163805 0.411980
O O11 0.342154 0.136782 0.398700
O O12 0.101108 0.101108 0.079558
O O13 0.287325 0.083967 0.058585
O O14 0.200341 0.943677 0.098546
O O15 0.162423 0.996417 0.000000
O O16 0.695950 0.107714 0.500000
O O17 0.764473 0.235528 0.565530
O O18 0.289831 0.289831 0.346145
#
# Coordination Sequence:
#
# PCOD8318236 Si02
#       7
#    16  16   8  16  16  16  16
#     4  11  21  36  61  87 114 155 203 248 301 365
#     4  11  23  42  63  85 115 153 202 256 310 370
#     4   9  18  34  56  82 118 163 203 241 296 367
#     4  10  22  38  56  85 125 164 200 245 300 360
#     4   9  19  38  63  91 124 160 199 247 305 368
#     4   8  16  32  55  86 119 149 188 242 297 351
#     4  11  23  40  61  87 123 161 204 256 308 366
#
# _framework density 20.728376000000001
#
# number of rings (size 3 to 8) (size 9 to 14) (size 15 to 20)
#    0.000    2.077    1.538    2.769    2.154    1.538 
#    0.000    2.308    0.000    3.692    0.000    0.000 
#    0.000    0.000    0.000    0.000    0.000    0.000 
#
# Total GULP energy -1288876.656391 kJ/mol
# GULP energy per Si atom -12393.044773 kJ/mol
# Density = 2.068120 g / cm^3
# Si number density = 20.728376 Si / 1000 Ang^3
#
#
#
# Elastic Constant Matrix: (Units=GPa)
#
#
# Indices 1 2 3 4 5 6 
#
# 1 74.9712 29.3046 43.8448 0.0000 0.0000 0.0000
# 2 29.3046 74.9712 43.8447 0.0000 0.0000 0.0000
# 3 43.8448 43.8447 120.4135 0.0000 0.0000 0.0000
# 4 0.0000 0.0000 0.0000 33.5766 0.0000 0.0000
# 5 0.0000 0.0000 0.0000 0.0000 33.5767 0.0000
# 6 0.0000 0.0000 0.0000 0.0000 0.0000 31.6735
#
#
#
# Elastic Compliance Matrix: (Units=1/GPa)
#
#
# Indices 1 2 3 4 5 6 
#
# 1 0.017860 -0.004038 -0.005033 0.000000 0.000000 0.000000
# 2 -0.004038 0.017860 -0.005033 0.000000 0.000000 0.000000
# 3 -0.005033 -0.005033 0.011970 0.000000 0.000000 0.000000
# 4 0.000000 0.000000 0.000000 0.029783 0.000000 0.000000
# 5 0.000000 0.000000 0.000000 0.000000 0.029783 0.000000
# 6 0.000000 0.000000 0.000000 0.000000 0.000000 0.031572
#
#
# Mechanical properties :
#
#
# Convention : Reuss Voigt Hill
#
# Bulk Modulus (GPa) = 51.32743 56.03823 53.68283
# Shear Modulus (GPa) = 28.81360 29.98948 29.40154
#
# Velocity S-wave (km/s) = 3.73239 3.80779 3.77028
# Velocity P-wave (km/s) = 6.58711 6.81363 6.70133
#
# Compressibility (1/GPa) = 0.01948276
#
# Stress axis : x y z
#
# Youngs Moduli (GPa) = 55.99063 55.99069 83.54267
#
# Poissons Ratio (x) = 0.22607 0.42047
# Poissons Ratio (y) = 0.22607 0.42047
# Poissons Ratio (z) = 0.28180 0.28180
#
# Static dielectric constant tensor:
#      x y z
#    x 3.767600 0.000000 0.000000 
#    y 0.000000 3.767600 0.000000 
#    z 0.000000 0.000000 3.785370 
# 
# 
# High freq. dielectric constant tensor:
#      x y z
#    x 1.809090 0.000000 0.000000 
#    y 0.000000 1.809090 0.000000 
#    z 0.000000 0.000000 1.806710 
# 
# From -- ./inp_files/8491.got.cif
#   From: 2010.03.12/outbox.cif.g09.slc.cpg/sg136_5_cif.got.tgz:8491.got - 2010.04.06 18:39:43.
