data_PCOD8318011
_publ_section_title
;
Structure prediction by ZEFSAII (Michael W. Deem and Ramdas Pophale) SiO2 
 PCOD8318011
Probable space group: P 42/M N M
;
_chemical_formula_sum "Si O2"
_cell_formula_units_Z 72
_cell_length_a 22.707855
_cell_length_b 22.707855
_cell_length_c 8.905114
_cell_angle_alpha 90.000000
_cell_angle_beta 90.000000
_cell_angle_gamma 90.000000
_cell_volume 4591.892458
_symmetry_space_group_name_H-M "P 42/M N M"
_symmetry_group_IT_number 136
_symmetry_cell_setting 'tetragonal'
loop_
_space_group_symop_operation_xyz
x,y,z
1/2-y,1/2+x,1/2+z
-x,-y,z
1/2+y,1/2-x,1/2+z
1/2+x,1/2-y,1/2-z
1/2-x,1/2+y,1/2-z
y,x,-z
-y,-x,-z
-x,-y,-z
1/2+y,1/2-x,1/2-z
x,y,-z
1/2-y,1/2+x,1/2-z
1/2-x,1/2+y,1/2+z
1/2+x,1/2-y,1/2+z
-y,-x,z
y,x,z
loop_
_atom_site_type_symbol
_atom_site_label
_atom_site_fract_x
_atom_site_fract_y
_atom_site_fract_z
Si Si1 0.104127 0.797849 0.827382
Si Si2 0.220838 0.124701 0.176524
Si Si3 0.284456 0.814209 0.666125
Si Si4 0.484724 0.670233 0.176889
Si Si5 0.450819 0.549182 0.327909
O O1 0.147410 0.852591 0.799244
O O2 0.135938 0.736621 0.782216
O O3 0.047955 0.805252 0.722953
O O4 0.084663 0.794073 0.000000
O O5 0.165888 0.165888 0.222529
O O6 0.283149 0.155081 0.220912
O O7 0.216452 0.064358 0.268430
O O8 0.219216 0.111507 0.000000
O O9 0.292703 0.842190 0.500000
O O10 0.236913 0.763088 0.654584
O O11 0.474897 0.607245 0.250785
O O12 0.481630 0.663105 0.000000
O O13 0.500000 0.500000 0.314170
O O14 0.435913 0.564088 0.500000
#
# Coordination Sequence:
#
# PCOD8318011 Si02
#       5
#    16  16  16  16   8
#     4  10  20  33  48  66  90 124 159 194 236 280
#     4   9  17  31  50  68  91 122 152 188 236 286
#     4   8  15  29  49  70  89 114 148 188 235 282
#     4  12  23  32  46  68  93 122 159 201 235 274
#     4  11  23  37  49  61  85 125 167 203 239 280
#
# _framework density 15.679811000000001
#
# number of rings (size 3 to 8) (size 9 to 14) (size 15 to 20)
#    0.000    2.111    1.111    5.000    0.000    5.778 
#    0.000    2.222    0.000    0.000    0.000    0.000 
#    0.000    0.889    0.000    9.333    0.000    4.000 
#
# Total GULP energy -892753.811994 kJ/mol
# GULP energy per Si atom -12399.358500 kJ/mol
# Density = 1.564412 g / cm^3
# Si number density = 15.679811 Si / 1000 Ang^3
#
#
#
# Elastic Constant Matrix: (Units=GPa)
#
#
# Indices 1 2 3 4 5 6 
#
# 1 61.0604 62.3428 47.2831 0.0000 0.0000 0.0000
# 2 62.3428 61.0595 47.2838 0.0000 0.0000 0.0000
# 3 47.2831 47.2838 100.0012 0.0000 0.0000 0.0000
# 4 0.0000 0.0000 0.0000 19.4496 0.0000 0.0000
# 5 0.0000 0.0000 0.0000 0.0000 19.4501 0.0000
# 6 0.0000 0.0000 0.0000 0.0000 0.0000 21.9129
#
#
#
# Elastic Compliance Matrix: (Units=1/GPa)
#
#
# Indices 1 2 3 4 5 6 
#
# 1 -0.383382 0.396098 -0.006015 0.000000 0.000000 0.000000
# 2 0.396098 -0.383398 -0.006002 0.000000 0.000000 0.000000
# 3 -0.006015 -0.006002 0.015682 0.000000 0.000000 0.000000
# 4 0.000000 0.000000 0.000000 0.051415 0.000000 0.000000
# 5 0.000000 0.000000 0.000000 0.000000 0.051414 0.000000
# 6 0.000000 0.000000 0.000000 0.000000 0.000000 0.045635
#
#
# Mechanical properties :
#
#
# Convention : Reuss Voigt Hill
#
# Bulk Modulus (GPa) = 58.60501 59.54895 59.07698
# Shear Modulus (GPa) = -3.66271 16.50995 6.42362
#
# Velocity S-wave (km/s) = -1.53004 3.24843 2.02624
# Velocity P-wave (km/s) = 5.85968 7.22013 6.57519
#
# Compressibility (1/GPa) = 0.01706339
#
# Stress axis : x y z
#
# Youngs Moduli (GPa) = -2.60836 -2.60826 63.76669
#
# Poissons Ratio (x) = 1.03313 0.38358
# Poissons Ratio (y) = 1.03317 0.38275
# Poissons Ratio (z) = -0.01569 -0.01566
#
# Static dielectric constant tensor:
#      x y z
#    x 3.550390 0.000000 0.000000 
#    y 0.000000 3.550450 0.000000 
#    z 0.000000 0.000000 3.055250 
# 
# 
# High freq. dielectric constant tensor:
#      x y z
#    x 1.581860 0.000000 0.000000 
#    y 0.000000 1.581860 0.000000 
#    z 0.000000 0.000000 1.610250 
# 
# From -- ./inp_files/1568.got.cif
#   From: 2010.03.12/outbox.cif.g09.slc.cpg/sg136_1_cif.got.tgz:1568.got - 2010.04.06 18:39:43.
