data_PCOD8318024
_publ_section_title
;
Structure prediction by ZEFSAII (Michael W. Deem and Ramdas Pophale) SiO2 
 PCOD8318024
Probable space group: P 42/M N M
;
_chemical_formula_sum "Si O2"
_cell_formula_units_Z 96
_cell_length_a 23.162803
_cell_length_b 23.162803
_cell_length_c 8.681804
_cell_angle_alpha 90.000000
_cell_angle_beta 90.000000
_cell_angle_gamma 90.000000
_cell_volume 4657.921918
_symmetry_space_group_name_H-M "P 42/M N M"
_symmetry_group_IT_number 136
_symmetry_cell_setting 'tetragonal'
loop_
_space_group_symop_operation_xyz
x,y,z
1/2-y,1/2+x,1/2+z
-x,-y,z
1/2+y,1/2-x,1/2+z
1/2+x,1/2-y,1/2-z
1/2-x,1/2+y,1/2-z
y,x,-z
-y,-x,-z
-x,-y,-z
1/2+y,1/2-x,1/2-z
x,y,-z
1/2-y,1/2+x,1/2-z
1/2-x,1/2+y,1/2+z
1/2+x,1/2-y,1/2+z
-y,-x,z
y,x,z
loop_
_atom_site_type_symbol
_atom_site_label
_atom_site_fract_x
_atom_site_fract_y
_atom_site_fract_z
Si Si1 0.962820 0.871817 0.320864
Si Si2 0.383532 0.712647 0.669325
Si Si3 0.828935 0.082449 0.681313
Si Si4 0.914897 0.298060 0.320265
Si Si5 0.301470 0.793355 0.177084
Si Si6 0.584257 0.027336 0.684732
O O1 0.950362 0.862497 0.500000
O O2 0.930475 0.930475 0.264297
O O3 0.941911 0.814429 0.234254
O O4 0.030760 0.874182 0.284700
O O5 0.394304 0.740041 0.500000
O O6 0.338038 0.661963 0.655632
O O7 0.360790 0.759657 0.790057
O O8 0.820751 0.090691 0.500000
O O9 0.859220 0.140781 0.749405
O O10 0.765189 0.069163 0.752159
O O11 0.926459 0.298020 0.500000
O O12 0.847532 0.304708 0.288231
O O13 0.951856 0.352316 0.254245
O O14 0.246135 0.753866 0.219258
O O15 0.299945 0.812651 0.000000
O O16 0.580357 0.026431 0.500000
O O17 0.536482 0.072161 0.749143
#
# Coordination Sequence:
#
# PCOD8318024 Si02
#       6
#    16  16  16  16  16  16
#     4   9  17  30  50  77 107 139 181 232 278 317
#     4   9  17  30  49  73 102 137 176 218 266 320
#     4   9  18  33  53  77 107 144 184 226 271 319
#     4  10  21  36  55  79 106 140 181 220 265 325
#     4  10  20  33  51  77 109 144 182 226 276 325
#     4  10  21  38  60  85 112 143 179 221 272 328
#
# _framework density 20.610049
#
# number of rings (size 3 to 8) (size 9 to 14) (size 15 to 20)
#    0.000    2.500    0.000    2.500    0.000    6.667 
#    0.000    4.167    0.000    1.500    0.000    2.333 
#    0.000    0.000    0.000    0.000    0.000    0.000 
#
# Total GULP energy -1189454.339485 kJ/mol
# GULP energy per Si atom -12390.149370 kJ/mol
# Density = 2.056314 g / cm^3
# Si number density = 20.610049 Si / 1000 Ang^3
#
#
#
# Elastic Constant Matrix: (Units=GPa)
#
#
# Indices 1 2 3 4 5 6 
#
# 1 124.7550 73.7043 16.4949 0.0000 0.0000 0.0000
# 2 73.7043 124.7550 16.4949 0.0000 0.0000 0.0000
# 3 16.4949 16.4949 33.2716 0.0000 0.0000 0.0000
# 4 0.0000 0.0000 0.0000 20.2799 0.0000 0.0000
# 5 0.0000 0.0000 0.0000 0.0000 20.2799 0.0000
# 6 0.0000 0.0000 0.0000 0.0000 0.0000 31.6405
#
#
#
# Elastic Compliance Matrix: (Units=1/GPa)
#
#
# Indices 1 2 3 4 5 6 
#
# 1 0.012540 -0.007048 -0.002722 0.000000 0.000000 0.000000
# 2 -0.007048 0.012540 -0.002722 0.000000 0.000000 0.000000
# 3 -0.002722 -0.002722 0.032755 0.000000 0.000000 0.000000
# 4 0.000000 0.000000 0.000000 0.049310 0.000000 0.000000
# 5 0.000000 0.000000 0.000000 0.000000 0.049310 0.000000
# 6 0.000000 0.000000 0.000000 0.000000 0.000000 0.031605
#
#
# Mechanical properties :
#
#
# Convention : Reuss Voigt Hill
#
# Bulk Modulus (GPa) = 30.44317 55.12996 42.78657
# Shear Modulus (GPa) = 22.32186 26.17924 24.25055
#
# Velocity S-wave (km/s) = 3.29455 3.56788 3.43394
# Velocity P-wave (km/s) = 5.41066 6.61666 6.04381
#
# Compressibility (1/GPa) = 0.03284809
#
# Stress axis : x y z
#
# Youngs Moduli (GPa) = 79.74577 79.74577 30.52964
#
# Poissons Ratio (x) = 0.56209 0.08311
# Poissons Ratio (y) = 0.56209 0.08311
# Poissons Ratio (z) = 0.21710 0.21710
#
# Static dielectric constant tensor:
#      x y z
#    x 3.885410 0.000000 0.000000 
#    y 0.000000 3.885410 0.000000 
#    z 0.000000 0.000000 3.612120 
# 
# 
# High freq. dielectric constant tensor:
#      x y z
#    x 1.803250 0.000000 0.000000 
#    y 0.000000 1.803250 0.000000 
#    z 0.000000 0.000000 1.778890 
# 
# From -- ./inp_files/1927.got.cif
#   From: 2010.03.12/outbox.cif.g09.slc.cpg/sg136_1_cif.got.tgz:1927.got - 2010.04.06 18:39:43.
