data_PCOD8318867
_publ_section_title
;
Structure prediction by ZEFSAII (Michael W. Deem and Ramdas Pophale) SiO2 
 PCOD8318867
Probable space group: P 42/N C M
;
_chemical_formula_sum "Si O2"
_cell_formula_units_Z 112
_cell_length_a 16.560985
_cell_length_b 16.560985
_cell_length_c 23.483330
_cell_angle_alpha 90.000000
_cell_angle_beta 90.000000
_cell_angle_gamma 90.000000
_cell_volume 6440.684250
_symmetry_space_group_name_H-M "P 42/N C M"
_symmetry_group_IT_number 138
_space_group.IT_coordinate_system_code '2'
_symmetry_cell_setting 'tetragonal'
loop_
_space_group_symop_operation_xyz
x,y,z
1/2-y,x,1/2+z
1/2-x,1/2-y,z
y,1/2-x,1/2+z
1/2+x,-y,1/2-z
-x,1/2+y,1/2-z
1/2+y,1/2+x,-z
-y,-x,-z
-x,-y,-z
1/2+y,-x,1/2-z
1/2+x,1/2+y,-z
-y,1/2+x,1/2-z
1/2-x,y,1/2+z
x,1/2-y,1/2+z
1/2-y,1/2-x,z
y,x,z
loop_
_atom_site_type_symbol
_atom_site_label
_atom_site_fract_x
_atom_site_fract_y
_atom_site_fract_z
Si Si1 0.345258 0.475119 0.965545
Si Si2 0.250034 0.378699 0.380511
Si Si3 0.081037 0.554068 0.242156
Si Si4 0.823808 0.956165 0.909899
Si Si5 0.805190 0.559352 0.820181
Si Si6 0.955064 0.820027 0.722173
Si Si7 0.078870 0.947862 0.866768
O O1 0.430241 0.430241 0.975713
O O2 0.277445 0.417230 0.939554
O O3 0.360018 0.549977 0.921278
O O4 0.314027 0.499440 0.028264
O O5 0.181630 0.318371 0.356215
O O6 0.331983 0.331983 0.394693
O O7 0.263365 0.448283 0.333506
O O8 0.145244 0.522288 0.195688
O O9 0.122646 0.561154 0.305084
O O10 0.007057 0.492944 0.248108
O O11 0.044967 0.641254 0.223976
O O12 0.869193 0.869193 0.914516
O O13 0.734444 0.946459 0.882967
O O14 0.874773 0.015962 0.870148
O O15 0.863023 0.636978 0.817181
O O16 0.731482 0.568538 0.777063
O O17 0.889446 0.889446 0.717273
O O18 0.034258 0.034258 0.868328
#
# Coordination Sequence:
#
# PCOD8318867 Si02
#       7
#    16  16  16  16  16  16  16
#     4   9  17  28  45  69  98 132 167 200 241 290
#     4   9  17  28  44  69  97 124 159 200 242 297
#     4   9  18  31  48  70  99 131 164 206 249 295
#     4  10  19  30  45  70 102 132 161 200 248 302
#     4  11  21  31  47  73 102 132 164 201 255 315
#     4  10  18  31  49  70  98 130 165 205 253 303
#     4   9  15  28  47  68  94 126 168 207 239 285
#
# _framework density 17.389457
#
# number of rings (size 3 to 8) (size 9 to 14) (size 15 to 20)
#    0.000    2.429    1.429    2.143    0.000    6.286 
#    0.000    1.429    0.000    1.286    0.000    4.000 
#    0.000    2.571    0.000    0.000    0.000    0.000 
#
# Total GULP energy -1387932.541076 kJ/mol
# GULP energy per Si atom -12392.254831 kJ/mol
# Density = 1.734988 g / cm^3
# Si number density = 17.389457 Si / 1000 Ang^3
#
#
#
# Elastic Constant Matrix: (Units=GPa)
#
#
# Indices 1 2 3 4 5 6 
#
# 1 49.8235 33.3948 34.1743 0.0000 0.0000 0.0000
# 2 33.3948 49.8235 34.1743 0.0000 0.0000 0.0000
# 3 34.1743 34.1743 97.4755 0.0000 0.0000 0.0000
# 4 0.0000 0.0000 0.0000 22.6523 0.0000 0.0000
# 5 0.0000 0.0000 0.0000 0.0000 22.6523 0.0000
# 6 0.0000 0.0000 0.0000 0.0000 0.0000 20.4568
#
#
#
# Elastic Compliance Matrix: (Units=1/GPa)
#
#
# Indices 1 2 3 4 5 6 
#
# 1 0.038873 -0.021997 -0.005917 0.000000 0.000000 0.000000
# 2 -0.021997 0.038873 -0.005917 0.000000 0.000000 0.000000
# 3 -0.005917 -0.005917 0.014408 0.000000 0.000000 0.000000
# 4 0.000000 0.000000 0.000000 0.044146 0.000000 0.000000
# 5 0.000000 0.000000 0.000000 0.000000 0.044146 0.000000
# 6 0.000000 0.000000 0.000000 0.000000 0.000000 0.048884
#
#
# Mechanical properties :
#
#
# Convention : Reuss Voigt Hill
#
# Bulk Modulus (GPa) = 40.82768 44.51213 42.66990
# Shear Modulus (GPa) = 16.38531 19.51090 17.94810
#
# Velocity S-wave (km/s) = 3.07295 3.35325 3.21616
# Velocity P-wave (km/s) = 6.01000 6.37536 6.19537
#
# Compressibility (1/GPa) = 0.02449319
#
# Stress axis : x y z
#
# Youngs Moduli (GPa) = 25.72508 25.72508 69.40758
#
# Poissons Ratio (x) = 0.56586 0.41066
# Poissons Ratio (y) = 0.56586 0.41066
# Poissons Ratio (z) = 0.15221 0.15221
#
# Static dielectric constant tensor:
#      x y z
#    x 3.111200 0.000000 0.000000 
#    y 0.000000 3.111200 0.000000 
#    z 0.000000 0.000000 3.411680 
# 
# 
# High freq. dielectric constant tensor:
#      x y z
#    x 1.639640 0.000000 0.000000 
#    y 0.000000 1.639640 0.000000 
#    z 0.000000 0.000000 1.678380 
# 
# From -- ./inp_files/6475.got.cif
#   From: 2010.03.12/outbox.cif.g09.slc.cpg/sg138_4_cif.got.tgz:6475.got - 2010.04.08 09:41:05.
