data_PCOD8318421
_publ_section_title
;
Structure prediction by ZEFSAII (Michael W. Deem and Ramdas Pophale) SiO2 
 PCOD8318421
Probable space group: P 42/N M C
;
_chemical_formula_sum "Si O2"
_cell_formula_units_Z 96
_cell_length_a 23.927109
_cell_length_b 23.927109
_cell_length_c 10.460719
_cell_angle_alpha 90.000000
_cell_angle_beta 90.000000
_cell_angle_gamma 90.000000
_cell_volume 5988.830094
_symmetry_space_group_name_H-M "P 42/N M C"
_symmetry_group_IT_number 137
_space_group.IT_coordinate_system_code '2'
_symmetry_cell_setting 'tetragonal'
loop_
_space_group_symop_operation_xyz
x,y,z
1/2-y,x,1/2+z
1/2-x,1/2-y,z
y,1/2-x,1/2+z
1/2+x,-y,-z
-x,1/2+y,-z
1/2+y,1/2+x,1/2-z
-y,-x,1/2-z
-x,-y,-z
1/2+y,-x,1/2-z
1/2+x,1/2+y,-z
-y,1/2+x,1/2-z
1/2-x,y,z
x,1/2-y,z
1/2-y,1/2-x,1/2+z
y,x,1/2+z
loop_
_atom_site_type_symbol
_atom_site_label
_atom_site_fract_x
_atom_site_fract_y
_atom_site_fract_z
Si Si1 0.311285 0.499201 0.768469
Si Si2 0.569849 0.014233 0.128384
Si Si3 0.626711 0.687659 0.025715
Si Si4 0.571408 0.475887 0.621843
Si Si5 0.368245 0.188561 0.252655
Si Si6 0.311887 0.505105 0.482581
O O1 0.250000 0.520611 0.820517
O O2 0.362674 0.511576 0.863762
O O3 0.306582 0.433960 0.749180
O O4 0.322570 0.525918 0.628227
O O5 0.547925 0.047925 0.250000
O O6 0.539531 0.953120 0.127507
O O7 0.556246 0.044971 0.997438
O O8 0.648658 0.750000 0.053152
O O9 0.645888 0.648069 0.138501
O O10 0.560891 0.686377 0.022185
O O11 0.651088 0.667133 0.888194
O O12 0.557007 0.442994 0.750000
O O13 0.638556 0.473480 0.608893
O O14 0.342442 0.250000 0.279704
O O15 0.250000 0.525983 0.436543
#
# Coordination Sequence:
#
# PCOD8318421 Si02
#       6
#    16  16  16  16  16  16
#     4   9  17  31  50  69  92 125 161 195 234 285
#     4  10  18  31  50  72 101 130 163 199 239 290
#     4   9  18  31  46  62  83 116 156 196 234 276
#     4  10  20  31  48  75 102 131 159 198 246 288
#     4   9  18  31  45  61  84 116 154 195 237 277
#     4   9  17  32  50  67  93 127 160 192 236 290
#
# _framework density 16.029841999999999
#
# number of rings (size 3 to 8) (size 9 to 14) (size 15 to 20)
#    0.000    2.667    1.667    3.000    0.000    1.000 
#    3.000    2.500    0.000    0.000    0.000    0.000 
#    0.000    4.000    0.000    0.000    0.000    0.000 
#
# Total GULP energy -1189280.231307 kJ/mol
# GULP energy per Si atom -12388.335743 kJ/mol
# Density = 1.599336 g / cm^3
# Si number density = 16.029842 Si / 1000 Ang^3
#
#
#
# Elastic Constant Matrix: (Units=GPa)
#
#
# Indices 1 2 3 4 5 6 
#
# 1 88.7178 24.7858 39.2993 0.0000 0.0000 0.0000
# 2 24.7858 88.7181 39.2994 0.0000 0.0000 0.0000
# 3 39.2993 39.2994 104.7745 0.0000 0.0000 0.0000
# 4 0.0000 0.0000 0.0000 22.2511 0.0000 0.0000
# 5 0.0000 0.0000 0.0000 0.0000 22.2507 0.0000
# 6 0.0000 0.0000 0.0000 0.0000 0.0000 31.0823
#
#
#
# Elastic Compliance Matrix: (Units=1/GPa)
#
#
# Indices 1 2 3 4 5 6 
#
# 1 0.013772 -0.001870 -0.004464 0.000000 0.000000 0.000000
# 2 -0.001870 0.013772 -0.004464 0.000000 0.000000 0.000000
# 3 -0.004464 -0.004464 0.012893 0.000000 0.000000 0.000000
# 4 0.000000 0.000000 0.000000 0.044942 0.000000 0.000000
# 5 0.000000 0.000000 0.000000 0.000000 0.044942 0.000000
# 6 0.000000 0.000000 0.000000 0.000000 0.000000 0.032173
#
#
# Mechanical properties :
#
#
# Convention : Reuss Voigt Hill
#
# Bulk Modulus (GPa) = 53.07889 54.33103 53.70496
# Shear Modulus (GPa) = 26.26472 27.03854 26.65163
#
# Velocity S-wave (km/s) = 4.05222 4.11148 4.08195
# Velocity P-wave (km/s) = 7.42148 7.51706 7.46943
#
# Compressibility (1/GPa) = 0.01883988
#
# Stress axis : x y z
#
# Youngs Moduli (GPa) = 72.61327 72.61344 77.56062
#
# Poissons Ratio (x) = 0.13579 0.34624
# Poissons Ratio (y) = 0.13579 0.34624
# Poissons Ratio (z) = 0.32415 0.32415
#
# Static dielectric constant tensor:
#      x y z
#    x 2.987870 0.000000 0.000000 
#    y 0.000000 2.987870 0.000000 
#    z 0.000000 0.000000 4.033500 
# 
# 
# High freq. dielectric constant tensor:
#      x y z
#    x 1.592570 0.000000 0.000000 
#    y 0.000000 1.592570 0.000000 
#    z 0.000000 0.000000 1.617130 
# 
# From -- ./inp_files/3848.got.cif
#   From: 2010.03.12/outbox.cif.g09.slc.cpg/sg137_2_cif.got.tgz:3848.got - 2010.04.08 09:34:49.
