data_PCOD8318448
_publ_section_title
;
Structure prediction by ZEFSAII (Michael W. Deem and Ramdas Pophale) SiO2 
 PCOD8318448
Probable space group: P 42/N M C
;
_chemical_formula_sum "Si O2"
_cell_formula_units_Z 112
_cell_length_a 14.205569
_cell_length_b 14.205569
_cell_length_c 31.685675
_cell_angle_alpha 90.000000
_cell_angle_beta 90.000000
_cell_angle_gamma 90.000000
_cell_volume 6394.111883
_symmetry_space_group_name_H-M "P 42/N M C"
_symmetry_group_IT_number 137
_space_group.IT_coordinate_system_code '2'
_symmetry_cell_setting 'tetragonal'
loop_
_space_group_symop_operation_xyz
x,y,z
1/2-y,x,1/2+z
1/2-x,1/2-y,z
y,1/2-x,1/2+z
1/2+x,-y,-z
-x,1/2+y,-z
1/2+y,1/2+x,1/2-z
-y,-x,1/2-z
-x,-y,-z
1/2+y,-x,1/2-z
1/2+x,1/2+y,-z
-y,1/2+x,1/2-z
1/2-x,y,z
x,1/2-y,z
1/2-y,1/2-x,1/2+z
y,x,1/2+z
loop_
_atom_site_type_symbol
_atom_site_label
_atom_site_fract_x
_atom_site_fract_y
_atom_site_fract_z
Si Si1 0.638470 0.853509 0.745001
Si Si2 0.145750 0.138998 0.162368
Si Si3 0.524785 0.139534 0.544397
Si Si4 0.644717 0.357406 0.036774
Si Si5 0.141580 0.459601 0.580305
Si Si6 0.858078 0.139237 0.624991
Si Si7 0.861683 0.454850 0.709881
O O1 0.750000 0.844098 0.747722
O O2 0.596368 0.750000 0.732686
O O3 0.604336 0.887877 0.791602
O O4 0.608526 0.934277 0.711914
O O5 0.250000 0.093831 0.154112
O O6 0.156698 0.250000 0.160852
O O7 0.073230 0.105119 0.126366
O O8 0.510348 0.250000 0.546789
O O9 0.577317 0.111016 0.501589
O O10 0.422219 0.091346 0.545046
O O11 0.585912 0.103677 0.584103
O O12 0.750000 0.384173 0.052319
O O13 0.642884 0.250000 0.020274
O O14 0.572510 0.370750 0.075704
O O15 0.250000 0.429920 0.572562
O O16 0.750000 0.109743 0.618361
O O17 0.867804 0.250000 0.631941
O O18 0.901852 0.088449 0.666414
O O19 0.900235 0.400235 0.750000
O O20 0.750000 0.443120 0.710847
#
# Coordination Sequence:
#
# PCOD8318448 Si02
#       7
#    16  16  16  16  16  16  16
#     4   8  15  28  45  64  88 119 152 186 224 269
#     4   8  14  25  41  64  92 115 138 175 227 280
#     4  10  19  30  48  69  93 124 153 183 225 278
#     4   9  18  33  50  67  89 121 159 191 219 261
#     4  10  19  29  45  70  95 116 142 184 232 272
#     4   9  18  31  45  65  93 124 157 189 221 266
#     4  10  19  28  42  65  94 124 153 185 225 269
#
# _framework density 17.516116
#
# number of rings (size 3 to 8) (size 9 to 14) (size 15 to 20)
#    0.000    2.857    0.000    2.571    2.000    3.286 
#    0.000    0.000    0.000    0.857    0.000    0.000 
#    0.000   11.714    0.000    0.000    0.000    0.000 
#
# Total GULP energy -1388109.403720 kJ/mol
# GULP energy per Si atom -12393.833962 kJ/mol
# Density = 1.747625 g / cm^3
# Si number density = 17.516116 Si / 1000 Ang^3
#
#
#
# Elastic Constant Matrix: (Units=GPa)
#
#
# Indices 1 2 3 4 5 6 
#
# 1 52.4864 20.6426 31.1518 0.0000 0.0000 0.0000
# 2 20.6426 52.4864 31.1518 0.0000 0.0000 0.0000
# 3 31.1518 31.1518 66.0118 0.0000 0.0000 0.0000
# 4 0.0000 0.0000 0.0000 16.1905 0.0000 0.0000
# 5 0.0000 0.0000 0.0000 0.0000 16.1905 0.0000
# 6 0.0000 0.0000 0.0000 0.0000 0.0000 15.8945
#
#
#
# Elastic Compliance Matrix: (Units=1/GPa)
#
#
# Indices 1 2 3 4 5 6 
#
# 1 0.027136 -0.004267 -0.010792 0.000000 0.000000 0.000000
# 2 -0.004267 0.027136 -0.010792 0.000000 0.000000 0.000000
# 3 -0.010792 -0.010792 0.025335 0.000000 0.000000 0.000000
# 4 0.000000 0.000000 0.000000 0.061764 0.000000 0.000000
# 5 0.000000 0.000000 0.000000 0.000000 0.061764 0.000000
# 6 0.000000 0.000000 0.000000 0.000000 0.000000 0.062915
#
#
# Mechanical properties :
#
#
# Convention : Reuss Voigt Hill
#
# Bulk Modulus (GPa) = 35.83702 37.43080 36.63391
# Shear Modulus (GPa) = 15.28792 15.52433 15.40612
#
# Velocity S-wave (km/s) = 2.95751 2.98029 2.96892
# Velocity P-wave (km/s) = 5.67154 5.76702 5.71948
#
# Compressibility (1/GPa) = 0.02790410
#
# Stress axis : x y z
#
# Youngs Moduli (GPa) = 36.85111 36.85111 39.47139
#
# Poissons Ratio (x) = 0.15725 0.42599
# Poissons Ratio (y) = 0.15725 0.42599
# Poissons Ratio (z) = 0.39771 0.39771
#
# Static dielectric constant tensor:
#      x y z
#    x 3.274030 0.000000 0.000000 
#    y 0.000000 3.274030 0.000000 
#    z 0.000000 0.000000 3.305600 
# 
# 
# High freq. dielectric constant tensor:
#      x y z
#    x 1.665130 0.000000 0.000000 
#    y 0.000000 1.665130 0.000000 
#    z 0.000000 0.000000 1.659470 
# 
# From -- ./inp_files/9817.got.cif
#   From: 2010.03.12/outbox.cif.g09.slc.cpg/sg137_5_cif.got.tgz:9817.got - 2010.04.08 09:34:49.
