data_PCOD8318831
_publ_section_title
;
Structure prediction by ZEFSAII (Michael W. Deem and Ramdas Pophale) SiO2 
 PCOD8318831
Probable space group: P 42/N M C
;
_chemical_formula_sum "Si O2"
_cell_formula_units_Z 48
_cell_length_a 13.156175
_cell_length_b 13.156175
_cell_length_c 18.728676
_cell_angle_alpha 90.000000
_cell_angle_beta 90.000000
_cell_angle_gamma 90.000000
_cell_volume 3241.651774
_symmetry_space_group_name_H-M "P 42/N M C"
_symmetry_group_IT_number 137
_space_group.IT_coordinate_system_code '2'
_symmetry_cell_setting 'tetragonal'
loop_
_space_group_symop_operation_xyz
x,y,z
1/2-y,x,1/2+z
1/2-x,1/2-y,z
y,1/2-x,1/2+z
1/2+x,-y,-z
-x,1/2+y,-z
1/2+y,1/2+x,1/2-z
-y,-x,1/2-z
-x,-y,-z
1/2+y,-x,1/2-z
1/2+x,1/2+y,-z
-y,1/2+x,1/2-z
1/2-x,y,z
x,1/2-y,z
1/2-y,1/2-x,1/2+z
y,x,1/2+z
loop_
_atom_site_type_symbol
_atom_site_label
_atom_site_fract_x
_atom_site_fract_y
_atom_site_fract_z
Si Si1 0.369900 0.250000 0.938762
Si Si2 0.138910 0.497942 0.336066
Si Si3 0.750000 0.629218 0.398474
Si Si4 0.367521 0.451849 0.176549
O O1 0.250000 0.250000 0.933628
O O2 0.413120 0.350951 0.898592
O O3 0.408250 0.250000 0.019990
O O4 0.250000 0.553902 0.328647
O O5 0.114221 0.442424 0.261266
O O6 0.051092 0.577112 0.355774
O O7 0.750000 0.750000 0.392888
O O8 0.649455 0.586150 0.359473
O O9 0.250000 0.463826 0.156376
#
# Coordination Sequence:
#
# PCOD8318831 Si02
#       4
#     8  16   8  16
#     4   9  18  30  43  65  91 115 145 182 225 257
#     4   8  17  28  43  67  87 116 146 174 225 257
#     4   9  18  28  44  67  87 119 148 178 220 257
#     4   9  16  28  45  65  91 113 148 178 213 267
#
# _framework density 14.807264999999999
#
# number of rings (size 3 to 8) (size 9 to 14) (size 15 to 20)
#    1.000    2.333    0.000    0.000    2.333    2.000 
#    0.000    3.333    0.000    0.000    0.000    1.167 
#    0.000    0.000    0.000    0.000    0.000    0.000 
#
# Total GULP energy -594677.011669 kJ/mol
# GULP energy per Si atom -12389.104410 kJ/mol
# Density = 1.477356 g / cm^3
# Si number density = 14.807265 Si / 1000 Ang^3
#
#
#
# Elastic Constant Matrix: (Units=GPa)
#
#
# Indices 1 2 3 4 5 6 
#
# 1 85.9083 48.3349 49.4125 0.0000 0.0000 0.0000
# 2 48.3349 85.9083 49.4125 0.0000 0.0000 0.0000
# 3 49.4125 49.4125 93.2826 0.0000 0.0000 0.0000
# 4 0.0000 0.0000 0.0000 17.4890 0.0000 0.0000
# 5 0.0000 0.0000 0.0000 0.0000 17.4890 0.0000
# 6 0.0000 0.0000 0.0000 0.0000 0.0000 14.5869
#
#
#
# Elastic Compliance Matrix: (Units=1/GPa)
#
#
# Indices 1 2 3 4 5 6 
#
# 1 0.019413 -0.007202 -0.006468 0.000000 0.000000 0.000000
# 2 -0.007202 0.019413 -0.006468 0.000000 0.000000 0.000000
# 3 -0.006468 -0.006468 0.017573 0.000000 0.000000 0.000000
# 4 0.000000 0.000000 0.000000 0.057179 0.000000 0.000000
# 5 0.000000 0.000000 0.000000 0.000000 0.057179 0.000000
# 6 0.000000 0.000000 0.000000 0.000000 0.000000 0.068555
#
#
# Mechanical properties :
#
#
# Convention : Reuss Voigt Hill
#
# Bulk Modulus (GPa) = 62.02878 62.15767 62.09323
# Shear Modulus (GPa) = 17.54632 17.77561 17.66096
#
# Velocity S-wave (km/s) = 3.44609 3.46853 3.45733
# Velocity P-wave (km/s) = 7.60367 7.62299 7.61333
#
# Compressibility (1/GPa) = 0.01612155
#
# Stress axis : x y z
#
# Youngs Moduli (GPa) = 51.51271 51.51271 56.90680
#
# Poissons Ratio (x) = 0.37099 0.36808
# Poissons Ratio (y) = 0.37099 0.36808
# Poissons Ratio (z) = 0.33319 0.33319
#
# Static dielectric constant tensor:
#      x y z
#    x 2.726230 0.000000 0.000000 
#    y 0.000000 2.726230 0.000000 
#    z 0.000000 0.000000 2.903270 
# 
# 
# High freq. dielectric constant tensor:
#      x y z
#    x 1.544970 0.000000 0.000000 
#    y 0.000000 1.544970 0.000000 
#    z 0.000000 0.000000 1.568180 
# 
# From -- ./inp_files/4485.got.cif
#   From: 2010.03.12/outbox.cif.g09.slc.cpg/sg137_3_cif.got.tgz:4485.got - 2010.04.08 09:34:49.
