data_PCOD8318126
_publ_section_title
;
Structure prediction by ZEFSAII (Michael W. Deem and Ramdas Pophale) SiO2 
 PCOD8318126
Probable space group: P 42/M N M
;
_chemical_formula_sum "Si O2"
_cell_formula_units_Z 48
_cell_length_a 11.690850
_cell_length_b 11.690850
_cell_length_c 19.109255
_cell_angle_alpha 90.000000
_cell_angle_beta 90.000000
_cell_angle_gamma 90.000000
_cell_volume 2611.776034
_symmetry_space_group_name_H-M "P 42/M N M"
_symmetry_group_IT_number 136
_symmetry_cell_setting 'tetragonal'
loop_
_space_group_symop_operation_xyz
x,y,z
1/2-y,1/2+x,1/2+z
-x,-y,z
1/2+y,1/2-x,1/2+z
1/2+x,1/2-y,1/2-z
1/2-x,1/2+y,1/2-z
y,x,-z
-y,-x,-z
-x,-y,-z
1/2+y,1/2-x,1/2-z
x,y,-z
1/2-y,1/2+x,1/2-z
1/2-x,1/2+y,1/2+z
1/2+x,1/2-y,1/2+z
-y,-x,z
y,x,z
loop_
_atom_site_type_symbol
_atom_site_label
_atom_site_fract_x
_atom_site_fract_y
_atom_site_fract_z
Si Si1 0.524597 0.865163 0.000000
Si Si2 0.410322 0.589679 0.224767
Si Si3 0.200470 0.483634 0.849406
Si Si4 0.500000 0.000000 0.250000
Si Si5 0.786316 0.786316 0.850072
Si Si6 0.213047 0.213047 0.000000
O O1 0.468906 0.816681 0.071494
O O2 0.653413 0.818214 0.000000
O O3 0.500000 0.000000 0.000000
O O4 0.500000 0.500000 0.256458
O O5 0.476777 0.676608 0.175384
O O6 0.351078 0.648922 0.289718
O O7 0.188223 0.347481 0.844600
O O8 0.104859 0.538791 0.799158
O O9 0.834268 0.834268 0.925601
#
# Coordination Sequence:
#
# PCOD8318126 Si02
#       6
#     8   8  16   4   8   4
#     4  10  20  37  60  86 119 161 205 246 305 377
#     4  12  24  37  60  95 128 153 201 263 315 364
#     4  11  22  37  59  88 119 159 202 249 301 368
#     4  12  20  34  64  88 112 158 208 248 292 366
#     4  10  20  39  58  84 120 158 199 241 309 368
#     4   8  20  36  59  85 114 156 202 250 292 363
#
# _framework density 18.378298000000001
#
# number of rings (size 3 to 8) (size 9 to 14) (size 15 to 20)
#    0.000    1.333    6.667    0.000    0.000    0.667 
#    0.000    1.250    0.000    0.000    4.333    0.000 
#    0.000    0.000    0.000    0.000    0.000    0.000 
#
# Total GULP energy -594794.134226 kJ/mol
# GULP energy per Si atom -12391.544463 kJ/mol
# Density = 1.833647 g / cm^3
# Si number density = 18.378298 Si / 1000 Ang^3
#
#
#
# Elastic Constant Matrix: (Units=GPa)
#
#
# Indices 1 2 3 4 5 6 
#
# 1 63.9129 50.4073 51.1861 0.0000 0.0000 0.0000
# 2 50.4073 63.9129 51.1861 0.0000 0.0000 0.0000
# 3 51.1861 51.1861 194.0652 0.0000 0.0000 0.0000
# 4 0.0000 0.0000 0.0000 2.7152 0.0000 0.0000
# 5 0.0000 0.0000 0.0000 0.0000 2.7152 0.0000
# 6 0.0000 0.0000 0.0000 0.0000 0.0000 32.9001
#
#
#
# Elastic Compliance Matrix: (Units=1/GPa)
#
#
# Indices 1 2 3 4 5 6 
#
# 1 0.042748 -0.031296 -0.003021 0.000000 0.000000 0.000000
# 2 -0.031296 0.042748 -0.003021 0.000000 0.000000 0.000000
# 3 -0.003021 -0.003021 0.006746 0.000000 0.000000 0.000000
# 4 0.000000 0.000000 0.000000 0.368298 0.000000 0.000000
# 5 0.000000 0.000000 0.000000 0.000000 0.368298 0.000000
# 6 0.000000 0.000000 0.000000 0.000000 0.000000 0.030395
#
#
# Mechanical properties :
#
#
# Convention : Reuss Voigt Hill
#
# Bulk Modulus (GPa) = 56.92032 69.71666 63.31849
# Shear Modulus (GPa) = 5.32049 18.94019 12.13034
#
# Velocity S-wave (km/s) = 1.70331 3.21374 2.57190
# Velocity P-wave (km/s) = 5.90822 7.19635 6.58386
#
# Compressibility (1/GPa) = 0.01756842
#
# Stress axis : x y z
#
# Youngs Moduli (GPa) = 23.39301 23.39301 148.22863
#
# Poissons Ratio (x) = 0.73210 0.44774
# Poissons Ratio (y) = 0.73210 0.44774
# Poissons Ratio (z) = 0.07066 0.07066
#
# Static dielectric constant tensor:
#      x y z
#    x 3.292830 0.000000 0.000000 
#    y 0.000000 3.292830 0.000000 
#    z 0.000000 0.000000 4.009010 
# 
# 
# High freq. dielectric constant tensor:
#      x y z
#    x 1.696640 0.000000 0.000000 
#    y 0.000000 1.696640 0.000000 
#    z 0.000000 0.000000 1.743760 
# 
# From -- ./inp_files/6886.got.cif
#   From: 2010.03.12/outbox.cif.g09.slc.cpg/sg136_4_cif.got.tgz:6886.got - 2010.04.06 18:39:43.
