data_PCOD8318545
_publ_section_title
;
Structure prediction by ZEFSAII (Michael W. Deem and Ramdas Pophale) SiO2 
 PCOD8318545
Probable space group: P 42/N M C
;
_chemical_formula_sum "Si O2"
_cell_formula_units_Z 88
_cell_length_a 14.924012
_cell_length_b 14.924012
_cell_length_c 19.353256
_cell_angle_alpha 90.000000
_cell_angle_beta 90.000000
_cell_angle_gamma 90.000000
_cell_volume 4310.475893
_symmetry_space_group_name_H-M "P 42/N M C"
_symmetry_group_IT_number 137
_space_group.IT_coordinate_system_code '2'
_symmetry_cell_setting 'tetragonal'
loop_
_space_group_symop_operation_xyz
x,y,z
1/2-y,x,1/2+z
1/2-x,1/2-y,z
y,1/2-x,1/2+z
1/2+x,-y,-z
-x,1/2+y,-z
1/2+y,1/2+x,1/2-z
-y,-x,1/2-z
-x,-y,-z
1/2+y,-x,1/2-z
1/2+x,1/2+y,-z
-y,1/2+x,1/2-z
1/2-x,y,z
x,1/2-y,z
1/2-y,1/2-x,1/2+z
y,x,1/2+z
loop_
_atom_site_type_symbol
_atom_site_label
_atom_site_fract_x
_atom_site_fract_y
_atom_site_fract_z
Si Si1 0.352271 0.852271 0.750000
Si Si2 0.844637 0.973792 0.477308
Si Si3 0.982921 0.052433 0.153864
Si Si4 0.147846 0.949926 0.193799
Si Si5 0.946053 0.649054 0.570094
Si Si6 0.847373 0.393130 0.963229
O O1 0.364697 0.750000 0.722729
O O2 0.368592 0.925630 0.689909
O O3 0.750000 0.949299 0.442589
O O4 0.861476 0.900074 0.536232
O O5 0.919303 0.973553 0.418609
O O6 0.831970 0.071428 0.512092
O O7 0.910050 0.975039 0.136702
O O8 0.067697 0.024012 0.201778
O O9 0.127965 0.872036 0.250000
O O10 0.250000 0.987014 0.205693
O O11 0.138178 0.912347 0.117224
O O12 0.922042 0.750000 0.594606
O O13 0.018338 0.651217 0.509355
O O14 0.750000 0.345790 0.973116
#
# Coordination Sequence:
#
# PCOD8318545 Si02
#       6
#     8  16  16  16  16  16
#     4  11  24  40  62  92 123 158 204 256 307 360
#     4  11  21  33  55  88 119 148 193 242 291 354
#     4  11  20  40  61  86 115 160 199 244 302 361
#     4  11  22  38  62  87 114 154 204 249 299 362
#     4  10  19  35  59  84 112 150 195 236 288 350
#     4   9  18  36  58  79 110 149 188 234 288 348
#
# _framework density 20.415379999999999
#
# number of rings (size 3 to 8) (size 9 to 14) (size 15 to 20)
#    0.000    1.545    4.545    2.182    0.000    2.364 
#    0.000    1.818    0.000    1.636    0.000    0.000 
#    0.000    0.000    0.000    0.000    0.000    0.000 
#
# Total GULP energy -1090155.311713 kJ/mol
# GULP energy per Si atom -12388.128542 kJ/mol
# Density = 2.036891 g / cm^3
# Si number density = 20.415380 Si / 1000 Ang^3
#
#
#
# Elastic Constant Matrix: (Units=GPa)
#
#
# Indices 1 2 3 4 5 6 
#
# 1 113.1592 60.1445 20.4861 0.0000 0.0000 0.0000
# 2 60.1445 113.1592 20.4864 0.0000 0.0000 0.0000
# 3 20.4861 20.4864 58.7073 0.0000 0.0000 0.0000
# 4 0.0000 0.0000 0.0000 19.2835 0.0000 0.0000
# 5 0.0000 0.0000 0.0000 0.0000 19.2834 0.0000
# 6 0.0000 0.0000 0.0000 0.0000 0.0000 9.4057
#
#
#
# Elastic Compliance Matrix: (Units=1/GPa)
#
#
# Indices 1 2 3 4 5 6 
#
# 1 0.012576 -0.006287 -0.002195 0.000000 0.000000 0.000000
# 2 -0.006287 0.012576 -0.002195 0.000000 0.000000 0.000000
# 3 -0.002195 -0.002195 0.018565 0.000000 0.000000 0.000000
# 4 0.000000 0.000000 0.000000 0.051858 0.000000 0.000000
# 5 0.000000 0.000000 0.000000 0.000000 0.051858 0.000000
# 6 0.000000 0.000000 0.000000 0.000000 0.000000 0.106319
#
#
# Mechanical properties :
#
#
# Convention : Reuss Voigt Hill
#
# Bulk Modulus (GPa) = 44.71271 54.13999 49.42635
# Shear Modulus (GPa) = 17.69542 21.85508 19.77525
#
# Velocity S-wave (km/s) = 2.94729 3.27543 3.11568
# Velocity P-wave (km/s) = 5.79060 6.39385 6.09969
#
# Compressibility (1/GPa) = 0.02236500
#
# Stress axis : x y z
#
# Youngs Moduli (GPa) = 79.51736 79.51721 53.86391
#
# Poissons Ratio (x) = 0.49991 0.11821
# Poissons Ratio (y) = 0.49991 0.11821
# Poissons Ratio (z) = 0.17450 0.17451
#
# Static dielectric constant tensor:
#      x y z
#    x 3.799830 0.000000 0.000000 
#    y 0.000000 3.799820 0.000000 
#    z 0.000000 0.000000 3.620440 
# 
# 
# High freq. dielectric constant tensor:
#      x y z
#    x 1.787910 0.000000 0.000000 
#    y 0.000000 1.787910 0.000000 
#    z 0.000000 0.000000 1.792450 
# 
# From -- ./inp_files/7707.got.cif
#   From: 2010.03.12/outbox.cif.g09.slc.cpg/sg137_4_cif.got.tgz:7707.got - 2010.04.08 09:34:49.
