data_PCOD8318698
_publ_section_title
;
Structure prediction by ZEFSAII (Michael W. Deem and Ramdas Pophale) SiO2 
 PCOD8318698
Probable space group: P 42/N M C
;
_chemical_formula_sum "Si O2"
_cell_formula_units_Z 112
_cell_length_a 13.789056
_cell_length_b 13.789056
_cell_length_c 29.226071
_cell_angle_alpha 90.000000
_cell_angle_beta 90.000000
_cell_angle_gamma 90.000000
_cell_volume 5556.988598
_symmetry_space_group_name_H-M "P 42/N M C"
_symmetry_group_IT_number 137
_space_group.IT_coordinate_system_code '2'
_symmetry_cell_setting 'tetragonal'
loop_
_space_group_symop_operation_xyz
x,y,z
1/2-y,x,1/2+z
1/2-x,1/2-y,z
y,1/2-x,1/2+z
1/2+x,-y,-z
-x,1/2+y,-z
1/2+y,1/2+x,1/2-z
-y,-x,1/2-z
-x,-y,-z
1/2+y,-x,1/2-z
1/2+x,1/2+y,-z
-y,1/2+x,1/2-z
1/2-x,y,z
x,1/2-y,z
1/2-y,1/2-x,1/2+z
y,x,1/2+z
loop_
_atom_site_type_symbol
_atom_site_label
_atom_site_fract_x
_atom_site_fract_y
_atom_site_fract_z
Si Si1 0.956418 0.362357 0.292927
Si Si2 0.642162 0.967323 0.709087
Si Si3 0.550690 0.860977 0.987040
Si Si4 0.855911 0.361755 0.382390
Si Si5 0.982627 0.357953 0.686039
Si Si6 0.957459 0.140429 0.474271
Si Si7 0.360452 0.359824 0.110406
O O1 0.926836 0.426836 0.250000
O O2 0.936354 0.250000 0.283318
O O3 0.894797 0.405780 0.335104
O O4 0.069774 0.379957 0.304134
O O5 0.750000 0.944701 0.690528
O O6 0.642914 0.972439 0.763711
O O7 0.606543 0.067068 0.685011
O O8 0.569769 0.750000 0.001326
O O9 0.440014 0.891514 0.000160
O O10 0.569491 0.877746 0.932941
O O11 0.623249 0.928798 0.016069
O O12 0.750000 0.408529 0.395468
O O13 0.838992 0.250000 0.373301
O O14 0.936857 0.376020 0.420880
O O15 0.943916 0.250000 0.673698
O O16 0.066225 0.390137 0.650414
O O17 0.928176 0.250000 0.489452
O O18 0.250000 0.377123 0.094171
O O19 0.372915 0.250000 0.128899
#
# Coordination Sequence:
#
# PCOD8318698 Si02
#       7
#    16  16  16  16  16  16  16
#     4  11  22  37  58  86 119 153 190 237 292 342
#     4  10  21  37  53  77 112 151 195 238 284 343
#     4  10  21  36  59  89 117 152 196 241 295 352
#     4   9  19  36  58  83 111 147 190 232 279 340
#     4   9  18  35  57  81 110 147 193 237 285 341
#     4  10  21  37  57  83 118 156 194 237 285 346
#     4   9  18  33  57  89 120 147 183 240 302 354
#
# _framework density 20.154803000000001
#
# number of rings (size 3 to 8) (size 9 to 14) (size 15 to 20)
#    0.000    2.286    1.429    1.286    2.000    3.571 
#    0.000    3.571    0.000    3.429    0.000    4.000 
#    0.000    0.000    0.000    0.000    0.000    0.000 
#
# Total GULP energy -1388064.148807 kJ/mol
# GULP energy per Si atom -12393.429900 kJ/mol
# Density = 2.010893 g / cm^3
# Si number density = 20.154803 Si / 1000 Ang^3
#
#
#
# Elastic Constant Matrix: (Units=GPa)
#
#
# Indices 1 2 3 4 5 6 
#
# 1 124.5166 36.2372 40.6049 0.0000 0.0000 0.0000
# 2 36.2372 124.5166 40.6049 0.0000 0.0000 0.0000
# 3 40.6049 40.6049 79.4851 0.0000 0.0000 0.0000
# 4 0.0000 0.0000 0.0000 21.7916 0.0000 0.0000
# 5 0.0000 0.0000 0.0000 0.0000 21.7916 0.0000
# 6 0.0000 0.0000 0.0000 0.0000 0.0000 24.1874
#
#
#
# Elastic Compliance Matrix: (Units=1/GPa)
#
#
# Indices 1 2 3 4 5 6 
#
# 1 0.009856 -0.001472 -0.004283 0.000000 0.000000 0.000000
# 2 -0.001472 0.009856 -0.004283 0.000000 0.000000 0.000000
# 3 -0.004283 -0.004283 0.016957 0.000000 0.000000 0.000000
# 4 0.000000 0.000000 0.000000 0.045889 0.000000 0.000000
# 5 0.000000 0.000000 0.000000 0.000000 0.045889 0.000000
# 6 0.000000 0.000000 0.000000 0.000000 0.000000 0.041344
#
#
# Mechanical properties :
#
#
# Convention : Reuss Voigt Hill
#
# Bulk Modulus (GPa) = 60.26544 62.60138 61.43341
# Shear Modulus (GPa) = 25.58870 27.62554 26.60712
#
# Velocity S-wave (km/s) = 3.56702 3.70627 3.63731
# Velocity P-wave (km/s) = 6.85062 7.03157 6.94169
#
# Compressibility (1/GPa) = 0.01659326
#
# Stress axis : x y z
#
# Youngs Moduli (GPa) = 101.46022 101.46022 58.97226
#
# Poissons Ratio (x) = 0.14931 0.25259
# Poissons Ratio (y) = 0.14931 0.25259
# Poissons Ratio (z) = 0.43458 0.43458
#
# Static dielectric constant tensor:
#      x y z
#    x 3.909050 0.000000 0.000000 
#    y 0.000000 3.909050 0.000000 
#    z 0.000000 0.000000 3.429870 
# 
# 
# High freq. dielectric constant tensor:
#      x y z
#    x 1.792040 0.000000 0.000000 
#    y 0.000000 1.792040 0.000000 
#    z 0.000000 0.000000 1.758090 
# 
# From -- ./inp_files/9789.got.cif
#   From: 2010.03.12/outbox.cif.g09.slc.cpg/sg137_5_cif.got.tgz:9789.got - 2010.04.08 09:34:49.
