data_PCOD8318302
_publ_section_title
;
Structure prediction by ZEFSAII (Michael W. Deem and Ramdas Pophale) SiO2 
 PCOD8318302
Probable space group: P 42/M N M
;
_chemical_formula_sum "Si O2"
_cell_formula_units_Z 72
_cell_length_a 21.325433
_cell_length_b 21.325433
_cell_length_c 9.061392
_cell_angle_alpha 90.000000
_cell_angle_beta 90.000000
_cell_angle_gamma 90.000000
_cell_volume 4120.886325
_symmetry_space_group_name_H-M "P 42/M N M"
_symmetry_group_IT_number 136
_symmetry_cell_setting 'tetragonal'
loop_
_space_group_symop_operation_xyz
x,y,z
1/2-y,1/2+x,1/2+z
-x,-y,z
1/2+y,1/2-x,1/2+z
1/2+x,1/2-y,1/2-z
1/2-x,1/2+y,1/2-z
y,x,-z
-y,-x,-z
-x,-y,-z
1/2+y,1/2-x,1/2-z
x,y,-z
1/2-y,1/2+x,1/2-z
1/2-x,1/2+y,1/2+z
1/2+x,1/2-y,1/2+z
-y,-x,z
y,x,z
loop_
_atom_site_type_symbol
_atom_site_label
_atom_site_fract_x
_atom_site_fract_y
_atom_site_fract_z
Si Si1 0.399154 0.855902 0.173507
Si Si2 0.779379 0.875564 0.324614
Si Si3 0.320315 0.962077 0.327005
Si Si4 0.010859 0.819788 0.325528
Si Si5 0.947817 0.052184 0.175646
O O1 0.366990 0.791635 0.228846
O O2 0.363175 0.911408 0.250332
O O3 0.471616 0.850249 0.221014
O O4 0.393053 0.865503 0.000000
O O5 0.780050 0.876574 0.500000
O O6 0.818041 0.818041 0.256936
O O7 0.811793 0.939502 0.272249
O O8 0.326457 0.953746 0.500000
O O9 0.246465 0.955214 0.284005
O O10 0.016817 0.833156 0.500000
O O11 0.037258 0.878762 0.236836
O O12 0.944983 0.055018 0.000000
O O13 0.000000 0.000000 0.225974
#
# Coordination Sequence:
#
# PCOD8318302 Si02
#       5
#    16  16  16  16   8
#     4   9  18  32  51  74 100 132 166 205 257 307
#     4   8  14  28  51  75  95 121 166 214 247 289
#     4   9  19  35  52  74 103 132 169 214 254 298
#     4   9  18  34  55  74  97 134 173 209 249 299
#     4  11  23  35  49  77 111 137 167 211 259 304
#
# _framework density 17.471969000000001
#
# number of rings (size 3 to 8) (size 9 to 14) (size 15 to 20)
#    0.000    3.000    0.000    3.667    0.000    4.000 
#    2.000    5.556    0.000    1.333    0.000    0.000 
#    0.000    0.000    0.000    0.000    0.000    0.000 
#
# Total GULP energy -892124.023283 kJ/mol
# GULP energy per Si atom -12390.611434 kJ/mol
# Density = 1.743220 g / cm^3
# Si number density = 17.471969 Si / 1000 Ang^3
#
#
#
# Elastic Constant Matrix: (Units=GPa)
#
#
# Indices 1 2 3 4 5 6 
#
# 1 143.0015 111.3443 47.0065 0.0000 0.0000 0.0000
# 2 111.3443 143.0017 47.0065 0.0000 0.0000 0.0000
# 3 47.0065 47.0065 37.7756 0.0000 0.0000 0.0000
# 4 0.0000 0.0000 0.0000 27.7954 0.0000 0.0000
# 5 0.0000 0.0000 0.0000 0.0000 27.7953 0.0000
# 6 0.0000 0.0000 0.0000 0.0000 0.0000 38.5723
#
#
#
# Elastic Compliance Matrix: (Units=1/GPa)
#
#
# Indices 1 2 3 4 5 6 
#
# 1 0.019434 -0.012154 -0.009059 0.000000 0.000000 0.000000
# 2 -0.012154 0.019434 -0.009059 0.000000 0.000000 0.000000
# 3 -0.009059 -0.009059 0.049018 0.000000 0.000000 0.000000
# 4 0.000000 0.000000 0.000000 0.035977 0.000000 0.000000
# 5 0.000000 0.000000 0.000000 0.000000 0.035977 0.000000
# 6 0.000000 0.000000 0.000000 0.000000 0.000000 0.025925
#
#
# Mechanical properties :
#
#
# Convention : Reuss Voigt Hill
#
# Bulk Modulus (GPa) = 36.57432 81.61036 59.09234
# Shear Modulus (GPa) = 19.57523 26.72736 23.15129
#
# Velocity S-wave (km/s) = 3.35084 3.91542 3.64408
# Velocity P-wave (km/s) = 5.99578 8.20069 7.18334
#
# Compressibility (1/GPa) = 0.02734159
#
# Stress axis : x y z
#
# Youngs Moduli (GPa) = 51.45557 51.45557 20.40071
#
# Poissons Ratio (x) = 0.62540 0.18481
# Poissons Ratio (y) = 0.62540 0.18481
# Poissons Ratio (z) = 0.46614 0.46615
#
# Static dielectric constant tensor:
#      x y z
#    x 3.804020 0.000000 0.000000 
#    y 0.000000 3.804020 0.000000 
#    z 0.000000 0.000000 2.928930 
# 
# 
# High freq. dielectric constant tensor:
#      x y z
#    x 1.681760 0.000000 0.000000 
#    y 0.000000 1.681760 0.000000 
#    z 0.000000 0.000000 1.646910 
# 
# From -- ./inp_files/1579.got.cif
#   From: 2010.03.12/outbox.cif.g09.slc.cpg/sg136_1_cif.got.tgz:1579.got - 2010.04.06 18:39:43.
