data_PCOD8318217
_publ_section_title
;
Structure prediction by ZEFSAII (Michael W. Deem and Ramdas Pophale) SiO2 
 PCOD8318217
Probable space group: P 42/M N M
;
_chemical_formula_sum "Si O2"
_cell_formula_units_Z 64
_cell_length_a 13.445910
_cell_length_b 13.445910
_cell_length_c 17.985267
_cell_angle_alpha 90.000000
_cell_angle_beta 90.000000
_cell_angle_gamma 90.000000
_cell_volume 3251.601307
_symmetry_space_group_name_H-M "P 42/M N M"
_symmetry_group_IT_number 136
_symmetry_cell_setting 'tetragonal'
loop_
_space_group_symop_operation_xyz
x,y,z
1/2-y,1/2+x,1/2+z
-x,-y,z
1/2+y,1/2-x,1/2+z
1/2+x,1/2-y,1/2-z
1/2-x,1/2+y,1/2-z
y,x,-z
-y,-x,-z
-x,-y,-z
1/2+y,1/2-x,1/2-z
x,y,-z
1/2-y,1/2+x,1/2-z
1/2-x,1/2+y,1/2+z
1/2+x,1/2-y,1/2+z
-y,-x,z
y,x,z
loop_
_atom_site_type_symbol
_atom_site_label
_atom_site_fract_x
_atom_site_fract_y
_atom_site_fract_z
Si Si1 0.838771 0.462593 0.089223
Si Si2 0.152455 0.847546 0.919143
Si Si3 0.344460 0.180669 0.821733
Si Si4 0.958459 0.300247 0.171414
Si Si5 0.819300 0.819300 0.419496
O O1 0.832360 0.577396 0.110979
O O2 0.929733 0.403528 0.128754
O O3 0.734401 0.413052 0.119402
O O4 0.850934 0.451502 0.000000
O O5 0.201745 0.940629 0.877465
O O6 0.235803 0.764198 0.926673
O O7 0.116144 0.883857 0.000000
O O8 0.260456 0.260456 0.844449
O O9 0.396725 0.213979 0.746437
O O10 0.296887 0.073493 0.807701
O O11 0.855787 0.855787 0.500000
#
# Coordination Sequence:
#
# PCOD8318217 Si02
#       5
#    16   8  16  16   8
#     4  10  21  38  64  93 122 160 204 247 295 358
#     4   9  18  36  63  89 116 156 207 249 284 347
#     4  12  25  39  60  91 127 158 194 255 314 358
#     4  11  21  38  64  89 120 159 205 251 297 361
#     4   7  14  32  59  89 115 148 196 241 281 339
#
# _framework density 19.682607999999998
#
# number of rings (size 3 to 8) (size 9 to 14) (size 15 to 20)
#    0.000    1.750    3.750    3.000    0.000    3.500 
#    0.000    1.250    0.000    3.000    0.000    0.000 
#    0.000    0.000    0.000    0.000    0.000    0.000 
#
# Total GULP energy -793118.988800 kJ/mol
# GULP energy per Si atom -12392.484200 kJ/mol
# Density = 1.963781 g / cm^3
# Si number density = 19.682608 Si / 1000 Ang^3
#
#
#
# Elastic Constant Matrix: (Units=GPa)
#
#
# Indices 1 2 3 4 5 6 
#
# 1 59.1519 48.7407 8.3252 0.0000 0.0000 0.0000
# 2 48.7407 59.1519 8.3253 0.0000 0.0000 0.0000
# 3 8.3252 8.3253 73.1688 0.0000 0.0000 0.0000
# 4 0.0000 0.0000 0.0000 23.9945 0.0000 0.0000
# 5 0.0000 0.0000 0.0000 0.0000 23.9944 0.0000
# 6 0.0000 0.0000 0.0000 0.0000 0.0000 22.3767
#
#
#
# Elastic Compliance Matrix: (Units=1/GPa)
#
#
# Indices 1 2 3 4 5 6 
#
# 1 0.052742 -0.043308 -0.001073 0.000000 0.000000 0.000000
# 2 -0.043308 0.052742 -0.001073 0.000000 0.000000 0.000000
# 3 -0.001073 -0.001073 0.013911 0.000000 0.000000 0.000000
# 4 0.000000 0.000000 0.000000 0.041676 0.000000 0.000000
# 5 0.000000 0.000000 0.000000 0.000000 0.041676 0.000000
# 6 0.000000 0.000000 0.000000 0.000000 0.000000 0.044689
#
#
# Mechanical properties :
#
#
# Convention : Reuss Voigt Hill
#
# Bulk Modulus (GPa) = 35.10513 35.80609 35.45561
# Shear Modulus (GPa) = 14.37430 22.47854 18.42642
#
# Velocity S-wave (km/s) = 2.70535 3.38309 3.06302
# Velocity P-wave (km/s) = 5.25670 5.78720 5.52831
#
# Compressibility (1/GPa) = 0.02848586
#
# Stress axis : x y z
#
# Youngs Moduli (GPa) = 18.96012 18.96012 71.88399
#
# Poissons Ratio (x) = 0.82113 0.07716
# Poissons Ratio (y) = 0.82113 0.07716
# Poissons Ratio (z) = 0.02035 0.02035
#
# Static dielectric constant tensor:
#      x y z
#    x 3.585120 0.000000 0.000000 
#    y 0.000000 3.585120 0.000000 
#    z 0.000000 0.000000 3.705510 
# 
# 
# High freq. dielectric constant tensor:
#      x y z
#    x 1.748440 0.000000 0.000000 
#    y 0.000000 1.748440 0.000000 
#    z 0.000000 0.000000 1.771620 
# 
# From -- ./inp_files/5978.got.cif
#   From: 2010.03.12/outbox.cif.g09.slc.cpg/sg136_3_cif.got.tgz:5978.got - 2010.04.06 18:39:43.
