data_PCOD8318289
_publ_section_title
;
Structure prediction by ZEFSAII (Michael W. Deem and Ramdas Pophale) SiO2 
 PCOD8318289
Probable space group: P 42/M N M
;
_chemical_formula_sum "Si O2"
_cell_formula_units_Z 88
_cell_length_a 12.180295
_cell_length_b 12.180295
_cell_length_c 27.458779
_cell_angle_alpha 90.000000
_cell_angle_beta 90.000000
_cell_angle_gamma 90.000000
_cell_volume 4073.773092
_symmetry_space_group_name_H-M "P 42/M N M"
_symmetry_group_IT_number 136
_symmetry_cell_setting 'tetragonal'
loop_
_space_group_symop_operation_xyz
x,y,z
1/2-y,1/2+x,1/2+z
-x,-y,z
1/2+y,1/2-x,1/2+z
1/2+x,1/2-y,1/2-z
1/2-x,1/2+y,1/2-z
y,x,-z
-y,-x,-z
-x,-y,-z
1/2+y,1/2-x,1/2-z
x,y,-z
1/2-y,1/2+x,1/2-z
1/2-x,1/2+y,1/2+z
1/2+x,1/2-y,1/2+z
-y,-x,z
y,x,z
loop_
_atom_site_type_symbol
_atom_site_label
_atom_site_fract_x
_atom_site_fract_y
_atom_site_fract_z
Si Si1 0.886335 0.708999 0.556054
Si Si2 0.236187 0.423918 0.876571
Si Si3 0.520231 0.185948 0.596153
Si Si4 0.916940 0.916940 0.944068
Si Si5 0.015595 0.670710 0.732767
Si Si6 0.676811 0.500021 0.684968
O O1 0.926736 0.714140 0.500000
O O2 0.768823 0.768823 0.561579
O O3 0.875518 0.582232 0.572104
O O4 0.971784 0.774324 0.591229
O O5 0.331342 0.331342 0.873831
O O6 0.129117 0.386581 0.906420
O O7 0.196177 0.460271 0.823252
O O8 0.548723 0.295315 0.567998
O O9 0.494707 0.213502 0.652546
O O10 0.933282 0.933282 0.000000
O O11 0.000000 0.000000 0.916122
O O12 0.899524 0.610803 0.741000
O O13 0.009327 0.788794 0.758817
O O14 0.615374 0.384627 0.675238
O O15 0.600140 0.600140 0.670533
#
# Coordination Sequence:
#
# PCOD8318289 Si02
#       6
#    16  16  16   8  16  16
#     4  11  27  49  73 101 137 186 239 290 345 408
#     4  12  26  46  72 105 143 182 233 289 346 414
#     4  12  22  42  68 102 142 177 227 288 349 417
#     4  11  22  36  62 100 143 185 225 279 349 419
#     4  11  24  41  66  97 134 180 228 280 341 409
#     4  11  22  37  62  95 133 178 224 276 342 412
#
# _framework density 21.601596000000001
#
# number of rings (size 3 to 8) (size 9 to 14) (size 15 to 20)
#    0.000    0.636    3.636    4.364    2.545    5.818 
#    0.000    0.909    0.000    0.000    0.000    0.000 
#    0.000    0.000    0.000    0.000    0.000    0.000 
#
# Total GULP energy -1091144.592642 kJ/mol
# GULP energy per Si atom -12399.370371 kJ/mol
# Density = 2.155243 g / cm^3
# Si number density = 21.601596 Si / 1000 Ang^3
#
#
#
# Elastic Constant Matrix: (Units=GPa)
#
#
# Indices 1 2 3 4 5 6 
#
# 1 82.4342 28.9048 40.6007 0.0000 0.0000 0.0000
# 2 28.9048 82.4342 40.6007 0.0000 0.0000 0.0000
# 3 40.6007 40.6007 115.2825 0.0000 0.0000 0.0000
# 4 0.0000 0.0000 0.0000 29.3832 0.0000 0.0000
# 5 0.0000 0.0000 0.0000 0.0000 29.3832 0.0000
# 6 0.0000 0.0000 0.0000 0.0000 0.0000 23.3762
#
#
#
# Elastic Compliance Matrix: (Units=1/GPa)
#
#
# Indices 1 2 3 4 5 6 
#
# 1 0.015384 -0.003298 -0.004256 0.000000 0.000000 0.000000
# 2 -0.003298 0.015384 -0.004256 0.000000 0.000000 0.000000
# 3 -0.004256 -0.004256 0.011672 0.000000 0.000000 0.000000
# 4 0.000000 0.000000 0.000000 0.034033 0.000000 0.000000
# 5 0.000000 0.000000 0.000000 0.000000 0.034033 0.000000
# 6 0.000000 0.000000 0.000000 0.000000 0.000000 0.042779
#
#
# Mechanical properties :
#
#
# Convention : Reuss Voigt Hill
#
# Bulk Modulus (GPa) = 53.13949 55.59590 54.36770
# Shear Modulus (GPa) = 27.29578 27.76482 27.53030
#
# Velocity S-wave (km/s) = 3.55857 3.58902 3.57383
# Velocity P-wave (km/s) = 6.44498 6.55496 6.50020
#
# Compressibility (1/GPa) = 0.01881840
#
# Stress axis : x y z
#
# Youngs Moduli (GPa) = 65.00423 65.00423 85.67171
#
# Poissons Ratio (x) = 0.21437 0.36466
# Poissons Ratio (y) = 0.21437 0.36466
# Poissons Ratio (z) = 0.27669 0.27669
#
# Static dielectric constant tensor:
#      x y z
#    x 3.950200 0.000000 0.000000 
#    y 0.000000 3.950200 0.000000 
#    z 0.000000 0.000000 4.020370 
# 
# 
# High freq. dielectric constant tensor:
#      x y z
#    x 1.849610 0.000000 0.000000 
#    y 0.000000 1.849610 0.000000 
#    z 0.000000 0.000000 1.860550 
# 
# From -- ./inp_files/9764.got.cif
#   From: 2010.03.12/outbox.cif.g09.slc.cpg/sg136_5_cif.got.tgz:9764.got - 2010.04.06 18:39:43.
