data_PCOD8318344
_publ_section_title
;
Structure prediction by ZEFSAII (Michael W. Deem and Ramdas Pophale) SiO2 
 PCOD8318344
Probable space group: P 42/M N M
;
_chemical_formula_sum "Si O2"
_cell_formula_units_Z 96
_cell_length_a 14.458002
_cell_length_b 14.458002
_cell_length_c 33.544996
_cell_angle_alpha 90.000000
_cell_angle_beta 90.000000
_cell_angle_gamma 90.000000
_cell_volume 7012.038717
_symmetry_space_group_name_H-M "P 42/M N M"
_symmetry_group_IT_number 136
_symmetry_cell_setting 'tetragonal'
loop_
_space_group_symop_operation_xyz
x,y,z
1/2-y,1/2+x,1/2+z
-x,-y,z
1/2+y,1/2-x,1/2+z
1/2+x,1/2-y,1/2-z
1/2-x,1/2+y,1/2-z
y,x,-z
-y,-x,-z
-x,-y,-z
1/2+y,1/2-x,1/2-z
x,y,-z
1/2-y,1/2+x,1/2-z
1/2-x,1/2+y,1/2+z
1/2+x,1/2-y,1/2+z
-y,-x,z
y,x,z
loop_
_atom_site_type_symbol
_atom_site_label
_atom_site_fract_x
_atom_site_fract_y
_atom_site_fract_z
Si Si1 0.606289 0.893718 0.749999
Si Si2 0.606372 0.753959 0.317020
Si Si3 0.101424 0.250026 0.907303
Si Si4 0.106891 0.500003 0.547080
Si Si5 0.398576 0.249974 0.592695
Si Si6 0.246050 0.606365 0.317017
O O1 0.500004 0.875012 0.760391
O O2 0.638787 0.837683 0.711102
O O3 0.662330 0.861216 0.788893
O O4 0.662555 0.662555 0.305546
O O5 0.626308 0.783281 0.362696
O O6 0.500005 0.729819 0.309711
O O7 0.178655 0.178655 0.923866
O O8 0.126306 0.283276 0.862692
O O9 0.092029 0.341613 0.935286
O O10 0.000000 0.199741 0.906748
O O11 0.116948 0.500010 0.500000
O O12 0.158389 0.407974 0.564710
O O13 0.000000 0.500000 0.560421
O O14 0.321346 0.321346 0.576132
O O15 0.337460 0.662541 0.305545
#
# Coordination Sequence:
#
# PCOD8318344 Si02
#       6
#    16  16  16  16  16  16
#     4   9  17  26  38  58  79 103 138 176 208 241
#     4   9  16  27  40  57  79 105 134 167 203 242
#     4   8  16  28  42  61  84 112 142 170 207 253
#     4   9  18  30  43  61  85 113 142 172 209 249
#     4   8  16  28  42  61  84 112 142 170 207 253
#     4   9  16  27  40  57  79 105 134 167 203 242
#
# _framework density 13.69074
#
# number of rings (size 3 to 8) (size 9 to 14) (size 15 to 20)
#    1.000    2.333    0.000    0.500    0.000    2.667 
#    0.000    3.333    0.000    1.000    0.000    0.000 
#    0.000    0.667    0.000   11.000    0.000    8.000 
#
# Total GULP energy -1189266.832216 kJ/mol
# GULP energy per Si atom -12388.196169 kJ/mol
# Density = 1.365958 g / cm^3
# Si number density = 13.690740 Si / 1000 Ang^3
#
#
#
# Elastic Constant Matrix: (Units=GPa)
#
#
# Indices 1 2 3 4 5 6 
#
# 1 73.1805 49.0466 47.9546 0.0000 0.0000 0.0000
# 2 49.0466 73.1805 47.9546 0.0000 0.0000 0.0000
# 3 47.9546 47.9546 72.9089 0.0000 0.0000 0.0000
# 4 0.0000 0.0000 0.0000 21.4507 0.0000 0.0000
# 5 0.0000 0.0000 0.0000 0.0000 21.4507 0.0000
# 6 0.0000 0.0000 0.0000 0.0000 0.0000 17.8270
#
#
#
# Elastic Compliance Matrix: (Units=1/GPa)
#
#
# Indices 1 2 3 4 5 6 
#
# 1 0.029172 -0.012264 -0.011121 0.000000 0.000000 0.000000
# 2 -0.012264 0.029172 -0.011121 0.000000 0.000000 0.000000
# 3 -0.011121 -0.011121 0.028345 0.000000 0.000000 0.000000
# 4 0.000000 0.000000 0.000000 0.046619 0.000000 0.000000
# 5 0.000000 0.000000 0.000000 0.000000 0.046619 0.000000
# 6 0.000000 0.000000 0.000000 0.000000 0.000000 0.056095
#
#
# Mechanical properties :
#
#
# Convention : Reuss Voigt Hill
#
# Bulk Modulus (GPa) = 56.57030 56.57572 56.57301
# Shear Modulus (GPa) = 16.08115 17.09995 16.59055
#
# Velocity S-wave (km/s) = 3.43096 3.53798 3.48488
# Velocity P-wave (km/s) = 7.55680 7.62256 7.58975
#
# Compressibility (1/GPa) = 0.01767712
#
# Stress axis : x y z
#
# Youngs Moduli (GPa) = 34.27994 34.27994 35.27988
#
# Poissons Ratio (x) = 0.42040 0.39234
# Poissons Ratio (y) = 0.42040 0.39234
# Poissons Ratio (z) = 0.38122 0.38122
#
# Static dielectric constant tensor:
#      x y z
#    x 2.620050 0.000000 0.000000 
#    y 0.000000 2.620050 0.000000 
#    z 0.000000 0.000000 2.726580 
# 
# 
# High freq. dielectric constant tensor:
#      x y z
#    x 1.504440 0.000000 0.000000 
#    y 0.000000 1.504440 0.000000 
#    z 0.000000 0.000000 1.524240 
# 
# From -- ./inp_files/9894.got.cif
#   From: 2010.03.12/outbox.cif.g09.slc.cpg/sg136_5_cif.got.tgz:9894.got - 2010.04.06 18:39:43.
