data_PCOD8318861
_publ_section_title
;
Structure prediction by ZEFSAII (Michael W. Deem and Ramdas Pophale) SiO2 
 PCOD8318861
Probable space group: P 42/N C M
;
_chemical_formula_sum "Si O2"
_cell_formula_units_Z 112
_cell_length_a 17.073366
_cell_length_b 17.073366
_cell_length_c 21.760452
_cell_angle_alpha 90.000000
_cell_angle_beta 90.000000
_cell_angle_gamma 90.000000
_cell_volume 6343.167984
_symmetry_space_group_name_H-M "P 42/N C M"
_symmetry_group_IT_number 138
_space_group.IT_coordinate_system_code '2'
_symmetry_cell_setting 'tetragonal'
loop_
_space_group_symop_operation_xyz
x,y,z
1/2-y,x,1/2+z
1/2-x,1/2-y,z
y,1/2-x,1/2+z
1/2+x,-y,1/2-z
-x,1/2+y,1/2-z
1/2+y,1/2+x,-z
-y,-x,-z
-x,-y,-z
1/2+y,-x,1/2-z
1/2+x,1/2+y,-z
-y,1/2+x,1/2-z
1/2-x,y,1/2+z
x,1/2-y,1/2+z
1/2-y,1/2-x,z
y,x,z
loop_
_atom_site_type_symbol
_atom_site_label
_atom_site_fract_x
_atom_site_fract_y
_atom_site_fract_z
Si Si1 0.748997 0.875038 0.084782
Si Si2 0.239177 0.481653 0.305148
Si Si3 0.478117 0.149556 0.498026
Si Si4 0.375777 0.251795 0.692935
Si Si5 0.625602 0.226418 0.734706
Si Si6 0.976723 0.311794 0.627209
Si Si7 0.593162 0.470041 0.126147
O O1 0.672973 0.827028 0.063128
O O2 0.816290 0.816290 0.110460
O O3 0.722476 0.935680 0.137877
O O4 0.781930 0.921735 0.026761
O O5 0.217231 0.418637 0.253528
O O6 0.295094 0.548839 0.275907
O O7 0.163825 0.530161 0.326455
O O8 0.424718 0.075283 0.520736
O O9 0.528585 0.188657 0.553048
O O10 0.538773 0.122071 0.444869
O O11 0.321426 0.178575 0.710916
O O12 0.322918 0.322918 0.665989
O O13 0.438996 0.224047 0.643039
O O14 0.659770 0.310667 0.753540
O O15 0.595566 0.231009 0.663089
O O16 0.967786 0.403134 0.645885
O O17 0.555158 0.555158 0.131174
#
# Coordination Sequence:
#
# PCOD8318861 Si02
#       7
#    16  16  16  16  16  16  16
#     4   9  17  30  51  78 109 143 173 203 244 302
#     4  10  18  31  52  74  97 135 173 215 258 306
#     4   9  18  30  47  77 110 136 167 209 256 301
#     4  10  20  31  45  70 106 140 169 205 252 311
#     4  10  21  38  55  73  97 129 173 225 270 310
#     4  11  20  32  52  74  99 137 170 207 260 313
#     4  10  18  30  49  76 105 131 166 215 257 300
#
# _framework density 17.656793
#
# number of rings (size 3 to 8) (size 9 to 14) (size 15 to 20)
#    0.000    2.143    1.429    4.286    0.000    2.857 
#    0.000    1.429    0.000    3.429    0.000    1.000 
#    0.000    0.000    0.000    0.000    0.000    0.000 
#
# Total GULP energy -1387725.438701 kJ/mol
# GULP energy per Si atom -12390.405703 kJ/mol
# Density = 1.761661 g / cm^3
# Si number density = 17.656793 Si / 1000 Ang^3
#
#
#
# Elastic Constant Matrix: (Units=GPa)
#
#
# Indices 1 2 3 4 5 6 
#
# 1 80.9532 33.7193 33.5043 0.0000 0.0000 0.0000
# 2 33.7193 80.9532 33.5043 0.0000 0.0000 0.0000
# 3 33.5043 33.5043 81.8477 0.0000 0.0000 0.0000
# 4 0.0000 0.0000 0.0000 20.6419 0.0000 0.0000
# 5 0.0000 0.0000 0.0000 0.0000 20.6419 0.0000
# 6 0.0000 0.0000 0.0000 0.0000 0.0000 29.1538
#
#
#
# Elastic Compliance Matrix: (Units=1/GPa)
#
#
# Indices 1 2 3 4 5 6 
#
# 1 0.016317 -0.004854 -0.004692 0.000000 0.000000 0.000000
# 2 -0.004854 0.016317 -0.004692 0.000000 0.000000 0.000000
# 3 -0.004692 -0.004692 0.016059 0.000000 0.000000 0.000000
# 4 0.000000 0.000000 0.000000 0.048445 0.000000 0.000000
# 5 0.000000 0.000000 0.000000 0.000000 0.048445 0.000000
# 6 0.000000 0.000000 0.000000 0.000000 0.000000 0.034301
#
#
# Mechanical properties :
#
#
# Convention : Reuss Voigt Hill
#
# Bulk Modulus (GPa) = 49.46705 49.46776 49.46741
# Shear Modulus (GPa) = 23.24503 23.62260 23.43382
#
# Velocity S-wave (km/s) = 3.63229 3.66167 3.64701
# Velocity P-wave (km/s) = 6.75781 6.77895 6.76839
#
# Compressibility (1/GPa) = 0.02021548
#
# Stress axis : x y z
#
# Youngs Moduli (GPa) = 61.28673 61.28673 62.26956
#
# Poissons Ratio (x) = 0.29751 0.29217
# Poissons Ratio (y) = 0.29751 0.29217
# Poissons Ratio (z) = 0.28756 0.28756
#
# Static dielectric constant tensor:
#      x y z
#    x 3.250360 0.000000 0.000000 
#    y 0.000000 3.250360 0.000000 
#    z 0.000000 0.000000 3.259980 
# 
# 
# High freq. dielectric constant tensor:
#      x y z
#    x 1.671490 0.000000 0.000000 
#    y 0.000000 1.671490 0.000000 
#    z 0.000000 0.000000 1.676990 
# 
# From -- ./inp_files/6482.got.cif
#   From: 2010.03.12/outbox.cif.g09.slc.cpg/sg138_4_cif.got.tgz:6482.got - 2010.04.08 09:41:05.
