data_PCOD8318990
_publ_section_title
;
Structure prediction by ZEFSAII (Michael W. Deem and Ramdas Pophale) SiO2 
 PCOD8318990
Probable space group: P 42/N C M
;
_chemical_formula_sum "Si O2"
_cell_formula_units_Z 112
_cell_length_a 15.004084
_cell_length_b 15.004084
_cell_length_c 24.899855
_cell_angle_alpha 90.000000
_cell_angle_beta 90.000000
_cell_angle_gamma 90.000000
_cell_volume 5605.518521
_symmetry_space_group_name_H-M "P 42/N C M"
_symmetry_group_IT_number 138
_space_group.IT_coordinate_system_code '2'
_symmetry_cell_setting 'tetragonal'
loop_
_space_group_symop_operation_xyz
x,y,z
1/2-y,x,1/2+z
1/2-x,1/2-y,z
y,1/2-x,1/2+z
1/2+x,-y,1/2-z
-x,1/2+y,1/2-z
1/2+y,1/2+x,-z
-y,-x,-z
-x,-y,-z
1/2+y,-x,1/2-z
1/2+x,1/2+y,-z
-y,1/2+x,1/2-z
1/2-x,y,1/2+z
x,1/2-y,1/2+z
1/2-y,1/2-x,z
y,x,z
loop_
_atom_site_type_symbol
_atom_site_label
_atom_site_fract_x
_atom_site_fract_y
_atom_site_fract_z
Si Si1 0.433927 0.291920 0.576234
Si Si2 0.704588 0.337530 0.858924
Si Si3 0.105392 0.250401 0.282552
Si Si4 0.250689 0.524577 0.377266
Si Si5 0.324398 0.032396 0.675715
Si Si6 0.752889 0.609027 0.036040
Si Si7 0.859705 0.114813 0.436123
O O1 0.338076 0.338076 0.581017
O O2 0.436551 0.213063 0.618840
O O3 0.450246 0.249919 0.517536
O O4 0.511365 0.366061 0.580525
O O5 0.750000 0.250000 0.828910
O O6 0.605325 0.317837 0.878420
O O7 0.689407 0.424536 0.820831
O O8 0.764385 0.352894 0.912117
O O9 0.152556 0.347445 0.287755
O O10 0.174956 0.174956 0.301087
O O11 0.075433 0.237045 0.221408
O O12 0.016078 0.240007 0.317841
O O13 0.213602 0.446253 0.414546
O O14 0.343121 0.557954 0.403471
O O15 0.426338 0.073663 0.680751
O O16 0.853103 0.646898 0.047606
O O17 0.691663 0.691663 0.025351
O O18 0.865639 0.134362 0.500000
#
# Coordination Sequence:
#
# PCOD8318990 Si02
#       7
#    16  16  16  16  16  16  16
#     4  10  20  35  58  88 120 156 199 251 310 366
#     4   9  22  41  61  88 119 160 205 255 306 364
#     4  10  22  41  65  90 119 158 201 250 311 374
#     4  11  21  37  58  86 118 156 199 247 304 368
#     4  10  21  41  63  88 120 158 209 261 307 367
#     4  10  20  33  53  84 120 154 189 240 305 369
#     4  10  20  39  60  87 119 159 205 249 298 363
#
# _framework density 19.980311
#
# number of rings (size 3 to 8) (size 9 to 14) (size 15 to 20)
#    0.000    2.000    1.429    1.714    0.000    7.714 
#    7.714    0.000    0.000    2.571    0.000    0.000 
#    0.000    0.000    0.000    0.000    0.000    0.000 
#
# Total GULP energy -1387595.212869 kJ/mol
# GULP energy per Si atom -12389.242972 kJ/mol
# Density = 1.993483 g / cm^3
# Si number density = 19.980311 Si / 1000 Ang^3
#
#
#
# Elastic Constant Matrix: (Units=GPa)
#
#
# Indices 1 2 3 4 5 6 
#
# 1 99.0291 36.9834 30.5572 0.0000 0.0000 0.0000
# 2 36.9834 99.0291 30.5571 0.0000 0.0000 0.0000
# 3 30.5572 30.5571 80.1695 0.0000 0.0000 0.0000
# 4 0.0000 0.0000 0.0000 27.1184 0.0000 0.0000
# 5 0.0000 0.0000 0.0000 0.0000 27.1183 0.0000
# 6 0.0000 0.0000 0.0000 0.0000 0.0000 28.4914
#
#
#
# Elastic Compliance Matrix: (Units=1/GPa)
#
#
# Indices 1 2 3 4 5 6 
#
# 1 0.012494 -0.003623 -0.003382 0.000000 0.000000 0.000000
# 2 -0.003623 0.012494 -0.003381 0.000000 0.000000 0.000000
# 3 -0.003382 -0.003381 0.015051 0.000000 0.000000 0.000000
# 4 0.000000 0.000000 0.000000 0.036875 0.000000 0.000000
# 5 0.000000 0.000000 0.000000 0.000000 0.036875 0.000000
# 6 0.000000 0.000000 0.000000 0.000000 0.000000 0.035098
#
#
# Mechanical properties :
#
#
# Convention : Reuss Voigt Hill
#
# Bulk Modulus (GPa) = 51.89768 52.71368 52.30568
# Shear Modulus (GPa) = 28.39561 28.55430 28.47495
#
# Velocity S-wave (km/s) = 3.77394 3.78447 3.77921
# Velocity P-wave (km/s) = 6.70977 6.74807 6.72895
#
# Compressibility (1/GPa) = 0.01926868
#
# Stress axis : x y z
#
# Youngs Moduli (GPa) = 80.03574 80.03579 66.43932
#
# Poissons Ratio (x) = 0.28995 0.22466
# Poissons Ratio (y) = 0.28995 0.22466
# Poissons Ratio (z) = 0.27064 0.27064
#
# Static dielectric constant tensor:
#      x y z
#    x 3.816790 0.000000 0.000000 
#    y 0.000000 3.816790 0.000000 
#    z 0.000000 0.000000 3.524510 
# 
# 
# High freq. dielectric constant tensor:
#      x y z
#    x 1.778680 0.000000 0.000000 
#    y 0.000000 1.778680 0.000000 
#    z 0.000000 0.000000 1.772450 
# 
# From -- ./inp_files/7073.got.cif
#   From: 2010.03.12/outbox.cif.g09.slc.cpg/sg138_4_cif.got.tgz:7073.got - 2010.04.08 09:41:05.
