data_PCOD8318315
_publ_section_title
;
Structure prediction by ZEFSAII (Michael W. Deem and Ramdas Pophale) SiO2 
 PCOD8318315
Probable space group: P 42/M N M
;
_chemical_formula_sum "Si O2"
_cell_formula_units_Z 56
_cell_length_a 11.332193
_cell_length_b 11.332193
_cell_length_c 21.809018
_cell_angle_alpha 90.000000
_cell_angle_beta 90.000000
_cell_angle_gamma 90.000000
_cell_volume 2800.683519
_symmetry_space_group_name_H-M "P 42/M N M"
_symmetry_group_IT_number 136
_symmetry_cell_setting 'tetragonal'
loop_
_space_group_symop_operation_xyz
x,y,z
1/2-y,1/2+x,1/2+z
-x,-y,z
1/2+y,1/2-x,1/2+z
1/2+x,1/2-y,1/2-z
1/2-x,1/2+y,1/2-z
y,x,-z
-y,-x,-z
-x,-y,-z
1/2+y,1/2-x,1/2-z
x,y,-z
1/2-y,1/2+x,1/2-z
1/2-x,1/2+y,1/2+z
1/2+x,1/2-y,1/2+z
-y,-x,z
y,x,z
loop_
_atom_site_type_symbol
_atom_site_label
_atom_site_fract_x
_atom_site_fract_y
_atom_site_fract_z
Si Si1 0.132594 0.553921 0.399745
Si Si2 0.323744 0.323744 0.930532
Si Si3 0.998020 0.805262 0.000000
Si Si4 0.823659 0.510048 0.732966
Si Si5 0.404464 0.404464 0.197485
O O1 0.140051 0.687539 0.423237
O O2 0.221221 0.479814 0.441900
O O3 0.193503 0.549567 0.333011
O O4 0.000000 0.500000 0.402698
O O5 0.391399 0.391399 0.875779
O O6 0.362237 0.362237 0.000000
O O7 0.867707 0.867707 0.000000
O O8 0.095842 0.904159 0.000000
O O9 0.881068 0.412993 0.778053
O O10 0.710741 0.553744 0.767852
O O11 0.500000 0.500000 0.211624
#
# Coordination Sequence:
#
# PCOD8318315 Si02
#       5
#    16   8   8  16   8
#     4  12  22  43  71  96 130 180 228 270 345 411
#     4  12  24  45  70  96 133 188 228 278 330 415
#     4  11  25  42  64 103 140 170 224 286 341 405
#     4  11  23  45  69  98 131 175 217 278 341 411
#     4  12  28  41  68 104 137 174 226 284 344 398
#
# _framework density 19.995118999999999
#
# number of rings (size 3 to 8) (size 9 to 14) (size 15 to 20)
#    0.000    0.429    8.571    0.429    6.000    0.286 
#    0.000    1.429    0.000    0.000    0.000    0.000 
#    0.000    0.000    0.000    0.000    0.000    0.000 
#
# Total GULP energy -693995.952366 kJ/mol
# GULP energy per Si atom -12392.784864 kJ/mol
# Density = 1.994961 g / cm^3
# Si number density = 19.995119 Si / 1000 Ang^3
#
#
#
# Elastic Constant Matrix: (Units=GPa)
#
#
# Indices 1 2 3 4 5 6 
#
# 1 80.8245 89.9792 39.5159 0.0000 0.0000 0.0000
# 2 89.9792 80.8240 39.5161 0.0000 0.0000 0.0000
# 3 39.5159 39.5161 141.3972 0.0000 0.0000 0.0000
# 4 0.0000 0.0000 0.0000 21.5565 0.0000 0.0000
# 5 0.0000 0.0000 0.0000 0.0000 21.5551 0.0000
# 6 0.0000 0.0000 0.0000 0.0000 0.0000 25.0935
#
#
#
# Elastic Compliance Matrix: (Units=1/GPa)
#
#
# Indices 1 2 3 4 5 6 
#
# 1 -0.051253 0.057977 -0.001879 0.000000 0.000000 0.000000
# 2 0.057977 -0.051253 -0.001879 0.000000 0.000000 0.000000
# 3 -0.001879 -0.001879 0.008123 0.000000 0.000000 0.000000
# 4 0.000000 0.000000 0.000000 0.046390 0.000000 0.000000
# 5 0.000000 0.000000 0.000000 0.000000 0.046393 0.000000
# 6 0.000000 0.000000 0.000000 0.000000 0.000000 0.039851
#
#
# Mechanical properties :
#
#
# Convention : Reuss Voigt Hill
#
# Bulk Modulus (GPa) = 71.15295 71.22981 71.19138
# Shear Modulus (GPa) = -76.33289 22.57665 -26.87812
#
# Velocity S-wave (km/s) = -6.18536 3.36387 -3.67036
# Velocity P-wave (km/s) = 3.91779 7.12660 4.20947
#
# Compressibility (1/GPa) = 0.01405423
#
# Stress axis : x y z
#
# Youngs Moduli (GPa) = -19.51115 -19.51100 123.11290
#
# Poissons Ratio (x) = 1.13119 0.23137
# Poissons Ratio (y) = 1.13120 0.23134
# Poissons Ratio (z) = -0.03667 -0.03666
#
# Static dielectric constant tensor:
#      x y z
#    x 3.723240 0.000000 0.000000 
#    y 0.000000 3.723240 0.000000 
#    z 0.000000 0.000000 4.191240 
# 
# 
# High freq. dielectric constant tensor:
#      x y z
#    x 1.778230 0.000000 0.000000 
#    y 0.000000 1.778230 0.000000 
#    z 0.000000 0.000000 1.799920 
# 
# From -- ./inp_files/6991.got.cif
#   From: 2010.03.12/outbox.cif.g09.slc.cpg/sg136_4_cif.got.tgz:6991.got - 2010.04.06 18:39:43.
