data_PCOD8318966
_publ_section_title
;
Structure prediction by ZEFSAII (Michael W. Deem and Ramdas Pophale) SiO2 
 PCOD8318966
Probable space group: P 42/N C M
;
_chemical_formula_sum "Si O2"
_cell_formula_units_Z 52
_cell_length_a 16.097053
_cell_length_b 16.097053
_cell_length_c 9.868643
_cell_angle_alpha 90.000000
_cell_angle_beta 90.000000
_cell_angle_gamma 90.000000
_cell_volume 2557.114569
_symmetry_space_group_name_H-M "P 42/N C M"
_symmetry_group_IT_number 138
_space_group.IT_coordinate_system_code '2'
_symmetry_cell_setting 'tetragonal'
loop_
_space_group_symop_operation_xyz
x,y,z
1/2-y,x,1/2+z
1/2-x,1/2-y,z
y,1/2-x,1/2+z
1/2+x,-y,1/2-z
-x,1/2+y,1/2-z
1/2+y,1/2+x,-z
-y,-x,-z
-x,-y,-z
1/2+y,-x,1/2-z
1/2+x,1/2+y,-z
-y,1/2+x,1/2-z
1/2-x,y,1/2+z
x,1/2-y,1/2+z
1/2-y,1/2-x,z
y,x,z
loop_
_atom_site_type_symbol
_atom_site_label
_atom_site_fract_x
_atom_site_fract_y
_atom_site_fract_z
Si Si1 0.122468 0.870495 0.846754
Si Si2 0.004189 0.255346 0.264905
Si Si3 0.115340 0.250538 0.516354
Si Si4 0.750000 0.250000 0.250000
O O1 0.161991 0.946420 0.760124
O O2 0.042058 0.831241 0.773078
O O3 0.191717 0.799372 0.853466
O O4 0.100858 0.899143 0.000000
O O5 0.036896 0.246949 0.417348
O O6 0.081944 0.268406 0.166408
O O7 0.159586 0.340415 0.512267
O O8 0.180264 0.180264 0.474051
#
# Coordination Sequence:
#
# PCOD8318966 Si02
#       4
#    16  16  16   4
#     4  10  19  36  59  93 131 160 195 252 311 377
#     4  11  22  40  66  95 126 164 206 253 320 374
#     4  11  24  44  66  87 118 166 222 267 302 364
#     4   8  18  28  60  86 120 170 208 230 288 370
#
# _framework density 20.335419999999999
#
# number of rings (size 3 to 8) (size 9 to 14) (size 15 to 20)
#    0.000    1.538    3.077    2.308    0.000    3.692 
#    0.000    9.231    0.000    0.000    0.000    0.000 
#    0.000    0.000    0.000    0.000    0.000    0.000 
#
# Total GULP energy -644763.696662 kJ/mol
# GULP energy per Si atom -12399.301859 kJ/mol
# Density = 2.028914 g / cm^3
# Si number density = 20.335420 Si / 1000 Ang^3
#
#
#
# Elastic Constant Matrix: (Units=GPa)
#
#
# Indices 1 2 3 4 5 6 
#
# 1 90.0962 37.3660 24.3782 0.0000 0.0000 0.0000
# 2 37.3660 90.0962 24.3783 0.0000 0.0000 0.0000
# 3 24.3782 24.3783 82.3073 0.0000 0.0000 0.0000
# 4 0.0000 0.0000 0.0000 33.7158 0.0000 0.0000
# 5 0.0000 0.0000 0.0000 0.0000 33.7159 0.0000
# 6 0.0000 0.0000 0.0000 0.0000 0.0000 33.1052
#
#
#
# Elastic Compliance Matrix: (Units=1/GPa)
#
#
# Indices 1 2 3 4 5 6 
#
# 1 0.013906 -0.005058 -0.002621 0.000000 0.000000 0.000000
# 2 -0.005058 0.013906 -0.002621 0.000000 0.000000 0.000000
# 3 -0.002621 -0.002621 0.013702 0.000000 0.000000 0.000000
# 4 0.000000 0.000000 0.000000 0.029660 0.000000 0.000000
# 5 0.000000 0.000000 0.000000 0.000000 0.029660 0.000000
# 6 0.000000 0.000000 0.000000 0.000000 0.000000 0.030207
#
#
# Mechanical properties :
#
#
# Convention : Reuss Voigt Hill
#
# Bulk Modulus (GPa) = 47.81192 48.30495 48.05843
# Shear Modulus (GPa) = 31.52363 31.86586 31.69475
#
# Velocity S-wave (km/s) = 3.94151 3.96285 3.95219
# Velocity P-wave (km/s) = 6.65407 6.68913 6.67163
#
# Compressibility (1/GPa) = 0.02091529
#
# Stress axis : x y z
#
# Youngs Moduli (GPa) = 71.91052 71.91047 72.98223
#
# Poissons Ratio (x) = 0.36374 0.19126
# Poissons Ratio (y) = 0.36374 0.19126
# Poissons Ratio (z) = 0.18845 0.18845
#
# Static dielectric constant tensor:
#      x y z
#    x 3.641480 0.000000 0.000000 
#    y 0.000000 3.641480 0.000000 
#    z 0.000000 0.000000 3.455920 
# 
# 
# High freq. dielectric constant tensor:
#      x y z
#    x 1.789580 0.000000 0.000000 
#    y 0.000000 1.789580 0.000000 
#    z 0.000000 0.000000 1.793730 
# 
# From -- ./inp_files/1070.got.cif
#   From: 2010.03.12/outbox.cif.g09.slc.cpg/sg138_1_cif.got.tgz:1070.got - 2010.04.08 09:41:05.
