data_PCOD8318452
_publ_section_title
;
Structure prediction by ZEFSAII (Michael W. Deem and Ramdas Pophale) SiO2 
 PCOD8318452
Probable space group: P 42/N M C
;
_chemical_formula_sum "Si O2"
_cell_formula_units_Z 128
_cell_length_a 18.447699
_cell_length_b 18.447699
_cell_length_c 21.393919
_cell_angle_alpha 90.000000
_cell_angle_beta 90.000000
_cell_angle_gamma 90.000000
_cell_volume 7280.727134
_symmetry_space_group_name_H-M "P 42/N M C"
_symmetry_group_IT_number 137
_space_group.IT_coordinate_system_code '2'
_symmetry_cell_setting 'tetragonal'
loop_
_space_group_symop_operation_xyz
x,y,z
1/2-y,x,1/2+z
1/2-x,1/2-y,z
y,1/2-x,1/2+z
1/2+x,-y,-z
-x,1/2+y,-z
1/2+y,1/2+x,1/2-z
-y,-x,1/2-z
-x,-y,-z
1/2+y,-x,1/2-z
1/2+x,1/2+y,-z
-y,1/2+x,1/2-z
1/2-x,y,z
x,1/2-y,z
1/2-y,1/2-x,1/2+z
y,x,1/2+z
loop_
_atom_site_type_symbol
_atom_site_label
_atom_site_fract_x
_atom_site_fract_y
_atom_site_fract_z
Si Si1 0.457097 0.417963 0.666245
Si Si2 0.165640 0.550144 0.264058
Si Si3 0.330233 0.832704 0.898775
Si Si4 0.958624 0.667220 0.996316
Si Si5 0.079376 0.831076 0.477379
Si Si6 0.332281 0.418533 0.049085
Si Si7 0.897785 0.458159 0.607095
Si Si8 0.018073 0.832553 0.859304
O O1 0.486893 0.377734 0.727534
O O2 0.427271 0.355872 0.620892
O O3 0.520474 0.465533 0.633633
O O4 0.390294 0.472772 0.682146
O O5 0.127677 0.627677 0.250000
O O6 0.250000 0.552993 0.244082
O O7 0.159976 0.531542 0.337390
O O8 0.250000 0.849523 0.869728
O O9 0.333100 0.750000 0.922853
O O10 0.395137 0.844864 0.848635
O O11 0.346346 0.883366 0.957178
O O12 0.963779 0.750000 0.018217
O O13 0.984935 0.615305 0.051971
O O14 0.875750 0.645664 0.984322
O O15 0.003926 0.653711 0.933052
O O16 0.092537 0.750000 0.453767
O O17 0.113611 0.878680 0.422266
O O18 0.994030 0.846365 0.486901
O O19 0.250000 0.393512 0.047322
O O20 0.995758 0.750000 0.840786
#
# Coordination Sequence:
#
# PCOD8318452 Si02
#       8
#    16  16  16  16  16  16  16  16
#     4   9  19  32  51  70  95 130 172 215 258 298
#     4  10  21  36  52  72  97 132 173 215 256 296
#     4   9  16  25  40  67 107 142 159 187 242 304
#     4  10  19  29  44  68  96 127 165 203 248 302
#     4   9  17  28  44  69 102 136 168 195 236 299
#     4   9  18  30  46  66  90 124 162 207 255 298
#     4  10  19  30  49  70  98 133 167 202 244 300
#     4   9  17  29  48  74 102 129 165 211 252 304
#
# _framework density 17.580662
#
# number of rings (size 3 to 8) (size 9 to 14) (size 15 to 20)
#    0.000    2.625    1.250    0.750    1.750    5.375 
#    0.000    0.000    0.000    1.875    0.000    7.000 
#    0.000    0.000    0.000    0.000    0.000    0.000 
#
# Total GULP energy -1586526.251289 kJ/mol
# GULP energy per Si atom -12394.736338 kJ/mol
# Density = 1.754065 g / cm^3
# Si number density = 17.580662 Si / 1000 Ang^3
#
#
#
# Elastic Constant Matrix: (Units=GPa)
#
#
# Indices 1 2 3 4 5 6 
#
# 1 98.1346 54.7270 23.8081 0.0000 0.0000 0.0000
# 2 54.7270 98.1346 23.8081 0.0000 0.0000 0.0000
# 3 23.8081 23.8081 42.3381 0.0000 0.0000 0.0000
# 4 0.0000 0.0000 0.0000 20.0964 0.0000 0.0000
# 5 0.0000 0.0000 0.0000 0.0000 20.0964 0.0000
# 6 0.0000 0.0000 0.0000 0.0000 0.0000 25.1225
#
#
#
# Elastic Compliance Matrix: (Units=1/GPa)
#
#
# Indices 1 2 3 4 5 6 
#
# 1 0.015484 -0.007553 -0.004460 0.000000 0.000000 0.000000
# 2 -0.007553 0.015484 -0.004460 0.000000 0.000000 0.000000
# 3 -0.004460 -0.004460 0.028635 0.000000 0.000000 0.000000
# 4 0.000000 0.000000 0.000000 0.049760 0.000000 0.000000
# 5 0.000000 0.000000 0.000000 0.000000 0.049760 0.000000
# 6 0.000000 0.000000 0.000000 0.000000 0.000000 0.039805
#
#
# Mechanical properties :
#
#
# Convention : Reuss Voigt Hill
#
# Bulk Modulus (GPa) = 37.51243 49.25487 43.38365
# Shear Modulus (GPa) = 20.76748 22.14735 21.45742
#
# Velocity S-wave (km/s) = 3.44069 3.55315 3.49737
# Velocity P-wave (km/s) = 6.09656 6.70153 6.40619
#
# Compressibility (1/GPa) = 0.02665783
#
# Stress axis : x y z
#
# Youngs Moduli (GPa) = 64.58159 64.58159 34.92193
#
# Poissons Ratio (x) = 0.48780 0.15575
# Poissons Ratio (y) = 0.48780 0.15575
# Poissons Ratio (z) = 0.28803 0.28803
#
# Static dielectric constant tensor:
#      x y z
#    x 3.347670 0.000000 0.000000 
#    y 0.000000 3.347670 0.000000 
#    z 0.000000 0.000000 2.950290 
# 
# 
# High freq. dielectric constant tensor:
#      x y z
#    x 1.679220 0.000000 0.000000 
#    y 0.000000 1.679220 0.000000 
#    z 0.000000 0.000000 1.641740 
# 
# From -- ./inp_files/9166.got.cif
#   From: 2010.03.12/outbox.cif.g09.slc.cpg/sg137_5_cif.got.tgz:9166.got - 2010.04.08 09:34:49.
