data_PCOD8318808
_publ_section_title
;
Structure prediction by ZEFSAII (Michael W. Deem and Ramdas Pophale) SiO2 
 PCOD8318808
Probable space group: P 42/N M C
;
_chemical_formula_sum "Si O2"
_cell_formula_units_Z 64
_cell_length_a 18.951986
_cell_length_b 18.951986
_cell_length_c 9.007112
_cell_angle_alpha 90.000000
_cell_angle_beta 90.000000
_cell_angle_gamma 90.000000
_cell_volume 3235.154432
_symmetry_space_group_name_H-M "P 42/N M C"
_symmetry_group_IT_number 137
_space_group.IT_coordinate_system_code '2'
_symmetry_cell_setting 'tetragonal'
loop_
_space_group_symop_operation_xyz
x,y,z
1/2-y,x,1/2+z
1/2-x,1/2-y,z
y,1/2-x,1/2+z
1/2+x,-y,-z
-x,1/2+y,-z
1/2+y,1/2+x,1/2-z
-y,-x,1/2-z
-x,-y,-z
1/2+y,-x,1/2-z
1/2+x,1/2+y,-z
-y,1/2+x,1/2-z
1/2-x,y,z
x,1/2-y,z
1/2-y,1/2-x,1/2+z
y,x,1/2+z
loop_
_atom_site_type_symbol
_atom_site_label
_atom_site_fract_x
_atom_site_fract_y
_atom_site_fract_z
Si Si1 0.582000 0.868827 0.275956
Si Si2 0.173982 0.329404 0.978917
Si Si3 0.067513 0.666136 0.163071
Si Si4 0.570014 0.483699 0.404233
O O1 0.626117 0.812455 0.370784
O O2 0.613085 0.869125 0.111058
O O3 0.499384 0.850451 0.268788
O O4 0.600566 0.942391 0.351898
O O5 0.250000 0.328565 0.895970
O O6 0.148902 0.250000 0.014634
O O7 0.135695 0.635695 0.250000
O O8 0.076802 0.750000 0.138183
O O9 0.058036 0.627255 0.004084
O O10 0.557855 0.442146 0.250000
O O11 0.500000 0.500000 0.500000
#
# Coordination Sequence:
#
# PCOD8318808 Si02
#       4
#    16  16  16  16
#     4  12  21  37  63  91 127 168 220 266 319 392
#     4  11  23  36  52  86 137 181 212 254 317 390
#     4  12  26  45  70 100 131 176 230 283 343 405
#     4  12  21  42  68  97 133 168 213 275 342 400
#
# _framework density 19.782672000000002
#
# number of rings (size 3 to 8) (size 9 to 14) (size 15 to 20)
#    0.000    0.250    7.500    3.000    0.000    3.250 
#    0.000    1.250    0.000    0.000    0.000    0.000 
#    0.000    0.000    0.000    0.000    0.000    0.000 
#
# Total GULP energy -793202.389659 kJ/mol
# GULP energy per Si atom -12393.787338 kJ/mol
# Density = 1.973765 g / cm^3
# Si number density = 19.782672 Si / 1000 Ang^3
#
#
#
# Elastic Constant Matrix: (Units=GPa)
#
#
# Indices 1 2 3 4 5 6 
#
# 1 123.3001 34.6831 58.9993 0.0000 0.0000 0.0000
# 2 34.6831 123.2998 58.9997 0.0000 0.0000 0.0000
# 3 58.9993 58.9997 121.3692 0.0000 0.0000 0.0000
# 4 0.0000 0.0000 0.0000 29.5855 0.0000 0.0000
# 5 0.0000 0.0000 0.0000 0.0000 29.5852 0.0000
# 6 0.0000 0.0000 0.0000 0.0000 0.0000 20.4079
#
#
#
# Elastic Compliance Matrix: (Units=1/GPa)
#
#
# Indices 1 2 3 4 5 6 
#
# 1 0.010611 -0.000673 -0.004831 0.000000 0.000000 0.000000
# 2 -0.000673 0.010611 -0.004831 0.000000 0.000000 0.000000
# 3 -0.004831 -0.004831 0.012936 0.000000 0.000000 0.000000
# 4 0.000000 0.000000 0.000000 0.033800 0.000000 0.000000
# 5 0.000000 0.000000 0.000000 0.000000 0.033801 0.000000
# 6 0.000000 0.000000 0.000000 0.000000 0.000000 0.049001
#
#
# Mechanical properties :
#
#
# Convention : Reuss Voigt Hill
#
# Bulk Modulus (GPa) = 74.13877 74.81480 74.47678
# Shear Modulus (GPa) = 28.42078 30.26818 29.34448
#
# Velocity S-wave (km/s) = 3.79443 3.91581 3.85560
# Velocity P-wave (km/s) = 7.53358 7.63840 7.58618
#
# Compressibility (1/GPa) = 0.01348822
#
# Stress axis : x y z
#
# Youngs Moduli (GPa) = 94.23894 94.23824 77.30196
#
# Poissons Ratio (x) = 0.06344 0.37345
# Poissons Ratio (y) = 0.06344 0.37346
# Poissons Ratio (z) = 0.45528 0.45528
#
# Static dielectric constant tensor:
#      x y z
#    x 3.805970 0.000000 0.000000 
#    y 0.000000 3.806240 0.000000 
#    z 0.000000 0.000000 4.080320 
# 
# 
# High freq. dielectric constant tensor:
#      x y z
#    x 1.764260 0.000000 0.000000 
#    y 0.000000 1.764260 0.000000 
#    z 0.000000 0.000000 1.782840 
# 
# From -- ./inp_files/1797.got.cif
#   From: 2010.03.12/outbox.cif.g09.slc.cpg/sg137_1_cif.got.tgz:1797.got - 2010.04.08 09:34:49.
