data_PCOD8318603
_publ_section_title
;
Structure prediction by ZEFSAII (Michael W. Deem and Ramdas Pophale) SiO2 
 PCOD8318603
Probable space group: P 42/N M C
;
_chemical_formula_sum "Si O2"
_cell_formula_units_Z 96
_cell_length_a 23.831307
_cell_length_b 23.831307
_cell_length_c 8.953425
_cell_angle_alpha 90.000000
_cell_angle_beta 90.000000
_cell_angle_gamma 90.000000
_cell_volume 5084.929345
_symmetry_space_group_name_H-M "P 42/N M C"
_symmetry_group_IT_number 137
_space_group.IT_coordinate_system_code '2'
_symmetry_cell_setting 'tetragonal'
loop_
_space_group_symop_operation_xyz
x,y,z
1/2-y,x,1/2+z
1/2-x,1/2-y,z
y,1/2-x,1/2+z
1/2+x,-y,-z
-x,1/2+y,-z
1/2+y,1/2+x,1/2-z
-y,-x,1/2-z
-x,-y,-z
1/2+y,-x,1/2-z
1/2+x,1/2+y,-z
-y,1/2+x,1/2-z
1/2-x,y,z
x,1/2-y,z
1/2-y,1/2-x,1/2+z
y,x,1/2+z
loop_
_atom_site_type_symbol
_atom_site_label
_atom_site_fract_x
_atom_site_fract_y
_atom_site_fract_z
Si Si1 0.860785 0.546394 0.948504
Si Si2 0.914838 0.372123 0.603375
Si Si3 0.750000 0.542973 0.772128
Si Si4 0.564512 0.750000 0.921806
Si Si5 0.250000 0.929493 0.101916
Si Si6 0.363790 0.064602 0.701243
Si Si7 0.750000 0.049785 0.233766
Si Si8 0.635136 0.436123 0.346677
O O1 0.872882 0.479738 0.948058
O O2 0.804026 0.563898 0.863586
O O3 0.908064 0.579207 0.856920
O O4 0.859890 0.565946 0.119889
O O5 0.908805 0.408805 0.750000
O O6 0.893615 0.307173 0.617804
O O7 0.870566 0.403763 0.500386
O O8 0.750000 0.563377 0.601459
O O9 0.750000 0.475350 0.766072
O O10 0.594847 0.807586 0.866619
O O11 0.504842 0.750000 0.837295
O O12 0.250000 0.963925 0.943208
O O13 0.365627 0.002449 0.632604
O O14 0.806653 0.084447 0.269150
O O15 0.581496 0.418505 0.250000
#
# Coordination Sequence:
#
# PCOD8318603 Si02
#       8
#    16  16   8   8   8  16   8  16
#     4  11  23  39  57  87 119 155 188 238 281 340
#     4  11  24  36  58  82 117 149 192 235 296 342
#     4  10  20  36  58  81 116 149 198 229 278 329
#     4  10  20  36  58  85 110 153 194 233 272 339
#     4  10  20  38  54  79 108 152 191 241 281 340
#     4  11  23  37  60  85 121 151 194 231 287 335
#     4  10  20  34  60  77 110 146 199 235 281 340
#     4  11  20  38  56  84 112 152 189 238 287 346
#
# _framework density 18.87932
#
# number of rings (size 3 to 8) (size 9 to 14) (size 15 to 20)
#    0.000    1.333    3.333    4.500   11.667    1.333 
#    0.000    0.000    0.000    3.500    0.000    3.500 
#    0.000    0.000    0.000    0.000    0.000    0.000 
#
# Total GULP energy -1189565.778461 kJ/mol
# GULP energy per Si atom -12391.310192 kJ/mol
# Density = 1.883635 g / cm^3
# Si number density = 18.879320 Si / 1000 Ang^3
#
#
#
# Elastic Constant Matrix: (Units=GPa)
#
#
# Indices 1 2 3 4 5 6 
#
# 1 71.0650 39.7748 21.3938 0.0000 0.0000 0.0000
# 2 39.7748 71.0658 21.3953 0.0000 0.0000 0.0000
# 3 21.3938 21.3953 118.9222 0.0000 0.0000 0.0000
# 4 0.0000 0.0000 0.0000 32.5166 0.0000 0.0000
# 5 0.0000 0.0000 0.0000 0.0000 32.5168 0.0000
# 6 0.0000 0.0000 0.0000 0.0000 0.0000 7.0035
#
#
#
# Elastic Compliance Matrix: (Units=1/GPa)
#
#
# Indices 1 2 3 4 5 6 
#
# 1 0.020827 -0.011132 -0.001744 0.000000 0.000000 0.000000
# 2 -0.011132 0.020827 -0.001744 0.000000 0.000000 0.000000
# 3 -0.001744 -0.001744 0.009036 0.000000 0.000000 0.000000
# 4 0.000000 0.000000 0.000000 0.030754 0.000000 0.000000
# 5 0.000000 0.000000 0.000000 0.000000 0.030753 0.000000
# 6 0.000000 0.000000 0.000000 0.000000 0.000000 0.142785
#
#
# Mechanical properties :
#
#
# Convention : Reuss Voigt Hill
#
# Bulk Modulus (GPa) = 46.61959 47.35344 46.98652
# Shear Modulus (GPa) = 17.16018 26.30665 21.73342
#
# Velocity S-wave (km/s) = 3.01814 3.73689 3.39658
# Velocity P-wave (km/s) = 6.07393 6.61481 6.35013
#
# Compressibility (1/GPa) = 0.02145021
#
# Stress axis : x y z
#
# Youngs Moduli (GPa) = 48.01461 48.01482 110.66294
#
# Poissons Ratio (x) = 0.53448 0.19300
# Poissons Ratio (y) = 0.53448 0.19304
# Poissons Ratio (z) = 0.08374 0.08376
#
# Static dielectric constant tensor:
#      x y z
#    x 3.716890 0.000000 0.000000 
#    y 0.000000 3.716890 0.000000 
#    z 0.000000 0.000000 3.903660 
# 
# 
# High freq. dielectric constant tensor:
#      x y z
#    x 1.716390 0.000000 0.000000 
#    y 0.000000 1.716390 0.000000 
#    z 0.000000 0.000000 1.753690 
# 
# From -- ./inp_files/2229.got.cif
#   From: 2010.03.12/outbox.cif.g09.slc.cpg/sg137_2_cif.got.tgz:2229.got - 2010.04.08 09:34:49.
