data_PCOD8318001
_publ_section_title
;
Structure prediction by ZEFSAII (Michael W. Deem and Ramdas Pophale) SiO2 
 PCOD8318001
Probable space group: P 42/M N M
;
_chemical_formula_sum "Si O2"
_cell_formula_units_Z 72
_cell_length_a 21.464513
_cell_length_b 21.464513
_cell_length_c 9.093782
_cell_angle_alpha 90.000000
_cell_angle_beta 90.000000
_cell_angle_gamma 90.000000
_cell_volume 4189.735607
_symmetry_space_group_name_H-M "P 42/M N M"
_symmetry_group_IT_number 136
_symmetry_cell_setting 'tetragonal'
loop_
_space_group_symop_operation_xyz
x,y,z
1/2-y,1/2+x,1/2+z
-x,-y,z
1/2+y,1/2-x,1/2+z
1/2+x,1/2-y,1/2-z
1/2-x,1/2+y,1/2-z
y,x,-z
-y,-x,-z
-x,-y,-z
1/2+y,1/2-x,1/2-z
x,y,-z
1/2-y,1/2+x,1/2-z
1/2-x,1/2+y,1/2+z
1/2+x,1/2-y,1/2+z
-y,-x,z
y,x,z
loop_
_atom_site_type_symbol
_atom_site_label
_atom_site_fract_x
_atom_site_fract_y
_atom_site_fract_z
Si Si1 0.738934 0.163788 0.163868
Si Si2 0.004502 0.319225 0.174708
Si Si3 0.629835 0.113495 0.328004
Si Si4 0.550685 0.550685 0.676416
Si Si5 0.541077 0.689026 0.667802
O O1 0.768171 0.231830 0.180935
O O2 0.686735 0.158711 0.287949
O O3 0.793209 0.113185 0.186806
O O4 0.710148 0.154931 0.000000
O O5 0.068615 0.350037 0.224638
O O6 0.950924 0.362990 0.241484
O O7 0.999237 0.247320 0.235069
O O8 0.995757 0.318890 0.000000
O O9 0.628624 0.099392 0.500000
O O10 0.500000 0.500000 0.731180
O O11 0.553575 0.553575 0.500000
O O12 0.531343 0.619860 0.738689
O O13 0.520799 0.682618 0.500000
#
# Coordination Sequence:
#
# PCOD8318001 Si02
#       5
#    16  16  16   8  16
#     4   9  16  29  50  70  91 126 165 200 243 292
#     4   9  19  34  49  66  95 131 161 198 253 305
#     4  10  20  32  48  72  97 125 163 208 252 294
#     4   9  14  20  38  70  97 117 151 193 227 274
#     4   8  13  25  43  63  89 120 153 188 228 280
#
# _framework density 17.184854999999999
#
# number of rings (size 3 to 8) (size 9 to 14) (size 15 to 20)
#    0.000    3.000    1.111    2.000    0.000    2.667 
#    0.000    3.333    0.000    4.000    0.000    0.000 
#    0.000   22.222    0.000    0.000    0.000    0.000 
#
# Total GULP energy -891942.319303 kJ/mol
# GULP energy per Si atom -12388.087768 kJ/mol
# Density = 1.714574 g / cm^3
# Si number density = 17.184855 Si / 1000 Ang^3
#
#
#
# Elastic Constant Matrix: (Units=GPa)
#
#
# Indices 1 2 3 4 5 6 
#
# 1 109.8807 81.8771 22.5713 0.0000 0.0000 0.0000
# 2 81.8771 109.8807 22.5713 0.0000 0.0000 0.0000
# 3 22.5713 22.5713 20.1981 0.0000 0.0000 0.0000
# 4 0.0000 0.0000 0.0000 19.8234 0.0000 0.0000
# 5 0.0000 0.0000 0.0000 0.0000 19.8234 0.0000
# 6 0.0000 0.0000 0.0000 0.0000 0.0000 29.5762
#
#
#
# Elastic Compliance Matrix: (Units=1/GPa)
#
#
# Indices 1 2 3 4 5 6 
#
# 1 0.021393 -0.014317 -0.007908 0.000000 0.000000 0.000000
# 2 -0.014317 0.021393 -0.007908 0.000000 0.000000 0.000000
# 3 -0.007908 -0.007908 0.067184 0.000000 0.000000 0.000000
# 4 0.000000 0.000000 0.000000 0.050445 0.000000 0.000000
# 5 0.000000 0.000000 0.000000 0.000000 0.050445 0.000000
# 6 0.000000 0.000000 0.000000 0.000000 0.000000 0.033811
#
#
# Mechanical properties :
#
#
# Convention : Reuss Voigt Hill
#
# Bulk Modulus (GPa) = 20.11871 54.88880 37.50375
# Shear Modulus (GPa) = 15.55181 21.37391 18.46286
#
# Velocity S-wave (km/s) = 3.01154 3.53053 3.28131
# Velocity P-wave (km/s) = 4.88110 6.97346 6.01890
#
# Compressibility (1/GPa) = 0.04970498
#
# Stress axis : x y z
#
# Youngs Moduli (GPa) = 46.74397 46.74397 14.88448
#
# Poissons Ratio (x) = 0.66921 0.11771
# Poissons Ratio (y) = 0.66921 0.11771
# Poissons Ratio (z) = 0.36965 0.36965
#
# Static dielectric constant tensor:
#      x y z
#    x 3.322850 0.000000 0.000000 
#    y 0.000000 3.322850 0.000000 
#    z 0.000000 0.000000 2.859630 
# 
# 
# High freq. dielectric constant tensor:
#      x y z
#    x 1.659580 0.000000 0.000000 
#    y 0.000000 1.659580 0.000000 
#    z 0.000000 0.000000 1.622470 
# 
# From -- ./inp_files/1602.got.cif
#   From: 2010.03.12/outbox.cif.g09.slc.cpg/sg136_1_cif.got.tgz:1602.got - 2010.04.06 18:39:43.
