data_PCOD8318864
_publ_section_title
;
Structure prediction by ZEFSAII (Michael W. Deem and Ramdas Pophale) SiO2 
 PCOD8318864
Probable space group: P 42/N C M
;
_chemical_formula_sum "Si O2"
_cell_formula_units_Z 112
_cell_length_a 17.814170
_cell_length_b 17.814170
_cell_length_c 20.233517
_cell_angle_alpha 90.000000
_cell_angle_beta 90.000000
_cell_angle_gamma 90.000000
_cell_volume 6420.998427
_symmetry_space_group_name_H-M "P 42/N C M"
_symmetry_group_IT_number 138
_space_group.IT_coordinate_system_code '2'
_symmetry_cell_setting 'tetragonal'
loop_
_space_group_symop_operation_xyz
x,y,z
1/2-y,x,1/2+z
1/2-x,1/2-y,z
y,1/2-x,1/2+z
1/2+x,-y,1/2-z
-x,1/2+y,1/2-z
1/2+y,1/2+x,-z
-y,-x,-z
-x,-y,-z
1/2+y,-x,1/2-z
1/2+x,1/2+y,-z
-y,1/2+x,1/2-z
1/2-x,y,1/2+z
x,1/2-y,1/2+z
1/2-y,1/2-x,z
y,x,z
loop_
_atom_site_type_symbol
_atom_site_label
_atom_site_fract_x
_atom_site_fract_y
_atom_site_fract_z
Si Si1 0.831072 0.085820 0.056632
Si Si2 0.000563 0.381688 0.332731
Si Si3 0.752470 0.469922 0.261287
Si Si4 0.189892 0.918573 0.531144
Si Si5 0.141702 0.483884 0.141543
Si Si6 0.227945 0.832366 0.144934
Si Si7 0.465085 0.918574 0.227551
O O1 0.870090 0.012526 0.088823
O O2 0.826810 0.143163 0.118324
O O3 0.885230 0.114770 0.000000
O O4 0.750288 0.064918 0.026138
O O5 0.983093 0.302481 0.299475
O O6 0.942643 0.441880 0.301641
O O7 0.085205 0.414796 0.321775
O O8 0.721116 0.526027 0.319108
O O9 0.760304 0.385998 0.291717
O O10 0.832153 0.488411 0.228940
O O11 0.115307 0.884694 0.500000
O O12 0.221655 0.858677 0.583336
O O13 0.163309 0.995736 0.566399
O O14 0.090979 0.409022 0.145118
O O15 0.101253 0.555874 0.176867
O O16 0.250000 0.750000 0.168968
O O17 0.539688 0.960313 0.203570
#
# Coordination Sequence:
#
# PCOD8318864 Si02
#       7
#    16  16  16  16  16  16  16
#     4  10  20  32  49  73 108 144 174 209 255 311
#     4  10  21  36  52  73 106 141 178 219 259 311
#     4  10  19  32  54  76  99 140 174 213 269 320
#     4  10  19  29  50  70 105 144 174 209 251 314
#     4   9  20  36  51  73 108 141 176 222 265 312
#     4  10  18  31  44  75 113 141 165 203 255 315
#     4   9  18  34  53  77 104 131 171 226 271 314
#
# _framework density 17.442771
#
# number of rings (size 3 to 8) (size 9 to 14) (size 15 to 20)
#    0.000    2.286    2.857    1.286    2.000    1.714 
#    0.000    0.000    0.000    1.714    0.000    0.000 
#    0.000    0.000    0.000    0.000    0.000    0.000 
#
# Total GULP energy -1387503.890301 kJ/mol
# GULP energy per Si atom -12388.427592 kJ/mol
# Density = 1.740307 g / cm^3
# Si number density = 17.442771 Si / 1000 Ang^3
#
#
#
# Elastic Constant Matrix: (Units=GPa)
#
#
# Indices 1 2 3 4 5 6 
#
# 1 74.0613 34.6984 30.1394 0.0000 0.0000 0.0000
# 2 34.6984 74.0607 30.1394 0.0000 0.0000 0.0000
# 3 30.1394 30.1394 77.2253 0.0000 0.0000 0.0000
# 4 0.0000 0.0000 0.0000 21.6964 0.0000 0.0000
# 5 0.0000 0.0000 0.0000 0.0000 21.6963 0.0000
# 6 0.0000 0.0000 0.0000 0.0000 0.0000 22.3669
#
#
#
# Elastic Compliance Matrix: (Units=1/GPa)
#
#
# Indices 1 2 3 4 5 6 
#
# 1 0.018569 -0.006836 -0.004579 0.000000 0.000000 0.000000
# 2 -0.006836 0.018569 -0.004579 0.000000 0.000000 0.000000
# 3 -0.004579 -0.004579 0.016523 0.000000 0.000000 0.000000
# 4 0.000000 0.000000 0.000000 0.046091 0.000000 0.000000
# 5 0.000000 0.000000 0.000000 0.000000 0.046091 0.000000
# 6 0.000000 0.000000 0.000000 0.000000 0.000000 0.044709
#
#
# Mechanical properties :
#
#
# Convention : Reuss Voigt Hill
#
# Bulk Modulus (GPa) = 46.14161 46.14464 46.14312
# Shear Modulus (GPa) = 21.76156 21.84326 21.80241
#
# Velocity S-wave (km/s) = 3.53597 3.54260 3.53928
# Velocity P-wave (km/s) = 6.57125 6.57614 6.57370
#
# Compressibility (1/GPa) = 0.02167241
#
# Stress axis : x y z
#
# Youngs Moduli (GPa) = 53.85452 53.85407 60.52079
#
# Poissons Ratio (x) = 0.36816 0.27712
# Poissons Ratio (y) = 0.36816 0.27712
# Poissons Ratio (z) = 0.24659 0.24660
#
# Static dielectric constant tensor:
#      x y z
#    x 3.131200 0.000000 0.000000 
#    y 0.000000 3.131200 0.000000 
#    z 0.000000 0.000000 3.322080 
# 
# 
# High freq. dielectric constant tensor:
#      x y z
#    x 1.647600 0.000000 0.000000 
#    y 0.000000 1.647600 0.000000 
#    z 0.000000 0.000000 1.680040 
# 
# From -- ./inp_files/6490.got.cif
#   From: 2010.03.12/outbox.cif.g09.slc.cpg/sg138_4_cif.got.tgz:6490.got - 2010.04.08 09:41:05.
