data_PCOD8318071
_publ_section_title
;
Structure prediction by ZEFSAII (Michael W. Deem and Ramdas Pophale) SiO2 
 PCOD8318071
Probable space group: P 42/M N M
;
_chemical_formula_sum "Si O2"
_cell_formula_units_Z 72
_cell_length_a 21.826936
_cell_length_b 21.826936
_cell_length_c 9.257781
_cell_angle_alpha 90.000000
_cell_angle_beta 90.000000
_cell_angle_gamma 90.000000
_cell_volume 4410.546986
_symmetry_space_group_name_H-M "P 42/M N M"
_symmetry_group_IT_number 136
_symmetry_cell_setting 'tetragonal'
loop_
_space_group_symop_operation_xyz
x,y,z
1/2-y,1/2+x,1/2+z
-x,-y,z
1/2+y,1/2-x,1/2+z
1/2+x,1/2-y,1/2-z
1/2-x,1/2+y,1/2-z
y,x,-z
-y,-x,-z
-x,-y,-z
1/2+y,1/2-x,1/2-z
x,y,-z
1/2-y,1/2+x,1/2-z
1/2-x,1/2+y,1/2+z
1/2+x,1/2-y,1/2+z
-y,-x,z
y,x,z
loop_
_atom_site_type_symbol
_atom_site_label
_atom_site_fract_x
_atom_site_fract_y
_atom_site_fract_z
Si Si1 0.323009 0.019868 0.667317
Si Si2 0.284926 0.471781 0.659961
Si Si3 0.886362 0.374730 0.664181
Si Si4 0.855277 0.241798 0.334812
Si Si5 0.398546 0.501664 0.500000
O O1 0.309351 0.031489 0.500000
O O2 0.365577 0.073444 0.726448
O O3 0.257759 0.018194 0.749513
O O4 0.359618 0.957190 0.692708
O O5 0.255604 0.462934 0.500000
O O6 0.289702 0.406221 0.736165
O O7 0.354365 0.498204 0.642110
O O8 0.876015 0.397022 0.500000
O O9 0.847007 0.313705 0.698044
O O10 0.877417 0.233558 0.500000
O O11 0.790327 0.209674 0.305481
O O12 0.445109 0.445109 0.500000
O O13 0.434093 0.565908 0.500000
#
# Coordination Sequence:
#
# PCOD8318071 Si02
#       5
#    16  16  16  16   8
#     4  10  20  35  52  74 102 137 173 213 263 310
#     4   9  18  30  52  74  99 132 166 208 253 305
#     4   9  19  33  50  71 101 135 174 214 255 307
#     4   9  17  31  51  76 103 131 167 214 266 310
#     4   9  18  32  52  80 106 131 170 214 252 301
#
# _framework density 16.324504999999998
#
# number of rings (size 3 to 8) (size 9 to 14) (size 15 to 20)
#    0.667    2.111    0.000    3.333    0.000    4.889 
#    0.000    3.333    0.000    4.000    0.000    7.778 
#    0.000    0.000    0.000    0.000    0.000    0.000 
#
# Total GULP energy -892449.627652 kJ/mol
# GULP energy per Si atom -12395.133717 kJ/mol
# Density = 1.628735 g / cm^3
# Si number density = 16.324505 Si / 1000 Ang^3
#
#
#
# Elastic Constant Matrix: (Units=GPa)
#
#
# Indices 1 2 3 4 5 6 
#
# 1 96.1630 64.5722 56.6439 0.0000 0.0000 0.0000
# 2 64.5722 96.1622 56.6437 0.0000 0.0000 0.0000
# 3 56.6439 56.6437 103.7738 0.0000 0.0000 0.0000
# 4 0.0000 0.0000 0.0000 27.7335 0.0000 0.0000
# 5 0.0000 0.0000 0.0000 0.0000 27.7333 0.0000
# 6 0.0000 0.0000 0.0000 0.0000 0.0000 27.6240
#
#
#
# Elastic Compliance Matrix: (Units=1/GPa)
#
#
# Indices 1 2 3 4 5 6 
#
# 1 0.020883 -0.010772 -0.005519 0.000000 0.000000 0.000000
# 2 -0.010772 0.020883 -0.005519 0.000000 0.000000 0.000000
# 3 -0.005519 -0.005519 0.015662 0.000000 0.000000 0.000000
# 4 0.000000 0.000000 0.000000 0.036057 0.000000 0.000000
# 5 0.000000 0.000000 0.000000 0.000000 0.036058 0.000000
# 6 0.000000 0.000000 0.000000 0.000000 0.000000 0.036200
#
#
# Mechanical properties :
#
#
# Convention : Reuss Voigt Hill
#
# Bulk Modulus (GPa) = 72.42413 72.42428 72.42420
# Shear Modulus (GPa) = 23.36809 24.50077 23.93443
#
# Velocity S-wave (km/s) = 3.78759 3.87829 3.83321
# Velocity P-wave (km/s) = 7.97429 8.03222 8.00331
#
# Compressibility (1/GPa) = 0.01380755
#
# Stress axis : x y z
#
# Youngs Moduli (GPa) = 47.88532 47.88488 63.85066
#
# Poissons Ratio (x) = 0.51581 0.35240
# Poissons Ratio (y) = 0.51582 0.35241
# Poissons Ratio (z) = 0.26429 0.26429
#
# Static dielectric constant tensor:
#      x y z
#    x 3.018980 0.000000 0.000000 
#    y 0.000000 3.018980 0.000000 
#    z 0.000000 0.000000 3.112650 
# 
# 
# High freq. dielectric constant tensor:
#      x y z
#    x 1.618970 0.000000 0.000000 
#    y 0.000000 1.618970 0.000000 
#    z 0.000000 0.000000 1.630950 
# 
# From -- ./inp_files/1750.got.cif
#   From: 2010.03.12/outbox.cif.g09.slc.cpg/sg136_1_cif.got.tgz:1750.got - 2010.04.06 18:39:43.
