data_PCOD8318857
_publ_section_title
;
Structure prediction by ZEFSAII (Michael W. Deem and Ramdas Pophale) SiO2 
 PCOD8318857
Probable space group: P 42/N C M
;
_chemical_formula_sum "Si O2"
_cell_formula_units_Z 128
_cell_length_a 17.415170
_cell_length_b 17.415170
_cell_length_c 24.119175
_cell_angle_alpha 90.000000
_cell_angle_beta 90.000000
_cell_angle_gamma 90.000000
_cell_volume 7315.059872
_symmetry_space_group_name_H-M "P 42/N C M"
_symmetry_group_IT_number 138
_space_group.IT_coordinate_system_code '2'
_symmetry_cell_setting 'tetragonal'
loop_
_space_group_symop_operation_xyz
x,y,z
1/2-y,x,1/2+z
1/2-x,1/2-y,z
y,1/2-x,1/2+z
1/2+x,-y,1/2-z
-x,1/2+y,1/2-z
1/2+y,1/2+x,-z
-y,-x,-z
-x,-y,-z
1/2+y,-x,1/2-z
1/2+x,1/2+y,-z
-y,1/2+x,1/2-z
1/2-x,y,1/2+z
x,1/2-y,1/2+z
1/2-y,1/2-x,z
y,x,z
loop_
_atom_site_type_symbol
_atom_site_label
_atom_site_fract_x
_atom_site_fract_y
_atom_site_fract_z
Si Si1 0.501220 0.127335 0.504205
Si Si2 0.697801 0.017717 0.380792
Si Si3 0.575068 0.700948 0.698753
Si Si4 0.374257 0.249191 0.185518
Si Si5 0.175006 0.046710 0.888271
Si Si6 0.265176 0.662485 0.668614
Si Si7 0.071216 0.552121 0.319378
Si Si8 0.166323 0.596738 0.767434
O O1 0.583351 0.083351 0.500000
O O2 0.499207 0.186544 0.554947
O O3 0.482501 0.181587 0.451502
O O4 0.436004 0.063997 0.512552
O O5 0.738315 0.101365 0.377350
O O6 0.615233 0.020505 0.351218
O O7 0.748396 0.952419 0.350417
O O8 0.622984 0.622984 0.689306
O O9 0.611554 0.751715 0.748096
O O10 0.573653 0.745594 0.639894
O O11 0.490607 0.682517 0.719428
O O12 0.328878 0.171123 0.170580
O O13 0.323383 0.323383 0.169498
O O14 0.117045 0.117045 0.884992
O O15 0.143862 0.972732 0.855538
O O16 0.250000 0.750000 0.650139
O O17 0.229218 0.637299 0.727811
O O18 0.357179 0.659203 0.675316
O O19 0.103664 0.584196 0.262304
O O20 0.020347 0.479654 0.305075
#
# Coordination Sequence:
#
# PCOD8318857 Si02
#       8
#    16  16  16  16  16  16  16  16
#     4  10  19  34  57  85 112 141 186 241 293 339
#     4  11  21  34  56  80 113 151 184 234 285 349
#     4  11  22  36  55  80 113 152 191 229 281 351
#     4  10  20  34  53  80 117 156 190 228 279 343
#     4  10  21  34  54  82 111 145 181 235 290 334
#     4  11  21  33  52  80 112 147 182 232 295 338
#     4  10  18  29  51  83 111 139 182 224 274 338
#     4  11  19  32  52  76 110 150 179 223 278 341
#
# _framework density 17.498149000000002
#
# number of rings (size 3 to 8) (size 9 to 14) (size 15 to 20)
#    0.000    1.500    5.000    2.625    1.750    0.750 
#    0.000    1.250    0.000    3.375    0.000    0.875 
#    0.000    0.000    0.000    0.000    0.000    0.000 
#
# Total GULP energy -1586657.625016 kJ/mol
# GULP energy per Si atom -12395.762695 kJ/mol
# Density = 1.745832 g / cm^3
# Si number density = 17.498149 Si / 1000 Ang^3
#
#
#
# Elastic Constant Matrix: (Units=GPa)
#
#
# Indices 1 2 3 4 5 6 
#
# 1 93.6117 34.4813 36.6681 0.0000 0.0000 0.0000
# 2 34.4813 93.6117 36.6681 0.0000 0.0000 0.0000
# 3 36.6681 36.6681 95.6777 0.0000 0.0000 0.0000
# 4 0.0000 0.0000 0.0000 25.6619 0.0000 0.0000
# 5 0.0000 0.0000 0.0000 0.0000 25.6619 0.0000
# 6 0.0000 0.0000 0.0000 0.0000 0.0000 21.3247
#
#
#
# Elastic Compliance Matrix: (Units=1/GPa)
#
#
# Indices 1 2 3 4 5 6 
#
# 1 0.013457 -0.003455 -0.003833 0.000000 0.000000 0.000000
# 2 -0.003455 0.013457 -0.003833 0.000000 0.000000 0.000000
# 3 -0.003833 -0.003833 0.013390 0.000000 0.000000 0.000000
# 4 0.000000 0.000000 0.000000 0.038968 0.000000 0.000000
# 5 0.000000 0.000000 0.000000 0.000000 0.038968 0.000000
# 6 0.000000 0.000000 0.000000 0.000000 0.000000 0.046894
#
#
# Mechanical properties :
#
#
# Convention : Reuss Voigt Hill
#
# Bulk Modulus (GPa) = 55.36961 55.39288 55.38125
# Shear Modulus (GPa) = 25.85374 26.20196 26.02785
#
# Velocity S-wave (km/s) = 3.84801 3.87384 3.86095
# Velocity P-wave (km/s) = 7.17320 7.19263 7.18292
#
# Compressibility (1/GPa) = 0.01806045
#
# Stress axis : x y z
#
# Youngs Moduli (GPa) = 74.31345 74.31345 74.68437
#
# Poissons Ratio (x) = 0.25677 0.28626
# Poissons Ratio (y) = 0.25677 0.28626
# Poissons Ratio (z) = 0.28484 0.28484
#
# Static dielectric constant tensor:
#      x y z
#    x 3.281080 0.000000 0.000000 
#    y 0.000000 3.281080 0.000000 
#    z 0.000000 0.000000 3.148250 
# 
# 
# High freq. dielectric constant tensor:
#      x y z
#    x 1.672520 0.000000 0.000000 
#    y 0.000000 1.672520 0.000000 
#    z 0.000000 0.000000 1.647510 
# 
# From -- ./inp_files/7204.got.cif
#   From: 2010.03.12/outbox.cif.g09.slc.cpg/sg138_4_cif.got.tgz:7204.got - 2010.04.08 09:41:05.
