data_PCOD8318962
_publ_section_title
;
Structure prediction by ZEFSAII (Michael W. Deem and Ramdas Pophale) SiO2 
 PCOD8318962
Probable space group: P 42/N C M
;
_chemical_formula_sum "Si O2"
_cell_formula_units_Z 96
_cell_length_a 15.515589
_cell_length_b 15.515589
_cell_length_c 19.766178
_cell_angle_alpha 90.000000
_cell_angle_beta 90.000000
_cell_angle_gamma 90.000000
_cell_volume 4758.381251
_symmetry_space_group_name_H-M "P 42/N C M"
_symmetry_group_IT_number 138
_space_group.IT_coordinate_system_code '2'
_symmetry_cell_setting 'tetragonal'
loop_
_space_group_symop_operation_xyz
x,y,z
1/2-y,x,1/2+z
1/2-x,1/2-y,z
y,1/2-x,1/2+z
1/2+x,-y,1/2-z
-x,1/2+y,1/2-z
1/2+y,1/2+x,-z
-y,-x,-z
-x,-y,-z
1/2+y,-x,1/2-z
1/2+x,1/2+y,-z
-y,1/2+x,1/2-z
1/2-x,y,1/2+z
x,1/2-y,1/2+z
1/2-y,1/2-x,z
y,x,z
loop_
_atom_site_type_symbol
_atom_site_label
_atom_site_fract_x
_atom_site_fract_y
_atom_site_fract_z
Si Si1 0.250398 0.112792 0.965118
Si Si2 0.836428 0.163151 0.281342
Si Si3 0.283617 0.077565 0.614318
Si Si4 0.579382 0.061376 0.422978
Si Si5 0.537279 0.237769 0.365094
Si Si6 0.833889 0.973613 0.262805
O O1 0.322644 0.177357 0.937136
O O2 0.154810 0.154810 0.952193
O O3 0.264009 0.020974 0.928822
O O4 0.264475 0.100437 0.044734
O O5 0.731437 0.148433 0.281429
O O6 0.880998 0.198943 0.350488
O O7 0.876742 0.068744 0.270302
O O8 0.342349 0.157652 0.638568
O O9 0.211528 0.059042 0.669484
O O10 0.340269 0.993644 0.601537
O O11 0.592208 0.092208 0.500000
O O12 0.576545 0.143536 0.374934
O O13 0.490521 0.009480 0.416399
O O14 0.476347 0.235681 0.298327
O O15 0.910364 0.910364 0.242615
#
# Coordination Sequence:
#
# PCOD8318962 Si02
#       6
#    16  16  16  16  16  16
#     4  10  20  37  61  90 129 169 205 258 323 377
#     4   9  22  41  60  82 121 165 199 250 314 370
#     4  10  22  39  62  94 129 167 209 258 318 381
#     4  10  19  35  63  95 123 154 208 267 313 367
#     4  11  22  38  62  93 120 158 214 267 314 369
#     4  11  24  40  63  92 125 164 208 256 313 376
#
# _framework density 20.174928000000001
#
# number of rings (size 3 to 8) (size 9 to 14) (size 15 to 20)
#    0.000    1.833    1.667    2.000   11.667    2.333 
#    0.000    0.833    0.000    3.000    0.000    0.000 
#    0.000    0.000    0.000    0.000    0.000    0.000 
#
# Total GULP energy -1189690.902926 kJ/mol
# GULP energy per Si atom -12392.613572 kJ/mol
# Density = 2.012901 g / cm^3
# Si number density = 20.174928 Si / 1000 Ang^3
#
#
#
# Elastic Constant Matrix: (Units=GPa)
#
#
# Indices 1 2 3 4 5 6 
#
# 1 69.8406 36.5540 23.8288 0.0000 0.0000 0.0000
# 2 36.5540 69.8406 23.8288 0.0000 0.0000 0.0000
# 3 23.8288 23.8288 75.3885 0.0000 0.0000 0.0000
# 4 0.0000 0.0000 0.0000 35.2793 0.0000 0.0000
# 5 0.0000 0.0000 0.0000 0.0000 35.2793 0.0000
# 6 0.0000 0.0000 0.0000 0.0000 0.0000 25.1974
#
#
#
# Elastic Compliance Matrix: (Units=1/GPa)
#
#
# Indices 1 2 3 4 5 6 
#
# 1 0.020496 -0.009546 -0.003461 0.000000 0.000000 0.000000
# 2 -0.009546 0.020496 -0.003461 0.000000 0.000000 0.000000
# 3 -0.003461 -0.003461 0.015452 0.000000 0.000000 0.000000
# 4 0.000000 0.000000 0.000000 0.028345 0.000000 0.000000
# 5 0.000000 0.000000 0.000000 0.000000 0.028345 0.000000
# 6 0.000000 0.000000 0.000000 0.000000 0.000000 0.039687
#
#
# Mechanical properties :
#
#
# Convention : Reuss Voigt Hill
#
# Bulk Modulus (GPa) = 42.53959 42.61031 42.57495
# Shear Modulus (GPa) = 25.82741 27.87508 26.85125
#
# Velocity S-wave (km/s) = 3.58183 3.72111 3.65214
# Velocity P-wave (km/s) = 6.18362 6.29512 6.23962
#
# Compressibility (1/GPa) = 0.02350752
#
# Stress axis : x y z
#
# Youngs Moduli (GPa) = 48.79088 48.79088 64.71478
#
# Poissons Ratio (x) = 0.46578 0.22397
# Poissons Ratio (y) = 0.46578 0.22397
# Poissons Ratio (z) = 0.16886 0.16886
#
# Static dielectric constant tensor:
#      x y z
#    x 3.650760 0.000000 0.000000 
#    y 0.000000 3.650760 0.000000 
#    z 0.000000 0.000000 3.639170 
# 
# 
# High freq. dielectric constant tensor:
#      x y z
#    x 1.782350 0.000000 0.000000 
#    y 0.000000 1.782350 0.000000 
#    z 0.000000 0.000000 1.778620 
# 
# From -- ./inp_files/6245.got.cif
#   From: 2010.03.12/outbox.cif.g09.slc.cpg/sg138_4_cif.got.tgz:6245.got - 2010.04.08 09:41:05.
