data_PCOD8318875
_publ_section_title
;
Structure prediction by ZEFSAII (Michael W. Deem and Ramdas Pophale) SiO2 
 PCOD8318875
Probable space group: P 42/N C M
;
_chemical_formula_sum "Si O2"
_cell_formula_units_Z 112
_cell_length_a 22.668408
_cell_length_b 22.668408
_cell_length_c 12.403184
_cell_angle_alpha 90.000000
_cell_angle_beta 90.000000
_cell_angle_gamma 90.000000
_cell_volume 6373.459463
_symmetry_space_group_name_H-M "P 42/N C M"
_symmetry_group_IT_number 138
_space_group.IT_coordinate_system_code '2'
_symmetry_cell_setting 'tetragonal'
loop_
_space_group_symop_operation_xyz
x,y,z
1/2-y,x,1/2+z
1/2-x,1/2-y,z
y,1/2-x,1/2+z
1/2+x,-y,1/2-z
-x,1/2+y,1/2-z
1/2+y,1/2+x,-z
-y,-x,-z
-x,-y,-z
1/2+y,-x,1/2-z
1/2+x,1/2+y,-z
-y,1/2+x,1/2-z
1/2-x,y,1/2+z
x,1/2-y,1/2+z
1/2-y,1/2-x,z
y,x,z
loop_
_atom_site_type_symbol
_atom_site_label
_atom_site_fract_x
_atom_site_fract_y
_atom_site_fract_z
Si Si1 0.109002 0.294486 0.757025
Si Si2 0.669319 0.989610 0.871031
Si Si3 0.527304 0.796374 0.430882
Si Si4 0.677900 0.917197 0.655748
Si Si5 0.576870 0.018259 0.402903
Si Si6 0.448233 0.955086 0.168458
Si Si7 0.462642 0.368259 0.405182
O O1 0.165776 0.334225 0.774670
O O2 0.090081 0.292037 0.631809
O O3 0.125580 0.230711 0.805353
O O4 0.050428 0.315300 0.822409
O O5 0.736935 0.009859 0.897833
O O6 0.661526 0.956776 0.758316
O O7 0.620331 0.041268 0.867113
O O8 0.652216 0.948779 0.973383
O O9 0.541038 0.802064 0.557505
O O10 0.490307 0.853078 0.393750
O O11 0.621716 0.878285 0.620924
O O12 0.562360 0.062360 0.500000
O O13 0.552629 0.048853 0.296315
O O14 0.545233 0.954767 0.421142
O O15 0.472254 0.896134 0.108948
O O16 0.485954 0.014047 0.134388
O O17 0.419117 0.419117 0.366210
#
# Coordination Sequence:
#
# PCOD8318875 Si02
#       7
#    16  16  16  16  16  16  16
#     4  10  20  35  52  69  96 139 183 221 263 308
#     4  11  22  34  51  79 109 136 172 218 270 325
#     4  11  21  36  54  74 107 143 174 214 274 331
#     4  11  22  35  52  73 102 142 184 227 264 309
#     4  10  19  32  53  79 107 140 179 222 268 329
#     4  10  19  32  53  79 105 136 175 221 273 329
#     4  10  18  33  53  73 101 135 172 216 269 319
#
# _framework density 17.572875
#
# number of rings (size 3 to 8) (size 9 to 14) (size 15 to 20)
#    0.000    1.571    2.857    3.857    0.000    2.571 
#    0.000    0.000    0.000    1.714    0.000    0.000 
#    0.000    7.429    0.000    0.000    0.000    0.000 
#
# Total GULP energy -1387987.092371 kJ/mol
# GULP energy per Si atom -12392.741896 kJ/mol
# Density = 1.753288 g / cm^3
# Si number density = 17.572875 Si / 1000 Ang^3
#
#
#
# Elastic Constant Matrix: (Units=GPa)
#
#
# Indices 1 2 3 4 5 6 
#
# 1 69.8319 19.0964 13.8444 0.0000 0.0000 0.0000
# 2 19.0964 69.8319 13.8444 0.0000 0.0000 0.0000
# 3 13.8444 13.8444 101.8680 0.0000 0.0000 0.0000
# 4 0.0000 0.0000 0.0000 23.5889 0.0000 0.0000
# 5 0.0000 0.0000 0.0000 0.0000 23.5889 0.0000
# 6 0.0000 0.0000 0.0000 0.0000 0.0000 16.7028
#
#
#
# Elastic Compliance Matrix: (Units=1/GPa)
#
#
# Indices 1 2 3 4 5 6 
#
# 1 0.015726 -0.003984 -0.001596 0.000000 0.000000 0.000000
# 2 -0.003984 0.015726 -0.001596 0.000000 0.000000 0.000000
# 3 -0.001596 -0.001596 0.010250 0.000000 0.000000 0.000000
# 4 0.000000 0.000000 0.000000 0.042393 0.000000 0.000000
# 5 0.000000 0.000000 0.000000 0.000000 0.042393 0.000000
# 6 0.000000 0.000000 0.000000 0.000000 0.000000 0.059870
#
#
# Mechanical properties :
#
#
# Convention : Reuss Voigt Hill
#
# Bulk Modulus (GPa) = 36.56173 37.23357 36.89765
# Shear Modulus (GPa) = 23.82921 25.75923 24.79422
#
# Velocity S-wave (km/s) = 3.68642 3.83280 3.76032
# Velocity P-wave (km/s) = 6.24264 6.38915 6.31632
#
# Compressibility (1/GPa) = 0.02735100
#
# Stress axis : x y z
#
# Youngs Moduli (GPa) = 63.58907 63.58907 97.55746
#
# Poissons Ratio (x) = 0.25335 0.15568
# Poissons Ratio (y) = 0.25335 0.15568
# Poissons Ratio (z) = 0.10147 0.10147
#
# Static dielectric constant tensor:
#      x y z
#    x 3.186880 0.000000 0.000000 
#    y 0.000000 3.186880 0.000000 
#    z 0.000000 0.000000 3.486900 
# 
# 
# High freq. dielectric constant tensor:
#      x y z
#    x 1.649160 0.000000 0.000000 
#    y 0.000000 1.649160 0.000000 
#    z 0.000000 0.000000 1.710000 
# 
# From -- ./inp_files/3300.got.cif
#   From: 2010.03.12/outbox.cif.g09.slc.cpg/sg138_2_cif.got.tgz:3300.got - 2010.04.08 09:41:05.
