data_PCOD8318099
_publ_section_title
;
Structure prediction by ZEFSAII (Michael W. Deem and Ramdas Pophale) SiO2 
 PCOD8318099
Probable space group: P 42/M N M
;
_chemical_formula_sum "Si O2"
_cell_formula_units_Z 48
_cell_length_a 13.094335
_cell_length_b 13.094335
_cell_length_c 15.262758
_cell_angle_alpha 90.000000
_cell_angle_beta 90.000000
_cell_angle_gamma 90.000000
_cell_volume 2616.977046
_symmetry_space_group_name_H-M "P 42/M N M"
_symmetry_group_IT_number 136
_symmetry_cell_setting 'tetragonal'
loop_
_space_group_symop_operation_xyz
x,y,z
1/2-y,1/2+x,1/2+z
-x,-y,z
1/2+y,1/2-x,1/2+z
1/2+x,1/2-y,1/2-z
1/2-x,1/2+y,1/2-z
y,x,-z
-y,-x,-z
-x,-y,-z
1/2+y,1/2-x,1/2-z
x,y,-z
1/2-y,1/2+x,1/2-z
1/2-x,1/2+y,1/2+z
1/2+x,1/2-y,1/2+z
-y,-x,z
y,x,z
loop_
_atom_site_type_symbol
_atom_site_label
_atom_site_fract_x
_atom_site_fract_y
_atom_site_fract_z
Si Si1 0.903522 0.740116 0.323520
Si Si2 0.368474 0.200818 0.165211
Si Si3 0.316256 0.845523 0.000000
Si Si4 0.443567 0.891796 0.500000
O O1 0.850777 0.850777 0.314224
O O2 0.862231 0.663458 0.250280
O O3 0.880385 0.690862 0.416900
O O4 0.024282 0.755391 0.313753
O O5 0.287618 0.287618 0.140557
O O6 0.378237 0.123775 0.085390
O O7 0.202732 0.797269 0.000000
O O8 0.304970 0.968094 0.000000
O O9 0.500000 0.000000 0.500000
#
# Coordination Sequence:
#
# PCOD8318099 Si02
#       4
#    16  16   8   8
#     4  10  21  36  57  84 116 155 194 237 291 347
#     4  11  23  37  57  87 119 150 194 248 293 347
#     4  10  20  36  56  84 115 147 196 238 279 343
#     4  12  21  36  61  88 111 155 198 241 291 341
#
# _framework density 18.341773
#
# number of rings (size 3 to 8) (size 9 to 14) (size 15 to 20)
#    0.000    1.333    3.333    2.500    0.000    0.667 
#    0.000    0.000    0.000    9.000    0.000    0.000 
#    0.000    0.000    0.000    0.000    0.000    0.000 
#
# Total GULP energy -595338.895874 kJ/mol
# GULP energy per Si atom -12402.893664 kJ/mol
# Density = 1.830003 g / cm^3
# Si number density = 18.341773 Si / 1000 Ang^3
#
#
#
# Elastic Constant Matrix: (Units=GPa)
#
#
# Indices 1 2 3 4 5 6 
#
# 1 137.5458 78.5975 55.5151 0.0000 0.0000 0.0000
# 2 78.5975 137.5455 55.5150 0.0000 0.0000 0.0000
# 3 55.5151 55.5150 142.7929 0.0000 0.0000 0.0000
# 4 0.0000 0.0000 0.0000 31.6940 0.0000 0.0000
# 5 0.0000 0.0000 0.0000 0.0000 31.6942 0.0000
# 6 0.0000 0.0000 0.0000 0.0000 0.0000 26.2979
#
#
#
# Elastic Compliance Matrix: (Units=1/GPa)
#
#
# Indices 1 2 3 4 5 6 
#
# 1 0.011373 -0.005591 -0.002248 0.000000 0.000000 0.000000
# 2 -0.005591 0.011373 -0.002248 0.000000 0.000000 0.000000
# 3 -0.002248 -0.002248 0.008751 0.000000 0.000000 0.000000
# 4 0.000000 0.000000 0.000000 0.031552 0.000000 0.000000
# 5 0.000000 0.000000 0.000000 0.000000 0.031552 0.000000
# 6 0.000000 0.000000 0.000000 0.000000 0.000000 0.038026
#
#
# Mechanical properties :
#
#
# Convention : Reuss Voigt Hill
#
# Bulk Modulus (GPa) = 88.31827 88.57102 88.44465
# Shear Modulus (GPa) = 31.93407 33.15432 32.54420
#
# Velocity S-wave (km/s) = 4.17712 4.25618 4.21684
# Velocity P-wave (km/s) = 8.45698 8.51748 8.48728
#
# Compressibility (1/GPa) = 0.01132269
#
# Stress axis : x y z
#
# Youngs Moduli (GPa) = 87.93077 87.93058 114.27553
#
# Poissons Ratio (x) = 0.49166 0.25684
# Poissons Ratio (y) = 0.49166 0.25684
# Poissons Ratio (z) = 0.19763 0.19763
#
# Static dielectric constant tensor:
#      x y z
#    x 3.541790 0.000000 0.000000 
#    y 0.000000 3.541790 0.000000 
#    z 0.000000 0.000000 3.356280 
# 
# 
# High freq. dielectric constant tensor:
#      x y z
#    x 1.709500 0.000000 0.000000 
#    y 0.000000 1.709500 0.000000 
#    z 0.000000 0.000000 1.733610 
# 
# From -- ./inp_files/3015.got.cif
#   From: 2010.03.12/outbox.cif.g09.slc.cpg/sg136_2_cif.got.tgz:3015.got - 2010.04.06 18:39:43.
