data_PCOD8318481
_publ_section_title
;
Structure prediction by ZEFSAII (Michael W. Deem and Ramdas Pophale) SiO2 
 PCOD8318481
Probable space group: P 42/N M C
;
_chemical_formula_sum "Si O2"
_cell_formula_units_Z 112
_cell_length_a 13.593014
_cell_length_b 13.593014
_cell_length_c 34.654091
_cell_angle_alpha 90.000000
_cell_angle_beta 90.000000
_cell_angle_gamma 90.000000
_cell_volume 6403.037420
_symmetry_space_group_name_H-M "P 42/N M C"
_symmetry_group_IT_number 137
_space_group.IT_coordinate_system_code '2'
_symmetry_cell_setting 'tetragonal'
loop_
_space_group_symop_operation_xyz
x,y,z
1/2-y,x,1/2+z
1/2-x,1/2-y,z
y,1/2-x,1/2+z
1/2+x,-y,-z
-x,1/2+y,-z
1/2+y,1/2+x,1/2-z
-y,-x,1/2-z
-x,-y,-z
1/2+y,-x,1/2-z
1/2+x,1/2+y,-z
-y,1/2+x,1/2-z
1/2-x,y,z
x,1/2-y,z
1/2-y,1/2-x,1/2+z
y,x,1/2+z
loop_
_atom_site_type_symbol
_atom_site_label
_atom_site_fract_x
_atom_site_fract_y
_atom_site_fract_z
Si Si1 0.137587 0.138335 0.508101
Si Si2 0.533831 0.865359 0.070375
Si Si3 0.136304 0.488657 0.868845
Si Si4 0.365404 0.142647 0.799651
Si Si5 0.025988 0.366014 0.142347
Si Si6 0.511369 0.863871 0.417581
Si Si7 0.989519 0.636581 0.768713
O O1 0.250000 0.129044 0.521528
O O2 0.115196 0.250000 0.494368
O O3 0.115126 0.061820 0.473990
O O4 0.071991 0.108612 0.544327
O O5 0.530094 0.750000 0.079887
O O6 0.619544 0.916100 0.095315
O O7 0.428530 0.912219 0.081304
O O8 0.250000 0.516612 0.865338
O O9 0.093105 0.434149 0.830863
O O10 0.077431 0.590961 0.873491
O O11 0.250000 0.151231 0.806969
O O12 0.414706 0.250000 0.805066
O O13 0.388630 0.106951 0.756381
O O14 0.030262 0.250000 0.134102
O O15 0.036028 0.391168 0.187526
O O16 0.113469 0.421358 0.119777
O O17 0.480668 0.750000 0.416336
O O18 0.080964 0.580964 0.750000
O O19 0.019125 0.750000 0.765494
#
# Coordination Sequence:
#
# PCOD8318481 Si02
#       7
#    16  16  16  16  16  16  16
#     4   9  17  31  53  79 105 134 170 214 264 318
#     4  10  20  33  52  78 104 134 176 222 264 306
#     4  10  19  32  50  74 104 133 164 206 257 314
#     4   9  17  29  46  68  94 126 161 200 248 297
#     4  10  21  34  51  75 103 136 173 212 254 308
#     4  10  21  36  53  74 104 142 181 220 262 305
#     4  10  19  32  49  72 102 132 165 205 251 308
#
# _framework density 17.491696999999998
#
# number of rings (size 3 to 8) (size 9 to 14) (size 15 to 20)
#    0.000    2.286    1.429    1.714    0.000    3.571 
#    0.000    2.857    0.000    0.000    0.000    4.000 
#    0.000    0.286    0.000    0.000    0.000    0.000 
#
# Total GULP energy -1388640.426106 kJ/mol
# GULP energy per Si atom -12398.575233 kJ/mol
# Density = 1.745189 g / cm^3
# Si number density = 17.491697 Si / 1000 Ang^3
#
#
#
# Elastic Constant Matrix: (Units=GPa)
#
#
# Indices 1 2 3 4 5 6 
#
# 1 53.5695 11.1111 13.7611 0.0000 0.0000 0.0000
# 2 11.1111 53.5695 13.7611 0.0000 0.0000 0.0000
# 3 13.7611 13.7611 79.9885 0.0000 0.0000 0.0000
# 4 0.0000 0.0000 0.0000 25.3920 0.0000 0.0000
# 5 0.0000 0.0000 0.0000 0.0000 25.3920 0.0000
# 6 0.0000 0.0000 0.0000 0.0000 0.0000 15.4085
#
#
#
# Elastic Compliance Matrix: (Units=1/GPa)
#
#
# Indices 1 2 3 4 5 6 
#
# 1 0.020117 -0.003435 -0.002870 0.000000 0.000000 0.000000
# 2 -0.003435 0.020117 -0.002870 0.000000 0.000000 0.000000
# 3 -0.002870 -0.002870 0.013489 0.000000 0.000000 0.000000
# 4 0.000000 0.000000 0.000000 0.039382 0.000000 0.000000
# 5 0.000000 0.000000 0.000000 0.000000 0.039382 0.000000
# 6 0.000000 0.000000 0.000000 0.000000 0.000000 0.064899
#
#
# Mechanical properties :
#
#
# Convention : Reuss Voigt Hill
#
# Bulk Modulus (GPa) = 28.27003 29.37714 28.82358
# Shear Modulus (GPa) = 21.97523 23.13812 22.55667
#
# Velocity S-wave (km/s) = 3.54831 3.64099 3.59495
# Velocity P-wave (km/s) = 5.74320 5.87427 5.80911
#
# Compressibility (1/GPa) = 0.03537315
#
# Stress axis : x y z
#
# Youngs Moduli (GPa) = 49.70892 49.70892 74.13303
#
# Poissons Ratio (x) = 0.17077 0.21276
# Poissons Ratio (y) = 0.17077 0.21276
# Poissons Ratio (z) = 0.14266 0.14266
#
# Static dielectric constant tensor:
#      x y z
#    x 3.139460 0.000000 0.000000 
#    y 0.000000 3.139460 0.000000 
#    z 0.000000 0.000000 3.374680 
# 
# 
# High freq. dielectric constant tensor:
#      x y z
#    x 1.663970 0.000000 0.000000 
#    y 0.000000 1.663970 0.000000 
#    z 0.000000 0.000000 1.687860 
# 
# From -- ./inp_files/10720.got.cif
#   From: 2010.03.12/outbox.cif.g09.slc.cpg/sg137_6_cif.got.tgz:10720.got - 2010.04.08 09:34:49.
