data_PCOD8318786
_publ_section_title
;
Structure prediction by ZEFSAII (Michael W. Deem and Ramdas Pophale) SiO2 
 PCOD8318786
Probable space group: P 42/N M C
;
_chemical_formula_sum "Si O2"
_cell_formula_units_Z 112
_cell_length_a 14.224198
_cell_length_b 14.224198
_cell_length_c 30.496478
_cell_angle_alpha 90.000000
_cell_angle_beta 90.000000
_cell_angle_gamma 90.000000
_cell_volume 6170.285568
_symmetry_space_group_name_H-M "P 42/N M C"
_symmetry_group_IT_number 137
_space_group.IT_coordinate_system_code '2'
_symmetry_cell_setting 'tetragonal'
loop_
_space_group_symop_operation_xyz
x,y,z
1/2-y,x,1/2+z
1/2-x,1/2-y,z
y,1/2-x,1/2+z
1/2+x,-y,-z
-x,1/2+y,-z
1/2+y,1/2+x,1/2-z
-y,-x,1/2-z
-x,-y,-z
1/2+y,-x,1/2-z
1/2+x,1/2+y,-z
-y,1/2+x,1/2-z
1/2-x,y,z
x,1/2-y,z
1/2-y,1/2-x,1/2+z
y,x,1/2+z
loop_
_atom_site_type_symbol
_atom_site_label
_atom_site_fract_x
_atom_site_fract_y
_atom_site_fract_z
Si Si1 0.853272 0.046967 0.459118
Si Si2 0.969246 0.362308 0.211782
Si Si3 0.888920 0.851087 0.423908
Si Si4 0.140705 0.048121 0.172072
Si Si5 0.361113 0.851720 0.135976
Si Si6 0.855645 0.138310 0.126440
Si Si7 0.853504 0.096417 0.956623
O O1 0.750000 0.090162 0.465479
O O2 0.903924 0.096869 0.417679
O O3 0.906809 0.071623 0.503850
O O4 0.841111 0.935620 0.450424
O O5 0.910899 0.410899 0.250000
O O6 0.970753 0.250000 0.218889
O O7 0.916651 0.393972 0.167576
O O8 0.075619 0.403343 0.209219
O O9 0.837023 0.750000 0.431849
O O10 0.890021 0.872143 0.371889
O O11 0.992571 0.839049 0.440524
O O12 0.250000 0.048832 0.187499
O O13 0.102742 0.940497 0.164383
O O14 0.250000 0.864571 0.132575
O O15 0.388608 0.750000 0.157466
O O16 0.397348 0.849178 0.085366
O O17 0.750000 0.098507 0.130906
O O18 0.855371 0.250000 0.123775
O O19 0.750000 0.136104 0.971176
#
# Coordination Sequence:
#
# PCOD8318786 Si02
#       7
#    16  16  16  16  16  16  16
#     4  11  19  27  43  69  99 132 168 209 254 297
#     4  11  22  37  56  77 101 132 168 208 258 318
#     4   9  18  32  47  66  97 134 171 209 246 295
#     4   9  18  34  55  78 104 134 169 210 254 305
#     4   8  14  27  49  76 104 136 173 209 249 297
#     4   9  18  31  46  68  97 127 161 203 252 301
#     4   9  17  28  44  68  99 135 173 212 250 292
#
# _framework density 18.151509999999998
#
# number of rings (size 3 to 8) (size 9 to 14) (size 15 to 20)
#    0.000    2.571    1.429    3.429    0.000    2.714 
#    0.000    2.143    0.000    0.000    0.000    0.000 
#    0.000    0.000    0.000    0.000    0.000    0.000 
#
# Total GULP energy -1387513.164822 kJ/mol
# GULP energy per Si atom -12388.510400 kJ/mol
# Density = 1.811020 g / cm^3
# Si number density = 18.151510 Si / 1000 Ang^3
#
#
#
# Elastic Constant Matrix: (Units=GPa)
#
#
# Indices 1 2 3 4 5 6 
#
# 1 89.5757 23.9038 31.5633 0.0000 0.0000 0.0000
# 2 23.9038 89.5757 31.5633 0.0000 0.0000 0.0000
# 3 31.5633 31.5633 67.8097 0.0000 0.0000 0.0000
# 4 0.0000 0.0000 0.0000 30.8394 0.0000 0.0000
# 5 0.0000 0.0000 0.0000 0.0000 30.8394 0.0000
# 6 0.0000 0.0000 0.0000 0.0000 0.0000 19.1316
#
#
#
# Elastic Compliance Matrix: (Units=1/GPa)
#
#
# Indices 1 2 3 4 5 6 
#
# 1 0.013559 -0.001668 -0.005535 0.000000 0.000000 0.000000
# 2 -0.001668 0.013559 -0.005535 0.000000 0.000000 0.000000
# 3 -0.005535 -0.005535 0.019900 0.000000 0.000000 0.000000
# 4 0.000000 0.000000 0.000000 0.032426 0.000000 0.000000
# 5 0.000000 0.000000 0.000000 0.000000 0.032426 0.000000
# 6 0.000000 0.000000 0.000000 0.000000 0.000000 0.052270
#
#
# Mechanical properties :
#
#
# Convention : Reuss Voigt Hill
#
# Bulk Modulus (GPa) = 46.42028 46.78025 46.60026
# Shear Modulus (GPa) = 25.40694 26.82412 26.11553
#
# Velocity S-wave (km/s) = 3.74534 3.84837 3.79720
# Velocity P-wave (km/s) = 6.65828 6.75090 6.70475
#
# Compressibility (1/GPa) = 0.02154231
#
# Stress axis : x y z
#
# Youngs Moduli (GPa) = 73.75074 73.75074 50.25162
#
# Poissons Ratio (x) = 0.12302 0.27814
# Poissons Ratio (y) = 0.12302 0.27814
# Poissons Ratio (z) = 0.40821 0.40821
#
# Static dielectric constant tensor:
#      x y z
#    x 3.495820 0.000000 0.000000 
#    y 0.000000 3.495820 0.000000 
#    z 0.000000 0.000000 3.230790 
# 
# 
# High freq. dielectric constant tensor:
#      x y z
#    x 1.691640 0.000000 0.000000 
#    y 0.000000 1.691640 0.000000 
#    z 0.000000 0.000000 1.677470 
# 
# From -- ./inp_files/9796.got.cif
#   From: 2010.03.12/outbox.cif.g09.slc.cpg/sg137_5_cif.got.tgz:9796.got - 2010.04.08 09:34:49.
