data_PCOD8318199
_publ_section_title
;
Structure prediction by ZEFSAII (Michael W. Deem and Ramdas Pophale) SiO2 
 PCOD8318199
Probable space group: P 42/M N M
;
_chemical_formula_sum "Si O2"
_cell_formula_units_Z 80
_cell_length_a 13.956883
_cell_length_b 13.956883
_cell_length_c 22.611364
_cell_angle_alpha 90.000000
_cell_angle_beta 90.000000
_cell_angle_gamma 90.000000
_cell_volume 4404.571223
_symmetry_space_group_name_H-M "P 42/M N M"
_symmetry_group_IT_number 136
_symmetry_cell_setting 'tetragonal'
loop_
_space_group_symop_operation_xyz
x,y,z
1/2-y,1/2+x,1/2+z
-x,-y,z
1/2+y,1/2-x,1/2+z
1/2+x,1/2-y,1/2-z
1/2-x,1/2+y,1/2-z
y,x,-z
-y,-x,-z
-x,-y,-z
1/2+y,1/2-x,1/2-z
x,y,-z
1/2-y,1/2+x,1/2-z
1/2-x,1/2+y,1/2+z
1/2+x,1/2-y,1/2+z
-y,-x,z
y,x,z
loop_
_atom_site_type_symbol
_atom_site_label
_atom_site_fract_x
_atom_site_fract_y
_atom_site_fract_z
Si Si1 0.872432 0.279582 0.125305
Si Si2 0.607967 0.980047 0.569289
Si Si3 0.797222 0.949247 0.068633
Si Si4 0.346755 0.193965 0.870154
Si Si5 0.915762 0.369601 0.247963
O O1 0.768344 0.231657 0.128237
O O2 0.863819 0.371962 0.083868
O O3 0.908028 0.303777 0.190720
O O4 0.945458 0.203073 0.096465
O O5 0.612702 0.998549 0.500000
O O6 0.500000 0.000000 0.593553
O O7 0.686230 0.048946 0.600084
O O8 0.901809 0.901809 0.077360
O O9 0.716653 0.888733 0.101439
O O10 0.768882 0.953839 0.000000
O O11 0.297843 0.297843 0.881622
O O12 0.353996 0.177378 0.800087
O O13 0.875415 0.474120 0.231412
#
# Coordination Sequence:
#
# PCOD8318199 Si02
#       5
#    16  16  16  16  16
#     4  12  24  38  59  90 122 154 196 242 294 350
#     4  11  21  37  59  86 120 154 190 237 287 339
#     4  10  21  37  58  87 123 159 193 233 289 356
#     4  11  21  36  60  88 115 148 195 242 286 342
#     4  11  20  37  62  86 115 150 190 244 297 342
#
# _framework density 18.162949000000001
#
# number of rings (size 3 to 8) (size 9 to 14) (size 15 to 20)
#    0.000    1.000    6.000    1.800    0.000    3.200 
#    0.000    1.000    0.000    0.600    0.000    1.400 
#    0.000    0.000    0.000    0.000    0.000    0.000 
#
# Total GULP energy -992289.028976 kJ/mol
# GULP energy per Si atom -12403.612862 kJ/mol
# Density = 1.812161 g / cm^3
# Si number density = 18.162949 Si / 1000 Ang^3
#
#
#
# Elastic Constant Matrix: (Units=GPa)
#
#
# Indices 1 2 3 4 5 6 
#
# 1 87.5972 58.1434 31.0135 0.0000 0.0000 0.0000
# 2 58.1434 87.5972 31.0135 0.0000 0.0000 0.0000
# 3 31.0135 31.0135 99.6505 0.0000 0.0000 0.0000
# 4 0.0000 0.0000 0.0000 23.1968 0.0000 0.0000
# 5 0.0000 0.0000 0.0000 0.0000 23.1968 0.0000
# 6 0.0000 0.0000 0.0000 0.0000 0.0000 35.6730
#
#
#
# Elastic Compliance Matrix: (Units=1/GPa)
#
#
# Indices 1 2 3 4 5 6 
#
# 1 0.020930 -0.013021 -0.002461 0.000000 0.000000 0.000000
# 2 -0.013021 0.020930 -0.002461 0.000000 0.000000 0.000000
# 3 -0.002461 -0.002461 0.011567 0.000000 0.000000 0.000000
# 4 0.000000 0.000000 0.000000 0.043109 0.000000 0.000000
# 5 0.000000 0.000000 0.000000 0.000000 0.043109 0.000000
# 6 0.000000 0.000000 0.000000 0.000000 0.000000 0.028032
#
#
# Mechanical properties :
#
#
# Convention : Reuss Voigt Hill
#
# Bulk Modulus (GPa) = 57.01428 57.24286 57.12857
# Shear Modulus (GPa) = 23.87619 26.72497 25.30058
#
# Velocity S-wave (km/s) = 3.62961 3.84005 3.73631
# Velocity P-wave (km/s) = 7.00172 7.15863 7.08061
#
# Compressibility (1/GPa) = 0.01753946
#
# Stress axis : x y z
#
# Youngs Moduli (GPa) = 47.77771 47.77771 86.45123
#
# Poissons Ratio (x) = 0.62212 0.21280
# Poissons Ratio (y) = 0.62212 0.21280
# Poissons Ratio (z) = 0.11760 0.11760
#
# Static dielectric constant tensor:
#      x y z
#    x 3.310830 0.000000 0.000000 
#    y 0.000000 3.310830 0.000000 
#    z 0.000000 0.000000 3.441870 
# 
# 
# High freq. dielectric constant tensor:
#      x y z
#    x 1.689680 0.000000 0.000000 
#    y 0.000000 1.689680 0.000000 
#    z 0.000000 0.000000 1.723230 
# 
# From -- ./inp_files/7217.got.cif
#   From: 2010.03.12/outbox.cif.g09.slc.cpg/sg136_4_cif.got.tgz:7217.got - 2010.04.06 18:39:43.
