data_PCOD8318868
_publ_section_title
;
Structure prediction by ZEFSAII (Michael W. Deem and Ramdas Pophale) SiO2 
 PCOD8318868
Probable space group: P 42/N C M
;
_chemical_formula_sum "Si O2"
_cell_formula_units_Z 112
_cell_length_a 16.225740
_cell_length_b 16.225740
_cell_length_c 25.997829
_cell_angle_alpha 90.000000
_cell_angle_beta 90.000000
_cell_angle_gamma 90.000000
_cell_volume 6844.569033
_symmetry_space_group_name_H-M "P 42/N C M"
_symmetry_group_IT_number 138
_space_group.IT_coordinate_system_code '2'
_symmetry_cell_setting 'tetragonal'
loop_
_space_group_symop_operation_xyz
x,y,z
1/2-y,x,1/2+z
1/2-x,1/2-y,z
y,1/2-x,1/2+z
1/2+x,-y,1/2-z
-x,1/2+y,1/2-z
1/2+y,1/2+x,-z
-y,-x,-z
-x,-y,-z
1/2+y,-x,1/2-z
1/2+x,1/2+y,-z
-y,1/2+x,1/2-z
1/2-x,y,1/2+z
x,1/2-y,1/2+z
1/2-y,1/2-x,z
y,x,z
loop_
_atom_site_type_symbol
_atom_site_label
_atom_site_fract_x
_atom_site_fract_y
_atom_site_fract_z
Si Si1 0.568819 0.063378 0.667503
Si Si2 0.744919 0.002851 0.678563
Si Si3 0.415684 0.547681 0.283369
Si Si4 0.315228 0.048809 0.624068
Si Si5 0.683903 0.951422 0.786652
Si Si6 0.254349 0.116661 0.413767
Si Si7 0.115497 0.245701 0.526138
O O1 0.543248 0.100217 0.722515
O O2 0.532058 0.126326 0.625287
O O3 0.527921 0.972080 0.661469
O O4 0.667518 0.059556 0.661792
O O5 0.722335 0.951321 0.729498
O O6 0.767376 0.944908 0.631393
O O7 0.827459 0.055805 0.688672
O O8 0.465796 0.465796 0.301122
O O9 0.467575 0.629098 0.296278
O O10 0.369175 0.130826 0.629282
O O11 0.253874 0.049323 0.671363
O O12 0.265603 0.048380 0.570197
O O13 0.630704 0.869297 0.792044
O O14 0.345864 0.154137 0.405386
O O15 0.189800 0.189800 0.413380
O O16 0.247814 0.072124 0.469836
O O17 0.186621 0.313380 0.525575
O O18 0.156435 0.156435 0.537588
#
# Coordination Sequence:
#
# PCOD8318868 Si02
#       7
#    16  16  16  16  16  16  16
#     4   9  18  31  45  67  97 125 156 200 242 273
#     4  11  18  30  49  65  91 131 162 186 235 293
#     4   9  18  32  46  65  97 130 154 190 245 287
#     4  10  18  31  50  69  94 127 159 195 241 288
#     4  10  20  31  47  72  98 122 155 201 243 281
#     4   9  17  28  44  70  99 123 154 198 242 288
#     4   8  15  28  45  67  96 126 154 191 242 290
#
# _framework density 16.363337999999999
#
# number of rings (size 3 to 8) (size 9 to 14) (size 15 to 20)
#    0.000    2.571    1.429    3.857    0.000    1.429 
#    0.000    1.429    0.000    4.286    0.000    4.000 
#    0.000    2.286    0.000    0.000    0.000    0.000 
#
# Total GULP energy -1388262.548562 kJ/mol
# GULP energy per Si atom -12395.201326 kJ/mol
# Density = 1.632609 g / cm^3
# Si number density = 16.363338 Si / 1000 Ang^3
#
#
#
# Elastic Constant Matrix: (Units=GPa)
#
#
# Indices 1 2 3 4 5 6 
#
# 1 73.2213 21.1790 36.9102 0.0000 0.0000 0.0000
# 2 21.1790 73.2213 36.9102 0.0000 0.0000 0.0000
# 3 36.9102 36.9102 97.0425 0.0000 0.0000 0.0000
# 4 0.0000 0.0000 0.0000 9.9576 0.0000 0.0000
# 5 0.0000 0.0000 0.0000 0.0000 9.9576 0.0000
# 6 0.0000 0.0000 0.0000 0.0000 0.0000 13.3581
#
#
#
# Elastic Compliance Matrix: (Units=1/GPa)
#
#
# Indices 1 2 3 4 5 6 
#
# 1 0.017146 -0.002069 -0.005735 0.000000 0.000000 0.000000
# 2 -0.002069 0.017146 -0.005735 0.000000 0.000000 0.000000
# 3 -0.005735 -0.005735 0.014667 0.000000 0.000000 0.000000
# 4 0.000000 0.000000 0.000000 0.100426 0.000000 0.000000
# 5 0.000000 0.000000 0.000000 0.000000 0.100426 0.000000
# 6 0.000000 0.000000 0.000000 0.000000 0.000000 0.074861
#
#
# Mechanical properties :
#
#
# Convention : Reuss Voigt Hill
#
# Bulk Modulus (GPa) = 45.69662 48.16490 46.93076
# Shear Modulus (GPa) = 13.92583 16.55369 15.23976
#
# Velocity S-wave (km/s) = 2.92042 3.18407 3.05509
# Velocity P-wave (km/s) = 6.27365 6.55868 6.41775
#
# Compressibility (1/GPa) = 0.02188346
#
# Stress axis : x y z
#
# Youngs Moduli (GPa) = 58.32105 58.32105 68.17895
#
# Poissons Ratio (x) = 0.12065 0.39100
# Poissons Ratio (y) = 0.12065 0.39100
# Poissons Ratio (z) = 0.33446 0.33446
#
# Static dielectric constant tensor:
#      x y z
#    x 2.972790 0.000000 0.000000 
#    y 0.000000 2.972790 0.000000 
#    z 0.000000 0.000000 3.247070 
# 
# 
# High freq. dielectric constant tensor:
#      x y z
#    x 1.610280 0.000000 0.000000 
#    y 0.000000 1.610280 0.000000 
#    z 0.000000 0.000000 1.625570 
# 
# From -- ./inp_files/7592.got.cif
#   From: 2010.03.12/outbox.cif.g09.slc.cpg/sg138_4_cif.got.tgz:7592.got - 2010.04.08 09:41:05.
