data_PCOD8318173
_publ_section_title
;
Structure prediction by ZEFSAII (Michael W. Deem and Ramdas Pophale) SiO2 
 PCOD8318173
Probable space group: P 42/M N M
;
_chemical_formula_sum "Si O2"
_cell_formula_units_Z 96
_cell_length_a 22.785660
_cell_length_b 22.785660
_cell_length_c 9.217837
_cell_angle_alpha 90.000000
_cell_angle_beta 90.000000
_cell_angle_gamma 90.000000
_cell_volume 4785.774701
_symmetry_space_group_name_H-M "P 42/M N M"
_symmetry_group_IT_number 136
_symmetry_cell_setting 'tetragonal'
loop_
_space_group_symop_operation_xyz
x,y,z
1/2-y,1/2+x,1/2+z
-x,-y,z
1/2+y,1/2-x,1/2+z
1/2+x,1/2-y,1/2-z
1/2-x,1/2+y,1/2-z
y,x,-z
-y,-x,-z
-x,-y,-z
1/2+y,1/2-x,1/2-z
x,y,-z
1/2-y,1/2+x,1/2-z
1/2-x,1/2+y,1/2+z
1/2+x,1/2-y,1/2+z
-y,-x,z
y,x,z
loop_
_atom_site_type_symbol
_atom_site_label
_atom_site_fract_x
_atom_site_fract_y
_atom_site_fract_z
Si Si1 0.333595 0.575601 0.834270
Si Si2 0.104086 0.798364 0.657458
Si Si3 0.208501 0.302465 0.829963
Si Si4 0.082859 0.523376 0.826069
Si Si5 0.527328 0.621625 0.329980
Si Si6 0.702070 0.911901 0.669155
O O1 0.357110 0.642891 0.814183
O O2 0.378866 0.536006 0.742970
O O3 0.266637 0.566337 0.780302
O O4 0.339016 0.555932 0.000000
O O5 0.072090 0.791223 0.500000
O O6 0.155177 0.844824 0.637872
O O7 0.134721 0.738108 0.704169
O O8 0.058633 0.818228 0.779553
O O9 0.248315 0.248315 0.770868
O O10 0.147758 0.308925 0.750914
O O11 0.198234 0.293883 0.000000
O O12 0.071006 0.460746 0.748583
O O13 0.150517 0.541531 0.794396
O O14 0.071130 0.519813 0.000000
O O15 0.519872 0.622719 0.500000
O O16 0.564594 0.564594 0.280381
O O17 0.703243 0.897487 0.500000
#
# Coordination Sequence:
#
# PCOD8318173 Si02
#       6
#    16  16  16  16  16  16
#     4  10  22  40  59  79 108 148 190 228 271 330
#     4   8  15  30  51  75 105 140 178 220 267 324
#     4   9  18  32  52  80 113 150 191 234 281 333
#     4  10  21  39  62  87 116 148 183 225 274 328
#     4  10  21  36  55  81 111 142 181 233 287 329
#     4  10  22  38  57  83 113 146 184 228 277 328
#
# _framework density 20.059449000000001
#
# number of rings (size 3 to 8) (size 9 to 14) (size 15 to 20)
#    0.000    2.500    0.000    3.000    0.000    6.667 
#    0.000    8.333    0.000    0.000    0.000    0.000 
#    0.000    0.000    0.000    0.000    0.000    0.000 
#
# Total GULP energy -1189660.961107 kJ/mol
# GULP energy per Si atom -12392.301678 kJ/mol
# Density = 2.001379 g / cm^3
# Si number density = 20.059449 Si / 1000 Ang^3
#
#
#
# Elastic Constant Matrix: (Units=GPa)
#
#
# Indices 1 2 3 4 5 6 
#
# 1 110.0777 52.0789 39.6833 0.0000 0.0000 0.0000
# 2 52.0789 110.0777 39.6833 0.0000 0.0000 0.0000
# 3 39.6833 39.6833 58.9702 0.0000 0.0000 0.0000
# 4 0.0000 0.0000 0.0000 28.4378 0.0000 0.0000
# 5 0.0000 0.0000 0.0000 0.0000 28.4378 0.0000
# 6 0.0000 0.0000 0.0000 0.0000 0.0000 29.9910
#
#
#
# Elastic Compliance Matrix: (Units=1/GPa)
#
#
# Indices 1 2 3 4 5 6 
#
# 1 0.013219 -0.004023 -0.006188 0.000000 0.000000 0.000000
# 2 -0.004023 0.013219 -0.006188 0.000000 0.000000 0.000000
# 3 -0.006188 -0.006188 0.025286 0.000000 0.000000 0.000000
# 4 0.000000 0.000000 0.000000 0.035164 0.000000 0.000000
# 5 0.000000 0.000000 0.000000 0.000000 0.035164 0.000000
# 6 0.000000 0.000000 0.000000 0.000000 0.000000 0.033343
#
#
# Mechanical properties :
#
#
# Convention : Reuss Voigt Hill
#
# Bulk Modulus (GPa) = 52.84014 60.22406 56.53210
# Shear Modulus (GPa) = 25.70664 27.21867 26.46266
#
# Velocity S-wave (km/s) = 3.58372 3.68761 3.63604
# Velocity P-wave (km/s) = 6.59720 6.94401 6.77282
#
# Compressibility (1/GPa) = 0.01892501
#
# Stress axis : x y z
#
# Youngs Moduli (GPa) = 75.65069 75.65069 39.54751
#
# Poissons Ratio (x) = 0.30435 0.24472
# Poissons Ratio (y) = 0.30435 0.24472
# Poissons Ratio (z) = 0.46813 0.46813
#
# Static dielectric constant tensor:
#      x y z
#    x 3.760050 0.000000 0.000000 
#    y 0.000000 3.760050 0.000000 
#    z 0.000000 0.000000 3.552000 
# 
# 
# High freq. dielectric constant tensor:
#      x y z
#    x 1.780520 0.000000 0.000000 
#    y 0.000000 1.780520 0.000000 
#    z 0.000000 0.000000 1.775130 
# 
# From -- ./inp_files/1930.got.cif
#   From: 2010.03.12/outbox.cif.g09.slc.cpg/sg136_1_cif.got.tgz:1930.got - 2010.04.06 18:39:43.
