data_PCOD8318362
_publ_section_title
;
Structure prediction by ZEFSAII (Michael W. Deem and Ramdas Pophale) SiO2 
 PCOD8318362
Probable space group: P 42/N M C
;
_chemical_formula_sum "Si O2"
_cell_formula_units_Z 64
_cell_length_a 29.486393
_cell_length_b 29.486393
_cell_length_c 4.962932
_cell_angle_alpha 90.000000
_cell_angle_beta 90.000000
_cell_angle_gamma 90.000000
_cell_volume 4315.008186
_symmetry_space_group_name_H-M "P 42/N M C"
_symmetry_group_IT_number 137
_space_group.IT_coordinate_system_code '2'
_symmetry_cell_setting 'tetragonal'
loop_
_space_group_symop_operation_xyz
x,y,z
1/2-y,x,1/2+z
1/2-x,1/2-y,z
y,1/2-x,1/2+z
1/2+x,-y,-z
-x,1/2+y,-z
1/2+y,1/2+x,1/2-z
-y,-x,1/2-z
-x,-y,-z
1/2+y,-x,1/2-z
1/2+x,1/2+y,-z
-y,1/2+x,1/2-z
1/2-x,y,z
x,1/2-y,z
1/2-y,1/2-x,1/2+z
y,x,1/2+z
loop_
_atom_site_type_symbol
_atom_site_label
_atom_site_fract_x
_atom_site_fract_y
_atom_site_fract_z
Si Si1 0.985153 0.942448 0.715668
Si Si2 0.750000 0.019151 0.196468
Si Si3 0.845444 0.080839 0.814071
Si Si4 0.980333 0.346683 0.185368
Si Si5 0.250000 0.921775 0.303234
O O1 0.967043 0.950171 0.415288
O O2 0.986026 0.888612 0.765029
O O3 0.035355 0.964646 0.750000
O O4 0.702034 0.993696 0.264205
O O5 0.750000 0.064572 0.383001
O O6 0.750000 0.032587 0.882776
O O7 0.884265 0.115736 0.750000
O O8 0.849334 0.037218 0.619785
O O9 0.796307 0.105203 0.767848
O O10 0.850220 0.063209 0.117973
#
# Coordination Sequence:
#
# PCOD8318362 Si02
#       5
#    16   8  16  16   8
#     4  10  19  28  38  55  80 107 131 153 180 222
#     4   8  16  28  42  56  72  93 122 163 196 220
#     4  10  17  26  41  56  72  95 122 157 195 228
#     4  10  18  29  42  58  76  97 129 161 191 222
#     4   8  16  26  36  55  74  88 116 156 194 229
#
# _framework density 14.831954
#
# number of rings (size 3 to 8) (size 9 to 14) (size 15 to 20)
#    0.000    2.500    0.000    3.750    0.000    2.000 
#    0.000    0.000    0.000    0.375    0.000    0.000 
#    0.000   12.000    0.000    0.000    0.000    5.750 
#
# Total GULP energy -792965.460355 kJ/mol
# GULP energy per Si atom -12390.085318 kJ/mol
# Density = 1.479820 g / cm^3
# Si number density = 14.831954 Si / 1000 Ang^3
#
#
#
# Elastic Constant Matrix: (Units=GPa)
#
#
# Indices 1 2 3 4 5 6 
#
# 1 64.7248 24.8202 -0.8160 0.0000 0.0000 0.0000
# 2 24.8202 64.7260 -0.8162 0.0000 0.0000 0.0000
# 3 -0.8160 -0.8162 52.4527 0.0000 0.0000 0.0000
# 4 0.0000 0.0000 0.0000 13.6734 0.0000 0.0000
# 5 0.0000 0.0000 0.0000 0.0000 13.6731 0.0000
# 6 0.0000 0.0000 0.0000 0.0000 0.0000 6.7751
#
#
#
# Elastic Compliance Matrix: (Units=1/GPa)
#
#
# Indices 1 2 3 4 5 6 
#
# 1 0.018115 -0.006944 0.000174 0.000000 0.000000 0.000000
# 2 -0.006944 0.018115 0.000174 0.000000 0.000000 0.000000
# 3 0.000174 0.000174 0.019070 0.000000 0.000000 0.000000
# 4 0.000000 0.000000 0.000000 0.073135 0.000000 0.000000
# 5 0.000000 0.000000 0.000000 0.000000 0.073136 0.000000
# 6 0.000000 0.000000 0.000000 0.000000 0.000000 0.147599
#
#
# Mechanical properties :
#
#
# Convention : Reuss Voigt Hill
#
# Bulk Modulus (GPa) = 23.74916 25.36439 24.55678
# Shear Modulus (GPa) = 13.28376 17.40535 15.34455
#
# Velocity S-wave (km/s) = 2.99593 3.42936 3.21995
# Velocity P-wave (km/s) = 5.29286 5.72879 5.51513
#
# Compressibility (1/GPa) = 0.04210675
#
# Stress axis : x y z
#
# Youngs Moduli (GPa) = 55.20225 55.20326 52.43778
#
# Poissons Ratio (x) = 0.38335 -0.00911
# Poissons Ratio (y) = 0.38335 -0.00912
# Poissons Ratio (z) = -0.00959 -0.00960
#
# Static dielectric constant tensor:
#      x y z
#    x 2.759260 0.000000 0.000000 
#    y 0.000000 2.759250 0.000000 
#    z 0.000000 0.000000 3.091180 
# 
# 
# High freq. dielectric constant tensor:
#      x y z
#    x 1.529020 0.000000 0.000000 
#    y 0.000000 1.529020 0.000000 
#    z 0.000000 0.000000 1.598980 
# 
# From -- ./inp_files/507.got.cif
#   From: 2010.03.12/outbox.cif.g09.slc.cpg/sg137_1_cif.got.tgz:507.got - 2010.04.08 09:34:49.
