data_PCOD8318361
_publ_section_title
;
Structure prediction by ZEFSAII (Michael W. Deem and Ramdas Pophale) SiO2 
 PCOD8318361
Probable space group: P 42/N M C
;
_chemical_formula_sum "Si O2"
_cell_formula_units_Z 120
_cell_length_a 24.356409
_cell_length_b 24.356409
_cell_length_c 12.352137
_cell_angle_alpha 90.000000
_cell_angle_beta 90.000000
_cell_angle_gamma 90.000000
_cell_volume 7327.715786
_symmetry_space_group_name_H-M "P 42/N M C"
_symmetry_group_IT_number 137
_space_group.IT_coordinate_system_code '2'
_symmetry_cell_setting 'tetragonal'
loop_
_space_group_symop_operation_xyz
x,y,z
1/2-y,x,1/2+z
1/2-x,1/2-y,z
y,1/2-x,1/2+z
1/2+x,-y,-z
-x,1/2+y,-z
1/2+y,1/2+x,1/2-z
-y,-x,1/2-z
-x,-y,-z
1/2+y,-x,1/2-z
1/2+x,1/2+y,-z
-y,1/2+x,1/2-z
1/2-x,y,z
x,1/2-y,z
1/2-y,1/2-x,1/2+z
y,x,1/2+z
loop_
_atom_site_type_symbol
_atom_site_label
_atom_site_fract_x
_atom_site_fract_y
_atom_site_fract_z
Si Si1 0.097937 0.902064 0.750000
Si Si2 0.385212 0.188914 0.867025
Si Si3 0.527445 0.060338 0.058170
Si Si4 0.550585 0.653663 0.934902
Si Si5 0.940710 0.483788 0.854729
Si Si6 0.141840 0.418731 0.147395
Si Si7 0.582355 0.813659 0.585427
Si Si8 0.016652 0.687892 0.734961
O O1 0.091218 0.943127 0.652774
O O2 0.077332 0.840817 0.717236
O O3 0.357681 0.250000 0.869658
O O4 0.412675 0.181836 0.749435
O O5 0.342231 0.139840 0.884266
O O6 0.431501 0.189109 0.961196
O O7 0.477520 0.098693 0.017003
O O8 0.501760 0.005365 0.111214
O O9 0.572787 0.051033 0.963117
O O10 0.604910 0.635914 0.867453
O O11 0.508519 0.685860 0.856693
O O12 0.945235 0.445235 0.750000
O O13 0.896890 0.529722 0.828722
O O14 0.177852 0.430293 0.040943
O O15 0.589784 0.750000 0.612984
O O16 0.530243 0.837297 0.654107
O O17 0.029019 0.750000 0.703266
#
# Coordination Sequence:
#
# PCOD8318361 Si02
#       8
#     8  16  16  16  16  16  16  16
#     4  10  18  30  48  71  94 118 154 188 224 278
#     4  11  21  33  49  66  89 120 161 205 247 286
#     4   9  17  26  41  65  92 119 147 184 221 272
#     4   9  18  31  47  66  92 121 154 192 235 278
#     4  10  17  25  41  66  95 121 146 176 231 284
#     4  10  19  31  47  66  93 122 154 196 237 286
#     4  10  21  36  51  66  89 122 162 203 246 284
#     4  10  19  33  52  72  96 125 155 191 235 284
#
# _framework density 16.376182
#
# number of rings (size 3 to 8) (size 9 to 14) (size 15 to 20)
#    0.000    2.133    2.000    2.400    0.000    2.400 
#    0.000    0.000    0.000    1.800    0.000    0.000 
#    0.000    0.000    0.000    0.000    0.000    0.000 
#
# Total GULP energy -1486586.202865 kJ/mol
# GULP energy per Si atom -12388.218357 kJ/mol
# Density = 1.633891 g / cm^3
# Si number density = 16.376182 Si / 1000 Ang^3
#
#
#
# Elastic Constant Matrix: (Units=GPa)
#
#
# Indices 1 2 3 4 5 6 
#
# 1 62.8296 36.4003 22.6113 0.0000 0.0000 0.0000
# 2 36.4003 62.8294 22.6114 0.0000 0.0000 0.0000
# 3 22.6113 22.6114 95.2555 0.0000 0.0000 0.0000
# 4 0.0000 0.0000 0.0000 19.1426 0.0000 0.0000
# 5 0.0000 0.0000 0.0000 0.0000 19.1426 0.0000
# 6 0.0000 0.0000 0.0000 0.0000 0.0000 19.8698
#
#
#
# Elastic Compliance Matrix: (Units=1/GPa)
#
#
# Indices 1 2 3 4 5 6 
#
# 1 0.024568 -0.013268 -0.002682 0.000000 0.000000 0.000000
# 2 -0.013268 0.024569 -0.002682 0.000000 0.000000 0.000000
# 3 -0.002682 -0.002682 0.011772 0.000000 0.000000 0.000000
# 4 0.000000 0.000000 0.000000 0.052239 0.000000 0.000000
# 5 0.000000 0.000000 0.000000 0.000000 0.052239 0.000000
# 6 0.000000 0.000000 0.000000 0.000000 0.000000 0.050328
#
#
# Mechanical properties :
#
#
# Convention : Reuss Voigt Hill
#
# Bulk Modulus (GPa) = 42.29718 42.68448 42.49083
# Shear Modulus (GPa) = 19.16722 20.91712 20.04217
#
# Velocity S-wave (km/s) = 3.42487 3.57780 3.50217
# Velocity P-wave (km/s) = 6.44393 6.57184 6.50820
#
# Compressibility (1/GPa) = 0.02364224
#
# Stress axis : x y z
#
# Youngs Moduli (GPa) = 40.70263 40.70250 84.95071
#
# Poissons Ratio (x) = 0.54006 0.22787
# Poissons Ratio (y) = 0.54006 0.22787
# Poissons Ratio (z) = 0.10918 0.10918
#
# Static dielectric constant tensor:
#      x y z
#    x 2.930900 0.000000 0.000000 
#    y 0.000000 2.930900 0.000000 
#    z 0.000000 0.000000 3.304130 
# 
# 
# High freq. dielectric constant tensor:
#      x y z
#    x 1.600800 0.000000 0.000000 
#    y 0.000000 1.600800 0.000000 
#    z 0.000000 0.000000 1.648420 
# 
# From -- ./inp_files/4028.got.cif
#   From: 2010.03.12/outbox.cif.g09.slc.cpg/sg137_3_cif.got.tgz:4028.got - 2010.04.08 09:34:49.
