data_PCOD8318878
_publ_section_title
;
Structure prediction by ZEFSAII (Michael W. Deem and Ramdas Pophale) SiO2 
 PCOD8318878
Probable space group: P 42/N C M
;
_chemical_formula_sum "Si O2"
_cell_formula_units_Z 96
_cell_length_a 15.938561
_cell_length_b 15.938561
_cell_length_c 19.613068
_cell_angle_alpha 90.000000
_cell_angle_beta 90.000000
_cell_angle_gamma 90.000000
_cell_volume 4982.459209
_symmetry_space_group_name_H-M "P 42/N C M"
_symmetry_group_IT_number 138
_space_group.IT_coordinate_system_code '2'
_symmetry_cell_setting 'tetragonal'
loop_
_space_group_symop_operation_xyz
x,y,z
1/2-y,x,1/2+z
1/2-x,1/2-y,z
y,1/2-x,1/2+z
1/2+x,-y,1/2-z
-x,1/2+y,1/2-z
1/2+y,1/2+x,-z
-y,-x,-z
-x,-y,-z
1/2+y,-x,1/2-z
1/2+x,1/2+y,-z
-y,1/2+x,1/2-z
1/2-x,y,1/2+z
x,1/2-y,1/2+z
1/2-y,1/2-x,z
y,x,z
loop_
_atom_site_type_symbol
_atom_site_label
_atom_site_fract_x
_atom_site_fract_y
_atom_site_fract_z
Si Si1 0.028411 0.748113 0.370619
Si Si2 0.623104 0.138996 0.310690
Si Si3 0.689707 0.948141 0.733588
Si Si4 0.887480 0.750240 0.481974
Si Si5 0.135367 0.821664 0.656072
Si Si6 0.684193 0.949558 0.120521
O O1 0.058987 0.652941 0.355159
O O2 0.114698 0.800728 0.380271
O O3 0.975339 0.785852 0.308994
O O4 0.971123 0.749265 0.436840
O O5 0.522610 0.142926 0.307655
O O6 0.660038 0.124375 0.235877
O O7 0.661732 0.223466 0.345471
O O8 0.631221 0.868780 0.740231
O O9 0.771922 0.923062 0.691290
O O10 0.835569 0.664432 0.472079
O O11 0.829627 0.829627 0.461896
O O12 0.917932 0.756248 0.559591
O O13 0.048200 0.833170 0.616089
O O14 0.593960 0.906041 0.116815
#
# Coordination Sequence:
#
# PCOD8318878 Si02
#       6
#    16  16  16  16  16  16
#     4  11  21  35  59  88 116 154 194 239 300 350
#     4  10  18  34  57  86 118 151 180 233 295 346
#     4  10  21  35  55  87 117 146 195 249 289 343
#     4  10  23  42  59  79 117 163 201 245 300 347
#     4  10  19  34  60  90 117 148 189 239 291 350
#     4  10  21  39  61  83 111 154 201 241 294 354
#
# _framework density 19.267593999999999
#
# number of rings (size 3 to 8) (size 9 to 14) (size 15 to 20)
#    0.000    1.833    5.000    1.500    0.000    6.333 
#    0.000    5.000    0.000    9.000    0.000    0.000 
#    0.000    0.000    0.000    0.000    0.000    0.000 
#
# Total GULP energy -1190115.729454 kJ/mol
# GULP energy per Si atom -12397.038848 kJ/mol
# Density = 1.922374 g / cm^3
# Si number density = 19.267594 Si / 1000 Ang^3
#
#
#
# Elastic Constant Matrix: (Units=GPa)
#
#
# Indices 1 2 3 4 5 6 
#
# 1 65.2536 19.6275 22.1673 0.0000 0.0000 0.0000
# 2 19.6275 65.2536 22.1673 0.0000 0.0000 0.0000
# 3 22.1673 22.1673 38.2341 0.0000 0.0000 0.0000
# 4 0.0000 0.0000 0.0000 32.4617 0.0000 0.0000
# 5 0.0000 0.0000 0.0000 0.0000 32.4617 0.0000
# 6 0.0000 0.0000 0.0000 0.0000 0.0000 24.9741
#
#
#
# Elastic Compliance Matrix: (Units=1/GPa)
#
#
# Indices 1 2 3 4 5 6 
#
# 1 0.019408 -0.002509 -0.009797 0.000000 0.000000 0.000000
# 2 -0.002509 0.019408 -0.009797 0.000000 0.000000 0.000000
# 3 -0.009797 -0.009797 0.037515 0.000000 0.000000 0.000000
# 4 0.000000 0.000000 0.000000 0.030806 0.000000 0.000000
# 5 0.000000 0.000000 0.000000 0.000000 0.030806 0.000000
# 6 0.000000 0.000000 0.000000 0.000000 0.000000 0.040042
#
#
# Mechanical properties :
#
#
# Convention : Reuss Voigt Hill
#
# Bulk Modulus (GPa) = 31.13055 32.96280 32.04668
# Shear Modulus (GPa) = 21.46848 24.96476 23.21662
#
# Velocity S-wave (km/s) = 3.34163 3.60347 3.47501
# Velocity P-wave (km/s) = 5.57500 5.87012 5.72447
#
# Compressibility (1/GPa) = 0.03212278
#
# Stress axis : x y z
#
# Youngs Moduli (GPa) = 51.52542 51.52542 26.65580
#
# Poissons Ratio (x) = 0.12930 0.26116
# Poissons Ratio (y) = 0.12930 0.26116
# Poissons Ratio (z) = 0.50481 0.50481
#
# Static dielectric constant tensor:
#      x y z
#    x 3.626260 0.000000 0.000000 
#    y 0.000000 3.626260 0.000000 
#    z 0.000000 0.000000 3.283630 
# 
# 
# High freq. dielectric constant tensor:
#      x y z
#    x 1.753160 0.000000 0.000000 
#    y 0.000000 1.753160 0.000000 
#    z 0.000000 0.000000 1.725400 
# 
# From -- ./inp_files/6269.got.cif
#   From: 2010.03.12/outbox.cif.g09.slc.cpg/sg138_4_cif.got.tgz:6269.got - 2010.04.08 09:41:05.
