data_PCOD8318686
_publ_section_title
;
Structure prediction by ZEFSAII (Michael W. Deem and Ramdas Pophale) SiO2 
 PCOD8318686
Probable space group: P 42/N M C
;
_chemical_formula_sum "Si O2"
_cell_formula_units_Z 96
_cell_length_a 14.432666
_cell_length_b 14.432666
_cell_length_c 24.045081
_cell_angle_alpha 90.000000
_cell_angle_beta 90.000000
_cell_angle_gamma 90.000000
_cell_volume 5008.634804
_symmetry_space_group_name_H-M "P 42/N M C"
_symmetry_group_IT_number 137
_space_group.IT_coordinate_system_code '2'
_symmetry_cell_setting 'tetragonal'
loop_
_space_group_symop_operation_xyz
x,y,z
1/2-y,x,1/2+z
1/2-x,1/2-y,z
y,1/2-x,1/2+z
1/2+x,-y,-z
-x,1/2+y,-z
1/2+y,1/2+x,1/2-z
-y,-x,1/2-z
-x,-y,-z
1/2+y,-x,1/2-z
1/2+x,1/2+y,-z
-y,1/2+x,1/2-z
1/2-x,y,z
x,1/2-y,z
1/2-y,1/2-x,1/2+z
y,x,1/2+z
loop_
_atom_site_type_symbol
_atom_site_label
_atom_site_fract_x
_atom_site_fract_y
_atom_site_fract_z
Si Si1 0.593548 0.352051 0.472968
Si Si2 0.641865 0.469852 0.903271
Si Si3 0.050529 0.638932 0.196593
Si Si4 0.648842 0.647449 0.173302
Si Si5 0.114235 0.351737 0.451481
Si Si6 0.349540 0.456357 0.560530
O O1 0.639889 0.250000 0.465139
O O2 0.581223 0.373194 0.538357
O O3 0.495177 0.354345 0.443003
O O4 0.650939 0.431698 0.442206
O O5 0.750000 0.489675 0.891929
O O6 0.600120 0.403998 0.856758
O O7 0.588086 0.568422 0.903149
O O8 0.106324 0.606324 0.250000
O O9 0.053894 0.750000 0.191651
O O10 0.943030 0.602319 0.201252
O O11 0.750000 0.596321 0.183275
O O12 0.658951 0.750000 0.198089
O O13 0.626277 0.657843 0.107973
O O14 0.145070 0.250000 0.472773
O O15 0.147114 0.425083 0.496477
O O16 0.250000 0.427443 0.586693
#
# Coordination Sequence:
#
# PCOD8318686 Si02
#       6
#    16  16  16  16  16  16
#     4   9  18  31  47  70 103 141 178 216 257 304
#     4  10  21  36  52  74 106 140 177 221 265 312
#     4  11  23  39  59  80 102 131 172 222 271 317
#     4   9  17  30  51  79 106 131 163 206 255 306
#     4   9  16  28  49  74 101 135 173 210 247 297
#     4  11  20  30  48  74 108 147 179 209 252 309
#
# _framework density 19.166899000000001
#
# number of rings (size 3 to 8) (size 9 to 14) (size 15 to 20)
#    0.000    2.167    0.000    6.500    0.000    5.500 
#    0.000    2.500    0.000    2.000    0.000    0.000 
#    0.000    1.667    0.000    0.000    0.000    0.000 
#
# Total GULP energy -1189341.495734 kJ/mol
# GULP energy per Si atom -12388.973914 kJ/mol
# Density = 1.912327 g / cm^3
# Si number density = 19.166899 Si / 1000 Ang^3
#
#
#
# Elastic Constant Matrix: (Units=GPa)
#
#
# Indices 1 2 3 4 5 6 
#
# 1 120.1536 44.8030 34.9705 0.0000 0.0000 0.0000
# 2 44.8030 120.1536 34.9705 0.0000 0.0000 0.0000
# 3 34.9705 34.9705 32.2050 0.0000 0.0000 0.0000
# 4 0.0000 0.0000 0.0000 14.2949 0.0000 0.0000
# 5 0.0000 0.0000 0.0000 0.0000 14.2949 0.0000
# 6 0.0000 0.0000 0.0000 0.0000 0.0000 6.9608
#
#
#
# Elastic Compliance Matrix: (Units=1/GPa)
#
#
# Indices 1 2 3 4 5 6 
#
# 1 0.012253 -0.001018 -0.012199 0.000000 0.000000 0.000000
# 2 -0.001018 0.012253 -0.012199 0.000000 0.000000 0.000000
# 3 -0.012199 -0.012199 0.057545 0.000000 0.000000 0.000000
# 4 0.000000 0.000000 0.000000 0.069955 0.000000 0.000000
# 5 0.000000 0.000000 0.000000 0.000000 0.069955 0.000000
# 6 0.000000 0.000000 0.000000 0.000000 0.000000 0.143662
#
#
# Mechanical properties :
#
#
# Convention : Reuss Voigt Hill
#
# Bulk Modulus (GPa) = 32.03407 55.77779 43.90593
# Shear Modulus (GPa) = 11.71333 17.62797 14.67065
#
# Velocity S-wave (km/s) = 2.47477 3.03596 2.76962
# Velocity P-wave (km/s) = 4.99154 6.43845 5.76061
#
# Compressibility (1/GPa) = 0.03121677
#
# Stress axis : x y z
#
# Youngs Moduli (GPa) = 81.61252 81.61252 17.37763
#
# Poissons Ratio (x) = 0.08310 0.21200
# Poissons Ratio (y) = 0.08310 0.21200
# Poissons Ratio (z) = 0.99563 0.99563
#
# Static dielectric constant tensor:
#      x y z
#    x 4.334210 0.000000 0.000000 
#    y 0.000000 4.334210 0.000000 
#    z 0.000000 0.000000 3.092510 
# 
# 
# High freq. dielectric constant tensor:
#      x y z
#    x 1.751380 0.000000 0.000000 
#    y 0.000000 1.751380 0.000000 
#    z 0.000000 0.000000 1.692320 
# 
# From -- ./inp_files/7835.got.cif
#   From: 2010.03.12/outbox.cif.g09.slc.cpg/sg137_4_cif.got.tgz:7835.got - 2010.04.08 09:34:49.
