data_PCOD8318268
_publ_section_title
;
Structure prediction by ZEFSAII (Michael W. Deem and Ramdas Pophale) SiO2 
 PCOD8318268
Probable space group: P 42/M N M
;
_chemical_formula_sum "Si O2"
_cell_formula_units_Z 112
_cell_length_a 15.229584
_cell_length_b 15.229584
_cell_length_c 25.741255
_cell_angle_alpha 90.000000
_cell_angle_beta 90.000000
_cell_angle_gamma 90.000000
_cell_volume 5970.432575
_symmetry_space_group_name_H-M "P 42/M N M"
_symmetry_group_IT_number 136
_symmetry_cell_setting 'tetragonal'
loop_
_space_group_symop_operation_xyz
x,y,z
1/2-y,1/2+x,1/2+z
-x,-y,z
1/2+y,1/2-x,1/2+z
1/2+x,1/2-y,1/2-z
1/2-x,1/2+y,1/2-z
y,x,-z
-y,-x,-z
-x,-y,-z
1/2+y,1/2-x,1/2-z
x,y,-z
1/2-y,1/2+x,1/2-z
1/2-x,1/2+y,1/2+z
1/2+x,1/2-y,1/2+z
-y,-x,z
y,x,z
loop_
_atom_site_type_symbol
_atom_site_label
_atom_site_fract_x
_atom_site_fract_y
_atom_site_fract_z
Si Si1 0.886393 0.409320 0.749989
Si Si2 0.640858 0.506195 0.308391
Si Si3 0.123941 0.270298 0.153135
Si Si4 0.270305 0.123963 0.346803
Si Si5 0.882963 0.416464 0.441210
Si Si6 0.506183 0.640880 0.808247
Si Si7 0.882780 0.416738 0.058798
O O1 0.878353 0.513863 0.750104
O O2 0.841532 0.369676 0.698722
O O3 0.841544 0.369529 0.801221
O O4 0.564647 0.435354 0.306509
O O5 0.598671 0.598671 0.328949
O O6 0.718990 0.469858 0.344446
O O7 0.678265 0.519247 0.250076
O O8 0.204511 0.204511 0.160235
O O9 0.131469 0.316320 0.097417
O O10 0.204549 0.204549 0.339785
O O11 0.316309 0.131356 0.402540
O O12 0.219067 0.030147 0.344260
O O13 0.851168 0.399128 0.500000
O O14 0.883887 0.519629 0.428997
O O15 0.979191 0.376951 0.432613
O O16 0.435289 0.564712 0.806399
O O17 0.598649 0.598649 0.828790
O O18 0.855948 0.392389 0.000000
#
# Coordination Sequence:
#
# PCOD8318268 Si02
#       7
#    16  16  16  16  16  16  16
#     4  11  23  38  54  73 105 149 188 219 260 319
#     4   8  14  27  47  70 101 142 178 202 239 308
#     4  11  20  33  55  83 113 138 173 228 278 315
#     4  11  20  33  55  83 113 138 173 228 278 315
#     4   9  19  38  61  79 100 139 185 220 260 323
#     4   8  14  27  47  70 101 142 178 202 239 308
#     4   9  19  38  61  79 100 139 185 220 260 323
#
# _framework density 18.75911
#
# number of rings (size 3 to 8) (size 9 to 14) (size 15 to 20)
#    0.000    2.429    1.429    3.857    0.000    2.857 
#    0.000    7.143    0.000    2.571    0.000    4.000 
#    0.000    0.000    0.000    0.000    0.000    0.000 
#
# Total GULP energy -1388306.021330 kJ/mol
# GULP energy per Si atom -12395.589476 kJ/mol
# Density = 1.871641 g / cm^3
# Si number density = 18.759110 Si / 1000 Ang^3
#
#
#
# Elastic Constant Matrix: (Units=GPa)
#
#
# Indices 1 2 3 4 5 6 
#
# 1 65.1979 21.3605 38.4357 0.0000 0.0000 0.0000
# 2 21.3605 65.1979 38.4357 0.0000 0.0000 0.0000
# 3 38.4357 38.4357 107.5530 0.0000 0.0000 0.0000
# 4 0.0000 0.0000 0.0000 21.4009 0.0000 0.0000
# 5 0.0000 0.0000 0.0000 0.0000 21.4009 0.0000
# 6 0.0000 0.0000 0.0000 0.0000 0.0000 20.2078
#
#
#
# Elastic Compliance Matrix: (Units=1/GPa)
#
#
# Indices 1 2 3 4 5 6 
#
# 1 0.019868 -0.002944 -0.006048 0.000000 0.000000 0.000000
# 2 -0.002944 0.019868 -0.006048 0.000000 0.000000 0.000000
# 3 -0.006048 -0.006048 0.013621 0.000000 0.000000 0.000000
# 4 0.000000 0.000000 0.000000 0.046727 0.000000 0.000000
# 5 0.000000 0.000000 0.000000 0.000000 0.046727 0.000000
# 6 0.000000 0.000000 0.000000 0.000000 0.000000 0.049486
#
#
# Mechanical properties :
#
#
# Convention : Reuss Voigt Hill
#
# Bulk Modulus (GPa) = 42.96201 48.26808 45.61504
# Shear Modulus (GPa) = 21.35522 21.91637 21.63580
#
# Velocity S-wave (km/s) = 3.37767 3.42176 3.39978
# Velocity P-wave (km/s) = 6.17763 6.43409 6.30717
#
# Compressibility (1/GPa) = 0.02327638
#
# Stress axis : x y z
#
# Youngs Moduli (GPa) = 50.33255 50.33255 73.41869
#
# Poissons Ratio (x) = 0.14816 0.44404
# Poissons Ratio (y) = 0.14816 0.44404
# Poissons Ratio (z) = 0.30442 0.30442
#
# Static dielectric constant tensor:
#      x y z
#    x 3.482850 0.000000 0.000000 
#    y 0.000000 3.482850 0.000000 
#    z 0.000000 0.000000 3.264020 
# 
# 
# High freq. dielectric constant tensor:
#      x y z
#    x 1.724770 0.000000 0.000000 
#    y 0.000000 1.724770 0.000000 
#    z 0.000000 0.000000 1.706390 
# 
# From -- ./inp_files/8501.got.cif
#   From: 2010.03.12/outbox.cif.g09.slc.cpg/sg136_5_cif.got.tgz:8501.got - 2010.04.06 18:39:43.
