data_PCOD8318338
_publ_section_title
;
Structure prediction by ZEFSAII (Michael W. Deem and Ramdas Pophale) SiO2 
 PCOD8318338
Probable space group: P 42/M N M
;
_chemical_formula_sum "Si O2"
_cell_formula_units_Z 96
_cell_length_a 29.934802
_cell_length_b 29.934802
_cell_length_c 9.091356
_cell_angle_alpha 90.000000
_cell_angle_beta 90.000000
_cell_angle_gamma 90.000000
_cell_volume 8146.694752
_symmetry_space_group_name_H-M "P 42/M N M"
_symmetry_group_IT_number 136
_symmetry_cell_setting 'tetragonal'
loop_
_space_group_symop_operation_xyz
x,y,z
1/2-y,1/2+x,1/2+z
-x,-y,z
1/2+y,1/2-x,1/2+z
1/2+x,1/2-y,1/2-z
1/2-x,1/2+y,1/2-z
y,x,-z
-y,-x,-z
-x,-y,-z
1/2+y,1/2-x,1/2-z
x,y,-z
1/2-y,1/2+x,1/2-z
1/2-x,1/2+y,1/2+z
1/2+x,1/2-y,1/2+z
-y,-x,z
y,x,z
loop_
_atom_site_type_symbol
_atom_site_label
_atom_site_fract_x
_atom_site_fract_y
_atom_site_fract_z
Si Si1 0.777474 0.852730 0.165941
Si Si2 0.097726 0.024331 0.827984
Si Si3 0.708999 0.215486 0.834856
Si Si4 0.338776 0.586017 0.834136
Si Si5 0.729737 0.659400 0.839244
Si Si6 0.073262 0.926739 0.174179
Si Si7 0.354406 0.354406 0.674939
O O1 0.815794 0.815794 0.165785
O O2 0.734146 0.834223 0.250136
O O3 0.794996 0.897178 0.247592
O O4 0.763872 0.865394 0.000000
O O5 0.054717 0.054717 0.795339
O O6 0.141410 0.042307 0.744645
O O7 0.087157 0.975194 0.764801
O O8 0.109116 0.023711 0.000000
O O9 0.747849 0.252151 0.841128
O O10 0.725354 0.169962 0.753006
O O11 0.694660 0.202528 0.000000
O O12 0.375483 0.624518 0.832613
O O13 0.324933 0.573692 0.000000
O O14 0.707614 0.707614 0.869827
O O15 0.693870 0.630569 0.742883
O O16 0.740055 0.637058 0.000000
O O17 0.109441 0.890560 0.225635
O O18 0.070382 0.929619 0.000000
O O19 0.350203 0.350203 0.500000
#
# Coordination Sequence:
#
# PCOD8318338 Si02
#       7
#    16  16  16  16  16   8   8
#     4   9  15  21  30  44  61  79  98 115 131 157
#     4   9  16  27  41  52  61  74  94 122 159 201
#     4   9  14  19  29  44  61  79  97 113 130 153
#     4   9  16  25  34  45  61  78  94 114 144 179
#     4   8  14  22  31  42  58  77  95 112 133 161
#     4   9  17  27  40  54  62  72  96 128 160 200
#     4   9  15  24  35  46  60  76  94 118 148 179
#
# _framework density 11.783920999999999
#
# number of rings (size 3 to 8) (size 9 to 14) (size 15 to 20)
#    0.500    2.667    0.000    2.250    0.000    7.000 
#    0.000    2.083    0.000    2.000    0.000    0.000 
#    0.000    0.000    0.000    0.000    0.000    0.000 
#
# Total GULP energy -1189461.067315 kJ/mol
# GULP energy per Si atom -12390.219451 kJ/mol
# Density = 1.175710 g / cm^3
# Si number density = 11.783921 Si / 1000 Ang^3
#
#
#
# Elastic Constant Matrix: (Units=GPa)
#
#
# Indices 1 2 3 4 5 6 
#
# 1 38.4364 38.3149 30.8279 0.0000 0.0000 0.0000
# 2 38.3149 38.4362 30.8280 0.0000 0.0000 0.0000
# 3 30.8279 30.8280 94.1368 0.0000 0.0000 0.0000
# 4 0.0000 0.0000 0.0000 11.0698 0.0000 0.0000
# 5 0.0000 0.0000 0.0000 0.0000 11.0699 0.0000
# 6 0.0000 0.0000 0.0000 0.0000 0.0000 18.0925
#
#
#
# Elastic Compliance Matrix: (Units=1/GPa)
#
#
# Indices 1 2 3 4 5 6 
#
# 1 4.126091 -4.108427 -0.005782 0.000000 0.000000 0.000000
# 2 -4.108427 4.126124 -0.005798 0.000000 0.000000 0.000000
# 3 -0.005782 -0.005798 0.014415 0.000000 0.000000 0.000000
# 4 0.000000 0.000000 0.000000 0.090335 0.000000 0.000000
# 5 0.000000 0.000000 0.000000 0.000000 0.090335 0.000000
# 6 0.000000 0.000000 0.000000 0.000000 0.000000 0.055271
#
#
# Mechanical properties :
#
#
# Convention : Reuss Voigt Hill
#
# Bulk Modulus (GPa) = 37.57163 41.21679 39.39421
# Shear Modulus (GPa) = 0.29848 12.78236 6.54042
#
# Velocity S-wave (km/s) = 0.50383 3.29710 2.35846
# Velocity P-wave (km/s) = 5.68256 7.03900 6.39684
#
# Compressibility (1/GPa) = 0.02661583
#
# Stress axis : x y z
#
# Youngs Moduli (GPa) = 0.24236 0.24236 69.37207
#
# Poissons Ratio (x) = 0.99571 0.40113
# Poissons Ratio (y) = 0.99572 0.40220
# Poissons Ratio (z) = 0.00140 0.00141
#
# Static dielectric constant tensor:
#      x y z
#    x 2.197020 0.000000 0.000000 
#    y 0.000000 2.197020 0.000000 
#    z 0.000000 0.000000 2.633480 
# 
# 
# High freq. dielectric constant tensor:
#      x y z
#    x 1.400350 0.000000 0.000000 
#    y 0.000000 1.400350 0.000000 
#    z 0.000000 0.000000 1.462640 
# 
# From -- ./inp_files/2370.got.cif
#   From: 2010.03.12/outbox.cif.g09.slc.cpg/sg136_2_cif.got.tgz:2370.got - 2010.04.06 18:39:43.
