data_PCOD8318992
_publ_section_title
;
Structure prediction by ZEFSAII (Michael W. Deem and Ramdas Pophale) SiO2 
 PCOD8318992
Probable space group: P 42/N C M
;
_chemical_formula_sum "Si O2"
_cell_formula_units_Z 80
_cell_length_a 13.612458
_cell_length_b 13.612458
_cell_length_c 24.033042
_cell_angle_alpha 90.000000
_cell_angle_beta 90.000000
_cell_angle_gamma 90.000000
_cell_volume 4453.298957
_symmetry_space_group_name_H-M "P 42/N C M"
_symmetry_group_IT_number 138
_space_group.IT_coordinate_system_code '2'
_symmetry_cell_setting 'tetragonal'
loop_
_space_group_symop_operation_xyz
x,y,z
1/2-y,x,1/2+z
1/2-x,1/2-y,z
y,1/2-x,1/2+z
1/2+x,-y,1/2-z
-x,1/2+y,1/2-z
1/2+y,1/2+x,-z
-y,-x,-z
-x,-y,-z
1/2+y,-x,1/2-z
1/2+x,1/2+y,-z
-y,1/2+x,1/2-z
1/2-x,y,1/2+z
x,1/2-y,1/2+z
1/2-y,1/2-x,z
y,x,z
loop_
_atom_site_type_symbol
_atom_site_label
_atom_site_fract_x
_atom_site_fract_y
_atom_site_fract_z
Si Si1 0.632014 0.246602 0.381957
Si Si2 0.247304 0.090935 0.578716
Si Si3 0.153404 0.997634 0.475014
Si Si4 0.971489 0.372104 0.657535
Si Si5 0.317660 0.889248 0.765545
O O1 0.750000 0.250000 0.393120
O O2 0.564044 0.280930 0.432215
O O3 0.607166 0.135640 0.366507
O O4 0.594257 0.317261 0.331734
O O5 0.334515 0.165486 0.565003
O O6 0.149036 0.149036 0.597139
O O7 0.228586 0.029781 0.522881
O O8 0.275029 0.017974 0.629080
O O9 0.073805 0.926196 0.500000
O O10 0.093965 0.093965 0.450878
O O11 0.973361 0.362194 0.725251
O O12 0.034052 0.465948 0.640341
O O13 0.379046 0.791775 0.756650
#
# Coordination Sequence:
#
# PCOD8318992 Si02
#       5
#    16  16  16  16  16
#     4  11  20  35  57  76 110 146 174 215 280 319
#     4   9  19  37  56  74 107 149 177 213 272 321
#     4  10  22  36  52  80 110 139 184 223 257 318
#     4  10  20  33  54  84 105 130 185 230 255 315
#     4   9  16  33  53  71 100 141 168 200 265 323
#
# _framework density 17.964210000000001
#
# number of rings (size 3 to 8) (size 9 to 14) (size 15 to 20)
#    0.000    2.200    4.000    1.200    0.000    4.400 
#    0.000    6.000    0.000    0.000    0.000    5.600 
#    0.000    0.000    0.000    0.000    0.000    0.000 
#
# Total GULP energy -991075.461035 kJ/mol
# GULP energy per Si atom -12388.443263 kJ/mol
# Density = 1.792332 g / cm^3
# Si number density = 17.964210 Si / 1000 Ang^3
#
#
#
# Elastic Constant Matrix: (Units=GPa)
#
#
# Indices 1 2 3 4 5 6 
#
# 1 69.3075 20.5896 29.4809 0.0000 0.0000 0.0000
# 2 20.5896 69.3089 29.4834 0.0000 0.0000 0.0000
# 3 29.4809 29.4834 52.8673 0.0000 0.0000 0.0000
# 4 0.0000 0.0000 0.0000 29.4310 0.0000 0.0000
# 5 0.0000 0.0000 0.0000 0.0000 29.4313 0.0000
# 6 0.0000 0.0000 0.0000 0.0000 0.0000 18.3164
#
#
#
# Elastic Compliance Matrix: (Units=1/GPa)
#
#
# Indices 1 2 3 4 5 6 
#
# 1 0.019032 -0.001493 -0.009780 0.000000 0.000000 0.000000
# 2 -0.001493 0.019033 -0.009782 0.000000 0.000000 0.000000
# 3 -0.009780 -0.009782 0.029824 0.000000 0.000000 0.000000
# 4 0.000000 0.000000 0.000000 0.033978 0.000000 0.000000
# 5 0.000000 0.000000 0.000000 0.000000 0.033977 0.000000
# 6 0.000000 0.000000 0.000000 0.000000 0.000000 0.054596
#
#
# Mechanical properties :
#
#
# Convention : Reuss Voigt Hill
#
# Bulk Modulus (GPa) = 38.79166 38.95461 38.87313
# Shear Modulus (GPa) = 20.73451 22.89772 21.81612
#
# Velocity S-wave (km/s) = 3.40106 3.57407 3.48864
# Velocity P-wave (km/s) = 6.08799 6.22604 6.15740
#
# Compressibility (1/GPa) = 0.02577874
#
# Stress axis : x y z
#
# Youngs Moduli (GPa) = 52.54223 52.54086 33.52981
#
# Poissons Ratio (x) = 0.07847 0.32793
# Poissons Ratio (y) = 0.07847 0.32797
# Poissons Ratio (z) = 0.51388 0.51393
#
# Static dielectric constant tensor:
#      x y z
#    x 3.350710 0.000000 0.000000 
#    y 0.000000 3.350700 0.000000 
#    z 0.000000 0.000000 3.523350 
# 
# 
# High freq. dielectric constant tensor:
#      x y z
#    x 1.690820 0.000000 0.000000 
#    y 0.000000 1.690820 0.000000 
#    z 0.000000 0.000000 1.692990 
# 
# From -- ./inp_files/6004.got.cif
#   From: 2010.03.12/outbox.cif.g09.slc.cpg/sg138_4_cif.got.tgz:6004.got - 2010.04.08 09:41:05.
