data_PCOD8318640
_publ_section_title
;
Structure prediction by ZEFSAII (Michael W. Deem and Ramdas Pophale) SiO2 
 PCOD8318640
Probable space group: P 42/N M C
;
_chemical_formula_sum "Si O2"
_cell_formula_units_Z 80
_cell_length_a 13.877913
_cell_length_b 13.877913
_cell_length_c 18.838895
_cell_angle_alpha 90.000000
_cell_angle_beta 90.000000
_cell_angle_gamma 90.000000
_cell_volume 3628.304661
_symmetry_space_group_name_H-M "P 42/N M C"
_symmetry_group_IT_number 137
_space_group.IT_coordinate_system_code '2'
_symmetry_cell_setting 'tetragonal'
loop_
_space_group_symop_operation_xyz
x,y,z
1/2-y,x,1/2+z
1/2-x,1/2-y,z
y,1/2-x,1/2+z
1/2+x,-y,-z
-x,1/2+y,-z
1/2+y,1/2+x,1/2-z
-y,-x,1/2-z
-x,-y,-z
1/2+y,-x,1/2-z
1/2+x,1/2+y,-z
-y,1/2+x,1/2-z
1/2-x,y,z
x,1/2-y,z
1/2-y,1/2-x,1/2+z
y,x,1/2+z
loop_
_atom_site_type_symbol
_atom_site_label
_atom_site_fract_x
_atom_site_fract_y
_atom_site_fract_z
Si Si1 0.005792 0.639660 0.948218
Si Si2 0.142989 0.359083 0.311996
Si Si3 0.954268 0.549336 0.309856
Si Si4 0.645040 0.356460 0.666211
Si Si5 0.536336 0.863794 0.547004
O O1 0.035477 0.750000 0.962007
O O2 0.980006 0.626965 0.865369
O O3 0.095991 0.571080 0.968228
O O4 0.911943 0.612481 0.993755
O O5 0.250000 0.370007 0.344189
O O6 0.120268 0.250000 0.290713
O O7 0.139102 0.420903 0.239332
O O8 0.066399 0.391662 0.372378
O O9 0.966147 0.466147 0.250000
O O10 0.054223 0.575038 0.352627
O O11 0.650532 0.349469 0.750000
O O12 0.750000 0.397244 0.638789
O O13 0.628682 0.250000 0.633424
O O14 0.538748 0.750000 0.533876
#
# Coordination Sequence:
#
# PCOD8318640 Si02
#       5
#    16  16  16  16  16
#     4  11  24  43  68  97 130 168 216 273 328 385
#     4  10  20  36  61  91 125 168 217 268 324 388
#     4  11  20  35  57  93 129 169 209 264 321 384
#     4   8  15  28  46  72 113 161 201 242 300 370
#     4  10  23  45  68  92 127 172 219 268 326 392
#
# _framework density 22.048864999999999
#
# number of rings (size 3 to 8) (size 9 to 14) (size 15 to 20)
#    0.000    2.000    2.000    2.400    0.000    4.000 
#    0.000    1.000    0.000    0.000    0.000    0.000 
#    0.000    0.000    0.000    0.000    0.000    0.000 
#
# Total GULP energy -991428.212349 kJ/mol
# GULP energy per Si atom -12392.852654 kJ/mol
# Density = 2.199868 g / cm^3
# Si number density = 22.048865 Si / 1000 Ang^3
#
#
#
# Elastic Constant Matrix: (Units=GPa)
#
#
# Indices 1 2 3 4 5 6 
#
# 1 125.8787 30.8003 24.3259 0.0000 0.0000 0.0000
# 2 30.8003 125.8789 24.3259 0.0000 0.0000 0.0000
# 3 24.3259 24.3259 72.6182 0.0000 0.0000 0.0000
# 4 0.0000 0.0000 0.0000 27.0714 0.0000 0.0000
# 5 0.0000 0.0000 0.0000 0.0000 27.0713 0.0000
# 6 0.0000 0.0000 0.0000 0.0000 0.0000 24.8415
#
#
#
# Elastic Compliance Matrix: (Units=1/GPa)
#
#
# Indices 1 2 3 4 5 6 
#
# 1 0.008821 -0.001697 -0.002386 0.000000 0.000000 0.000000
# 2 -0.001697 0.008821 -0.002386 0.000000 0.000000 0.000000
# 3 -0.002386 -0.002386 0.015369 0.000000 0.000000 0.000000
# 4 0.000000 0.000000 0.000000 0.036939 0.000000 0.000000
# 5 0.000000 0.000000 0.000000 0.000000 0.036939 0.000000
# 6 0.000000 0.000000 0.000000 0.000000 0.000000 0.040255
#
#
# Mechanical properties :
#
#
# Convention : Reuss Voigt Hill
#
# Bulk Modulus (GPa) = 49.82243 53.69781 51.76012
# Shear Modulus (GPa) = 29.98068 32.12508 31.05288
#
# Velocity S-wave (km/s) = 3.69146 3.82120 3.75689
# Velocity P-wave (km/s) = 6.38863 6.62387 6.50731
#
# Compressibility (1/GPa) = 0.02007128
#
# Stress axis : x y z
#
# Youngs Moduli (GPa) = 113.37171 113.37184 65.06454
#
# Poissons Ratio (x) = 0.19240 0.15526
# Poissons Ratio (y) = 0.19240 0.15526
# Poissons Ratio (z) = 0.27053 0.27053
#
# Static dielectric constant tensor:
#      x y z
#    x 4.242800 0.000000 0.000000 
#    y 0.000000 4.242790 0.000000 
#    z 0.000000 0.000000 3.778810 
# 
# 
# High freq. dielectric constant tensor:
#      x y z
#    x 1.864800 0.000000 0.000000 
#    y 0.000000 1.864800 0.000000 
#    z 0.000000 0.000000 1.850850 
# 
# From -- ./inp_files/7591.got.cif
#   From: 2010.03.12/outbox.cif.g09.slc.cpg/sg137_4_cif.got.tgz:7591.got - 2010.04.08 09:34:49.
