data_PCOD8318202
_publ_section_title
;
Structure prediction by ZEFSAII (Michael W. Deem and Ramdas Pophale) SiO2 
 PCOD8318202
Probable space group: P 42/M N M
;
_chemical_formula_sum "Si O2"
_cell_formula_units_Z 72
_cell_length_a 20.119922
_cell_length_b 20.119922
_cell_length_c 8.849294
_cell_angle_alpha 90.000000
_cell_angle_beta 90.000000
_cell_angle_gamma 90.000000
_cell_volume 3582.293866
_symmetry_space_group_name_H-M "P 42/M N M"
_symmetry_group_IT_number 136
_symmetry_cell_setting 'tetragonal'
loop_
_space_group_symop_operation_xyz
x,y,z
1/2-y,1/2+x,1/2+z
-x,-y,z
1/2+y,1/2-x,1/2+z
1/2+x,1/2-y,1/2-z
1/2-x,1/2+y,1/2-z
y,x,-z
-y,-x,-z
-x,-y,-z
1/2+y,1/2-x,1/2-z
x,y,-z
1/2-y,1/2+x,1/2-z
1/2-x,1/2+y,1/2+z
1/2+x,1/2-y,1/2+z
-y,-x,z
y,x,z
loop_
_atom_site_type_symbol
_atom_site_label
_atom_site_fract_x
_atom_site_fract_y
_atom_site_fract_z
Si Si1 0.421332 0.052855 0.826871
Si Si2 0.180831 0.988678 0.678652
Si Si3 0.555375 0.444626 0.327838
Si Si4 0.225384 0.587941 0.325625
Si Si5 0.232004 0.232004 0.179791
Si Si6 0.338516 0.338516 0.820312
O O1 0.476639 0.088477 0.724828
O O2 0.353454 0.092437 0.805544
O O3 0.444757 0.053962 0.000000
O O4 0.174667 0.989545 0.500000
O O5 0.180311 0.912546 0.738040
O O6 0.120676 0.030031 0.746780
O O7 0.247809 0.025596 0.730015
O O8 0.500000 0.500000 0.315974
O O9 0.573113 0.426888 0.500000
O O10 0.245529 0.577285 0.500000
O O11 0.252331 0.657910 0.262123
O O12 0.285349 0.285349 0.245513
O O13 0.235457 0.235457 0.000000
O O14 0.337061 0.337061 0.000000
#
# Coordination Sequence:
#
# PCOD8318202 Si02
#       6
#    16  16   8  16   8   8
#     4  10  21  37  59  87 117 152 199 251 304 358
#     4  11  22  37  61  90 120 151 198 250 296 353
#     4  11  22  37  58  82 119 160 197 240 293 348
#     4  10  22  38  61  88 117 157 201 241 297 366
#     4   9  19  39  60  80 115 157 197 236 291 366
#     4   9  20  36  59  89 116 153 194 242 298 352
#
# _framework density 20.098852000000001
#
# number of rings (size 3 to 8) (size 9 to 14) (size 15 to 20)
#    0.000    1.889    1.111    3.000    3.111    3.111 
#    0.000    0.000    0.000    2.667    0.000    0.000 
#    0.000    0.000    0.000    0.000    0.000    0.000 
#
# Total GULP energy -892907.034769 kJ/mol
# GULP energy per Si atom -12401.486594 kJ/mol
# Density = 2.005311 g / cm^3
# Si number density = 20.098852 Si / 1000 Ang^3
#
#
#
# Elastic Constant Matrix: (Units=GPa)
#
#
# Indices 1 2 3 4 5 6 
#
# 1 93.9524 40.7750 11.6215 0.0000 0.0000 0.0000
# 2 40.7750 93.9498 11.6204 0.0000 0.0000 0.0000
# 3 11.6215 11.6204 51.6581 0.0000 0.0000 0.0000
# 4 0.0000 0.0000 0.0000 29.5523 0.0000 0.0000
# 5 0.0000 0.0000 0.0000 0.0000 29.5524 0.0000
# 6 0.0000 0.0000 0.0000 0.0000 0.0000 39.5233
#
#
#
# Elastic Compliance Matrix: (Units=1/GPa)
#
#
# Indices 1 2 3 4 5 6 
#
# 1 0.013264 -0.005542 -0.001737 0.000000 0.000000 0.000000
# 2 -0.005542 0.013264 -0.001737 0.000000 0.000000 0.000000
# 3 -0.001737 -0.001737 0.020140 0.000000 0.000000 0.000000
# 4 0.000000 0.000000 0.000000 0.033838 0.000000 0.000000
# 5 0.000000 0.000000 0.000000 0.000000 0.033838 0.000000
# 6 0.000000 0.000000 0.000000 0.000000 0.000000 0.025302
#
#
# Mechanical properties :
#
#
# Convention : Reuss Voigt Hill
#
# Bulk Modulus (GPa) = 34.92198 40.84379 37.88288
# Shear Modulus (GPa) = 29.90031 31.42849 30.66440
#
# Velocity S-wave (km/s) = 3.86121 3.95865 3.91023
# Velocity P-wave (km/s) = 6.10667 6.42340 6.26704
#
# Compressibility (1/GPa) = 0.02863526
#
# Stress axis : x y z
#
# Youngs Moduli (GPa) = 75.39405 75.39226 49.65335
#
# Poissons Ratio (x) = 0.41780 0.08626
# Poissons Ratio (y) = 0.41781 0.08625
# Poissons Ratio (z) = 0.13098 0.13096
#
# Static dielectric constant tensor:
#      x y z
#    x 3.752810 0.000000 0.000000 
#    y 0.000000 3.752810 0.000000 
#    z 0.000000 0.000000 3.485510 
# 
# 
# High freq. dielectric constant tensor:
#      x y z
#    x 1.794020 0.000000 0.000000 
#    y 0.000000 1.794020 0.000000 
#    z 0.000000 0.000000 1.762130 
# 
# From -- ./inp_files/1671.got.cif
#   From: 2010.03.12/outbox.cif.g09.slc.cpg/sg136_1_cif.got.tgz:1671.got - 2010.04.06 18:39:43.
