data_PCOD8318135
_publ_section_title
;
Structure prediction by ZEFSAII (Michael W. Deem and Ramdas Pophale) SiO2 
 PCOD8318135
Probable space group: P 42/M N M
;
_chemical_formula_sum "Si O2"
_cell_formula_units_Z 72
_cell_length_a 20.017357
_cell_length_b 20.017357
_cell_length_c 9.043796
_cell_angle_alpha 90.000000
_cell_angle_beta 90.000000
_cell_angle_gamma 90.000000
_cell_volume 3623.800051
_symmetry_space_group_name_H-M "P 42/M N M"
_symmetry_group_IT_number 136
_symmetry_cell_setting 'tetragonal'
loop_
_space_group_symop_operation_xyz
x,y,z
1/2-y,1/2+x,1/2+z
-x,-y,z
1/2+y,1/2-x,1/2+z
1/2+x,1/2-y,1/2-z
1/2-x,1/2+y,1/2-z
y,x,-z
-y,-x,-z
-x,-y,-z
1/2+y,1/2-x,1/2-z
x,y,-z
1/2-y,1/2+x,1/2-z
1/2-x,1/2+y,1/2+z
1/2+x,1/2-y,1/2+z
-y,-x,z
y,x,z
loop_
_atom_site_type_symbol
_atom_site_label
_atom_site_fract_x
_atom_site_fract_y
_atom_site_fract_z
Si Si1 0.338219 0.338219 0.824725
Si Si2 0.054248 0.054248 0.173504
Si Si3 0.777219 0.398212 0.167544
Si Si4 0.231427 0.231427 0.174512
Si Si5 0.489163 0.323065 0.829070
Si Si6 0.947590 0.579809 0.672520
O O1 0.284940 0.284940 0.758938
O O2 0.412930 0.318877 0.768933
O O3 0.334930 0.334930 0.000000
O O4 0.032182 0.124154 0.239357
O O5 0.062298 0.062298 0.000000
O O6 0.000000 0.000000 0.219143
O O7 0.747537 0.343355 0.275967
O O8 0.746746 0.472236 0.194909
O O9 0.855799 0.402076 0.197501
O O10 0.761892 0.375613 0.000000
O O11 0.233723 0.233723 0.000000
O O12 0.487735 0.344872 0.000000
O O13 0.960478 0.565882 0.500000
O O14 0.909040 0.518374 0.746990
#
# Coordination Sequence:
#
# PCOD8318135 Si02
#       6
#     8   8  16   8  16  16
#     4   9  20  37  61  89 112 147 200 246 284 334
#     4  11  22  35  52  82 121 148 181 236 293 336
#     4  10  23  40  61  87 119 157 194 242 298 355
#     4  11  24  40  62  88 121 159 197 248 297 358
#     4  10  20  38  62  84 109 150 201 238 277 343
#     4  10  21  38  61  88 118 153 195 247 300 352
#
# _framework density 19.868645000000001
#
# number of rings (size 3 to 8) (size 9 to 14) (size 15 to 20)
#    0.000    1.889    1.111    2.667    3.111    5.778 
#    0.000    2.222    0.000    0.000    0.000    0.000 
#    0.000    0.000    0.000    0.000    0.000    0.000 
#
# Total GULP energy -892867.983235 kJ/mol
# GULP energy per Si atom -12400.944212 kJ/mol
# Density = 1.982342 g / cm^3
# Si number density = 19.868645 Si / 1000 Ang^3
#
#
#
# Elastic Constant Matrix: (Units=GPa)
#
#
# Indices 1 2 3 4 5 6 
#
# 1 96.7274 43.9964 34.2615 0.0000 0.0000 0.0000
# 2 43.9964 96.7274 34.2615 0.0000 0.0000 0.0000
# 3 34.2615 34.2615 69.1377 0.0000 0.0000 0.0000
# 4 0.0000 0.0000 0.0000 20.6053 0.0000 0.0000
# 5 0.0000 0.0000 0.0000 0.0000 20.6053 0.0000
# 6 0.0000 0.0000 0.0000 0.0000 0.0000 34.2109
#
#
#
# Elastic Compliance Matrix: (Units=1/GPa)
#
#
# Indices 1 2 3 4 5 6 
#
# 1 0.014165 -0.004799 -0.004641 0.000000 0.000000 0.000000
# 2 -0.004799 0.014165 -0.004641 0.000000 0.000000 0.000000
# 3 -0.004641 -0.004641 0.019064 0.000000 0.000000 0.000000
# 4 0.000000 0.000000 0.000000 0.048531 0.000000 0.000000
# 5 0.000000 0.000000 0.000000 0.000000 0.048531 0.000000
# 6 0.000000 0.000000 0.000000 0.000000 0.000000 0.029230
#
#
# Mechanical properties :
#
#
# Convention : Reuss Voigt Hill
#
# Bulk Modulus (GPa) = 52.00036 54.18125 53.09081
# Shear Modulus (GPa) = 24.00831 25.08919 24.54875
#
# Velocity S-wave (km/s) = 3.47991 3.55738 3.51886
# Velocity P-wave (km/s) = 6.50963 6.64847 6.57942
#
# Compressibility (1/GPa) = 0.01923063
#
# Stress axis : x y z
#
# Youngs Moduli (GPa) = 70.59561 70.59561 52.45472
#
# Poissons Ratio (x) = 0.33879 0.24347
# Poissons Ratio (y) = 0.33879 0.24347
# Poissons Ratio (z) = 0.32767 0.32767
#
# Static dielectric constant tensor:
#      x y z
#    x 3.693290 0.000000 0.000000 
#    y 0.000000 3.693290 0.000000 
#    z 0.000000 0.000000 3.498450 
# 
# 
# High freq. dielectric constant tensor:
#      x y z
#    x 1.780920 0.000000 0.000000 
#    y 0.000000 1.780920 0.000000 
#    z 0.000000 0.000000 1.762670 
# 
# From -- ./inp_files/1621.got.cif
#   From: 2010.03.12/outbox.cif.g09.slc.cpg/sg136_1_cif.got.tgz:1621.got - 2010.04.06 18:39:43.
