data_PCOD8318500
_publ_section_title
;
Structure prediction by ZEFSAII (Michael W. Deem and Ramdas Pophale) SiO2 
 PCOD8318500
Probable space group: P 42/N M C
;
_chemical_formula_sum "Si O2"
_cell_formula_units_Z 96
_cell_length_a 15.553414
_cell_length_b 15.553414
_cell_length_c 23.828319
_cell_angle_alpha 90.000000
_cell_angle_beta 90.000000
_cell_angle_gamma 90.000000
_cell_volume 5764.277364
_symmetry_space_group_name_H-M "P 42/N M C"
_symmetry_group_IT_number 137
_space_group.IT_coordinate_system_code '2'
_symmetry_cell_setting 'tetragonal'
loop_
_space_group_symop_operation_xyz
x,y,z
1/2-y,x,1/2+z
1/2-x,1/2-y,z
y,1/2-x,1/2+z
1/2+x,-y,-z
-x,1/2+y,-z
1/2+y,1/2+x,1/2-z
-y,-x,1/2-z
-x,-y,-z
1/2+y,-x,1/2-z
1/2+x,1/2+y,-z
-y,1/2+x,1/2-z
1/2-x,y,z
x,1/2-y,z
1/2-y,1/2-x,1/2+z
y,x,1/2+z
loop_
_atom_site_type_symbol
_atom_site_label
_atom_site_fract_x
_atom_site_fract_y
_atom_site_fract_z
Si Si1 0.155012 0.586994 0.920802
Si Si2 0.971060 0.850730 0.950107
Si Si3 0.391855 0.152927 0.450535
Si Si4 0.750000 0.850951 0.636297
Si Si5 0.250000 0.353226 0.236936
Si Si6 0.846261 0.400494 0.307558
Si Si7 0.585918 0.649153 0.829296
O O1 0.250000 0.623757 0.939891
O O2 0.155372 0.486582 0.928196
O O3 0.146207 0.597433 0.854055
O O4 0.073633 0.628304 0.953619
O O5 0.959996 0.750000 0.954319
O O6 0.928323 0.886543 0.892580
O O7 0.916608 0.891647 0.999975
O O8 0.363191 0.250000 0.470147
O O9 0.332945 0.119644 0.399285
O O10 0.750000 0.750000 0.644517
O O11 0.750000 0.890907 0.699323
O O12 0.250000 0.250000 0.238094
O O13 0.167182 0.391036 0.203478
O O14 0.848780 0.348780 0.250000
O O15 0.750000 0.401131 0.332342
O O16 0.874507 0.499018 0.295445
O O17 0.601889 0.750000 0.832596
#
# Coordination Sequence:
#
# PCOD8318500 Si02
#       7
#    16  16  16   8   8  16  16
#     4  10  21  34  49  69  97 131 164 202 251 294
#     4  10  19  33  51  72 100 126 168 207 245 296
#     4  10  20  33  50  73  96 130 165 204 248 297
#     4   9  18  30  46  70  95 127 161 201 243 294
#     4   9  16  28  46  68  98 125 159 193 242 290
#     4  10  20  32  47  68  95 127 166 202 237 287
#     4   8  17  29  44  69  92 123 153 198 240 279
#
# _framework density 16.654299000000002
#
# number of rings (size 3 to 8) (size 9 to 14) (size 15 to 20)
#    0.000    2.500    0.833    2.500    3.500    2.167 
#    0.000    0.000    0.000    0.000    0.000    0.000 
#    0.000    0.000    0.000    0.000    0.333    1.167 
#
# Total GULP energy -1189480.834845 kJ/mol
# GULP energy per Si atom -12390.425363 kJ/mol
# Density = 1.661639 g / cm^3
# Si number density = 16.654299 Si / 1000 Ang^3
#
#
#
# Elastic Constant Matrix: (Units=GPa)
#
#
# Indices 1 2 3 4 5 6 
#
# 1 64.7205 21.3623 42.3489 0.0000 0.0000 0.0000
# 2 21.3623 64.7205 42.3489 0.0000 0.0000 0.0000
# 3 42.3489 42.3489 103.5314 0.0000 0.0000 0.0000
# 4 0.0000 0.0000 0.0000 23.3450 0.0000 0.0000
# 5 0.0000 0.0000 0.0000 0.0000 23.3450 0.0000
# 6 0.0000 0.0000 0.0000 0.0000 0.0000 30.3884
#
#
#
# Elastic Compliance Matrix: (Units=1/GPa)
#
#
# Indices 1 2 3 4 5 6 
#
# 1 0.021252 -0.001811 -0.007952 0.000000 0.000000 0.000000
# 2 -0.001811 0.021252 -0.007952 0.000000 0.000000 0.000000
# 3 -0.007952 -0.007952 0.016165 0.000000 0.000000 0.000000
# 4 0.000000 0.000000 0.000000 0.042836 0.000000 0.000000
# 5 0.000000 0.000000 0.000000 0.000000 0.042836 0.000000
# 6 0.000000 0.000000 0.000000 0.000000 0.000000 0.032907
#
#
# Mechanical properties :
#
#
# Convention : Reuss Voigt Hill
#
# Bulk Modulus (GPa) = 43.03366 49.45473 46.24419
# Shear Modulus (GPa) = 22.68341 23.87651 23.27996
#
# Velocity S-wave (km/s) = 3.69455 3.79047 3.74282
# Velocity P-wave (km/s) = 6.64041 6.99401 6.81951
#
# Compressibility (1/GPa) = 0.02323763
#
# Stress axis : x y z
#
# Youngs Moduli (GPa) = 47.05365 47.05365 61.86388
#
# Poissons Ratio (x) = 0.08523 0.49196
# Poissons Ratio (y) = 0.08523 0.49196
# Poissons Ratio (z) = 0.37418 0.37418
#
# Static dielectric constant tensor:
#      x y z
#    x 3.274600 0.000000 0.000000 
#    y 0.000000 3.274600 0.000000 
#    z 0.000000 0.000000 3.225540 
# 
# 
# High freq. dielectric constant tensor:
#      x y z
#    x 1.626850 0.000000 0.000000 
#    y 0.000000 1.626850 0.000000 
#    z 0.000000 0.000000 1.636770 
# 
# From -- ./inp_files/8857.got.cif
#   From: 2010.03.12/outbox.cif.g09.slc.cpg/sg137_5_cif.got.tgz:8857.got - 2010.04.08 09:34:49.
