data_PCOD8318658
_publ_section_title
;
Structure prediction by ZEFSAII (Michael W. Deem and Ramdas Pophale) SiO2 
 PCOD8318658
Probable space group: P 42/N M C
;
_chemical_formula_sum "Si O2"
_cell_formula_units_Z 64
_cell_length_a 14.630318
_cell_length_b 14.630318
_cell_length_c 14.552315
_cell_angle_alpha 90.000000
_cell_angle_beta 90.000000
_cell_angle_gamma 90.000000
_cell_volume 3114.867797
_symmetry_space_group_name_H-M "P 42/N M C"
_symmetry_group_IT_number 137
_space_group.IT_coordinate_system_code '2'
_symmetry_cell_setting 'tetragonal'
loop_
_space_group_symop_operation_xyz
x,y,z
1/2-y,x,1/2+z
1/2-x,1/2-y,z
y,1/2-x,1/2+z
1/2+x,-y,-z
-x,1/2+y,-z
1/2+y,1/2+x,1/2-z
-y,-x,1/2-z
-x,-y,-z
1/2+y,-x,1/2-z
1/2+x,1/2+y,-z
-y,1/2+x,1/2-z
1/2-x,y,z
x,1/2-y,z
1/2-y,1/2-x,1/2+z
y,x,1/2+z
loop_
_atom_site_type_symbol
_atom_site_label
_atom_site_fract_x
_atom_site_fract_y
_atom_site_fract_z
Si Si1 0.572911 0.142721 0.156110
Si Si2 0.527816 0.896816 0.349400
Si Si3 0.012897 0.350380 0.846130
Si Si4 0.649593 0.523942 0.053305
O O1 0.630288 0.130288 0.250000
O O2 0.575389 0.250000 0.127292
O O3 0.471188 0.106262 0.172376
O O4 0.609745 0.077464 0.073936
O O5 0.534595 0.831669 0.261430
O O6 0.545293 0.846517 0.444912
O O7 0.423997 0.933187 0.356558
O O8 0.988268 0.250000 0.887928
O O9 0.098519 0.392346 0.899379
O O10 0.750000 0.525496 0.095021
#
# Coordination Sequence:
#
# PCOD8318658 Si02
#       4
#    16  16  16  16
#     4  11  21  37  61  87 119 159 201 246 300 356
#     4  10  21  39  61  86 115 157 204 244 298 362
#     4  10  20  38  61  83 112 154 198 245 298 353
#     4  11  23  38  57  87 122 156 198 248 302 360
#
# _framework density 20.546619
#
# number of rings (size 3 to 8) (size 9 to 14) (size 15 to 20)
#    0.000    1.500    5.000    4.500    0.000    6.250 
#    0.000    0.000    0.000   16.500    0.000    0.000 
#    0.000    0.000    0.000    0.000    0.000    0.000 
#
# Total GULP energy -792878.068960 kJ/mol
# GULP energy per Si atom -12388.719827 kJ/mol
# Density = 2.049985 g / cm^3
# Si number density = 20.546619 Si / 1000 Ang^3
#
#
#
# Elastic Constant Matrix: (Units=GPa)
#
#
# Indices 1 2 3 4 5 6 
#
# 1 110.5974 35.0924 9.3978 0.0000 0.0000 0.0000
# 2 35.0924 110.5974 9.3978 0.0000 0.0000 0.0000
# 3 9.3978 9.3978 96.1441 0.0000 0.0000 0.0000
# 4 0.0000 0.0000 0.0000 11.5823 0.0000 0.0000
# 5 0.0000 0.0000 0.0000 0.0000 11.5823 0.0000
# 6 0.0000 0.0000 0.0000 0.0000 0.0000 4.2634
#
#
#
# Elastic Compliance Matrix: (Units=1/GPa)
#
#
# Indices 1 2 3 4 5 6 
#
# 1 0.010098 -0.003146 -0.000679 0.000000 0.000000 0.000000
# 2 -0.003146 0.010098 -0.000679 0.000000 0.000000 0.000000
# 3 -0.000679 -0.000679 0.010534 0.000000 0.000000 0.000000
# 4 0.000000 0.000000 0.000000 0.086339 0.000000 0.000000
# 5 0.000000 0.000000 0.000000 0.000000 0.086339 0.000000
# 6 0.000000 0.000000 0.000000 0.000000 0.000000 0.234553
#
#
# Mechanical properties :
#
#
# Convention : Reuss Voigt Hill
#
# Bulk Modulus (GPa) = 46.04259 47.23502 46.63880
# Shear Modulus (GPa) = 11.00813 23.04901 17.02857
#
# Velocity S-wave (km/s) = 2.31717 3.35295 2.88197
# Velocity P-wave (km/s) = 5.44211 6.16675 5.81572
#
# Compressibility (1/GPa) = 0.02171902
#
# Stress axis : x y z
#
# Youngs Moduli (GPa) = 99.03091 99.03091 94.93172
#
# Poissons Ratio (x) = 0.31158 0.06451
# Poissons Ratio (y) = 0.31158 0.06451
# Poissons Ratio (z) = 0.06729 0.06729
#
# Static dielectric constant tensor:
#      x y z
#    x 3.541840 0.000000 0.000000 
#    y 0.000000 3.541840 0.000000 
#    z 0.000000 0.000000 3.931790 
# 
# 
# High freq. dielectric constant tensor:
#      x y z
#    x 1.787560 0.000000 0.000000 
#    y 0.000000 1.787560 0.000000 
#    z 0.000000 0.000000 1.819080 
# 
# From -- ./inp_files/4697.got.cif
#   From: 2010.03.12/outbox.cif.g09.slc.cpg/sg137_3_cif.got.tgz:4697.got - 2010.04.08 09:34:49.
