data_PCOD8318890
_publ_section_title
;
Structure prediction by ZEFSAII (Michael W. Deem and Ramdas Pophale) SiO2 
 PCOD8318890
Probable space group: P 42/N C M
;
_chemical_formula_sum "Si O2"
_cell_formula_units_Z 112
_cell_length_a 16.760670
_cell_length_b 16.760670
_cell_length_c 21.062209
_cell_angle_alpha 90.000000
_cell_angle_beta 90.000000
_cell_angle_gamma 90.000000
_cell_volume 5916.796992
_symmetry_space_group_name_H-M "P 42/N C M"
_symmetry_group_IT_number 138
_space_group.IT_coordinate_system_code '2'
_symmetry_cell_setting 'tetragonal'
loop_
_space_group_symop_operation_xyz
x,y,z
1/2-y,x,1/2+z
1/2-x,1/2-y,z
y,1/2-x,1/2+z
1/2+x,-y,1/2-z
-x,1/2+y,1/2-z
1/2+y,1/2+x,-z
-y,-x,-z
-x,-y,-z
1/2+y,-x,1/2-z
1/2+x,1/2+y,-z
-y,1/2+x,1/2-z
1/2-x,y,1/2+z
x,1/2-y,1/2+z
1/2-y,1/2-x,z
y,x,z
loop_
_atom_site_type_symbol
_atom_site_label
_atom_site_fract_x
_atom_site_fract_y
_atom_site_fract_z
Si Si1 0.288212 0.419331 0.010844
Si Si2 0.684355 0.181759 0.099064
Si Si3 0.122161 0.255441 0.875229
Si Si4 0.747180 0.622637 0.850469
Si Si5 0.359921 0.812568 0.765733
Si Si6 0.405157 0.773594 0.501435
Si Si7 0.174635 0.039162 0.762524
O O1 0.367571 0.367571 0.007681
O O2 0.234035 0.405894 0.948396
O O3 0.314908 0.510467 0.008456
O O4 0.240382 0.404187 0.076306
O O5 0.750000 0.250000 0.111394
O O6 0.644073 0.152649 0.163484
O O7 0.726610 0.104277 0.068009
O O8 0.613097 0.212025 0.054767
O O9 0.159505 0.340496 0.853619
O O10 0.190310 0.190310 0.873541
O O11 0.055083 0.227049 0.825660
O O12 0.805875 0.694126 0.835395
O O13 0.656583 0.656583 0.840661
O O14 0.769646 0.554268 0.799687
O O15 0.351473 0.715762 0.770722
O O16 0.443843 0.842680 0.735649
O O17 0.343018 0.843018 0.500000
O O18 0.092664 0.092664 0.761343
#
# Coordination Sequence:
#
# PCOD8318890 Si02
#       7
#    16  16  16  16  16  16  16
#     4  10  19  30  49  80 110 140 178 223 271 322
#     4   9  17  35  53  77  94 131 189 226 262 309
#     4   9  18  33  52  76 108 146 185 221 267 334
#     4   9  17  32  54  77 104 143 187 223 261 319
#     4  11  22  36  59  81 105 143 185 227 268 332
#     4   9  19  31  53  72 103 137 175 228 266 319
#     4  10  21  36  56  82 112 143 179 230 286 330
#
# _framework density 18.929161000000001
#
# number of rings (size 3 to 8) (size 9 to 14) (size 15 to 20)
#    0.000    2.429    1.429    2.571    2.000    3.714 
#    0.000    1.429    0.000    4.286    0.000    5.000 
#    0.000    0.000    0.000    0.000    0.000    0.000 
#
# Total GULP energy -1387621.268428 kJ/mol
# GULP energy per Si atom -12389.475611 kJ/mol
# Density = 1.888608 g / cm^3
# Si number density = 18.929161 Si / 1000 Ang^3
#
#
#
# Elastic Constant Matrix: (Units=GPa)
#
#
# Indices 1 2 3 4 5 6 
#
# 1 74.4662 16.6760 17.6271 0.0000 0.0000 0.0000
# 2 16.6760 74.4662 17.6271 0.0000 0.0000 0.0000
# 3 17.6271 17.6271 108.3007 0.0000 0.0000 0.0000
# 4 0.0000 0.0000 0.0000 9.8806 0.0000 0.0000
# 5 0.0000 0.0000 0.0000 0.0000 9.8806 0.0000
# 6 0.0000 0.0000 0.0000 0.0000 0.0000 6.2397
#
#
#
# Elastic Compliance Matrix: (Units=1/GPa)
#
#
# Indices 1 2 3 4 5 6 
#
# 1 0.014506 -0.002797 -0.001906 0.000000 0.000000 0.000000
# 2 -0.002797 0.014506 -0.001906 0.000000 0.000000 0.000000
# 3 -0.001906 -0.001906 0.009854 0.000000 0.000000 0.000000
# 4 0.000000 0.000000 0.000000 0.101208 0.000000 0.000000
# 5 0.000000 0.000000 0.000000 0.000000 0.101208 0.000000
# 6 0.000000 0.000000 0.000000 0.000000 0.000000 0.160264
#
#
# Mechanical properties :
#
#
# Convention : Reuss Voigt Hill
#
# Bulk Modulus (GPa) = 38.98802 40.12149 39.55475
# Shear Modulus (GPa) = 11.81154 18.88705 15.34930
#
# Velocity S-wave (km/s) = 2.50068 3.16219 2.85069
# Velocity P-wave (km/s) = 5.38325 5.87998 5.63709
#
# Compressibility (1/GPa) = 0.02564890
#
# Stress axis : x y z
#
# Youngs Moduli (GPa) = 68.93462 68.93462 101.48248
#
# Poissons Ratio (x) = 0.19284 0.19340
# Poissons Ratio (y) = 0.19284 0.19340
# Poissons Ratio (z) = 0.13137 0.13137
#
# Static dielectric constant tensor:
#      x y z
#    x 3.389400 0.000000 0.000000 
#    y 0.000000 3.389400 0.000000 
#    z 0.000000 0.000000 3.816780 
# 
# 
# High freq. dielectric constant tensor:
#      x y z
#    x 1.708620 0.000000 0.000000 
#    y 0.000000 1.708620 0.000000 
#    z 0.000000 0.000000 1.755410 
# 
# From -- ./inp_files/6433.got.cif
#   From: 2010.03.12/outbox.cif.g09.slc.cpg/sg138_4_cif.got.tgz:6433.got - 2010.04.08 09:41:05.
