data_PCOD8318130
_publ_section_title
;
Structure prediction by ZEFSAII (Michael W. Deem and Ramdas Pophale) SiO2 
 PCOD8318130
Probable space group: P 42/M N M
;
_chemical_formula_sum "Si O2"
_cell_formula_units_Z 64
_cell_length_a 20.752661
_cell_length_b 20.752661
_cell_length_c 7.713766
_cell_angle_alpha 90.000000
_cell_angle_beta 90.000000
_cell_angle_gamma 90.000000
_cell_volume 3322.110271
_symmetry_space_group_name_H-M "P 42/M N M"
_symmetry_group_IT_number 136
_symmetry_cell_setting 'tetragonal'
loop_
_space_group_symop_operation_xyz
x,y,z
1/2-y,1/2+x,1/2+z
-x,-y,z
1/2+y,1/2-x,1/2+z
1/2+x,1/2-y,1/2-z
1/2-x,1/2+y,1/2-z
y,x,-z
-y,-x,-z
-x,-y,-z
1/2+y,1/2-x,1/2-z
x,y,-z
1/2-y,1/2+x,1/2-z
1/2-x,1/2+y,1/2+z
1/2+x,1/2-y,1/2+z
-y,-x,z
y,x,z
loop_
_atom_site_type_symbol
_atom_site_label
_atom_site_fract_x
_atom_site_fract_y
_atom_site_fract_z
Si Si1 0.682728 0.210245 0.000000
Si Si2 0.282273 0.390667 0.500000
Si Si3 0.224387 0.119168 0.197775
Si Si4 0.011951 0.602054 0.800433
Si Si5 0.518693 0.750288 0.197999
O O1 0.642213 0.218647 0.824397
O O2 0.740712 0.259289 0.000000
O O3 0.711006 0.139482 0.000000
O O4 0.340991 0.340991 0.500000
O O5 0.283820 0.429871 0.678139
O O6 0.158471 0.158471 0.230756
O O7 0.212411 0.045618 0.245934
O O8 0.248344 0.127324 0.000000
O O9 0.942379 0.567868 0.781250
O O10 0.011299 0.672542 0.715033
O O11 0.028035 0.611291 0.000000
O O12 0.536711 0.734201 0.000000
#
# Coordination Sequence:
#
# PCOD8318130 Si02
#       5
#     8   8  16  16  16
#     4   9  20  38  62  88 122 159 194 252 308 365
#     4  11  26  46  61  88 129 168 210 253 317 376
#     4  10  20  37  63  94 122 153 203 260 313 362
#     4  11  22  38  56  86 127 167 208 251 300 365
#     4  12  24  39  63  91 119 165 207 254 309 367
#
# _framework density 19.264863999999999
#
# number of rings (size 3 to 8) (size 9 to 14) (size 15 to 20)
#    0.000    1.250    3.750    3.000    3.500    1.500 
#    0.000    2.500    0.000    1.500    0.000    1.750 
#    0.000    0.000    0.000    0.000    0.000    0.000 
#
# Total GULP energy -793467.200767 kJ/mol
# GULP energy per Si atom -12397.925012 kJ/mol
# Density = 1.922102 g / cm^3
# Si number density = 19.264864 Si / 1000 Ang^3
#
#
#
# Elastic Constant Matrix: (Units=GPa)
#
#
# Indices 1 2 3 4 5 6 
#
# 1 94.7771 47.3525 50.3787 0.0000 0.0000 0.0000
# 2 47.3525 94.7762 50.3791 0.0000 0.0000 0.0000
# 3 50.3787 50.3791 185.8750 0.0000 0.0000 0.0000
# 4 0.0000 0.0000 0.0000 31.1674 0.0000 0.0000
# 5 0.0000 0.0000 0.0000 0.0000 31.1672 0.0000
# 6 0.0000 0.0000 0.0000 0.0000 0.0000 23.1271
#
#
#
# Elastic Compliance Matrix: (Units=1/GPa)
#
#
# Indices 1 2 3 4 5 6 
#
# 1 0.014898 -0.006189 -0.002360 0.000000 0.000000 0.000000
# 2 -0.006189 0.014898 -0.002361 0.000000 0.000000 0.000000
# 3 -0.002360 -0.002361 0.006660 0.000000 0.000000 0.000000
# 4 0.000000 0.000000 0.000000 0.032085 0.000000 0.000000
# 5 0.000000 0.000000 0.000000 0.000000 0.032085 0.000000
# 6 0.000000 0.000000 0.000000 0.000000 0.000000 0.043239
#
#
# Mechanical properties :
#
#
# Convention : Reuss Voigt Hill
#
# Bulk Modulus (GPa) = 68.32482 74.62765 71.47623
# Shear Modulus (GPa) = 29.31483 32.24686 30.78085
#
# Velocity S-wave (km/s) = 3.90510 4.09573 4.00155
# Velocity P-wave (km/s) = 7.47503 7.82231 7.65064
#
# Compressibility (1/GPa) = 0.01463597
#
# Stress axis : x y z
#
# Youngs Moduli (GPa) = 67.12447 67.12359 150.16052
#
# Poissons Ratio (x) = 0.41540 0.35445
# Poissons Ratio (y) = 0.41540 0.35447
# Poissons Ratio (z) = 0.15845 0.15845
#
# Static dielectric constant tensor:
#      x y z
#    x 3.499720 0.000000 0.000000 
#    y 0.000000 3.499720 0.000000 
#    z 0.000000 0.000000 3.590920 
# 
# 
# High freq. dielectric constant tensor:
#      x y z
#    x 1.738260 0.000000 0.000000 
#    y 0.000000 1.738260 0.000000 
#    z 0.000000 0.000000 1.772890 
# 
# From -- ./inp_files/1467.got.cif
#   From: 2010.03.12/outbox.cif.g09.slc.cpg/sg136_1_cif.got.tgz:1467.got - 2010.04.06 18:39:43.
