data_PCOD8318993
_publ_section_title
;
Structure prediction by ZEFSAII (Michael W. Deem and Ramdas Pophale) SiO2 
 PCOD8318993
Probable space group: P 42/N C M
;
_chemical_formula_sum "Si O2"
_cell_formula_units_Z 96
_cell_length_a 15.004415
_cell_length_b 15.004415
_cell_length_c 20.686059
_cell_angle_alpha 90.000000
_cell_angle_beta 90.000000
_cell_angle_gamma 90.000000
_cell_volume 4657.103547
_symmetry_space_group_name_H-M "P 42/N C M"
_symmetry_group_IT_number 138
_space_group.IT_coordinate_system_code '2'
_symmetry_cell_setting 'tetragonal'
loop_
_space_group_symop_operation_xyz
x,y,z
1/2-y,x,1/2+z
1/2-x,1/2-y,z
y,1/2-x,1/2+z
1/2+x,-y,1/2-z
-x,1/2+y,1/2-z
1/2+y,1/2+x,-z
-y,-x,-z
-x,-y,-z
1/2+y,-x,1/2-z
1/2+x,1/2+y,-z
-y,1/2+x,1/2-z
1/2-x,y,1/2+z
x,1/2-y,1/2+z
1/2-y,1/2-x,z
y,x,z
loop_
_atom_site_type_symbol
_atom_site_label
_atom_site_fract_x
_atom_site_fract_y
_atom_site_fract_z
Si Si1 0.817160 0.457291 0.744341
Si Si2 0.893685 0.751433 0.018471
Si Si3 0.200829 0.656935 0.658986
Si Si4 0.285055 0.070983 0.839023
Si Si5 0.913992 0.211874 0.542275
Si Si6 0.935771 0.427651 0.854628
O O1 0.744850 0.412977 0.791713
O O2 0.834160 0.401481 0.678696
O O3 0.785572 0.554941 0.719083
O O4 0.908627 0.464931 0.784173
O O5 0.837701 0.662300 0.999141
O O6 0.839843 0.839843 0.992920
O O7 0.895305 0.760907 0.095856
O O8 0.995803 0.743817 0.993690
O O9 0.250000 0.750000 0.668740
O O10 0.205281 0.628198 0.582691
O O11 0.358246 0.141755 0.814145
O O12 0.327120 0.971990 0.850478
O O13 0.837927 0.162074 0.500000
O O14 0.942006 0.144520 0.597534
O O15 0.016472 0.483529 0.884128
#
# Coordination Sequence:
#
# PCOD8318993 Si02
#       6
#    16  16  16  16  16  16
#     4  11  18  36  57  84 118 150 188 241 297 358
#     4  10  22  41  62  84 120 166 208 255 309 363
#     4  11  20  34  57  85 119 154 189 239 302 360
#     4  10  20  36  60  87 115 154 205 245 292 362
#     4  11  22  36  58  91 116 150 204 261 297 351
#     4  10  20  33  56  86 113 148 192 245 295 341
#
# _framework density 20.613671
#
# number of rings (size 3 to 8) (size 9 to 14) (size 15 to 20)
#    0.000    1.500    5.000    1.500    0.000    1.667 
#    0.000    4.167    0.000    2.000    0.000    0.000 
#    0.000    0.000    0.000    0.000    0.000    0.000 
#
# Total GULP energy -1189315.102755 kJ/mol
# GULP energy per Si atom -12388.698987 kJ/mol
# Density = 2.056675 g / cm^3
# Si number density = 20.613671 Si / 1000 Ang^3
#
#
#
# Elastic Constant Matrix: (Units=GPa)
#
#
# Indices 1 2 3 4 5 6 
#
# 1 52.9068 31.3887 33.9499 0.0000 0.0000 0.0000
# 2 31.3887 52.9060 33.9502 0.0000 0.0000 0.0000
# 3 33.9499 33.9502 100.2360 0.0000 0.0000 0.0000
# 4 0.0000 0.0000 0.0000 26.5490 0.0000 0.0000
# 5 0.0000 0.0000 0.0000 0.0000 26.5491 0.0000
# 6 0.0000 0.0000 0.0000 0.0000 0.0000 33.2414
#
#
#
# Elastic Compliance Matrix: (Units=1/GPa)
#
#
# Indices 1 2 3 4 5 6 
#
# 1 0.031393 -0.015080 -0.005525 0.000000 0.000000 0.000000
# 2 -0.015080 0.031394 -0.005526 0.000000 0.000000 0.000000
# 3 -0.005525 -0.005526 0.013719 0.000000 0.000000 0.000000
# 4 0.000000 0.000000 0.000000 0.037666 0.000000 0.000000
# 5 0.000000 0.000000 0.000000 0.000000 0.037666 0.000000
# 6 0.000000 0.000000 0.000000 0.000000 0.000000 0.030083
#
#
# Mechanical properties :
#
#
# Convention : Reuss Voigt Hill
#
# Bulk Modulus (GPa) = 41.24537 44.95851 43.10194
# Shear Modulus (GPa) = 20.63852 24.38525 22.51189
#
# Velocity S-wave (km/s) = 3.16762 3.44316 3.30826
# Velocity P-wave (km/s) = 5.78192 6.13714 5.96218
#
# Compressibility (1/GPa) = 0.02424514
#
# Stress axis : x y z
#
# Youngs Moduli (GPa) = 31.85387 31.85317 72.88911
#
# Poissons Ratio (x) = 0.48034 0.40274
# Poissons Ratio (y) = 0.48035 0.40277
# Poissons Ratio (z) = 0.17600 0.17601
#
# Static dielectric constant tensor:
#      x y z
#    x 3.686450 0.000000 0.000000 
#    y 0.000000 3.686460 0.000000 
#    z 0.000000 0.000000 3.943670 
# 
# 
# High freq. dielectric constant tensor:
#      x y z
#    x 1.796160 0.000000 0.000000 
#    y 0.000000 1.796160 0.000000 
#    z 0.000000 0.000000 1.798840 
# 
# From -- ./inp_files/6265.got.cif
#   From: 2010.03.12/outbox.cif.g09.slc.cpg/sg138_4_cif.got.tgz:6265.got - 2010.04.08 09:41:05.
