data_PCOD8318639
_publ_section_title
;
Structure prediction by ZEFSAII (Michael W. Deem and Ramdas Pophale) SiO2 
 PCOD8318639
Probable space group: P 42/N M C
;
_chemical_formula_sum "Si O2"
_cell_formula_units_Z 112
_cell_length_a 14.864369
_cell_length_b 14.864369
_cell_length_c 24.909154
_cell_angle_alpha 90.000000
_cell_angle_beta 90.000000
_cell_angle_gamma 90.000000
_cell_volume 5503.664269
_symmetry_space_group_name_H-M "P 42/N M C"
_symmetry_group_IT_number 137
_space_group.IT_coordinate_system_code '2'
_symmetry_cell_setting 'tetragonal'
loop_
_space_group_symop_operation_xyz
x,y,z
1/2-y,x,1/2+z
1/2-x,1/2-y,z
y,1/2-x,1/2+z
1/2+x,-y,-z
-x,1/2+y,-z
1/2+y,1/2+x,1/2-z
-y,-x,1/2-z
-x,-y,-z
1/2+y,-x,1/2-z
1/2+x,1/2+y,-z
-y,1/2+x,1/2-z
1/2-x,y,z
x,1/2-y,z
1/2-y,1/2-x,1/2+z
y,x,1/2+z
loop_
_atom_site_type_symbol
_atom_site_label
_atom_site_fract_x
_atom_site_fract_y
_atom_site_fract_z
Si Si1 0.644140 0.154343 0.096301
Si Si2 0.147602 0.028411 0.859519
Si Si3 0.149689 0.898410 0.022232
Si Si4 0.850675 0.892799 0.965512
Si Si5 0.351440 0.144286 0.155444
Si Si6 0.465986 0.152102 0.935612
Si Si7 0.353800 0.003245 0.741475
O O1 0.750000 0.161377 0.100416
O O2 0.600696 0.250000 0.114982
O O3 0.611356 0.074810 0.135278
O O4 0.617092 0.137648 0.034988
O O5 0.250000 0.036566 0.882001
O O6 0.082538 0.086083 0.895523
O O7 0.143278 0.057871 0.797785
O O8 0.250000 0.861929 0.038307
O O9 0.072855 0.868539 0.063745
O O10 0.152953 0.004402 0.018182
O O11 0.750000 0.850549 0.971364
O O12 0.884561 0.880485 0.904455
O O13 0.921748 0.847121 0.005182
O O14 0.250000 0.104102 0.165628
O O15 0.346265 0.250000 0.162982
O O16 0.426578 0.107084 0.197169
O O17 0.453848 0.250000 0.910441
O O18 0.250000 0.973794 0.729614
O O19 0.414997 0.914997 0.750000
#
# Coordination Sequence:
#
# PCOD8318639 Si02
#       7
#    16  16  16  16  16  16  16
#     4   9  17  32  54  78 110 154 194 229 278 338
#     4  10  22  39  56  83 120 155 195 243 294 352
#     4  10  21  37  55  80 118 158 197 241 288 344
#     4  10  20  36  60  88 119 153 193 247 298 347
#     4   9  19  37  61  88 114 148 200 252 302 356
#     4  12  24  35  56  89 123 160 194 234 293 357
#     4  10  23  40  61  86 117 157 198 246 295 347
#
# _framework density 20.350078
#
# number of rings (size 3 to 8) (size 9 to 14) (size 15 to 20)
#    0.000    2.000    1.429    1.714    2.000    3.857 
#    0.000    4.286    0.000    0.000    0.000    0.000 
#    0.000    0.286    0.000    0.000    0.000    0.000 
#
# Total GULP energy -1388073.179911 kJ/mol
# GULP energy per Si atom -12393.510535 kJ/mol
# Density = 2.030376 g / cm^3
# Si number density = 20.350078 Si / 1000 Ang^3
#
#
#
# Elastic Constant Matrix: (Units=GPa)
#
#
# Indices 1 2 3 4 5 6 
#
# 1 80.2715 14.4900 40.4220 0.0000 0.0000 0.0000
# 2 14.4900 80.2715 40.4220 0.0000 0.0000 0.0000
# 3 40.4220 40.4220 82.2311 0.0000 0.0000 0.0000
# 4 0.0000 0.0000 0.0000 13.2617 0.0000 0.0000
# 5 0.0000 0.0000 0.0000 0.0000 13.2617 0.0000
# 6 0.0000 0.0000 0.0000 0.0000 0.0000 16.5404
#
#
#
# Elastic Compliance Matrix: (Units=1/GPa)
#
#
# Indices 1 2 3 4 5 6 
#
# 1 0.016688 0.001486 -0.008934 0.000000 0.000000 0.000000
# 2 0.001486 0.016688 -0.008934 0.000000 0.000000 0.000000
# 3 -0.008934 -0.008934 0.020944 0.000000 0.000000 0.000000
# 4 0.000000 0.000000 0.000000 0.075405 0.000000 0.000000
# 5 0.000000 0.000000 0.000000 0.000000 0.075405 0.000000
# 6 0.000000 0.000000 0.000000 0.000000 0.000000 0.060458
#
#
# Mechanical properties :
#
#
# Convention : Reuss Voigt Hill
#
# Bulk Modulus (GPa) = 46.38781 48.16024 47.27402
# Shear Modulus (GPa) = 16.36456 18.44210 17.40333
#
# Velocity S-wave (km/s) = 2.83883 3.01365 2.92755
# Velocity P-wave (km/s) = 5.79566 5.98554 5.89137
#
# Compressibility (1/GPa) = 0.02155739
#
# Stress axis : x y z
#
# Youngs Moduli (GPa) = 59.92226 59.92226 47.74588
#
# Poissons Ratio (x) = -0.08907 0.42657
# Poissons Ratio (y) = -0.08907 0.42657
# Poissons Ratio (z) = 0.53535 0.53535
#
# Static dielectric constant tensor:
#      x y z
#    x 4.042760 0.000000 0.000000 
#    y 0.000000 4.042760 0.000000 
#    z 0.000000 0.000000 3.743570 
# 
# 
# High freq. dielectric constant tensor:
#      x y z
#    x 1.791290 0.000000 0.000000 
#    y 0.000000 1.791290 0.000000 
#    z 0.000000 0.000000 1.778970 
# 
# From -- ./inp_files/8958.got.cif
#   From: 2010.03.12/outbox.cif.g09.slc.cpg/sg137_5_cif.got.tgz:8958.got - 2010.04.08 09:34:49.
