data_PCOD8318726
_publ_section_title
;
Structure prediction by ZEFSAII (Michael W. Deem and Ramdas Pophale) SiO2 
 PCOD8318726
Probable space group: P 42/N M C
;
_chemical_formula_sum "Si O2"
_cell_formula_units_Z 96
_cell_length_a 23.859610
_cell_length_b 23.859610
_cell_length_c 9.111430
_cell_angle_alpha 90.000000
_cell_angle_beta 90.000000
_cell_angle_gamma 90.000000
_cell_volume 5186.963885
_symmetry_space_group_name_H-M "P 42/N M C"
_symmetry_group_IT_number 137
_space_group.IT_coordinate_system_code '2'
_symmetry_cell_setting 'tetragonal'
loop_
_space_group_symop_operation_xyz
x,y,z
1/2-y,x,1/2+z
1/2-x,1/2-y,z
y,1/2-x,1/2+z
1/2+x,-y,-z
-x,1/2+y,-z
1/2+y,1/2+x,1/2-z
-y,-x,1/2-z
-x,-y,-z
1/2+y,-x,1/2-z
1/2+x,1/2+y,-z
-y,1/2+x,1/2-z
1/2-x,y,z
x,1/2-y,z
1/2-y,1/2-x,1/2+z
y,x,1/2+z
loop_
_atom_site_type_symbol
_atom_site_label
_atom_site_fract_x
_atom_site_fract_y
_atom_site_fract_z
Si Si1 0.186508 0.023351 0.336572
Si Si2 0.314491 0.600419 0.826108
Si Si3 0.986305 0.686689 0.830518
Si Si4 0.993897 0.935430 0.487555
Si Si5 0.143994 0.922722 0.135971
Si Si6 0.914846 0.592944 0.738785
O O1 0.250000 0.044451 0.309814
O O2 0.179460 0.997203 0.498541
O O3 0.146459 0.079046 0.328329
O O4 0.174030 0.974073 0.219986
O O5 0.351895 0.648106 0.750000
O O6 0.250000 0.611719 0.781852
O O7 0.334089 0.539541 0.765272
O O8 0.318004 0.602245 0.004775
O O9 0.972393 0.750000 0.788680
O O10 0.926704 0.655161 0.800013
O O11 0.951863 0.919243 0.363087
O O12 0.968457 0.912449 0.635620
O O13 0.054785 0.911165 0.448236
O O14 0.000000 0.000000 0.500000
O O15 0.126110 0.873891 0.250000
#
# Coordination Sequence:
#
# PCOD8318726 Si02
#       6
#    16  16  16  16  16  16
#     4  10  21  38  57  80 118 157 194 233 282 348
#     4  11  24  40  62  86 113 151 195 248 293 345
#     4  10  21  38  59  83 112 149 190 236 290 343
#     4  11  21  31  49  80 120 149 182 221 285 354
#     4  11  22  36  56  86 117 154 190 235 290 348
#     4  11  20  34  53  81 113 152 187 229 286 347
#
# _framework density 18.507936999999998
#
# number of rings (size 3 to 8) (size 9 to 14) (size 15 to 20)
#    0.000    1.333    3.333    4.000    2.333    0.167 
#    0.000    0.833    0.000    0.500    0.000    2.333 
#    0.000    0.000    0.000    0.000    0.000    0.000 
#
# Total GULP energy -1189510.870051 kJ/mol
# GULP energy per Si atom -12390.738230 kJ/mol
# Density = 1.846581 g / cm^3
# Si number density = 18.507937 Si / 1000 Ang^3
#
#
#
# Elastic Constant Matrix: (Units=GPa)
#
#
# Indices 1 2 3 4 5 6 
#
# 1 89.2078 44.3119 21.1119 0.0000 0.0000 0.0000
# 2 44.3119 89.2073 21.1115 0.0000 0.0000 0.0000
# 3 21.1119 21.1115 99.9244 0.0000 0.0000 0.0000
# 4 0.0000 0.0000 0.0000 27.6717 0.0000 0.0000
# 5 0.0000 0.0000 0.0000 0.0000 27.6716 0.0000
# 6 0.0000 0.0000 0.0000 0.0000 0.0000 26.5417
#
#
#
# Elastic Compliance Matrix: (Units=1/GPa)
#
#
# Indices 1 2 3 4 5 6 
#
# 1 0.015150 -0.007124 -0.001696 0.000000 0.000000 0.000000
# 2 -0.007124 0.015150 -0.001696 0.000000 0.000000 0.000000
# 3 -0.001696 -0.001696 0.010724 0.000000 0.000000 0.000000
# 4 0.000000 0.000000 0.000000 0.036138 0.000000 0.000000
# 5 0.000000 0.000000 0.000000 0.000000 0.036138 0.000000
# 6 0.000000 0.000000 0.000000 0.000000 0.000000 0.037677
#
#
# Mechanical properties :
#
#
# Convention : Reuss Voigt Hill
#
# Bulk Modulus (GPa) = 50.01757 50.15669 50.08713
# Shear Modulus (GPa) = 27.98431 29.16394 28.57412
#
# Velocity S-wave (km/s) = 3.89268 3.97388 3.93349
# Velocity P-wave (km/s) = 6.87660 6.94367 6.91022
#
# Compressibility (1/GPa) = 0.01999297
#
# Stress axis : x y z
#
# Youngs Moduli (GPa) = 66.00755 66.00730 93.24816
#
# Poissons Ratio (x) = 0.47024 0.15812
# Poissons Ratio (y) = 0.47024 0.15811
# Poissons Ratio (z) = 0.11193 0.11192
#
# Static dielectric constant tensor:
#      x y z
#    x 3.600580 0.000000 0.000000 
#    y 0.000000 3.600590 0.000000 
#    z 0.000000 0.000000 3.697710 
# 
# 
# High freq. dielectric constant tensor:
#      x y z
#    x 1.699760 0.000000 0.000000 
#    y 0.000000 1.699760 0.000000 
#    z 0.000000 0.000000 1.741470 
# 
# From -- ./inp_files/2153.got.cif
#   From: 2010.03.12/outbox.cif.g09.slc.cpg/sg137_2_cif.got.tgz:2153.got - 2010.04.08 09:34:49.
