data_PCOD8319103
_publ_section_title
;
Structure prediction by ZEFSAII (Michael W. Deem and Ramdas Pophale) SiO2 
 PCOD8319103
Probable space group: P 42/N C M
;
_chemical_formula_sum "Si O2"
_cell_formula_units_Z 80
_cell_length_a 10.883301
_cell_length_b 10.883301
_cell_length_c 32.491897
_cell_angle_alpha 90.000000
_cell_angle_beta 90.000000
_cell_angle_gamma 90.000000
_cell_volume 3848.543051
_symmetry_space_group_name_H-M "P 42/N C M"
_symmetry_group_IT_number 138
_space_group.IT_coordinate_system_code '2'
_symmetry_cell_setting 'tetragonal'
loop_
_space_group_symop_operation_xyz
x,y,z
1/2-y,x,1/2+z
1/2-x,1/2-y,z
y,1/2-x,1/2+z
1/2+x,-y,1/2-z
-x,1/2+y,1/2-z
1/2+y,1/2+x,-z
-y,-x,-z
-x,-y,-z
1/2+y,-x,1/2-z
1/2+x,1/2+y,-z
-y,1/2+x,1/2-z
1/2-x,y,1/2+z
x,1/2-y,1/2+z
1/2-y,1/2-x,z
y,x,z
loop_
_atom_site_type_symbol
_atom_site_label
_atom_site_fract_x
_atom_site_fract_y
_atom_site_fract_z
Si Si1 0.821779 0.488880 0.703466
Si Si2 0.096117 0.605902 0.939949
Si Si3 0.900997 0.402213 0.151761
Si Si4 0.982709 0.709920 0.288085
Si Si5 0.301119 0.499660 0.996566
O O1 0.730760 0.429442 0.670879
O O2 0.761628 0.550902 0.743340
O O3 0.906701 0.593300 0.681771
O O4 0.902842 0.377806 0.720331
O O5 0.119190 0.654662 0.893645
O O6 0.224257 0.552434 0.957746
O O7 0.009899 0.490102 0.940697
O O8 0.025519 0.714428 0.964101
O O9 0.967652 0.532349 0.148588
O O10 0.984667 0.312155 0.178614
O O11 0.864627 0.635374 0.304940
O O12 0.357033 0.357033 0.993397
O O13 0.420558 0.579443 0.000000
#
# Coordination Sequence:
#
# PCOD8319103 Si02
#       5
#    16  16  16  16  16
#     4  11  23  39  60  85 115 155 203 253 306 367
#     4  10  22  39  60  88 122 158 200 250 299 363
#     4  11  24  40  59  88 122 158 204 251 304 367
#     4  11  23  39  60  85 115 155 203 253 306 367
#     4  10  21  38  63  91 120 156 199 247 306 373
#
# _framework density 20.787085999999999
#
# number of rings (size 3 to 8) (size 9 to 14) (size 15 to 20)
#    0.000    1.400    2.000    4.200    0.000    9.200 
#    0.000    8.000    0.000    0.000    0.000    0.000 
#    0.000    0.000    0.000    0.000    0.000    0.000 
#
# Total GULP energy -991313.968627 kJ/mol
# GULP energy per Si atom -12391.424608 kJ/mol
# Density = 2.073977 g / cm^3
# Si number density = 20.787086 Si / 1000 Ang^3
#
#
#
# Elastic Constant Matrix: (Units=GPa)
#
#
# Indices 1 2 3 4 5 6 
#
# 1 27.1395 102.7056 21.5343 0.0000 0.0000 0.0000
# 2 102.7056 27.1363 21.5338 0.0000 0.0000 0.0000
# 3 21.5343 21.5338 119.1311 0.0000 0.0000 0.0000
# 4 0.0000 0.0000 0.0000 24.1910 0.0000 0.0000
# 5 0.0000 0.0000 0.0000 0.0000 24.1910 0.0000
# 6 0.0000 0.0000 0.0000 0.0000 0.0000 44.9089
#
#
#
# Elastic Compliance Matrix: (Units=1/GPa)
#
#
# Indices 1 2 3 4 5 6 
#
# 1 -0.002520 0.010713 -0.001481 0.000000 0.000000 0.000000
# 2 0.010713 -0.002520 -0.001481 0.000000 0.000000 0.000000
# 3 -0.001481 -0.001481 0.008929 0.000000 0.000000 0.000000
# 4 0.000000 0.000000 0.000000 0.041338 0.000000 0.000000
# 5 0.000000 0.000000 0.000000 0.000000 0.041338 0.000000
# 6 0.000000 0.000000 0.000000 0.000000 0.000000 0.022267
#
#
# Mechanical properties :
#
#
# Convention : Reuss Voigt Hill
#
# Bulk Modulus (GPa) = 51.56931 51.66160 51.61545
# Shear Modulus (GPa) = 50.10356 20.50040 35.30198
#
# Velocity S-wave (km/s) = 4.91483 3.14380 4.12547
# Velocity P-wave (km/s) = 7.55444 6.17128 6.89762
#
# Compressibility (1/GPa) = 0.01939138
#
# Stress axis : x y z
#
# Youngs Moduli (GPa) = -396.82172 -396.77050 111.98837
#
# Poissons Ratio (x) = 4.25059 0.16585
# Poissons Ratio (y) = 4.25114 0.16585
# Poissons Ratio (z) = -0.58766 -0.58759
#
# Static dielectric constant tensor:
#      x y z
#    x 4.022180 0.000000 0.000000 
#    y 0.000000 4.022180 0.000000 
#    z 0.000000 0.000000 5.730400 
# 
# 
# High freq. dielectric constant tensor:
#      x y z
#    x 1.825920 0.000000 0.000000 
#    y 0.000000 1.825920 0.000000 
#    z 0.000000 0.000000 1.799520 
# 
# From -- ./inp_files/7909.got.cif
#   From: 2010.03.12/outbox.cif.g09.slc.cpg/sg138_4_cif.got.tgz:7909.got - 2010.04.08 09:41:05.
