data_PCOD8319362
_publ_section_title
;
Structure prediction by ZEFSAII (Michael W. Deem and Ramdas Pophale) SiO2 
 PCOD8319362
Probable space group: I 4/M M M
;
_chemical_formula_sum "Si O2"
_cell_formula_units_Z 176
_cell_length_a 17.974803
_cell_length_b 17.974803
_cell_length_c 32.829116
_cell_angle_alpha 90.000000
_cell_angle_beta 90.000000
_cell_angle_gamma 90.000000
_cell_volume 10606.875398
_symmetry_space_group_name_H-M "I 4/M M M"
_symmetry_group_IT_number 139
_symmetry_cell_setting 'tetragonal'
loop_
_space_group_symop_operation_xyz
x,y,z
-y,x,z
-x,-y,z
y,-x,z
x,-y,-z
-x,y,-z
y,x,-z
-y,-x,-z
-x,-y,-z
y,-x,-z
x,y,-z
-y,x,-z
-x,y,z
x,-y,z
-y,-x,z
y,x,z
1/2+x,1/2+y,1/2+z
1/2-y,1/2+x,1/2+z
1/2-x,1/2-y,1/2+z
1/2+y,1/2-x,1/2+z
1/2+x,1/2-y,1/2-z
1/2-x,1/2+y,1/2-z
1/2+y,1/2+x,1/2-z
1/2-y,1/2-x,1/2-z
1/2-x,1/2-y,1/2-z
1/2+y,1/2-x,1/2-z
1/2+x,1/2+y,1/2-z
1/2-y,1/2+x,1/2-z
1/2-x,1/2+y,1/2+z
1/2+x,1/2-y,1/2+z
1/2-y,1/2-x,1/2+z
1/2+y,1/2+x,1/2+z
loop_
_atom_site_type_symbol
_atom_site_label
_atom_site_fract_x
_atom_site_fract_y
_atom_site_fract_z
Si Si1 0.415424 0.849185 0.916372
Si Si2 0.703993 0.584900 0.202189
Si Si3 0.295900 0.415125 0.297167
Si Si4 0.303551 0.580396 0.954528
Si Si5 0.583429 0.087286 0.000000
Si Si6 0.188793 0.689461 0.846804
O O1 0.500000 0.880225 0.906393
O O2 0.421102 0.761636 0.922292
O O3 0.353716 0.859130 0.881407
O O4 0.380452 0.885448 0.957576
O O5 0.698236 0.500000 0.186462
O O6 0.625312 0.625312 0.193556
O O7 0.723535 0.587556 0.249680
O O8 0.770422 0.626746 0.179498
O O9 0.302573 0.500000 0.312745
O O10 0.374372 0.374372 0.306011
O O11 0.229412 0.373336 0.319887
O O12 0.342284 0.500000 0.956341
O O13 0.362575 0.637426 0.936978
O O14 0.275098 0.602497 0.000000
O O15 0.500000 0.121152 0.000000
O O16 0.584255 0.000000 0.000000
O O17 0.249190 0.750811 0.863139
#
# Coordination Sequence:
#
# PCOD8319362 Si02
#       6
#    32  32  32  32  16  32
#     4  10  18  30  46  64  86 116 153 190 228 273
#     4   9  17  30  48  70  97 129 162 195 229 266
#     4   9  18  32  50  71  95 122 153 191 234 279
#     4   9  16  26  40  58  82 112 146 183 221 261
#     4   9  18  32  47  62  81 107 143 188 235 276
#     4  10  19  30  46  70  96 124 155 188 229 279
#
# _framework density 16.59301
#
# number of rings (size 3 to 8) (size 9 to 14) (size 15 to 20)
#    0.000    2.636    0.909    1.636    0.000    3.455 
#    0.000    2.727    0.000    1.636    0.000    7.636 
#    0.000    0.000    0.000    0.000    0.000   14.545 
#
# Total GULP energy -1090484.902451 kJ/mol
# GULP energy per Si atom -12391.873891 kJ/mol
# Density = 1.655524 g / cm^3
# Si number density = 16.593010 Si / 1000 Ang^3
#
#
#
# Elastic Constant Matrix: (Units=GPa)
#
#
# Indices 1 2 3 4 5 6 
#
# 1 87.3989 39.0987 39.5957 0.0000 0.0000 0.0000
# 2 39.0987 87.3989 39.5957 0.0000 0.0000 0.0000
# 3 39.5957 39.5957 67.9753 0.0000 0.0000 0.0000
# 4 0.0000 0.0000 0.0000 16.9970 0.0000 0.0000
# 5 0.0000 0.0000 0.0000 0.0000 16.9970 0.0000
# 6 0.0000 0.0000 0.0000 0.0000 0.0000 15.6572
#
#
#
# Elastic Compliance Matrix: (Units=1/GPa)
#
#
# Indices 1 2 3 4 5 6 
#
# 1 0.016573 -0.004131 -0.007248 0.000000 0.000000 0.000000
# 2 -0.004131 0.016573 -0.007248 0.000000 0.000000 0.000000
# 3 -0.007248 -0.007248 0.023155 0.000000 0.000000 0.000000
# 4 0.000000 0.000000 0.000000 0.058834 0.000000 0.000000
# 5 0.000000 0.000000 0.000000 0.000000 0.058834 0.000000
# 6 0.000000 0.000000 0.000000 0.000000 0.000000 0.063868
#
#
# Mechanical properties :
#
#
# Convention : Reuss Voigt Hill
#
# Bulk Modulus (GPa) = 52.49657 53.26150 52.87903
# Shear Modulus (GPa) = 17.76578 18.22911 17.99745
#
# Velocity S-wave (km/s) = 3.27567 3.31811 3.29696
# Velocity P-wave (km/s) = 6.78330 6.84458 6.81401
#
# Compressibility (1/GPa) = 0.01904886
#
# Stress axis : x y z
#
# Youngs Moduli (GPa) = 60.33816 60.33816 43.18720
#
# Poissons Ratio (x) = 0.24923 0.31302
# Poissons Ratio (y) = 0.24923 0.31302
# Poissons Ratio (z) = 0.43732 0.43732
#
# Static dielectric constant tensor:
#      x y z
#    x 3.094600 0.000000 0.000000 
#    y 0.000000 3.094600 0.000000 
#    z 0.000000 0.000000 3.109660 
# 
# 
# High freq. dielectric constant tensor:
#      x y z
#    x 1.626500 0.000000 0.000000 
#    y 0.000000 1.626500 0.000000 
#    z 0.000000 0.000000 1.633490 
# 
# From -- ./inp_files/14206.got.cif
#   From: 2010.03.12/outbox.cif.g09.slc.cpg/sg139_8_cif.got.tgz:14206.got - 2010.04.08 09:46:31.
