data_PCOD8319985
_publ_section_title
;
Structure prediction by ZEFSAII (Michael W. Deem and Ramdas Pophale) SiO2 
 PCOD8319985
Probable space group: I 4/M M M
;
_chemical_formula_sum "Si O2"
_cell_formula_units_Z 176
_cell_length_a 18.130748
_cell_length_b 18.130748
_cell_length_c 30.360901
_cell_angle_alpha 90.000000
_cell_angle_beta 90.000000
_cell_angle_gamma 90.000000
_cell_volume 9980.357520
_symmetry_space_group_name_H-M "I 4/M M M"
_symmetry_group_IT_number 139
_symmetry_cell_setting 'tetragonal'
loop_
_space_group_symop_operation_xyz
x,y,z
-y,x,z
-x,-y,z
y,-x,z
x,-y,-z
-x,y,-z
y,x,-z
-y,-x,-z
-x,-y,-z
y,-x,-z
x,y,-z
-y,x,-z
-x,y,z
x,-y,z
-y,-x,z
y,x,z
1/2+x,1/2+y,1/2+z
1/2-y,1/2+x,1/2+z
1/2-x,1/2-y,1/2+z
1/2+y,1/2-x,1/2+z
1/2+x,1/2-y,1/2-z
1/2-x,1/2+y,1/2-z
1/2+y,1/2+x,1/2-z
1/2-y,1/2-x,1/2-z
1/2-x,1/2-y,1/2-z
1/2+y,1/2-x,1/2-z
1/2+x,1/2+y,1/2-z
1/2-y,1/2+x,1/2-z
1/2-x,1/2+y,1/2+z
1/2+x,1/2-y,1/2+z
1/2-y,1/2-x,1/2+z
1/2+y,1/2+x,1/2+z
loop_
_atom_site_type_symbol
_atom_site_label
_atom_site_fract_x
_atom_site_fract_y
_atom_site_fract_z
Si Si1 0.727181 0.000000 0.756182
Si Si2 0.914609 0.413502 0.950451
Si Si3 0.217241 0.000000 0.373018
Si Si4 0.228067 0.654793 0.708456
Si Si5 0.500000 0.380829 0.949715
Si Si6 0.585085 0.000000 0.306938
Si Si7 0.840412 0.383992 0.863654
Si Si8 0.379750 0.500000 0.204230
O O1 0.736063 0.067789 0.788949
O O2 0.647095 0.000000 0.731893
O O3 0.797230 0.000000 0.723758
O O4 0.902308 0.500000 0.941829
O O5 0.867162 0.369615 0.913858
O O6 0.000000 0.392738 0.945103
O O7 0.888320 0.392438 0.000000
O O8 0.263976 0.927674 0.361949
O O9 0.138542 0.000000 0.347665
O O10 0.196395 0.000000 0.424186
O O11 0.308044 0.691957 0.710425
O O12 0.179454 0.679454 0.750000
O O13 0.191850 0.675633 0.661673
O O14 0.572556 0.427445 0.938175
O O15 0.500000 0.357350 0.000000
O O16 0.596023 0.927845 0.337031
O O17 0.500000 0.000000 0.289174
O O18 0.427120 0.427120 0.216892
#
# Coordination Sequence:
#
# PCOD8319985 Si02
#       8
#    16  32  16  32  16  16  32  16
#     4  12  23  41  56  80 103 146 180 230 276 322
#     4   9  17  30  50  76 107 141 177 220 261 304
#     4  11  20  33  50  77 105 142 184 218 271 316
#     4  11  24  39  54  77 111 145 179 222 275 329
#     4   9  19  35  53  74  99 131 179 237 284 315
#     4  11  21  35  51  81 114 143 181 223 254 309
#     4  11  21  35  51  78 109 150 179 219 271 316
#     4  11  22  38  61  81 101 135 185 240 283 328
#
# _framework density 17.634639
#
# number of rings (size 3 to 8) (size 9 to 14) (size 15 to 20)
#    0.000    1.455    5.455    2.455    2.545    4.364 
#    3.273    0.000    0.000    0.545    0.000    0.000 
#    0.000    0.000    0.000    0.000    0.000    2.727 
#
# Total GULP energy -1090984.123500 kJ/mol
# GULP energy per Si atom -12397.546858 kJ/mol
# Density = 1.759450 g / cm^3
# Si number density = 17.634639 Si / 1000 Ang^3
#
#
#
# Elastic Constant Matrix: (Units=GPa)
#
#
# Indices 1 2 3 4 5 6 
#
# 1 97.6968 37.6454 39.2335 0.0000 0.0000 0.0000
# 2 37.6454 97.6968 39.2335 0.0000 0.0000 0.0000
# 3 39.2335 39.2335 109.6128 0.0000 0.0000 0.0000
# 4 0.0000 0.0000 0.0000 21.8860 0.0000 0.0000
# 5 0.0000 0.0000 0.0000 0.0000 21.8860 0.0000
# 6 0.0000 0.0000 0.0000 0.0000 0.0000 9.6339
#
#
#
# Elastic Compliance Matrix: (Units=1/GPa)
#
#
# Indices 1 2 3 4 5 6 
#
# 1 0.012988 -0.003664 -0.003337 0.000000 0.000000 0.000000
# 2 -0.003664 0.012988 -0.003337 0.000000 0.000000 0.000000
# 3 -0.003337 -0.003337 0.011512 0.000000 0.000000 0.000000
# 4 0.000000 0.000000 0.000000 0.045691 0.000000 0.000000
# 5 0.000000 0.000000 0.000000 0.000000 0.045691 0.000000
# 6 0.000000 0.000000 0.000000 0.000000 0.000000 0.103800
#
#
# Mechanical properties :
#
#
# Convention : Reuss Voigt Hill
#
# Bulk Modulus (GPa) = 59.48731 59.69236 59.58983
# Shear Modulus (GPa) = 19.30869 23.27413 21.29141
#
# Velocity S-wave (km/s) = 3.31256 3.63684 3.47848
# Velocity P-wave (km/s) = 6.95968 7.18042 7.07091
#
# Compressibility (1/GPa) = 0.01681031
#
# Stress axis : x y z
#
# Youngs Moduli (GPa) = 76.99461 76.99461 86.86646
#
# Poissons Ratio (x) = 0.28215 0.28988
# Poissons Ratio (y) = 0.28215 0.28988
# Poissons Ratio (z) = 0.25694 0.25694
#
# Static dielectric constant tensor:
#      x y z
#    x 3.132430 0.000000 0.000000 
#    y 0.000000 3.132430 0.000000 
#    z 0.000000 0.000000 3.321370 
# 
# 
# High freq. dielectric constant tensor:
#      x y z
#    x 1.663830 0.000000 0.000000 
#    y 0.000000 1.663830 0.000000 
#    z 0.000000 0.000000 1.680590 
# 
# From -- ./inp_files/14330.got.cif
#   From: 2010.03.12/outbox.cif.g09.slc.cpg/sg139_8_cif.got.tgz:14330.got - 2010.04.08 09:46:31.
