data_PCOD8319757
_publ_section_title
;
Structure prediction by ZEFSAII (Michael W. Deem and Ramdas Pophale) SiO2 
 PCOD8319757
Probable space group: I 4/M M M
;
_chemical_formula_sum "Si O2"
_cell_formula_units_Z 136
_cell_length_a 17.489237
_cell_length_b 17.489237
_cell_length_c 26.223875
_cell_angle_alpha 90.000000
_cell_angle_beta 90.000000
_cell_angle_gamma 90.000000
_cell_volume 8021.186092
_symmetry_space_group_name_H-M "I 4/M M M"
_symmetry_group_IT_number 139
_symmetry_cell_setting 'tetragonal'
loop_
_space_group_symop_operation_xyz
x,y,z
-y,x,z
-x,-y,z
y,-x,z
x,-y,-z
-x,y,-z
y,x,-z
-y,-x,-z
-x,-y,-z
y,-x,-z
x,y,-z
-y,x,-z
-x,y,z
x,-y,z
-y,-x,z
y,x,z
1/2+x,1/2+y,1/2+z
1/2-y,1/2+x,1/2+z
1/2-x,1/2-y,1/2+z
1/2+y,1/2-x,1/2+z
1/2+x,1/2-y,1/2-z
1/2-x,1/2+y,1/2-z
1/2+y,1/2+x,1/2-z
1/2-y,1/2-x,1/2-z
1/2-x,1/2-y,1/2-z
1/2+y,1/2-x,1/2-z
1/2+x,1/2+y,1/2-z
1/2-y,1/2+x,1/2-z
1/2-x,1/2+y,1/2+z
1/2+x,1/2-y,1/2+z
1/2-y,1/2-x,1/2+z
1/2+y,1/2+x,1/2+z
loop_
_atom_site_type_symbol
_atom_site_label
_atom_site_fract_x
_atom_site_fract_y
_atom_site_fract_z
Si Si1 0.587082 0.412919 0.701169
Si Si2 0.810654 0.810654 0.730293
Si Si3 0.323670 0.091605 0.703520
Si Si4 0.326487 0.089400 0.000000
Si Si5 0.588974 0.913787 0.103866
Si Si6 0.914060 0.085940 0.917899
Si Si7 0.673390 0.326611 0.500000
O O1 0.606401 0.500000 0.717326
O O2 0.646082 0.353919 0.724631
O O3 0.597640 0.402361 0.641462
O O4 0.750000 0.750000 0.750000
O O5 0.762968 0.875180 0.699622
O O6 0.371373 0.128628 0.750000
O O7 0.361764 0.117445 0.650459
O O8 0.322485 0.000000 0.710391
O O9 0.373763 0.108758 0.949542
O O10 0.261555 0.153141 0.000000
O O11 0.299333 0.000000 0.000000
O O12 0.500000 0.903378 0.095212
O O13 0.610339 0.000000 0.119206
O O14 0.859061 0.140940 0.947705
O O15 0.000000 0.106039 0.933965
#
# Coordination Sequence:
#
# PCOD8319757 Si02
#       7
#    16  16  32  16  32  16   8
#     4   9  18  34  55  72  88 123 174 214 238 274
#     4  10  21  33  46  69 103 133 154 187 242 302
#     4  10  20  33  51  75 101 130 163 202 249 297
#     4  10  21  34  49  70  94 126 164 198 237 284
#     4   9  18  34  54  72  92 121 160 204 244 286
#     4   9  18  32  48  65  88 123 165 203 237 270
#     4  12  22  29  42  68 100 128 154 193 240 286
#
# _framework density 16.955098
#
# number of rings (size 3 to 8) (size 9 to 14) (size 15 to 20)
#    0.000    2.353    0.000    3.529    0.000    7.765 
#    0.000    4.706    0.000    0.000    0.000    0.000 
#    0.000    0.000    0.000    0.000    0.000   36.706 
#
# Total GULP energy -842804.841898 kJ/mol
# GULP energy per Si atom -12394.188851 kJ/mol
# Density = 1.691651 g / cm^3
# Si number density = 16.955098 Si / 1000 Ang^3
#
#
#
# Elastic Constant Matrix: (Units=GPa)
#
#
# Indices 1 2 3 4 5 6 
#
# 1 68.5614 50.2043 51.5700 0.0000 0.0000 0.0000
# 2 50.2043 68.5610 51.5702 0.0000 0.0000 0.0000
# 3 51.5700 51.5702 117.4760 0.0000 0.0000 0.0000
# 4 0.0000 0.0000 0.0000 6.6836 0.0000 0.0000
# 5 0.0000 0.0000 0.0000 0.0000 6.6836 0.0000
# 6 0.0000 0.0000 0.0000 0.0000 0.0000 34.0327
#
#
#
# Elastic Compliance Matrix: (Units=1/GPa)
#
#
# Indices 1 2 3 4 5 6 
#
# 1 0.034041 -0.020434 -0.005973 0.000000 0.000000 0.000000
# 2 -0.020434 0.034042 -0.005974 0.000000 0.000000 0.000000
# 3 -0.005973 -0.005974 0.013757 0.000000 0.000000 0.000000
# 4 0.000000 0.000000 0.000000 0.149621 0.000000 0.000000
# 5 0.000000 0.000000 0.000000 0.000000 0.149620 0.000000
# 6 0.000000 0.000000 0.000000 0.000000 0.000000 0.029384
#
#
# Mechanical properties :
#
#
# Convention : Reuss Voigt Hill
#
# Bulk Modulus (GPa) = 58.55478 62.36528 60.46003
# Shear Modulus (GPa) = 10.39677 16.23023 13.31350
#
# Velocity S-wave (km/s) = 2.47896 3.09730 2.80522
# Velocity P-wave (km/s) = 6.54247 7.04652 6.79917
#
# Compressibility (1/GPa) = 0.01707802
#
# Stress axis : x y z
#
# Youngs Moduli (GPa) = 29.37609 29.37569 72.69068
#
# Poissons Ratio (x) = 0.60026 0.43421
# Poissons Ratio (y) = 0.60027 0.43423
# Poissons Ratio (z) = 0.17547 0.17548
#
# Static dielectric constant tensor:
#      x y z
#    x 3.341490 0.000000 0.000000 
#    y 0.000000 3.341500 0.000000 
#    z 0.000000 0.000000 3.273770 
# 
# 
# High freq. dielectric constant tensor:
#      x y z
#    x 1.651430 0.000000 0.000000 
#    y 0.000000 1.651430 0.000000 
#    z 0.000000 0.000000 1.652240 
# 
# From -- ./inp_files/11574.got.cif
#   From: 2010.03.12/outbox.cif.g09.slc.cpg/sg139_6_cif.got.tgz:11574.got - 2010.04.08 09:46:31.
