data_PCOD8319452
_publ_section_title
;
Structure prediction by ZEFSAII (Michael W. Deem and Ramdas Pophale) SiO2 
 PCOD8319452
Probable space group: I 4/M M M
;
_chemical_formula_sum "Si O2"
_cell_formula_units_Z 160
_cell_length_a 23.182009
_cell_length_b 23.182009
_cell_length_c 16.198820
_cell_angle_alpha 90.000000
_cell_angle_beta 90.000000
_cell_angle_gamma 90.000000
_cell_volume 8705.335630
_symmetry_space_group_name_H-M "I 4/M M M"
_symmetry_group_IT_number 139
_symmetry_cell_setting 'tetragonal'
loop_
_space_group_symop_operation_xyz
x,y,z
-y,x,z
-x,-y,z
y,-x,z
x,-y,-z
-x,y,-z
y,x,-z
-y,-x,-z
-x,-y,-z
y,-x,-z
x,y,-z
-y,x,-z
-x,y,z
x,-y,z
-y,-x,z
y,x,z
1/2+x,1/2+y,1/2+z
1/2-y,1/2+x,1/2+z
1/2-x,1/2-y,1/2+z
1/2+y,1/2-x,1/2+z
1/2+x,1/2-y,1/2-z
1/2-x,1/2+y,1/2-z
1/2+y,1/2+x,1/2-z
1/2-y,1/2-x,1/2-z
1/2-x,1/2-y,1/2-z
1/2+y,1/2-x,1/2-z
1/2+x,1/2+y,1/2-z
1/2-y,1/2+x,1/2-z
1/2-x,1/2+y,1/2+z
1/2+x,1/2-y,1/2+z
1/2-y,1/2-x,1/2+z
1/2+y,1/2+x,1/2+z
loop_
_atom_site_type_symbol
_atom_site_label
_atom_site_fract_x
_atom_site_fract_y
_atom_site_fract_z
Si Si1 0.433558 0.659326 0.323794
Si Si2 0.711270 0.619709 0.832181
Si Si3 0.435075 0.285895 0.000000
Si Si4 0.134559 0.347016 0.661343
Si Si5 0.934327 0.351370 0.500000
Si Si6 0.350999 0.741201 0.405837
O O1 0.500000 0.649418 0.343963
O O2 0.402800 0.597201 0.324834
O O3 0.425814 0.690140 0.235636
O O4 0.406741 0.700913 0.393673
O O5 0.682181 0.682181 0.815368
O O6 0.779581 0.623284 0.829565
O O7 0.689601 0.597129 0.920316
O O8 0.500000 0.309056 0.000000
O O9 0.433658 0.216993 0.000000
O O10 0.121352 0.378649 0.750000
O O11 0.097482 0.373193 0.584555
O O12 0.202152 0.356944 0.648249
O O13 0.000000 0.375171 0.500000
O O14 0.345645 0.760480 0.500000
O O15 0.294100 0.705901 0.377904
#
# Coordination Sequence:
#
# PCOD8319452 Si02
#       6
#    32  32  16  32  16  32
#     4  10  21  36  53  74 103 141 186 239 291 337
#     4  10  19  29  46  72 103 141 181 227 281 337
#     4   9  17  29  43  63  97 143 185 219 261 316
#     4  11  19  32  53  81 113 151 188 221 277 344
#     4   9  20  35  51  77 118 153 177 216 257 312
#     4  10  20  34  53  77 107 142 180 230 290 346
#
# _framework density 18.379532999999999
#
# number of rings (size 3 to 8) (size 9 to 14) (size 15 to 20)
#    0.000    2.000    3.000    1.500    0.000    2.200 
#    0.000    0.000    0.000    0.000    0.000    2.800 
#    0.000   13.200    0.000    0.000    0.000    0.000 
#
# Total GULP energy -991675.283481 kJ/mol
# GULP energy per Si atom -12395.941044 kJ/mol
# Density = 1.833770 g / cm^3
# Si number density = 18.379533 Si / 1000 Ang^3
#
#
#
# Elastic Constant Matrix: (Units=GPa)
#
#
# Indices 1 2 3 4 5 6 
#
# 1 95.0854 1.7093 24.3796 0.0000 0.0000 0.0000
# 2 1.7093 95.0790 24.3773 0.0000 0.0000 0.0000
# 3 24.3796 24.3773 120.0190 0.0000 0.0000 0.0000
# 4 0.0000 0.0000 0.0000 21.1308 0.0000 0.0000
# 5 0.0000 0.0000 0.0000 0.0000 21.1309 0.0000
# 6 0.0000 0.0000 0.0000 0.0000 0.0000 10.6921
#
#
#
# Elastic Compliance Matrix: (Units=1/GPa)
#
#
# Indices 1 2 3 4 5 6 
#
# 1 0.011109 0.000400 -0.002338 0.000000 0.000000 0.000000
# 2 0.000400 0.011110 -0.002338 0.000000 0.000000 0.000000
# 3 -0.002338 -0.002338 0.009282 0.000000 0.000000 0.000000
# 4 0.000000 0.000000 0.000000 0.047324 0.000000 0.000000
# 5 0.000000 0.000000 0.000000 0.000000 0.047324 0.000000
# 6 0.000000 0.000000 0.000000 0.000000 0.000000 0.093527
#
#
# Mechanical properties :
#
#
# Convention : Reuss Voigt Hill
#
# Bulk Modulus (GPa) = 43.57511 45.67956 44.62734
# Shear Modulus (GPa) = 21.19746 27.90523 24.55135
#
# Velocity S-wave (km/s) = 3.39974 3.90074 3.65882
# Velocity P-wave (km/s) = 6.25867 6.72273 6.49485
#
# Compressibility (1/GPa) = 0.02294888
#
# Stress axis : x y z
#
# Youngs Moduli (GPa) = 90.01652 90.01105 107.73881
#
# Poissons Ratio (x) = -0.03597 0.25187
# Poissons Ratio (y) = -0.03598 0.25186
# Poissons Ratio (z) = 0.21044 0.21042
#
# Static dielectric constant tensor:
#      x y z
#    x 3.131570 0.000000 0.000000 
#    y 0.000000 3.131570 0.000000 
#    z 0.000000 0.000000 3.815820 
# 
# 
# High freq. dielectric constant tensor:
#      x y z
#    x 1.681570 0.000000 0.000000 
#    y 0.000000 1.681570 0.000000 
#    z 0.000000 0.000000 1.736620 
# 
# From -- ./inp_files/8438.got.cif
#   From: 2010.03.12/outbox.cif.g09.slc.cpg/sg139_5_cif.got.tgz:8438.got - 2010.04.08 09:46:31.
