data_PCOD8319228
_publ_section_title
;
Structure prediction by ZEFSAII (Michael W. Deem and Ramdas Pophale) SiO2 
 PCOD8319228
Probable space group: P 42/N C M
;
_chemical_formula_sum "Si O2"
_cell_formula_units_Z 56
_cell_length_a 13.521319
_cell_length_b 13.521319
_cell_length_c 13.834325
_cell_angle_alpha 90.000000
_cell_angle_beta 90.000000
_cell_angle_gamma 90.000000
_cell_volume 2529.275236
_symmetry_space_group_name_H-M "P 42/N C M"
_symmetry_group_IT_number 138
_space_group.IT_coordinate_system_code '2'
_symmetry_cell_setting 'tetragonal'
loop_
_space_group_symop_operation_xyz
x,y,z
1/2-y,x,1/2+z
1/2-x,1/2-y,z
y,1/2-x,1/2+z
1/2+x,-y,1/2-z
-x,1/2+y,1/2-z
1/2+y,1/2+x,-z
-y,-x,-z
-x,-y,-z
1/2+y,-x,1/2-z
1/2+x,1/2+y,-z
-y,1/2+x,1/2-z
1/2-x,y,1/2+z
x,1/2-y,1/2+z
1/2-y,1/2-x,z
y,x,z
loop_
_atom_site_type_symbol
_atom_site_label
_atom_site_fract_x
_atom_site_fract_y
_atom_site_fract_z
Si Si1 0.074885 0.425116 0.951840
Si Si2 0.816876 0.095956 0.637287
Si Si3 0.760757 0.033986 0.844695
Si Si4 0.830780 0.669221 0.869117
Si Si5 0.361105 0.638896 0.000000
O O1 0.155027 0.483800 0.888625
O O2 0.137641 0.362359 0.025686
O O3 0.000000 0.500000 0.000000
O O4 0.796874 0.093462 0.751471
O O5 0.909457 0.165893 0.611477
O O6 0.725810 0.141370 0.578823
O O7 0.721675 0.924457 0.816150
O O8 0.846022 0.040614 0.930831
O O9 0.750000 0.750000 0.881784
#
# Coordination Sequence:
#
# PCOD8319228 Si02
#       5
#     8  16  16   8   8
#     4  12  22  46  74  94 133 191 236 281 352 415
#     4  12  23  40  72 107 140 176 230 289 348 416
#     4  12  24  43  69 106 141 180 229 287 351 414
#     4  12  28  50  68  94 145 196 234 284 350 420
#     4  12  23  40  73 112 141 170 223 298 351 406
#
# _framework density 22.140727999999999
#
# number of rings (size 3 to 8) (size 9 to 14) (size 15 to 20)
#    0.000    0.000    8.571    2.571    2.000    0.000 
#    2.571    0.714    0.000    0.000    0.000    0.000 
#    0.000    0.000    0.000    0.000    0.000    0.000 
#
# Total GULP energy -693868.698203 kJ/mol
# GULP energy per Si atom -12390.512468 kJ/mol
# Density = 2.209034 g / cm^3
# Si number density = 22.140728 Si / 1000 Ang^3
#
#
#
# Elastic Constant Matrix: (Units=GPa)
#
#
# Indices 1 2 3 4 5 6 
#
# 1 78.3236 44.1333 19.2282 0.0000 0.0000 0.0000
# 2 44.1333 78.3247 19.2285 0.0000 0.0000 0.0000
# 3 19.2282 19.2285 117.0566 0.0000 0.0000 0.0000
# 4 0.0000 0.0000 0.0000 22.8861 0.0000 0.0000
# 5 0.0000 0.0000 0.0000 0.0000 22.8862 0.0000
# 6 0.0000 0.0000 0.0000 0.0000 0.0000 37.5777
#
#
#
# Elastic Compliance Matrix: (Units=1/GPa)
#
#
# Indices 1 2 3 4 5 6 
#
# 1 0.018929 -0.010319 -0.001414 0.000000 0.000000 0.000000
# 2 -0.010319 0.018929 -0.001414 0.000000 0.000000 0.000000
# 3 -0.001414 -0.001414 0.009008 0.000000 0.000000 0.000000
# 4 0.000000 0.000000 0.000000 0.043695 0.000000 0.000000
# 5 0.000000 0.000000 0.000000 0.000000 0.043695 0.000000
# 6 0.000000 0.000000 0.000000 0.000000 0.000000 0.026612
#
#
# Mechanical properties :
#
#
# Convention : Reuss Voigt Hill
#
# Bulk Modulus (GPa) = 48.61305 48.76498 48.68902
# Shear Modulus (GPa) = 25.77085 29.41099 27.59092
#
# Velocity S-wave (km/s) = 3.41538 3.64863 3.53393
# Velocity P-wave (km/s) = 6.12839 6.31053 6.22013
#
# Compressibility (1/GPa) = 0.02057061
#
# Stress axis : x y z
#
# Youngs Moduli (GPa) = 52.82888 52.82960 111.01809
#
# Poissons Ratio (x) = 0.54513 0.15702
# Poissons Ratio (y) = 0.54512 0.15702
# Poissons Ratio (z) = 0.07472 0.07472
#
# Static dielectric constant tensor:
#      x y z
#    x 4.310460 0.000000 0.000000 
#    y 0.000000 4.310470 0.000000 
#    z 0.000000 0.000000 3.797420 
# 
# 
# High freq. dielectric constant tensor:
#      x y z
#    x 1.859990 0.000000 0.000000 
#    y 0.000000 1.859990 0.000000 
#    z 0.000000 0.000000 1.881660 
# 
# From -- ./inp_files/2539.got.cif
#   From: 2010.03.12/outbox.cif.g09.slc.cpg/sg138_2_cif.got.tgz:2539.got - 2010.04.08 09:41:05.
