data_PCOD8319725
_publ_section_title
;
Structure prediction by ZEFSAII (Michael W. Deem and Ramdas Pophale) SiO2 
 PCOD8319725
Probable space group: I 4/M M M
;
_chemical_formula_sum "Si O2"
_cell_formula_units_Z 192
_cell_length_a 20.080752
_cell_length_b 20.080752
_cell_length_c 27.187103
_cell_angle_alpha 90.000000
_cell_angle_beta 90.000000
_cell_angle_gamma 90.000000
_cell_volume 10962.835002
_symmetry_space_group_name_H-M "I 4/M M M"
_symmetry_group_IT_number 139
_symmetry_cell_setting 'tetragonal'
loop_
_space_group_symop_operation_xyz
x,y,z
-y,x,z
-x,-y,z
y,-x,z
x,-y,-z
-x,y,-z
y,x,-z
-y,-x,-z
-x,-y,-z
y,-x,-z
x,y,-z
-y,x,-z
-x,y,z
x,-y,z
-y,-x,z
y,x,z
1/2+x,1/2+y,1/2+z
1/2-y,1/2+x,1/2+z
1/2-x,1/2-y,1/2+z
1/2+y,1/2-x,1/2+z
1/2+x,1/2-y,1/2-z
1/2-x,1/2+y,1/2-z
1/2+y,1/2+x,1/2-z
1/2-y,1/2-x,1/2-z
1/2-x,1/2-y,1/2-z
1/2+y,1/2-x,1/2-z
1/2+x,1/2+y,1/2-z
1/2-y,1/2+x,1/2-z
1/2-x,1/2+y,1/2+z
1/2+x,1/2-y,1/2+z
1/2-y,1/2-x,1/2+z
1/2+y,1/2+x,1/2+z
loop_
_atom_site_type_symbol
_atom_site_label
_atom_site_fract_x
_atom_site_fract_y
_atom_site_fract_z
Si Si1 0.922649 0.186718 0.184921
Si Si2 0.424660 0.685895 0.500000
Si Si3 0.075236 0.180965 0.291253
Si Si4 0.885547 0.325279 0.442684
Si Si5 0.076952 0.811208 0.601401
Si Si6 0.746844 0.636416 0.407058
Si Si7 0.424471 0.000000 0.558205
O O1 0.880998 0.119003 0.176134
O O2 0.906874 0.218436 0.239577
O O3 0.902206 0.241087 0.144526
O O4 0.000000 0.168588 0.178736
O O5 0.500000 0.660417 0.500000
O O6 0.379177 0.620824 0.500000
O O7 0.412920 0.730947 0.451985
O O8 0.110899 0.110899 0.292445
O O9 0.090598 0.218220 0.342953
O O10 0.000000 0.159593 0.288967
O O11 0.869130 0.333615 0.500000
O O12 0.912717 0.250576 0.435039
O O13 0.820606 0.335458 0.410236
O O14 0.936255 0.382292 0.424301
O O15 0.127541 0.872460 0.589004
O O16 0.000000 0.836113 0.596240
O O17 0.699426 0.699426 0.409479
O O18 0.500000 0.000000 0.580431
O O19 0.429123 0.000000 0.500000
#
# Coordination Sequence:
#
# PCOD8319725 Si02
#       7
#    32  16  32  32  32  32  16
#     4   9  17  30  48  72 105 139 177 220 261 311
#     4  10  20  33  48  71 103 137 174 214 256 308
#     4   8  15  28  46  71 103 138 175 216 259 306
#     4  11  21  37  56  77 103 133 174 216 270 327
#     4  10  20  34  55  81 111 145 179 217 263 318
#     4  10  20  33  49  72 100 133 173 215 255 303
#     4   9  20  36  54  78 103 125 159 215 270 317
#
# _framework density 17.513718999999998
#
# number of rings (size 3 to 8) (size 9 to 14) (size 15 to 20)
#    0.000    2.417    1.667    1.000    0.000    2.917 
#    0.000    4.167    0.000    7.000    0.000    1.167 
#    0.000    0.000    0.000    0.000    0.000    0.000 
#
# Total GULP energy -1189399.388696 kJ/mol
# GULP energy per Si atom -12389.576966 kJ/mol
# Density = 1.747386 g / cm^3
# Si number density = 17.513719 Si / 1000 Ang^3
#
#
#
# Elastic Constant Matrix: (Units=GPa)
#
#
# Indices 1 2 3 4 5 6 
#
# 1 88.4627 26.6607 18.9538 0.0000 0.0000 0.0000
# 2 26.6607 88.4623 18.9538 0.0000 0.0000 0.0000
# 3 18.9538 18.9538 55.1208 0.0000 0.0000 0.0000
# 4 0.0000 0.0000 0.0000 20.9647 0.0000 0.0000
# 5 0.0000 0.0000 0.0000 0.0000 20.9645 0.0000
# 6 0.0000 0.0000 0.0000 0.0000 0.0000 15.9679
#
#
#
# Elastic Compliance Matrix: (Units=1/GPa)
#
#
# Indices 1 2 3 4 5 6 
#
# 1 0.012988 -0.003193 -0.003368 0.000000 0.000000 0.000000
# 2 -0.003193 0.012988 -0.003368 0.000000 0.000000 0.000000
# 3 -0.003368 -0.003368 0.020458 0.000000 0.000000 0.000000
# 4 0.000000 0.000000 0.000000 0.047699 0.000000 0.000000
# 5 0.000000 0.000000 0.000000 0.000000 0.047700 0.000000
# 6 0.000000 0.000000 0.000000 0.000000 0.000000 0.062625
#
#
# Mechanical properties :
#
#
# Convention : Reuss Voigt Hill
#
# Bulk Modulus (GPa) = 37.62759 40.13139 38.87949
# Shear Modulus (GPa) = 21.44301 22.74458 22.09380
#
# Velocity S-wave (km/s) = 3.50287 3.60762 3.55563
# Velocity P-wave (km/s) = 6.15560 6.34958 6.25335
#
# Compressibility (1/GPa) = 0.02657625
#
# Stress axis : x y z
#
# Youngs Moduli (GPa) = 76.99380 76.99342 48.87969
#
# Poissons Ratio (x) = 0.24581 0.16464
# Poissons Ratio (y) = 0.24581 0.16464
# Poissons Ratio (z) = 0.25933 0.25933
#
# Static dielectric constant tensor:
#      x y z
#    x 3.141980 0.000000 0.000000 
#    y 0.000000 3.141980 0.000000 
#    z 0.000000 0.000000 3.663350 
# 
# 
# High freq. dielectric constant tensor:
#      x y z
#    x 1.663250 0.000000 0.000000 
#    y 0.000000 1.663250 0.000000 
#    z 0.000000 0.000000 1.681920 
# 
# From -- ./inp_files/14370.got.cif
#   From: 2010.03.12/outbox.cif.g09.slc.cpg/sg139_8_cif.got.tgz:14370.got - 2010.04.08 09:46:31.
