data_PCOD8319595
_publ_section_title
;
Structure prediction by ZEFSAII (Michael W. Deem and Ramdas Pophale) SiO2 
 PCOD8319595
Probable space group: I 4/M M M
;
_chemical_formula_sum "Si O2"
_cell_formula_units_Z 160
_cell_length_a 31.947198
_cell_length_b 31.947198
_cell_length_c 7.881570
_cell_angle_alpha 90.000000
_cell_angle_beta 90.000000
_cell_angle_gamma 90.000000
_cell_volume 8044.115244
_symmetry_space_group_name_H-M "I 4/M M M"
_symmetry_group_IT_number 139
_symmetry_cell_setting 'tetragonal'
loop_
_space_group_symop_operation_xyz
x,y,z
-y,x,z
-x,-y,z
y,-x,z
x,-y,-z
-x,y,-z
y,x,-z
-y,-x,-z
-x,-y,-z
y,-x,-z
x,y,-z
-y,x,-z
-x,y,z
x,-y,z
-y,-x,z
y,x,z
1/2+x,1/2+y,1/2+z
1/2-y,1/2+x,1/2+z
1/2-x,1/2-y,1/2+z
1/2+y,1/2-x,1/2+z
1/2+x,1/2-y,1/2-z
1/2-x,1/2+y,1/2-z
1/2+y,1/2+x,1/2-z
1/2-y,1/2-x,1/2-z
1/2-x,1/2-y,1/2-z
1/2+y,1/2-x,1/2-z
1/2+x,1/2+y,1/2-z
1/2-y,1/2+x,1/2-z
1/2-x,1/2+y,1/2+z
1/2+x,1/2-y,1/2+z
1/2-y,1/2-x,1/2+z
1/2+y,1/2+x,1/2+z
loop_
_atom_site_type_symbol
_atom_site_label
_atom_site_fract_x
_atom_site_fract_y
_atom_site_fract_z
Si Si1 0.046569 0.046569 0.197770
Si Si2 0.549295 0.742686 0.500000
Si Si3 0.450781 0.889117 0.810065
Si Si4 0.210019 0.099962 0.305411
Si Si5 0.748138 0.183817 0.198446
Si Si6 0.614744 0.385257 0.803744
Si Si7 0.664622 0.049826 0.000000
O O1 0.081771 0.081771 0.227877
O O2 0.000000 0.059250 0.270450
O O3 0.042019 0.042019 0.000000
O O4 0.500000 0.740821 0.500000
O O5 0.564024 0.722930 0.324184
O O6 0.567666 0.789195 0.500000
O O7 0.500000 0.892067 0.804490
O O8 0.434107 0.934107 0.750000
O O9 0.432959 0.856095 0.673299
O O10 0.435520 0.876927 0.000000
O O11 0.212982 0.083990 0.500000
O O12 0.239762 0.140750 0.291224
O O13 0.162367 0.107389 0.248609
O O14 0.782414 0.217587 0.256722
O O15 0.702242 0.202242 0.250000
O O16 0.749491 0.174895 0.000000
O O17 0.609092 0.390909 0.000000
O O18 0.662897 0.000000 0.000000
#
# Coordination Sequence:
#
# PCOD8319595 Si02
#       7
#    16  16  32  32  32  16  16
#     4   9  20  38  60  89 125 167 214 265 322 379
#     4  11  26  45  65  86 116 163 213 265 318 366
#     4  10  19  32  56  86 116 152 192 239 298 364
#     4  11  23  41  65  95 129 163 208 259 314 381
#     4  10  19  33  60  93 127 167 204 244 306 384
#     4  10  23  39  62  93 128 167 205 253 312 379
#     4   9  20  40  58  77 108 150 200 244 292 354
#
# _framework density 19.890317
#
# number of rings (size 3 to 8) (size 9 to 14) (size 15 to 20)
#    0.000    1.900    3.000    0.900    1.400    3.400 
#    0.000    6.500    0.000    0.000    0.000    0.000 
#    0.000    0.000    0.000    0.000    0.000    0.000 
#
# Total GULP energy -991366.952575 kJ/mol
# GULP energy per Si atom -12392.086907 kJ/mol
# Density = 1.984505 g / cm^3
# Si number density = 19.890317 Si / 1000 Ang^3
#
#
#
# Elastic Constant Matrix: (Units=GPa)
#
#
# Indices 1 2 3 4 5 6 
#
# 1 99.0306 53.0196 50.5085 0.0000 0.0000 0.0000
# 2 53.0196 99.0315 50.5075 0.0000 0.0000 0.0000
# 3 50.5085 50.5075 146.2912 0.0000 0.0000 0.0000
# 4 0.0000 0.0000 0.0000 15.9135 0.0000 0.0000
# 5 0.0000 0.0000 0.0000 0.0000 15.9142 0.0000
# 6 0.0000 0.0000 0.0000 0.0000 0.0000 34.1628
#
#
#
# Elastic Compliance Matrix: (Units=1/GPa)
#
#
# Indices 1 2 3 4 5 6 
#
# 1 0.015134 -0.006600 -0.002947 0.000000 0.000000 0.000000
# 2 -0.006600 0.015134 -0.002946 0.000000 0.000000 0.000000
# 3 -0.002947 -0.002946 0.008870 0.000000 0.000000 0.000000
# 4 0.000000 0.000000 0.000000 0.062840 0.000000 0.000000
# 5 0.000000 0.000000 0.000000 0.000000 0.062837 0.000000
# 6 0.000000 0.000000 0.000000 0.000000 0.000000 0.029272
#
#
# Mechanical properties :
#
#
# Convention : Reuss Voigt Hill
#
# Bulk Modulus (GPa) = 70.65739 72.49162 71.57451
# Shear Modulus (GPa) = 22.34241 25.88595 24.11418
#
# Velocity S-wave (km/s) = 3.35517 3.61145 3.48567
# Velocity P-wave (km/s) = 7.11409 7.34268 7.22929
#
# Compressibility (1/GPa) = 0.01415280
#
# Stress axis : x y z
#
# Youngs Moduli (GPa) = 66.07573 66.07703 112.73587
#
# Poissons Ratio (x) = 0.43609 0.33219
# Poissons Ratio (y) = 0.43608 0.33216
# Poissons Ratio (z) = 0.19470 0.19469
#
# Static dielectric constant tensor:
#      x y z
#    x 3.730250 0.000000 0.000000 
#    y 0.000000 3.730160 0.000000 
#    z 0.000000 0.000000 3.970300 
# 
# 
# High freq. dielectric constant tensor:
#      x y z
#    x 1.765590 0.000000 0.000000 
#    y 0.000000 1.765590 0.000000 
#    z 0.000000 0.000000 1.790830 
# 
# From -- ./inp_files/2320.got.cif
#   From: 2010.03.12/outbox.cif.g09.slc.cpg/sg139_2_cif.got.tgz:2320.got - 2010.04.08 09:46:31.
