data_PCOD8319333
_publ_section_title
;
Structure prediction by ZEFSAII (Michael W. Deem and Ramdas Pophale) SiO2 
 PCOD8319333
Probable space group: I 4/M M M
;
_chemical_formula_sum "Si O2"
_cell_formula_units_Z 144
_cell_length_a 17.056931
_cell_length_b 17.056931
_cell_length_c 31.906155
_cell_angle_alpha 90.000000
_cell_angle_beta 90.000000
_cell_angle_gamma 90.000000
_cell_volume 9282.741484
_symmetry_space_group_name_H-M "I 4/M M M"
_symmetry_group_IT_number 139
_symmetry_cell_setting 'tetragonal'
loop_
_space_group_symop_operation_xyz
x,y,z
-y,x,z
-x,-y,z
y,-x,z
x,-y,-z
-x,y,-z
y,x,-z
-y,-x,-z
-x,-y,-z
y,-x,-z
x,y,-z
-y,x,-z
-x,y,z
x,-y,z
-y,-x,z
y,x,z
1/2+x,1/2+y,1/2+z
1/2-y,1/2+x,1/2+z
1/2-x,1/2-y,1/2+z
1/2+y,1/2-x,1/2+z
1/2+x,1/2-y,1/2-z
1/2-x,1/2+y,1/2-z
1/2+y,1/2+x,1/2-z
1/2-y,1/2-x,1/2-z
1/2-x,1/2-y,1/2-z
1/2+y,1/2-x,1/2-z
1/2+x,1/2+y,1/2-z
1/2-y,1/2+x,1/2-z
1/2-x,1/2+y,1/2+z
1/2+x,1/2-y,1/2+z
1/2-y,1/2-x,1/2+z
1/2+y,1/2+x,1/2+z
loop_
_atom_site_type_symbol
_atom_site_label
_atom_site_fract_x
_atom_site_fract_y
_atom_site_fract_z
Si Si1 0.286427 0.411799 0.453262
Si Si2 0.686659 0.186172 0.317137
Si Si3 0.908958 0.641052 0.104422
Si Si4 0.407068 0.000000 0.546930
Si Si5 0.720522 0.406790 0.749646
O O1 0.253509 0.393403 0.500000
O O2 0.316669 0.500000 0.450815
O O3 0.360209 0.360209 0.441385
O O4 0.221851 0.395341 0.418932
O O5 0.752093 0.247908 0.333135
O O6 0.644948 0.140257 0.354693
O O7 0.619909 0.232931 0.291746
O O8 0.728129 0.119569 0.289399
O O9 0.878184 0.575083 0.072691
O O10 0.000000 0.627519 0.116684
O O11 0.500000 0.000000 0.542690
O O12 0.370293 0.000000 0.500000
O O13 0.707952 0.500000 0.749554
O O14 0.635735 0.364266 0.750960
#
# Coordination Sequence:
#
# PCOD8319333 Si02
#       5
#    32  32  32  16  32
#     4   9  17  28  42  61  85 114 147 183 223 265
#     4   9  18  31  47  67  91 121 151 182 228 274
#     4  10  18  28  45  64  85 116 151 188 223 274
#     4   9  18  30  42  62  90 118 149 191 235 273
#     4   9  18  32  49  68  93 122 151 189 230 273
#
# _framework density 15.512658999999999
#
# number of rings (size 3 to 8) (size 9 to 14) (size 15 to 20)
#    0.000    2.778    0.000    3.333    1.556    3.111 
#    0.000    1.111    0.000    1.333    0.000    3.111 
#    0.000    0.000    0.000    0.000    0.000    9.778 
#
# Total GULP energy -892564.358529 kJ/mol
# GULP energy per Si atom -12396.727202 kJ/mol
# Density = 1.547735 g / cm^3
# Si number density = 15.512659 Si / 1000 Ang^3
#
#
#
# Elastic Constant Matrix: (Units=GPa)
#
#
# Indices 1 2 3 4 5 6 
#
# 1 86.5666 41.5944 44.1690 0.0000 0.0000 0.0000
# 2 41.5944 86.5666 44.1690 0.0000 0.0000 0.0000
# 3 44.1690 44.1690 100.9110 0.0000 0.0000 0.0000
# 4 0.0000 0.0000 0.0000 25.5871 0.0000 0.0000
# 5 0.0000 0.0000 0.0000 0.0000 25.5871 0.0000
# 6 0.0000 0.0000 0.0000 0.0000 0.0000 10.7274
#
#
#
# Elastic Compliance Matrix: (Units=1/GPa)
#
#
# Indices 1 2 3 4 5 6 
#
# 1 0.016705 -0.005531 -0.004891 0.000000 0.000000 0.000000
# 2 -0.005531 0.016705 -0.004891 0.000000 0.000000 0.000000
# 3 -0.004891 -0.004891 0.014191 0.000000 0.000000 0.000000
# 4 0.000000 0.000000 0.000000 0.039082 0.000000 0.000000
# 5 0.000000 0.000000 0.000000 0.000000 0.039082 0.000000
# 6 0.000000 0.000000 0.000000 0.000000 0.000000 0.093220
#
#
# Mechanical properties :
#
#
# Convention : Reuss Voigt Hill
#
# Bulk Modulus (GPa) = 58.90830 59.32323 59.11576
# Shear Modulus (GPa) = 19.58722 21.98779 20.78750
#
# Velocity S-wave (km/s) = 3.55725 3.76893 3.66462
# Velocity P-wave (km/s) = 7.41140 7.56734 7.48977
#
# Compressibility (1/GPa) = 0.01697554
#
# Stress axis : x y z
#
# Youngs Moduli (GPa) = 59.86285 59.86285 70.46650
#
# Poissons Ratio (x) = 0.33111 0.34464
# Poissons Ratio (y) = 0.33111 0.34464
# Poissons Ratio (z) = 0.29278 0.29278
#
# Static dielectric constant tensor:
#      x y z
#    x 2.849140 0.000000 0.000000 
#    y 0.000000 2.849140 0.000000 
#    z 0.000000 0.000000 2.983070 
# 
# 
# High freq. dielectric constant tensor:
#      x y z
#    x 1.583230 0.000000 0.000000 
#    y 0.000000 1.583230 0.000000 
#    z 0.000000 0.000000 1.601080 
# 
# From -- ./inp_files/12801.got.cif
#   From: 2010.03.12/outbox.cif.g09.slc.cpg/sg139_7_cif.got.tgz:12801.got - 2010.04.08 09:46:31.
