data_PCOD8319155
_publ_section_title
;
Structure prediction by ZEFSAII (Michael W. Deem and Ramdas Pophale) SiO2 
 PCOD8319155
Probable space group: P 42/N C M
;
_chemical_formula_sum "Si O2"
_cell_formula_units_Z 64
_cell_length_a 13.014411
_cell_length_b 13.014411
_cell_length_c 19.899746
_cell_angle_alpha 90.000000
_cell_angle_beta 90.000000
_cell_angle_gamma 90.000000
_cell_volume 3370.517363
_symmetry_space_group_name_H-M "P 42/N C M"
_symmetry_group_IT_number 138
_space_group.IT_coordinate_system_code '2'
_symmetry_cell_setting 'tetragonal'
loop_
_space_group_symop_operation_xyz
x,y,z
1/2-y,x,1/2+z
1/2-x,1/2-y,z
y,1/2-x,1/2+z
1/2+x,-y,1/2-z
-x,1/2+y,1/2-z
1/2+y,1/2+x,-z
-y,-x,-z
-x,-y,-z
1/2+y,-x,1/2-z
1/2+x,1/2+y,-z
-y,1/2+x,1/2-z
1/2-x,y,1/2+z
x,1/2-y,1/2+z
1/2-y,1/2-x,z
y,x,z
loop_
_atom_site_type_symbol
_atom_site_label
_atom_site_fract_x
_atom_site_fract_y
_atom_site_fract_z
Si Si1 0.746286 0.087146 0.983775
Si Si2 0.021483 0.851466 0.713943
Si Si3 0.748518 0.917753 0.593952
Si Si4 0.234270 0.624544 0.164574
O O1 0.759945 0.067656 0.904771
O O2 0.634303 0.134303 0.000000
O O3 0.833136 0.166865 0.000000
O O4 0.762512 0.986049 0.027546
O O5 0.068324 0.804028 0.781191
O O6 0.116140 0.905344 0.676771
O O7 0.980339 0.763764 0.663131
O O8 0.933544 0.933544 0.732000
O O9 0.643710 0.856291 0.603561
O O10 0.844924 0.844924 0.581128
O O11 0.250000 0.750000 0.164272
#
# Coordination Sequence:
#
# PCOD8319155 Si02
#       4
#    16  16  16  16
#     4  11  21  37  63  93 119 158 202 253 303 360
#     4  11  23  38  62  90 119 164 206 247 310 369
#     4  10  23  43  63  88 126 166 203 249 306 367
#     4  12  21  40  63  88 125 157 203 261 301 359
#
# _framework density 18.988181999999998
#
# number of rings (size 3 to 8) (size 9 to 14) (size 15 to 20)
#    0.000    1.000    7.500    0.000    0.000    4.000 
#    0.000    0.000    0.000    3.000    0.000    0.000 
#    0.000    0.000    0.000    0.000    0.000    0.000 
#
# Total GULP energy -793329.806457 kJ/mol
# GULP energy per Si atom -12395.778226 kJ/mol
# Density = 1.894496 g / cm^3
# Si number density = 18.988182 Si / 1000 Ang^3
#
#
#
# Elastic Constant Matrix: (Units=GPa)
#
#
# Indices 1 2 3 4 5 6 
#
# 1 87.4099 24.4590 51.9654 0.0000 0.0000 0.0000
# 2 24.4590 87.4040 51.9606 0.0000 0.0000 0.0000
# 3 51.9654 51.9606 175.9317 0.0000 0.0000 0.0000
# 4 0.0000 0.0000 0.0000 33.7478 0.0000 0.0000
# 5 0.0000 0.0000 0.0000 0.0000 33.7465 0.0000
# 6 0.0000 0.0000 0.0000 0.0000 0.0000 25.4851
#
#
#
# Elastic Compliance Matrix: (Units=1/GPa)
#
#
# Indices 1 2 3 4 5 6 
#
# 1 0.014103 -0.001783 -0.003639 0.000000 0.000000 0.000000
# 2 -0.001783 0.014103 -0.003639 0.000000 0.000000 0.000000
# 3 -0.003639 -0.003639 0.007833 0.000000 0.000000 0.000000
# 4 0.000000 0.000000 0.000000 0.029632 0.000000 0.000000
# 5 0.000000 0.000000 0.000000 0.000000 0.029633 0.000000
# 6 0.000000 0.000000 0.000000 0.000000 0.000000 0.039239
#
#
# Mechanical properties :
#
#
# Convention : Reuss Voigt Hill
#
# Bulk Modulus (GPa) = 55.80977 67.50173 61.65575
# Shear Modulus (GPa) = 31.51863 33.41991 32.46927
#
# Velocity S-wave (km/s) = 4.07862 4.19983 4.13967
# Velocity P-wave (km/s) = 7.18581 7.69055 7.44246
#
# Compressibility (1/GPa) = 0.01791801
#
# Stress axis : x y z
#
# Youngs Moduli (GPa) = 70.90867 70.90564 127.65688
#
# Poissons Ratio (x) = 0.12644 0.46453
# Poissons Ratio (y) = 0.12644 0.46450
# Poissons Ratio (z) = 0.25803 0.25800
#
# Static dielectric constant tensor:
#      x y z
#    x 3.575900 0.000000 0.000000 
#    y 0.000000 3.575900 0.000000 
#    z 0.000000 0.000000 3.676430 
# 
# 
# High freq. dielectric constant tensor:
#      x y z
#    x 1.730470 0.000000 0.000000 
#    y 0.000000 1.730470 0.000000 
#    z 0.000000 0.000000 1.757690 
# 
# From -- ./inp_files/5841.got.cif
#   From: 2010.03.12/outbox.cif.g09.slc.cpg/sg138_3_cif.got.tgz:5841.got - 2010.04.08 09:41:05.
