data_PCOD8319780
_publ_section_title
;
Structure prediction by ZEFSAII (Michael W. Deem and Ramdas Pophale) SiO2 
 PCOD8319780
Probable space group: I 4/M M M
;
_chemical_formula_sum "Si O2"
_cell_formula_units_Z 128
_cell_length_a 22.927847
_cell_length_b 22.927847
_cell_length_c 13.821811
_cell_angle_alpha 90.000000
_cell_angle_beta 90.000000
_cell_angle_gamma 90.000000
_cell_volume 7265.934860
_symmetry_space_group_name_H-M "I 4/M M M"
_symmetry_group_IT_number 139
_symmetry_cell_setting 'tetragonal'
loop_
_space_group_symop_operation_xyz
x,y,z
-y,x,z
-x,-y,z
y,-x,z
x,-y,-z
-x,y,-z
y,x,-z
-y,-x,-z
-x,-y,-z
y,-x,-z
x,y,-z
-y,x,-z
-x,y,z
x,-y,z
-y,-x,z
y,x,z
1/2+x,1/2+y,1/2+z
1/2-y,1/2+x,1/2+z
1/2-x,1/2-y,1/2+z
1/2+y,1/2-x,1/2+z
1/2+x,1/2-y,1/2-z
1/2-x,1/2+y,1/2-z
1/2+y,1/2+x,1/2-z
1/2-y,1/2-x,1/2-z
1/2-x,1/2-y,1/2-z
1/2+y,1/2-x,1/2-z
1/2+x,1/2+y,1/2-z
1/2-y,1/2+x,1/2-z
1/2-x,1/2+y,1/2+z
1/2+x,1/2-y,1/2+z
1/2-y,1/2-x,1/2+z
1/2+y,1/2+x,1/2+z
loop_
_atom_site_type_symbol
_atom_site_label
_atom_site_fract_x
_atom_site_fract_y
_atom_site_fract_z
Si Si1 0.565302 0.123405 0.614323
Si Si2 0.432902 0.817336 0.892654
Si Si3 0.564983 0.435018 0.614640
Si Si4 0.840754 0.159247 0.883547
Si Si5 0.778198 0.369987 0.721368
O O1 0.561944 0.127641 0.500000
O O2 0.500000 0.107184 0.653681
O O3 0.615690 0.076980 0.645892
O O4 0.585860 0.185285 0.654887
O O5 0.500000 0.803042 0.894645
O O6 0.402362 0.769381 0.824341
O O7 0.405665 0.811200 0.000000
O O8 0.581816 0.500000 0.652177
O O9 0.564745 0.435256 0.500000
O O10 0.611852 0.388149 0.651076
O O11 0.859034 0.219868 0.836874
O O12 0.835565 0.164436 0.000000
O O13 0.809488 0.309488 0.750000
#
# Coordination Sequence:
#
# PCOD8319780 Si02
#       5
#    32  32  16  16  32
#     4   9  17  29  47  72 102 135 170 211 256 295
#     4   9  18  32  49  70 100 139 178 212 245 284
#     4   8  16  32  51  73 102 126 141 170 226 293
#     4  11  22  35  55  79  97 122 162 201 245 312
#     4  10  20  34  48  68  98 131 165 209 256 295
#
# _framework density 17.616454000000001
#
# number of rings (size 3 to 8) (size 9 to 14) (size 15 to 20)
#    0.000    2.625    0.000    2.250    0.000    3.500 
#    0.000    5.625    0.000    4.500    0.000    0.000 
#    0.000    0.000    0.000    5.500    0.000    0.250 
#
# Total GULP energy -792928.977553 kJ/mol
# GULP energy per Si atom -12389.515274 kJ/mol
# Density = 1.757636 g / cm^3
# Si number density = 17.616454 Si / 1000 Ang^3
#
#
#
# Elastic Constant Matrix: (Units=GPa)
#
#
# Indices 1 2 3 4 5 6 
#
# 1 75.7958 53.2552 46.8838 0.0000 0.0000 0.0000
# 2 53.2552 75.7930 46.8825 0.0000 0.0000 0.0000
# 3 46.8838 46.8825 48.8020 0.0000 0.0000 0.0000
# 4 0.0000 0.0000 0.0000 27.0241 0.0000 0.0000
# 5 0.0000 0.0000 0.0000 0.0000 27.0241 0.0000
# 6 0.0000 0.0000 0.0000 0.0000 0.0000 20.0312
#
#
#
# Elastic Compliance Matrix: (Units=1/GPa)
#
#
# Indices 1 2 3 4 5 6 
#
# 1 0.035014 -0.009353 -0.024652 0.000000 0.000000 0.000000
# 2 -0.009353 0.035014 -0.024651 0.000000 0.000000 0.000000
# 3 -0.024652 -0.024651 0.067856 0.000000 0.000000 0.000000
# 4 0.000000 0.000000 0.000000 0.037004 0.000000 0.000000
# 5 0.000000 0.000000 0.000000 0.000000 0.037004 0.000000
# 6 0.000000 0.000000 0.000000 0.000000 0.000000 0.049922
#
#
# Mechanical properties :
#
#
# Convention : Reuss Voigt Hill
#
# Bulk Modulus (GPa) = 48.61373 54.93708 51.77540
# Shear Modulus (GPa) = 12.95390 18.37384 15.66387
#
# Velocity S-wave (km/s) = 2.71464 3.23304 2.98512
# Velocity P-wave (km/s) = 6.12219 6.72232 6.42926
#
# Compressibility (1/GPa) = 0.02057032
#
# Stress axis : x y z
#
# Youngs Moduli (GPa) = 28.56028 28.55984 14.73710
#
# Poissons Ratio (x) = 0.26713 0.36330
# Poissons Ratio (y) = 0.26713 0.36329
# Poissons Ratio (z) = 0.70407 0.70404
#
# Static dielectric constant tensor:
#      x y z
#    x 3.260540 0.000000 0.000000 
#    y 0.000000 3.260550 0.000000 
#    z 0.000000 0.000000 3.515730 
# 
# 
# High freq. dielectric constant tensor:
#      x y z
#    x 1.664710 0.000000 0.000000 
#    y 0.000000 1.664710 0.000000 
#    z 0.000000 0.000000 1.685960 
# 
# From -- ./inp_files/5483.got.cif
#   From: 2010.03.12/outbox.cif.g09.slc.cpg/sg139_3_cif.got.tgz:5483.got - 2010.04.08 09:46:31.
