data_PCOD8319420
_publ_section_title
;
Structure prediction by ZEFSAII (Michael W. Deem and Ramdas Pophale) SiO2 
 PCOD8319420
Probable space group: I 4/M M M
;
_chemical_formula_sum "Si O2"
_cell_formula_units_Z 120
_cell_length_a 19.856783
_cell_length_b 19.856783
_cell_length_c 15.043507
_cell_angle_alpha 90.000000
_cell_angle_beta 90.000000
_cell_angle_gamma 90.000000
_cell_volume 5931.531921
_symmetry_space_group_name_H-M "I 4/M M M"
_symmetry_group_IT_number 139
_symmetry_cell_setting 'tetragonal'
loop_
_space_group_symop_operation_xyz
x,y,z
-y,x,z
-x,-y,z
y,-x,z
x,-y,-z
-x,y,-z
y,x,-z
-y,-x,-z
-x,-y,-z
y,-x,-z
x,y,-z
-y,x,-z
-x,y,z
x,-y,z
-y,-x,z
y,x,z
1/2+x,1/2+y,1/2+z
1/2-y,1/2+x,1/2+z
1/2-x,1/2-y,1/2+z
1/2+y,1/2-x,1/2+z
1/2+x,1/2-y,1/2-z
1/2-x,1/2+y,1/2-z
1/2+y,1/2+x,1/2-z
1/2-y,1/2-x,1/2-z
1/2-x,1/2-y,1/2-z
1/2+y,1/2-x,1/2-z
1/2+x,1/2+y,1/2-z
1/2-y,1/2+x,1/2-z
1/2-x,1/2+y,1/2+z
1/2+x,1/2-y,1/2+z
1/2-y,1/2-x,1/2+z
1/2+y,1/2+x,1/2+z
loop_
_atom_site_type_symbol
_atom_site_label
_atom_site_fract_x
_atom_site_fract_y
_atom_site_fract_z
Si Si1 0.500000 0.798929 0.605506
Si Si2 0.372305 0.627696 0.814589
Si Si3 0.858301 0.644476 0.103856
Si Si4 0.577776 0.422225 0.000000
Si Si5 0.227277 0.772724 0.394951
Si Si6 0.500000 0.694567 0.246571
Si Si7 0.806442 0.500000 0.105942
O O1 0.500000 0.784816 0.500000
O O2 0.566986 0.838061 0.638085
O O3 0.500000 0.730022 0.658408
O O4 0.390231 0.609770 0.914300
O O5 0.315850 0.684151 0.825938
O O6 0.433775 0.650547 0.754801
O O7 0.804416 0.704192 0.128631
O O8 0.842196 0.569096 0.139737
O O9 0.860339 0.637762 0.000000
O O10 0.594159 0.500000 0.000000
O O11 0.213337 0.786664 0.500000
O O12 0.500000 0.736006 0.155042
O O13 0.794467 0.500000 0.000000
#
# Coordination Sequence:
#
# PCOD8319420 Si02
#       7
#    16  16  32   8  16  16  16
#     4  10  24  47  63  80 117 165 224 284 318 343
#     4  12  23  37  59  97 132 168 201 239 299 387
#     4   9  19  36  62  90 122 166 211 256 310 373
#     4  11  22  34  58  92 138 174 186 222 300 385
#     4  10  18  32  61  95 126 161 201 245 306 383
#     4  12  26  39  61  94 128 168 211 250 311 372
#     4  10  20  35  59  97 133 161 195 244 314 390
#
# _framework density 20.230861000000001
#
# number of rings (size 3 to 8) (size 9 to 14) (size 15 to 20)
#    0.000    1.667    4.667    0.000    1.867    2.933 
#    0.000    6.000    0.000    1.600    0.000    0.933 
#    0.000    0.000    0.000    0.000    0.000    0.000 
#
# Total GULP energy -743338.604187 kJ/mol
# GULP energy per Si atom -12388.976736 kJ/mol
# Density = 2.018482 g / cm^3
# Si number density = 20.230861 Si / 1000 Ang^3
#
#
#
# Elastic Constant Matrix: (Units=GPa)
#
#
# Indices 1 2 3 4 5 6 
#
# 1 164.6888 85.8645 23.6321 0.0000 0.0000 0.0000
# 2 85.8645 164.6889 23.6321 0.0000 0.0000 0.0000
# 3 23.6321 23.6321 54.0012 0.0000 0.0000 0.0000
# 4 0.0000 0.0000 0.0000 37.7520 0.0000 0.0000
# 5 0.0000 0.0000 0.0000 0.0000 37.7512 0.0000
# 6 0.0000 0.0000 0.0000 0.0000 0.0000 25.2162
#
#
#
# Elastic Compliance Matrix: (Units=1/GPa)
#
#
# Indices 1 2 3 4 5 6 
#
# 1 0.008518 -0.004168 -0.001904 0.000000 0.000000 0.000000
# 2 -0.004168 0.008518 -0.001904 0.000000 0.000000 0.000000
# 3 -0.001904 -0.001904 0.020184 0.000000 0.000000 0.000000
# 4 0.000000 0.000000 0.000000 0.026489 0.000000 0.000000
# 5 0.000000 0.000000 0.000000 0.000000 0.026489 0.000000
# 6 0.000000 0.000000 0.000000 0.000000 0.000000 0.039657
#
#
# Mechanical properties :
#
#
# Convention : Reuss Voigt Hill
#
# Bulk Modulus (GPa) = 47.01493 72.18179 59.59836
# Shear Modulus (GPa) = 32.70169 36.82723 34.76446
#
# Velocity S-wave (km/s) = 4.02484 4.27118 4.14984
# Velocity P-wave (km/s) = 6.69991 7.75116 7.24463
#
# Compressibility (1/GPa) = 0.02126984
#
# Stress axis : x y z
#
# Youngs Moduli (GPa) = 117.39340 117.39351 49.54327
#
# Poissons Ratio (x) = 0.48930 0.09432
# Poissons Ratio (y) = 0.48930 0.09432
# Poissons Ratio (z) = 0.22349 0.22349
#
# Static dielectric constant tensor:
#      x y z
#    x 3.854640 0.000000 0.000000 
#    y 0.000000 3.854640 0.000000 
#    z 0.000000 0.000000 3.302580 
# 
# 
# High freq. dielectric constant tensor:
#      x y z
#    x 1.795180 0.000000 0.000000 
#    y 0.000000 1.795180 0.000000 
#    z 0.000000 0.000000 1.771280 
# 
# From -- ./inp_files/5399.got.cif
#   From: 2010.03.12/outbox.cif.g09.slc.cpg/sg139_3_cif.got.tgz:5399.got - 2010.04.08 09:46:31.
