data_PCOD8319294
_publ_section_title
;
Structure prediction by ZEFSAII (Michael W. Deem and Ramdas Pophale) SiO2 
 PCOD8319294
Probable space group: I 4/M M M
;
_chemical_formula_sum "Si O2"
_cell_formula_units_Z 160
_cell_length_a 17.459112
_cell_length_b 17.459112
_cell_length_c 32.505995
_cell_angle_alpha 90.000000
_cell_angle_beta 90.000000
_cell_angle_gamma 90.000000
_cell_volume 9908.496634
_symmetry_space_group_name_H-M "I 4/M M M"
_symmetry_group_IT_number 139
_symmetry_cell_setting 'tetragonal'
loop_
_space_group_symop_operation_xyz
x,y,z
-y,x,z
-x,-y,z
y,-x,z
x,-y,-z
-x,y,-z
y,x,-z
-y,-x,-z
-x,-y,-z
y,-x,-z
x,y,-z
-y,x,-z
-x,y,z
x,-y,z
-y,-x,z
y,x,z
1/2+x,1/2+y,1/2+z
1/2-y,1/2+x,1/2+z
1/2-x,1/2-y,1/2+z
1/2+y,1/2-x,1/2+z
1/2+x,1/2-y,1/2-z
1/2-x,1/2+y,1/2-z
1/2+y,1/2+x,1/2-z
1/2-y,1/2-x,1/2-z
1/2-x,1/2-y,1/2-z
1/2+y,1/2-x,1/2-z
1/2+x,1/2+y,1/2-z
1/2-y,1/2+x,1/2-z
1/2-x,1/2+y,1/2+z
1/2+x,1/2-y,1/2+z
1/2-y,1/2-x,1/2+z
1/2+y,1/2+x,1/2+z
loop_
_atom_site_type_symbol
_atom_site_label
_atom_site_fract_x
_atom_site_fract_y
_atom_site_fract_z
Si Si1 0.413424 0.709610 0.914212
Si Si2 0.187784 0.312249 0.643129
Si Si3 0.862097 0.736279 0.500000
Si Si4 0.912547 0.587517 0.701629
Si Si5 0.914899 0.721680 0.000000
Si Si6 0.087160 0.791481 0.087670
O O1 0.500000 0.696352 0.900475
O O2 0.372097 0.627904 0.912785
O O3 0.375592 0.767758 0.882607
O O4 0.411037 0.743097 0.960131
O O5 0.253503 0.253503 0.659217
O O6 0.146914 0.354172 0.680948
O O7 0.222710 0.375680 0.613129
O O8 0.780544 0.780544 0.500000
O O9 0.847039 0.645643 0.500000
O O10 0.893751 0.500000 0.688727
O O11 0.902380 0.597621 0.750000
O O12 0.000000 0.607079 0.688716
O O13 0.903700 0.774918 0.960469
O O14 0.000000 0.684624 0.000000
O O15 0.129043 0.870958 0.097835
O O16 0.000000 0.800374 0.101636
#
# Coordination Sequence:
#
# PCOD8319294 Si02
#       6
#    32  32  16  32  16  32
#     4  10  20  32  49  70  92 122 156 193 236 276
#     4  10  19  31  49  71  95 123 155 188 224 275
#     4  10  17  31  49  64  90 123 160 197 229 270
#     4   9  18  33  52  72  95 122 149 184 232 277
#     4  10  18  29  47  66  91 124 159 198 233 267
#     4  10  19  30  46  67  92 124 160 197 234 271
#
# _framework density 16.147758
#
# number of rings (size 3 to 8) (size 9 to 14) (size 15 to 20)
#    0.000    2.200    2.000    3.000    0.000    0.800 
#    0.000    0.000    0.000    6.000    0.000    0.000 
#    0.000    0.000    0.000   37.200    0.000    0.000 
#
# Total GULP energy -992007.518151 kJ/mol
# GULP energy per Si atom -12400.093977 kJ/mol
# Density = 1.611100 g / cm^3
# Si number density = 16.147758 Si / 1000 Ang^3
#
#
#
# Elastic Constant Matrix: (Units=GPa)
#
#
# Indices 1 2 3 4 5 6 
#
# 1 121.9570 63.7879 40.3137 0.0000 0.0000 0.0000
# 2 63.7879 121.9569 40.3136 0.0000 0.0000 0.0000
# 3 40.3137 40.3136 63.6186 0.0000 0.0000 0.0000
# 4 0.0000 0.0000 0.0000 21.6328 0.0000 0.0000
# 5 0.0000 0.0000 0.0000 0.0000 21.6329 0.0000
# 6 0.0000 0.0000 0.0000 0.0000 0.0000 20.9990
#
#
#
# Elastic Compliance Matrix: (Units=1/GPa)
#
#
# Indices 1 2 3 4 5 6 
#
# 1 0.012309 -0.004882 -0.004706 0.000000 0.000000 0.000000
# 2 -0.004882 0.012309 -0.004706 0.000000 0.000000 0.000000
# 3 -0.004706 -0.004706 0.021683 0.000000 0.000000 0.000000
# 4 0.000000 0.000000 0.000000 0.046226 0.000000 0.000000
# 5 0.000000 0.000000 0.000000 0.000000 0.046226 0.000000
# 6 0.000000 0.000000 0.000000 0.000000 0.000000 0.047621
#
#
# Mechanical properties :
#
#
# Convention : Reuss Voigt Hill
#
# Bulk Modulus (GPa) = 56.45943 66.26254 61.36099
# Shear Modulus (GPa) = 22.63809 23.72742 23.18276
#
# Velocity S-wave (km/s) = 3.74830 3.83743 3.79313
# Velocity P-wave (km/s) = 7.33302 7.79479 7.56743
#
# Compressibility (1/GPa) = 0.01771183
#
# Stress axis : x y z
#
# Youngs Moduli (GPa) = 81.24218 81.24220 46.11938
#
# Poissons Ratio (x) = 0.39666 0.21704
# Poissons Ratio (y) = 0.39666 0.21704
# Poissons Ratio (z) = 0.38233 0.38232
#
# Static dielectric constant tensor:
#      x y z
#    x 3.034890 0.000000 0.000000 
#    y 0.000000 3.034890 0.000000 
#    z 0.000000 0.000000 2.880650 
# 
# 
# High freq. dielectric constant tensor:
#      x y z
#    x 1.620720 0.000000 0.000000 
#    y 0.000000 1.620720 0.000000 
#    z 0.000000 0.000000 1.608080 
# 
# From -- ./inp_files/12975.got.cif
#   From: 2010.03.12/outbox.cif.g09.slc.cpg/sg139_7_cif.got.tgz:12975.got - 2010.04.08 09:46:31.
