data_PCOD8319993
_publ_section_title
;
Structure prediction by ZEFSAII (Michael W. Deem and Ramdas Pophale) SiO2 
 PCOD8319993
Probable space group: I 4/M M M
;
_chemical_formula_sum "Si O2"
_cell_formula_units_Z 160
_cell_length_a 23.061610
_cell_length_b 23.061610
_cell_length_c 16.356840
_cell_angle_alpha 90.000000
_cell_angle_beta 90.000000
_cell_angle_gamma 90.000000
_cell_volume 8699.186713
_symmetry_space_group_name_H-M "I 4/M M M"
_symmetry_group_IT_number 139
_symmetry_cell_setting 'tetragonal'
loop_
_space_group_symop_operation_xyz
x,y,z
-y,x,z
-x,-y,z
y,-x,z
x,-y,-z
-x,y,-z
y,x,-z
-y,-x,-z
-x,-y,-z
y,-x,-z
x,y,-z
-y,x,-z
-x,y,z
x,-y,z
-y,-x,z
y,x,z
1/2+x,1/2+y,1/2+z
1/2-y,1/2+x,1/2+z
1/2-x,1/2-y,1/2+z
1/2+y,1/2-x,1/2+z
1/2+x,1/2-y,1/2-z
1/2-x,1/2+y,1/2-z
1/2+y,1/2+x,1/2-z
1/2-y,1/2-x,1/2-z
1/2-x,1/2-y,1/2-z
1/2+y,1/2-x,1/2-z
1/2+x,1/2+y,1/2-z
1/2-y,1/2+x,1/2-z
1/2-x,1/2+y,1/2+z
1/2+x,1/2-y,1/2+z
1/2-y,1/2-x,1/2+z
1/2+y,1/2+x,1/2+z
loop_
_atom_site_type_symbol
_atom_site_label
_atom_site_fract_x
_atom_site_fract_y
_atom_site_fract_z
Si Si1 0.269895 0.820045 0.595823
Si Si2 0.397608 0.065924 0.840119
Si Si3 0.435510 0.344468 0.597246
Si Si4 0.562495 0.817870 0.094520
Si Si5 0.103754 0.280542 0.904241
O O1 0.259325 0.826849 0.500000
O O2 0.214646 0.785355 0.634548
O O3 0.280286 0.884634 0.634586
O O4 0.327441 0.782578 0.611566
O O5 0.416494 0.083507 0.750000
O O6 0.426695 0.112879 0.900099
O O7 0.328289 0.069980 0.850788
O O8 0.418016 0.000000 0.859541
O O9 0.431775 0.345320 0.500000
O O10 0.500000 0.359695 0.627675
O O11 0.392157 0.392157 0.634999
O O12 0.418019 0.281030 0.628487
O O13 0.500000 0.802340 0.135470
O O14 0.559947 0.802221 0.000000
O O15 0.089400 0.290504 0.000000
#
# Coordination Sequence:
#
# PCOD8319993 Si02
#       5
#    32  32  32  32  32
#     4   8  13  23  42  65  85 106 135 174 217 253
#     4  11  22  33  45  62  86 117 149 180 218 262
#     4   9  16  25  40  64  92 120 149 182 221 265
#     4   9  18  31  46  65  88 114 145 180 213 249
#     4   9  17  30  48  67  85 110 150 193 223 251
#
# _framework density 18.392524000000002
#
# number of rings (size 3 to 8) (size 9 to 14) (size 15 to 20)
#    0.000    2.800    0.000    3.600    0.000    6.400 
#    0.000    2.000    0.000   15.000    0.000    0.000 
#    0.000    0.400    0.000    5.600    0.000    0.000 
#
# Total GULP energy -991154.563255 kJ/mol
# GULP energy per Si atom -12389.432041 kJ/mol
# Density = 1.835066 g / cm^3
# Si number density = 18.392524 Si / 1000 Ang^3
#
#
#
# Elastic Constant Matrix: (Units=GPa)
#
#
# Indices 1 2 3 4 5 6 
#
# 1 132.2282 77.6432 8.5871 0.0000 0.0000 0.0000
# 2 77.6432 132.2286 8.5875 0.0000 0.0000 0.0000
# 3 8.5871 8.5875 5.5173 0.0000 0.0000 0.0000
# 4 0.0000 0.0000 0.0000 10.5586 0.0000 0.0000
# 5 0.0000 0.0000 0.0000 0.0000 10.5597 0.0000
# 6 0.0000 0.0000 0.0000 0.0000 0.0000 13.4766
#
#
#
# Elastic Compliance Matrix: (Units=1/GPa)
#
#
# Indices 1 2 3 4 5 6 
#
# 1 0.011890 -0.006430 -0.008498 0.000000 0.000000 0.000000
# 2 -0.006430 0.011890 -0.008499 0.000000 0.000000 0.000000
# 3 -0.008498 -0.008499 0.207702 0.000000 0.000000 0.000000
# 4 0.000000 0.000000 0.000000 0.094709 0.000000 0.000000
# 5 0.000000 0.000000 0.000000 0.000000 0.094700 0.000000
# 6 0.000000 0.000000 0.000000 0.000000 0.000000 0.074203
#
#
# Mechanical properties :
#
#
# Convention : Reuss Voigt Hill
#
# Bulk Modulus (GPa) = 5.41628 51.06775 28.24202
# Shear Modulus (GPa) = 8.28512 18.59606 13.44059
#
# Velocity S-wave (km/s) = 2.12471 3.18318 2.70620
# Velocity P-wave (km/s) = 2.99506 6.42930 5.01529
#
# Compressibility (1/GPa) = 0.18462865
#
# Stress axis : x y z
#
# Youngs Moduli (GPa) = 84.10365 84.10301 4.81458
#
# Poissons Ratio (x) = 0.54077 0.04091
# Poissons Ratio (y) = 0.54077 0.04092
# Poissons Ratio (z) = 0.71469 0.71482
#
# Static dielectric constant tensor:
#      x y z
#    x 3.762790 0.000000 0.000000 
#    y 0.000000 3.762780 0.000000 
#    z 0.000000 0.000000 2.890300 
# 
# 
# High freq. dielectric constant tensor:
#      x y z
#    x 1.711330 0.000000 0.000000 
#    y 0.000000 1.711330 0.000000 
#    z 0.000000 0.000000 1.653440 
# 
# From -- ./inp_files/5894.got.cif
#   From: 2010.03.12/outbox.cif.g09.slc.cpg/sg139_3_cif.got.tgz:5894.got - 2010.04.08 09:46:31.
