data_PCOD8319059
_publ_section_title
;
Structure prediction by ZEFSAII (Michael W. Deem and Ramdas Pophale) SiO2 
 PCOD8319059
Probable space group: P 42/N C M
;
_chemical_formula_sum "Si O2"
_cell_formula_units_Z 104
_cell_length_a 16.871424
_cell_length_b 16.871424
_cell_length_c 17.807290
_cell_angle_alpha 90.000000
_cell_angle_beta 90.000000
_cell_angle_gamma 90.000000
_cell_volume 5068.755132
_symmetry_space_group_name_H-M "P 42/N C M"
_symmetry_group_IT_number 138
_space_group.IT_coordinate_system_code '2'
_symmetry_cell_setting 'tetragonal'
loop_
_space_group_symop_operation_xyz
x,y,z
1/2-y,x,1/2+z
1/2-x,1/2-y,z
y,1/2-x,1/2+z
1/2+x,-y,1/2-z
-x,1/2+y,1/2-z
1/2+y,1/2+x,-z
-y,-x,-z
-x,-y,-z
1/2+y,-x,1/2-z
1/2+x,1/2+y,-z
-y,1/2+x,1/2-z
1/2-x,y,1/2+z
x,1/2-y,1/2+z
1/2-y,1/2-x,z
y,x,z
loop_
_atom_site_type_symbol
_atom_site_label
_atom_site_fract_x
_atom_site_fract_y
_atom_site_fract_z
Si Si1 0.584064 0.415937 0.000000
Si Si2 0.112219 0.518777 0.272014
Si Si3 0.813823 0.686178 0.779336
Si Si4 0.024217 0.297547 0.138357
Si Si5 0.183305 0.316696 0.399791
Si Si6 0.000101 0.619259 0.357075
Si Si7 0.374621 0.501169 0.482685
Si Si8 0.002569 0.285759 0.413886
O O1 0.567254 0.471013 0.928540
O O2 0.559938 0.327339 0.971724
O O3 0.146911 0.532897 0.188665
O O4 0.054754 0.592936 0.287212
O O5 0.185351 0.514669 0.329847
O O6 0.064298 0.435703 0.276016
O O7 0.750000 0.750000 0.804212
O O8 0.786370 0.604102 0.814984
O O9 0.820308 0.679693 0.689956
O O10 0.987240 0.211053 0.128052
O O11 0.036239 0.336226 0.057633
O O12 0.250000 0.250000 0.424164
O O13 0.096244 0.297195 0.434083
O O14 0.909108 0.590893 0.342298
O O15 0.414311 0.585690 0.500000
O O16 0.440245 0.440245 0.451173
O O17 0.308082 0.514170 0.419391
#
# Coordination Sequence:
#
# PCOD8319059 Si02
#       8
#     8  16   8  16   8  16  16  16
#     4  10  21  34  63  86 122 154 199 261 308 362
#     4  10  20  39  63  87 122 164 198 251 306 361
#     4  11  22  38  60  88 130 163 191 251 312 368
#     4  12  20  41  61  88 124 160 202 253 303 367
#     4  11  22  37  61  92 128 168 205 246 315 380
#     4  10  22  35  59  93 119 154 203 246 305 369
#     4  11  25  42  60  85 124 168 208 249 310 375
#     4  11  20  39  60  90 121 160 203 254 312 362
#
# _framework density 20.517858
#
# number of rings (size 3 to 8) (size 9 to 14) (size 15 to 20)
#    0.000    1.231    5.385    1.154    2.154    1.231 
#    1.385    1.923    0.000    2.308    0.000    0.000 
#    0.000    0.000    0.000    0.000    0.000    0.000 
#
# Total GULP energy -1288846.717054 kJ/mol
# GULP energy per Si atom -12392.756895 kJ/mol
# Density = 2.047116 g / cm^3
# Si number density = 20.517858 Si / 1000 Ang^3
#
#
#
# Elastic Constant Matrix: (Units=GPa)
#
#
# Indices 1 2 3 4 5 6 
#
# 1 81.0228 39.6070 6.1892 0.0000 0.0000 0.0000
# 2 39.6070 81.0224 6.1897 0.0000 0.0000 0.0000
# 3 6.1892 6.1897 53.2540 0.0000 0.0000 0.0000
# 4 0.0000 0.0000 0.0000 20.5884 0.0000 0.0000
# 5 0.0000 0.0000 0.0000 0.0000 20.5894 0.0000
# 6 0.0000 0.0000 0.0000 0.0000 0.0000 29.1011
#
#
#
# Elastic Compliance Matrix: (Units=1/GPa)
#
#
# Indices 1 2 3 4 5 6 
#
# 1 0.016268 -0.007878 -0.000975 0.000000 0.000000 0.000000
# 2 -0.007878 0.016268 -0.000975 0.000000 0.000000 0.000000
# 3 -0.000975 -0.000975 0.019005 0.000000 0.000000 0.000000
# 4 0.000000 0.000000 0.000000 0.048571 0.000000 0.000000
# 5 0.000000 0.000000 0.000000 0.000000 0.048569 0.000000
# 6 0.000000 0.000000 0.000000 0.000000 0.000000 0.034363
#
#
# Mechanical properties :
#
#
# Convention : Reuss Voigt Hill
#
# Bulk Modulus (GPa) = 31.36377 35.47456 33.41916
# Shear Modulus (GPa) = 23.43824 24.94334 24.19079
#
# Velocity S-wave (km/s) = 3.38351 3.49046 3.43740
# Velocity P-wave (km/s) = 5.53023 5.79409 5.66370
#
# Compressibility (1/GPa) = 0.03188392
#
# Stress axis : x y z
#
# Youngs Moduli (GPa) = 61.47177 61.47133 52.61888
#
# Poissons Ratio (x) = 0.48426 0.05130
# Poissons Ratio (y) = 0.48426 0.05132
# Poissons Ratio (z) = 0.05994 0.05995
#
# Static dielectric constant tensor:
#      x y z
#    x 3.707560 0.000000 0.000000 
#    y 0.000000 3.707560 0.000000 
#    z 0.000000 0.000000 3.707600 
# 
# 
# High freq. dielectric constant tensor:
#      x y z
#    x 1.792360 0.000000 0.000000 
#    y 0.000000 1.792360 0.000000 
#    z 0.000000 0.000000 1.799980 
# 
# From -- ./inp_files/5329.got.cif
#   From: 2010.03.12/outbox.cif.g09.slc.cpg/sg138_3_cif.got.tgz:5329.got - 2010.04.08 09:41:05.
