data_PCOD8319401
_publ_section_title
;
Structure prediction by ZEFSAII (Michael W. Deem and Ramdas Pophale) SiO2 
 PCOD8319401
Probable space group: I 4/M M M
;
_chemical_formula_sum "Si O2"
_cell_formula_units_Z 176
_cell_length_a 26.891741
_cell_length_b 26.891741
_cell_length_c 13.176879
_cell_angle_alpha 90.000000
_cell_angle_beta 90.000000
_cell_angle_gamma 90.000000
_cell_volume 9529.067374
_symmetry_space_group_name_H-M "I 4/M M M"
_symmetry_group_IT_number 139
_symmetry_cell_setting 'tetragonal'
loop_
_space_group_symop_operation_xyz
x,y,z
-y,x,z
-x,-y,z
y,-x,z
x,-y,-z
-x,y,-z
y,x,-z
-y,-x,-z
-x,-y,-z
y,-x,-z
x,y,-z
-y,x,-z
-x,y,z
x,-y,z
-y,-x,z
y,x,z
1/2+x,1/2+y,1/2+z
1/2-y,1/2+x,1/2+z
1/2-x,1/2-y,1/2+z
1/2+y,1/2-x,1/2+z
1/2+x,1/2-y,1/2-z
1/2-x,1/2+y,1/2-z
1/2+y,1/2+x,1/2-z
1/2-y,1/2-x,1/2-z
1/2-x,1/2-y,1/2-z
1/2+y,1/2-x,1/2-z
1/2+x,1/2+y,1/2-z
1/2-y,1/2+x,1/2-z
1/2-x,1/2+y,1/2+z
1/2+x,1/2-y,1/2+z
1/2-y,1/2-x,1/2+z
1/2+y,1/2+x,1/2+z
loop_
_atom_site_type_symbol
_atom_site_label
_atom_site_fract_x
_atom_site_fract_y
_atom_site_fract_z
Si Si1 0.399142 0.680244 0.194473
Si Si2 0.056346 0.140695 0.500000
Si Si3 0.222991 0.943041 0.111086
Si Si4 0.168534 0.557319 0.698976
Si Si5 0.880452 0.348768 0.384885
Si Si6 0.755319 0.321659 0.883635
O O1 0.371683 0.628318 0.198842
O O2 0.424616 0.685357 0.303501
O O3 0.361495 0.725978 0.182706
O O4 0.436613 0.676123 0.099043
O O5 0.094266 0.094266 0.500000
O O6 0.000000 0.120222 0.500000
O O7 0.278934 0.935012 0.147183
O O8 0.211180 0.000000 0.095822
O O9 0.215768 0.916686 0.000000
O O10 0.150446 0.500000 0.690970
O O11 0.130758 0.593870 0.640386
O O12 0.170787 0.573773 0.816817
O O13 0.898302 0.343861 0.500000
O O14 0.830680 0.314380 0.363958
O O15 0.734654 0.265347 0.857548
O O16 0.742508 0.333248 0.000000
#
# Coordination Sequence:
#
# PCOD8319401 Si02
#       6
#    32  16  32  32  32  32
#     4  10  18  31  50  76 108 141 178 223 276 327
#     4  10  20  33  52  78 110 148 189 233 285 339
#     4  10  20  34  51  72 103 144 185 222 266 319
#     4  10  21  37  55  79 110 141 175 224 276 319
#     4  10  20  35  57  83 109 140 183 225 271 336
#     4   9  16  30  52  79 114 146 170 211 269 324
#
# _framework density 18.469804
#
# number of rings (size 3 to 8) (size 9 to 14) (size 15 to 20)
#    0.000    2.182    2.727    1.091    0.000    1.909 
#    0.000    2.727    0.000    6.545    0.000    5.091 
#    0.000    0.000    0.000   16.909    0.000    0.000 
#
# Total GULP energy -1090329.404327 kJ/mol
# GULP energy per Si atom -12390.106867 kJ/mol
# Density = 1.842777 g / cm^3
# Si number density = 18.469804 Si / 1000 Ang^3
#
#
#
# Elastic Constant Matrix: (Units=GPa)
#
#
# Indices 1 2 3 4 5 6 
#
# 1 73.1967 33.6760 39.5194 0.0000 0.0000 0.0000
# 2 33.6760 73.1967 39.5194 0.0000 0.0000 0.0000
# 3 39.5194 39.5194 164.6503 0.0000 0.0000 0.0000
# 4 0.0000 0.0000 0.0000 -89.9913 0.0000 0.0000
# 5 0.0000 0.0000 0.0000 0.0000 -89.9913 0.0000
# 6 0.0000 0.0000 0.0000 0.0000 0.0000 13.6140
#
#
#
# Elastic Compliance Matrix: (Units=1/GPa)
#
#
# Indices 1 2 3 4 5 6 
#
# 1 0.018340 -0.006963 -0.002731 0.000000 0.000000 0.000000
# 2 -0.006963 0.018340 -0.002731 0.000000 0.000000 0.000000
# 3 -0.002731 -0.002731 0.007384 0.000000 0.000000 0.000000
# 4 0.000000 0.000000 0.000000 -0.011112 0.000000 0.000000
# 5 0.000000 0.000000 0.000000 0.000000 -0.011112 0.000000
# 6 0.000000 0.000000 0.000000 0.000000 0.000000 0.073454
#
#
# Mechanical properties :
#
#
# Convention : Reuss Voigt Hill
#
# Bulk Modulus (GPa) = 52.04343 59.60815 55.82579
# Shear Modulus (GPa) = 39.51090 -20.05181 9.72954
#
# Velocity S-wave (km/s) = 4.63018 -3.29850 2.29766
# Velocity P-wave (km/s) = 7.53814 4.22333 6.10983
#
# Compressibility (1/GPa) = 0.01921472
#
# Stress axis : x y z
#
# Youngs Moduli (GPa) = 54.52628 54.52628 135.42323
#
# Poissons Ratio (x) = 0.37969 0.36978
# Poissons Ratio (y) = 0.37969 0.36978
# Poissons Ratio (z) = 0.14889 0.14889
#
# Static dielectric constant tensor:
#      x y z
#    x 3.255920 0.000000 0.000000 
#    y 0.000000 3.255920 0.000000 
#    z 0.000000 0.000000 3.494860 
# 
# 
# High freq. dielectric constant tensor:
#      x y z
#    x 1.693010 0.000000 0.000000 
#    y 0.000000 1.693010 0.000000 
#    z 0.000000 0.000000 1.735570 
# 
# From -- ./inp_files/4018.got.cif
#   From: 2010.03.12/outbox.cif.g09.slc.cpg/sg139_3_cif.got.tgz:4018.got - 2010.04.08 09:46:31.
