data_PCOD8319391
_publ_section_title
;
Structure prediction by ZEFSAII (Michael W. Deem and Ramdas Pophale) SiO2 
 PCOD8319391
Probable space group: I 4/M M M
;
_chemical_formula_sum "Si O2"
_cell_formula_units_Z 128
_cell_length_a 28.364908
_cell_length_b 28.364908
_cell_length_c 10.115956
_cell_angle_alpha 90.000000
_cell_angle_beta 90.000000
_cell_angle_gamma 90.000000
_cell_volume 8138.974546
_symmetry_space_group_name_H-M "I 4/M M M"
_symmetry_group_IT_number 139
_symmetry_cell_setting 'tetragonal'
loop_
_space_group_symop_operation_xyz
x,y,z
-y,x,z
-x,-y,z
y,-x,z
x,-y,-z
-x,y,-z
y,x,-z
-y,-x,-z
-x,-y,-z
y,-x,-z
x,y,-z
-y,x,-z
-x,y,z
x,-y,z
-y,-x,z
y,x,z
1/2+x,1/2+y,1/2+z
1/2-y,1/2+x,1/2+z
1/2-x,1/2-y,1/2+z
1/2+y,1/2-x,1/2+z
1/2+x,1/2-y,1/2-z
1/2-x,1/2+y,1/2-z
1/2+y,1/2+x,1/2-z
1/2-y,1/2-x,1/2-z
1/2-x,1/2-y,1/2-z
1/2+y,1/2-x,1/2-z
1/2+x,1/2+y,1/2-z
1/2-y,1/2+x,1/2-z
1/2-x,1/2+y,1/2+z
1/2+x,1/2-y,1/2+z
1/2-y,1/2-x,1/2+z
1/2+y,1/2+x,1/2+z
loop_
_atom_site_type_symbol
_atom_site_label
_atom_site_fract_x
_atom_site_fract_y
_atom_site_fract_z
Si Si1 0.710742 0.556117 0.649011
Si Si2 0.444545 0.188569 0.264143
Si Si3 0.380285 0.054801 0.000000
Si Si4 0.556013 0.141179 0.000000
Si Si5 0.869162 0.945688 0.349241
O O1 0.699790 0.573996 0.500000
O O2 0.713297 0.500000 0.650334
O O3 0.760771 0.577536 0.697368
O O4 0.670729 0.573845 0.750073
O O5 0.500000 0.195063 0.252643
O O6 0.431876 0.150318 0.373387
O O7 0.424210 0.169925 0.125542
O O8 0.426385 0.087266 0.000000
O O9 0.395960 0.000000 0.000000
O O10 0.500000 0.137584 0.000000
O O11 0.850989 0.939528 0.500000
O O12 0.916836 0.916836 0.324502
O O13 0.881160 0.000000 0.318992
#
# Coordination Sequence:
#
# PCOD8319391 Si02
#       5
#    32  32  16  16  32
#     4   9  16  28  46  65  86 116 153 193 235 269
#     4   9  17  29  44  63  86 115 150 192 237 271
#     4  10  18  31  46  60  89 125 154 184 222 272
#     4  10  20  29  42  66  91 119 154 188 224 270
#     4   9  18  30  45  68  98 129 157 184 214 255
#
# _framework density 15.726796
#
# number of rings (size 3 to 8) (size 9 to 14) (size 15 to 20)
#    0.000    2.750    1.250    0.750    1.750    1.000 
#    0.000    1.250    0.000    4.500    0.000    3.500 
#    0.000    6.000    0.000    0.000    0.000    0.000 
#
# Total GULP energy -793377.814863 kJ/mol
# GULP energy per Si atom -12396.528357 kJ/mol
# Density = 1.569100 g / cm^3
# Si number density = 15.726796 Si / 1000 Ang^3
#
#
#
# Elastic Constant Matrix: (Units=GPa)
#
#
# Indices 1 2 3 4 5 6 
#
# 1 62.2978 33.6000 45.2823 0.0000 0.0000 0.0000
# 2 33.6000 62.2978 45.2823 0.0000 0.0000 0.0000
# 3 45.2823 45.2823 143.5653 0.0000 0.0000 0.0000
# 4 0.0000 0.0000 0.0000 -1.7870 0.0000 0.0000
# 5 0.0000 0.0000 0.0000 0.0000 -1.7870 0.0000
# 6 0.0000 0.0000 0.0000 0.0000 0.0000 4.0927
#
#
#
# Elastic Compliance Matrix: (Units=1/GPa)
#
#
# Indices 1 2 3 4 5 6 
#
# 1 0.024849 -0.009997 -0.004684 0.000000 0.000000 0.000000
# 2 -0.009997 0.024849 -0.004684 0.000000 0.000000 0.000000
# 3 -0.004684 -0.004684 0.009921 0.000000 0.000000 0.000000
# 4 0.000000 0.000000 0.000000 -0.559591 0.000000 0.000000
# 5 0.000000 0.000000 0.000000 0.000000 -0.559591 0.000000
# 6 0.000000 0.000000 0.000000 0.000000 0.000000 0.244339
#
#
# Mechanical properties :
#
#
# Convention : Reuss Voigt Hill
#
# Bulk Modulus (GPa) = 47.87846 57.38777 52.63312
# Shear Modulus (GPa) = -6.49747 9.70348 1.60301
#
# Velocity S-wave (km/s) = -2.03481 2.48665 1.01069
# Velocity P-wave (km/s) = 4.99894 6.69434 5.90778
#
# Compressibility (1/GPa) = 0.02088622
#
# Stress axis : x y z
#
# Youngs Moduli (GPa) = 40.24347 40.24347 100.80136
#
# Poissons Ratio (x) = 0.40232 0.47219
# Poissons Ratio (y) = 0.40232 0.47219
# Poissons Ratio (z) = 0.18852 0.18852
#
# Static dielectric constant tensor:
#      x y z
#    x 2.779210 0.000000 0.000000 
#    y 0.000000 2.779210 0.000000 
#    z 0.000000 0.000000 3.596950 
# 
# 
# High freq. dielectric constant tensor:
#      x y z
#    x 1.571170 0.000000 0.000000 
#    y 0.000000 1.571170 0.000000 
#    z 0.000000 0.000000 1.626040 
# 
# From -- ./inp_files/1786.got.cif
#   From: 2010.03.12/outbox.cif.g09.slc.cpg/sg139_1_cif.got.tgz:1786.got - 2010.04.08 09:46:31.
