data_PCOD8319462
_publ_section_title
;
Structure prediction by ZEFSAII (Michael W. Deem and Ramdas Pophale) SiO2 
 PCOD8319462
Probable space group: I 4/M M M
;
_chemical_formula_sum "Si O2"
_cell_formula_units_Z 240
_cell_length_a 21.140185
_cell_length_b 21.140185
_cell_length_c 31.490534
_cell_angle_alpha 90.000000
_cell_angle_beta 90.000000
_cell_angle_gamma 90.000000
_cell_volume 14073.353362
_symmetry_space_group_name_H-M "I 4/M M M"
_symmetry_group_IT_number 139
_symmetry_cell_setting 'tetragonal'
loop_
_space_group_symop_operation_xyz
x,y,z
-y,x,z
-x,-y,z
y,-x,z
x,-y,-z
-x,y,-z
y,x,-z
-y,-x,-z
-x,-y,-z
y,-x,-z
x,y,-z
-y,x,-z
-x,y,z
x,-y,z
-y,-x,z
y,x,z
1/2+x,1/2+y,1/2+z
1/2-y,1/2+x,1/2+z
1/2-x,1/2-y,1/2+z
1/2+y,1/2-x,1/2+z
1/2+x,1/2-y,1/2-z
1/2-x,1/2+y,1/2-z
1/2+y,1/2+x,1/2-z
1/2-y,1/2-x,1/2-z
1/2-x,1/2-y,1/2-z
1/2+y,1/2-x,1/2-z
1/2+x,1/2+y,1/2-z
1/2-y,1/2+x,1/2-z
1/2-x,1/2+y,1/2+z
1/2+x,1/2-y,1/2+z
1/2-y,1/2-x,1/2+z
1/2+y,1/2+x,1/2+z
loop_
_atom_site_type_symbol
_atom_site_label
_atom_site_fract_x
_atom_site_fract_y
_atom_site_fract_z
Si Si1 0.171070 0.071955 0.876969
Si Si2 0.570213 0.276598 0.286797
Si Si3 0.216515 0.115858 0.699371
Si Si4 0.746963 0.148635 0.453255
Si Si5 0.726040 0.830022 0.107696
Si Si6 0.927061 0.572940 0.750000
Si Si7 0.428391 0.322411 0.111062
Si Si8 0.646282 0.841381 0.690703
O O1 0.106127 0.106127 0.890991
O O2 0.174649 0.075718 0.825758
O O3 0.230798 0.107730 0.898505
O O4 0.170471 0.000000 0.893564
O O5 0.500000 0.245407 0.287868
O O6 0.580310 0.310927 0.241265
O O7 0.626139 0.226155 0.290823
O O8 0.180849 0.180849 0.690283
O O9 0.207894 0.072211 0.658115
O O10 0.288590 0.133070 0.709647
O O11 0.728229 0.122204 0.500000
O O12 0.807111 0.192890 0.457805
O O13 0.687892 0.189607 0.435462
O O14 0.767203 0.092330 0.421647
O O15 0.770742 0.770742 0.122741
O O16 0.669104 0.845484 0.140407
O O17 0.912667 0.500000 0.757494
O O18 0.892195 0.594703 0.706512
O O19 0.500000 0.342856 0.100292
O O20 0.384453 0.384453 0.107891
#
# Coordination Sequence:
#
# PCOD8319462 Si02
#       8
#    32  32  32  32  32  16  32  32
#     4   9  18  30  46  69 100 137 173 209 245 288
#     4  10  19  30  44  65  93 128 169 207 247 289
#     4  11  20  30  46  70  96 125 164 210 253 288
#     4   9  17  32  54  77 100 124 153 195 247 295
#     4   9  17  32  50  75 102 125 156 201 253 299
#     4  11  24  38  47  62  94 132 169 202 236 289
#     4  10  21  35  51  73 101 133 167 202 241 287
#     4  11  19  30  47  67  92 125 157 204 248 296
#
# _framework density 17.053505000000001
#
# number of rings (size 3 to 8) (size 9 to 14) (size 15 to 20)
#    0.000    2.067    2.667    1.600    0.000    3.733 
#    0.000    0.000    0.000    0.400    0.000    3.733 
#    0.000    0.000    0.000    7.867    0.000    0.133 
#
# Total GULP energy -1486987.640458 kJ/mol
# GULP energy per Si atom -12391.563670 kJ/mol
# Density = 1.701469 g / cm^3
# Si number density = 17.053505 Si / 1000 Ang^3
#
#
#
# Elastic Constant Matrix: (Units=GPa)
#
#
# Indices 1 2 3 4 5 6 
#
# 1 75.6207 31.4835 17.7555 0.0000 0.0000 0.0000
# 2 31.4835 75.6224 17.7562 0.0000 0.0000 0.0000
# 3 17.7555 17.7562 80.4749 0.0000 0.0000 0.0000
# 4 0.0000 0.0000 0.0000 11.7905 0.0000 0.0000
# 5 0.0000 0.0000 0.0000 0.0000 11.7900 0.0000
# 6 0.0000 0.0000 0.0000 0.0000 0.0000 19.5159
#
#
#
# Elastic Compliance Matrix: (Units=1/GPa)
#
#
# Indices 1 2 3 4 5 6 
#
# 1 0.016365 -0.006291 -0.002223 0.000000 0.000000 0.000000
# 2 -0.006291 0.016365 -0.002223 0.000000 0.000000 0.000000
# 3 -0.002223 -0.002223 0.013407 0.000000 0.000000 0.000000
# 4 0.000000 0.000000 0.000000 0.084814 0.000000 0.000000
# 5 0.000000 0.000000 0.000000 0.000000 0.084817 0.000000
# 6 0.000000 0.000000 0.000000 0.000000 0.000000 0.051240
#
#
# Mechanical properties :
#
#
# Convention : Reuss Voigt Hill
#
# Bulk Modulus (GPa) = 40.54544 40.63427 40.58985
# Shear Modulus (GPa) = 16.85190 19.60082 18.22636
#
# Velocity S-wave (km/s) = 3.14694 3.39392 3.27276
# Velocity P-wave (km/s) = 6.08534 6.26398 6.17531
#
# Compressibility (1/GPa) = 0.02466368
#
# Stress axis : x y z
#
# Youngs Moduli (GPa) = 61.10594 61.10712 74.58776
#
# Poissons Ratio (x) = 0.38444 0.16578
# Poissons Ratio (y) = 0.38444 0.16578
# Poissons Ratio (z) = 0.13581 0.13582
#
# Static dielectric constant tensor:
#      x y z
#    x 3.088670 0.000000 0.000000 
#    y 0.000000 3.088690 0.000000 
#    z 0.000000 0.000000 3.274510 
# 
# 
# High freq. dielectric constant tensor:
#      x y z
#    x 1.644210 0.000000 0.000000 
#    y 0.000000 1.644210 0.000000 
#    z 0.000000 0.000000 1.640160 
# 
# From -- ./inp_files/14646.got.cif
#   From: 2010.03.12/outbox.cif.g09.slc.cpg/sg139_8_cif.got.tgz:14646.got - 2010.04.08 09:46:31.
