data_PCOD8319824
_publ_section_title
;
Structure prediction by ZEFSAII (Michael W. Deem and Ramdas Pophale) SiO2 
 PCOD8319824
Probable space group: I 4/M M M
;
_chemical_formula_sum "Si O2"
_cell_formula_units_Z 160
_cell_length_a 31.386381
_cell_length_b 31.386381
_cell_length_c 8.951045
_cell_angle_alpha 90.000000
_cell_angle_beta 90.000000
_cell_angle_gamma 90.000000
_cell_volume 8817.718400
_symmetry_space_group_name_H-M "I 4/M M M"
_symmetry_group_IT_number 139
_symmetry_cell_setting 'tetragonal'
loop_
_space_group_symop_operation_xyz
x,y,z
-y,x,z
-x,-y,z
y,-x,z
x,-y,-z
-x,y,-z
y,x,-z
-y,-x,-z
-x,-y,-z
y,-x,-z
x,y,-z
-y,x,-z
-x,y,z
x,-y,z
-y,-x,z
y,x,z
1/2+x,1/2+y,1/2+z
1/2-y,1/2+x,1/2+z
1/2-x,1/2-y,1/2+z
1/2+y,1/2-x,1/2+z
1/2+x,1/2-y,1/2-z
1/2-x,1/2+y,1/2-z
1/2+y,1/2+x,1/2-z
1/2-y,1/2-x,1/2-z
1/2-x,1/2-y,1/2-z
1/2+y,1/2-x,1/2-z
1/2+x,1/2+y,1/2-z
1/2-y,1/2+x,1/2-z
1/2-x,1/2+y,1/2+z
1/2+x,1/2-y,1/2+z
1/2-y,1/2-x,1/2+z
1/2+y,1/2+x,1/2+z
loop_
_atom_site_type_symbol
_atom_site_label
_atom_site_fract_x
_atom_site_fract_y
_atom_site_fract_z
Si Si1 0.734882 0.824870 0.830104
Si Si2 0.549353 0.549353 0.173876
Si Si3 0.385812 0.614189 0.678398
Si Si4 0.604230 0.837599 0.666915
Si Si5 0.951921 0.723880 0.672591
Si Si6 0.113894 0.795927 0.323171
O O1 0.718066 0.781935 0.750000
O O2 0.697976 0.859578 0.825677
O O3 0.776340 0.842292 0.742499
O O4 0.747916 0.814110 0.000000
O O5 0.500000 0.559426 0.211267
O O6 0.579334 0.579334 0.273236
O O7 0.558469 0.558469 0.000000
O O8 0.383901 0.616100 0.500000
O O9 0.398317 0.660018 0.744672
O O10 0.592914 0.850939 0.500000
O O11 0.619922 0.880078 0.750000
O O12 0.561971 0.818764 0.741908
O O13 0.945537 0.713540 0.500000
O O14 0.924694 0.764812 0.718780
O O15 0.000000 0.734899 0.715257
O O16 0.119410 0.802720 0.500000
#
# Coordination Sequence:
#
# PCOD8319824 Si02
#       6
#    32  16  16  32  32  32
#     4   9  16  28  47  71  98 131 172 216 259 301
#     4   9  20  42  70  93 109 129 162 203 247 301
#     4  12  25  39  56  81 112 141 168 205 255 307
#     4   9  16  26  43  67  96 131 169 208 249 295
#     4   9  18  32  50  73 101 132 167 209 255 302
#     4  10  20  35  53  73 100 137 178 216 256 305
#
# _framework density 18.145282999999999
#
# number of rings (size 3 to 8) (size 9 to 14) (size 15 to 20)
#    0.000    2.500    0.000    3.000    0.000    7.200 
#    0.000    3.000    0.000    0.000    0.000    0.000 
#    0.000    0.400    0.000    4.200    0.000    2.200 
#
# Total GULP energy -991918.020434 kJ/mol
# GULP energy per Si atom -12398.975255 kJ/mol
# Density = 1.810398 g / cm^3
# Si number density = 18.145283 Si / 1000 Ang^3
#
#
#
# Elastic Constant Matrix: (Units=GPa)
#
#
# Indices 1 2 3 4 5 6 
#
# 1 55.7400 100.1777 59.1501 0.0000 0.0000 0.0000
# 2 100.1777 55.7365 59.1511 0.0000 0.0000 0.0000
# 3 59.1501 59.1511 130.7240 0.0000 0.0000 0.0000
# 4 0.0000 0.0000 0.0000 26.9898 0.0000 0.0000
# 5 0.0000 0.0000 0.0000 0.0000 26.9895 0.0000
# 6 0.0000 0.0000 0.0000 0.0000 0.0000 31.9929
#
#
#
# Elastic Compliance Matrix: (Units=1/GPa)
#
#
# Indices 1 2 3 4 5 6 
#
# 1 -0.006367 0.016135 -0.004420 0.000000 0.000000 0.000000
# 2 0.016135 -0.006368 -0.004419 0.000000 0.000000 0.000000
# 3 -0.004420 -0.004419 0.011649 0.000000 0.000000 0.000000
# 4 0.000000 0.000000 0.000000 0.037051 0.000000 0.000000
# 5 0.000000 0.000000 0.000000 0.000000 0.037051 0.000000
# 6 0.000000 0.000000 0.000000 0.000000 0.000000 0.031257
#
#
# Mechanical properties :
#
#
# Convention : Reuss Voigt Hill
#
# Bulk Modulus (GPa) = 74.04435 75.46204 74.75320
# Shear Modulus (GPa) = 53.08830 18.77589 35.93209
#
# Velocity S-wave (km/s) = 5.41487 3.22025 4.45482
# Velocity P-wave (km/s) = 8.94368 7.45014 8.23086
#
# Compressibility (1/GPa) = 0.01350542
#
# Stress axis : x y z
#
# Youngs Moduli (GPa) = -157.05153 -157.02801 85.84350
#
# Poissons Ratio (x) = 2.53360 0.37940
# Poissons Ratio (y) = 2.53398 0.37935
# Poissons Ratio (z) = -0.69412 -0.69392
#
# Static dielectric constant tensor:
#      x y z
#    x 3.276080 0.000000 0.000000 
#    y 0.000000 3.276080 0.000000 
#    z 0.000000 0.000000 3.464370 
# 
# 
# High freq. dielectric constant tensor:
#      x y z
#    x 1.686950 0.000000 0.000000 
#    y 0.000000 1.686950 0.000000 
#    z 0.000000 0.000000 1.713520 
# 
# From -- ./inp_files/2278.got.cif
#   From: 2010.03.12/outbox.cif.g09.slc.cpg/sg139_2_cif.got.tgz:2278.got - 2010.04.08 09:46:31.
