data_PCOD8319254
_publ_section_title
;
Structure prediction by ZEFSAII (Michael W. Deem and Ramdas Pophale) SiO2 
 PCOD8319254
Probable space group: I 4/M M M
;
_chemical_formula_sum "Si O2"
_cell_formula_units_Z 160
_cell_length_a 25.045684
_cell_length_b 25.045684
_cell_length_c 18.182041
_cell_angle_alpha 90.000000
_cell_angle_beta 90.000000
_cell_angle_gamma 90.000000
_cell_volume 11405.344989
_symmetry_space_group_name_H-M "I 4/M M M"
_symmetry_group_IT_number 139
_symmetry_cell_setting 'tetragonal'
loop_
_space_group_symop_operation_xyz
x,y,z
-y,x,z
-x,-y,z
y,-x,z
x,-y,-z
-x,y,-z
y,x,-z
-y,-x,-z
-x,-y,-z
y,-x,-z
x,y,-z
-y,x,-z
-x,y,z
x,-y,z
-y,-x,z
y,x,z
1/2+x,1/2+y,1/2+z
1/2-y,1/2+x,1/2+z
1/2-x,1/2-y,1/2+z
1/2+y,1/2-x,1/2+z
1/2+x,1/2-y,1/2-z
1/2-x,1/2+y,1/2-z
1/2+y,1/2+x,1/2-z
1/2-y,1/2-x,1/2-z
1/2-x,1/2-y,1/2-z
1/2+y,1/2-x,1/2-z
1/2+x,1/2+y,1/2-z
1/2-y,1/2+x,1/2-z
1/2-x,1/2+y,1/2+z
1/2+x,1/2-y,1/2+z
1/2-y,1/2-x,1/2+z
1/2+y,1/2+x,1/2+z
loop_
_atom_site_type_symbol
_atom_site_label
_atom_site_fract_x
_atom_site_fract_y
_atom_site_fract_z
Si Si1 0.116825 0.440220 0.187225
Si Si2 0.716924 0.058676 0.789090
Si Si3 0.773970 0.310389 0.919690
Si Si4 0.107859 0.342460 0.083964
Si Si5 0.835875 0.249372 0.266826
O O1 0.105180 0.500000 0.159064
O O2 0.073870 0.426131 0.250000
O O3 0.174795 0.435719 0.223429
O O4 0.115229 0.401733 0.116725
O O5 0.688953 0.063846 0.868643
O O6 0.757501 0.107661 0.775051
O O7 0.744593 0.000000 0.786440
O O8 0.750004 0.249996 0.913118
O O9 0.837653 0.308289 0.910729
O O10 0.747388 0.345779 0.855107
O O11 0.759402 0.335101 0.000000
O O12 0.088088 0.347531 0.000000
O O13 0.799279 0.200722 0.239306
O O14 0.806015 0.306015 0.250000
#
# Coordination Sequence:
#
# PCOD8319254 Si02
#       5
#    32  32  32  32  32
#     4   9  17  29  42  55  72  97 131 169 209 245
#     4  10  18  29  41  56  82 109 134 162 204 250
#     4   9  16  25  40  62  86 106 126 160 201 243
#     4  10  18  28  41  57  78 103 136 167 200 246
#     4  10  16  26  45  64  81 103 137 169 199 240
#
# _framework density 14.028510000000001
#
# number of rings (size 3 to 8) (size 9 to 14) (size 15 to 20)
#    0.000    2.400    4.000    0.600    0.000    1.000 
#    0.000    0.000    0.000    0.600    0.000    5.600 
#    0.000    0.400    0.000    0.000    0.000    0.000 
#
# Total GULP energy -991217.724327 kJ/mol
# GULP energy per Si atom -12390.221554 kJ/mol
# Density = 1.399658 g / cm^3
# Si number density = 14.028510 Si / 1000 Ang^3
#
#
#
# Elastic Constant Matrix: (Units=GPa)
#
#
# Indices 1 2 3 4 5 6 
#
# 1 66.6874 34.6355 27.0998 0.0000 0.0000 0.0000
# 2 34.6355 66.6870 27.1001 0.0000 0.0000 0.0000
# 3 27.0998 27.1001 94.5119 0.0000 0.0000 0.0000
# 4 0.0000 0.0000 0.0000 13.4384 0.0000 0.0000
# 5 0.0000 0.0000 0.0000 0.0000 13.4384 0.0000
# 6 0.0000 0.0000 0.0000 0.0000 0.0000 12.6104
#
#
#
# Elastic Compliance Matrix: (Units=1/GPa)
#
#
# Indices 1 2 3 4 5 6 
#
# 1 0.021428 -0.009771 -0.003343 0.000000 0.000000 0.000000
# 2 -0.009771 0.021429 -0.003343 0.000000 0.000000 0.000000
# 3 -0.003343 -0.003343 0.012498 0.000000 0.000000 0.000000
# 4 0.000000 0.000000 0.000000 0.074413 0.000000 0.000000
# 5 0.000000 0.000000 0.000000 0.000000 0.074414 0.000000
# 6 0.000000 0.000000 0.000000 0.000000 0.000000 0.079300
#
#
# Mechanical properties :
#
#
# Convention : Reuss Voigt Hill
#
# Bulk Modulus (GPa) = 44.55914 45.06192 44.81053
# Shear Modulus (GPa) = 15.43804 17.16748 16.30276
#
# Velocity S-wave (km/s) = 3.32094 3.50202 3.41268
# Velocity P-wave (km/s) = 6.82181 6.96732 6.89495
#
# Compressibility (1/GPa) = 0.02244208
#
# Stress axis : x y z
#
# Youngs Moduli (GPa) = 46.66692 46.66644 80.01550
#
# Poissons Ratio (x) = 0.45598 0.26746
# Poissons Ratio (y) = 0.45599 0.26747
# Poissons Ratio (z) = 0.15599 0.15599
#
# Static dielectric constant tensor:
#      x y z
#    x 2.615570 0.000000 0.000000 
#    y 0.000000 2.615570 0.000000 
#    z 0.000000 0.000000 3.022730 
# 
# 
# High freq. dielectric constant tensor:
#      x y z
#    x 1.502330 0.000000 0.000000 
#    y 0.000000 1.502330 0.000000 
#    z 0.000000 0.000000 1.551360 
# 
# From -- ./inp_files/8775.got.cif
#   From: 2010.03.12/outbox.cif.g09.slc.cpg/sg139_5_cif.got.tgz:8775.got - 2010.04.08 09:46:31.
