data_PCOD8319202
_publ_section_title
;
Structure prediction by ZEFSAII (Michael W. Deem and Ramdas Pophale) SiO2 
 PCOD8319202
Probable space group: P 42/N C M
;
_chemical_formula_sum "Si O2"
_cell_formula_units_Z 64
_cell_length_a 12.162058
_cell_length_b 12.162058
_cell_length_c 18.315933
_cell_angle_alpha 90.000000
_cell_angle_beta 90.000000
_cell_angle_gamma 90.000000
_cell_volume 2709.213223
_symmetry_space_group_name_H-M "P 42/N C M"
_symmetry_group_IT_number 138
_space_group.IT_coordinate_system_code '2'
_symmetry_cell_setting 'tetragonal'
loop_
_space_group_symop_operation_xyz
x,y,z
1/2-y,x,1/2+z
1/2-x,1/2-y,z
y,1/2-x,1/2+z
1/2+x,-y,1/2-z
-x,1/2+y,1/2-z
1/2+y,1/2+x,-z
-y,-x,-z
-x,-y,-z
1/2+y,-x,1/2-z
1/2+x,1/2+y,-z
-y,1/2+x,1/2-z
1/2-x,y,1/2+z
x,1/2-y,1/2+z
1/2-y,1/2-x,z
y,x,z
loop_
_atom_site_type_symbol
_atom_site_label
_atom_site_fract_x
_atom_site_fract_y
_atom_site_fract_z
Si Si1 0.388868 0.570048 0.260152
Si Si2 0.568541 0.751847 0.986903
Si Si3 0.739563 0.125388 0.372576
Si Si4 0.425759 0.257088 0.850715
O O1 0.493682 0.493682 0.260688
O O2 0.370516 0.616618 0.177914
O O3 0.408027 0.663106 0.319088
O O4 0.278890 0.504632 0.285212
O O5 0.632223 0.867778 0.973238
O O6 0.652315 0.652315 0.970867
O O7 0.461180 0.739004 0.937586
O O8 0.518876 0.743011 0.068776
O O9 0.750000 0.250000 0.402393
O O10 0.325312 0.174689 0.859245
O O11 0.377777 0.377777 0.830558
#
# Coordination Sequence:
#
# PCOD8319202 Si02
#       4
#    16  16  16  16
#     4  11  22  39  63  86 117 162 209 254 306 361
#     4   9  19  39  68  98 123 155 208 264 308 359
#     4  12  23  42  56  88 131 166 203 246 308 371
#     4   8  17  36  62  94 125 151 197 264 316 359
#
# _framework density 23.623094999999999
#
# number of rings (size 3 to 8) (size 9 to 14) (size 15 to 20)
#    0.000    2.000    2.500    3.000    0.000    3.000 
#    0.000   10.000    0.000    3.000    0.000    0.000 
#    0.000    0.000    0.000    0.000    0.000    0.000 
#
# Total GULP energy -793369.885996 kJ/mol
# GULP energy per Si atom -12396.404469 kJ/mol
# Density = 2.356933 g / cm^3
# Si number density = 23.623095 Si / 1000 Ang^3
#
#
#
# Elastic Constant Matrix: (Units=GPa)
#
#
# Indices 1 2 3 4 5 6 
#
# 1 86.7680 7.2179 29.8614 0.0000 0.0000 0.0000
# 2 7.2179 86.7680 29.8614 0.0000 0.0000 0.0000
# 3 29.8614 29.8614 107.7349 0.0000 0.0000 0.0000
# 4 0.0000 0.0000 0.0000 57.4349 0.0000 0.0000
# 5 0.0000 0.0000 0.0000 0.0000 57.4349 0.0000
# 6 0.0000 0.0000 0.0000 0.0000 0.0000 32.2662
#
#
#
# Elastic Compliance Matrix: (Units=1/GPa)
#
#
# Indices 1 2 3 4 5 6 
#
# 1 0.012743 0.000172 -0.003580 0.000000 0.000000 0.000000
# 2 0.000172 0.012743 -0.003580 0.000000 0.000000 0.000000
# 3 -0.003580 -0.003580 0.011266 0.000000 0.000000 0.000000
# 4 0.000000 0.000000 0.000000 0.017411 0.000000 0.000000
# 5 0.000000 0.000000 0.000000 0.000000 0.017411 0.000000
# 6 0.000000 0.000000 0.000000 0.000000 0.000000 0.030992
#
#
# Mechanical properties :
#
#
# Convention : Reuss Voigt Hill
#
# Bulk Modulus (GPa) = 43.90371 46.12800 45.01586
# Shear Modulus (GPa) = 40.27949 43.71587 41.99768
#
# Velocity S-wave (km/s) = 4.13375 4.30648 4.22100
# Velocity P-wave (km/s) = 6.43501 6.65558 6.54622
#
# Compressibility (1/GPa) = 0.02277712
#
# Stress axis : x y z
#
# Youngs Moduli (GPa) = 78.47689 78.47689 88.75970
#
# Poissons Ratio (x) = -0.01349 0.31772
# Poissons Ratio (y) = -0.01349 0.31772
# Poissons Ratio (z) = 0.28091 0.28091
#
# Static dielectric constant tensor:
#      x y z
#    x 4.445470 0.000000 0.000000 
#    y 0.000000 4.445470 0.000000 
#    z 0.000000 0.000000 4.246780 
# 
# 
# High freq. dielectric constant tensor:
#      x y z
#    x 1.947700 0.000000 0.000000 
#    y 0.000000 1.947700 0.000000 
#    z 0.000000 0.000000 1.930730 
# 
# From -- ./inp_files/5842.got.cif
#   From: 2010.03.12/outbox.cif.g09.slc.cpg/sg138_3_cif.got.tgz:5842.got - 2010.04.08 09:41:05.
