data_PCOD8319275
_publ_section_title
;
Structure prediction by ZEFSAII (Michael W. Deem and Ramdas Pophale) SiO2 
 PCOD8319275
Probable space group: I 4/M M M
;
_chemical_formula_sum "Si O2"
_cell_formula_units_Z 192
_cell_length_a 22.634898
_cell_length_b 22.634898
_cell_length_c 25.241863
_cell_angle_alpha 90.000000
_cell_angle_beta 90.000000
_cell_angle_gamma 90.000000
_cell_volume 12932.380939
_symmetry_space_group_name_H-M "I 4/M M M"
_symmetry_group_IT_number 139
_symmetry_cell_setting 'tetragonal'
loop_
_space_group_symop_operation_xyz
x,y,z
-y,x,z
-x,-y,z
y,-x,z
x,-y,-z
-x,y,-z
y,x,-z
-y,-x,-z
-x,-y,-z
y,-x,-z
x,y,-z
-y,x,-z
-x,y,z
x,-y,z
-y,-x,z
y,x,z
1/2+x,1/2+y,1/2+z
1/2-y,1/2+x,1/2+z
1/2-x,1/2-y,1/2+z
1/2+y,1/2-x,1/2+z
1/2+x,1/2-y,1/2-z
1/2-x,1/2+y,1/2-z
1/2+y,1/2+x,1/2-z
1/2-y,1/2-x,1/2-z
1/2-x,1/2-y,1/2-z
1/2+y,1/2-x,1/2-z
1/2+x,1/2+y,1/2-z
1/2-y,1/2+x,1/2-z
1/2-x,1/2+y,1/2+z
1/2+x,1/2-y,1/2+z
1/2-y,1/2-x,1/2+z
1/2+y,1/2+x,1/2+z
loop_
_atom_site_type_symbol
_atom_site_label
_atom_site_fract_x
_atom_site_fract_y
_atom_site_fract_z
Si Si1 0.838049 0.934255 0.758745
Si Si2 0.662839 0.566896 0.940231
Si Si3 0.567821 0.664138 0.560170
Si Si4 0.066654 0.761886 0.340763
Si Si5 0.626002 0.724572 0.347910
Si Si6 0.311362 0.785634 0.810772
O O1 0.894535 0.894535 0.769453
O O2 0.817987 0.929272 0.698057
O O3 0.783435 0.916267 0.796922
O O4 0.857725 0.000000 0.773299
O O5 0.639956 0.500000 0.934023
O O6 0.608188 0.608188 0.925404
O O7 0.717061 0.578759 0.900653
O O8 0.685663 0.579127 0.000000
O O9 0.576913 0.685721 0.500000
O O10 0.500000 0.648662 0.572070
O O11 0.604759 0.604759 0.571966
O O12 0.589381 0.717754 0.597629
O O13 0.119233 0.717454 0.324974
O O14 0.000000 0.733678 0.336090
O O15 0.675137 0.675137 0.343436
O O16 0.659871 0.787106 0.346198
O O17 0.276169 0.723832 0.822453
O O18 0.302557 0.802557 0.750000
#
# Coordination Sequence:
#
# PCOD8319275 Si02
#       6
#    32  32  32  32  32  32
#     4  10  18  27  40  59  86 116 145 178 214 251
#     4   9  17  28  41  57  80 112 147 180 212 247
#     4   9  17  29  44  63  92 128 161 191 220 252
#     4  10  19  30  44  63  87 110 139 181 225 266
#     4   9  17  28  42  61  83 110 147 189 224 255
#     4  10  17  28  47  66  86 114 148 181 220 273
#
# _framework density 14.846454
#
# number of rings (size 3 to 8) (size 9 to 14) (size 15 to 20)
#    0.000    2.500    1.667    2.000    0.000    0.500 
#    0.000    2.500    0.000    9.000    0.000    0.000 
#    0.000    5.667    0.000    1.833    0.000    0.000 
#
# Total GULP energy -1189853.586020 kJ/mol
# GULP energy per Si atom -12394.308188 kJ/mol
# Density = 1.481266 g / cm^3
# Si number density = 14.846454 Si / 1000 Ang^3
#
#
#
# Elastic Constant Matrix: (Units=GPa)
#
#
# Indices 1 2 3 4 5 6 
#
# 1 82.2233 49.4344 37.5915 0.0000 0.0000 0.0000
# 2 49.4344 82.2233 37.5915 0.0000 0.0000 0.0000
# 3 37.5915 37.5915 81.3737 0.0000 0.0000 0.0000
# 4 0.0000 0.0000 0.0000 20.0280 0.0000 0.0000
# 5 0.0000 0.0000 0.0000 0.0000 20.0280 0.0000
# 6 0.0000 0.0000 0.0000 0.0000 0.0000 21.5167
#
#
#
# Elastic Compliance Matrix: (Units=1/GPa)
#
#
# Indices 1 2 3 4 5 6 
#
# 1 0.020408 -0.010091 -0.004766 0.000000 0.000000 0.000000
# 2 -0.010091 0.020408 -0.004766 0.000000 0.000000 0.000000
# 3 -0.004766 -0.004766 0.016693 0.000000 0.000000 0.000000
# 4 0.000000 0.000000 0.000000 0.049930 0.000000 0.000000
# 5 0.000000 0.000000 0.000000 0.000000 0.049930 0.000000
# 6 0.000000 0.000000 0.000000 0.000000 0.000000 0.046476
#
#
# Mechanical properties :
#
#
# Convention : Reuss Voigt Hill
#
# Bulk Modulus (GPa) = 54.75759 55.00613 54.88186
# Shear Modulus (GPa) = 20.06609 20.39472 20.23040
#
# Velocity S-wave (km/s) = 3.68037 3.71038 3.69540
# Velocity P-wave (km/s) = 7.41773 7.44891 7.43334
#
# Compressibility (1/GPa) = 0.01826231
#
# Stress axis : x y z
#
# Youngs Moduli (GPa) = 49.00121 49.00121 59.90708
#
# Poissons Ratio (x) = 0.49445 0.28552
# Poissons Ratio (y) = 0.49445 0.28552
# Poissons Ratio (z) = 0.23355 0.23355
#
# Static dielectric constant tensor:
#      x y z
#    x 2.826510 0.000000 0.000000 
#    y 0.000000 2.826510 0.000000 
#    z 0.000000 0.000000 3.102480 
# 
# 
# High freq. dielectric constant tensor:
#      x y z
#    x 1.540620 0.000000 0.000000 
#    y 0.000000 1.540620 0.000000 
#    z 0.000000 0.000000 1.581140 
# 
# From -- ./inp_files/13313.got.cif
#   From: 2010.03.12/outbox.cif.g09.slc.cpg/sg139_7_cif.got.tgz:13313.got - 2010.04.08 09:46:31.
