data_PCOD8319151
_publ_section_title
;
Structure prediction by ZEFSAII (Michael W. Deem and Ramdas Pophale) SiO2 
 PCOD8319151
Probable space group: P 42/N C M
;
_chemical_formula_sum "Si O2"
_cell_formula_units_Z 112
_cell_length_a 13.739861
_cell_length_b 13.739861
_cell_length_c 25.953760
_cell_angle_alpha 90.000000
_cell_angle_beta 90.000000
_cell_angle_gamma 90.000000
_cell_volume 4899.648926
_symmetry_space_group_name_H-M "P 42/N C M"
_symmetry_group_IT_number 138
_space_group.IT_coordinate_system_code '2'
_symmetry_cell_setting 'tetragonal'
loop_
_space_group_symop_operation_xyz
x,y,z
1/2-y,x,1/2+z
1/2-x,1/2-y,z
y,1/2-x,1/2+z
1/2+x,-y,1/2-z
-x,1/2+y,1/2-z
1/2+y,1/2+x,-z
-y,-x,-z
-x,-y,-z
1/2+y,-x,1/2-z
1/2+x,1/2+y,-z
-y,1/2+x,1/2-z
1/2-x,y,1/2+z
x,1/2-y,1/2+z
1/2-y,1/2-x,z
y,x,z
loop_
_atom_site_type_symbol
_atom_site_label
_atom_site_fract_x
_atom_site_fract_y
_atom_site_fract_z
Si Si1 0.991355 0.660758 0.145726
Si Si2 0.547907 0.792380 0.450575
Si Si3 0.181463 0.539184 0.968836
Si Si4 0.369875 0.969809 0.329643
Si Si5 0.745514 0.901943 0.337646
Si Si6 0.167153 0.829806 0.918911
Si Si7 0.622323 0.459790 0.288061
O O1 0.007036 0.635725 0.085591
O O2 0.089069 0.631886 0.177507
O O3 0.899281 0.600720 0.166504
O O4 0.968430 0.773103 0.157242
O O5 0.605605 0.894396 0.461957
O O6 0.556615 0.715734 0.498173
O O7 0.588318 0.744164 0.399019
O O8 0.430097 0.796091 0.447176
O O9 0.281586 0.595163 0.956913
O O10 0.102937 0.602937 0.000000
O O11 0.462533 0.037468 0.341153
O O12 0.372440 0.875826 0.365770
O O13 0.369493 0.931022 0.271328
O O14 0.635089 0.864912 0.323742
O O15 0.819275 0.819275 0.319082
O O16 0.772002 0.002063 0.308364
O O17 0.250000 0.750000 0.906203
O O18 0.545233 0.545233 0.297485
#
# Coordination Sequence:
#
# PCOD8319151 Si02
#       7
#    16  16  16  16  16  16  16
#     4  10  23  41  63  92 128 169 208 255 320 390
#     4  11  23  37  62  91 121 165 213 261 323 384
#     4  11  22  38  60  87 122 161 209 261 317 383
#     4  10  23  42  64  92 128 166 214 269 321 387
#     4   9  19  36  60  91 124 160 207 261 315 377
#     4  11  23  40  63  87 123 163 209 268 321 383
#     4   9  19  39  62  87 123 165 209 259 313 380
#
# _framework density 22.858778999999998
#
# number of rings (size 3 to 8) (size 9 to 14) (size 15 to 20)
#    0.000    1.857    1.429    1.714    2.000    6.286 
#    0.000    4.286    0.000    0.000    0.000    0.000 
#    0.000    0.000    0.000    0.000    0.000    0.000 
#
# Total GULP energy -1387877.669816 kJ/mol
# GULP energy per Si atom -12391.764909 kJ/mol
# Density = 2.280675 g / cm^3
# Si number density = 22.858779 Si / 1000 Ang^3
#
#
#
# Elastic Constant Matrix: (Units=GPa)
#
#
# Indices 1 2 3 4 5 6 
#
# 1 65.2890 38.7788 36.7022 0.0000 0.0000 0.0000
# 2 38.7788 65.2890 36.7022 0.0000 0.0000 0.0000
# 3 36.7022 36.7022 144.5125 0.0000 0.0000 0.0000
# 4 0.0000 0.0000 0.0000 27.8721 0.0000 0.0000
# 5 0.0000 0.0000 0.0000 0.0000 27.8721 0.0000
# 6 0.0000 0.0000 0.0000 0.0000 0.0000 37.5710
#
#
#
# Elastic Compliance Matrix: (Units=1/GPa)
#
#
# Indices 1 2 3 4 5 6 
#
# 1 0.024714 -0.013008 -0.002973 0.000000 0.000000 0.000000
# 2 -0.013008 0.024714 -0.002973 0.000000 0.000000 0.000000
# 3 -0.002973 -0.002973 0.008430 0.000000 0.000000 0.000000
# 4 0.000000 0.000000 0.000000 0.035878 0.000000 0.000000
# 5 0.000000 0.000000 0.000000 0.000000 0.035878 0.000000
# 6 0.000000 0.000000 0.000000 0.000000 0.000000 0.026616
#
#
# Mechanical properties :
#
#
# Convention : Reuss Voigt Hill
#
# Bulk Modulus (GPa) = 50.12505 55.49521 52.81013
# Shear Modulus (GPa) = 24.90197 29.52354 27.21276
#
# Velocity S-wave (km/s) = 3.30416 3.59773 3.45407
# Velocity P-wave (km/s) = 6.04420 6.44890 6.24983
#
# Compressibility (1/GPa) = 0.01995011
#
# Stress axis : x y z
#
# Youngs Moduli (GPa) = 40.46334 40.46334 118.62456
#
# Poissons Ratio (x) = 0.52633 0.35268
# Poissons Ratio (y) = 0.52633 0.35268
# Poissons Ratio (z) = 0.12030 0.12030
#
# Static dielectric constant tensor:
#      x y z
#    x 4.106260 0.000000 0.000000 
#    y 0.000000 4.106260 0.000000 
#    z 0.000000 0.000000 4.231730 
# 
# 
# High freq. dielectric constant tensor:
#      x y z
#    x 1.892880 0.000000 0.000000 
#    y 0.000000 1.892880 0.000000 
#    z 0.000000 0.000000 1.914810 
# 
# From -- ./inp_files/7044.got.cif
#   From: 2010.03.12/outbox.cif.g09.slc.cpg/sg138_4_cif.got.tgz:7044.got - 2010.04.08 09:41:05.
