data_PCOD8319660
_publ_section_title
;
Structure prediction by ZEFSAII (Michael W. Deem and Ramdas Pophale) SiO2 
 PCOD8319660
Probable space group: I 4/M M M
;
_chemical_formula_sum "Si O2"
_cell_formula_units_Z 136
_cell_length_a 25.996475
_cell_length_b 25.996475
_cell_length_c 10.131387
_cell_angle_alpha 90.000000
_cell_angle_beta 90.000000
_cell_angle_gamma 90.000000
_cell_volume 6846.960655
_symmetry_space_group_name_H-M "I 4/M M M"
_symmetry_group_IT_number 139
_symmetry_cell_setting 'tetragonal'
loop_
_space_group_symop_operation_xyz
x,y,z
-y,x,z
-x,-y,z
y,-x,z
x,-y,-z
-x,y,-z
y,x,-z
-y,-x,-z
-x,-y,-z
y,-x,-z
x,y,-z
-y,x,-z
-x,y,z
x,-y,z
-y,-x,z
y,x,z
1/2+x,1/2+y,1/2+z
1/2-y,1/2+x,1/2+z
1/2-x,1/2-y,1/2+z
1/2+y,1/2-x,1/2+z
1/2+x,1/2-y,1/2-z
1/2-x,1/2+y,1/2-z
1/2+y,1/2+x,1/2-z
1/2-y,1/2-x,1/2-z
1/2-x,1/2-y,1/2-z
1/2+y,1/2-x,1/2-z
1/2+x,1/2+y,1/2-z
1/2-y,1/2+x,1/2-z
1/2-x,1/2+y,1/2+z
1/2+x,1/2-y,1/2+z
1/2-y,1/2-x,1/2+z
1/2+y,1/2+x,1/2+z
loop_
_atom_site_type_symbol
_atom_site_label
_atom_site_fract_x
_atom_site_fract_y
_atom_site_fract_z
Si Si1 0.301324 0.057674 0.500000
Si Si2 0.558414 0.941587 0.750000
Si Si3 0.631707 0.631707 0.756828
Si Si4 0.100372 0.259635 0.000000
Si Si5 0.058727 0.941274 0.352829
Si Si6 0.177753 0.822248 0.000000
Si Si7 0.220816 0.059308 0.275481
Si Si8 0.596421 0.117775 0.500000
O O1 0.269396 0.067152 0.368309
O O2 0.345646 0.099107 0.500000
O O3 0.324360 0.000000 0.500000
O O4 0.500000 0.933394 0.800466
O O5 0.567661 0.902353 0.630190
O O6 0.588433 0.588433 0.738023
O O7 0.650758 0.650758 0.619676
O O8 0.678847 0.601337 0.828363
O O9 0.160759 0.238300 0.000000
O O10 0.070484 0.237892 0.873737
O O11 0.098777 0.320806 0.000000
O O12 0.076382 0.923619 0.500000
O O13 0.000000 0.928702 0.333180
O O14 0.200594 0.000000 0.286456
#
# Coordination Sequence:
#
# PCOD8319660 Si02
#       8
#    16  16  16  16  16   8  32  16
#     4  10  22  38  55  84 118 144 181 235 284 328
#     4  11  24  40  60  91 126 156 184 219 272 338
#     4  10  19  34  56  76 106 147 190 228 285 338
#     4  10  21  38  60  82 106 148 195 232 287 342
#     4   9  18  30  46  73 107 140 180 228 276 336
#     4   8  20  40  54  77 108 138 184 248 284 331
#     4  10  21  36  56  82 114 148 188 238 285 337
#     4  12  23  39  65  88 114 154 192 232 277 333
#
# _framework density 19.862829000000001
#
# number of rings (size 3 to 8) (size 9 to 14) (size 15 to 20)
#    0.000    1.882    0.000    4.235    1.647    4.706 
#    0.000    2.941    0.000    5.647    0.000    0.000 
#    0.000    0.000    0.000    0.000    0.000    0.000 
#
# Total GULP energy -842461.694218 kJ/mol
# GULP energy per Si atom -12389.142562 kJ/mol
# Density = 1.981762 g / cm^3
# Si number density = 19.862829 Si / 1000 Ang^3
#
#
#
# Elastic Constant Matrix: (Units=GPa)
#
#
# Indices 1 2 3 4 5 6 
#
# 1 70.5611 109.2745 20.7448 0.0000 0.0000 0.0000
# 2 109.2745 70.5683 20.7461 0.0000 0.0000 0.0000
# 3 20.7448 20.7461 69.2648 0.0000 0.0000 0.0000
# 4 0.0000 0.0000 0.0000 36.2935 0.0000 0.0000
# 5 0.0000 0.0000 0.0000 0.0000 36.3026 0.0000
# 6 0.0000 0.0000 0.0000 0.0000 0.0000 33.9876
#
#
#
# Elastic Compliance Matrix: (Units=1/GPa)
#
#
# Indices 1 2 3 4 5 6 
#
# 1 -0.009930 0.015903 -0.001789 0.000000 0.000000 0.000000
# 2 0.015903 -0.009929 -0.001789 0.000000 0.000000 0.000000
# 3 -0.001789 -0.001789 0.015509 0.000000 0.000000 0.000000
# 4 0.000000 0.000000 0.000000 0.027553 0.000000 0.000000
# 5 0.000000 0.000000 0.000000 0.000000 0.027546 0.000000
# 6 0.000000 0.000000 0.000000 0.000000 0.000000 0.029423
#
#
# Mechanical properties :
#
#
# Convention : Reuss Voigt Hill
#
# Bulk Modulus (GPa) = 49.26263 56.88057 53.07160
# Shear Modulus (GPa) = 80.27341 25.29198 52.78269
#
# Velocity S-wave (km/s) = 6.36409 3.57225 5.16055
# Velocity P-wave (km/s) = 8.88017 6.76117 7.89211
#
# Compressibility (1/GPa) = 0.02029936
#
# Stress axis : x y z
#
# Youngs Moduli (GPa) = -100.70006 -100.71016 64.47858
#
# Poissons Ratio (x) = 1.60162 0.11536
# Poissons Ratio (y) = 1.60146 0.11535
# Poissons Ratio (z) = -0.18017 -0.18017
#
# Static dielectric constant tensor:
#      x y z
#    x 3.826920 0.000000 0.000000 
#    y 0.000000 3.826900 0.000000 
#    z 0.000000 0.000000 3.644450 
# 
# 
# High freq. dielectric constant tensor:
#      x y z
#    x 1.778660 0.000000 0.000000 
#    y 0.000000 1.778660 0.000000 
#    z 0.000000 0.000000 1.773990 
# 
# From -- ./inp_files/3639.got.cif
#   From: 2010.03.12/outbox.cif.g09.slc.cpg/sg139_2_cif.got.tgz:3639.got - 2010.04.08 09:46:31.
