data_PCOD8319277
_publ_section_title
;
Structure prediction by ZEFSAII (Michael W. Deem and Ramdas Pophale) SiO2 
 PCOD8319277
Probable space group: I 4/M M M
;
_chemical_formula_sum "Si O2"
_cell_formula_units_Z 136
_cell_length_a 18.084754
_cell_length_b 18.084754
_cell_length_c 24.000837
_cell_angle_alpha 90.000000
_cell_angle_beta 90.000000
_cell_angle_gamma 90.000000
_cell_volume 7849.673602
_symmetry_space_group_name_H-M "I 4/M M M"
_symmetry_group_IT_number 139
_symmetry_cell_setting 'tetragonal'
loop_
_space_group_symop_operation_xyz
x,y,z
-y,x,z
-x,-y,z
y,-x,z
x,-y,-z
-x,y,-z
y,x,-z
-y,-x,-z
-x,-y,-z
y,-x,-z
x,y,-z
-y,x,-z
-x,y,z
x,-y,z
-y,-x,z
y,x,z
1/2+x,1/2+y,1/2+z
1/2-y,1/2+x,1/2+z
1/2-x,1/2-y,1/2+z
1/2+y,1/2-x,1/2+z
1/2+x,1/2-y,1/2-z
1/2-x,1/2+y,1/2-z
1/2+y,1/2+x,1/2-z
1/2-y,1/2-x,1/2-z
1/2-x,1/2-y,1/2-z
1/2+y,1/2-x,1/2-z
1/2+x,1/2+y,1/2-z
1/2-y,1/2+x,1/2-z
1/2-x,1/2+y,1/2+z
1/2+x,1/2-y,1/2+z
1/2-y,1/2-x,1/2+z
1/2+y,1/2+x,1/2+z
loop_
_atom_site_type_symbol
_atom_site_label
_atom_site_fract_x
_atom_site_fract_y
_atom_site_fract_z
Si Si1 0.809156 0.584896 0.218881
Si Si2 0.805842 0.500000 0.500000
Si Si3 0.086391 0.500000 0.602687
Si Si4 0.663154 0.145066 0.880538
Si Si5 0.215603 0.339259 0.500000
Si Si6 0.797588 0.915267 0.818385
O O1 0.827822 0.500000 0.206692
O O2 0.879020 0.620981 0.250000
O O3 0.792773 0.628754 0.160607
O O4 0.736678 0.592762 0.256907
O O5 0.861627 0.500000 0.550035
O O6 0.756370 0.574766 0.500000
O O7 0.109358 0.424868 0.634042
O O8 0.000000 0.500000 0.587978
O O9 0.746821 0.124835 0.864377
O O10 0.664468 0.173313 0.944812
O O11 0.285641 0.285641 0.500000
O O12 0.877573 0.877573 0.818552
O O13 0.807306 0.000000 0.836103
#
# Coordination Sequence:
#
# PCOD8319277 Si02
#       6
#    32   8  16  32  16  32
#     4   9  19  32  49  74 102 131 164 199 247 304
#     4   8  19  32  44  69  96 120 166 208 237 292
#     4  10  17  28  48  68  98 132 158 195 240 291
#     4  10  19  33  48  73 102 129 168 204 244 302
#     4  10  20  33  51  69  93 133 169 204 248 297
#     4  10  20  35  52  71  97 127 167 216 258 301
#
# _framework density 17.325562000000001
#
# number of rings (size 3 to 8) (size 9 to 14) (size 15 to 20)
#    0.000    2.353    1.176    1.588    1.647    5.647 
#    0.000    1.765    0.000    0.176    0.000    0.000 
#    0.000    0.000    0.000    0.000    0.000   18.824 
#
# Total GULP energy -842686.747125 kJ/mol
# GULP energy per Si atom -12392.452164 kJ/mol
# Density = 1.728613 g / cm^3
# Si number density = 17.325562 Si / 1000 Ang^3
#
#
#
# Elastic Constant Matrix: (Units=GPa)
#
#
# Indices 1 2 3 4 5 6 
#
# 1 52.5131 42.1915 17.8224 0.0000 0.0000 0.0000
# 2 42.1915 52.5129 17.8218 0.0000 0.0000 0.0000
# 3 17.8224 17.8218 114.5130 0.0000 0.0000 0.0000
# 4 0.0000 0.0000 0.0000 17.2621 0.0000 0.0000
# 5 0.0000 0.0000 0.0000 0.0000 17.2620 0.0000
# 6 0.0000 0.0000 0.0000 0.0000 0.0000 30.4106
#
#
#
# Elastic Compliance Matrix: (Units=1/GPa)
#
#
# Indices 1 2 3 4 5 6 
#
# 1 0.054051 -0.042835 -0.001746 0.000000 0.000000 0.000000
# 2 -0.042835 0.054051 -0.001745 0.000000 0.000000 0.000000
# 3 -0.001746 -0.001745 0.009276 0.000000 0.000000 0.000000
# 4 0.000000 0.000000 0.000000 0.057930 0.000000 0.000000
# 5 0.000000 0.000000 0.000000 0.000000 0.057931 0.000000
# 6 0.000000 0.000000 0.000000 0.000000 0.000000 0.032883
#
#
# Mechanical properties :
#
#
# Convention : Reuss Voigt Hill
#
# Bulk Modulus (GPa) = 40.44350 41.69004 41.06677
# Shear Modulus (GPa) = 13.62341 22.43382 18.02861
#
# Velocity S-wave (km/s) = 2.80718 3.60229 3.22930
# Velocity P-wave (km/s) = 5.82245 6.43560 6.13669
#
# Compressibility (1/GPa) = 0.02472586
#
# Stress axis : x y z
#
# Youngs Moduli (GPa) = 18.50115 18.50115 107.80522
#
# Poissons Ratio (x) = 0.79249 0.18822
# Poissons Ratio (y) = 0.79249 0.18816
# Poissons Ratio (z) = 0.03230 0.03229
#
# Static dielectric constant tensor:
#      x y z
#    x 3.131370 0.000000 0.000000 
#    y 0.000000 3.131370 0.000000 
#    z 0.000000 0.000000 3.465140 
# 
# 
# High freq. dielectric constant tensor:
#      x y z
#    x 1.644710 0.000000 0.000000 
#    y 0.000000 1.644710 0.000000 
#    z 0.000000 0.000000 1.683790 
# 
# From -- ./inp_files/11556.got.cif
#   From: 2010.03.12/outbox.cif.g09.slc.cpg/sg139_6_cif.got.tgz:11556.got - 2010.04.08 09:46:31.
