data_PCOD8319272
_publ_section_title
;
Structure prediction by ZEFSAII (Michael W. Deem and Ramdas Pophale) SiO2 
 PCOD8319272
Probable space group: I 4/M M M
;
_chemical_formula_sum "Si O2"
_cell_formula_units_Z 240
_cell_length_a 23.368344
_cell_length_b 23.368344
_cell_length_c 29.831137
_cell_angle_alpha 90.000000
_cell_angle_beta 90.000000
_cell_angle_gamma 90.000000
_cell_volume 16290.172416
_symmetry_space_group_name_H-M "I 4/M M M"
_symmetry_group_IT_number 139
_symmetry_cell_setting 'tetragonal'
loop_
_space_group_symop_operation_xyz
x,y,z
-y,x,z
-x,-y,z
y,-x,z
x,-y,-z
-x,y,-z
y,x,-z
-y,-x,-z
-x,-y,-z
y,-x,-z
x,y,-z
-y,x,-z
-x,y,z
x,-y,z
-y,-x,z
y,x,z
1/2+x,1/2+y,1/2+z
1/2-y,1/2+x,1/2+z
1/2-x,1/2-y,1/2+z
1/2+y,1/2-x,1/2+z
1/2+x,1/2-y,1/2-z
1/2-x,1/2+y,1/2-z
1/2+y,1/2+x,1/2-z
1/2-y,1/2-x,1/2-z
1/2-x,1/2-y,1/2-z
1/2+y,1/2-x,1/2-z
1/2+x,1/2+y,1/2-z
1/2-y,1/2+x,1/2-z
1/2-x,1/2+y,1/2+z
1/2+x,1/2-y,1/2+z
1/2-y,1/2-x,1/2+z
1/2+y,1/2+x,1/2+z
loop_
_atom_site_type_symbol
_atom_site_label
_atom_site_fract_x
_atom_site_fract_y
_atom_site_fract_z
Si Si1 0.293163 0.802926 0.450048
Si Si2 0.438119 0.349173 0.246168
Si Si3 0.292979 0.388197 0.087047
Si Si4 0.689691 0.784955 0.198731
Si Si5 0.564292 0.748957 0.176347
Si Si6 0.342656 0.563351 0.000000
Si Si7 0.434447 0.656980 0.650129
Si Si8 0.754756 0.850266 0.125440
O O1 0.313907 0.820606 0.500000
O O2 0.245474 0.754526 0.454509
O O3 0.266212 0.855672 0.422985
O O4 0.346982 0.781480 0.420689
O O5 0.500000 0.379155 0.242834
O O6 0.392390 0.392390 0.225537
O O7 0.436421 0.291820 0.218668
O O8 0.424693 0.334132 0.297255
O O9 0.344204 0.344204 0.096676
O O10 0.285308 0.428991 0.129822
O O11 0.304752 0.426758 0.043861
O O12 0.723601 0.723601 0.190400
O O13 0.696571 0.803430 0.250000
O O14 0.622280 0.785442 0.184757
O O15 0.716492 0.835133 0.168598
O O16 0.500000 0.779431 0.175072
O O17 0.367056 0.500000 0.000000
O O18 0.396825 0.603176 0.000000
O O19 0.500000 0.646748 0.636438
O O20 0.398173 0.601828 0.633511
O O21 0.412907 0.716621 0.628279
O O22 0.805797 0.805797 0.123553
#
# Coordination Sequence:
#
# PCOD8319272 Si02
#       8
#    32  32  32  32  32  16  32  32
#     4   9  15  25  42  63  83 106 138 178 223 268
#     4   9  17  27  38  53  76 108 146 184 216 248
#     4  10  17  28  44  59  80 110 146 185 226 274
#     4  10  18  28  44  63  84 113 148 182 222 274
#     4  11  20  28  40  60  87 114 140 176 224 274
#     4  10  20  31  42  56  76 110 155 197 234 270
#     4   9  17  29  44  64  91 121 152 182 212 250
#     4   9  16  26  42  63  86 111 141 179 219 259
#
# _framework density 14.732809
#
# number of rings (size 3 to 8) (size 9 to 14) (size 15 to 20)
#    0.000    2.400    2.000    2.400    0.000    2.467 
#    0.000    1.333    0.000    0.400    0.000    1.867 
#    0.000    1.867    0.000    5.200    0.000    2.400 
#
# Total GULP energy -1486666.566694 kJ/mol
# GULP energy per Si atom -12388.888056 kJ/mol
# Density = 1.469928 g / cm^3
# Si number density = 14.732809 Si / 1000 Ang^3
#
#
#
# Elastic Constant Matrix: (Units=GPa)
#
#
# Indices 1 2 3 4 5 6 
#
# 1 64.2430 35.5845 14.4515 0.0000 0.0000 0.0000
# 2 35.5845 64.2439 14.4519 0.0000 0.0000 0.0000
# 3 14.4515 14.4519 41.8698 0.0000 0.0000 0.0000
# 4 0.0000 0.0000 0.0000 13.9791 0.0000 0.0000
# 5 0.0000 0.0000 0.0000 0.0000 13.9789 0.0000
# 6 0.0000 0.0000 0.0000 0.0000 0.0000 8.8155
#
#
#
# Elastic Compliance Matrix: (Units=1/GPa)
#
#
# Indices 1 2 3 4 5 6 
#
# 1 0.023011 -0.011882 -0.003841 0.000000 0.000000 0.000000
# 2 -0.011882 0.023011 -0.003842 0.000000 0.000000 0.000000
# 3 -0.003841 -0.003842 0.026535 0.000000 0.000000 0.000000
# 4 0.000000 0.000000 0.000000 0.071535 0.000000 0.000000
# 5 0.000000 0.000000 0.000000 0.000000 0.071537 0.000000
# 6 0.000000 0.000000 0.000000 0.000000 0.000000 0.113437
#
#
# Mechanical properties :
#
#
# Convention : Reuss Voigt Hill
#
# Bulk Modulus (GPa) = 29.91454 33.25917 31.58686
# Shear Modulus (GPa) = 13.18084 14.41262 13.79673
#
# Velocity S-wave (km/s) = 2.99433 3.13112 3.06349
# Velocity P-wave (km/s) = 5.68361 5.97459 5.83092
#
# Compressibility (1/GPa) = 0.03342856
#
# Stress axis : x y z
#
# Youngs Moduli (GPa) = 43.45675 43.45716 37.68560
#
# Poissons Ratio (x) = 0.51635 0.14476
# Poissons Ratio (y) = 0.51635 0.14477
# Poissons Ratio (z) = 0.16693 0.16694
#
# Static dielectric constant tensor:
#      x y z
#    x 2.862730 0.000000 0.000000 
#    y 0.000000 2.862730 0.000000 
#    z 0.000000 0.000000 3.040820 
# 
# 
# High freq. dielectric constant tensor:
#      x y z
#    x 1.534190 0.000000 0.000000 
#    y 0.000000 1.534190 0.000000 
#    z 0.000000 0.000000 1.572480 
# 
# From -- ./inp_files/14778.got.cif
#   From: 2010.03.12/outbox.cif.g09.slc.cpg/sg139_8_cif.got.tgz:14778.got - 2010.04.08 09:46:31.
