data_PCOD8319498
_publ_section_title
;
Structure prediction by ZEFSAII (Michael W. Deem and Ramdas Pophale) SiO2 
 PCOD8319498
Probable space group: I 4/M M M
;
_chemical_formula_sum "Si O2"
_cell_formula_units_Z 160
_cell_length_a 17.980544
_cell_length_b 17.980544
_cell_length_c 27.917836
_cell_angle_alpha 90.000000
_cell_angle_beta 90.000000
_cell_angle_gamma 90.000000
_cell_volume 9025.835333
_symmetry_space_group_name_H-M "I 4/M M M"
_symmetry_group_IT_number 139
_symmetry_cell_setting 'tetragonal'
loop_
_space_group_symop_operation_xyz
x,y,z
-y,x,z
-x,-y,z
y,-x,z
x,-y,-z
-x,y,-z
y,x,-z
-y,-x,-z
-x,-y,-z
y,-x,-z
x,y,-z
-y,x,-z
-x,y,z
x,-y,z
-y,-x,z
y,x,z
1/2+x,1/2+y,1/2+z
1/2-y,1/2+x,1/2+z
1/2-x,1/2-y,1/2+z
1/2+y,1/2-x,1/2+z
1/2+x,1/2-y,1/2-z
1/2-x,1/2+y,1/2-z
1/2+y,1/2+x,1/2-z
1/2-y,1/2-x,1/2-z
1/2-x,1/2-y,1/2-z
1/2+y,1/2-x,1/2-z
1/2+x,1/2+y,1/2-z
1/2-y,1/2+x,1/2-z
1/2-x,1/2+y,1/2+z
1/2+x,1/2-y,1/2+z
1/2-y,1/2-x,1/2+z
1/2+y,1/2+x,1/2+z
loop_
_atom_site_type_symbol
_atom_site_label
_atom_site_fract_x
_atom_site_fract_y
_atom_site_fract_z
Si Si1 0.416364 0.805646 0.642240
Si Si2 0.770919 0.652322 0.810835
Si Si3 0.806051 0.682966 0.445555
Si Si4 0.200286 0.917595 0.775825
Si Si5 0.295481 0.413937 0.900380
O O1 0.500000 0.840989 0.643124
O O2 0.356462 0.854311 0.672086
O O3 0.389842 0.796486 0.587573
O O4 0.418430 0.726122 0.668977
O O5 0.736630 0.736630 0.816891
O O6 0.762258 0.626108 0.755908
O O7 0.722568 0.597339 0.844230
O O8 0.811921 0.655241 0.500000
O O9 0.734990 0.734990 0.437110
O O10 0.880180 0.728121 0.431822
O O11 0.120720 0.879281 0.771396
O O12 0.191368 0.000000 0.755252
O O13 0.304623 0.500000 0.913176
O O14 0.372275 0.372275 0.913764
#
# Coordination Sequence:
#
# PCOD8319498 Si02
#       5
#    32  32  32  32  32
#     4  10  19  30  48  73  95 117 154 204 249 284
#     4   9  17  31  49  68  95 132 168 196 224 269
#     4   9  18  33  51  68  90 124 162 198 238 286
#     4  10  19  30  48  74 102 132 162 191 228 275
#     4   9  17  29  47  72  99 127 159 192 230 278
#
# _framework density 17.726891999999999
#
# number of rings (size 3 to 8) (size 9 to 14) (size 15 to 20)
#    0.000    2.600    0.000    4.200    0.000    2.800 
#    0.000    0.000    0.000   18.600    0.000   22.400 
#    0.000    0.000    0.000   31.200    0.000    0.000 
#
# Total GULP energy -991515.459135 kJ/mol
# GULP energy per Si atom -12393.943239 kJ/mol
# Density = 1.768654 g / cm^3
# Si number density = 17.726892 Si / 1000 Ang^3
#
#
#
# Elastic Constant Matrix: (Units=GPa)
#
#
# Indices 1 2 3 4 5 6 
#
# 1 120.2627 42.6308 39.0807 0.0000 0.0000 0.0000
# 2 42.6308 120.2627 39.0807 0.0000 0.0000 0.0000
# 3 39.0807 39.0807 116.9179 0.0000 0.0000 0.0000
# 4 0.0000 0.0000 0.0000 19.4348 0.0000 0.0000
# 5 0.0000 0.0000 0.0000 0.0000 19.4348 0.0000
# 6 0.0000 0.0000 0.0000 0.0000 0.0000 13.0659
#
#
#
# Elastic Compliance Matrix: (Units=1/GPa)
#
#
# Indices 1 2 3 4 5 6 
#
# 1 0.010096 -0.002785 -0.002444 0.000000 0.000000 0.000000
# 2 -0.002785 0.010096 -0.002444 0.000000 0.000000 0.000000
# 3 -0.002444 -0.002444 0.010187 0.000000 0.000000 0.000000
# 4 0.000000 0.000000 0.000000 0.051454 0.000000 0.000000
# 5 0.000000 0.000000 0.000000 0.000000 0.051454 0.000000
# 6 0.000000 0.000000 0.000000 0.000000 0.000000 0.076535
#
#
# Mechanical properties :
#
#
# Convention : Reuss Voigt Hill
#
# Bulk Modulus (GPa) = 66.51469 66.55863 66.53666
# Shear Modulus (GPa) = 21.72210 26.16383 23.94296
#
# Velocity S-wave (km/s) = 3.50433 3.84596 3.67912
# Velocity P-wave (km/s) = 7.34692 7.57299 7.46081
#
# Compressibility (1/GPa) = 0.01503427
#
# Stress axis : x y z
#
# Youngs Moduli (GPa) = 99.04433 99.04433 98.16574
#
# Poissons Ratio (x) = 0.27582 0.23992
# Poissons Ratio (y) = 0.27582 0.23992
# Poissons Ratio (z) = 0.24206 0.24206
#
# Static dielectric constant tensor:
#      x y z
#    x 3.120330 0.000000 0.000000 
#    y 0.000000 3.120330 0.000000 
#    z 0.000000 0.000000 3.424080 
# 
# 
# High freq. dielectric constant tensor:
#      x y z
#    x 1.663900 0.000000 0.000000 
#    y 0.000000 1.663900 0.000000 
#    z 0.000000 0.000000 1.691710 
# 
# From -- ./inp_files/12901.got.cif
#   From: 2010.03.12/outbox.cif.g09.slc.cpg/sg139_7_cif.got.tgz:12901.got - 2010.04.08 09:46:31.
