data_PCOD8319617
_publ_section_title
;
Structure prediction by ZEFSAII (Michael W. Deem and Ramdas Pophale) SiO2 
 PCOD8319617
Probable space group: I 4/M M M
;
_chemical_formula_sum "Si O2"
_cell_formula_units_Z 160
_cell_length_a 31.933828
_cell_length_b 31.933828
_cell_length_c 8.734152
_cell_angle_alpha 90.000000
_cell_angle_beta 90.000000
_cell_angle_gamma 90.000000
_cell_volume 8906.820689
_symmetry_space_group_name_H-M "I 4/M M M"
_symmetry_group_IT_number 139
_symmetry_cell_setting 'tetragonal'
loop_
_space_group_symop_operation_xyz
x,y,z
-y,x,z
-x,-y,z
y,-x,z
x,-y,-z
-x,y,-z
y,x,-z
-y,-x,-z
-x,-y,-z
y,-x,-z
x,y,-z
-y,x,-z
-x,y,z
x,-y,z
-y,-x,z
y,x,z
1/2+x,1/2+y,1/2+z
1/2-y,1/2+x,1/2+z
1/2-x,1/2-y,1/2+z
1/2+y,1/2-x,1/2+z
1/2+x,1/2-y,1/2-z
1/2-x,1/2+y,1/2-z
1/2+y,1/2+x,1/2-z
1/2-y,1/2-x,1/2-z
1/2-x,1/2-y,1/2-z
1/2+y,1/2-x,1/2-z
1/2+x,1/2+y,1/2-z
1/2-y,1/2+x,1/2-z
1/2-x,1/2+y,1/2+z
1/2+x,1/2-y,1/2+z
1/2-y,1/2-x,1/2+z
1/2+y,1/2+x,1/2+z
loop_
_atom_site_type_symbol
_atom_site_label
_atom_site_fract_x
_atom_site_fract_y
_atom_site_fract_z
Si Si1 0.111009 0.326332 0.181437
Si Si2 0.894792 0.105209 0.829056
Si Si3 0.175540 0.175540 0.826444
Si Si4 0.389950 0.048564 0.319751
Si Si5 0.235752 0.114313 0.319009
Si Si6 0.332923 0.547132 0.180080
O O1 0.152854 0.347147 0.250000
O O2 0.070030 0.349877 0.243015
O O3 0.107492 0.278832 0.232776
O O4 0.112789 0.329525 0.000000
O O5 0.859589 0.140412 0.824511
O O6 0.876728 0.064009 0.747176
O O7 0.907314 0.092687 0.000000
O O8 0.158214 0.215995 0.736905
O O9 0.187839 0.187839 0.000000
O O10 0.388787 0.057136 0.500000
O O11 0.432456 0.067545 0.250000
O O12 0.388649 0.000000 0.279256
O O13 0.242808 0.115899 0.500000
O O14 0.206201 0.075649 0.268707
O O15 0.325052 0.500000 0.239821
O O16 0.337761 0.548472 0.000000
#
# Coordination Sequence:
#
# PCOD8319617 Si02
#       6
#    32  16  16  32  32  32
#     4  11  22  37  56  77 104 139 175 211 255 307
#     4   9  17  29  47  71 101 135 167 206 254 300
#     4   9  17  31  50  74 102 134 173 212 254 304
#     4  10  21  37  57  80 106 137 173 213 257 306
#     4  10  19  33  53  77 105 136 171 213 259 305
#     4   9  18  32  51  75 102 134 171 208 248 299
#
# _framework density 17.963761000000002
#
# number of rings (size 3 to 8) (size 9 to 14) (size 15 to 20)
#    0.000    2.200    0.000    4.800    0.000    6.200 
#    0.000    3.500    0.000    0.300    0.000    2.100 
#    0.000    0.000    0.000    0.000    0.000    0.000 
#
# Total GULP energy -992087.848448 kJ/mol
# GULP energy per Si atom -12401.098106 kJ/mol
# Density = 1.792287 g / cm^3
# Si number density = 17.963761 Si / 1000 Ang^3
#
#
#
# Elastic Constant Matrix: (Units=GPa)
#
#
# Indices 1 2 3 4 5 6 
#
# 1 100.0337 98.0795 56.4602 0.0000 0.0000 0.0000
# 2 98.0795 100.0594 56.4707 0.0000 0.0000 0.0000
# 3 56.4602 56.4707 101.7157 0.0000 0.0000 0.0000
# 4 0.0000 0.0000 0.0000 29.8100 0.0000 0.0000
# 5 0.0000 0.0000 0.0000 0.0000 29.8095 0.0000
# 6 0.0000 0.0000 0.0000 0.0000 0.0000 14.4034
#
#
#
# Elastic Compliance Matrix: (Units=1/GPa)
#
#
# Indices 1 2 3 4 5 6 
#
# 1 0.257904 -0.250493 -0.004087 0.000000 0.000000 0.000000
# 2 -0.250493 0.257851 -0.004110 0.000000 0.000000 0.000000
# 3 -0.004087 -0.004110 0.014382 0.000000 0.000000 0.000000
# 4 0.000000 0.000000 0.000000 0.033546 0.000000 0.000000
# 5 0.000000 0.000000 0.000000 0.000000 0.033546 0.000000
# 6 0.000000 0.000000 0.000000 0.000000 0.000000 0.069428
#
#
# Mechanical properties :
#
#
# Convention : Reuss Voigt Hill
#
# Bulk Modulus (GPa) = 78.40734 80.42550 79.41642
# Shear Modulus (GPa) = 4.20773 20.85780 12.53276
#
# Velocity S-wave (km/s) = 1.53213 3.41119 2.64421
# Velocity P-wave (km/s) = 6.84632 7.77066 7.32309
#
# Compressibility (1/GPa) = 0.01275391
#
# Stress axis : x y z
#
# Youngs Moduli (GPa) = 3.87742 3.87821 69.53060
#
# Poissons Ratio (x) = 0.97147 0.28419
# Poissons Ratio (y) = 0.97127 0.28580
# Poissons Ratio (z) = 0.01585 0.01594
#
# Static dielectric constant tensor:
#      x y z
#    x 3.363350 0.000000 0.000000 
#    y 0.000000 3.363340 0.000000 
#    z 0.000000 0.000000 3.449100 
# 
# 
# High freq. dielectric constant tensor:
#      x y z
#    x 1.687870 0.000000 0.000000 
#    y 0.000000 1.687870 0.000000 
#    z 0.000000 0.000000 1.710050 
# 
# From -- ./inp_files/2208.got.cif
#   From: 2010.03.12/outbox.cif.g09.slc.cpg/sg139_2_cif.got.tgz:2208.got - 2010.04.08 09:46:31.
