data_PCOD8319835
_publ_section_title
;
Structure prediction by ZEFSAII (Michael W. Deem and Ramdas Pophale) SiO2 
 PCOD8319835
Probable space group: I 4/M M M
;
_chemical_formula_sum "Si O2"
_cell_formula_units_Z 136
_cell_length_a 18.577669
_cell_length_b 18.577669
_cell_length_c 20.990510
_cell_angle_alpha 90.000000
_cell_angle_beta 90.000000
_cell_angle_gamma 90.000000
_cell_volume 7244.450213
_symmetry_space_group_name_H-M "I 4/M M M"
_symmetry_group_IT_number 139
_symmetry_cell_setting 'tetragonal'
loop_
_space_group_symop_operation_xyz
x,y,z
-y,x,z
-x,-y,z
y,-x,z
x,-y,-z
-x,y,-z
y,x,-z
-y,-x,-z
-x,-y,-z
y,-x,-z
x,y,-z
-y,x,-z
-x,y,z
x,-y,z
-y,-x,z
y,x,z
1/2+x,1/2+y,1/2+z
1/2-y,1/2+x,1/2+z
1/2-x,1/2-y,1/2+z
1/2+y,1/2-x,1/2+z
1/2+x,1/2-y,1/2-z
1/2-x,1/2+y,1/2-z
1/2+y,1/2+x,1/2-z
1/2-y,1/2-x,1/2-z
1/2-x,1/2-y,1/2-z
1/2+y,1/2-x,1/2-z
1/2+x,1/2+y,1/2-z
1/2-y,1/2+x,1/2-z
1/2-x,1/2+y,1/2+z
1/2+x,1/2-y,1/2+z
1/2-y,1/2-x,1/2+z
1/2+y,1/2+x,1/2+z
loop_
_atom_site_type_symbol
_atom_site_label
_atom_site_fract_x
_atom_site_fract_y
_atom_site_fract_z
Si Si1 0.884253 0.000000 0.926376
Si Si2 0.884301 0.000000 0.500000
Si Si3 0.844764 0.271983 0.809118
Si Si4 0.772429 0.343965 0.926335
Si Si5 0.383327 0.500000 0.210168
Si Si6 0.000000 0.771795 0.606755
Si Si7 0.000000 0.216397 0.180830
O O1 0.928963 0.071038 0.907797
O O2 0.806634 0.000000 0.892831
O O3 0.866257 0.000000 0.000000
O O4 0.840862 0.000000 0.563568
O O5 0.928291 0.928291 0.500000
O O6 0.805048 0.194953 0.803381
O O7 0.821712 0.321712 0.750000
O O8 0.827865 0.306713 0.877992
O O9 0.930022 0.263135 0.802741
O O10 0.693586 0.306415 0.917858
O O11 0.773036 0.428138 0.907745
O O12 0.797969 0.335361 0.000000
O O13 0.429156 0.429156 0.192732
O O14 0.304636 0.500000 0.177343
O O15 0.361301 0.500000 0.283849
#
# Coordination Sequence:
#
# PCOD8319835 Si02
#       7
#    16   8  32  32  16  16  16
#     4   9  18  32  52  82 118 148 175 215 274 348
#     4  11  20  28  44  76 116 149 182 220 260 325
#     4  10  22  39  58  83 113 144 185 238 289 341
#     4  10  20  35  55  80 111 149 192 234 279 334
#     4  11  22  32  48  80 118 150 180 217 268 341
#     4  12  20  33  54  78 113 157 193 224 267 330
#     4  12  22  37  60  80 105 147 193 237 286 344
#
# _framework density 18.77299
#
# number of rings (size 3 to 8) (size 9 to 14) (size 15 to 20)
#    0.000    1.471    1.176    6.000    0.000    4.706 
#    0.000    2.353    0.000    2.471    0.000    1.647 
#    0.000    0.000    0.000    0.000    0.000    0.000 
#
# Total GULP energy -843074.704856 kJ/mol
# GULP energy per Si atom -12398.157424 kJ/mol
# Density = 1.873026 g / cm^3
# Si number density = 18.772990 Si / 1000 Ang^3
#
#
#
# Elastic Constant Matrix: (Units=GPa)
#
#
# Indices 1 2 3 4 5 6 
#
# 1 110.8152 46.6660 44.6571 0.0000 0.0000 0.0000
# 2 46.6660 110.8152 44.6571 0.0000 0.0000 0.0000
# 3 44.6571 44.6571 107.9022 0.0000 0.0000 0.0000
# 4 0.0000 0.0000 0.0000 27.9288 0.0000 0.0000
# 5 0.0000 0.0000 0.0000 0.0000 27.9288 0.0000
# 6 0.0000 0.0000 0.0000 0.0000 0.0000 14.4118
#
#
#
# Elastic Compliance Matrix: (Units=1/GPa)
#
#
# Indices 1 2 3 4 5 6 
#
# 1 0.011943 -0.003646 -0.003434 0.000000 0.000000 0.000000
# 2 -0.003646 0.011943 -0.003434 0.000000 0.000000 0.000000
# 3 -0.003434 -0.003434 0.012110 0.000000 0.000000 0.000000
# 4 0.000000 0.000000 0.000000 0.035805 0.000000 0.000000
# 5 0.000000 0.000000 0.000000 0.000000 0.035805 0.000000
# 6 0.000000 0.000000 0.000000 0.000000 0.000000 0.069388
#
#
# Mechanical properties :
#
#
# Convention : Reuss Voigt Hill
#
# Bulk Modulus (GPa) = 66.80489 66.83254 66.81872
# Shear Modulus (GPa) = 24.62910 26.95737 25.79324
#
# Velocity S-wave (km/s) = 3.62601 3.79352 3.71071
# Velocity P-wave (km/s) = 7.29338 7.40712 7.35047
#
# Compressibility (1/GPa) = 0.01496896
#
# Stress axis : x y z
#
# Youngs Moduli (GPa) = 83.73018 83.73018 82.57527
#
# Poissons Ratio (x) = 0.30524 0.28357
# Poissons Ratio (y) = 0.30524 0.28357
# Poissons Ratio (z) = 0.28754 0.28754
#
# Static dielectric constant tensor:
#      x y z
#    x 3.285210 0.000000 0.000000 
#    y 0.000000 3.285210 0.000000 
#    z 0.000000 0.000000 3.709950 
# 
# 
# High freq. dielectric constant tensor:
#      x y z
#    x 1.703820 0.000000 0.000000 
#    y 0.000000 1.703820 0.000000 
#    z 0.000000 0.000000 1.755550 
# 
# From -- ./inp_files/9996.got.cif
#   From: 2010.03.12/outbox.cif.g09.slc.cpg/sg139_5_cif.got.tgz:9996.got - 2010.04.08 09:46:31.
