data_PCOD8319963
_publ_section_title
;
Structure prediction by ZEFSAII (Michael W. Deem and Ramdas Pophale) SiO2 
 PCOD8319963
Probable space group: I 4/M M M
;
_chemical_formula_sum "Si O2"
_cell_formula_units_Z 192
_cell_length_a 18.178277
_cell_length_b 18.178277
_cell_length_c 28.068842
_cell_angle_alpha 90.000000
_cell_angle_beta 90.000000
_cell_angle_gamma 90.000000
_cell_volume 9275.341953
_symmetry_space_group_name_H-M "I 4/M M M"
_symmetry_group_IT_number 139
_symmetry_cell_setting 'tetragonal'
loop_
_space_group_symop_operation_xyz
x,y,z
-y,x,z
-x,-y,z
y,-x,z
x,-y,-z
-x,y,-z
y,x,-z
-y,-x,-z
-x,-y,-z
y,-x,-z
x,y,-z
-y,x,-z
-x,y,z
x,-y,z
-y,-x,z
y,x,z
1/2+x,1/2+y,1/2+z
1/2-y,1/2+x,1/2+z
1/2-x,1/2-y,1/2+z
1/2+y,1/2-x,1/2+z
1/2+x,1/2-y,1/2-z
1/2-x,1/2+y,1/2-z
1/2+y,1/2+x,1/2-z
1/2-y,1/2-x,1/2-z
1/2-x,1/2-y,1/2-z
1/2+y,1/2-x,1/2-z
1/2+x,1/2+y,1/2-z
1/2-y,1/2+x,1/2-z
1/2-x,1/2+y,1/2+z
1/2+x,1/2-y,1/2+z
1/2-y,1/2-x,1/2+z
1/2+y,1/2+x,1/2+z
loop_
_atom_site_type_symbol
_atom_site_label
_atom_site_fract_x
_atom_site_fract_y
_atom_site_fract_z
Si Si1 0.680281 0.680281 0.108294
Si Si2 0.204718 0.084457 0.053552
Si Si3 0.080974 0.414287 0.000000
Si Si4 0.582723 0.181811 0.365996
Si Si5 0.584871 0.584871 0.947818
Si Si6 0.816701 0.413498 0.087380
Si Si7 0.416196 0.795748 0.259492
Si Si8 0.697130 0.697130 0.780937
O O1 0.618473 0.618473 0.100606
O O2 0.642510 0.748855 0.081303
O O3 0.702395 0.702395 0.161885
O O4 0.130802 0.130802 0.059884
O O5 0.262830 0.110898 0.093066
O O6 0.182949 0.000000 0.062571
O O7 0.237892 0.095295 0.000000
O O8 0.127252 0.392413 0.045796
O O9 0.066995 0.500000 0.000000
O O10 0.000000 0.374787 0.000000
O O11 0.500000 0.154371 0.376188
O O12 0.637140 0.110339 0.365433
O O13 0.587737 0.222318 0.315490
O O14 0.500000 0.602747 0.945510
O O15 0.614339 0.614339 0.000000
O O16 0.793701 0.500000 0.088738
O O17 0.500000 0.808585 0.242467
O O18 0.369452 0.869452 0.250000
O O19 0.385156 0.722604 0.232881
O O20 0.750000 0.750000 0.750000
#
# Coordination Sequence:
#
# PCOD8319963 Si02
#       8
#    16  32  16  32  16  32  32  16
#     4  12  25  38  62  95 120 156 216 265 308 376
#     4   9  19  35  57  88 125 162 199 243 294 353
#     4   9  20  39  60  84 119 164 202 233 287 359
#     4  10  22  38  61  89 117 158 206 249 304 376
#     4   9  20  40  64  88 125 173 209 252 321 390
#     4  11  24  39  59  88 124 164 204 256 309 365
#     4  10  22  40  63  90 117 155 204 256 319 380
#     4  10  22  41  63  86 120 166 202 255 330 395
#
# _framework density 20.700044999999999
#
# number of rings (size 3 to 8) (size 9 to 14) (size 15 to 20)
#    0.000    2.000    0.000    3.250    4.667    4.667 
#    0.000    2.500    0.000    0.250    0.000    0.000 
#    0.000    0.000    0.000    0.000    0.000    0.000 
#
# Total GULP energy -1189415.469847 kJ/mol
# GULP energy per Si atom -12389.744478 kJ/mol
# Density = 2.065293 g / cm^3
# Si number density = 20.700045 Si / 1000 Ang^3
#
#
#
# Elastic Constant Matrix: (Units=GPa)
#
#
# Indices 1 2 3 4 5 6 
#
# 1 112.8152 70.3940 41.5178 0.0000 0.0000 0.0000
# 2 70.3940 112.8152 41.5178 0.0000 0.0000 0.0000
# 3 41.5178 41.5178 86.2961 0.0000 0.0000 0.0000
# 4 0.0000 0.0000 0.0000 31.3951 0.0000 0.0000
# 5 0.0000 0.0000 0.0000 0.0000 31.3951 0.0000
# 6 0.0000 0.0000 0.0000 0.0000 0.0000 39.4962
#
#
#
# Elastic Compliance Matrix: (Units=1/GPa)
#
#
# Indices 1 2 3 4 5 6 
#
# 1 0.015277 -0.008296 -0.003358 0.000000 0.000000 0.000000
# 2 -0.008296 0.015277 -0.003358 0.000000 0.000000 0.000000
# 3 -0.003358 -0.003358 0.014819 0.000000 0.000000 0.000000
# 4 0.000000 0.000000 0.000000 0.031852 0.000000 0.000000
# 5 0.000000 0.000000 0.000000 0.000000 0.031852 0.000000
# 6 0.000000 0.000000 0.000000 0.000000 0.000000 0.025319
#
#
# Mechanical properties :
#
#
# Convention : Reuss Voigt Hill
#
# Bulk Modulus (GPa) = 65.15980 68.75395 66.95687
# Shear Modulus (GPa) = 29.49197 31.02372 30.25784
#
# Velocity S-wave (km/s) = 3.77865 3.87554 3.82740
# Velocity P-wave (km/s) = 7.11225 7.30157 7.20753
#
# Compressibility (1/GPa) = 0.01534689
#
# Stress axis : x y z
#
# Youngs Moduli (GPa) = 65.45908 65.45908 67.47905
#
# Poissons Ratio (x) = 0.54308 0.22661
# Poissons Ratio (y) = 0.54308 0.22661
# Poissons Ratio (z) = 0.21983 0.21983
#
# Static dielectric constant tensor:
#      x y z
#    x 3.880260 0.000000 0.000000 
#    y 0.000000 3.880260 0.000000 
#    z 0.000000 0.000000 4.010250 
# 
# 
# High freq. dielectric constant tensor:
#      x y z
#    x 1.808130 0.000000 0.000000 
#    y 0.000000 1.808130 0.000000 
#    z 0.000000 0.000000 1.811520 
# 
# From -- ./inp_files/14404.got.cif
#   From: 2010.03.12/outbox.cif.g09.slc.cpg/sg139_8_cif.got.tgz:14404.got - 2010.04.08 09:46:31.
