data_PCOD8319376
_publ_section_title
;
Structure prediction by ZEFSAII (Michael W. Deem and Ramdas Pophale) SiO2 
 PCOD8319376
Probable space group: I 4/M M M
;
_chemical_formula_sum "Si O2"
_cell_formula_units_Z 240
_cell_length_a 26.323014
_cell_length_b 26.323014
_cell_length_c 19.771722
_cell_angle_alpha 90.000000
_cell_angle_beta 90.000000
_cell_angle_gamma 90.000000
_cell_volume 13699.847251
_symmetry_space_group_name_H-M "I 4/M M M"
_symmetry_group_IT_number 139
_symmetry_cell_setting 'tetragonal'
loop_
_space_group_symop_operation_xyz
x,y,z
-y,x,z
-x,-y,z
y,-x,z
x,-y,-z
-x,y,-z
y,x,-z
-y,-x,-z
-x,-y,-z
y,-x,-z
x,y,-z
-y,x,-z
-x,y,z
x,-y,z
-y,-x,z
y,x,z
1/2+x,1/2+y,1/2+z
1/2-y,1/2+x,1/2+z
1/2-x,1/2-y,1/2+z
1/2+y,1/2-x,1/2+z
1/2+x,1/2-y,1/2-z
1/2-x,1/2+y,1/2-z
1/2+y,1/2+x,1/2-z
1/2-y,1/2-x,1/2-z
1/2-x,1/2-y,1/2-z
1/2+y,1/2-x,1/2-z
1/2+x,1/2+y,1/2-z
1/2-y,1/2+x,1/2-z
1/2-x,1/2+y,1/2+z
1/2+x,1/2-y,1/2+z
1/2-y,1/2-x,1/2+z
1/2+y,1/2+x,1/2+z
loop_
_atom_site_type_symbol
_atom_site_label
_atom_site_fract_x
_atom_site_fract_y
_atom_site_fract_z
Si Si1 0.389131 0.308178 0.824885
Si Si2 0.260989 0.940508 0.575383
Si Si3 0.142206 0.940810 0.800370
Si Si4 0.629812 0.086187 0.422131
Si Si5 0.942077 0.214804 0.922133
Si Si6 0.304783 0.776960 0.818463
Si Si7 0.301927 0.134683 0.922520
Si Si8 0.057100 0.500000 0.919129
O O1 0.359087 0.359087 0.847654
O O2 0.427793 0.289855 0.882507
O O3 0.419384 0.318769 0.755602
O O4 0.350489 0.262225 0.816578
O O5 0.253424 0.917712 0.500000
O O6 0.313225 0.918812 0.609651
O O7 0.267343 0.000000 0.572445
O O8 0.088871 0.911130 0.797873
O O9 0.166494 0.932323 0.874385
O O10 0.131238 0.000000 0.786215
O O11 0.636862 0.070472 0.500000
O O12 0.608413 0.143052 0.413285
O O13 0.587686 0.048851 0.390396
O O14 0.905144 0.259857 0.897294
O O15 0.000000 0.234119 0.914295
O O16 0.931073 0.199072 0.000000
O O17 0.250933 0.749068 0.819766
O O18 0.309919 0.809919 0.750000
O O19 0.302942 0.812699 0.883177
O O20 0.291856 0.149284 0.000000
O O21 0.000000 0.500000 0.888985
O O22 0.053844 0.500000 0.000000
#
# Coordination Sequence:
#
# PCOD8319376 Si02
#       8
#    32  32  32  32  32  32  32  16
#     4  10  20  33  50  73 102 135 168 208 255 301
#     4  10  18  30  49  70  98 136 175 215 259 304
#     4  10  21  38  59  82 107 133 166 210 257 312
#     4   9  16  27  42  65  96 129 169 215 257 303
#     4   9  19  35  54  76 103 138 174 209 256 312
#     4  10  20  32  46  68 100 134 166 202 245 292
#     4  10  19  31  49  72 101 136 174 215 254 297
#     4   9  16  26  42  66  98 132 166 214 272 314
#
# _framework density 17.518443000000001
#
# number of rings (size 3 to 8) (size 9 to 14) (size 15 to 20)
#    0.000    2.333    2.000    1.200    0.000    3.067 
#    0.000    5.333    0.000    0.000    0.000    1.867 
#    0.000    0.000    0.000   12.400    0.000    0.133 
#
# Total GULP energy -1487421.113021 kJ/mol
# GULP energy per Si atom -12395.175942 kJ/mol
# Density = 1.747857 g / cm^3
# Si number density = 17.518443 Si / 1000 Ang^3
#
#
#
# Elastic Constant Matrix: (Units=GPa)
#
#
# Indices 1 2 3 4 5 6 
#
# 1 94.1768 49.9857 38.8140 0.0000 0.0000 0.0000
# 2 49.9857 94.1768 38.8140 0.0000 0.0000 0.0000
# 3 38.8140 38.8140 64.7901 0.0000 0.0000 0.0000
# 4 0.0000 0.0000 0.0000 22.7072 0.0000 0.0000
# 5 0.0000 0.0000 0.0000 0.0000 22.7072 0.0000
# 6 0.0000 0.0000 0.0000 0.0000 0.0000 31.6343
#
#
#
# Elastic Compliance Matrix: (Units=1/GPa)
#
#
# Indices 1 2 3 4 5 6 
#
# 1 0.016434 -0.006195 -0.006134 0.000000 0.000000 0.000000
# 2 -0.006195 0.016434 -0.006134 0.000000 0.000000 0.000000
# 3 -0.006134 -0.006134 0.022784 0.000000 0.000000 0.000000
# 4 0.000000 0.000000 0.000000 0.044039 0.000000 0.000000
# 5 0.000000 0.000000 0.000000 0.000000 0.044039 0.000000
# 6 0.000000 0.000000 0.000000 0.000000 0.000000 0.031611
#
#
# Mechanical properties :
#
#
# Convention : Reuss Voigt Hill
#
# Bulk Modulus (GPa) = 53.40049 56.48566 54.94307
# Shear Modulus (GPa) = 22.88213 23.77841 23.33027
#
# Velocity S-wave (km/s) = 3.61802 3.68820 3.65328
# Velocity P-wave (km/s) = 6.92835 7.10286 7.01615
#
# Compressibility (1/GPa) = 0.01872642
#
# Stress axis : x y z
#
# Youngs Moduli (GPa) = 60.84794 60.84794 43.88977
#
# Poissons Ratio (x) = 0.37693 0.26924
# Poissons Ratio (y) = 0.37693 0.26924
# Poissons Ratio (z) = 0.37327 0.37327
#
# Static dielectric constant tensor:
#      x y z
#    x 3.341830 0.000000 0.000000 
#    y 0.000000 3.341830 0.000000 
#    z 0.000000 0.000000 3.192910 
# 
# 
# High freq. dielectric constant tensor:
#      x y z
#    x 1.676660 0.000000 0.000000 
#    y 0.000000 1.676660 0.000000 
#    z 0.000000 0.000000 1.654130 
# 
# From -- ./inp_files/9092.got.cif
#   From: 2010.03.12/outbox.cif.g09.slc.cpg/sg139_5_cif.got.tgz:9092.got - 2010.04.08 09:46:31.
