data_PCOD8319476
_publ_section_title
;
Structure prediction by ZEFSAII (Michael W. Deem and Ramdas Pophale) SiO2 
 PCOD8319476
Probable space group: I 4/M M M
;
_chemical_formula_sum "Si O2"
_cell_formula_units_Z 192
_cell_length_a 20.228169
_cell_length_b 20.228169
_cell_length_c 26.262617
_cell_angle_alpha 90.000000
_cell_angle_beta 90.000000
_cell_angle_gamma 90.000000
_cell_volume 10746.106663
_symmetry_space_group_name_H-M "I 4/M M M"
_symmetry_group_IT_number 139
_symmetry_cell_setting 'tetragonal'
loop_
_space_group_symop_operation_xyz
x,y,z
-y,x,z
-x,-y,z
y,-x,z
x,-y,-z
-x,y,-z
y,x,-z
-y,-x,-z
-x,-y,-z
y,-x,-z
x,y,-z
-y,x,-z
-x,y,z
x,-y,z
-y,-x,z
y,x,z
1/2+x,1/2+y,1/2+z
1/2-y,1/2+x,1/2+z
1/2-x,1/2-y,1/2+z
1/2+y,1/2-x,1/2+z
1/2+x,1/2-y,1/2-z
1/2-x,1/2+y,1/2-z
1/2+y,1/2+x,1/2-z
1/2-y,1/2-x,1/2-z
1/2-x,1/2-y,1/2-z
1/2+y,1/2-x,1/2-z
1/2+x,1/2+y,1/2-z
1/2-y,1/2+x,1/2-z
1/2-x,1/2+y,1/2+z
1/2+x,1/2-y,1/2+z
1/2-y,1/2-x,1/2+z
1/2+y,1/2+x,1/2+z
loop_
_atom_site_type_symbol
_atom_site_label
_atom_site_fract_x
_atom_site_fract_y
_atom_site_fract_z
Si Si1 0.750515 0.144888 0.158033
Si Si2 0.072272 0.578015 0.304518
Si Si3 0.753108 0.141623 0.349141
Si Si4 0.576411 0.845131 0.597394
Si Si5 0.186620 0.424123 0.943723
Si Si6 0.077611 0.811703 0.253501
O O1 0.816569 0.183432 0.141546
O O2 0.692251 0.197104 0.170353
O O3 0.730109 0.099152 0.109105
O O4 0.765312 0.098712 0.206382
O O5 0.065058 0.500000 0.301559
O O6 0.101849 0.601849 0.250000
O O7 0.119899 0.598425 0.349722
O O8 0.000000 0.609752 0.315001
O O9 0.819305 0.180696 0.363020
O O10 0.735135 0.103065 0.400709
O O11 0.768378 0.089833 0.304170
O O12 0.500000 0.850072 0.582820
O O13 0.618433 0.881525 0.554177
O O14 0.168628 0.500000 0.932481
O O15 0.219020 0.416716 0.000000
O O16 0.120760 0.879241 0.254058
O O17 0.000000 0.829773 0.249381
#
# Coordination Sequence:
#
# PCOD8319476 Si02
#       6
#    32  32  32  32  32  32
#     4   9  18  32  48  68  94 121 151 189 230 272
#     4   8  14  24  37  56  83 111 140 176 215 256
#     4   9  18  33  52  71  91 120 161 204 238 269
#     4  10  19  30  46  66  88 119 156 188 223 274
#     4  10  21  34  47  66  93 124 157 195 240 287
#     4  10  19  31  49  72  99 129 157 188 229 276
#
# _framework density 17.866937
#
# number of rings (size 3 to 8) (size 9 to 14) (size 15 to 20)
#    0.000    2.667    0.000    2.500    0.000    6.500 
#    0.000    5.833    0.000    0.000    0.000    0.000 
#    0.000    1.333    0.000   15.500    0.000    0.000 
#
# Total GULP energy -1189596.778553 kJ/mol
# GULP energy per Si atom -12391.633110 kJ/mol
# Density = 1.782627 g / cm^3
# Si number density = 17.866937 Si / 1000 Ang^3
#
#
#
# Elastic Constant Matrix: (Units=GPa)
#
#
# Indices 1 2 3 4 5 6 
#
# 1 80.2644 28.8745 34.1904 0.0000 0.0000 0.0000
# 2 28.8745 80.2644 34.1904 0.0000 0.0000 0.0000
# 3 34.1904 34.1904 77.5238 0.0000 0.0000 0.0000
# 4 0.0000 0.0000 0.0000 15.8458 0.0000 0.0000
# 5 0.0000 0.0000 0.0000 0.0000 15.8458 0.0000
# 6 0.0000 0.0000 0.0000 0.0000 0.0000 17.9653
#
#
#
# Elastic Compliance Matrix: (Units=1/GPa)
#
#
# Indices 1 2 3 4 5 6 
#
# 1 0.016060 -0.003399 -0.005584 0.000000 0.000000 0.000000
# 2 -0.003399 0.016060 -0.005584 0.000000 0.000000 0.000000
# 3 -0.005584 -0.005584 0.017825 0.000000 0.000000 0.000000
# 4 0.000000 0.000000 0.000000 0.063108 0.000000 0.000000
# 5 0.000000 0.000000 0.000000 0.000000 0.063108 0.000000
# 6 0.000000 0.000000 0.000000 0.000000 0.000000 0.055663
#
#
# Mechanical properties :
#
#
# Convention : Reuss Voigt Hill
#
# Bulk Modulus (GPa) = 48.05100 48.06257 48.05678
# Shear Modulus (GPa) = 18.66401 19.31787 18.99094
#
# Velocity S-wave (km/s) = 3.23555 3.29174 3.26377
# Velocity P-wave (km/s) = 6.39614 6.43476 6.41548
#
# Compressibility (1/GPa) = 0.02081122
#
# Stress axis : x y z
#
# Youngs Moduli (GPa) = 62.26577 62.26577 56.10193
#
# Poissons Ratio (x) = 0.21164 0.31327
# Poissons Ratio (y) = 0.21164 0.31327
# Poissons Ratio (z) = 0.34769 0.34769
#
# Static dielectric constant tensor:
#      x y z
#    x 3.511410 0.000000 0.000000 
#    y 0.000000 3.511410 0.000000 
#    z 0.000000 0.000000 3.300180 
# 
# 
# High freq. dielectric constant tensor:
#      x y z
#    x 1.683320 0.000000 0.000000 
#    y 0.000000 1.683320 0.000000 
#    z 0.000000 0.000000 1.674610 
# 
# From -- ./inp_files/11932.got.cif
#   From: 2010.03.12/outbox.cif.g09.slc.cpg/sg139_6_cif.got.tgz:11932.got - 2010.04.08 09:46:31.
