data_PCOD8319648
_publ_section_title
;
Structure prediction by ZEFSAII (Michael W. Deem and Ramdas Pophale) SiO2 
 PCOD8319648
Probable space group: I 4/M M M
;
_chemical_formula_sum "Si O2"
_cell_formula_units_Z 160
_cell_length_a 29.719513
_cell_length_b 29.719513
_cell_length_c 10.242911
_cell_angle_alpha 90.000000
_cell_angle_beta 90.000000
_cell_angle_gamma 90.000000
_cell_volume 9047.045537
_symmetry_space_group_name_H-M "I 4/M M M"
_symmetry_group_IT_number 139
_symmetry_cell_setting 'tetragonal'
loop_
_space_group_symop_operation_xyz
x,y,z
-y,x,z
-x,-y,z
y,-x,z
x,-y,-z
-x,y,-z
y,x,-z
-y,-x,-z
-x,-y,-z
y,-x,-z
x,y,-z
-y,x,-z
-x,y,z
x,-y,z
-y,-x,z
y,x,z
1/2+x,1/2+y,1/2+z
1/2-y,1/2+x,1/2+z
1/2-x,1/2-y,1/2+z
1/2+y,1/2-x,1/2+z
1/2+x,1/2-y,1/2-z
1/2-x,1/2+y,1/2-z
1/2+y,1/2+x,1/2-z
1/2-y,1/2-x,1/2-z
1/2-x,1/2-y,1/2-z
1/2+y,1/2-x,1/2-z
1/2+x,1/2+y,1/2-z
1/2-y,1/2+x,1/2-z
1/2-x,1/2+y,1/2+z
1/2+x,1/2-y,1/2+z
1/2-y,1/2-x,1/2+z
1/2+y,1/2+x,1/2+z
loop_
_atom_site_type_symbol
_atom_site_label
_atom_site_fract_x
_atom_site_fract_y
_atom_site_fract_z
Si Si1 0.805295 0.049719 0.000000
Si Si2 0.294445 0.945854 0.500000
Si Si3 0.551118 0.199885 0.500000
Si Si4 0.317601 0.890036 0.746414
Si Si5 0.405547 0.335934 0.237112
Si Si6 0.236371 0.165986 0.348065
Si Si7 0.805300 0.049568 0.500000
O O1 0.752672 0.044791 0.000000
O O2 0.820006 0.077182 0.124993
O O3 0.827543 0.000000 0.000000
O O4 0.317558 0.925053 0.627418
O O5 0.243294 0.925492 0.500000
O O6 0.299856 0.000000 0.500000
O O7 0.500000 0.178883 0.500000
O O8 0.579814 0.186151 0.625247
O O9 0.365546 0.865546 0.750000
O O10 0.279097 0.850812 0.736884
O O11 0.385858 0.385858 0.253973
O O12 0.368917 0.303306 0.175525
O O13 0.444201 0.335991 0.128153
O O14 0.250223 0.167755 0.500000
O O15 0.215362 0.215362 0.306785
O O16 0.786905 0.000000 0.500000
#
# Coordination Sequence:
#
# PCOD8319648 Si02
#       7
#    16  16  16  32  32  32  16
#     4  11  21  34  50  73 105 139 178 215 267 326
#     4  11  21  38  58  78 106 146 185 217 271 328
#     4  11  23  38  54  80 116 144 171 225 293 324
#     4  12  22  37  57  82 111 144 192 228 260 316
#     4  11  19  32  50  74 107 139 176 215 262 311
#     4  10  19  34  53  74 108 151 193 225 254 298
#     4  11  19  32  56  79  99 131 180 221 267 320
#
# _framework density 17.685331000000001
#
# number of rings (size 3 to 8) (size 9 to 14) (size 15 to 20)
#    0.000    1.000    6.000    2.400    0.000    3.600 
#    0.000    0.500    0.000    0.000    0.000    0.000 
#    0.000   56.000    0.000    0.000    0.000    0.000 
#
# Total GULP energy -991291.795999 kJ/mol
# GULP energy per Si atom -12391.147450 kJ/mol
# Density = 1.764508 g / cm^3
# Si number density = 17.685331 Si / 1000 Ang^3
#
#
#
# Elastic Constant Matrix: (Units=GPa)
#
#
# Indices 1 2 3 4 5 6 
#
# 1 81.7035 51.3497 48.6106 0.0000 0.0000 0.0000
# 2 51.3497 81.7035 48.6106 0.0000 0.0000 0.0000
# 3 48.6106 48.6106 153.2426 0.0000 0.0000 0.0000
# 4 0.0000 0.0000 0.0000 23.1105 0.0000 0.0000
# 5 0.0000 0.0000 0.0000 0.0000 23.1105 0.0000
# 6 0.0000 0.0000 0.0000 0.0000 0.0000 21.8239
#
#
#
# Elastic Compliance Matrix: (Units=1/GPa)
#
#
# Indices 1 2 3 4 5 6 
#
# 1 0.021364 -0.011581 -0.003103 0.000000 0.000000 0.000000
# 2 -0.011581 0.021364 -0.003103 0.000000 0.000000 0.000000
# 3 -0.003103 -0.003103 0.008495 0.000000 0.000000 0.000000
# 4 0.000000 0.000000 0.000000 0.043270 0.000000 0.000000
# 5 0.000000 0.000000 0.000000 0.000000 0.043270 0.000000
# 6 0.000000 0.000000 0.000000 0.000000 0.000000 0.045821
#
#
# Mechanical properties :
#
#
# Convention : Reuss Voigt Hill
#
# Bulk Modulus (GPa) = 63.90733 68.19902 66.05317
# Shear Modulus (GPa) = 22.28403 24.81422 23.54912
#
# Velocity S-wave (km/s) = 3.55354 3.74986 3.65302
# Velocity P-wave (km/s) = 7.28362 7.57593 7.43121
#
# Compressibility (1/GPa) = 0.01564766
#
# Stress axis : x y z
#
# Youngs Moduli (GPa) = 46.80747 46.80747 117.72319
#
# Poissons Ratio (x) = 0.54206 0.36535
# Poissons Ratio (y) = 0.54206 0.36535
# Poissons Ratio (z) = 0.14526 0.14526
#
# Static dielectric constant tensor:
#      x y z
#    x 3.353590 0.000000 0.000000 
#    y 0.000000 3.353590 0.000000 
#    z 0.000000 0.000000 3.422060 
# 
# 
# High freq. dielectric constant tensor:
#      x y z
#    x 1.666670 0.000000 0.000000 
#    y 0.000000 1.666670 0.000000 
#    z 0.000000 0.000000 1.697870 
# 
# From -- ./inp_files/2304.got.cif
#   From: 2010.03.12/outbox.cif.g09.slc.cpg/sg139_2_cif.got.tgz:2304.got - 2010.04.08 09:46:31.
