data_PCOD8319083
_publ_section_title
;
Structure prediction by ZEFSAII (Michael W. Deem and Ramdas Pophale) SiO2 
 PCOD8319083
Probable space group: P 42/N C M
;
_chemical_formula_sum "Si O2"
_cell_formula_units_Z 96
_cell_length_a 17.333606
_cell_length_b 17.333606
_cell_length_c 18.093032
_cell_angle_alpha 90.000000
_cell_angle_beta 90.000000
_cell_angle_gamma 90.000000
_cell_volume 5436.121972
_symmetry_space_group_name_H-M "P 42/N C M"
_symmetry_group_IT_number 138
_space_group.IT_coordinate_system_code '2'
_symmetry_cell_setting 'tetragonal'
loop_
_space_group_symop_operation_xyz
x,y,z
1/2-y,x,1/2+z
1/2-x,1/2-y,z
y,1/2-x,1/2+z
1/2+x,-y,1/2-z
-x,1/2+y,1/2-z
1/2+y,1/2+x,-z
-y,-x,-z
-x,-y,-z
1/2+y,-x,1/2-z
1/2+x,1/2+y,-z
-y,1/2+x,1/2-z
1/2-x,y,1/2+z
x,1/2-y,1/2+z
1/2-y,1/2-x,z
y,x,z
loop_
_atom_site_type_symbol
_atom_site_label
_atom_site_fract_x
_atom_site_fract_y
_atom_site_fract_z
Si Si1 0.190705 0.815255 0.087264
Si Si2 0.512022 0.115120 0.793777
Si Si3 0.001077 0.374758 0.497964
Si Si4 0.512440 0.638965 0.285749
Si Si5 0.276641 0.972888 0.362110
Si Si6 0.293965 0.980960 0.642885
O O1 0.250000 0.750000 0.106796
O O2 0.117502 0.791448 0.135268
O O3 0.224544 0.894321 0.118371
O O4 0.176646 0.823355 0.000000
O O5 0.510485 0.185465 0.852345
O O6 0.515616 0.149404 0.712075
O O7 0.434036 0.065965 0.804158
O O8 0.586591 0.061367 0.806271
O O9 0.062044 0.437957 0.473154
O O10 0.916049 0.416049 0.500000
O O11 0.007381 0.305476 0.439564
O O12 0.023694 0.338885 0.576844
O O13 0.590407 0.590407 0.293330
O O14 0.507665 0.671648 0.203070
O O15 0.519521 0.711180 0.341478
#
# Coordination Sequence:
#
# PCOD8319083 Si02
#       6
#    16  16  16  16  16  16
#     4  11  20  32  52  84 120 147 170 218 285 347
#     4  10  21  36  54  78 110 147 185 225 270 330
#     4  11  20  34  59  86 109 137 184 234 278 326
#     4  10  21  36  54  78 110 147 185 225 270 330
#     4  11  19  35  56  81 110 143 184 228 278 328
#     4  11  19  35  56  81 110 143 184 228 278 328
#
# _framework density 17.659647
#
# number of rings (size 3 to 8) (size 9 to 14) (size 15 to 20)
#    0.000    1.333    5.000    2.000    0.000    2.667 
#    0.000    0.833    0.000   20.000    0.000    0.000 
#    0.000    0.000    0.000    0.000    0.000    0.000 
#
# Total GULP energy -1190250.118032 kJ/mol
# GULP energy per Si atom -12398.438730 kJ/mol
# Density = 1.761945 g / cm^3
# Si number density = 17.659647 Si / 1000 Ang^3
#
#
#
# Elastic Constant Matrix: (Units=GPa)
#
#
# Indices 1 2 3 4 5 6 
#
# 1 82.2334 17.2032 14.2992 0.0000 0.0000 0.0000
# 2 17.2032 82.2346 14.2992 0.0000 0.0000 0.0000
# 3 14.2992 14.2992 73.9254 0.0000 0.0000 0.0000
# 4 0.0000 0.0000 0.0000 34.0627 0.0000 0.0000
# 5 0.0000 0.0000 0.0000 0.0000 34.0607 0.0000
# 6 0.0000 0.0000 0.0000 0.0000 0.0000 33.7290
#
#
#
# Elastic Compliance Matrix: (Units=1/GPa)
#
#
# Indices 1 2 3 4 5 6 
#
# 1 0.013013 -0.002364 -0.002060 0.000000 0.000000 0.000000
# 2 -0.002364 0.013013 -0.002060 0.000000 0.000000 0.000000
# 3 -0.002060 -0.002060 0.014324 0.000000 0.000000 0.000000
# 4 0.000000 0.000000 0.000000 0.029358 0.000000 0.000000
# 5 0.000000 0.000000 0.000000 0.000000 0.029359 0.000000
# 6 0.000000 0.000000 0.000000 0.000000 0.000000 0.029648
#
#
# Mechanical properties :
#
#
# Convention : Reuss Voigt Hill
#
# Bulk Modulus (GPa) = 36.51932 36.66629 36.59280
# Shear Modulus (GPa) = 33.15417 33.20992 33.18205
#
# Velocity S-wave (km/s) = 4.33759 4.34124 4.33942
# Velocity P-wave (km/s) = 6.76836 6.77763 6.77300
#
# Compressibility (1/GPa) = 0.02738277
#
# Stress axis : x y z
#
# Youngs Moduli (GPa) = 76.84465 76.84583 69.81292
#
# Poissons Ratio (x) = 0.18168 0.14380
# Poissons Ratio (y) = 0.18167 0.14380
# Poissons Ratio (z) = 0.15829 0.15829
#
# Static dielectric constant tensor:
#      x y z
#    x 3.110650 0.000000 0.000000 
#    y 0.000000 3.110750 0.000000 
#    z 0.000000 0.000000 3.127930 
# 
# 
# High freq. dielectric constant tensor:
#      x y z
#    x 1.680140 0.000000 0.000000 
#    y 0.000000 1.680140 0.000000 
#    z 0.000000 0.000000 1.682270 
# 
# From -- ./inp_files/5193.got.cif
#   From: 2010.03.12/outbox.cif.g09.slc.cpg/sg138_3_cif.got.tgz:5193.got - 2010.04.08 09:41:05.
