data_PCOD8319949
_publ_section_title
;
Structure prediction by ZEFSAII (Michael W. Deem and Ramdas Pophale) SiO2 
 PCOD8319949
Probable space group: I 4/M M M
;
_chemical_formula_sum "Si O2"
_cell_formula_units_Z 112
_cell_length_a 17.792002
_cell_length_b 17.792002
_cell_length_c 17.671831
_cell_angle_alpha 90.000000
_cell_angle_beta 90.000000
_cell_angle_gamma 90.000000
_cell_volume 5594.112385
_symmetry_space_group_name_H-M "I 4/M M M"
_symmetry_group_IT_number 139
_symmetry_cell_setting 'tetragonal'
loop_
_space_group_symop_operation_xyz
x,y,z
-y,x,z
-x,-y,z
y,-x,z
x,-y,-z
-x,y,-z
y,x,-z
-y,-x,-z
-x,-y,-z
y,-x,-z
x,y,-z
-y,x,-z
-x,y,z
x,-y,z
-y,-x,z
y,x,z
1/2+x,1/2+y,1/2+z
1/2-y,1/2+x,1/2+z
1/2-x,1/2-y,1/2+z
1/2+y,1/2-x,1/2+z
1/2+x,1/2-y,1/2-z
1/2-x,1/2+y,1/2-z
1/2+y,1/2+x,1/2-z
1/2-y,1/2-x,1/2-z
1/2-x,1/2-y,1/2-z
1/2+y,1/2-x,1/2-z
1/2+x,1/2+y,1/2-z
1/2-y,1/2+x,1/2-z
1/2-x,1/2+y,1/2+z
1/2+x,1/2-y,1/2+z
1/2-y,1/2-x,1/2+z
1/2+y,1/2+x,1/2+z
loop_
_atom_site_type_symbol
_atom_site_label
_atom_site_fract_x
_atom_site_fract_y
_atom_site_fract_z
Si Si1 0.792663 0.085902 0.411386
Si Si2 0.000000 0.412806 0.083480
Si Si3 0.703614 0.414087 0.587313
Si Si4 0.653328 0.144376 0.160882
O O1 0.776262 0.090861 0.500000
O O2 0.866541 0.133460 0.389115
O O3 0.720959 0.119180 0.369824
O O4 0.806603 0.000000 0.385850
O O5 0.073671 0.391258 0.128996
O O6 0.000000 0.500000 0.071398
O O7 0.000000 0.373730 0.000000
O O8 0.728485 0.409380 0.500000
O O9 0.703284 0.500000 0.615975
O O10 0.620466 0.379535 0.598240
O O11 0.760107 0.363978 0.636813
O O12 0.645581 0.145581 0.250000
#
# Coordination Sequence:
#
# PCOD8319949 Si02
#       4
#    32  16  32  32
#     4  10  22  41  65  92 124 164 210 257 309 372
#     4  11  24  40  62  88 121 165 207 252 310 374
#     4  10  21  39  63  90 123 164 211 260 313 375
#     4  12  25  38  61  91 126 163 205 260 311 373
#
# _framework density 20.021048
#
# number of rings (size 3 to 8) (size 9 to 14) (size 15 to 20)
#    0.000    1.286    1.429    4.286    4.000    7.429 
#    0.000    2.857    0.000    0.000    0.000    4.000 
#    0.000    0.000    0.000    0.000    0.000    0.000 
#
# Total GULP energy -694504.202262 kJ/mol
# GULP energy per Si atom -12401.860755 kJ/mol
# Density = 1.997548 g / cm^3
# Si number density = 20.021048 Si / 1000 Ang^3
#
#
#
# Elastic Constant Matrix: (Units=GPa)
#
#
# Indices 1 2 3 4 5 6 
#
# 1 136.9814 108.5124 66.9950 0.0000 0.0000 0.0000
# 2 108.5124 136.9814 66.9950 0.0000 0.0000 0.0000
# 3 66.9950 66.9950 101.7668 0.0000 0.0000 0.0000
# 4 0.0000 0.0000 0.0000 -259.4124 0.0001 0.0000
# 5 0.0000 0.0000 0.0000 0.0001 -259.4125 0.0000
# 6 0.0000 0.0000 0.0000 0.0000 0.0000 56.8874
#
#
#
# Elastic Compliance Matrix: (Units=1/GPa)
#
#
# Indices 1 2 3 4 5 6 
#
# 1 0.020742 -0.014384 -0.004185 0.000000 0.000000 0.000000
# 2 -0.014384 0.020742 -0.004185 0.000000 0.000000 0.000000
# 3 -0.004185 -0.004185 0.015337 0.000000 0.000000 0.000000
# 4 0.000000 0.000000 0.000000 -0.003855 0.000000 0.000000
# 5 0.000000 0.000000 0.000000 0.000000 -0.003855 0.000000
# 6 0.000000 0.000000 0.000000 0.000000 0.000000 0.017579
#
#
# Mechanical properties :
#
#
# Convention : Reuss Voigt Hill
#
# Bulk Modulus (GPa) = 88.41034 95.63716 92.02375
# Shear Modulus (GPa) = 43.11455 -83.50570 -20.19557
#
# Velocity S-wave (km/s) = 4.64557 -6.46525 -3.17948
# Velocity P-wave (km/s) = 8.54574 2.80369 5.70829
#
# Compressibility (1/GPa) = 0.01131089
#
# Stress axis : x y z
#
# Youngs Moduli (GPa) = 48.21163 48.21163 65.20108
#
# Poissons Ratio (x) = 0.69348 0.27290
# Poissons Ratio (y) = 0.69348 0.27290
# Poissons Ratio (z) = 0.20179 0.20179
#
# Static dielectric constant tensor:
#      x y z
#    x 3.835220 0.000000 0.000000 
#    y 0.000000 3.835220 0.000000 
#    z 0.000000 0.000000 3.553240 
# 
# 
# High freq. dielectric constant tensor:
#      x y z
#    x 1.793120 0.000000 0.000000 
#    y 0.000000 1.793120 0.000000 
#    z 0.000000 0.000000 1.772280 
# 
# From -- ./inp_files/7562.got.cif
#   From: 2010.03.12/outbox.cif.g09.slc.cpg/sg139_4_cif.got.tgz:7562.got - 2010.04.08 09:46:31.
