data_PCOD8319265
_publ_section_title
;
Structure prediction by ZEFSAII (Michael W. Deem and Ramdas Pophale) SiO2 
 PCOD8319265
Probable space group: I 4/M M M
;
_chemical_formula_sum "Si O2"
_cell_formula_units_Z 192
_cell_length_a 32.056897
_cell_length_b 32.056897
_cell_length_c 14.383903
_cell_angle_alpha 90.000000
_cell_angle_beta 90.000000
_cell_angle_gamma 90.000000
_cell_volume 14781.540896
_symmetry_space_group_name_H-M "I 4/M M M"
_symmetry_group_IT_number 139
_symmetry_cell_setting 'tetragonal'
loop_
_space_group_symop_operation_xyz
x,y,z
-y,x,z
-x,-y,z
y,-x,z
x,-y,-z
-x,y,-z
y,x,-z
-y,-x,-z
-x,-y,-z
y,-x,-z
x,y,-z
-y,x,-z
-x,y,z
x,-y,z
-y,-x,z
y,x,z
1/2+x,1/2+y,1/2+z
1/2-y,1/2+x,1/2+z
1/2-x,1/2-y,1/2+z
1/2+y,1/2-x,1/2+z
1/2+x,1/2-y,1/2-z
1/2-x,1/2+y,1/2-z
1/2+y,1/2+x,1/2-z
1/2-y,1/2-x,1/2-z
1/2-x,1/2-y,1/2-z
1/2+y,1/2-x,1/2-z
1/2+x,1/2+y,1/2-z
1/2-y,1/2+x,1/2-z
1/2-x,1/2+y,1/2+z
1/2+x,1/2-y,1/2+z
1/2-y,1/2-x,1/2+z
1/2+y,1/2+x,1/2+z
loop_
_atom_site_type_symbol
_atom_site_label
_atom_site_fract_x
_atom_site_fract_y
_atom_site_fract_z
Si Si1 0.849298 0.314206 0.896409
Si Si2 0.451769 0.873965 0.000000
Si Si3 0.452242 0.186461 0.156438
Si Si4 0.768563 0.628356 0.894960
Si Si5 0.817368 0.751928 0.231108
Si Si6 0.079537 0.365593 0.811117
Si Si7 0.598196 0.047310 0.000000
O O1 0.809512 0.343709 0.898193
O O2 0.842282 0.267501 0.856200
O O3 0.880606 0.337392 0.829014
O O4 0.867467 0.308875 0.000000
O O5 0.434125 0.850009 0.910712
O O6 0.441392 0.922490 0.000000
O O7 0.500000 0.869065 0.000000
O O8 0.500000 0.201183 0.134062
O O9 0.419243 0.223994 0.141844
O O10 0.452238 0.164752 0.256800
O O11 0.739368 0.652134 0.819857
O O12 0.749126 0.626713 0.000000
O O13 0.796223 0.796223 0.204925
O O14 0.781493 0.718508 0.250000
O O15 0.093785 0.406216 0.750000
O O16 0.056272 0.376289 0.906585
O O17 0.582216 0.000000 0.000000
#
# Coordination Sequence:
#
# PCOD8319265 Si02
#       7
#    32  16  32  32  32  32  16
#     4  10  17  27  45  59  76 100 124 153 189 231
#     4  10  20  33  48  62  75  93 123 163 199 245
#     4  11  20  30  46  64  78  97 127 162 199 241
#     4  10  17  26  41  61  79 100 124 155 192 225
#     4   9  17  28  40  58  81 104 127 150 180 229
#     4  12  19  32  49  61  78  98 125 157 198 242
#     4  12  24  35  46  62  79  97 123 159 205 257
#
# _framework density 12.989172999999999
#
# number of rings (size 3 to 8) (size 9 to 14) (size 15 to 20)
#    0.000    1.500    6.667    1.000    0.000    0.833 
#    0.000    3.333    0.000    0.000    0.000    0.000 
#    0.000    0.000    0.000    0.000    0.000    0.000 
#
# Total GULP energy -1189350.012107 kJ/mol
# GULP energy per Si atom -12389.062626 kJ/mol
# Density = 1.295961 g / cm^3
# Si number density = 12.989173 Si / 1000 Ang^3
#
#
#
# Elastic Constant Matrix: (Units=GPa)
#
#
# Indices 1 2 3 4 5 6 
#
# 1 28.5955 15.0743 8.5067 0.0000 0.0000 0.0000
# 2 15.0743 28.5943 8.5061 0.0000 0.0000 0.0000
# 3 8.5067 8.5061 70.9267 0.0000 0.0000 0.0000
# 4 0.0000 0.0000 0.0000 14.0793 0.0000 0.0000
# 5 0.0000 0.0000 0.0000 0.0000 14.0795 0.0000
# 6 0.0000 0.0000 0.0000 0.0000 0.0000 16.8317
#
#
#
# Elastic Compliance Matrix: (Units=1/GPa)
#
#
# Indices 1 2 3 4 5 6 
#
# 1 0.048991 -0.024970 -0.002881 0.000000 0.000000 0.000000
# 2 -0.024970 0.048992 -0.002881 0.000000 0.000000 0.000000
# 3 -0.002881 -0.002881 0.014790 0.000000 0.000000 0.000000
# 4 0.000000 0.000000 0.000000 0.071026 0.000000 0.000000
# 5 0.000000 0.000000 0.000000 0.000000 0.071025 0.000000
# 6 0.000000 0.000000 0.000000 0.000000 0.000000 0.059412
#
#
# Mechanical properties :
#
#
# Convention : Reuss Voigt Hill
#
# Bulk Modulus (GPa) = 19.48948 21.36564 20.42756
# Shear Modulus (GPa) = 12.72902 15.40004 14.06453
#
# Velocity S-wave (km/s) = 3.13385 3.44700 3.29415
# Velocity P-wave (km/s) = 5.30393 5.68568 5.49812
#
# Compressibility (1/GPa) = 0.05130974
#
# Stress axis : x y z
#
# Youngs Moduli (GPa) = 20.41210 20.41133 67.61272
#
# Poissons Ratio (x) = 0.50966 0.19480
# Poissons Ratio (y) = 0.50968 0.19478
# Poissons Ratio (z) = 0.05881 0.05880
#
# Static dielectric constant tensor:
#      x y z
#    x 2.448920 0.000000 0.000000 
#    y 0.000000 2.448920 0.000000 
#    z 0.000000 0.000000 2.857220 
# 
# 
# High freq. dielectric constant tensor:
#      x y z
#    x 1.453440 0.000000 0.000000 
#    y 0.000000 1.453440 0.000000 
#    z 0.000000 0.000000 1.517540 
# 
# From -- ./inp_files/6708.got.cif
#   From: 2010.03.12/outbox.cif.g09.slc.cpg/sg139_4_cif.got.tgz:6708.got - 2010.04.08 09:46:31.
