data_PCOD8319104
_publ_section_title
;
Structure prediction by ZEFSAII (Michael W. Deem and Ramdas Pophale) SiO2 
 PCOD8319104
Probable space group: P 42/N C M
;
_chemical_formula_sum "Si O2"
_cell_formula_units_Z 64
_cell_length_a 13.200829
_cell_length_b 13.200829
_cell_length_c 18.669835
_cell_angle_alpha 90.000000
_cell_angle_beta 90.000000
_cell_angle_gamma 90.000000
_cell_volume 3253.440664
_symmetry_space_group_name_H-M "P 42/N C M"
_symmetry_group_IT_number 138
_space_group.IT_coordinate_system_code '2'
_symmetry_cell_setting 'tetragonal'
loop_
_space_group_symop_operation_xyz
x,y,z
1/2-y,x,1/2+z
1/2-x,1/2-y,z
y,1/2-x,1/2+z
1/2+x,-y,1/2-z
-x,1/2+y,1/2-z
1/2+y,1/2+x,-z
-y,-x,-z
-x,-y,-z
1/2+y,-x,1/2-z
1/2+x,1/2+y,-z
-y,1/2+x,1/2-z
1/2-x,y,1/2+z
x,1/2-y,1/2+z
1/2-y,1/2-x,z
y,x,z
loop_
_atom_site_type_symbol
_atom_site_label
_atom_site_fract_x
_atom_site_fract_y
_atom_site_fract_z
Si Si1 0.873140 0.263396 0.679116
Si Si2 0.858245 0.015049 0.945814
Si Si3 0.657340 0.006926 0.027739
Si Si4 0.953372 0.118659 0.314915
O O1 0.750000 0.250000 0.683351
O O2 0.903057 0.338828 0.616217
O O3 0.928567 0.155948 0.663757
O O4 0.925368 0.302446 0.752296
O O5 0.930910 0.069091 0.000000
O O6 0.759686 0.978596 0.987873
O O7 0.915211 0.915211 0.914917
O O8 0.674675 0.004878 0.113960
O O9 0.577207 0.922794 0.004251
O O10 0.616181 0.116181 0.000000
O O11 0.031141 0.031141 0.289499
#
# Coordination Sequence:
#
# PCOD8319104 Si02
#       4
#    16  16  16  16
#     4  12  22  39  62  91 120 166 206 248 310 371
#     4  11  25  39  59  94 127 159 202 262 316 365
#     4  10  21  39  62  86 116 161 210 253 304 369
#     4  11  22  37  61  90 121 155 203 254 302 364
#
# _framework density 19.671482000000001
#
# number of rings (size 3 to 8) (size 9 to 14) (size 15 to 20)
#    0.000    1.000    5.000    2.250    0.000    0.500 
#    0.000    0.000    0.000    3.750    0.000    0.000 
#    0.000    0.000    0.000    0.000    0.000    0.000 
#
# Total GULP energy -792925.687733 kJ/mol
# GULP energy per Si atom -12389.463871 kJ/mol
# Density = 1.962671 g / cm^3
# Si number density = 19.671482 Si / 1000 Ang^3
#
#
#
# Elastic Constant Matrix: (Units=GPa)
#
#
# Indices 1 2 3 4 5 6 
#
# 1 78.5612 74.0588 42.7730 0.0000 0.0000 0.0000
# 2 74.0588 78.5711 42.7733 0.0000 0.0000 0.0000
# 3 42.7730 42.7733 109.0531 0.0000 0.0000 0.0000
# 4 0.0000 0.0000 0.0000 34.8925 0.0000 0.0000
# 5 0.0000 0.0000 0.0000 0.0000 34.8923 0.0000
# 6 0.0000 0.0000 0.0000 0.0000 0.0000 33.6457
#
#
#
# Elastic Compliance Matrix: (Units=1/GPa)
#
#
# Indices 1 2 3 4 5 6 
#
# 1 0.115138 -0.106730 -0.003297 0.000000 0.000000 0.000000
# 2 -0.106730 0.115120 -0.003291 0.000000 0.000000 0.000000
# 3 -0.003297 -0.003291 0.011754 0.000000 0.000000 0.000000
# 4 0.000000 0.000000 0.000000 0.028659 0.000000 0.000000
# 5 0.000000 0.000000 0.000000 0.000000 0.028660 0.000000
# 6 0.000000 0.000000 0.000000 0.000000 0.000000 0.029722
#
#
# Mechanical properties :
#
#
# Convention : Reuss Voigt Hill
#
# Bulk Modulus (GPa) = 65.04324 65.04395 65.04360
# Shear Modulus (GPa) = 8.91563 27.79144 18.35353
#
# Velocity S-wave (km/s) = 2.13122 3.76277 3.05782
# Velocity P-wave (km/s) = 6.26040 7.21213 6.75305
#
# Compressibility (1/GPa) = 0.01537439
#
# Stress axis : x y z
#
# Youngs Moduli (GPa) = 8.68526 8.68662 85.07863
#
# Poissons Ratio (x) = 0.92713 0.28053
# Poissons Ratio (y) = 0.92698 0.27998
# Poissons Ratio (z) = 0.02864 0.02859
#
# Static dielectric constant tensor:
#      x y z
#    x 3.825910 0.000000 0.000000 
#    y 0.000000 3.825930 0.000000 
#    z 0.000000 0.000000 3.765100 
# 
# 
# High freq. dielectric constant tensor:
#      x y z
#    x 1.755860 0.000000 0.000000 
#    y 0.000000 1.755860 0.000000 
#    z 0.000000 0.000000 1.787000 
# 
# From -- ./inp_files/5849.got.cif
#   From: 2010.03.12/outbox.cif.g09.slc.cpg/sg138_3_cif.got.tgz:5849.got - 2010.04.08 09:41:05.
