data_PCOD8319473
_publ_section_title
;
Structure prediction by ZEFSAII (Michael W. Deem and Ramdas Pophale) SiO2 
 PCOD8319473
Probable space group: I 4/M M M
;
_chemical_formula_sum "Si O2"
_cell_formula_units_Z 192
_cell_length_a 20.669143
_cell_length_b 20.669143
_cell_length_c 25.127084
_cell_angle_alpha 90.000000
_cell_angle_beta 90.000000
_cell_angle_gamma 90.000000
_cell_volume 10734.628806
_symmetry_space_group_name_H-M "I 4/M M M"
_symmetry_group_IT_number 139
_symmetry_cell_setting 'tetragonal'
loop_
_space_group_symop_operation_xyz
x,y,z
-y,x,z
-x,-y,z
y,-x,z
x,-y,-z
-x,y,-z
y,x,-z
-y,-x,-z
-x,-y,-z
y,-x,-z
x,y,-z
-y,x,-z
-x,y,z
x,-y,z
-y,-x,z
y,x,z
1/2+x,1/2+y,1/2+z
1/2-y,1/2+x,1/2+z
1/2-x,1/2-y,1/2+z
1/2+y,1/2-x,1/2+z
1/2+x,1/2-y,1/2-z
1/2-x,1/2+y,1/2-z
1/2+y,1/2+x,1/2-z
1/2-y,1/2-x,1/2-z
1/2-x,1/2-y,1/2-z
1/2+y,1/2-x,1/2-z
1/2+x,1/2+y,1/2-z
1/2-y,1/2+x,1/2-z
1/2-x,1/2+y,1/2+z
1/2+x,1/2-y,1/2+z
1/2-y,1/2-x,1/2+z
1/2+y,1/2+x,1/2+z
loop_
_atom_site_type_symbol
_atom_site_label
_atom_site_fract_x
_atom_site_fract_y
_atom_site_fract_z
Si Si1 0.427257 0.792961 0.060305
Si Si2 0.642290 0.258315 0.661996
Si Si3 0.684351 0.924000 0.747672
Si Si4 0.252586 0.850190 0.653811
Si Si5 0.427232 0.258580 0.441518
Si Si6 0.105874 0.431060 0.560807
O O1 0.500000 0.767300 0.060466
O O2 0.385548 0.745166 0.096887
O O3 0.425402 0.866211 0.085699
O O4 0.399011 0.792873 0.000000
O O5 0.682794 0.317207 0.689307
O O6 0.587684 0.229296 0.700616
O O7 0.691511 0.201925 0.647357
O O8 0.612857 0.287777 0.607484
O O9 0.618231 0.881770 0.750000
O O10 0.728599 0.902722 0.698165
O O11 0.666750 0.000000 0.743993
O O12 0.184674 0.815327 0.668117
O O13 0.397952 0.276625 0.500000
O O14 0.500000 0.285423 0.438577
O O15 0.426307 0.182123 0.433801
O O16 0.083539 0.433660 0.500000
O O17 0.083184 0.500000 0.587712
#
# Coordination Sequence:
#
# PCOD8319473 Si02
#       6
#    32  32  32  32  32  32
#     4  10  19  30  45  68  99 132 170 215 255 295
#     4  10  19  31  50  73  97 130 171 210 249 291
#     4  10  21  37  55  75 102 133 167 204 243 290
#     4  10  20  34  51  69  95 131 170 210 252 298
#     4   9  16  27  44  67  99 135 168 203 240 282
#     4   8  14  25  40  59  89 132 175 206 234 274
#
# _framework density 17.886040000000001
#
# number of rings (size 3 to 8) (size 9 to 14) (size 15 to 20)
#    0.000    2.500    1.667    2.500    0.000    3.167 
#    0.000    3.333    0.000    2.000    0.000    0.000 
#    0.000   27.333    0.000   14.667    0.000    0.000 
#
# Total GULP energy -1189367.397411 kJ/mol
# GULP energy per Si atom -12389.243723 kJ/mol
# Density = 1.784533 g / cm^3
# Si number density = 17.886040 Si / 1000 Ang^3
#
#
#
# Elastic Constant Matrix: (Units=GPa)
#
#
# Indices 1 2 3 4 5 6 
#
# 1 65.1776 40.2015 35.8884 0.0000 0.0000 0.0000
# 2 40.2015 65.1772 35.8884 0.0000 0.0000 0.0000
# 3 35.8884 35.8884 98.9312 0.0000 0.0000 0.0000
# 4 0.0000 0.0000 0.0000 20.5561 0.0000 0.0000
# 5 0.0000 0.0000 0.0000 0.0000 20.5566 0.0000
# 6 0.0000 0.0000 0.0000 0.0000 0.0000 19.1777
#
#
#
# Elastic Compliance Matrix: (Units=1/GPa)
#
#
# Indices 1 2 3 4 5 6 
#
# 1 0.026321 -0.013717 -0.004572 0.000000 0.000000 0.000000
# 2 -0.013717 0.026321 -0.004572 0.000000 0.000000 0.000000
# 3 -0.004572 -0.004572 0.013425 0.000000 0.000000 0.000000
# 4 0.000000 0.000000 0.000000 0.048647 0.000000 0.000000
# 5 0.000000 0.000000 0.000000 0.000000 0.048646 0.000000
# 6 0.000000 0.000000 0.000000 0.000000 0.000000 0.052144
#
#
# Mechanical properties :
#
#
# Convention : Reuss Voigt Hill
#
# Bulk Modulus (GPa) = 49.15410 50.36028 49.75719
# Shear Modulus (GPa) = 18.65604 19.87860 19.26732
#
# Velocity S-wave (km/s) = 3.23313 3.33739 3.28567
# Velocity P-wave (km/s) = 6.44042 6.56264 6.50182
#
# Compressibility (1/GPa) = 0.02034418
#
# Stress axis : x y z
#
# Youngs Moduli (GPa) = 37.99237 37.99207 74.48649
#
# Poissons Ratio (x) = 0.52115 0.34056
# Poissons Ratio (y) = 0.52116 0.34057
# Poissons Ratio (z) = 0.17371 0.17371
#
# Static dielectric constant tensor:
#      x y z
#    x 3.179030 0.000000 0.000000 
#    y 0.000000 3.179030 0.000000 
#    z 0.000000 0.000000 3.386260 
# 
# 
# High freq. dielectric constant tensor:
#      x y z
#    x 1.661380 0.000000 0.000000 
#    y 0.000000 1.661380 0.000000 
#    z 0.000000 0.000000 1.691000 
# 
# From -- ./inp_files/11902.got.cif
#   From: 2010.03.12/outbox.cif.g09.slc.cpg/sg139_6_cif.got.tgz:11902.got - 2010.04.08 09:46:31.
