data_PCOD8319271
_publ_section_title
;
Structure prediction by ZEFSAII (Michael W. Deem and Ramdas Pophale) SiO2 
 PCOD8319271
Probable space group: I 4/M M M
;
_chemical_formula_sum "Si O2"
_cell_formula_units_Z 208
_cell_length_a 28.523473
_cell_length_b 28.523473
_cell_length_c 15.369403
_cell_angle_alpha 90.000000
_cell_angle_beta 90.000000
_cell_angle_gamma 90.000000
_cell_volume 12504.369717
_symmetry_space_group_name_H-M "I 4/M M M"
_symmetry_group_IT_number 139
_symmetry_cell_setting 'tetragonal'
loop_
_space_group_symop_operation_xyz
x,y,z
-y,x,z
-x,-y,z
y,-x,z
x,-y,-z
-x,y,-z
y,x,-z
-y,-x,-z
-x,-y,-z
y,-x,-z
x,y,-z
-y,x,-z
-x,y,z
x,-y,z
-y,-x,z
y,x,z
1/2+x,1/2+y,1/2+z
1/2-y,1/2+x,1/2+z
1/2-x,1/2-y,1/2+z
1/2+y,1/2-x,1/2+z
1/2+x,1/2-y,1/2-z
1/2-x,1/2+y,1/2-z
1/2+y,1/2+x,1/2-z
1/2-y,1/2-x,1/2-z
1/2-x,1/2-y,1/2-z
1/2+y,1/2-x,1/2-z
1/2+x,1/2+y,1/2-z
1/2-y,1/2+x,1/2-z
1/2-x,1/2+y,1/2+z
1/2+x,1/2-y,1/2+z
1/2-y,1/2-x,1/2+z
1/2+y,1/2+x,1/2+z
loop_
_atom_site_type_symbol
_atom_site_label
_atom_site_fract_x
_atom_site_fract_y
_atom_site_fract_z
Si Si1 0.147337 0.779442 0.899749
Si Si2 0.446443 0.295005 0.135428
Si Si3 0.323424 0.948701 0.780018
Si Si4 0.304146 0.911734 0.597758
Si Si5 0.824679 0.365757 0.399863
Si Si6 0.050869 0.785213 0.173099
Si Si7 0.945858 0.870736 0.500000
O O1 0.185665 0.814336 0.854582
O O2 0.150261 0.726316 0.862737
O O3 0.094252 0.799160 0.888189
O O4 0.159299 0.778013 0.000000
O O5 0.500000 0.279798 0.112927
O O6 0.412833 0.251859 0.109528
O O7 0.441570 0.310811 0.235058
O O8 0.431065 0.340673 0.083507
O O9 0.328907 0.940587 0.675793
O O10 0.346228 0.907789 0.839768
O O11 0.269547 0.949758 0.806514
O O12 0.346039 0.000000 0.800107
O O13 0.317663 0.930412 0.500000
O O14 0.320754 0.857979 0.606772
O O15 0.820444 0.383807 0.500000
O O16 0.000000 0.799498 0.131864
O O17 0.919422 0.919422 0.500000
O O18 0.000000 0.883795 0.500000
#
# Coordination Sequence:
#
# PCOD8319271 Si02
#       7
#    32  32  32  32  32  32  16
#     4   9  17  29  43  60  87 123 156 185 222 268
#     4   9  17  30  47  66  90 115 141 186 238 277
#     4   9  17  28  44  66  90 118 151 189 231 279
#     4  10  17  27  46  67  91 121 152 188 235 276
#     4   9  18  30  44  63  91 126 158 189 226 269
#     4   8  15  27  44  65  84 109 145 185 230 270
#     4  10  20  33  48  66  90 120 153 191 235 279
#
# _framework density 16.634184999999999
#
# number of rings (size 3 to 8) (size 9 to 14) (size 15 to 20)
#    0.000    2.923    0.769    1.846    0.000    2.231 
#    0.000    3.846    0.000   12.000    0.000    0.000 
#    0.000   10.769    0.000   32.154    0.000    1.231 
#
# Total GULP energy -1288389.660864 kJ/mol
# GULP energy per Si atom -12388.362124 kJ/mol
# Density = 1.659633 g / cm^3
# Si number density = 16.634185 Si / 1000 Ang^3
#
#
#
# Elastic Constant Matrix: (Units=GPa)
#
#
# Indices 1 2 3 4 5 6 
#
# 1 78.4774 53.9779 21.5268 0.0000 0.0000 0.0000
# 2 53.9779 78.4774 21.5268 0.0000 0.0000 0.0000
# 3 21.5268 21.5268 48.9088 0.0000 0.0000 0.0000
# 4 0.0000 0.0000 0.0000 18.1984 0.0000 0.0000
# 5 0.0000 0.0000 0.0000 0.0000 18.1984 0.0000
# 6 0.0000 0.0000 0.0000 0.0000 0.0000 19.7097
#
#
#
# Elastic Compliance Matrix: (Units=1/GPa)
#
#
# Indices 1 2 3 4 5 6 
#
# 1 0.024814 -0.016004 -0.003878 0.000000 0.000000 0.000000
# 2 -0.016004 0.024814 -0.003878 0.000000 0.000000 0.000000
# 3 -0.003878 -0.003878 0.023860 0.000000 0.000000 0.000000
# 4 0.000000 0.000000 0.000000 0.054950 0.000000 0.000000
# 5 0.000000 0.000000 0.000000 0.000000 0.054950 0.000000
# 6 0.000000 0.000000 0.000000 0.000000 0.000000 0.050736
#
#
# Mechanical properties :
#
#
# Convention : Reuss Voigt Hill
#
# Bulk Modulus (GPa) = 38.50720 44.43625 41.47173
# Shear Modulus (GPa) = 17.22370 18.47677 17.85023
#
# Velocity S-wave (km/s) = 3.22132 3.33644 3.27938
# Velocity P-wave (km/s) = 6.08568 6.45091 6.27096
#
# Compressibility (1/GPa) = 0.02596917
#
# Stress axis : x y z
#
# Youngs Moduli (GPa) = 40.30036 40.30036 41.91165
#
# Poissons Ratio (x) = 0.64495 0.16252
# Poissons Ratio (y) = 0.64495 0.16252
# Poissons Ratio (z) = 0.15627 0.15627
#
# Static dielectric constant tensor:
#      x y z
#    x 3.122300 0.000000 0.000000 
#    y 0.000000 3.122300 0.000000 
#    z 0.000000 0.000000 3.371820 
# 
# 
# High freq. dielectric constant tensor:
#      x y z
#    x 1.613010 0.000000 0.000000 
#    y 0.000000 1.613010 0.000000 
#    z 0.000000 0.000000 1.645160 
# 
# From -- ./inp_files/8983.got.cif
#   From: 2010.03.12/outbox.cif.g09.slc.cpg/sg139_5_cif.got.tgz:8983.got - 2010.04.08 09:46:31.
