data_PCOD8319574
_publ_section_title
;
Structure prediction by ZEFSAII (Michael W. Deem and Ramdas Pophale) SiO2 
 PCOD8319574
Probable space group: I 4/M M M
;
_chemical_formula_sum "Si O2"
_cell_formula_units_Z 160
_cell_length_a 17.837396
_cell_length_b 17.837396
_cell_length_c 29.307780
_cell_angle_alpha 90.000000
_cell_angle_beta 90.000000
_cell_angle_gamma 90.000000
_cell_volume 9324.935378
_symmetry_space_group_name_H-M "I 4/M M M"
_symmetry_group_IT_number 139
_symmetry_cell_setting 'tetragonal'
loop_
_space_group_symop_operation_xyz
x,y,z
-y,x,z
-x,-y,z
y,-x,z
x,-y,-z
-x,y,-z
y,x,-z
-y,-x,-z
-x,-y,-z
y,-x,-z
x,y,-z
-y,x,-z
-x,y,z
x,-y,z
-y,-x,z
y,x,z
1/2+x,1/2+y,1/2+z
1/2-y,1/2+x,1/2+z
1/2-x,1/2-y,1/2+z
1/2+y,1/2-x,1/2+z
1/2+x,1/2-y,1/2-z
1/2-x,1/2+y,1/2-z
1/2+y,1/2+x,1/2-z
1/2-y,1/2-x,1/2-z
1/2-x,1/2-y,1/2-z
1/2+y,1/2-x,1/2-z
1/2+x,1/2+y,1/2-z
1/2-y,1/2+x,1/2-z
1/2-x,1/2+y,1/2+z
1/2+x,1/2-y,1/2+z
1/2-y,1/2-x,1/2+z
1/2+y,1/2+x,1/2+z
loop_
_atom_site_type_symbol
_atom_site_label
_atom_site_fract_x
_atom_site_fract_y
_atom_site_fract_z
Si Si1 0.769151 0.350266 0.096966
Si Si2 0.797922 0.085497 0.684750
Si Si3 0.500000 0.795304 0.053020
Si Si4 0.414309 0.163108 0.641095
Si Si5 0.000000 0.582873 0.371916
Si Si6 0.085608 0.208584 0.788196
O O1 0.716832 0.283169 0.078644
O O2 0.753592 0.368550 0.150079
O O3 0.751285 0.423131 0.065765
O O4 0.856788 0.324013 0.098285
O O5 0.882817 0.117184 0.682845
O O6 0.766269 0.096021 0.735774
O O7 0.799553 0.000000 0.668807
O O8 0.500000 0.870470 0.081908
O O9 0.500000 0.814094 0.000000
O O10 0.500000 0.176299 0.624285
O O11 0.394314 0.218599 0.682182
O O12 0.402833 0.075800 0.657597
O O13 0.000000 0.500000 0.391457
O O14 0.140305 0.140305 0.801926
O O15 0.000000 0.181683 0.796631
#
# Coordination Sequence:
#
# PCOD8319574 Si02
#       6
#    32  32  16  32  16  32
#     4  10  19  32  51  69  90 124 158 191 237 289
#     4   9  17  29  45  65  89 120 161 201 236 279
#     4  10  20  33  50  73  96 118 149 193 242 288
#     4   9  17  30  47  68  94 124 154 196 234 273
#     4   8  16  31  50  70  93 123 160 196 229 271
#     4   9  17  28  44  67  94 124 159 198 235 274
#
# _framework density 17.158296
#
# number of rings (size 3 to 8) (size 9 to 14) (size 15 to 20)
#    0.000    2.800    1.000    0.600    0.000    1.800 
#    0.000    5.000    2.200    0.300    0.000    0.700 
#    0.000    0.000    0.000    0.000    0.000    0.000 
#
# Total GULP energy -991154.413495 kJ/mol
# GULP energy per Si atom -12389.430169 kJ/mol
# Density = 1.711924 g / cm^3
# Si number density = 17.158296 Si / 1000 Ang^3
#
#
#
# Elastic Constant Matrix: (Units=GPa)
#
#
# Indices 1 2 3 4 5 6 
#
# 1 85.6189 49.7746 30.4679 0.0000 0.0000 0.0000
# 2 49.7746 85.6189 30.4679 0.0000 0.0000 0.0000
# 3 30.4679 30.4679 61.4698 0.0000 0.0000 0.0000
# 4 0.0000 0.0000 0.0000 12.0374 0.0000 0.0000
# 5 0.0000 0.0000 0.0000 0.0000 12.0374 0.0000
# 6 0.0000 0.0000 0.0000 0.0000 0.0000 28.8124
#
#
#
# Elastic Compliance Matrix: (Units=1/GPa)
#
#
# Indices 1 2 3 4 5 6 
#
# 1 0.018702 -0.009196 -0.004712 0.000000 0.000000 0.000000
# 2 -0.009196 0.018702 -0.004712 0.000000 0.000000 0.000000
# 3 -0.004712 -0.004712 0.020939 0.000000 0.000000 0.000000
# 4 0.000000 0.000000 0.000000 0.083075 0.000000 0.000000
# 5 0.000000 0.000000 0.000000 0.000000 0.083075 0.000000
# 6 0.000000 0.000000 0.000000 0.000000 0.000000 0.034707
#
#
# Mechanical properties :
#
#
# Convention : Reuss Voigt Hill
#
# Bulk Modulus (GPa) = 47.38351 50.45871 48.92111
# Shear Modulus (GPa) = 16.47581 18.71058 17.59319
#
# Velocity S-wave (km/s) = 3.10211 3.30581 3.20558
# Velocity P-wave (km/s) = 6.36445 6.63647 6.50188
#
# Compressibility (1/GPa) = 0.02110439
#
# Stress axis : x y z
#
# Youngs Moduli (GPa) = 53.46886 53.46886 47.75728
#
# Poissons Ratio (x) = 0.49169 0.22503
# Poissons Ratio (y) = 0.49169 0.22503
# Poissons Ratio (z) = 0.25195 0.25195
#
# Static dielectric constant tensor:
#      x y z
#    x 3.445440 0.000000 0.000000 
#    y 0.000000 3.445440 0.000000 
#    z 0.000000 0.000000 2.774710 
# 
# 
# High freq. dielectric constant tensor:
#      x y z
#    x 1.670210 0.000000 0.000000 
#    y 0.000000 1.670210 0.000000 
#    z 0.000000 0.000000 1.612040 
# 
# From -- ./inp_files/12966.got.cif
#   From: 2010.03.12/outbox.cif.g09.slc.cpg/sg139_7_cif.got.tgz:12966.got - 2010.04.08 09:46:31.
