data_PCOD8319962
_publ_section_title
;
Structure prediction by ZEFSAII (Michael W. Deem and Ramdas Pophale) SiO2 
 PCOD8319962
Probable space group: I 4/M M M
;
_chemical_formula_sum "Si O2"
_cell_formula_units_Z 176
_cell_length_a 18.335853
_cell_length_b 18.335853
_cell_length_c 26.483377
_cell_angle_alpha 90.000000
_cell_angle_beta 90.000000
_cell_angle_gamma 90.000000
_cell_volume 8903.804178
_symmetry_space_group_name_H-M "I 4/M M M"
_symmetry_group_IT_number 139
_symmetry_cell_setting 'tetragonal'
loop_
_space_group_symop_operation_xyz
x,y,z
-y,x,z
-x,-y,z
y,-x,z
x,-y,-z
-x,y,-z
y,x,-z
-y,-x,-z
-x,-y,-z
y,-x,-z
x,y,-z
-y,x,-z
-x,y,z
x,-y,z
-y,-x,z
y,x,z
1/2+x,1/2+y,1/2+z
1/2-y,1/2+x,1/2+z
1/2-x,1/2-y,1/2+z
1/2+y,1/2-x,1/2+z
1/2+x,1/2-y,1/2-z
1/2-x,1/2+y,1/2-z
1/2+y,1/2+x,1/2-z
1/2-y,1/2-x,1/2-z
1/2-x,1/2-y,1/2-z
1/2+y,1/2-x,1/2-z
1/2+x,1/2+y,1/2-z
1/2-y,1/2+x,1/2-z
1/2-x,1/2+y,1/2+z
1/2+x,1/2-y,1/2+z
1/2-y,1/2-x,1/2+z
1/2+y,1/2+x,1/2+z
loop_
_atom_site_type_symbol
_atom_site_label
_atom_site_fract_x
_atom_site_fract_y
_atom_site_fract_z
Si Si1 0.148932 0.646500 0.402078
Si Si2 0.803203 0.196798 0.439386
Si Si3 0.082418 0.352183 0.795883
Si Si4 0.198029 0.918642 0.907843
Si Si5 0.920356 0.807749 0.212177
Si Si6 0.080889 0.500000 0.058770
Si Si7 0.080570 0.919431 0.440098
O O1 0.169779 0.728661 0.414887
O O2 0.135409 0.637429 0.342141
O O3 0.217778 0.598804 0.421936
O O4 0.073149 0.624753 0.427861
O O5 0.796603 0.203398 0.500000
O O6 0.861694 0.138307 0.420227
O O7 0.091234 0.408767 0.750000
O O8 0.097319 0.273828 0.770099
O O9 0.000000 0.357140 0.817309
O O10 0.141101 0.858900 0.931160
O O11 0.190347 0.916955 0.848062
O O12 0.179460 0.000000 0.928573
O O13 0.861975 0.861975 0.236897
O O14 0.000000 0.832727 0.230908
O O15 0.000000 0.500000 0.084626
O O16 0.070137 0.500000 0.000000
O O17 0.080472 0.919529 0.500000
O O18 0.000000 0.897961 0.420263
#
# Coordination Sequence:
#
# PCOD8319962 Si02
#       7
#    32  16  32  32  32  16  16
#     4  11  22  40  59  89 124 164 206 258 318 381
#     4  11  23  38  62  93 126 164 209 257 314 384
#     4  10  22  38  59  85 116 158 206 258 318 378
#     4   9  16  30  52  79 113 152 194 243 302 360
#     4   8  15  28  47  75 109 144 184 234 289 354
#     4  11  24  40  62  90 123 165 207 259 326 386
#     4   8  16  33  58  87 117 149 187 238 300 362
#
# _framework density 19.766831
#
# number of rings (size 3 to 8) (size 9 to 14) (size 15 to 20)
#    0.000    2.364    0.909    3.545    3.818    0.909 
#    0.000    1.818    0.000    0.000    0.000    0.000 
#    0.000    0.727    0.000    0.000    0.000    0.000 
#
# Total GULP energy -1090600.358636 kJ/mol
# GULP energy per Si atom -12393.185894 kJ/mol
# Density = 1.972184 g / cm^3
# Si number density = 19.766831 Si / 1000 Ang^3
#
#
#
# Elastic Constant Matrix: (Units=GPa)
#
#
# Indices 1 2 3 4 5 6 
#
# 1 139.3294 77.9619 31.2870 0.0000 0.0000 0.0000
# 2 77.9619 139.3270 31.2864 0.0000 0.0000 0.0000
# 3 31.2870 31.2864 58.5152 0.0000 0.0000 0.0000
# 4 0.0000 0.0000 0.0000 20.3772 0.0000 0.0000
# 5 0.0000 0.0000 0.0000 0.0000 20.3773 0.0000
# 6 0.0000 0.0000 0.0000 0.0000 0.0000 38.3941
#
#
#
# Elastic Compliance Matrix: (Units=1/GPa)
#
#
# Indices 1 2 3 4 5 6 
#
# 1 0.010868 -0.005428 -0.002909 0.000000 0.000000 0.000000
# 2 -0.005428 0.010868 -0.002908 0.000000 0.000000 0.000000
# 3 -0.002909 -0.002908 0.020200 0.000000 0.000000 0.000000
# 4 0.000000 0.000000 0.000000 0.049074 0.000000 0.000000
# 5 0.000000 0.000000 0.000000 0.000000 0.049074 0.000000
# 6 0.000000 0.000000 0.000000 0.000000 0.000000 0.026046
#
#
# Mechanical properties :
#
#
# Convention : Reuss Voigt Hill
#
# Bulk Modulus (GPa) = 51.42644 68.69358 60.06001
# Shear Modulus (GPa) = 25.62777 28.93882 27.28330
#
# Velocity S-wave (km/s) = 3.60461 3.83039 3.71921
# Velocity P-wave (km/s) = 6.58766 7.37495 6.99239
#
# Compressibility (1/GPa) = 0.01944525
#
# Stress axis : x y z
#
# Youngs Moduli (GPa) = 92.01692 92.01555 49.50550
#
# Poissons Ratio (x) = 0.49946 0.14399
# Poissons Ratio (y) = 0.49946 0.14398
# Poissons Ratio (z) = 0.26763 0.26762
#
# Static dielectric constant tensor:
#      x y z
#    x 3.895770 0.000000 0.000000 
#    y 0.000000 3.895790 0.000000 
#    z 0.000000 0.000000 3.070330 
# 
# 
# High freq. dielectric constant tensor:
#      x y z
#    x 1.781350 0.000000 0.000000 
#    y 0.000000 1.781350 0.000000 
#    z 0.000000 0.000000 1.720850 
# 
# From -- ./inp_files/14299.got.cif
#   From: 2010.03.12/outbox.cif.g09.slc.cpg/sg139_8_cif.got.tgz:14299.got - 2010.04.08 09:46:31.
