data_PCOD8319879
_publ_section_title
;
Structure prediction by ZEFSAII (Michael W. Deem and Ramdas Pophale) SiO2 
 PCOD8319879
Probable space group: I 4/M M M
;
_chemical_formula_sum "Si O2"
_cell_formula_units_Z 160
_cell_length_a 20.196755
_cell_length_b 20.196755
_cell_length_c 19.148035
_cell_angle_alpha 90.000000
_cell_angle_beta 90.000000
_cell_angle_gamma 90.000000
_cell_volume 7810.654134
_symmetry_space_group_name_H-M "I 4/M M M"
_symmetry_group_IT_number 139
_symmetry_cell_setting 'tetragonal'
loop_
_space_group_symop_operation_xyz
x,y,z
-y,x,z
-x,-y,z
y,-x,z
x,-y,-z
-x,y,-z
y,x,-z
-y,-x,-z
-x,-y,-z
y,-x,-z
x,y,-z
-y,x,-z
-x,y,z
x,-y,z
-y,-x,z
y,x,z
1/2+x,1/2+y,1/2+z
1/2-y,1/2+x,1/2+z
1/2-x,1/2-y,1/2+z
1/2+y,1/2-x,1/2+z
1/2+x,1/2-y,1/2-z
1/2-x,1/2+y,1/2-z
1/2+y,1/2+x,1/2-z
1/2-y,1/2-x,1/2-z
1/2-x,1/2-y,1/2-z
1/2+y,1/2-x,1/2-z
1/2+x,1/2+y,1/2-z
1/2-y,1/2+x,1/2-z
1/2-x,1/2+y,1/2+z
1/2+x,1/2-y,1/2+z
1/2-y,1/2-x,1/2+z
1/2+y,1/2+x,1/2+z
loop_
_atom_site_type_symbol
_atom_site_label
_atom_site_fract_x
_atom_site_fract_y
_atom_site_fract_z
Si Si1 0.232079 0.871146 0.286084
Si Si2 0.368638 0.076406 0.687754
Si Si3 0.682607 0.576072 0.649089
Si Si4 0.421969 0.179095 0.419509
Si Si5 0.925287 0.178771 0.423005
O O1 0.204962 0.795039 0.276938
O O2 0.308683 0.884807 0.272896
O O3 0.190517 0.917054 0.232759
O O4 0.225126 0.890745 0.366921
O O5 0.423430 0.076571 0.750000
O O6 0.389558 0.116119 0.618712
O O7 0.352416 0.000000 0.667243
O O8 0.666499 0.500000 0.629594
O O9 0.622288 0.622288 0.622066
O O10 0.750661 0.601041 0.612876
O O11 0.399889 0.176832 0.500000
O O12 0.500000 0.172162 0.410751
O O13 0.917582 0.211527 0.500000
O O14 0.893786 0.106214 0.421897
O O15 0.000000 0.168611 0.401014
#
# Coordination Sequence:
#
# PCOD8319879 Si02
#       5
#    32  32  32  32  32
#     4  10  21  37  59  85 119 160 202 246 299 365
#     4  12  24  39  63  93 123 156 203 257 311 370
#     4  10  20  37  62  91 125 166 211 260 313 370
#     4  10  23  43  63  86 120 161 203 250 313 382
#     4   9  17  29  46  71 106 148 192 239 290 342
#
# _framework density 20.484840999999999
#
# number of rings (size 3 to 8) (size 9 to 14) (size 15 to 20)
#    0.000    1.800    2.000    2.400    0.000    4.600 
#    0.000    2.000    0.000    3.600    0.000    2.800 
#    0.000    0.000    0.000    0.000    0.000    0.000 
#
# Total GULP energy -991325.511489 kJ/mol
# GULP energy per Si atom -12391.568894 kJ/mol
# Density = 2.043822 g / cm^3
# Si number density = 20.484841 Si / 1000 Ang^3
#
#
#
# Elastic Constant Matrix: (Units=GPa)
#
#
# Indices 1 2 3 4 5 6 
#
# 1 114.1549 49.0094 37.5088 0.0000 0.0000 0.0000
# 2 49.0094 114.1554 37.5076 0.0000 0.0000 0.0000
# 3 37.5088 37.5076 97.9907 0.0000 0.0000 0.0000
# 4 0.0000 0.0000 0.0000 25.2330 0.0000 0.0000
# 5 0.0000 0.0000 0.0000 0.0000 25.2329 0.0000
# 6 0.0000 0.0000 0.0000 0.0000 0.0000 26.0554
#
#
#
# Elastic Compliance Matrix: (Units=1/GPa)
#
#
# Indices 1 2 3 4 5 6 
#
# 1 0.011394 -0.003956 -0.002847 0.000000 0.000000 0.000000
# 2 -0.003956 0.011394 -0.002847 0.000000 0.000000 0.000000
# 3 -0.002847 -0.002847 0.012385 0.000000 0.000000 0.000000
# 4 0.000000 0.000000 0.000000 0.039631 0.000000 0.000000
# 5 0.000000 0.000000 0.000000 0.000000 0.039631 0.000000
# 6 0.000000 0.000000 0.000000 0.000000 0.000000 0.038380
#
#
# Mechanical properties :
#
#
# Convention : Reuss Voigt Hill
#
# Bulk Modulus (GPa) = 63.00358 63.81695 63.41026
# Shear Modulus (GPa) = 28.18416 28.78927 28.48672
#
# Velocity S-wave (km/s) = 3.71328 3.75293 3.73315
# Velocity P-wave (km/s) = 7.01481 7.07108 7.04300
#
# Compressibility (1/GPa) = 0.01587211
#
# Stress axis : x y z
#
# Youngs Moduli (GPa) = 87.76528 87.76648 80.74599
#
# Poissons Ratio (x) = 0.34723 0.22989
# Poissons Ratio (y) = 0.34722 0.22987
# Poissons Ratio (z) = 0.24987 0.24986
#
# Static dielectric constant tensor:
#      x y z
#    x 3.660410 0.000000 0.000000 
#    y 0.000000 3.660400 0.000000 
#    z 0.000000 0.000000 3.809430 
# 
# 
# High freq. dielectric constant tensor:
#      x y z
#    x 1.793110 0.000000 0.000000 
#    y 0.000000 1.793110 0.000000 
#    z 0.000000 0.000000 1.807720 
# 
# From -- ./inp_files/8380.got.cif
#   From: 2010.03.12/outbox.cif.g09.slc.cpg/sg139_5_cif.got.tgz:8380.got - 2010.04.08 09:46:31.
