data_PCOD8319449
_publ_section_title
;
Structure prediction by ZEFSAII (Michael W. Deem and Ramdas Pophale) SiO2 
 PCOD8319449
Probable space group: I 4/M M M
;
_chemical_formula_sum "Si O2"
_cell_formula_units_Z 192
_cell_length_a 21.687894
_cell_length_b 21.687894
_cell_length_c 23.610115
_cell_angle_alpha 90.000000
_cell_angle_beta 90.000000
_cell_angle_gamma 90.000000
_cell_volume 11105.365749
_symmetry_space_group_name_H-M "I 4/M M M"
_symmetry_group_IT_number 139
_symmetry_cell_setting 'tetragonal'
loop_
_space_group_symop_operation_xyz
x,y,z
-y,x,z
-x,-y,z
y,-x,z
x,-y,-z
-x,y,-z
y,x,-z
-y,-x,-z
-x,-y,-z
y,-x,-z
x,y,-z
-y,x,-z
-x,y,z
x,-y,z
-y,-x,z
y,x,z
1/2+x,1/2+y,1/2+z
1/2-y,1/2+x,1/2+z
1/2-x,1/2-y,1/2+z
1/2+y,1/2-x,1/2+z
1/2+x,1/2-y,1/2-z
1/2-x,1/2+y,1/2-z
1/2+y,1/2+x,1/2-z
1/2-y,1/2-x,1/2-z
1/2-x,1/2-y,1/2-z
1/2+y,1/2-x,1/2-z
1/2+x,1/2+y,1/2-z
1/2-y,1/2+x,1/2-z
1/2-x,1/2+y,1/2+z
1/2+x,1/2-y,1/2+z
1/2-y,1/2-x,1/2+z
1/2+y,1/2+x,1/2+z
loop_
_atom_site_type_symbol
_atom_site_label
_atom_site_fract_x
_atom_site_fract_y
_atom_site_fract_z
Si Si1 0.069876 0.169055 0.269800
Si Si2 0.897540 0.801866 0.500000
Si Si3 0.342615 0.759101 0.718164
Si Si4 0.660344 0.156125 0.882712
Si Si5 0.072648 0.429788 0.814618
Si Si6 0.566862 0.734839 0.881035
Si Si7 0.196895 0.297174 0.000000
O O1 0.110348 0.110348 0.251075
O O2 0.092013 0.232762 0.239680
O O3 0.076030 0.178748 0.337255
O O4 0.000000 0.156186 0.250727
O O5 0.870788 0.870788 0.500000
O O6 0.937638 0.792593 0.443954
O O7 0.842149 0.754041 0.500000
O O8 0.293507 0.706494 0.730679
O O9 0.322078 0.822078 0.750000
O O10 0.346090 0.776291 0.652444
O O11 0.615042 0.101414 0.862481
O O12 0.623641 0.219384 0.872484
O O13 0.686123 0.152780 0.946701
O O14 0.094696 0.500000 0.825744
O O15 0.090230 0.409771 0.750000
O O16 0.000000 0.425182 0.822161
O O17 0.500000 0.766826 0.869084
O O18 0.227066 0.227066 0.000000
#
# Coordination Sequence:
#
# PCOD8319449 Si02
#       7
#    32  16  32  32  32  32  16
#     4  10  21  35  51  74 101 131 169 214 262 314
#     4   9  17  29  45  62  89 132 171 209 258 301
#     4  10  19  31  49  73 100 127 161 208 260 312
#     4  11  19  32  51  74  99 140 171 209 262 317
#     4   9  19  34  51  73 103 139 180 223 263 308
#     4  10  19  29  45  70 100 130 172 218 256 304
#     4   9  20  33  48  71  99 129 168 212 261 322
#
# _framework density 17.288938999999999
#
# number of rings (size 3 to 8) (size 9 to 14) (size 15 to 20)
#    0.000    2.167    1.667    2.750    0.000    2.167 
#    0.000    1.667    0.000    1.000    0.000    0.000 
#    0.000    6.000    0.000    0.000    0.000    7.667 
#
# Total GULP energy -1189605.464266 kJ/mol
# GULP energy per Si atom -12391.723586 kJ/mol
# Density = 1.724959 g / cm^3
# Si number density = 17.288939 Si / 1000 Ang^3
#
#
#
# Elastic Constant Matrix: (Units=GPa)
#
#
# Indices 1 2 3 4 5 6 
#
# 1 71.9685 41.5463 40.0385 0.0000 0.0000 0.0000
# 2 41.5463 71.9688 40.0385 0.0000 0.0000 0.0000
# 3 40.0385 40.0385 111.6524 0.0000 0.0000 0.0000
# 4 0.0000 0.0000 0.0000 21.6958 0.0000 0.0000
# 5 0.0000 0.0000 0.0000 0.0000 21.6957 0.0000
# 6 0.0000 0.0000 0.0000 0.0000 0.0000 25.8114
#
#
#
# Elastic Compliance Matrix: (Units=1/GPa)
#
#
# Indices 1 2 3 4 5 6 
#
# 1 0.022332 -0.010539 -0.004229 0.000000 0.000000 0.000000
# 2 -0.010539 0.022331 -0.004229 0.000000 0.000000 0.000000
# 3 -0.004229 -0.004229 0.011989 0.000000 0.000000 0.000000
# 4 0.000000 0.000000 0.000000 0.046092 0.000000 0.000000
# 5 0.000000 0.000000 0.000000 0.000000 0.046092 0.000000
# 6 0.000000 0.000000 0.000000 0.000000 0.000000 0.038743
#
#
# Mechanical properties :
#
#
# Convention : Reuss Voigt Hill
#
# Bulk Modulus (GPa) = 53.59301 55.42623 54.50962
# Shear Modulus (GPa) = 21.57108 22.77168 22.17138
#
# Velocity S-wave (km/s) = 3.53608 3.63316 3.58495
# Velocity P-wave (km/s) = 6.90924 7.05182 6.98089
#
# Compressibility (1/GPa) = 0.01865915
#
# Stress axis : x y z
#
# Youngs Moduli (GPa) = 44.77960 44.77985 83.40806
#
# Poissons Ratio (x) = 0.47193 0.35272
# Poissons Ratio (y) = 0.47193 0.35271
# Poissons Ratio (z) = 0.18936 0.18936
#
# Static dielectric constant tensor:
#      x y z
#    x 3.106790 0.000000 0.000000 
#    y 0.000000 3.106800 0.000000 
#    z 0.000000 0.000000 3.330990 
# 
# 
# High freq. dielectric constant tensor:
#      x y z
#    x 1.653770 0.000000 0.000000 
#    y 0.000000 1.653770 0.000000 
#    z 0.000000 0.000000 1.658110 
# 
# From -- ./inp_files/13352.got.cif
#   From: 2010.03.12/outbox.cif.g09.slc.cpg/sg139_7_cif.got.tgz:13352.got - 2010.04.08 09:46:31.
