data_PCOD8319730
_publ_section_title
;
Structure prediction by ZEFSAII (Michael W. Deem and Ramdas Pophale) SiO2 
 PCOD8319730
Probable space group: I 4/M M M
;
_chemical_formula_sum "Si O2"
_cell_formula_units_Z 176
_cell_length_a 18.736117
_cell_length_b 18.736117
_cell_length_c 27.417888
_cell_angle_alpha 90.000000
_cell_angle_beta 90.000000
_cell_angle_gamma 90.000000
_cell_volume 9624.832439
_symmetry_space_group_name_H-M "I 4/M M M"
_symmetry_group_IT_number 139
_symmetry_cell_setting 'tetragonal'
loop_
_space_group_symop_operation_xyz
x,y,z
-y,x,z
-x,-y,z
y,-x,z
x,-y,-z
-x,y,-z
y,x,-z
-y,-x,-z
-x,-y,-z
y,-x,-z
x,y,-z
-y,x,-z
-x,y,z
x,-y,z
-y,-x,z
y,x,z
1/2+x,1/2+y,1/2+z
1/2-y,1/2+x,1/2+z
1/2-x,1/2-y,1/2+z
1/2+y,1/2-x,1/2+z
1/2+x,1/2-y,1/2-z
1/2-x,1/2+y,1/2-z
1/2+y,1/2+x,1/2-z
1/2-y,1/2-x,1/2-z
1/2-x,1/2-y,1/2-z
1/2+y,1/2-x,1/2-z
1/2+x,1/2+y,1/2-z
1/2-y,1/2+x,1/2-z
1/2-x,1/2+y,1/2+z
1/2+x,1/2-y,1/2+z
1/2-y,1/2-x,1/2+z
1/2+y,1/2+x,1/2+z
loop_
_atom_site_type_symbol
_atom_site_label
_atom_site_fract_x
_atom_site_fract_y
_atom_site_fract_z
Si Si1 0.190156 0.582499 0.556136
Si Si2 0.697518 0.581195 0.828206
Si Si3 0.417322 0.698065 0.000000
Si Si4 0.639616 0.755890 0.731753
Si Si5 0.699087 0.917403 0.587126
Si Si6 0.699957 0.581744 0.362587
O O1 0.203947 0.603751 0.500000
O O2 0.168300 0.500000 0.561173
O O3 0.125926 0.626908 0.579393
O O4 0.262225 0.598829 0.586030
O O5 0.673520 0.500000 0.838292
O O6 0.631424 0.631424 0.842373
O O7 0.719388 0.589812 0.772169
O O8 0.766406 0.601288 0.860646
O O9 0.395281 0.743064 0.952917
O O10 0.500000 0.678015 0.000000
O O11 0.375923 0.624078 0.000000
O O12 0.710371 0.710371 0.721707
O O13 0.665392 0.834609 0.750000
O O14 0.595962 0.757089 0.681087
O O15 0.678187 0.000000 0.582466
O O16 0.674648 0.500000 0.360513
O O17 0.629704 0.629704 0.356757
#
# Coordination Sequence:
#
# PCOD8319730 Si02
#       6
#    32  32  16  32  32  32
#     4  10  21  37  56  80 107 134 171 220 274 330
#     4  10  20  33  51  76 107 143 183 224 263 310
#     4  10  20  33  49  71 101 137 176 216 256 302
#     4   9  17  31  52  76 102 134 173 215 262 311
#     4  10  20  35  53  77 106 136 174 217 263 318
#     4  10  21  36  54  78 108 141 180 223 266 318
#
# _framework density 18.286033
#
# number of rings (size 3 to 8) (size 9 to 14) (size 15 to 20)
#    0.000    2.182    0.909    2.182    0.000    4.091 
#    0.000    0.909    0.000    6.545    0.000    2.545 
#    0.000   13.091    0.000    0.000    0.000    0.000 
#
# Total GULP energy -1091250.535031 kJ/mol
# GULP energy per Si atom -12400.574262 kJ/mol
# Density = 1.824441 g / cm^3
# Si number density = 18.286033 Si / 1000 Ang^3
#
#
#
# Elastic Constant Matrix: (Units=GPa)
#
#
# Indices 1 2 3 4 5 6 
#
# 1 85.9028 63.3301 41.0484 0.0000 0.0000 0.0000
# 2 63.3301 85.9038 41.0482 0.0000 0.0000 0.0000
# 3 41.0484 41.0482 109.1943 0.0000 0.0000 0.0000
# 4 0.0000 0.0000 0.0000 23.6420 0.0000 0.0000
# 5 0.0000 0.0000 0.0000 0.0000 23.6425 0.0000
# 6 0.0000 0.0000 0.0000 0.0000 0.0000 31.4257
#
#
#
# Elastic Compliance Matrix: (Units=1/GPa)
#
#
# Indices 1 2 3 4 5 6 
#
# 1 0.026374 -0.017926 -0.003176 0.000000 0.000000 0.000000
# 2 -0.017926 0.026374 -0.003176 0.000000 0.000000 0.000000
# 3 -0.003176 -0.003176 0.011546 0.000000 0.000000 0.000000
# 4 0.000000 0.000000 0.000000 0.042298 0.000000 0.000000
# 5 0.000000 0.000000 0.000000 0.000000 0.042297 0.000000
# 6 0.000000 0.000000 0.000000 0.000000 0.000000 0.031821
#
#
# Mechanical properties :
#
#
# Convention : Reuss Voigt Hill
#
# Bulk Modulus (GPa) = 63.53825 63.53937 63.53881
# Shear Modulus (GPa) = 21.32097 24.78033 23.05065
#
# Velocity S-wave (km/s) = 3.41834 3.68523 3.55429
# Velocity P-wave (km/s) = 7.09946 7.27536 7.18795
#
# Compressibility (1/GPa) = 0.01573855
#
# Stress axis : x y z
#
# Youngs Moduli (GPa) = 37.91559 37.91619 86.61273
#
# Poissons Ratio (x) = 0.67969 0.27507
# Poissons Ratio (y) = 0.67968 0.27505
# Poissons Ratio (z) = 0.12042 0.12041
#
# Static dielectric constant tensor:
#      x y z
#    x 3.214300 0.000000 0.000000 
#    y 0.000000 3.214300 0.000000 
#    z 0.000000 0.000000 3.641100 
# 
# 
# High freq. dielectric constant tensor:
#      x y z
#    x 1.696350 0.000000 0.000000 
#    y 0.000000 1.696350 0.000000 
#    z 0.000000 0.000000 1.727040 
# 
# From -- ./inp_files/13084.got.cif
#   From: 2010.03.12/outbox.cif.g09.slc.cpg/sg139_7_cif.got.tgz:13084.got - 2010.04.08 09:46:31.
