data_PCOD8319283
_publ_section_title
;
Structure prediction by ZEFSAII (Michael W. Deem and Ramdas Pophale) SiO2 
 PCOD8319283
Probable space group: I 4/M M M
;
_chemical_formula_sum "Si O2"
_cell_formula_units_Z 192
_cell_length_a 21.490043
_cell_length_b 21.490043
_cell_length_c 22.386065
_cell_angle_alpha 90.000000
_cell_angle_beta 90.000000
_cell_angle_gamma 90.000000
_cell_volume 10338.376150
_symmetry_space_group_name_H-M "I 4/M M M"
_symmetry_group_IT_number 139
_symmetry_cell_setting 'tetragonal'
loop_
_space_group_symop_operation_xyz
x,y,z
-y,x,z
-x,-y,z
y,-x,z
x,-y,-z
-x,y,-z
y,x,-z
-y,-x,-z
-x,-y,-z
y,-x,-z
x,y,-z
-y,x,-z
-x,y,z
x,-y,z
-y,-x,z
y,x,z
1/2+x,1/2+y,1/2+z
1/2-y,1/2+x,1/2+z
1/2-x,1/2-y,1/2+z
1/2+y,1/2-x,1/2+z
1/2+x,1/2-y,1/2-z
1/2-x,1/2+y,1/2-z
1/2+y,1/2+x,1/2-z
1/2-y,1/2-x,1/2-z
1/2-x,1/2-y,1/2-z
1/2+y,1/2-x,1/2-z
1/2+x,1/2+y,1/2-z
1/2-y,1/2+x,1/2-z
1/2-x,1/2+y,1/2+z
1/2+x,1/2-y,1/2+z
1/2-y,1/2-x,1/2+z
1/2+y,1/2+x,1/2+z
loop_
_atom_site_type_symbol
_atom_site_label
_atom_site_fract_x
_atom_site_fract_y
_atom_site_fract_z
Si Si1 0.929514 0.762753 0.066200
Si Si2 0.674587 0.427533 0.000000
Si Si3 0.366982 0.878655 0.069337
Si Si4 0.069491 0.500000 0.428734
Si Si5 0.073694 0.743137 0.616021
Si Si6 0.747323 0.850496 0.735658
Si Si7 0.328682 0.571605 0.683613
O O1 0.880549 0.707376 0.079975
O O2 0.921674 0.818975 0.112494
O O3 0.000000 0.735414 0.069404
O O4 0.916430 0.789636 0.000000
O O5 0.712789 0.410215 0.940232
O O6 0.656896 0.500000 0.000000
O O7 0.610905 0.389096 0.000000
O O8 0.395947 0.940425 0.097464
O O9 0.402220 0.824835 0.102646
O O10 0.382728 0.872416 0.000000
O O11 0.072088 0.500000 0.500000
O O12 0.000000 0.500000 0.404100
O O13 0.112674 0.760412 0.674407
O O14 0.000000 0.743726 0.629270
O O15 0.792384 0.792384 0.735481
O O16 0.677463 0.822538 0.750000
O O17 0.766668 0.899467 0.786884
O O18 0.337503 0.500000 0.703318
O O19 0.390699 0.609302 0.702365
#
# Coordination Sequence:
#
# PCOD8319283 Si02
#       7
#    32  16  32  16  32  32  32
#     4   9  17  31  52  77 107 143 181 226 274 320
#     4  10  22  39  58  83 115 147 185 235 290 352
#     4  10  17  29  47  74 109 148 182 218 264 313
#     4   9  16  24  40  66 102 142 181 219 254 304
#     4  11  21  34  55  83 114 146 183 228 282 335
#     4  10  21  38  59  80 107 143 186 230 279 340
#     4  10  21  37  57  81 109 142 184 231 282 339
#
# _framework density 18.571583
#
# number of rings (size 3 to 8) (size 9 to 14) (size 15 to 20)
#    0.000    2.083    1.667    2.500    0.000    1.250 
#    0.000    0.833    0.000    0.000    0.000    4.667 
#    0.000    0.000    0.000    0.000    0.000    0.000 
#
# Total GULP energy -1189737.310024 kJ/mol
# GULP energy per Si atom -12393.096979 kJ/mol
# Density = 1.852931 g / cm^3
# Si number density = 18.571583 Si / 1000 Ang^3
#
#
#
# Elastic Constant Matrix: (Units=GPa)
#
#
# Indices 1 2 3 4 5 6 
#
# 1 78.8914 31.9188 29.1937 0.0000 0.0000 0.0000
# 2 31.9188 78.8887 29.1936 0.0000 0.0000 0.0000
# 3 29.1937 29.1936 89.3367 0.0000 0.0000 0.0000
# 4 0.0000 0.0000 0.0000 25.0729 0.0000 0.0000
# 5 0.0000 0.0000 0.0000 0.0000 25.0727 0.0000
# 6 0.0000 0.0000 0.0000 0.0000 0.0000 18.9641
#
#
#
# Elastic Compliance Matrix: (Units=1/GPa)
#
#
# Indices 1 2 3 4 5 6 
#
# 1 0.016095 -0.005194 -0.003562 0.000000 0.000000 0.000000
# 2 -0.005194 0.016096 -0.003563 0.000000 0.000000 0.000000
# 3 -0.003562 -0.003563 0.013522 0.000000 0.000000 0.000000
# 4 0.000000 0.000000 0.000000 0.039884 0.000000 0.000000
# 5 0.000000 0.000000 0.000000 0.000000 0.039884 0.000000
# 6 0.000000 0.000000 0.000000 0.000000 0.000000 0.052731
#
#
# Mechanical properties :
#
#
# Convention : Reuss Voigt Hill
#
# Bulk Modulus (GPa) = 47.44873 47.52544 47.48709
# Shear Modulus (GPa) = 23.82370 24.27600 24.04985
#
# Velocity S-wave (km/s) = 3.58551 3.61939 3.60249
# Velocity P-wave (km/s) = 6.53802 6.56602 6.55204
#
# Compressibility (1/GPa) = 0.02107538
#
# Stress axis : x y z
#
# Youngs Moduli (GPa) = 62.12979 62.12740 73.95401
#
# Poissons Ratio (x) = 0.32269 0.26345
# Poissons Ratio (y) = 0.32270 0.26347
# Poissons Ratio (z) = 0.22133 0.22133
#
# Static dielectric constant tensor:
#      x y z
#    x 3.386470 0.000000 0.000000 
#    y 0.000000 3.386470 0.000000 
#    z 0.000000 0.000000 3.614850 
# 
# 
# High freq. dielectric constant tensor:
#      x y z
#    x 1.715680 0.000000 0.000000 
#    y 0.000000 1.715680 0.000000 
#    z 0.000000 0.000000 1.711290 
# 
# From -- ./inp_files/12020.got.cif
#   From: 2010.03.12/outbox.cif.g09.slc.cpg/sg139_7_cif.got.tgz:12020.got - 2010.04.08 09:46:31.
