data_PCOD8319836
_publ_section_title
;
Structure prediction by ZEFSAII (Michael W. Deem and Ramdas Pophale) SiO2 
 PCOD8319836
Probable space group: I 4/M M M
;
_chemical_formula_sum "Si O2"
_cell_formula_units_Z 192
_cell_length_a 17.563693
_cell_length_b 17.563693
_cell_length_c 32.398504
_cell_angle_alpha 90.000000
_cell_angle_beta 90.000000
_cell_angle_gamma 90.000000
_cell_volume 9994.397811
_symmetry_space_group_name_H-M "I 4/M M M"
_symmetry_group_IT_number 139
_symmetry_cell_setting 'tetragonal'
loop_
_space_group_symop_operation_xyz
x,y,z
-y,x,z
-x,-y,z
y,-x,z
x,-y,-z
-x,y,-z
y,x,-z
-y,-x,-z
-x,-y,-z
y,-x,-z
x,y,-z
-y,x,-z
-x,y,z
x,-y,z
-y,-x,z
y,x,z
1/2+x,1/2+y,1/2+z
1/2-y,1/2+x,1/2+z
1/2-x,1/2-y,1/2+z
1/2+y,1/2-x,1/2+z
1/2+x,1/2-y,1/2-z
1/2-x,1/2+y,1/2-z
1/2+y,1/2+x,1/2-z
1/2-y,1/2-x,1/2-z
1/2-x,1/2-y,1/2-z
1/2+y,1/2-x,1/2-z
1/2+x,1/2+y,1/2-z
1/2-y,1/2+x,1/2-z
1/2-x,1/2+y,1/2+z
1/2+x,1/2-y,1/2+z
1/2-y,1/2-x,1/2+z
1/2+y,1/2+x,1/2+z
loop_
_atom_site_type_symbol
_atom_site_label
_atom_site_fract_x
_atom_site_fract_y
_atom_site_fract_z
Si Si1 0.292052 0.410880 0.398825
Si Si2 0.000000 0.587928 0.045030
Si Si3 0.839481 0.355234 0.927581
Si Si4 0.905435 0.774367 0.500000
Si Si5 0.586573 0.218046 0.688634
Si Si6 0.913840 0.795580 0.731344
Si Si7 0.586228 0.181172 0.159459
O O1 0.289590 0.500000 0.412033
O O2 0.376656 0.376656 0.405946
O O3 0.234728 0.359239 0.426519
O O4 0.272074 0.400339 0.350733
O O5 0.922980 0.606946 0.069448
O O6 0.000000 0.500000 0.036986
O O7 0.000000 0.629360 0.000000
O O8 0.799043 0.381929 0.885665
O O9 0.778405 0.380318 0.961782
O O10 0.854834 0.854834 0.500000
O O11 0.000000 0.788781 0.500000
O O12 0.500000 0.207233 0.699554
O O13 0.625889 0.251554 0.730000
O O14 0.614170 0.133394 0.680042
O O15 0.877131 0.877131 0.725869
O O16 0.904215 0.754696 0.687697
O O17 0.000000 0.811492 0.742990
O O18 0.500000 0.152937 0.156736
#
# Coordination Sequence:
#
# PCOD8319836 Si02
#       7
#    32  16  32  16  32  32  32
#     4  10  20  35  55  83 119 157 199 245 293 348
#     4  11  20  34  62  92 121 147 181 235 290 350
#     4  11  22  40  60  91 121 153 195 240 294 349
#     4  12  26  44  67  93 124 160 198 244 297 356
#     4   9  19  34  52  78 110 146 190 234 280 335
#     4  10  21  37  55  76 103 139 187 240 289 339
#     4  10  21  34  53  81 114 148 183 224 277 344
#
# _framework density 19.210761999999999
#
# number of rings (size 3 to 8) (size 9 to 14) (size 15 to 20)
#    0.000    1.750    1.667    3.000    1.167    5.417 
#    0.000    0.000    0.000    6.000    0.000    2.333 
#    0.000    2.667    0.000    0.000    0.000    0.167 
#
# Total GULP energy -1189417.382881 kJ/mol
# GULP energy per Si atom -12389.764405 kJ/mol
# Density = 1.916704 g / cm^3
# Si number density = 19.210762 Si / 1000 Ang^3
#
#
#
# Elastic Constant Matrix: (Units=GPa)
#
#
# Indices 1 2 3 4 5 6 
#
# 1 97.0509 70.0139 43.9144 0.0000 0.0000 0.0000
# 2 70.0139 97.0509 43.9144 0.0000 0.0000 0.0000
# 3 43.9144 43.9144 92.6581 0.0000 0.0000 0.0000
# 4 0.0000 0.0000 0.0000 17.8035 0.0000 0.0000
# 5 0.0000 0.0000 0.0000 0.0000 17.8035 0.0000
# 6 0.0000 0.0000 0.0000 0.0000 0.0000 36.1615
#
#
#
# Elastic Compliance Matrix: (Units=1/GPa)
#
#
# Indices 1 2 3 4 5 6 
#
# 1 0.022479 -0.014507 -0.003778 0.000000 0.000000 0.000000
# 2 -0.014507 0.022479 -0.003778 0.000000 0.000000 0.000000
# 3 -0.003778 -0.003778 0.014374 0.000000 0.000000 0.000000
# 4 0.000000 0.000000 0.000000 0.056169 0.000000 0.000000
# 5 0.000000 0.000000 0.000000 0.000000 0.056169 0.000000
# 6 0.000000 0.000000 0.000000 0.000000 0.000000 0.027654
#
#
# Mechanical properties :
#
#
# Convention : Reuss Voigt Hill
#
# Bulk Modulus (GPa) = 65.76917 66.93833 66.35375
# Shear Modulus (GPa) = 20.11919 22.94816 21.53368
#
# Velocity S-wave (km/s) = 3.23969 3.45997 3.35164
# Velocity P-wave (km/s) = 6.95011 7.13314 7.04222
#
# Compressibility (1/GPa) = 0.01520469
#
# Stress axis : x y z
#
# Youngs Moduli (GPa) = 44.48565 44.48565 69.57157
#
# Poissons Ratio (x) = 0.64536 0.26286
# Poissons Ratio (y) = 0.64536 0.26286
# Poissons Ratio (z) = 0.16808 0.16808
#
# Static dielectric constant tensor:
#      x y z
#    x 3.587290 0.000000 0.000000 
#    y 0.000000 3.587290 0.000000 
#    z 0.000000 0.000000 3.791670 
# 
# 
# High freq. dielectric constant tensor:
#      x y z
#    x 1.740050 0.000000 0.000000 
#    y 0.000000 1.740050 0.000000 
#    z 0.000000 0.000000 1.756150 
# 
# From -- ./inp_files/14392.got.cif
#   From: 2010.03.12/outbox.cif.g09.slc.cpg/sg139_8_cif.got.tgz:14392.got - 2010.04.08 09:46:31.
