data_PCOD8319112
_publ_section_title
;
Structure prediction by ZEFSAII (Michael W. Deem and Ramdas Pophale) SiO2 
 PCOD8319112
Probable space group: P 42/N C M
;
_chemical_formula_sum "Si O2"
_cell_formula_units_Z 64
_cell_length_a 12.816998
_cell_length_b 12.816998
_cell_length_c 19.340732
_cell_angle_alpha 90.000000
_cell_angle_beta 90.000000
_cell_angle_gamma 90.000000
_cell_volume 3177.207215
_symmetry_space_group_name_H-M "P 42/N C M"
_symmetry_group_IT_number 138
_space_group.IT_coordinate_system_code '2'
_symmetry_cell_setting 'tetragonal'
loop_
_space_group_symop_operation_xyz
x,y,z
1/2-y,x,1/2+z
1/2-x,1/2-y,z
y,1/2-x,1/2+z
1/2+x,-y,1/2-z
-x,1/2+y,1/2-z
1/2+y,1/2+x,-z
-y,-x,-z
-x,-y,-z
1/2+y,-x,1/2-z
1/2+x,1/2+y,-z
-y,1/2+x,1/2-z
1/2-x,y,1/2+z
x,1/2-y,1/2+z
1/2-y,1/2-x,z
y,x,z
loop_
_atom_site_type_symbol
_atom_site_label
_atom_site_fract_x
_atom_site_fract_y
_atom_site_fract_z
Si Si1 0.179306 0.491764 0.711799
Si Si2 0.409621 0.758871 0.527593
Si Si3 0.018024 0.656760 0.671725
Si Si4 0.248541 0.418657 0.574864
O O1 0.113386 0.386614 0.713006
O O2 0.106910 0.593850 0.713397
O O3 0.256059 0.479335 0.775873
O O4 0.242801 0.496992 0.639805
O O5 0.371160 0.871160 0.500000
O O6 0.327274 0.672727 0.500000
O O7 0.430761 0.776883 0.608854
O O8 0.519196 0.726580 0.494669
O O9 0.922666 0.577335 0.650102
O O10 0.139233 0.360768 0.563358
O O11 0.340352 0.340352 0.590954
#
# Coordination Sequence:
#
# PCOD8319112 Si02
#       4
#    16  16  16  16
#     4  10  23  41  64  94 126 164 208 257 312 380
#     4  11  24  40  62  94 126 164 209 259 314 375
#     4  11  24  41  66  93 127 169 208 259 321 380
#     4  10  21  40  65  89 120 165 211 255 309 376
#
# _framework density 20.143478000000002
#
# number of rings (size 3 to 8) (size 9 to 14) (size 15 to 20)
#    0.000    1.500    2.500    1.500    3.500    4.500 
#    0.000    0.000    0.000    0.000    0.000    0.000 
#    0.000    0.000    0.000    0.000    0.000    0.000 
#
# Total GULP energy -793190.167633 kJ/mol
# GULP energy per Si atom -12393.596369 kJ/mol
# Density = 2.009763 g / cm^3
# Si number density = 20.143478 Si / 1000 Ang^3
#
#
#
# Elastic Constant Matrix: (Units=GPa)
#
#
# Indices 1 2 3 4 5 6 
#
# 1 83.3444 29.8752 42.8581 0.0000 0.0000 0.0000
# 2 29.8752 83.3439 42.8581 0.0000 0.0000 0.0000
# 3 42.8581 42.8581 100.0201 0.0000 0.0000 0.0000
# 4 0.0000 0.0000 0.0000 37.5038 0.0000 0.0000
# 5 0.0000 0.0000 0.0000 0.0000 37.5038 0.0000
# 6 0.0000 0.0000 0.0000 0.0000 0.0000 20.0666
#
#
#
# Elastic Compliance Matrix: (Units=1/GPa)
#
#
# Indices 1 2 3 4 5 6 
#
# 1 0.015888 -0.002814 -0.005602 0.000000 0.000000 0.000000
# 2 -0.002814 0.015888 -0.005602 0.000000 0.000000 0.000000
# 3 -0.005602 -0.005602 0.014799 0.000000 0.000000 0.000000
# 4 0.000000 0.000000 0.000000 0.026664 0.000000 0.000000
# 5 0.000000 0.000000 0.000000 0.000000 0.026664 0.000000
# 6 0.000000 0.000000 0.000000 0.000000 0.000000 0.049834
#
#
# Mechanical properties :
#
#
# Convention : Reuss Voigt Hill
#
# Bulk Modulus (GPa) = 53.94298 55.32126 54.63212
# Shear Modulus (GPa) = 27.18087 29.08929 28.13508
#
# Velocity S-wave (km/s) = 3.67735 3.80426 3.74134
# Velocity P-wave (km/s) = 6.69836 6.84250 6.77081
#
# Compressibility (1/GPa) = 0.01853809
#
# Stress axis : x y z
#
# Youngs Moduli (GPa) = 62.94082 62.94034 67.57304
#
# Poissons Ratio (x) = 0.17714 0.37854
# Poissons Ratio (y) = 0.17714 0.37854
# Poissons Ratio (z) = 0.35259 0.35259
#
# Static dielectric constant tensor:
#      x y z
#    x 3.655520 0.000000 0.000000 
#    y 0.000000 3.655520 0.000000 
#    z 0.000000 0.000000 3.684610 
# 
# 
# High freq. dielectric constant tensor:
#      x y z
#    x 1.787260 0.000000 0.000000 
#    y 0.000000 1.787260 0.000000 
#    z 0.000000 0.000000 1.788710 
# 
# From -- ./inp_files/3870.got.cif
#   From: 2010.03.12/outbox.cif.g09.slc.cpg/sg138_2_cif.got.tgz:3870.got - 2010.04.08 09:41:05.
