data_PCOD8319115
_publ_section_title
;
Structure prediction by ZEFSAII (Michael W. Deem and Ramdas Pophale) SiO2 
 PCOD8319115
Probable space group: P 42/N C M
;
_chemical_formula_sum "Si O2"
_cell_formula_units_Z 56
_cell_length_a 10.462592
_cell_length_b 10.462592
_cell_length_c 22.823967
_cell_angle_alpha 90.000000
_cell_angle_beta 90.000000
_cell_angle_gamma 90.000000
_cell_volume 2498.444523
_symmetry_space_group_name_H-M "P 42/N C M"
_symmetry_group_IT_number 138
_space_group.IT_coordinate_system_code '2'
_symmetry_cell_setting 'tetragonal'
loop_
_space_group_symop_operation_xyz
x,y,z
1/2-y,x,1/2+z
1/2-x,1/2-y,z
y,1/2-x,1/2+z
1/2+x,-y,1/2-z
-x,1/2+y,1/2-z
1/2+y,1/2+x,-z
-y,-x,-z
-x,-y,-z
1/2+y,-x,1/2-z
1/2+x,1/2+y,-z
-y,1/2+x,1/2-z
1/2-x,y,1/2+z
x,1/2-y,1/2+z
1/2-y,1/2-x,z
y,x,z
loop_
_atom_site_type_symbol
_atom_site_label
_atom_site_fract_x
_atom_site_fract_y
_atom_site_fract_z
Si Si1 0.104639 0.734132 0.163633
Si Si2 0.356027 0.356027 0.781621
Si Si3 0.356970 0.356970 0.536351
Si Si4 0.442108 0.057893 0.163733
Si Si5 0.984160 0.313362 0.459189
O O1 0.250000 0.750000 0.186652
O O2 0.075696 0.589319 0.175806
O O3 0.099565 0.765949 0.094803
O O4 0.998620 0.821204 0.195930
O O5 0.250000 0.250000 0.801006
O O6 0.360944 0.360944 0.710938
O O7 0.250000 0.250000 0.545994
O O8 0.401836 0.401836 0.599398
O O9 0.475599 0.305836 0.498983
O O10 0.902664 0.402664 0.500000
O O11 0.109765 0.390235 0.436223
#
# Coordination Sequence:
#
# PCOD8319115 Si02
#       5
#    16   8   8   8  16
#     4  12  27  46  76 109 146 195 257 309 370 448
#     4  12  29  53  77 100 153 205 252 313 382 440
#     4  10  22  41  69 104 148 184 242 303 363 450
#     4  12  28  45  73 110 141 199 251 309 375 442
#     4  10  21  41  68 104 147 194 235 297 377 439
#
# _framework density 22.413947
#
# number of rings (size 3 to 8) (size 9 to 14) (size 15 to 20)
#    0.000    0.857    2.857    3.000    4.000    5.143 
#    2.571    0.000    0.000    0.000    0.000    0.000 
#    0.000    0.000    0.000    0.000    0.000    0.000 
#
# Total GULP energy -694401.975090 kJ/mol
# GULP energy per Si atom -12400.035269 kJ/mol
# Density = 2.236293 g / cm^3
# Si number density = 22.413947 Si / 1000 Ang^3
#
#
#
# Elastic Constant Matrix: (Units=GPa)
#
#
# Indices 1 2 3 4 5 6 
#
# 1 111.7402 57.8975 17.2304 0.0000 0.0000 0.0000
# 2 57.8975 111.7402 17.2304 0.0000 0.0000 0.0000
# 3 17.2304 17.2304 78.1069 0.0000 0.0000 0.0000
# 4 0.0000 0.0000 0.0000 20.2590 0.0000 0.0000
# 5 0.0000 0.0000 0.0000 0.0000 20.2590 0.0000
# 6 0.0000 0.0000 0.0000 0.0000 0.0000 41.3018
#
#
#
# Elastic Compliance Matrix: (Units=1/GPa)
#
#
# Indices 1 2 3 4 5 6 
#
# 1 0.012372 -0.006201 -0.001361 0.000000 0.000000 0.000000
# 2 -0.006201 0.012372 -0.001361 0.000000 0.000000 0.000000
# 3 -0.001361 -0.001361 0.013404 0.000000 0.000000 0.000000
# 4 0.000000 0.000000 0.000000 0.049361 0.000000 0.000000
# 5 0.000000 0.000000 0.000000 0.000000 0.049361 0.000000
# 6 0.000000 0.000000 0.000000 0.000000 0.000000 0.024212
#
#
# Mechanical properties :
#
#
# Convention : Reuss Voigt Hill
#
# Bulk Modulus (GPa) = 49.25896 54.03377 51.64637
# Shear Modulus (GPa) = 26.92586 30.31256 28.61921
#
# Velocity S-wave (km/s) = 3.46974 3.68148 3.57718
# Velocity P-wave (km/s) = 6.17063 6.49851 6.33669
#
# Compressibility (1/GPa) = 0.02030087
#
# Stress axis : x y z
#
# Youngs Moduli (GPa) = 80.82729 80.82729 74.60660
#
# Poissons Ratio (x) = 0.50118 0.10157
# Poissons Ratio (y) = 0.50118 0.10157
# Poissons Ratio (z) = 0.11004 0.11004
#
# Static dielectric constant tensor:
#      x y z
#    x 4.760030 0.000000 0.000000 
#    y 0.000000 4.760030 0.000000 
#    z 0.000000 0.000000 4.036860 
# 
# 
# High freq. dielectric constant tensor:
#      x y z
#    x 1.892970 0.000000 0.000000 
#    y 0.000000 1.892970 0.000000 
#    z 0.000000 0.000000 1.891650 
# 
# From -- ./inp_files/5774.got.cif
#   From: 2010.03.12/outbox.cif.g09.slc.cpg/sg138_3_cif.got.tgz:5774.got - 2010.04.08 09:41:05.
