data_PCOD8319736
_publ_section_title
;
Structure prediction by ZEFSAII (Michael W. Deem and Ramdas Pophale) SiO2 
 PCOD8319736
Probable space group: I 4/M M M
;
_chemical_formula_sum "Si O2"
_cell_formula_units_Z 176
_cell_length_a 28.249214
_cell_length_b 28.249214
_cell_length_c 13.359502
_cell_angle_alpha 90.000000
_cell_angle_beta 90.000000
_cell_angle_gamma 90.000000
_cell_volume 10661.124291
_symmetry_space_group_name_H-M "I 4/M M M"
_symmetry_group_IT_number 139
_symmetry_cell_setting 'tetragonal'
loop_
_space_group_symop_operation_xyz
x,y,z
-y,x,z
-x,-y,z
y,-x,z
x,-y,-z
-x,y,-z
y,x,-z
-y,-x,-z
-x,-y,-z
y,-x,-z
x,y,-z
-y,x,-z
-x,y,z
x,-y,z
-y,-x,z
y,x,z
1/2+x,1/2+y,1/2+z
1/2-y,1/2+x,1/2+z
1/2-x,1/2-y,1/2+z
1/2+y,1/2-x,1/2+z
1/2+x,1/2-y,1/2-z
1/2-x,1/2+y,1/2-z
1/2+y,1/2+x,1/2-z
1/2-y,1/2-x,1/2-z
1/2-x,1/2-y,1/2-z
1/2+y,1/2-x,1/2-z
1/2+x,1/2+y,1/2-z
1/2-y,1/2+x,1/2-z
1/2-x,1/2+y,1/2+z
1/2+x,1/2-y,1/2+z
1/2-y,1/2-x,1/2+z
1/2+y,1/2+x,1/2+z
loop_
_atom_site_type_symbol
_atom_site_label
_atom_site_fract_x
_atom_site_fract_y
_atom_site_fract_z
Si Si1 0.868562 0.054671 0.612422
Si Si2 0.867313 0.056238 0.000000
Si Si3 0.190004 0.056126 0.195928
Si Si4 0.388171 0.052310 0.115840
Si Si5 0.206156 0.444712 0.284758
Si Si6 0.641192 0.944140 0.611276
O O1 0.846897 0.062379 0.500000
O O2 0.917474 0.082527 0.623676
O O3 0.832713 0.072798 0.698464
O O4 0.881077 0.000000 0.630053
O O5 0.838947 0.073432 0.901177
O O6 0.918168 0.081833 0.000000
O O7 0.876236 0.000000 0.000000
O O8 0.243003 0.078945 0.191224
O O9 0.192270 0.000000 0.192308
O O10 0.333312 0.067299 0.131780
O O11 0.422654 0.092967 0.159151
O O12 0.397017 0.000000 0.166172
O O13 0.398856 0.047701 0.000000
O O14 0.215746 0.500000 0.279547
O O15 0.185651 0.427486 0.177658
O O16 0.650247 0.924460 0.500000
O O17 0.635064 0.000000 0.612128
#
# Coordination Sequence:
#
# PCOD8319736 Si02
#       6
#    32  16  32  32  32  32
#     4   9  17  29  45  66  93 122 150 178 208 249
#     4  10  20  33  50  72 100 128 153 183 217 263
#     4   9  18  30  45  65  89 121 155 188 224 262
#     4   9  17  27  41  61  86 119 154 190 228 271
#     4   9  17  28  42  59  82 115 151 186 227 267
#     4   9  17  28  41  60  88 121 153 189 230 273
#
# _framework density 16.508578
#
# number of rings (size 3 to 8) (size 9 to 14) (size 15 to 20)
#    0.000    2.909    0.000    1.091    1.273    1.364 
#    0.000    6.364    0.000    6.545    0.000    0.000 
#    0.000   11.636    4.364    0.000    0.000    0.000 
#
# Total GULP energy -1090221.640717 kJ/mol
# GULP energy per Si atom -12388.882281 kJ/mol
# Density = 1.647100 g / cm^3
# Si number density = 16.508578 Si / 1000 Ang^3
#
#
#
# Elastic Constant Matrix: (Units=GPa)
#
#
# Indices 1 2 3 4 5 6 
#
# 1 67.5267 34.1970 22.7291 0.0000 0.0000 0.0000
# 2 34.1970 67.5300 22.7300 0.0000 0.0000 0.0000
# 3 22.7291 22.7300 85.3748 0.0000 0.0000 0.0000
# 4 0.0000 0.0000 0.0000 16.3846 0.0000 0.0000
# 5 0.0000 0.0000 0.0000 0.0000 16.3843 0.0000
# 6 0.0000 0.0000 0.0000 0.0000 0.0000 4.4896
#
#
#
# Elastic Compliance Matrix: (Units=1/GPa)
#
#
# Indices 1 2 3 4 5 6 
#
# 1 0.020580 -0.009422 -0.002971 0.000000 0.000000 0.000000
# 2 -0.009422 0.020579 -0.002971 0.000000 0.000000 0.000000
# 3 -0.002971 -0.002971 0.013295 0.000000 0.000000 0.000000
# 4 0.000000 0.000000 0.000000 0.061033 0.000000 0.000000
# 5 0.000000 0.000000 0.000000 0.000000 0.061034 0.000000
# 6 0.000000 0.000000 0.000000 0.000000 0.000000 0.222735
#
#
# Mechanical properties :
#
#
# Convention : Reuss Voigt Hill
#
# Bulk Modulus (GPa) = 42.14395 42.19375 42.16885
# Shear Modulus (GPa) = 11.41832 16.83672 14.12752
#
# Velocity S-wave (km/s) = 2.63280 3.19702 2.92853
# Velocity P-wave (km/s) = 5.90136 6.26435 6.08556
#
# Compressibility (1/GPa) = 0.02372820
#
# Stress axis : x y z
#
# Youngs Moduli (GPa) = 48.59008 48.59233 75.21745
#
# Poissons Ratio (x) = 0.45784 0.22344
# Poissons Ratio (y) = 0.45781 0.22344
# Poissons Ratio (z) = 0.14434 0.14435
#
# Static dielectric constant tensor:
#      x y z
#    x 3.076940 0.000000 0.000000 
#    y 0.000000 3.076940 0.000000 
#    z 0.000000 0.000000 3.551640 
# 
# 
# High freq. dielectric constant tensor:
#      x y z
#    x 1.602480 0.000000 0.000000 
#    y 0.000000 1.602480 0.000000 
#    z 0.000000 0.000000 1.658400 
# 
# From -- ./inp_files/6390.got.cif
#   From: 2010.03.12/outbox.cif.g09.slc.cpg/sg139_4_cif.got.tgz:6390.got - 2010.04.08 09:46:31.
