data_PCOD8319385
_publ_section_title
;
Structure prediction by ZEFSAII (Michael W. Deem and Ramdas Pophale) SiO2 
 PCOD8319385
Probable space group: I 4/M M M
;
_chemical_formula_sum "Si O2"
_cell_formula_units_Z 136
_cell_length_a 23.730117
_cell_length_b 23.730117
_cell_length_c 14.015837
_cell_angle_alpha 90.000000
_cell_angle_beta 90.000000
_cell_angle_gamma 90.000000
_cell_volume 7892.576447
_symmetry_space_group_name_H-M "I 4/M M M"
_symmetry_group_IT_number 139
_symmetry_cell_setting 'tetragonal'
loop_
_space_group_symop_operation_xyz
x,y,z
-y,x,z
-x,-y,z
y,-x,z
x,-y,-z
-x,y,-z
y,x,-z
-y,-x,-z
-x,-y,-z
y,-x,-z
x,y,-z
-y,x,-z
-x,y,z
x,-y,z
-y,-x,z
y,x,z
1/2+x,1/2+y,1/2+z
1/2-y,1/2+x,1/2+z
1/2-x,1/2-y,1/2+z
1/2+y,1/2-x,1/2+z
1/2+x,1/2-y,1/2-z
1/2-x,1/2+y,1/2-z
1/2+y,1/2+x,1/2-z
1/2-y,1/2-x,1/2-z
1/2-x,1/2-y,1/2-z
1/2+y,1/2-x,1/2-z
1/2+x,1/2+y,1/2-z
1/2-y,1/2+x,1/2-z
1/2-x,1/2+y,1/2+z
1/2+x,1/2-y,1/2+z
1/2-y,1/2-x,1/2+z
1/2+y,1/2+x,1/2+z
loop_
_atom_site_type_symbol
_atom_site_label
_atom_site_fract_x
_atom_site_fract_y
_atom_site_fract_z
Si Si1 0.229341 0.679242 0.392625
Si Si2 0.357544 0.357544 0.893435
Si Si3 0.565722 0.062135 0.000000
Si Si4 0.134213 0.564597 0.179225
Si Si5 0.065979 0.065979 0.500000
Si Si6 0.125673 0.741762 0.698048
O O1 0.215353 0.655678 0.500000
O O2 0.287440 0.712561 0.397632
O O3 0.181497 0.721571 0.356051
O O4 0.237846 0.630218 0.313698
O O5 0.405667 0.405667 0.905669
O O6 0.385233 0.305587 0.835405
O O7 0.337723 0.337723 0.000000
O O8 0.583639 0.099779 0.912185
O O9 0.500000 0.051659 0.000000
O O10 0.595225 0.000000 0.000000
O O11 0.121757 0.500000 0.208966
O O12 0.111179 0.611179 0.250000
O O13 0.201246 0.573778 0.166529
O O14 0.000000 0.078938 0.500000
#
# Coordination Sequence:
#
# PCOD8319385 Si02
#       6
#    32  16  16  32   8  32
#     4  10  18  30  52  74 102 142 178 217 270 330
#     4  10  21  33  60  83 113 145 169 213 258 322
#     4   9  20  37  53  66  85 126 189 246 285 320
#     4  11  23  36  52  72 100 139 184 237 285 327
#     4   9  22  42  60  84 116 152 180 200 254 330
#     4  11  19  33  49  80 108 137 182 222 274 329
#
# _framework density 17.231380999999999
#
# number of rings (size 3 to 8) (size 9 to 14) (size 15 to 20)
#    0.353    1.353    4.706    2.118    3.294    2.118 
#    0.000    0.000    0.000    0.000    0.000    0.000 
#    0.000    0.941    0.000    5.176    0.000    0.000 
#
# Total GULP energy -842510.860913 kJ/mol
# GULP energy per Si atom -12389.865602 kJ/mol
# Density = 1.719216 g / cm^3
# Si number density = 17.231381 Si / 1000 Ang^3
#
#
#
# Elastic Constant Matrix: (Units=GPa)
#
#
# Indices 1 2 3 4 5 6 
#
# 1 76.0496 53.2321 35.1617 0.0000 0.0000 0.0000
# 2 53.2321 76.0496 35.1617 0.0000 0.0000 0.0000
# 3 35.1617 35.1617 122.5419 0.0000 0.0000 0.0000
# 4 0.0000 0.0000 0.0000 20.4449 0.0000 0.0000
# 5 0.0000 0.0000 0.0000 0.0000 20.4449 0.0000
# 6 0.0000 0.0000 0.0000 0.0000 0.0000 27.9310
#
#
#
# Elastic Compliance Matrix: (Units=1/GPa)
#
#
# Indices 1 2 3 4 5 6 
#
# 1 0.026496 -0.017330 -0.002630 0.000000 0.000000 0.000000
# 2 -0.017330 0.026496 -0.002630 0.000000 0.000000 0.000000
# 3 -0.002630 -0.002630 0.009670 0.000000 0.000000 0.000000
# 4 0.000000 0.000000 0.000000 0.048912 0.000000 0.000000
# 5 0.000000 0.000000 0.000000 0.000000 0.048912 0.000000
# 6 0.000000 0.000000 0.000000 0.000000 0.000000 0.035803
#
#
# Mechanical properties :
#
#
# Convention : Reuss Voigt Hill
#
# Bulk Modulus (GPa) = 57.20439 57.97246 57.58842
# Shear Modulus (GPa) = 20.21874 23.83651 22.02763
#
# Velocity S-wave (km/s) = 3.42916 3.72334 3.57927
# Velocity P-wave (km/s) = 6.99634 7.22502 7.11160
#
# Compressibility (1/GPa) = 0.01748118
#
# Stress axis : x y z
#
# Youngs Moduli (GPa) = 37.74179 37.74179 103.41551
#
# Poissons Ratio (x) = 0.65407 0.27198
# Poissons Ratio (y) = 0.65407 0.27198
# Poissons Ratio (z) = 0.09926 0.09926
#
# Static dielectric constant tensor:
#      x y z
#    x 3.059500 0.000000 0.000000 
#    y 0.000000 3.059500 0.000000 
#    z 0.000000 0.000000 3.162530 
# 
# 
# High freq. dielectric constant tensor:
#      x y z
#    x 1.643260 0.000000 0.000000 
#    y 0.000000 1.643260 0.000000 
#    z 0.000000 0.000000 1.671300 
# 
# From -- ./inp_files/5842.got.cif
#   From: 2010.03.12/outbox.cif.g09.slc.cpg/sg139_3_cif.got.tgz:5842.got - 2010.04.08 09:46:31.
