data_PCOD8319540
_publ_section_title
;
Structure prediction by ZEFSAII (Michael W. Deem and Ramdas Pophale) SiO2 
 PCOD8319540
Probable space group: I 4/M M M
;
_chemical_formula_sum "Si O2"
_cell_formula_units_Z 160
_cell_length_a 23.584378
_cell_length_b 23.584378
_cell_length_c 15.281824
_cell_angle_alpha 90.000000
_cell_angle_beta 90.000000
_cell_angle_gamma 90.000000
_cell_volume 8500.100243
_symmetry_space_group_name_H-M "I 4/M M M"
_symmetry_group_IT_number 139
_symmetry_cell_setting 'tetragonal'
loop_
_space_group_symop_operation_xyz
x,y,z
-y,x,z
-x,-y,z
y,-x,z
x,-y,-z
-x,y,-z
y,x,-z
-y,-x,-z
-x,-y,-z
y,-x,-z
x,y,-z
-y,x,-z
-x,y,z
x,-y,z
-y,-x,z
y,x,z
1/2+x,1/2+y,1/2+z
1/2-y,1/2+x,1/2+z
1/2-x,1/2-y,1/2+z
1/2+y,1/2-x,1/2+z
1/2+x,1/2-y,1/2-z
1/2-x,1/2+y,1/2-z
1/2+y,1/2+x,1/2-z
1/2-y,1/2-x,1/2-z
1/2-x,1/2-y,1/2-z
1/2+y,1/2-x,1/2-z
1/2+x,1/2+y,1/2-z
1/2-y,1/2+x,1/2-z
1/2-x,1/2+y,1/2+z
1/2+x,1/2-y,1/2+z
1/2-y,1/2-x,1/2+z
1/2+y,1/2+x,1/2+z
loop_
_atom_site_type_symbol
_atom_site_label
_atom_site_fract_x
_atom_site_fract_y
_atom_site_fract_z
Si Si1 0.766631 0.674716 0.673827
Si Si2 0.317186 0.224394 0.000000
Si Si3 0.937630 0.243241 0.254741
Si Si4 0.656181 0.565348 0.098380
Si Si5 0.566934 0.831293 0.000000
Si Si6 0.131612 0.561134 0.183966
O O1 0.710218 0.710218 0.691204
O O2 0.812381 0.687620 0.750000
O O3 0.794680 0.689366 0.582300
O O4 0.748065 0.608500 0.676975
O O5 0.386370 0.220800 0.000000
O O6 0.289101 0.289101 0.000000
O O7 0.914174 0.202141 0.330856
O O8 0.945001 0.302178 0.302298
O O9 0.000000 0.224091 0.218189
O O10 0.641583 0.500000 0.111775
O O11 0.598513 0.598513 0.116738
O O12 0.678978 0.577356 0.000000
O O13 0.578611 0.873306 0.082104
O O14 0.500000 0.808944 0.000000
O O15 0.102128 0.500000 0.200514
O O16 0.106294 0.606294 0.250000
#
# Coordination Sequence:
#
# PCOD8319540 Si02
#       6
#    32  16  32  32  16  32
#     4  10  20  35  53  74 104 138 173 217 269 323
#     4  10  20  34  55  81 110 143 178 221 270 321
#     4  10  19  31  50  73 102 136 173 216 265 316
#     4   9  18  31  47  71 103 139 179 221 263 311
#     4  10  20  34  55  80 107 140 174 213 266 319
#     4  10  21  36  55  77 102 135 172 215 266 317
#
# _framework density 18.823307
#
# number of rings (size 3 to 8) (size 9 to 14) (size 15 to 20)
#    0.000    2.200    0.000    3.600    1.400    0.400 
#    1.800    3.000    0.000    5.400    0.000    0.000 
#    0.000    0.200    0.000    0.000    0.000   60.000 
#
# Total GULP energy -991287.727161 kJ/mol
# GULP energy per Si atom -12391.096590 kJ/mol
# Density = 1.878046 g / cm^3
# Si number density = 18.823307 Si / 1000 Ang^3
#
#
#
# Elastic Constant Matrix: (Units=GPa)
#
#
# Indices 1 2 3 4 5 6 
#
# 1 95.6528 43.0876 43.4133 0.0000 0.0000 0.0000
# 2 43.0876 95.6528 43.4130 0.0000 0.0000 0.0000
# 3 43.4133 43.4130 106.0630 0.0000 0.0000 0.0000
# 4 0.0000 0.0000 0.0000 38.0126 0.0000 0.0000
# 5 0.0000 0.0000 0.0000 0.0000 38.0159 0.0000
# 6 0.0000 0.0000 0.0000 0.0000 0.0000 18.2226
#
#
#
# Elastic Compliance Matrix: (Units=1/GPa)
#
#
# Indices 1 2 3 4 5 6 
#
# 1 0.014357 -0.004667 -0.003966 0.000000 0.000000 0.000000
# 2 -0.004667 0.014357 -0.003966 0.000000 0.000000 0.000000
# 3 -0.003966 -0.003966 0.012675 0.000000 0.000000 0.000000
# 4 0.000000 0.000000 0.000000 0.026307 0.000000 0.000000
# 5 0.000000 0.000000 0.000000 0.000000 0.026305 0.000000
# 6 0.000000 0.000000 0.000000 0.000000 0.000000 0.054877
#
#
# Mechanical properties :
#
#
# Convention : Reuss Voigt Hill
#
# Bulk Modulus (GPa) = 61.76620 61.91073 61.83846
# Shear Modulus (GPa) = 27.85929 30.01387 28.93658
#
# Velocity S-wave (km/s) = 3.85131 3.99746 3.92506
# Velocity P-wave (km/s) = 7.25684 7.36669 7.31197
#
# Compressibility (1/GPa) = 0.01619009
#
# Stress axis : x y z
#
# Youngs Moduli (GPa) = 69.65281 69.65301 78.89429
#
# Poissons Ratio (x) = 0.32508 0.31291
# Poissons Ratio (y) = 0.32508 0.31291
# Poissons Ratio (z) = 0.27626 0.27625
#
# Static dielectric constant tensor:
#      x y z
#    x 3.569710 0.000000 0.000000 
#    y 0.000000 3.569710 0.000000 
#    z 0.000000 0.000000 3.069720 
# 
# 
# High freq. dielectric constant tensor:
#      x y z
#    x 1.728140 0.000000 0.000000 
#    y 0.000000 1.728130 0.000000 
#    z 0.000000 0.000000 1.715240 
# 
# From -- ./inp_files/5975.got.cif
#   From: 2010.03.12/outbox.cif.g09.slc.cpg/sg139_3_cif.got.tgz:5975.got - 2010.04.08 09:46:31.
