data_PCOD8319221
_publ_section_title
;
Structure prediction by ZEFSAII (Michael W. Deem and Ramdas Pophale) SiO2 
 PCOD8319221
Probable space group: P 42/N C M
;
_chemical_formula_sum "Si O2"
_cell_formula_units_Z 44
_cell_length_a 9.480652
_cell_length_b 9.480652
_cell_length_c 23.120141
_cell_angle_alpha 90.000000
_cell_angle_beta 90.000000
_cell_angle_gamma 90.000000
_cell_volume 2078.102139
_symmetry_space_group_name_H-M "P 42/N C M"
_symmetry_group_IT_number 138
_space_group.IT_coordinate_system_code '2'
_symmetry_cell_setting 'tetragonal'
loop_
_space_group_symop_operation_xyz
x,y,z
1/2-y,x,1/2+z
1/2-x,1/2-y,z
y,1/2-x,1/2+z
1/2+x,-y,1/2-z
-x,1/2+y,1/2-z
1/2+y,1/2+x,-z
-y,-x,-z
-x,-y,-z
1/2+y,-x,1/2-z
1/2+x,1/2+y,-z
-y,1/2+x,1/2-z
1/2-x,y,1/2+z
x,1/2-y,1/2+z
1/2-y,1/2-x,z
y,x,z
loop_
_atom_site_type_symbol
_atom_site_label
_atom_site_fract_x
_atom_site_fract_y
_atom_site_fract_z
Si Si1 0.470704 0.470704 0.065757
Si Si2 0.633418 0.866583 0.736081
Si Si3 0.094756 0.731298 0.647336
Si Si4 0.463470 0.036531 0.145042
Si Si5 0.750000 0.750000 0.907302
O O1 0.608221 0.412654 0.099348
O O2 0.351858 0.351858 0.057092
O O3 0.500000 0.500000 0.000000
O O4 0.750000 0.750000 0.756799
O O5 0.516201 0.788465 0.698287
O O6 0.548044 0.951956 0.785191
O O7 0.250000 0.750000 0.674498
O O8 0.066604 0.882940 0.618337
O O9 0.348276 0.151725 0.130406
#
# Coordination Sequence:
#
# PCOD8319221 Si02
#       5
#     8   8  16   8   4
#     4  11  27  49  73 100 132 175 235 294 350 403
#     4  11  25  40  65 102 144 186 228 269 332 416
#     4  11  25  43  66 100 140 178 233 283 335 410
#     4  12  25  41  67 100 146 184 225 272 345 401
#     4  12  24  48  70 104 138 176 228 300 318 420
#
# _framework density 21.173165000000001
#
# number of rings (size 3 to 8) (size 9 to 14) (size 15 to 20)
#    0.000    0.727    6.364    0.000    5.091    2.182 
#    0.000    1.818    0.000    0.000    0.000    0.000 
#    0.000    0.000    0.000    0.000    0.000    0.000 
#
# Total GULP energy -545120.140346 kJ/mol
# GULP energy per Si atom -12389.094099 kJ/mol
# Density = 2.112497 g / cm^3
# Si number density = 21.173165 Si / 1000 Ang^3
#
#
#
# Elastic Constant Matrix: (Units=GPa)
#
#
# Indices 1 2 3 4 5 6 
#
# 1 172.6077 64.7979 31.0400 0.0000 0.0000 0.0000
# 2 64.7979 172.6077 31.0400 0.0000 0.0000 0.0000
# 3 31.0400 31.0400 72.6946 0.0000 0.0000 0.0000
# 4 0.0000 0.0000 0.0000 -0.7067 0.0000 0.0000
# 5 0.0000 0.0000 0.0000 0.0000 -0.7067 0.0000
# 6 0.0000 0.0000 0.0000 0.0000 0.0000 52.1208
#
#
#
# Elastic Compliance Matrix: (Units=1/GPa)
#
#
# Indices 1 2 3 4 5 6 
#
# 1 0.007009 -0.002267 -0.002025 0.000000 0.000000 0.000000
# 2 -0.002267 0.007009 -0.002025 0.000000 0.000000 0.000000
# 3 -0.002025 -0.002025 0.015485 0.000000 0.000000 0.000000
# 4 0.000000 0.000000 0.000000 -1.414945 0.000000 0.000000
# 5 0.000000 0.000000 0.000000 0.000000 -1.414945 0.000000
# 6 0.000000 0.000000 0.000000 0.000000 0.000000 0.019186
#
#
# Mechanical properties :
#
#
# Convention : Reuss Voigt Hill
#
# Bulk Modulus (GPa) = 59.27717 74.62953 66.95335
# Shear Modulus (GPa) = -1.80966 29.54362 13.86698
#
# Velocity S-wave (km/s) = -0.92550 3.73947 2.56194
# Velocity P-wave (km/s) = 5.18797 7.34633 6.35939
#
# Compressibility (1/GPa) = 0.01686990
#
# Stress axis : x y z
#
# Youngs Moduli (GPa) = 142.68162 142.68162 64.57785
#
# Poissons Ratio (x) = 0.32346 0.13075
# Poissons Ratio (y) = 0.32346 0.13075
# Poissons Ratio (z) = 0.28888 0.28888
#
# Static dielectric constant tensor:
#      x y z
#    x 4.332370 0.000000 0.000000 
#    y 0.000000 4.332370 0.000000 
#    z 0.000000 0.000000 3.286040 
# 
# 
# High freq. dielectric constant tensor:
#      x y z
#    x 1.859940 0.000000 0.000000 
#    y 0.000000 1.859940 0.000000 
#    z 0.000000 0.000000 1.781830 
# 
# From -- ./inp_files/7712.got.cif
#   From: 2010.03.12/outbox.cif.g09.slc.cpg/sg138_4_cif.got.tgz:7712.got - 2010.04.08 09:41:05.
