data_PCOD8319910
_publ_section_title
;
Structure prediction by ZEFSAII (Michael W. Deem and Ramdas Pophale) SiO2 
 PCOD8319910
Probable space group: I 4/M M M
;
_chemical_formula_sum "Si O2"
_cell_formula_units_Z 128
_cell_length_a 19.026320
_cell_length_b 19.026320
_cell_length_c 19.318461
_cell_angle_alpha 90.000000
_cell_angle_beta 90.000000
_cell_angle_gamma 90.000000
_cell_volume 6993.299356
_symmetry_space_group_name_H-M "I 4/M M M"
_symmetry_group_IT_number 139
_symmetry_cell_setting 'tetragonal'
loop_
_space_group_symop_operation_xyz
x,y,z
-y,x,z
-x,-y,z
y,-x,z
x,-y,-z
-x,y,-z
y,x,-z
-y,-x,-z
-x,-y,-z
y,-x,-z
x,y,-z
-y,x,-z
-x,y,z
x,-y,z
-y,-x,z
y,x,z
1/2+x,1/2+y,1/2+z
1/2-y,1/2+x,1/2+z
1/2-x,1/2-y,1/2+z
1/2+y,1/2-x,1/2+z
1/2+x,1/2-y,1/2-z
1/2-x,1/2+y,1/2-z
1/2+y,1/2+x,1/2-z
1/2-y,1/2-x,1/2-z
1/2-x,1/2-y,1/2-z
1/2+y,1/2-x,1/2-z
1/2+x,1/2+y,1/2-z
1/2-y,1/2+x,1/2-z
1/2-x,1/2+y,1/2+z
1/2+x,1/2-y,1/2+z
1/2-y,1/2-x,1/2+z
1/2+y,1/2+x,1/2+z
loop_
_atom_site_type_symbol
_atom_site_label
_atom_site_fract_x
_atom_site_fract_y
_atom_site_fract_z
Si Si1 0.422553 0.685270 0.596466
Si Si2 0.917599 0.336097 0.305930
Si Si3 0.697519 0.187371 0.921417
Si Si4 0.315802 0.575957 0.242166
O O1 0.500000 0.688418 0.563203
O O2 0.378720 0.621280 0.562392
O O3 0.383656 0.757583 0.579751
O O4 0.427841 0.670617 0.677187
O O5 0.895533 0.395533 0.250000
O O6 0.871020 0.329868 0.375338
O O7 0.902375 0.264146 0.266595
O O8 0.000000 0.347268 0.325253
O O9 0.746293 0.253708 0.895322
O O10 0.672242 0.202378 0.000000
O O11 0.331229 0.500000 0.207572
O O12 0.367034 0.632967 0.206512
#
# Coordination Sequence:
#
# PCOD8319910 Si02
#       4
#    32  32  32  32
#     4   9  17  30  49  75 106 137 170 206 249 307
#     4  11  22  36  56  79 105 139 181 230 278 324
#     4  10  21  36  56  81 108 142 181 221 269 326
#     4   9  17  29  49  77 105 136 170 205 253 310
#
# _framework density 18.303235000000001
#
# number of rings (size 3 to 8) (size 9 to 14) (size 15 to 20)
#    0.000    2.250    2.500    0.750    0.000    2.750 
#    0.000    2.500    0.000    0.000    0.000    7.000 
#    0.000    0.000    0.000   23.250    0.000    0.250 
#
# Total GULP energy -792852.155779 kJ/mol
# GULP energy per Si atom -12388.314934 kJ/mol
# Density = 1.826158 g / cm^3
# Si number density = 18.303235 Si / 1000 Ang^3
#
#
#
# Elastic Constant Matrix: (Units=GPa)
#
#
# Indices 1 2 3 4 5 6 
#
# 1 120.7668 69.1387 38.4034 0.0000 0.0000 0.0000
# 2 69.1387 120.7668 38.4034 0.0000 0.0000 0.0000
# 3 38.4034 38.4034 67.5003 0.0000 0.0000 0.0000
# 4 0.0000 0.0000 0.0000 -253.1841 -0.0001 0.0000
# 5 0.0000 0.0000 0.0000 -0.0001 -253.1843 0.0000
# 6 0.0000 0.0000 0.0000 0.0000 0.0000 23.8538
#
#
#
# Elastic Compliance Matrix: (Units=1/GPa)
#
#
# Indices 1 2 3 4 5 6 
#
# 1 0.013104 -0.006265 -0.003891 0.000000 0.000000 0.000000
# 2 -0.006265 0.013104 -0.003891 0.000000 0.000000 0.000000
# 3 -0.003891 -0.003891 0.019243 0.000000 0.000000 0.000000
# 4 0.000000 0.000000 0.000000 -0.003950 0.000000 0.000000
# 5 0.000000 0.000000 0.000000 0.000000 -0.003950 0.000000
# 6 0.000000 0.000000 0.000000 0.000000 0.000000 0.041922
#
#
# Mechanical properties :
#
#
# Convention : Reuss Voigt Hill
#
# Bulk Modulus (GPa) = 57.61510 66.76943 62.19227
# Shear Modulus (GPa) = 44.10936 -85.63037 -20.76051
#
# Velocity S-wave (km/s) = 4.91442 -6.84732 -3.37152
# Velocity P-wave (km/s) = 7.98426 5.09467 4.34700
#
# Compressibility (1/GPa) = 0.01735656
#
# Stress axis : x y z
#
# Youngs Moduli (GPa) = 76.30992 76.30992 51.96814
#
# Poissons Ratio (x) = 0.47807 0.20222
# Poissons Ratio (y) = 0.47807 0.20222
# Poissons Ratio (z) = 0.29694 0.29694
#
# Static dielectric constant tensor:
#      x y z
#    x 3.597930 0.000000 0.000000 
#    y 0.000000 3.597930 0.000000 
#    z 0.000000 0.000000 3.255510 
# 
# 
# High freq. dielectric constant tensor:
#      x y z
#    x 1.708460 0.000000 0.000000 
#    y 0.000000 1.708460 0.000000 
#    z 0.000000 0.000000 1.691040 
# 
# From -- ./inp_files/7966.got.cif
#   From: 2010.03.12/outbox.cif.g09.slc.cpg/sg139_4_cif.got.tgz:7966.got - 2010.04.08 09:46:31.
