data_PCOD8319952
_publ_section_title
;
Structure prediction by ZEFSAII (Michael W. Deem and Ramdas Pophale) SiO2 
 PCOD8319952
Probable space group: I 4/M M M
;
_chemical_formula_sum "Si O2"
_cell_formula_units_Z 160
_cell_length_a 31.281151
_cell_length_b 31.281151
_cell_length_c 8.489464
_cell_angle_alpha 90.000000
_cell_angle_beta 90.000000
_cell_angle_gamma 90.000000
_cell_volume 8307.028881
_symmetry_space_group_name_H-M "I 4/M M M"
_symmetry_group_IT_number 139
_symmetry_cell_setting 'tetragonal'
loop_
_space_group_symop_operation_xyz
x,y,z
-y,x,z
-x,-y,z
y,-x,z
x,-y,-z
-x,y,-z
y,x,-z
-y,-x,-z
-x,-y,-z
y,-x,-z
x,y,-z
-y,x,-z
-x,y,z
x,-y,z
-y,-x,z
y,x,z
1/2+x,1/2+y,1/2+z
1/2-y,1/2+x,1/2+z
1/2-x,1/2-y,1/2+z
1/2+y,1/2-x,1/2+z
1/2+x,1/2-y,1/2-z
1/2-x,1/2+y,1/2-z
1/2+y,1/2+x,1/2-z
1/2-y,1/2-x,1/2-z
1/2-x,1/2-y,1/2-z
1/2+y,1/2-x,1/2-z
1/2+x,1/2+y,1/2-z
1/2-y,1/2+x,1/2-z
1/2-x,1/2+y,1/2+z
1/2+x,1/2-y,1/2+z
1/2-y,1/2-x,1/2+z
1/2+y,1/2+x,1/2+z
loop_
_atom_site_type_symbol
_atom_site_label
_atom_site_fract_x
_atom_site_fract_y
_atom_site_fract_z
Si Si1 0.084179 0.084179 0.683563
Si Si2 0.000000 0.789471 0.312777
Si Si3 0.616264 0.181516 0.812829
Si Si4 0.000000 0.882541 0.816145
Si Si5 0.952158 0.387923 0.685631
Si Si6 0.771543 0.905807 0.815045
Si Si7 0.650703 0.349298 0.812229
O O1 0.088172 0.088172 0.500000
O O2 0.038136 0.093072 0.741732
O O3 0.117172 0.117172 0.757323
O O4 0.954046 0.770008 0.259728
O O5 0.000000 0.790428 0.500000
O O6 0.000000 0.834736 0.235646
O O7 0.658822 0.158822 0.750000
O O8 0.575132 0.153341 0.762779
O O9 0.614146 0.225828 0.721612
O O10 0.618423 0.188585 0.000000
O O11 0.000000 0.886446 0.000000
O O12 0.953442 0.391515 0.500000
O O13 0.931254 0.431254 0.750000
O O14 0.000000 0.383075 0.754915
O O15 0.804583 0.869524 0.749965
O O16 0.779651 0.910988 0.000000
O O17 0.654218 0.345782 0.000000
#
# Coordination Sequence:
#
# PCOD8319952 Si02
#       7
#    16  16  32  16  32  32  16
#     4  11  23  40  62  84 117 162 204 245 301 369
#     4  12  24  40  61  91 126 164 205 249 305 366
#     4  10  21  40  64  89 123 164 205 252 307 367
#     4  12  24  39  61  88 120 156 201 255 307 358
#     4   9  19  35  55  82 116 159 204 249 299 353
#     4  12  25  41  64  96 127 159 203 255 308 363
#     4  11  23  41  65  91 122 162 201 243 304 370
#
# _framework density 19.260798000000001
#
# number of rings (size 3 to 8) (size 9 to 14) (size 15 to 20)
#    0.000    1.200    2.000    4.800    1.400    2.400 
#    0.000    2.500    0.000    0.000    0.000    0.000 
#    0.000    0.000    0.000    0.000    0.000    0.000 
#
# Total GULP energy -991270.108365 kJ/mol
# GULP energy per Si atom -12390.876355 kJ/mol
# Density = 1.921696 g / cm^3
# Si number density = 19.260798 Si / 1000 Ang^3
#
#
#
# Elastic Constant Matrix: (Units=GPa)
#
#
# Indices 1 2 3 4 5 6 
#
# 1 152.9681 76.0080 43.5415 0.0000 0.0000 0.0000
# 2 76.0080 152.9677 43.5406 0.0000 0.0000 0.0000
# 3 43.5415 43.5406 105.7583 0.0000 0.0000 0.0000
# 4 0.0000 0.0000 0.0000 34.7131 0.0000 0.0000
# 5 0.0000 0.0000 0.0000 0.0000 34.7132 0.0000
# 6 0.0000 0.0000 0.0000 0.0000 0.0000 27.8621
#
#
#
# Elastic Compliance Matrix: (Units=1/GPa)
#
#
# Indices 1 2 3 4 5 6 
#
# 1 0.009086 -0.003908 -0.002132 0.000000 0.000000 0.000000
# 2 -0.003908 0.009086 -0.002132 0.000000 0.000000 0.000000
# 3 -0.002132 -0.002132 0.011211 0.000000 0.000000 0.000000
# 4 0.000000 0.000000 0.000000 0.028808 0.000000 0.000000
# 5 0.000000 0.000000 0.000000 0.000000 0.028808 0.000000
# 6 0.000000 0.000000 0.000000 0.000000 0.000000 0.035891
#
#
# Mechanical properties :
#
#
# Convention : Reuss Voigt Hill
#
# Bulk Modulus (GPa) = 76.68906 81.98606 79.33756
# Shear Modulus (GPa) = 34.82421 36.03129 35.42775
#
# Velocity S-wave (km/s) = 4.25671 4.32986 4.29344
# Velocity P-wave (km/s) = 8.00388 8.22530 8.11534
#
# Compressibility (1/GPa) = 0.01303967
#
# Stress axis : x y z
#
# Youngs Moduli (GPa) = 110.06054 110.06079 89.19917
#
# Poissons Ratio (x) = 0.43010 0.19016
# Poissons Ratio (y) = 0.43010 0.19015
# Poissons Ratio (z) = 0.23463 0.23462
#
# Static dielectric constant tensor:
#      x y z
#    x 3.764970 0.000000 0.000000 
#    y 0.000000 3.764970 0.000000 
#    z 0.000000 0.000000 3.658120 
# 
# 
# High freq. dielectric constant tensor:
#      x y z
#    x 1.757080 0.000000 0.000000 
#    y 0.000000 1.757080 0.000000 
#    z 0.000000 0.000000 1.760530 
# 
# From -- ./inp_files/2346.got.cif
#   From: 2010.03.12/outbox.cif.g09.slc.cpg/sg139_2_cif.got.tgz:2346.got - 2010.04.08 09:46:31.
