data_PCOD8319337
_publ_section_title
;
Structure prediction by ZEFSAII (Michael W. Deem and Ramdas Pophale) SiO2 
 PCOD8319337
Probable space group: I 4/M M M
;
_chemical_formula_sum "Si O2"
_cell_formula_units_Z 160
_cell_length_a 17.664269
_cell_length_b 17.664269
_cell_length_c 29.049151
_cell_angle_alpha 90.000000
_cell_angle_beta 90.000000
_cell_angle_gamma 90.000000
_cell_volume 9064.101989
_symmetry_space_group_name_H-M "I 4/M M M"
_symmetry_group_IT_number 139
_symmetry_cell_setting 'tetragonal'
loop_
_space_group_symop_operation_xyz
x,y,z
-y,x,z
-x,-y,z
y,-x,z
x,-y,-z
-x,y,-z
y,x,-z
-y,-x,-z
-x,-y,-z
y,-x,-z
x,y,-z
-y,x,-z
-x,y,z
x,-y,z
-y,-x,z
y,x,z
1/2+x,1/2+y,1/2+z
1/2-y,1/2+x,1/2+z
1/2-x,1/2-y,1/2+z
1/2+y,1/2-x,1/2+z
1/2+x,1/2-y,1/2-z
1/2-x,1/2+y,1/2-z
1/2+y,1/2+x,1/2-z
1/2-y,1/2-x,1/2-z
1/2-x,1/2-y,1/2-z
1/2+y,1/2-x,1/2-z
1/2+x,1/2+y,1/2-z
1/2-y,1/2+x,1/2-z
1/2-x,1/2+y,1/2+z
1/2+x,1/2-y,1/2+z
1/2-y,1/2-x,1/2+z
1/2+y,1/2+x,1/2+z
loop_
_atom_site_type_symbol
_atom_site_label
_atom_site_fract_x
_atom_site_fract_y
_atom_site_fract_z
Si Si1 0.209361 0.914456 0.894597
Si Si2 0.311956 0.815272 0.551831
Si Si3 0.415298 0.215156 0.202546
Si Si4 0.085619 0.207683 0.391613
Si Si5 0.361308 0.238653 0.700492
O O1 0.135424 0.864576 0.905353
O O2 0.281170 0.886370 0.924121
O O3 0.230584 0.912245 0.840777
O O4 0.190530 0.000000 0.908827
O O5 0.331877 0.840643 0.500000
O O6 0.248022 0.751978 0.552444
O O7 0.282044 0.886954 0.580610
O O8 0.500000 0.179089 0.200776
O O9 0.407083 0.277538 0.162763
O O10 0.403302 0.256774 0.251612
O O11 0.351862 0.150425 0.195661
O O12 0.134751 0.134751 0.405187
O O13 0.000000 0.190453 0.406350
O O14 0.278929 0.278929 0.699302
#
# Coordination Sequence:
#
# PCOD8319337 Si02
#       5
#    32  32  32  32  32
#     4  10  20  34  54  79 106 134 167 208 255 309
#     4   9  18  34  54  74  97 129 172 215 253 300
#     4  10  18  28  48  75 102 132 172 219 259 296
#     4  10  19  32  51  77 107 138 175 216 258 304
#     4  10  18  31  51  72 101 140 181 215 248 303
#
# _framework density 17.652052000000001
#
# number of rings (size 3 to 8) (size 9 to 14) (size 15 to 20)
#    0.000    2.200    2.000    3.000    0.000    1.200 
#    0.000    0.000    0.000   12.000    0.000    9.800 
#    0.000    0.000    0.000    0.000    0.000    0.000 
#
# Total GULP energy -991877.516930 kJ/mol
# GULP energy per Si atom -12398.468962 kJ/mol
# Density = 1.761188 g / cm^3
# Si number density = 17.652052 Si / 1000 Ang^3
#
#
#
# Elastic Constant Matrix: (Units=GPa)
#
#
# Indices 1 2 3 4 5 6 
#
# 1 110.5944 47.3671 35.4106 0.0000 0.0000 0.0000
# 2 47.3671 110.5944 35.4106 0.0000 0.0000 0.0000
# 3 35.4106 35.4106 107.0550 0.0000 0.0000 0.0000
# 4 0.0000 0.0000 0.0000 13.1310 0.0000 0.0000
# 5 0.0000 0.0000 0.0000 0.0000 13.1310 0.0000
# 6 0.0000 0.0000 0.0000 0.0000 0.0000 15.4152
#
#
#
# Elastic Compliance Matrix: (Units=1/GPa)
#
#
# Indices 1 2 3 4 5 6 
#
# 1 0.011624 -0.004192 -0.002459 0.000000 0.000000 0.000000
# 2 -0.004192 0.011624 -0.002459 0.000000 0.000000 0.000000
# 3 -0.002459 -0.002459 0.010967 0.000000 0.000000 0.000000
# 4 0.000000 0.000000 0.000000 0.076156 0.000000 0.000000
# 5 0.000000 0.000000 0.000000 0.000000 0.076156 0.000000
# 6 0.000000 0.000000 0.000000 0.000000 0.000000 0.064871
#
#
# Mechanical properties :
#
#
# Convention : Reuss Voigt Hill
#
# Bulk Modulus (GPa) = 62.50402 62.73559 62.61981
# Shear Modulus (GPa) = 18.18516 22.33913 20.26215
#
# Velocity S-wave (km/s) = 3.21316 3.56128 3.39169
# Velocity P-wave (km/s) = 7.01795 7.24759 7.13369
#
# Compressibility (1/GPa) = 0.01599897
#
# Stress axis : x y z
#
# Youngs Moduli (GPa) = 86.02550 86.02550 91.17884
#
# Poissons Ratio (x) = 0.36058 0.22417
# Poissons Ratio (y) = 0.36058 0.22417
# Poissons Ratio (z) = 0.21150 0.21150
#
# Static dielectric constant tensor:
#      x y z
#    x 3.081580 0.000000 0.000000 
#    y 0.000000 3.081580 0.000000 
#    z 0.000000 0.000000 3.518570 
# 
# 
# High freq. dielectric constant tensor:
#      x y z
#    x 1.659230 0.000000 0.000000 
#    y 0.000000 1.659230 0.000000 
#    z 0.000000 0.000000 1.695170 
# 
# From -- ./inp_files/12910.got.cif
#   From: 2010.03.12/outbox.cif.g09.slc.cpg/sg139_7_cif.got.tgz:12910.got - 2010.04.08 09:46:31.
