data_PCOD8319693
_publ_section_title
;
Structure prediction by ZEFSAII (Michael W. Deem and Ramdas Pophale) SiO2 
 PCOD8319693
Probable space group: I 4/M M M
;
_chemical_formula_sum "Si O2"
_cell_formula_units_Z 144
_cell_length_a 31.884364
_cell_length_b 31.884364
_cell_length_c 7.831707
_cell_angle_alpha 90.000000
_cell_angle_beta 90.000000
_cell_angle_gamma 90.000000
_cell_volume 7961.812546
_symmetry_space_group_name_H-M "I 4/M M M"
_symmetry_group_IT_number 139
_symmetry_cell_setting 'tetragonal'
loop_
_space_group_symop_operation_xyz
x,y,z
-y,x,z
-x,-y,z
y,-x,z
x,-y,-z
-x,y,-z
y,x,-z
-y,-x,-z
-x,-y,-z
y,-x,-z
x,y,-z
-y,x,-z
-x,y,z
x,-y,z
-y,-x,z
y,x,z
1/2+x,1/2+y,1/2+z
1/2-y,1/2+x,1/2+z
1/2-x,1/2-y,1/2+z
1/2+y,1/2-x,1/2+z
1/2+x,1/2-y,1/2-z
1/2-x,1/2+y,1/2-z
1/2+y,1/2+x,1/2-z
1/2-y,1/2-x,1/2-z
1/2-x,1/2-y,1/2-z
1/2+y,1/2-x,1/2-z
1/2+x,1/2+y,1/2-z
1/2-y,1/2+x,1/2-z
1/2-x,1/2+y,1/2+z
1/2+x,1/2-y,1/2+z
1/2-y,1/2-x,1/2+z
1/2+y,1/2+x,1/2+z
loop_
_atom_site_type_symbol
_atom_site_label
_atom_site_fract_x
_atom_site_fract_y
_atom_site_fract_z
Si Si1 0.218820 0.154412 0.799851
Si Si2 0.681153 0.427581 0.803416
Si Si3 0.880733 0.951376 0.000000
Si Si4 0.370384 0.193150 0.692372
Si Si5 0.226294 0.453925 0.799853
O O1 0.201271 0.201271 0.766865
O O2 0.186981 0.122386 0.708345
O O3 0.265492 0.150121 0.717795
O O4 0.218845 0.143009 0.000000
O O5 0.645638 0.443083 0.673022
O O6 0.725415 0.447945 0.744843
O O7 0.669419 0.439941 0.000000
O O8 0.921802 0.921802 0.000000
O O9 0.894996 0.000000 0.000000
O O10 0.357385 0.197333 0.500000
O O11 0.350980 0.149021 0.750000
O O12 0.420535 0.194443 0.715871
O O13 0.211565 0.500000 0.740510
O O14 0.222416 0.448039 0.000000
#
# Coordination Sequence:
#
# PCOD8319693 Si02
#       5
#    32  32  16  32  32
#     4   9  17  31  50  73 102 136 175 215 253 298
#     4  10  20  36  58  84 108 131 163 213 271 322
#     4  12  26  41  58  78 102 132 168 214 267 329
#     4  10  20  32  46  67 100 142 178 212 251 299
#     4   9  18  33  54  79 104 130 166 215 266 314
#
# _framework density 18.086334000000001
#
# number of rings (size 3 to 8) (size 9 to 14) (size 15 to 20)
#    0.000    2.222    1.111    2.000    1.556    5.000 
#    0.000    0.000    0.000    0.000    0.000    1.556 
#    0.000    0.444    0.000    4.667    0.000    2.000 
#
# Total GULP energy -892197.719172 kJ/mol
# GULP energy per Si atom -12391.634988 kJ/mol
# Density = 1.804517 g / cm^3
# Si number density = 18.086334 Si / 1000 Ang^3
#
#
#
# Elastic Constant Matrix: (Units=GPa)
#
#
# Indices 1 2 3 4 5 6 
#
# 1 93.0367 84.2122 30.5477 0.0000 0.0000 0.0000
# 2 84.2122 93.0552 30.5431 0.0000 0.0000 0.0000
# 3 30.5477 30.5431 64.8662 0.0000 0.0000 0.0000
# 4 0.0000 0.0000 0.0000 16.8578 0.0000 0.0000
# 5 0.0000 0.0000 0.0000 0.0000 16.8574 0.0000
# 6 0.0000 0.0000 0.0000 0.0000 0.0000 23.7321
#
#
#
# Elastic Compliance Matrix: (Units=1/GPa)
#
#
# Indices 1 2 3 4 5 6 
#
# 1 0.059977 -0.053234 -0.003179 0.000000 0.000000 0.000000
# 2 -0.053234 0.059960 -0.003163 0.000000 0.000000 0.000000
# 3 -0.003179 -0.003163 0.018403 0.000000 0.000000 0.000000
# 4 0.000000 0.000000 0.000000 0.059320 0.000000 0.000000
# 5 0.000000 0.000000 0.000000 0.000000 0.059321 0.000000
# 6 0.000000 0.000000 0.000000 0.000000 0.000000 0.042137
#
#
# Mechanical properties :
#
#
# Convention : Reuss Voigt Hill
#
# Bulk Modulus (GPa) = 52.11879 60.17379 56.14629
# Shear Modulus (GPa) = 11.77394 18.53313 15.15353
#
# Velocity S-wave (km/s) = 2.55421 3.20457 2.89769
# Velocity P-wave (km/s) = 6.13008 6.85820 6.50434
#
# Compressibility (1/GPa) = 0.01918694
#
# Stress axis : x y z
#
# Youngs Moduli (GPa) = 16.67299 16.67785 54.33891
#
# Poissons Ratio (x) = 0.88783 0.17276
# Poissons Ratio (y) = 0.88757 0.17188
# Poissons Ratio (z) = 0.05301 0.05275
#
# Static dielectric constant tensor:
#      x y z
#    x 3.574910 0.000000 0.000000 
#    y 0.000000 3.574950 0.000000 
#    z 0.000000 0.000000 3.365530 
# 
# 
# High freq. dielectric constant tensor:
#      x y z
#    x 1.674100 0.000000 0.000000 
#    y 0.000000 1.674100 0.000000 
#    z 0.000000 0.000000 1.705080 
# 
# From -- ./inp_files/1981.got.cif
#   From: 2010.03.12/outbox.cif.g09.slc.cpg/sg139_1_cif.got.tgz:1981.got - 2010.04.08 09:46:31.
