data_PCOD8319219
_publ_section_title
;
Structure prediction by ZEFSAII (Michael W. Deem and Ramdas Pophale) SiO2 
 PCOD8319219
Probable space group: P 42/N C M
;
_chemical_formula_sum "Si O2"
_cell_formula_units_Z 48
_cell_length_a 14.075113
_cell_length_b 14.075113
_cell_length_c 11.873301
_cell_angle_alpha 90.000000
_cell_angle_beta 90.000000
_cell_angle_gamma 90.000000
_cell_volume 2352.205484
_symmetry_space_group_name_H-M "P 42/N C M"
_symmetry_group_IT_number 138
_space_group.IT_coordinate_system_code '2'
_symmetry_cell_setting 'tetragonal'
loop_
_space_group_symop_operation_xyz
x,y,z
1/2-y,x,1/2+z
1/2-x,1/2-y,z
y,1/2-x,1/2+z
1/2+x,-y,1/2-z
-x,1/2+y,1/2-z
1/2+y,1/2+x,-z
-y,-x,-z
-x,-y,-z
1/2+y,-x,1/2-z
1/2+x,1/2+y,-z
-y,1/2+x,1/2-z
1/2-x,y,1/2+z
x,1/2-y,1/2+z
1/2-y,1/2-x,z
y,x,z
loop_
_atom_site_type_symbol
_atom_site_label
_atom_site_fract_x
_atom_site_fract_y
_atom_site_fract_z
Si Si1 0.176596 0.176596 0.665209
Si Si2 0.081600 0.926916 0.866927
Si Si3 0.992567 0.774074 0.714564
Si Si4 0.075824 0.075824 0.460383
O O1 0.250000 0.250000 0.606786
O O2 0.108237 0.236004 0.745670
O O3 0.120802 0.120802 0.570727
O O4 0.042148 0.829160 0.816867
O O5 0.187542 0.940774 0.821981
O O6 0.082529 0.917472 0.000000
O O7 0.014897 0.014897 0.828355
O O8 0.977888 0.843372 0.609342
O O9 0.000000 0.000000 0.500000
#
# Coordination Sequence:
#
# PCOD8319219 Si02
#       4
#     8  16  16   8
#     4  12  24  40  69 105 138 181 244 301 352 420
#     4  11  24  45  71 102 143 188 235 295 363 428
#     4  12  24  45  70 103 142 189 236 298 359 426
#     4  12  26  44  69 105 145 189 237 297 363 414
#
# _framework density 20.406381
#
# number of rings (size 3 to 8) (size 9 to 14) (size 15 to 20)
#    0.000    0.333    5.000    4.000    2.333    3.333 
#    0.000    1.667    0.000    0.000    0.000    0.000 
#    0.000    0.000    0.000    0.000    0.000    0.000 
#
# Total GULP energy -595556.878621 kJ/mol
# GULP energy per Si atom -12407.434971 kJ/mol
# Density = 2.035994 g / cm^3
# Si number density = 20.406381 Si / 1000 Ang^3
#
#
#
# Elastic Constant Matrix: (Units=GPa)
#
#
# Indices 1 2 3 4 5 6 
#
# 1 165.5260 69.2326 65.7808 0.0000 0.0000 0.0000
# 2 69.2326 165.5272 65.7817 0.0000 0.0000 0.0000
# 3 65.7808 65.7817 112.0175 0.0000 0.0000 0.0000
# 4 0.0000 0.0000 0.0000 39.9170 0.0000 0.0000
# 5 0.0000 0.0000 0.0000 0.0000 39.9176 0.0000
# 6 0.0000 0.0000 0.0000 0.0000 0.0000 61.3368
#
#
#
# Elastic Compliance Matrix: (Units=1/GPa)
#
#
# Indices 1 2 3 4 5 6 
#
# 1 0.008367 -0.002018 -0.003728 0.000000 0.000000 0.000000
# 2 -0.002018 0.008367 -0.003729 0.000000 0.000000 0.000000
# 3 -0.003728 -0.003729 0.013306 0.000000 0.000000 0.000000
# 4 0.000000 0.000000 0.000000 0.025052 0.000000 0.000000
# 5 0.000000 0.000000 0.000000 0.000000 0.025052 0.000000
# 6 0.000000 0.000000 0.000000 0.000000 0.000000 0.016303
#
#
# Mechanical properties :
#
#
# Convention : Reuss Voigt Hill
#
# Bulk Modulus (GPa) = 90.16640 93.85118 92.00879
# Shear Modulus (GPa) = 41.98369 44.38599 43.18484
#
# Velocity S-wave (km/s) = 4.54076 4.66886 4.60525
# Velocity P-wave (km/s) = 8.47187 8.66921 8.57111
#
# Compressibility (1/GPa) = 0.01109061
#
# Stress axis : x y z
#
# Youngs Moduli (GPa) = 119.51675 119.51683 75.15273
#
# Poissons Ratio (x) = 0.24117 0.28020
# Poissons Ratio (y) = 0.24116 0.28021
# Poissons Ratio (z) = 0.44561 0.44562
#
# Static dielectric constant tensor:
#      x y z
#    x 3.884520 0.000000 0.000000 
#    y 0.000000 3.884520 0.000000 
#    z 0.000000 0.000000 3.739390 
# 
# 
# High freq. dielectric constant tensor:
#      x y z
#    x 1.809240 0.000000 0.000000 
#    y 0.000000 1.809240 0.000000 
#    z 0.000000 0.000000 1.809660 
# 
# From -- ./inp_files/2393.got.cif
#   From: 2010.03.12/outbox.cif.g09.slc.cpg/sg138_2_cif.got.tgz:2393.got - 2010.04.08 09:41:05.
