data_PCOD8319131
_publ_section_title
;
Structure prediction by ZEFSAII (Michael W. Deem and Ramdas Pophale) SiO2 
 PCOD8319131
Probable space group: P 42/N C M
;
_chemical_formula_sum "Si O2"
_cell_formula_units_Z 112
_cell_length_a 14.701054
_cell_length_b 14.701054
_cell_length_c 25.152641
_cell_angle_alpha 90.000000
_cell_angle_beta 90.000000
_cell_angle_gamma 90.000000
_cell_volume 5436.013642
_symmetry_space_group_name_H-M "P 42/N C M"
_symmetry_group_IT_number 138
_space_group.IT_coordinate_system_code '2'
_symmetry_cell_setting 'tetragonal'
loop_
_space_group_symop_operation_xyz
x,y,z
1/2-y,x,1/2+z
1/2-x,1/2-y,z
y,1/2-x,1/2+z
1/2+x,-y,1/2-z
-x,1/2+y,1/2-z
1/2+y,1/2+x,-z
-y,-x,-z
-x,-y,-z
1/2+y,-x,1/2-z
1/2+x,1/2+y,-z
-y,1/2+x,1/2-z
1/2-x,y,1/2+z
x,1/2-y,1/2+z
1/2-y,1/2-x,z
y,x,z
loop_
_atom_site_type_symbol
_atom_site_label
_atom_site_fract_x
_atom_site_fract_y
_atom_site_fract_z
Si Si1 0.367922 0.979835 0.537943
Si Si2 0.562264 0.188419 0.273385
Si Si3 0.250844 0.106596 0.218818
Si Si4 0.574697 0.067697 0.084925
Si Si5 0.465330 0.177096 0.997992
Si Si6 0.822420 0.172724 0.670796
Si Si7 0.875313 0.478057 0.343977
O O1 0.395595 0.895595 0.500000
O O2 0.348042 0.939655 0.597503
O O3 0.448297 0.051703 0.541068
O O4 0.282788 0.032599 0.512510
O O5 0.454046 0.195676 0.262766
O O6 0.581256 0.270155 0.313722
O O7 0.617828 0.210476 0.219480
O O8 0.597771 0.095843 0.299762
O O9 0.326296 0.173705 0.192757
O O10 0.168983 0.168983 0.243729
O O11 0.209005 0.040368 0.174514
O O12 0.522504 0.120844 0.039854
O O13 0.609007 0.145073 0.124711
O O14 0.504391 0.995609 0.112424
O O15 0.659160 0.011742 0.059552
O O16 0.361414 0.138587 0.997470
O O17 0.750000 0.250000 0.653369
O O18 0.965099 0.534902 0.351928
#
# Coordination Sequence:
#
# PCOD8319131 Si02
#       7
#    16  16  16  16  16  16  16
#     4  10  23  40  61  89 119 155 200 246 299 363
#     4  12  22  40  58  87 127 161 200 249 302 360
#     4  10  22  40  62  89 119 156 207 255 299 361
#     4   9  22  40  61  88 120 156 198 246 300 364
#     4   9  20  41  62  88 120 151 195 250 303 357
#     4  12  23  37  57  89 125 160 200 249 299 361
#     4  10  22  40  61  88 122 160 199 246 304 360
#
# _framework density 20.603332999999999
#
# number of rings (size 3 to 8) (size 9 to 14) (size 15 to 20)
#    0.000    1.714    2.857    1.286    6.000    2.571 
#    0.000    2.857    0.000    0.000    0.000    0.000 
#    0.000    0.000    0.000    0.000    0.000    0.000 
#
# Total GULP energy -1387783.767205 kJ/mol
# GULP energy per Si atom -12390.926493 kJ/mol
# Density = 2.055644 g / cm^3
# Si number density = 20.603333 Si / 1000 Ang^3
#
#
#
# Elastic Constant Matrix: (Units=GPa)
#
#
# Indices 1 2 3 4 5 6 
#
# 1 110.2364 44.2070 47.0839 0.0000 0.0000 0.0000
# 2 44.2070 110.2364 47.0839 0.0000 0.0000 0.0000
# 3 47.0839 47.0839 88.8849 0.0000 0.0000 0.0000
# 4 0.0000 0.0000 0.0000 19.8762 0.0000 0.0000
# 5 0.0000 0.0000 0.0000 0.0000 19.8762 0.0000
# 6 0.0000 0.0000 0.0000 0.0000 0.0000 37.2550
#
#
#
# Elastic Compliance Matrix: (Units=1/GPa)
#
#
# Indices 1 2 3 4 5 6 
#
# 1 0.012354 -0.002790 -0.005066 0.000000 0.000000 0.000000
# 2 -0.002790 0.012354 -0.005066 0.000000 0.000000 0.000000
# 3 -0.005066 -0.005066 0.016618 0.000000 0.000000 0.000000
# 4 0.000000 0.000000 0.000000 0.050312 0.000000 0.000000
# 5 0.000000 0.000000 0.000000 0.000000 0.050312 0.000000
# 6 0.000000 0.000000 0.000000 0.000000 0.000000 0.026842
#
#
# Mechanical properties :
#
#
# Convention : Reuss Voigt Hill
#
# Bulk Modulus (GPa) = 64.59585 65.12301 64.85943
# Shear Modulus (GPa) = 25.02540 26.80033 25.91286
#
# Velocity S-wave (km/s) = 3.48893 3.61054 3.55026
# Velocity P-wave (km/s) = 6.90293 7.00414 6.95372
#
# Compressibility (1/GPa) = 0.01548087
#
# Stress axis : x y z
#
# Youngs Moduli (GPa) = 80.94359 80.94359 60.17678
#
# Poissons Ratio (x) = 0.22587 0.30486
# Poissons Ratio (y) = 0.22587 0.30486
# Poissons Ratio (z) = 0.41007 0.41007
#
# Static dielectric constant tensor:
#      x y z
#    x 3.921240 0.000000 0.000000 
#    y 0.000000 3.921240 0.000000 
#    z 0.000000 0.000000 3.861230 
# 
# 
# High freq. dielectric constant tensor:
#      x y z
#    x 1.810630 0.000000 0.000000 
#    y 0.000000 1.810630 0.000000 
#    z 0.000000 0.000000 1.786570 
# 
# From -- ./inp_files/7083.got.cif
#   From: 2010.03.12/outbox.cif.g09.slc.cpg/sg138_4_cif.got.tgz:7083.got - 2010.04.08 09:41:05.
