data_PCOD8319628
_publ_section_title
;
Structure prediction by ZEFSAII (Michael W. Deem and Ramdas Pophale) SiO2 
 PCOD8319628
Probable space group: I 4/M M M
;
_chemical_formula_sum "Si O2"
_cell_formula_units_Z 240
_cell_length_a 20.528608
_cell_length_b 20.528608
_cell_length_c 27.928426
_cell_angle_alpha 90.000000
_cell_angle_beta 90.000000
_cell_angle_gamma 90.000000
_cell_volume 11769.701916
_symmetry_space_group_name_H-M "I 4/M M M"
_symmetry_group_IT_number 139
_symmetry_cell_setting 'tetragonal'
loop_
_space_group_symop_operation_xyz
x,y,z
-y,x,z
-x,-y,z
y,-x,z
x,-y,-z
-x,y,-z
y,x,-z
-y,-x,-z
-x,-y,-z
y,-x,-z
x,y,-z
-y,x,-z
-x,y,z
x,-y,z
-y,-x,z
y,x,z
1/2+x,1/2+y,1/2+z
1/2-y,1/2+x,1/2+z
1/2-x,1/2-y,1/2+z
1/2+y,1/2-x,1/2+z
1/2+x,1/2-y,1/2-z
1/2-x,1/2+y,1/2-z
1/2+y,1/2+x,1/2-z
1/2-y,1/2-x,1/2-z
1/2-x,1/2-y,1/2-z
1/2+y,1/2-x,1/2-z
1/2+x,1/2+y,1/2-z
1/2-y,1/2+x,1/2-z
1/2-x,1/2+y,1/2+z
1/2+x,1/2-y,1/2+z
1/2-y,1/2-x,1/2+z
1/2+y,1/2+x,1/2+z
loop_
_atom_site_type_symbol
_atom_site_label
_atom_site_fract_x
_atom_site_fract_y
_atom_site_fract_z
Si Si1 0.074602 0.368816 0.796517
Si Si2 0.799076 0.425983 0.552214
Si Si3 0.180424 0.924368 0.883992
Si Si4 0.677965 0.576186 0.806158
Si Si5 0.074877 0.608862 0.605270
Si Si6 0.741462 0.576220 0.902775
Si Si7 0.372524 0.731658 0.711082
Si Si8 0.077141 0.821712 0.500000
O O1 0.088651 0.411350 0.750000
O O2 0.084020 0.417239 0.840837
O O3 0.125271 0.308427 0.801094
O O4 0.000000 0.342856 0.795564
O O5 0.795940 0.391047 0.500000
O O6 0.778490 0.500000 0.545697
O O7 0.744942 0.396743 0.588447
O O8 0.873134 0.426067 0.571343
O O9 0.118289 0.881712 0.900707
O O10 0.192608 0.915535 0.827488
O O11 0.165386 0.000000 0.894635
O O12 0.667936 0.500000 0.808569
O O13 0.607853 0.607853 0.796235
O O14 0.705584 0.604880 0.856100
O O15 0.726312 0.594938 0.763272
O O16 0.093832 0.683788 0.601860
O O17 0.000000 0.595360 0.588792
O O18 0.729717 0.500000 0.903203
O O19 0.714895 0.604710 0.952881
O O20 0.298711 0.701290 0.711118
O O21 0.105236 0.894765 0.500000
O O22 0.000000 0.826613 0.500000
#
# Coordination Sequence:
#
# PCOD8319628 Si02
#       8
#    32  32  32  32  32  32  32  16
#     4  12  24  39  61  90 128 165 201 250 306 363
#     4  10  22  40  62  88 119 155 195 245 306 364
#     4  10  20  38  63  91 124 163 205 251 308 369
#     4  10  19  33  54  80 111 147 190 237 289 351
#     4  11  23  39  62  86 114 156 202 246 295 358
#     4   9  20  37  55  78 109 149 193 238 294 353
#     4  10  21  38  61  86 116 162 208 247 299 364
#     4  10  20  37  60  84 115 153 193 245 304 360
#
# _framework density 20.391341000000001
#
# number of rings (size 3 to 8) (size 9 to 14) (size 15 to 20)
#    0.000    1.733    1.333    3.200    0.933    3.933 
#    0.000    3.333    0.000    4.800    0.000    1.867 
#    0.000    0.000    0.000    0.000    0.000    0.000 
#
# Total GULP energy -1487591.501259 kJ/mol
# GULP energy per Si atom -12396.595844 kJ/mol
# Density = 2.034493 g / cm^3
# Si number density = 20.391341 Si / 1000 Ang^3
#
#
#
# Elastic Constant Matrix: (Units=GPa)
#
#
# Indices 1 2 3 4 5 6 
#
# 1 82.9678 37.0331 31.7858 0.0000 0.0000 0.0000
# 2 37.0331 82.9619 31.7856 0.0000 0.0000 0.0000
# 3 31.7858 31.7856 144.2907 0.0000 0.0000 0.0000
# 4 0.0000 0.0000 0.0000 18.7965 0.0000 0.0000
# 5 0.0000 0.0000 0.0000 0.0000 18.7959 0.0000
# 6 0.0000 0.0000 0.0000 0.0000 0.0000 26.9908
#
#
#
# Elastic Compliance Matrix: (Units=1/GPa)
#
#
# Indices 1 2 3 4 5 6 
#
# 1 0.015602 -0.006168 -0.002078 0.000000 0.000000 0.000000
# 2 -0.006168 0.015604 -0.002078 0.000000 0.000000 0.000000
# 3 -0.002078 -0.002078 0.007846 0.000000 0.000000 0.000000
# 4 0.000000 0.000000 0.000000 0.053201 0.000000 0.000000
# 5 0.000000 0.000000 0.000000 0.000000 0.053203 0.000000
# 6 0.000000 0.000000 0.000000 0.000000 0.000000 0.037050
#
#
# Mechanical properties :
#
#
# Convention : Reuss Voigt Hill
#
# Bulk Modulus (GPa) = 54.34234 56.82547 55.58390
# Shear Modulus (GPa) = 23.89024 26.89102 25.39063
#
# Velocity S-wave (km/s) = 3.42656 3.63540 3.53252
# Velocity P-wave (km/s) = 6.50866 6.74903 6.62993
#
# Compressibility (1/GPa) = 0.01840186
#
# Stress axis : x y z
#
# Youngs Moduli (GPa) = 64.09276 64.08790 127.45157
#
# Poissons Ratio (x) = 0.39532 0.26487
# Poissons Ratio (y) = 0.39535 0.26490
# Poissons Ratio (z) = 0.13320 0.13320
#
# Static dielectric constant tensor:
#      x y z
#    x 3.567140 0.000000 0.000000 
#    y 0.000000 3.567140 0.000000 
#    z 0.000000 0.000000 4.123550 
# 
# 
# High freq. dielectric constant tensor:
#      x y z
#    x 1.784490 0.000000 0.000000 
#    y 0.000000 1.784490 0.000000 
#    z 0.000000 0.000000 1.811550 
# 
# From -- ./inp_files/13390.got.cif
#   From: 2010.03.12/outbox.cif.g09.slc.cpg/sg139_7_cif.got.tgz:13390.got - 2010.04.08 09:46:31.
