data_PCOD8319310
_publ_section_title
;
Structure prediction by ZEFSAII (Michael W. Deem and Ramdas Pophale) SiO2 
 PCOD8319310
Probable space group: I 4/M M M
;
_chemical_formula_sum "Si O2"
_cell_formula_units_Z 224
_cell_length_a 22.832102
_cell_length_b 22.832102
_cell_length_c 24.768264
_cell_angle_alpha 90.000000
_cell_angle_beta 90.000000
_cell_angle_gamma 90.000000
_cell_volume 12911.816935
_symmetry_space_group_name_H-M "I 4/M M M"
_symmetry_group_IT_number 139
_symmetry_cell_setting 'tetragonal'
loop_
_space_group_symop_operation_xyz
x,y,z
-y,x,z
-x,-y,z
y,-x,z
x,-y,-z
-x,y,-z
y,x,-z
-y,-x,-z
-x,-y,-z
y,-x,-z
x,y,-z
-y,x,-z
-x,y,z
x,-y,z
-y,-x,z
y,x,z
1/2+x,1/2+y,1/2+z
1/2-y,1/2+x,1/2+z
1/2-x,1/2-y,1/2+z
1/2+y,1/2-x,1/2+z
1/2+x,1/2-y,1/2-z
1/2-x,1/2+y,1/2-z
1/2+y,1/2+x,1/2-z
1/2-y,1/2-x,1/2-z
1/2-x,1/2-y,1/2-z
1/2+y,1/2-x,1/2-z
1/2+x,1/2+y,1/2-z
1/2-y,1/2+x,1/2-z
1/2-x,1/2+y,1/2+z
1/2+x,1/2-y,1/2+z
1/2-y,1/2-x,1/2+z
1/2+y,1/2+x,1/2+z
loop_
_atom_site_type_symbol
_atom_site_label
_atom_site_fract_x
_atom_site_fract_y
_atom_site_fract_z
Si Si1 0.063672 0.371914 0.291422
Si Si2 0.141385 0.235484 0.941307
Si Si3 0.066460 0.626564 0.123117
Si Si4 0.253838 0.566515 0.339212
Si Si5 0.832897 0.930368 0.739074
Si Si6 0.141468 0.318935 0.561269
Si Si7 0.245256 0.433934 0.147479
O O1 0.115124 0.384877 0.250000
O O2 0.069984 0.415915 0.342138
O O3 0.069484 0.305050 0.307827
O O4 0.000000 0.383435 0.265142
O O5 0.176634 0.176634 0.945771
O O6 0.095550 0.224154 0.894226
O O7 0.186501 0.288926 0.929115
O O8 0.110641 0.247607 0.000000
O O9 0.074018 0.683286 0.162803
O O10 0.112607 0.627547 0.073960
O O11 0.000000 0.622035 0.100779
O O12 0.272332 0.500000 0.344707
O O13 0.287148 0.590717 0.285883
O O14 0.892735 0.892735 0.743876
O O15 0.804193 0.917075 0.680111
O O16 0.847109 0.000000 0.743815
O O17 0.122396 0.305567 0.500000
O O18 0.109630 0.270495 0.598580
O O19 0.249751 0.500000 0.124072
#
# Coordination Sequence:
#
# PCOD8319310 Si02
#       7
#    32  32  32  32  32  32  32
#     4  10  18  27  41  60  85 119 157 195 231 265
#     4   9  17  29  45  67  97 128 156 191 231 264
#     4   9  17  28  42  62  91 125 160 198 234 266
#     4   9  17  30  48  68  92 125 161 192 224 267
#     4  10  20  34  53  75  97 120 147 183 230 285
#     4   9  18  31  47  67  90 119 156 196 236 278
#     4   9  19  34  49  66  90 119 151 188 231 282
#
# _framework density 17.348448999999999
#
# number of rings (size 3 to 8) (size 9 to 14) (size 15 to 20)
#    0.000    2.714    0.000    1.714    0.000    4.857 
#    0.000    2.857    0.000    9.000    0.000    4.000 
#    0.000    0.000    0.000   16.429    0.000    0.286 
#
# Total GULP energy -1387477.469884 kJ/mol
# GULP energy per Si atom -12388.191695 kJ/mol
# Density = 1.730896 g / cm^3
# Si number density = 17.348449 Si / 1000 Ang^3
#
#
#
# Elastic Constant Matrix: (Units=GPa)
#
#
# Indices 1 2 3 4 5 6 
#
# 1 53.3034 29.6169 31.8466 0.0000 0.0000 0.0000
# 2 29.6169 53.3035 31.8461 0.0000 0.0000 0.0000
# 3 31.8466 31.8461 86.4910 0.0000 0.0000 0.0000
# 4 0.0000 0.0000 0.0000 18.6216 0.0000 0.0000
# 5 0.0000 0.0000 0.0000 0.0000 18.6212 0.0000
# 6 0.0000 0.0000 0.0000 0.0000 0.0000 22.5381
#
#
#
# Elastic Compliance Matrix: (Units=1/GPa)
#
#
# Indices 1 2 3 4 5 6 
#
# 1 0.029517 -0.012701 -0.006192 0.000000 0.000000 0.000000
# 2 -0.012701 0.029517 -0.006191 0.000000 0.000000 0.000000
# 3 -0.006192 -0.006191 0.016121 0.000000 0.000000 0.000000
# 4 0.000000 0.000000 0.000000 0.053701 0.000000 0.000000
# 5 0.000000 0.000000 0.000000 0.000000 0.053702 0.000000
# 6 0.000000 0.000000 0.000000 0.000000 0.000000 0.044369
#
#
# Mechanical properties :
#
#
# Convention : Reuss Voigt Hill
#
# Bulk Modulus (GPa) = 40.02183 42.19079 41.10631
# Shear Modulus (GPa) = 17.51771 18.60872 18.06322
#
# Velocity S-wave (km/s) = 3.18111 3.27868 3.23026
# Velocity P-wave (km/s) = 6.05080 6.22137 6.13667
#
# Compressibility (1/GPa) = 0.02498637
#
# Stress axis : x y z
#
# Youngs Moduli (GPa) = 33.87877 33.87911 62.02916
#
# Poissons Ratio (x) = 0.43031 0.38407
# Poissons Ratio (y) = 0.43030 0.38405
# Poissons Ratio (z) = 0.20977 0.20976
#
# Static dielectric constant tensor:
#      x y z
#    x 3.109480 0.000000 0.000000 
#    y 0.000000 3.109480 0.000000 
#    z 0.000000 0.000000 3.376750 
# 
# 
# High freq. dielectric constant tensor:
#      x y z
#    x 1.652250 0.000000 0.000000 
#    y 0.000000 1.652250 0.000000 
#    z 0.000000 0.000000 1.668790 
# 
# From -- ./inp_files/12165.got.cif
#   From: 2010.03.12/outbox.cif.g09.slc.cpg/sg139_7_cif.got.tgz:12165.got - 2010.04.08 09:46:31.
