data_PCOD8319264
_publ_section_title
;
Structure prediction by ZEFSAII (Michael W. Deem and Ramdas Pophale) SiO2 
 PCOD8319264
Probable space group: I 4/M M M
;
_chemical_formula_sum "Si O2"
_cell_formula_units_Z 208
_cell_length_a 24.869116
_cell_length_b 24.869116
_cell_length_c 22.373469
_cell_angle_alpha 90.000000
_cell_angle_beta 90.000000
_cell_angle_gamma 90.000000
_cell_volume 13837.384941
_symmetry_space_group_name_H-M "I 4/M M M"
_symmetry_group_IT_number 139
_symmetry_cell_setting 'tetragonal'
loop_
_space_group_symop_operation_xyz
x,y,z
-y,x,z
-x,-y,z
y,-x,z
x,-y,-z
-x,y,-z
y,x,-z
-y,-x,-z
-x,-y,-z
y,-x,-z
x,y,-z
-y,x,-z
-x,y,z
x,-y,z
-y,-x,z
y,x,z
1/2+x,1/2+y,1/2+z
1/2-y,1/2+x,1/2+z
1/2-x,1/2-y,1/2+z
1/2+y,1/2-x,1/2+z
1/2+x,1/2-y,1/2-z
1/2-x,1/2+y,1/2-z
1/2+y,1/2+x,1/2-z
1/2-y,1/2-x,1/2-z
1/2-x,1/2-y,1/2-z
1/2+y,1/2-x,1/2-z
1/2+x,1/2+y,1/2-z
1/2-y,1/2+x,1/2-z
1/2-x,1/2+y,1/2+z
1/2+x,1/2-y,1/2+z
1/2-y,1/2-x,1/2+z
1/2+y,1/2+x,1/2+z
loop_
_atom_site_type_symbol
_atom_site_label
_atom_site_fract_x
_atom_site_fract_y
_atom_site_fract_z
Si Si1 0.652501 0.847500 0.750000
Si Si2 0.184703 0.558292 0.177301
Si Si3 0.850485 0.063430 0.371525
Si Si4 0.742558 0.101339 0.569738
Si Si5 0.151911 0.759932 0.821722
Si Si6 0.304655 0.215490 0.564941
Si Si7 0.941035 0.794813 0.749250
O O1 0.605374 0.854953 0.799437
O O2 0.711272 0.850284 0.776553
O O3 0.155945 0.500000 0.182998
O O4 0.201416 0.565306 0.108071
O O5 0.237426 0.558808 0.217643
O O6 0.906196 0.093805 0.387006
O O7 0.803882 0.089130 0.412512
O O8 0.838232 0.073693 0.301554
O O9 0.856141 0.000000 0.385704
O O10 0.734315 0.088627 0.500000
O O11 0.727470 0.162696 0.586318
O O12 0.206529 0.793472 0.812842
O O13 0.149520 0.734909 0.888513
O O14 0.100565 0.797103 0.805072
O O15 0.332201 0.205649 0.500000
O O16 0.261506 0.261506 0.558741
O O17 0.000000 0.807229 0.776061
#
# Coordination Sequence:
#
# PCOD8319264 Si02
#       7
#    16  32  32  32  32  32  32
#     4  10  17  28  40  61  88 110 134 176 220 261
#     4   9  17  28  42  61  84 111 140 169 210 261
#     4  10  20  32  44  59  81 112 153 196 232 265
#     4  10  18  30  45  61  85 116 147 183 223 265
#     4  10  17  25  42  65  86 111 140 175 218 264
#     4   9  17  27  39  60  89 117 142 170 211 264
#     4   8  16  29  43  61  85 111 139 174 217 265
#
# _framework density 15.031741999999999
#
# number of rings (size 3 to 8) (size 9 to 14) (size 15 to 20)
#    0.000    2.615    1.538    2.538    0.000    2.308 
#    0.000    0.000    0.000    0.692    0.000    1.077 
#    0.000    0.615    0.000    1.385    0.000    0.000 
#
# Total GULP energy -1288601.337697 kJ/mol
# GULP energy per Si atom -12390.397478 kJ/mol
# Density = 1.499753 g / cm^3
# Si number density = 15.031742 Si / 1000 Ang^3
#
#
#
# Elastic Constant Matrix: (Units=GPa)
#
#
# Indices 1 2 3 4 5 6 
#
# 1 66.8951 22.2861 42.2787 0.0000 0.0000 0.0000
# 2 22.2861 66.8951 42.2792 0.0000 0.0000 0.0000
# 3 42.2787 42.2792 84.1734 0.0000 0.0000 0.0000
# 4 0.0000 0.0000 0.0000 10.8391 0.0000 0.0000
# 5 0.0000 0.0000 0.0000 0.0000 10.8369 0.0000
# 6 0.0000 0.0000 0.0000 0.0000 0.0000 10.6580
#
#
#
# Elastic Compliance Matrix: (Units=1/GPa)
#
#
# Indices 1 2 3 4 5 6 
#
# 1 0.021913 -0.000504 -0.010753 0.000000 0.000000 0.000000
# 2 -0.000504 0.021913 -0.010754 0.000000 0.000000 0.000000
# 3 -0.010753 -0.010754 0.022683 0.000000 0.000000 0.000000
# 4 0.000000 0.000000 0.000000 0.092259 0.000000 0.000000
# 5 0.000000 0.000000 0.000000 0.000000 0.092277 0.000000
# 6 0.000000 0.000000 0.000000 0.000000 0.000000 0.093826
#
#
# Mechanical properties :
#
#
# Convention : Reuss Voigt Hill
#
# Bulk Modulus (GPa) = 44.46971 47.96127 46.21549
# Shear Modulus (GPa) = 12.61390 13.87478 13.24434
#
# Velocity S-wave (km/s) = 2.89995 3.04144 2.97154
# Velocity P-wave (km/s) = 6.39227 6.65656 6.52575
#
# Compressibility (1/GPa) = 0.02248722
#
# Stress axis : x y z
#
# Youngs Moduli (GPa) = 45.63520 45.63473 44.08637
#
# Poissons Ratio (x) = 0.02300 0.47407
# Poissons Ratio (y) = 0.02300 0.47408
# Poissons Ratio (z) = 0.49073 0.49073
#
# Static dielectric constant tensor:
#      x y z
#    x 2.908530 0.000000 0.000000 
#    y 0.000000 2.908550 0.000000 
#    z 0.000000 0.000000 3.168950 
# 
# 
# High freq. dielectric constant tensor:
#      x y z
#    x 1.554860 0.000000 0.000000 
#    y 0.000000 1.554860 0.000000 
#    z 0.000000 0.000000 1.568140 
# 
# From -- ./inp_files/9002.got.cif
#   From: 2010.03.12/outbox.cif.g09.slc.cpg/sg139_5_cif.got.tgz:9002.got - 2010.04.08 09:46:31.
