data_PCOD8319300
_publ_section_title
;
Structure prediction by ZEFSAII (Michael W. Deem and Ramdas Pophale) SiO2 
 PCOD8319300
Probable space group: I 4/M M M
;
_chemical_formula_sum "Si O2"
_cell_formula_units_Z 224
_cell_length_a 30.622946
_cell_length_b 30.622946
_cell_length_c 17.492709
_cell_angle_alpha 90.000000
_cell_angle_beta 90.000000
_cell_angle_gamma 90.000000
_cell_volume 16404.047137
_symmetry_space_group_name_H-M "I 4/M M M"
_symmetry_group_IT_number 139
_symmetry_cell_setting 'tetragonal'
loop_
_space_group_symop_operation_xyz
x,y,z
-y,x,z
-x,-y,z
y,-x,z
x,-y,-z
-x,y,-z
y,x,-z
-y,-x,-z
-x,-y,-z
y,-x,-z
x,y,-z
-y,x,-z
-x,y,z
x,-y,z
-y,-x,z
y,x,z
1/2+x,1/2+y,1/2+z
1/2-y,1/2+x,1/2+z
1/2-x,1/2-y,1/2+z
1/2+y,1/2-x,1/2+z
1/2+x,1/2-y,1/2-z
1/2-x,1/2+y,1/2-z
1/2+y,1/2+x,1/2-z
1/2-y,1/2-x,1/2-z
1/2-x,1/2-y,1/2-z
1/2+y,1/2-x,1/2-z
1/2+x,1/2+y,1/2-z
1/2-y,1/2+x,1/2-z
1/2-x,1/2+y,1/2+z
1/2+x,1/2-y,1/2+z
1/2-y,1/2-x,1/2+z
1/2+y,1/2+x,1/2+z
loop_
_atom_site_type_symbol
_atom_site_label
_atom_site_fract_x
_atom_site_fract_y
_atom_site_fract_z
Si Si1 0.681381 0.681381 0.087446
Si Si2 0.450395 0.889960 0.411829
Si Si3 0.314355 0.187893 0.911254
Si Si4 0.606711 0.163541 0.693607
Si Si5 0.391368 0.742525 0.914040
Si Si6 0.745220 0.745220 0.160085
Si Si7 0.372177 0.949833 0.583328
Si Si8 0.291151 0.948634 0.308872
O O1 0.630414 0.694285 0.099582
O O2 0.708743 0.708743 0.147613
O O3 0.695002 0.695002 0.000000
O O4 0.446879 0.874919 0.500000
O O5 0.500000 0.903177 0.391402
O O6 0.434496 0.852215 0.355810
O O7 0.418515 0.930083 0.393085
O O8 0.320733 0.144023 0.863578
O O9 0.354980 0.220389 0.898636
O O10 0.270133 0.209775 0.879135
O O11 0.308538 0.175948 0.000000
O O12 0.626749 0.126749 0.750000
O O13 0.584077 0.204390 0.737209
O O14 0.432594 0.749313 0.857888
O O15 0.409439 0.745669 0.000000
O O16 0.750000 0.750000 0.250000
O O17 0.357014 0.931599 0.500000
O O18 0.334806 0.938929 0.643039
O O19 0.381687 0.000000 0.578190
O O20 0.285842 0.000000 0.288278
#
# Coordination Sequence:
#
# PCOD8319300 Si02
#       8
#    16  32  32  32  32  16  32  32
#     4   8  16  28  42  60  88 116 130 155 193 241
#     4  10  20  33  46  56  69  94 126 161 206 261
#     4  10  19  31  46  63  86 111 134 163 201 252
#     4  12  20  31  44  60  76 100 132 170 211 251
#     4   9  16  28  44  62  84 109 136 160 200 255
#     4  10  18  26  44  70  92 108 128 158 196 245
#     4   9  17  29  43  58  74  93 119 156 209 266
#     4  11  21  30  42  60  83 105 132 176 216 249
#
# _framework density 13.655167
#
# number of rings (size 3 to 8) (size 9 to 14) (size 15 to 20)
#    0.000    2.000    2.857    3.214    2.000    3.429 
#    0.000    1.429    0.000    0.000    0.000    0.000 
#    0.000    0.000    0.000    0.000    0.000    0.357 
#
# Total GULP energy -1387795.100154 kJ/mol
# GULP energy per Si atom -12391.027680 kJ/mol
# Density = 1.362409 g / cm^3
# Si number density = 13.655167 Si / 1000 Ang^3
#
#
#
# Elastic Constant Matrix: (Units=GPa)
#
#
# Indices 1 2 3 4 5 6 
#
# 1 40.6003 26.0974 22.4804 0.0000 0.0000 0.0000
# 2 26.0974 40.6003 22.4804 0.0000 0.0000 0.0000
# 3 22.4804 22.4804 62.0174 0.0000 0.0000 0.0000
# 4 0.0000 0.0000 0.0000 -16.4565 0.0000 0.0000
# 5 0.0000 0.0000 0.0000 0.0000 -16.4565 0.0000
# 6 0.0000 0.0000 0.0000 0.0000 0.0000 24.0090
#
#
#
# Elastic Compliance Matrix: (Units=1/GPa)
#
#
# Indices 1 2 3 4 5 6 
#
# 1 0.044397 -0.024555 -0.007192 0.000000 0.000000 0.000000
# 2 -0.024555 0.044397 -0.007192 0.000000 0.000000 0.000000
# 3 -0.007192 -0.007192 0.021339 0.000000 0.000000 0.000000
# 4 0.000000 0.000000 0.000000 -0.060766 0.000000 0.000000
# 5 0.000000 0.000000 0.000000 0.000000 -0.060766 0.000000
# 6 0.000000 0.000000 0.000000 0.000000 0.000000 0.041651
#
#
# Mechanical properties :
#
#
# Convention : Reuss Voigt Hill
#
# Bulk Modulus (GPa) = 31.00535 31.70378 31.35457
# Shear Modulus (GPa) = 42.05912 3.02985 22.54448
#
# Velocity S-wave (km/s) = 5.55587 1.49119 4.06764
# Velocity P-wave (km/s) = 7.99451 5.12179 6.71360
#
# Compressibility (1/GPa) = 0.03225250
#
# Stress axis : x y z
#
# Youngs Moduli (GPa) = 22.52427 22.52427 46.86342
#
# Poissons Ratio (x) = 0.55309 0.33705
# Poissons Ratio (y) = 0.55309 0.33705
# Poissons Ratio (z) = 0.16200 0.16200
#
# Static dielectric constant tensor:
#      x y z
#    x 2.652610 0.000000 0.000000 
#    y 0.000000 2.652610 0.000000 
#    z 0.000000 0.000000 2.505300 
# 
# 
# High freq. dielectric constant tensor:
#      x y z
#    x 1.491340 0.000000 0.000000 
#    y 0.000000 1.491340 0.000000 
#    z 0.000000 0.000000 1.531990 
# 
# From -- ./inp_files/9117.got.cif
#   From: 2010.03.12/outbox.cif.g09.slc.cpg/sg139_5_cif.got.tgz:9117.got - 2010.04.08 09:46:31.
