data_PCOD8319818
_publ_section_title
;
Structure prediction by ZEFSAII (Michael W. Deem and Ramdas Pophale) SiO2 
 PCOD8319818
Probable space group: I 4/M M M
;
_chemical_formula_sum "Si O2"
_cell_formula_units_Z 144
_cell_length_a 20.171403
_cell_length_b 20.171403
_cell_length_c 19.170424
_cell_angle_alpha 90.000000
_cell_angle_beta 90.000000
_cell_angle_gamma 90.000000
_cell_volume 7800.167535
_symmetry_space_group_name_H-M "I 4/M M M"
_symmetry_group_IT_number 139
_symmetry_cell_setting 'tetragonal'
loop_
_space_group_symop_operation_xyz
x,y,z
-y,x,z
-x,-y,z
y,-x,z
x,-y,-z
-x,y,-z
y,x,-z
-y,-x,-z
-x,-y,-z
y,-x,-z
x,y,-z
-y,x,-z
-x,y,z
x,-y,z
-y,-x,z
y,x,z
1/2+x,1/2+y,1/2+z
1/2-y,1/2+x,1/2+z
1/2-x,1/2-y,1/2+z
1/2+y,1/2-x,1/2+z
1/2+x,1/2-y,1/2-z
1/2-x,1/2+y,1/2-z
1/2+y,1/2+x,1/2-z
1/2-y,1/2-x,1/2-z
1/2-x,1/2-y,1/2-z
1/2+y,1/2-x,1/2-z
1/2+x,1/2+y,1/2-z
1/2-y,1/2+x,1/2-z
1/2-x,1/2+y,1/2+z
1/2+x,1/2-y,1/2+z
1/2-y,1/2-x,1/2+z
1/2+y,1/2+x,1/2+z
loop_
_atom_site_type_symbol
_atom_site_label
_atom_site_fract_x
_atom_site_fract_y
_atom_site_fract_z
Si Si1 0.745284 0.578406 0.322585
Si Si2 0.075759 0.500000 0.573715
Si Si3 0.798535 0.798535 0.417477
Si Si4 0.892479 0.612594 0.323729
Si Si5 0.312580 0.687421 0.416541
Si Si6 0.239509 0.073350 0.666097
O O1 0.754190 0.500000 0.341592
O O2 0.813520 0.618981 0.318381
O O3 0.704322 0.615779 0.382939
O O4 0.712927 0.586107 0.245344
O O5 0.115085 0.500000 0.500000
O O6 0.092646 0.566437 0.612456
O O7 0.000000 0.500000 0.556935
O O8 0.804142 0.804142 0.500000
O O9 0.743173 0.743173 0.397627
O O10 0.870640 0.782682 0.387263
O O11 0.918067 0.581934 0.250000
O O12 0.928761 0.681330 0.335779
O O13 0.319790 0.680211 0.500000
O O14 0.214749 0.000000 0.641961
#
# Coordination Sequence:
#
# PCOD8319818 Si02
#       6
#    32  16  16  32  16  32
#     4  10  20  37  59  86 113 148 195 241 288 335
#     4  11  24  34  44  72 110 152 193 233 285 334
#     4  11  23  37  57  86 117 156 195 235 294 348
#     4  10  20  34  55  79 107 149 193 232 277 336
#     4  11  23  37  57  86 119 158 195 235 294 348
#     4  10  21  37  59  85 113 148 194 242 288 336
#
# _framework density 18.461141000000001
#
# number of rings (size 3 to 8) (size 9 to 14) (size 15 to 20)
#    0.000    1.667    3.333    1.333    3.111    3.556 
#    0.000    0.000    0.000    0.667    0.000    4.667 
#    0.000    0.000    0.000    0.000    0.000    0.000 
#
# Total GULP energy -892072.259950 kJ/mol
# GULP energy per Si atom -12389.892499 kJ/mol
# Density = 1.841912 g / cm^3
# Si number density = 18.461141 Si / 1000 Ang^3
#
#
#
# Elastic Constant Matrix: (Units=GPa)
#
#
# Indices 1 2 3 4 5 6 
#
# 1 73.8651 30.8891 46.5899 0.0000 0.0000 0.0000
# 2 30.8891 73.8652 46.5897 0.0000 0.0000 0.0000
# 3 46.5899 46.5897 143.4102 0.0000 0.0000 0.0000
# 4 0.0000 0.0000 0.0000 31.1698 0.0000 0.0000
# 5 0.0000 0.0000 0.0000 0.0000 31.1700 0.0000
# 6 0.0000 0.0000 0.0000 0.0000 0.0000 23.9051
#
#
#
# Elastic Compliance Matrix: (Units=1/GPa)
#
#
# Indices 1 2 3 4 5 6 
#
# 1 0.018347 -0.004921 -0.004362 0.000000 0.000000 0.000000
# 2 -0.004921 0.018347 -0.004362 0.000000 0.000000 0.000000
# 3 -0.004362 -0.004362 0.009807 0.000000 0.000000 0.000000
# 4 0.000000 0.000000 0.000000 0.032082 0.000000 0.000000
# 5 0.000000 0.000000 0.000000 0.000000 0.032082 0.000000
# 6 0.000000 0.000000 0.000000 0.000000 0.000000 0.041832
#
#
# Mechanical properties :
#
#
# Convention : Reuss Voigt Hill
#
# Bulk Modulus (GPa) = 52.05071 59.91978 55.98525
# Shear Modulus (GPa) = 26.85401 28.38709 27.62055
#
# Velocity S-wave (km/s) = 3.81809 3.92556 3.87220
# Velocity P-wave (km/s) = 6.90601 7.28522 7.09815
#
# Compressibility (1/GPa) = 0.01921203
#
# Stress axis : x y z
#
# Youngs Moduli (GPa) = 54.50372 54.50391 101.96818
#
# Poissons Ratio (x) = 0.26824 0.44476
# Poissons Ratio (y) = 0.26824 0.44475
# Poissons Ratio (z) = 0.23773 0.23773
#
# Static dielectric constant tensor:
#      x y z
#    x 3.323850 0.000000 0.000000 
#    y 0.000000 3.323860 0.000000 
#    z 0.000000 0.000000 2.758040 
# 
# 
# High freq. dielectric constant tensor:
#      x y z
#    x 1.698870 0.000000 0.000000 
#    y 0.000000 1.698870 0.000000 
#    z 0.000000 0.000000 1.725060 
# 
# From -- ./inp_files/8294.got.cif
#   From: 2010.03.12/outbox.cif.g09.slc.cpg/sg139_5_cif.got.tgz:8294.got - 2010.04.08 09:46:31.
