data_PCOD8319211
_publ_section_title
;
Structure prediction by ZEFSAII (Michael W. Deem and Ramdas Pophale) SiO2 
 PCOD8319211
Probable space group: P 42/N C M
;
_chemical_formula_sum "Si O2"
_cell_formula_units_Z 64
_cell_length_a 11.194180
_cell_length_b 11.194180
_cell_length_c 22.339957
_cell_angle_alpha 90.000000
_cell_angle_beta 90.000000
_cell_angle_gamma 90.000000
_cell_volume 2799.412547
_symmetry_space_group_name_H-M "P 42/N C M"
_symmetry_group_IT_number 138
_space_group.IT_coordinate_system_code '2'
_symmetry_cell_setting 'tetragonal'
loop_
_space_group_symop_operation_xyz
x,y,z
1/2-y,x,1/2+z
1/2-x,1/2-y,z
y,1/2-x,1/2+z
1/2+x,-y,1/2-z
-x,1/2+y,1/2-z
1/2+y,1/2+x,-z
-y,-x,-z
-x,-y,-z
1/2+y,-x,1/2-z
1/2+x,1/2+y,-z
-y,1/2+x,1/2-z
1/2-x,y,1/2+z
x,1/2-y,1/2+z
1/2-y,1/2-x,z
y,x,z
loop_
_atom_site_type_symbol
_atom_site_label
_atom_site_fract_x
_atom_site_fract_y
_atom_site_fract_z
Si Si1 0.350404 0.350404 0.546628
Si Si2 0.816344 0.492445 0.381673
Si Si3 0.238716 0.926024 0.843666
Si Si4 0.650136 0.650136 0.590312
Si Si5 0.156707 0.530641 0.217116
O O1 0.250000 0.250000 0.555104
O O2 0.472649 0.298123 0.576567
O O3 0.379635 0.379635 0.478283
O O4 0.931870 0.568131 0.400018
O O5 0.852671 0.351841 0.387289
O O6 0.776319 0.524812 0.313210
O O7 0.337446 0.842944 0.812153
O O8 0.161415 0.977685 0.788519
O O9 0.301963 0.030524 0.879756
O O10 0.750000 0.750000 0.595993
O O11 0.039490 0.460511 0.195941
#
# Coordination Sequence:
#
# PCOD8319211 Si02
#       5
#     8  16  16   8  16
#     4   9  22  45  71 101 137 181 241 290 343 419
#     4  11  23  42  68 100 132 180 233 287 348 420
#     4  12  25  42  63 103 142 180 233 290 363 421
#     4  11  24  45  71 101 140 189 236 292 344 420
#     4  12  24  41  64  97 141 182 224 288 360 427
#
# _framework density 22.861941000000002
#
# number of rings (size 3 to 8) (size 9 to 14) (size 15 to 20)
#    0.000    0.750    5.000    3.000    1.750    1.000 
#    0.000    6.250    0.000    3.000    0.000    0.000 
#    0.000    0.000    0.000    0.000    0.000    0.000 
#
# Total GULP energy -793194.633792 kJ/mol
# GULP energy per Si atom -12393.666153 kJ/mol
# Density = 2.280991 g / cm^3
# Si number density = 22.861941 Si / 1000 Ang^3
#
#
#
# Elastic Constant Matrix: (Units=GPa)
#
#
# Indices 1 2 3 4 5 6 
#
# 1 119.9237 54.9514 53.0489 0.0000 0.0000 0.0000
# 2 54.9514 119.9237 53.0489 0.0000 0.0000 0.0000
# 3 53.0489 53.0489 126.3706 0.0000 0.0000 0.0000
# 4 0.0000 0.0000 0.0000 24.4620 0.0000 0.0000
# 5 0.0000 0.0000 0.0000 0.0000 24.4620 0.0000
# 6 0.0000 0.0000 0.0000 0.0000 0.0000 49.2436
#
#
#
# Elastic Compliance Matrix: (Units=1/GPa)
#
#
# Indices 1 2 3 4 5 6 
#
# 1 0.011532 -0.003859 -0.003221 0.000000 0.000000 0.000000
# 2 -0.003859 0.011532 -0.003221 0.000000 0.000000 0.000000
# 3 -0.003221 -0.003221 0.010617 0.000000 0.000000 0.000000
# 4 0.000000 0.000000 0.000000 0.040880 0.000000 0.000000
# 5 0.000000 0.000000 0.000000 0.000000 0.040880 0.000000
# 6 0.000000 0.000000 0.000000 0.000000 0.000000 0.020307
#
#
# Mechanical properties :
#
#
# Convention : Reuss Voigt Hill
#
# Bulk Modulus (GPa) = 76.45833 76.47963 76.46898
# Shear Modulus (GPa) = 31.11208 33.31144 32.21176
#
# Velocity S-wave (km/s) = 3.69300 3.82130 3.75770
# Velocity P-wave (km/s) = 7.19030 7.27978 7.23518
#
# Compressibility (1/GPa) = 0.01307902
#
# Stress axis : x y z
#
# Youngs Moduli (GPa) = 86.71666 86.71666 94.18546
#
# Poissons Ratio (x) = 0.33467 0.30335
# Poissons Ratio (y) = 0.33467 0.30335
# Poissons Ratio (z) = 0.27930 0.27930
#
# Static dielectric constant tensor:
#      x y z
#    x 4.194160 0.000000 0.000000 
#    y 0.000000 4.194160 0.000000 
#    z 0.000000 0.000000 4.009630 
# 
# 
# High freq. dielectric constant tensor:
#      x y z
#    x 1.909660 0.000000 0.000000 
#    y 0.000000 1.909660 0.000000 
#    z 0.000000 0.000000 1.878300 
# 
# From -- ./inp_files/6791.got.cif
#   From: 2010.03.12/outbox.cif.g09.slc.cpg/sg138_4_cif.got.tgz:6791.got - 2010.04.08 09:41:05.
