data_PCOD8319727
_publ_section_title
;
Structure prediction by ZEFSAII (Michael W. Deem and Ramdas Pophale) SiO2 
 PCOD8319727
Probable space group: I 4/M M M
;
_chemical_formula_sum "Si O2"
_cell_formula_units_Z 192
_cell_length_a 26.602989
_cell_length_b 26.602989
_cell_length_c 15.308774
_cell_angle_alpha 90.000000
_cell_angle_beta 90.000000
_cell_angle_gamma 90.000000
_cell_volume 10834.310590
_symmetry_space_group_name_H-M "I 4/M M M"
_symmetry_group_IT_number 139
_symmetry_cell_setting 'tetragonal'
loop_
_space_group_symop_operation_xyz
x,y,z
-y,x,z
-x,-y,z
y,-x,z
x,-y,-z
-x,y,-z
y,x,-z
-y,-x,-z
-x,-y,-z
y,-x,-z
x,y,-z
-y,x,-z
-x,y,z
x,-y,z
-y,-x,z
y,x,z
1/2+x,1/2+y,1/2+z
1/2-y,1/2+x,1/2+z
1/2-x,1/2-y,1/2+z
1/2+y,1/2-x,1/2+z
1/2+x,1/2-y,1/2-z
1/2-x,1/2+y,1/2-z
1/2+y,1/2+x,1/2-z
1/2-y,1/2-x,1/2-z
1/2-x,1/2-y,1/2-z
1/2+y,1/2-x,1/2-z
1/2+x,1/2+y,1/2-z
1/2-y,1/2+x,1/2-z
1/2-x,1/2+y,1/2+z
1/2+x,1/2-y,1/2+z
1/2-y,1/2-x,1/2+z
1/2+y,1/2+x,1/2+z
loop_
_atom_site_type_symbol
_atom_site_label
_atom_site_fract_x
_atom_site_fract_y
_atom_site_fract_z
Si Si1 0.000000 0.079248 0.603860
Si Si2 0.087402 0.260879 0.402133
Si Si3 0.055733 0.635779 0.346315
Si Si4 0.362729 0.943564 0.854162
Si Si5 0.748900 0.166975 0.000000
Si Si6 0.280998 0.057515 0.000000
Si Si7 0.776566 0.696929 0.152427
Si Si8 0.500000 0.691654 0.895263
O O1 0.000000 0.135235 0.642859
O O2 0.950316 0.049685 0.636280
O O3 0.000000 0.081719 0.500000
O O4 0.101231 0.244677 0.500000
O O5 0.059722 0.314377 0.403903
O O6 0.138268 0.264785 0.348341
O O7 0.049987 0.219516 0.359825
O O8 0.067334 0.651353 0.246223
O O9 0.093662 0.594319 0.383794
O O10 0.000000 0.613005 0.355097
O O11 0.383602 0.000000 0.866180
O O12 0.313959 0.935700 0.913227
O O13 0.715273 0.180695 0.915158
O O14 0.802442 0.197559 0.000000
O O15 0.757754 0.105677 0.000000
O O16 0.256937 0.000000 0.000000
O O17 0.725491 0.725491 0.128109
O O18 0.793143 0.706857 0.250000
O O19 0.500000 0.693957 0.000000
#
# Coordination Sequence:
#
# PCOD8319727 Si02
#       8
#    16  32  32  32  16  16  32  16
#     4   8  14  27  48  72  96 125 159 193 235 286
#     4  11  21  33  48  69 102 133 170 205 249 306
#     4  10  20  33  49  69  95 130 169 211 259 298
#     4   9  20  34  50  71  93 125 171 213 257 306
#     4  10  20  36  56  82 106 135 175 214 258 309
#     4  10  20  36  53  76 104 131 166 205 257 308
#     4  10  22  37  55  78 103 135 174 216 263 311
#     4   9  19  32  45  72 103 133 166 208 250 297
#
# _framework density 17.721478999999999
#
# number of rings (size 3 to 8) (size 9 to 14) (size 15 to 20)
#    0.000    2.250    1.667    1.250    5.833    1.000 
#    0.000    3.333    0.000    1.500    0.000    0.000 
#    0.000    0.167    0.000    0.000    0.000    0.000 
#
# Total GULP energy -1189918.432786 kJ/mol
# GULP energy per Si atom -12394.983675 kJ/mol
# Density = 1.768114 g / cm^3
# Si number density = 17.721479 Si / 1000 Ang^3
#
#
#
# Elastic Constant Matrix: (Units=GPa)
#
#
# Indices 1 2 3 4 5 6 
#
# 1 121.3579 56.5351 8.5735 0.0000 0.0000 0.0000
# 2 56.5351 121.3577 8.5739 0.0000 0.0000 0.0000
# 3 8.5735 8.5739 46.3983 0.0000 0.0000 0.0000
# 4 0.0000 0.0000 0.0000 11.7412 0.0000 0.0000
# 5 0.0000 0.0000 0.0000 0.0000 11.7441 0.0000
# 6 0.0000 0.0000 0.0000 0.0000 0.0000 26.1729
#
#
#
# Elastic Compliance Matrix: (Units=1/GPa)
#
#
# Indices 1 2 3 4 5 6 
#
# 1 0.010575 -0.004852 -0.001058 0.000000 0.000000 0.000000
# 2 -0.004852 0.010575 -0.001058 0.000000 0.000000 0.000000
# 3 -0.001058 -0.001058 0.021943 0.000000 0.000000 0.000000
# 4 0.000000 0.000000 0.000000 0.085170 0.000000 0.000000
# 5 0.000000 0.000000 0.000000 0.000000 0.085149 0.000000
# 6 0.000000 0.000000 0.000000 0.000000 0.000000 0.038207
#
#
# Mechanical properties :
#
#
# Convention : Reuss Voigt Hill
#
# Bulk Modulus (GPa) = 34.29394 48.49764 41.39579
# Shear Modulus (GPa) = 18.16372 24.29373 21.22873
#
# Velocity S-wave (km/s) = 3.20497 3.70653 3.46484
# Velocity P-wave (km/s) = 5.75234 6.76342 6.27827
#
# Compressibility (1/GPa) = 0.02915967
#
# Stress axis : x y z
#
# Youngs Moduli (GPa) = 94.56284 94.56256 45.57186
#
# Poissons Ratio (x) = 0.45879 0.04819
# Poissons Ratio (y) = 0.45879 0.04820
# Poissons Ratio (z) = 0.10000 0.10001
#
# Static dielectric constant tensor:
#      x y z
#    x 3.365390 0.000000 0.000000 
#    y 0.000000 3.365390 0.000000 
#    z 0.000000 0.000000 3.168060 
# 
# 
# High freq. dielectric constant tensor:
#      x y z
#    x 1.677240 0.000000 0.000000 
#    y 0.000000 1.677230 0.000000 
#    z 0.000000 0.000000 1.666440 
# 
# From -- ./inp_files/6579.got.cif
#   From: 2010.03.12/outbox.cif.g09.slc.cpg/sg139_4_cif.got.tgz:6579.got - 2010.04.08 09:46:31.
