data_PCOD8319469
_publ_section_title
;
Structure prediction by ZEFSAII (Michael W. Deem and Ramdas Pophale) SiO2 
 PCOD8319469
Probable space group: I 4/M M M
;
_chemical_formula_sum "Si O2"
_cell_formula_units_Z 208
_cell_length_a 20.069214
_cell_length_b 20.069214
_cell_length_c 31.355131
_cell_angle_alpha 90.000000
_cell_angle_beta 90.000000
_cell_angle_gamma 90.000000
_cell_volume 12629.011171
_symmetry_space_group_name_H-M "I 4/M M M"
_symmetry_group_IT_number 139
_symmetry_cell_setting 'tetragonal'
loop_
_space_group_symop_operation_xyz
x,y,z
-y,x,z
-x,-y,z
y,-x,z
x,-y,-z
-x,y,-z
y,x,-z
-y,-x,-z
-x,-y,-z
y,-x,-z
x,y,-z
-y,x,-z
-x,y,z
x,-y,z
-y,-x,z
y,x,z
1/2+x,1/2+y,1/2+z
1/2-y,1/2+x,1/2+z
1/2-x,1/2-y,1/2+z
1/2+y,1/2-x,1/2+z
1/2+x,1/2-y,1/2-z
1/2-x,1/2+y,1/2-z
1/2+y,1/2+x,1/2-z
1/2-y,1/2-x,1/2-z
1/2-x,1/2-y,1/2-z
1/2+y,1/2-x,1/2-z
1/2+x,1/2+y,1/2-z
1/2-y,1/2+x,1/2-z
1/2-x,1/2+y,1/2+z
1/2+x,1/2-y,1/2+z
1/2-y,1/2-x,1/2+z
1/2+y,1/2+x,1/2+z
loop_
_atom_site_type_symbol
_atom_site_label
_atom_site_fract_x
_atom_site_fract_y
_atom_site_fract_z
Si Si1 0.828616 0.070857 0.950456
Si Si2 0.186559 0.075947 0.500000
Si Si3 0.078823 0.679732 0.827049
Si Si4 0.739191 0.630230 0.913643
Si Si5 0.762027 0.343232 0.402662
Si Si6 0.801831 0.576790 0.829539
Si Si7 0.141740 0.247259 0.750969
O O1 0.894333 0.105667 0.930882
O O2 0.765375 0.117578 0.943246
O O3 0.820064 0.000000 0.927304
O O4 0.837461 0.060817 0.000000
O O5 0.121300 0.121300 0.500000
O O6 0.229433 0.088608 0.457110
O O7 0.162518 0.000000 0.500000
O O8 0.100485 0.719266 0.868882
O O9 0.126914 0.614740 0.825345
O O10 0.090735 0.730249 0.787847
O O11 0.000000 0.659762 0.828620
O O12 0.672546 0.672546 0.902489
O O13 0.801677 0.677731 0.921994
O O14 0.761450 0.584673 0.873889
O O15 0.707446 0.292555 0.382026
O O16 0.819251 0.500000 0.822524
O O17 0.750701 0.602828 0.793759
O O18 0.172615 0.172615 0.757655
O O19 0.202710 0.297290 0.750000
#
# Coordination Sequence:
#
# PCOD8319469 Si02
#       7
#    32  16  32  32  32  32  32
#     4   9  17  27  40  59  84 114 147 185 228 276
#     4  10  20  33  50  72  97 123 150 184 228 282
#     4  10  19  30  45  67  95 125 155 186 224 272
#     4   9  18  31  49  71  93 118 151 194 239 277
#     4   9  17  29  46  66  89 115 150 194 237 271
#     4  10  19  31  47  68  95 126 156 188 226 272
#     4   9  17  30  48  67  89 116 149 189 231 268
#
# _framework density 16.470015
#
# number of rings (size 3 to 8) (size 9 to 14) (size 15 to 20)
#    0.000    2.615    0.000    2.308    1.077    4.231 
#    0.000    0.769    0.000    2.769    0.000    0.000 
#    0.000   29.846    0.000    0.000    0.000    0.000 
#
# Total GULP energy -1288456.341113 kJ/mol
# GULP energy per Si atom -12389.003280 kJ/mol
# Density = 1.643253 g / cm^3
# Si number density = 16.470015 Si / 1000 Ang^3
#
#
#
# Elastic Constant Matrix: (Units=GPa)
#
#
# Indices 1 2 3 4 5 6 
#
# 1 91.7855 42.0599 39.9931 0.0000 0.0000 0.0000
# 2 42.0599 91.7875 39.9948 0.0000 0.0000 0.0000
# 3 39.9931 39.9948 85.9215 0.0000 0.0000 0.0000
# 4 0.0000 0.0000 0.0000 18.3543 0.0000 0.0000
# 5 0.0000 0.0000 0.0000 0.0000 18.3544 0.0000
# 6 0.0000 0.0000 0.0000 0.0000 0.0000 13.9104
#
#
#
# Elastic Compliance Matrix: (Units=1/GPa)
#
#
# Indices 1 2 3 4 5 6 
#
# 1 0.015230 -0.004880 -0.004818 0.000000 0.000000 0.000000
# 2 -0.004880 0.015230 -0.004818 0.000000 0.000000 0.000000
# 3 -0.004818 -0.004818 0.016124 0.000000 0.000000 0.000000
# 4 0.000000 0.000000 0.000000 0.054483 0.000000 0.000000
# 5 0.000000 0.000000 0.000000 0.000000 0.054483 0.000000
# 6 0.000000 0.000000 0.000000 0.000000 0.000000 0.071889
#
#
# Mechanical properties :
#
#
# Convention : Reuss Voigt Hill
#
# Bulk Modulus (GPa) = 56.96962 57.06555 57.01759
# Shear Modulus (GPa) = 19.06064 19.95360 19.50712
#
# Velocity S-wave (km/s) = 3.40559 3.48445 3.44525
# Velocity P-wave (km/s) = 7.08019 7.13526 7.10778
#
# Compressibility (1/GPa) = 0.01755321
#
# Stress axis : x y z
#
# Youngs Moduli (GPa) = 65.65885 65.65930 62.02075
#
# Poissons Ratio (x) = 0.32040 0.29879
# Poissons Ratio (y) = 0.32040 0.29882
# Poissons Ratio (z) = 0.31632 0.31635
#
# Static dielectric constant tensor:
#      x y z
#    x 3.126770 0.000000 0.000000 
#    y 0.000000 3.126770 0.000000 
#    z 0.000000 0.000000 3.144350 
# 
# 
# High freq. dielectric constant tensor:
#      x y z
#    x 1.624300 0.000000 0.000000 
#    y 0.000000 1.624300 0.000000 
#    z 0.000000 0.000000 1.634820 
# 
# From -- ./inp_files/14563.got.cif
#   From: 2010.03.12/outbox.cif.g09.slc.cpg/sg139_8_cif.got.tgz:14563.got - 2010.04.08 09:46:31.
