data_PCOD8319832
_publ_section_title
;
Structure prediction by ZEFSAII (Michael W. Deem and Ramdas Pophale) SiO2 
 PCOD8319832
Probable space group: I 4/M M M
;
_chemical_formula_sum "Si O2"
_cell_formula_units_Z 240
_cell_length_a 20.768480
_cell_length_b 20.768480
_cell_length_c 32.007265
_cell_angle_alpha 90.000000
_cell_angle_beta 90.000000
_cell_angle_gamma 90.000000
_cell_volume 13805.685979
_symmetry_space_group_name_H-M "I 4/M M M"
_symmetry_group_IT_number 139
_symmetry_cell_setting 'tetragonal'
loop_
_space_group_symop_operation_xyz
x,y,z
-y,x,z
-x,-y,z
y,-x,z
x,-y,-z
-x,y,-z
y,x,-z
-y,-x,-z
-x,-y,-z
y,-x,-z
x,y,-z
-y,x,-z
-x,y,z
x,-y,z
-y,-x,z
y,x,z
1/2+x,1/2+y,1/2+z
1/2-y,1/2+x,1/2+z
1/2-x,1/2-y,1/2+z
1/2+y,1/2-x,1/2+z
1/2+x,1/2-y,1/2-z
1/2-x,1/2+y,1/2-z
1/2+y,1/2+x,1/2-z
1/2-y,1/2-x,1/2-z
1/2-x,1/2-y,1/2-z
1/2+y,1/2-x,1/2-z
1/2+x,1/2+y,1/2-z
1/2-y,1/2+x,1/2-z
1/2-x,1/2+y,1/2+z
1/2+x,1/2-y,1/2+z
1/2-y,1/2-x,1/2+z
1/2+y,1/2+x,1/2+z
loop_
_atom_site_type_symbol
_atom_site_label
_atom_site_fract_x
_atom_site_fract_y
_atom_site_fract_z
Si Si1 0.853187 0.253158 0.762183
Si Si2 0.260982 0.847069 0.546063
Si Si3 0.424004 0.681618 0.500000
Si Si4 0.423795 0.199101 0.659890
Si Si5 0.175936 0.927050 0.302186
Si Si6 0.858316 0.248677 0.077172
Si Si7 0.427160 0.677108 0.101392
Si Si8 0.928726 0.423862 0.296998
O O1 0.800466 0.199535 0.772066
O O2 0.819978 0.319978 0.750000
O O3 0.897487 0.257435 0.802697
O O4 0.897804 0.235356 0.723014
O O5 0.270799 0.876312 0.500000
O O6 0.206429 0.793572 0.545787
O O7 0.326705 0.814217 0.560583
O O8 0.240502 0.904735 0.576580
O O9 0.500000 0.667631 0.500000
O O10 0.386402 0.613599 0.500000
O O11 0.405348 0.721589 0.541378
O O12 0.500000 0.204005 0.659081
O O13 0.397901 0.229516 0.617366
O O14 0.401481 0.124748 0.668836
O O15 0.110129 0.889872 0.291823
O O16 0.194896 0.919892 0.350321
O O17 0.163715 0.000000 0.288831
O O18 0.804659 0.195342 0.089196
O O19 0.500000 0.659959 0.089326
O O20 0.385077 0.614924 0.089181
O O21 0.934988 0.500000 0.298255
O O22 0.905141 0.405141 0.250000
O O23 0.000000 0.393888 0.307131
#
# Coordination Sequence:
#
# PCOD8319832 Si02
#       8
#    32  32  16  32  32  32  32  32
#     4  10  21  34  49  71 100 137 175 214 259 301
#     4   9  17  32  53  73  95 129 172 214 259 305
#     4  10  20  37  60  86 113 137 164 202 252 310
#     4  11  21  32  50  76 102 131 166 207 256 309
#     4   9  18  33  51  73 103 137 174 215 256 303
#     4  10  20  35  55  78 103 133 168 209 253 302
#     4   9  18  31  50  76 106 141 178 220 265 310
#     4   8  15  30  49  67  92 127 166 206 246 290
#
# _framework density 17.384142000000001
#
# number of rings (size 3 to 8) (size 9 to 14) (size 15 to 20)
#    0.000    2.533    0.667    2.000    1.867    0.600 
#    0.000    2.667    0.000    0.000    0.000    1.867 
#    0.000   12.800    0.000    0.000    0.000    0.000 
#
# Total GULP energy -1487565.172312 kJ/mol
# GULP energy per Si atom -12396.376436 kJ/mol
# Density = 1.734458 g / cm^3
# Si number density = 17.384142 Si / 1000 Ang^3
#
#
#
# Elastic Constant Matrix: (Units=GPa)
#
#
# Indices 1 2 3 4 5 6 
#
# 1 83.4380 70.6769 66.1249 0.0000 0.0000 0.0000
# 2 70.6769 83.4383 66.1249 0.0000 0.0000 0.0000
# 3 66.1249 66.1249 112.2889 0.0000 0.0000 0.0000
# 4 0.0000 0.0000 0.0000 27.8984 0.0000 0.0000
# 5 0.0000 0.0000 0.0000 0.0000 27.8982 0.0000
# 6 0.0000 0.0000 0.0000 0.0000 0.0000 18.8947
#
#
#
# Elastic Compliance Matrix: (Units=1/GPa)
#
#
# Indices 1 2 3 4 5 6 
#
# 1 0.045740 -0.032623 -0.007725 0.000000 0.000000 0.000000
# 2 -0.032623 0.045740 -0.007724 0.000000 0.000000 0.000000
# 3 -0.007725 -0.007724 0.018003 0.000000 0.000000 0.000000
# 4 0.000000 0.000000 0.000000 0.035844 0.000000 0.000000
# 5 0.000000 0.000000 0.000000 0.000000 0.035845 0.000000
# 6 0.000000 0.000000 0.000000 0.000000 0.000000 0.052925
#
#
# Mechanical properties :
#
#
# Convention : Reuss Voigt Hill
#
# Bulk Modulus (GPa) = 74.96422 76.11320 75.53871
# Shear Modulus (GPa) = 14.93937 20.02084 17.48010
#
# Velocity S-wave (km/s) = 2.93468 3.39731 3.17443
# Velocity P-wave (km/s) = 7.39587 7.69852 7.54871
#
# Compressibility (1/GPa) = 0.01333970
#
# Stress axis : x y z
#
# Youngs Moduli (GPa) = 21.86271 21.86291 55.54562
#
# Poissons Ratio (x) = 0.71322 0.42907
# Poissons Ratio (y) = 0.71322 0.42905
# Poissons Ratio (z) = 0.16888 0.16888
#
# Static dielectric constant tensor:
#      x y z
#    x 3.260800 0.000000 0.000000 
#    y 0.000000 3.260790 0.000000 
#    z 0.000000 0.000000 3.273070 
# 
# 
# High freq. dielectric constant tensor:
#      x y z
#    x 1.666740 0.000000 0.000000 
#    y 0.000000 1.666740 0.000000 
#    z 0.000000 0.000000 1.668210 
# 
# From -- ./inp_files/14614.got.cif
#   From: 2010.03.12/outbox.cif.g09.slc.cpg/sg139_8_cif.got.tgz:14614.got - 2010.04.08 09:46:31.
