data_PCOD8319123
_publ_section_title
;
Structure prediction by ZEFSAII (Michael W. Deem and Ramdas Pophale) SiO2 
 PCOD8319123
Probable space group: P 42/N C M
;
_chemical_formula_sum "Si O2"
_cell_formula_units_Z 96
_cell_length_a 16.028898
_cell_length_b 16.028898
_cell_length_c 19.605858
_cell_angle_alpha 90.000000
_cell_angle_beta 90.000000
_cell_angle_gamma 90.000000
_cell_volume 5037.246263
_symmetry_space_group_name_H-M "P 42/N C M"
_symmetry_group_IT_number 138
_space_group.IT_coordinate_system_code '2'
_symmetry_cell_setting 'tetragonal'
loop_
_space_group_symop_operation_xyz
x,y,z
1/2-y,x,1/2+z
1/2-x,1/2-y,z
y,1/2-x,1/2+z
1/2+x,-y,1/2-z
-x,1/2+y,1/2-z
1/2+y,1/2+x,-z
-y,-x,-z
-x,-y,-z
1/2+y,-x,1/2-z
1/2+x,1/2+y,-z
-y,1/2+x,1/2-z
1/2-x,y,1/2+z
x,1/2-y,1/2+z
1/2-y,1/2-x,z
y,x,z
loop_
_atom_site_type_symbol
_atom_site_label
_atom_site_fract_x
_atom_site_fract_y
_atom_site_fract_z
Si Si1 0.748840 0.615218 0.803087
Si Si2 0.710868 0.410987 0.035735
Si Si3 0.696720 0.332266 0.648162
Si Si4 0.542645 0.675515 0.926802
Si Si5 0.922855 0.056004 0.146310
Si Si6 0.937862 0.206036 0.743608
O O1 0.830867 0.669134 0.790798
O O2 0.666149 0.666149 0.779073
O O3 0.742376 0.596408 0.884356
O O4 0.758121 0.531102 0.759671
O O5 0.795800 0.383654 0.076210
O O6 0.650264 0.448161 0.091944
O O7 0.669579 0.330422 0.000000
O O8 0.724066 0.486917 0.982747
O O9 0.750000 0.250000 0.636814
O O10 0.601803 0.305988 0.667259
O O11 0.729685 0.382723 0.713342
O O12 0.603778 0.603778 0.959250
O O13 0.483654 0.633035 0.869522
O O14 0.884943 0.064945 0.221504
O O15 0.968766 0.968766 0.140513
#
# Coordination Sequence:
#
# PCOD8319123 Si02
#       6
#    16  16  16  16  16  16
#     4  10  22  38  58  81 105 144 192 233 274 321
#     4   9  19  31  50  79 108 143 177 219 269 321
#     4  11  21  34  53  80 117 149 176 215 271 338
#     4   9  17  33  55  78 109 141 184 238 275 314
#     4   9  17  29  52  84 110 140 179 224 274 318
#     4  11  19  34  55  77 113 148 178 222 270 334
#
# _framework density 19.058032999999998
#
# number of rings (size 3 to 8) (size 9 to 14) (size 15 to 20)
#    0.000    2.167    1.667    2.000    4.667    2.333 
#    0.000    0.833    0.000    7.000    0.000    9.333 
#    0.000    0.000    0.000    0.000    0.000    0.000 
#
# Total GULP energy -1189722.272593 kJ/mol
# GULP energy per Si atom -12392.940340 kJ/mol
# Density = 1.901466 g / cm^3
# Si number density = 19.058033 Si / 1000 Ang^3
#
#
#
# Elastic Constant Matrix: (Units=GPa)
#
#
# Indices 1 2 3 4 5 6 
#
# 1 81.5833 25.2260 29.4671 0.0000 0.0000 0.0000
# 2 25.2260 81.5835 29.4670 0.0000 0.0000 0.0000
# 3 29.4671 29.4670 76.7574 0.0000 0.0000 0.0000
# 4 0.0000 0.0000 0.0000 21.0100 0.0000 0.0000
# 5 0.0000 0.0000 0.0000 0.0000 21.0100 0.0000
# 6 0.0000 0.0000 0.0000 0.0000 0.0000 15.6525
#
#
#
# Elastic Compliance Matrix: (Units=1/GPa)
#
#
# Indices 1 2 3 4 5 6 
#
# 1 0.014811 -0.002933 -0.004560 0.000000 0.000000 0.000000
# 2 -0.002933 0.014811 -0.004560 0.000000 0.000000 0.000000
# 3 -0.004560 -0.004560 0.016529 0.000000 0.000000 0.000000
# 4 0.000000 0.000000 0.000000 0.047596 0.000000 0.000000
# 5 0.000000 0.000000 0.000000 0.000000 0.047596 0.000000
# 6 0.000000 0.000000 0.000000 0.000000 0.000000 0.063887
#
#
# Mechanical properties :
#
#
# Convention : Reuss Voigt Hill
#
# Bulk Modulus (GPa) = 45.35995 45.36048 45.36022
# Shear Modulus (GPa) = 21.12497 21.91878 21.52188
#
# Velocity S-wave (km/s) = 3.33296 3.39500 3.36412
# Velocity P-wave (km/s) = 6.21805 6.26266 6.24040
#
# Compressibility (1/GPa) = 0.02204588
#
# Stress axis : x y z
#
# Youngs Moduli (GPa) = 67.51600 67.51632 60.49838
#
# Poissons Ratio (x) = 0.19800 0.27589
# Poissons Ratio (y) = 0.19800 0.27588
# Poissons Ratio (z) = 0.30789 0.30789
#
# Static dielectric constant tensor:
#      x y z
#    x 3.542240 0.000000 0.000000 
#    y 0.000000 3.542230 0.000000 
#    z 0.000000 0.000000 3.540570 
# 
# 
# High freq. dielectric constant tensor:
#      x y z
#    x 1.728840 0.000000 0.000000 
#    y 0.000000 1.728840 0.000000 
#    z 0.000000 0.000000 1.728660 
# 
# From -- ./inp_files/6267.got.cif
#   From: 2010.03.12/outbox.cif.g09.slc.cpg/sg138_4_cif.got.tgz:6267.got - 2010.04.08 09:41:05.
