data_PCOD8319563
_publ_section_title
;
Structure prediction by ZEFSAII (Michael W. Deem and Ramdas Pophale) SiO2 
 PCOD8319563
Probable space group: I 4/M M M
;
_chemical_formula_sum "Si O2"
_cell_formula_units_Z 192
_cell_length_a 27.929310
_cell_length_b 27.929310
_cell_length_c 14.673925
_cell_angle_alpha 90.000000
_cell_angle_beta 90.000000
_cell_angle_gamma 90.000000
_cell_volume 11446.341740
_symmetry_space_group_name_H-M "I 4/M M M"
_symmetry_group_IT_number 139
_symmetry_cell_setting 'tetragonal'
loop_
_space_group_symop_operation_xyz
x,y,z
-y,x,z
-x,-y,z
y,-x,z
x,-y,-z
-x,y,-z
y,x,-z
-y,-x,-z
-x,-y,-z
y,-x,-z
x,y,-z
-y,x,-z
-x,y,z
x,-y,z
-y,-x,z
y,x,z
1/2+x,1/2+y,1/2+z
1/2-y,1/2+x,1/2+z
1/2-x,1/2-y,1/2+z
1/2+y,1/2-x,1/2+z
1/2+x,1/2-y,1/2-z
1/2-x,1/2+y,1/2-z
1/2+y,1/2+x,1/2-z
1/2-y,1/2-x,1/2-z
1/2-x,1/2-y,1/2-z
1/2+y,1/2-x,1/2-z
1/2+x,1/2+y,1/2-z
1/2-y,1/2+x,1/2-z
1/2-x,1/2+y,1/2+z
1/2+x,1/2-y,1/2+z
1/2-y,1/2-x,1/2+z
1/2+y,1/2+x,1/2+z
loop_
_atom_site_type_symbol
_atom_site_label
_atom_site_fract_x
_atom_site_fract_y
_atom_site_fract_z
Si Si1 0.294243 0.705758 0.395809
Si Si2 0.112798 0.812108 0.400219
Si Si3 0.827841 0.946994 0.766998
Si Si4 0.714772 0.053531 0.220169
Si Si5 0.605969 0.202584 0.896469
Si Si6 0.296786 0.147781 0.893507
Si Si7 0.626043 0.373958 0.395529
O O1 0.282443 0.717558 0.500000
O O2 0.316949 0.754850 0.352513
O O3 0.334050 0.665951 0.382787
O O4 0.089513 0.819971 0.500000
O O5 0.165256 0.834745 0.393838
O O6 0.078632 0.838303 0.328603
O O7 0.122363 0.756808 0.381684
O O8 0.771584 0.947612 0.783023
O O9 0.855144 0.922198 0.849886
O O10 0.848977 0.000000 0.760706
O O11 0.693299 0.064607 0.321556
O O12 0.699567 0.095288 0.151171
O O13 0.695750 0.000000 0.192782
O O14 0.652007 0.170918 0.874476
O O15 0.587015 0.193320 0.000000
O O16 0.286409 0.139849 0.000000
O O17 0.614812 0.385189 0.500000
#
# Coordination Sequence:
#
# PCOD8319563 Si02
#       7
#    16  32  32  32  32  32  16
#     4   9  18  30  46  69  98 133 162 195 239 287
#     4   9  17  30  49  73  99 125 155 192 236 291
#     4  10  20  33  49  69  93 124 164 207 249 292
#     4  10  20  33  48  69  98 133 173 206 236 279
#     4   9  19  32  48  72 102 133 162 196 237 287
#     4  10  19  32  49  73 104 134 166 200 241 290
#     4  11  20  34  50  67  96 126 164 207 246 295
#
# _framework density 16.773917999999998
#
# number of rings (size 3 to 8) (size 9 to 14) (size 15 to 20)
#    0.000    2.333    2.500    0.500    1.167    1.333 
#    0.000    5.833    0.000    0.250    0.000    0.583 
#    0.000    6.667    0.000   14.667    0.000    0.333 
#
# Total GULP energy -1189643.931700 kJ/mol
# GULP energy per Si atom -12392.124289 kJ/mol
# Density = 1.673574 g / cm^3
# Si number density = 16.773918 Si / 1000 Ang^3
#
#
#
# Elastic Constant Matrix: (Units=GPa)
#
#
# Indices 1 2 3 4 5 6 
#
# 1 66.8320 52.3970 43.0946 0.0000 0.0000 0.0000
# 2 52.3970 66.8315 43.0942 0.0000 0.0000 0.0000
# 3 43.0946 43.0942 89.7004 0.0000 0.0000 0.0000
# 4 0.0000 0.0000 0.0000 21.5033 0.0000 0.0000
# 5 0.0000 0.0000 0.0000 0.0000 21.5034 0.0000
# 6 0.0000 0.0000 0.0000 0.0000 0.0000 7.6998
#
#
#
# Elastic Compliance Matrix: (Units=1/GPa)
#
#
# Indices 1 2 3 4 5 6 
#
# 1 0.041063 -0.028214 -0.006174 0.000000 0.000000 0.000000
# 2 -0.028214 0.041063 -0.006173 0.000000 0.000000 0.000000
# 3 -0.006174 -0.006173 0.017080 0.000000 0.000000 0.000000
# 4 0.000000 0.000000 0.000000 0.046504 0.000000 0.000000
# 5 0.000000 0.000000 0.000000 0.000000 0.046504 0.000000
# 6 0.000000 0.000000 0.000000 0.000000 0.000000 0.129874
#
#
# Mechanical properties :
#
#
# Convention : Reuss Voigt Hill
#
# Bulk Modulus (GPa) = 55.29111 55.61504 55.45307
# Shear Modulus (GPa) = 12.21778 15.79316 14.00547
#
# Velocity S-wave (km/s) = 2.70178 3.07177 2.89269
# Velocity P-wave (km/s) = 6.53964 6.76821 6.65491
#
# Compressibility (1/GPa) = 0.01808609
#
# Stress axis : x y z
#
# Youngs Moduli (GPa) = 24.35255 24.35253 58.54807
#
# Poissons Ratio (x) = 0.68707 0.36145
# Poissons Ratio (y) = 0.68707 0.36143
# Poissons Ratio (z) = 0.15034 0.15033
#
# Static dielectric constant tensor:
#      x y z
#    x 3.108750 0.000000 0.000000 
#    y 0.000000 3.108750 0.000000 
#    z 0.000000 0.000000 3.372260 
# 
# 
# High freq. dielectric constant tensor:
#      x y z
#    x 1.622160 0.000000 0.000000 
#    y 0.000000 1.622160 0.000000 
#    z 0.000000 0.000000 1.656200 
# 
# From -- ./inp_files/6514.got.cif
#   From: 2010.03.12/outbox.cif.g09.slc.cpg/sg139_4_cif.got.tgz:6514.got - 2010.04.08 09:46:31.
