data_PCOD8319364
_publ_section_title
;
Structure prediction by ZEFSAII (Michael W. Deem and Ramdas Pophale) SiO2 
 PCOD8319364
Probable space group: I 4/M M M
;
_chemical_formula_sum "Si O2"
_cell_formula_units_Z 240
_cell_length_a 23.327376
_cell_length_b 23.327376
_cell_length_c 27.652357
_cell_angle_alpha 90.000000
_cell_angle_beta 90.000000
_cell_angle_gamma 90.000000
_cell_volume 15047.485525
_symmetry_space_group_name_H-M "I 4/M M M"
_symmetry_group_IT_number 139
_symmetry_cell_setting 'tetragonal'
loop_
_space_group_symop_operation_xyz
x,y,z
-y,x,z
-x,-y,z
y,-x,z
x,-y,-z
-x,y,-z
y,x,-z
-y,-x,-z
-x,-y,-z
y,-x,-z
x,y,-z
-y,x,-z
-x,y,z
x,-y,z
-y,-x,z
y,x,z
1/2+x,1/2+y,1/2+z
1/2-y,1/2+x,1/2+z
1/2-x,1/2-y,1/2+z
1/2+y,1/2-x,1/2+z
1/2+x,1/2-y,1/2-z
1/2-x,1/2+y,1/2-z
1/2+y,1/2+x,1/2-z
1/2-y,1/2-x,1/2-z
1/2-x,1/2-y,1/2-z
1/2+y,1/2-x,1/2-z
1/2+x,1/2+y,1/2-z
1/2-y,1/2+x,1/2-z
1/2-x,1/2+y,1/2+z
1/2+x,1/2-y,1/2+z
1/2-y,1/2-x,1/2+z
1/2+y,1/2+x,1/2+z
loop_
_atom_site_type_symbol
_atom_site_label
_atom_site_fract_x
_atom_site_fract_y
_atom_site_fract_z
Si Si1 0.840471 0.434983 0.303159
Si Si2 0.114813 0.622984 0.556088
Si Si3 0.000000 0.565047 0.442469
Si Si4 0.934846 0.842789 0.555250
Si Si5 0.934142 0.277013 0.896217
Si Si6 0.434802 0.157702 0.805786
Si Si7 0.226696 0.565884 0.898400
Si Si8 0.159571 0.933974 0.056261
O O1 0.863306 0.500000 0.307862
O O2 0.785809 0.425743 0.338465
O O3 0.819963 0.422008 0.248513
O O4 0.892842 0.394443 0.319334
O O5 0.117700 0.610212 0.500000
O O6 0.057958 0.593233 0.579253
O O7 0.173715 0.601040 0.577690
O O8 0.107990 0.690007 0.567532
O O9 0.000000 0.500000 0.425756
O O10 0.000000 0.572252 0.500000
O O11 0.924583 0.822333 0.500000
O O12 0.897150 0.897150 0.569022
O O13 0.917714 0.792386 0.592253
O O14 0.000000 0.862007 0.562972
O O15 0.912703 0.214100 0.912237
O O16 0.000000 0.283699 0.912107
O O17 0.500000 0.135006 0.810127
O O18 0.424135 0.210719 0.842116
O O19 0.215884 0.500000 0.914274
O O20 0.105103 0.894897 0.070272
O O21 0.143697 0.000000 0.068130
O O22 0.175535 0.926906 0.000000
#
# Coordination Sequence:
#
# PCOD8319364 Si02
#       8
#    32  32  16  32  32  32  32  32
#     4   9  17  29  45  65  89 120 162 207 248 285
#     4  11  19  27  40  60  87 125 166 197 229 268
#     4   9  18  28  36  52  82 118 161 207 233 253
#     4   9  18  32  51  74  98 122 149 185 230 283
#     4  10  19  31  46  66  93 127 161 194 237 283
#     4   9  17  29  45  65  89 120 161 208 250 283
#     4  10  18  30  46  65  90 124 161 195 236 279
#     4   9  18  33  53  76 100 124 151 186 231 286
#
# _framework density 15.949509000000001
#
# number of rings (size 3 to 8) (size 9 to 14) (size 15 to 20)
#    0.000    2.467    2.000    1.200    0.000    2.400 
#    0.000    3.333    0.000    3.200    0.000    1.867 
#    0.000    0.000    0.000   10.400    0.000    0.267 
#
# Total GULP energy -1487654.705056 kJ/mol
# GULP energy per Si atom -12397.122542 kJ/mol
# Density = 1.591321 g / cm^3
# Si number density = 15.949509 Si / 1000 Ang^3
#
#
#
# Elastic Constant Matrix: (Units=GPa)
#
#
# Indices 1 2 3 4 5 6 
#
# 1 94.7548 64.5939 42.2856 0.0000 0.0000 0.0000
# 2 64.5939 94.7548 42.2856 0.0000 0.0000 0.0000
# 3 42.2856 42.2856 66.9448 0.0000 0.0000 0.0000
# 4 0.0000 0.0000 0.0000 19.4092 0.0000 0.0000
# 5 0.0000 0.0000 0.0000 0.0000 19.4091 0.0000
# 6 0.0000 0.0000 0.0000 0.0000 0.0000 22.3191
#
#
#
# Elastic Compliance Matrix: (Units=1/GPa)
#
#
# Indices 1 2 3 4 5 6 
#
# 1 0.021298 -0.011858 -0.005963 0.000000 0.000000 0.000000
# 2 -0.011858 0.021298 -0.005963 0.000000 0.000000 0.000000
# 3 -0.005963 -0.005963 0.022471 0.000000 0.000000 0.000000
# 4 0.000000 0.000000 0.000000 0.051522 0.000000 0.000000
# 5 0.000000 0.000000 0.000000 0.000000 0.051522 0.000000
# 6 0.000000 0.000000 0.000000 0.000000 0.000000 0.044805
#
#
# Mechanical properties :
#
#
# Convention : Reuss Voigt Hill
#
# Bulk Modulus (GPa) = 57.14469 61.64274 59.39372
# Shear Modulus (GPa) = 18.77474 19.38010 19.07742
#
# Velocity S-wave (km/s) = 3.43466 3.48960 3.46224
# Velocity P-wave (km/s) = 7.18578 7.41411 7.30084
#
# Compressibility (1/GPa) = 0.01749944
#
# Stress axis : x y z
#
# Youngs Moduli (GPa) = 46.95300 46.95300 44.50254
#
# Poissons Ratio (x) = 0.55675 0.26537
# Poissons Ratio (y) = 0.55675 0.26537
# Poissons Ratio (z) = 0.27998 0.27998
#
# Static dielectric constant tensor:
#      x y z
#    x 2.896520 0.000000 0.000000 
#    y 0.000000 2.896520 0.000000 
#    z 0.000000 0.000000 3.122530 
# 
# 
# High freq. dielectric constant tensor:
#      x y z
#    x 1.594200 0.000000 0.000000 
#    y 0.000000 1.594200 0.000000 
#    z 0.000000 0.000000 1.610130 
# 
# From -- ./inp_files/14629.got.cif
#   From: 2010.03.12/outbox.cif.g09.slc.cpg/sg139_8_cif.got.tgz:14629.got - 2010.04.08 09:46:31.
