data_PCOD8319596
_publ_section_title
;
Structure prediction by ZEFSAII (Michael W. Deem and Ramdas Pophale) SiO2 
 PCOD8319596
Probable space group: I 4/M M M
;
_chemical_formula_sum "Si O2"
_cell_formula_units_Z 128
_cell_length_a 21.476314
_cell_length_b 21.476314
_cell_length_c 15.333550
_cell_angle_alpha 90.000000
_cell_angle_beta 90.000000
_cell_angle_gamma 90.000000
_cell_volume 7072.324900
_symmetry_space_group_name_H-M "I 4/M M M"
_symmetry_group_IT_number 139
_symmetry_cell_setting 'tetragonal'
loop_
_space_group_symop_operation_xyz
x,y,z
-y,x,z
-x,-y,z
y,-x,z
x,-y,-z
-x,y,-z
y,x,-z
-y,-x,-z
-x,-y,-z
y,-x,-z
x,y,-z
-y,x,-z
-x,y,z
x,-y,z
-y,-x,z
y,x,z
1/2+x,1/2+y,1/2+z
1/2-y,1/2+x,1/2+z
1/2-x,1/2-y,1/2+z
1/2+y,1/2-x,1/2+z
1/2+x,1/2-y,1/2-z
1/2-x,1/2+y,1/2-z
1/2+y,1/2+x,1/2-z
1/2-y,1/2-x,1/2-z
1/2-x,1/2-y,1/2-z
1/2+y,1/2-x,1/2-z
1/2+x,1/2+y,1/2-z
1/2-y,1/2+x,1/2-z
1/2-x,1/2+y,1/2+z
1/2+x,1/2-y,1/2+z
1/2-y,1/2-x,1/2+z
1/2+y,1/2+x,1/2+z
loop_
_atom_site_type_symbol
_atom_site_label
_atom_site_fract_x
_atom_site_fract_y
_atom_site_fract_z
Si Si1 0.150753 0.650753 0.750000
Si Si2 0.327211 0.428684 0.651511
Si Si3 0.569985 0.674812 0.000000
Si Si4 0.618244 0.282362 0.826954
Si Si5 0.809335 0.427153 0.597032
O O1 0.215773 0.641356 0.796934
O O2 0.145234 0.601233 0.671085
O O3 0.344225 0.500000 0.626574
O O4 0.383262 0.383262 0.620515
O O5 0.316918 0.424217 0.755226
O O6 0.262976 0.406309 0.606114
O O7 0.579531 0.719396 0.916369
O O8 0.500000 0.648614 0.000000
O O9 0.615062 0.615062 0.000000
O O10 0.681221 0.318780 0.845064
O O11 0.832161 0.407737 0.500000
O O12 0.813294 0.500000 0.611377
#
# Coordination Sequence:
#
# PCOD8319596 Si02
#       5
#    16  32  16  32  32
#     4  10  19  32  58  77 102 132 176 212 270 323
#     4   9  17  30  47  69 101 140 180 219 257 297
#     4  10  20  33  50  74 109 149 187 225 264 310
#     4   9  18  31  46  71 103 134 172 225 272 312
#     4   9  19  35  54  77 106 136 168 208 257 316
#
# _framework density 18.098716
#
# number of rings (size 3 to 8) (size 9 to 14) (size 15 to 20)
#    0.000    2.750    0.000    1.125    1.750    2.875 
#    0.000    0.000    0.000    4.875    0.000    5.250 
#    0.000    0.000    0.000    0.000    0.000    0.000 
#
# Total GULP energy -793140.377826 kJ/mol
# GULP energy per Si atom -12392.818404 kJ/mol
# Density = 1.805752 g / cm^3
# Si number density = 18.098716 Si / 1000 Ang^3
#
#
#
# Elastic Constant Matrix: (Units=GPa)
#
#
# Indices 1 2 3 4 5 6 
#
# 1 66.9709 40.3658 40.2147 0.0000 0.0000 0.0000
# 2 40.3658 66.9709 40.2147 0.0000 0.0000 0.0000
# 3 40.2147 40.2147 126.1918 0.0000 0.0000 0.0000
# 4 0.0000 0.0000 0.0000 22.0057 0.0000 0.0000
# 5 0.0000 0.0000 0.0000 0.0000 22.0057 0.0000
# 6 0.0000 0.0000 0.0000 0.0000 0.0000 25.3799
#
#
#
# Elastic Compliance Matrix: (Units=1/GPa)
#
#
# Indices 1 2 3 4 5 6 
#
# 1 0.024913 -0.012674 -0.003900 0.000000 0.000000 0.000000
# 2 -0.012674 0.024913 -0.003900 0.000000 0.000000 0.000000
# 3 -0.003900 -0.003900 0.010410 0.000000 0.000000 0.000000
# 4 0.000000 0.000000 0.000000 0.045443 0.000000 0.000000
# 5 0.000000 0.000000 0.000000 0.000000 0.045443 0.000000
# 6 0.000000 0.000000 0.000000 0.000000 0.000000 0.039401
#
#
# Mechanical properties :
#
#
# Convention : Reuss Voigt Hill
#
# Bulk Modulus (GPa) = 51.84797 55.74710 53.79754
# Shear Modulus (GPa) = 21.01715 23.16749 22.09232
#
# Velocity S-wave (km/s) = 3.41141 3.58168 3.49758
# Velocity P-wave (km/s) = 6.65030 6.92626 6.78968
#
# Compressibility (1/GPa) = 0.01928716
#
# Stress axis : x y z
#
# Youngs Moduli (GPa) = 40.13986 40.13986 96.05815
#
# Poissons Ratio (x) = 0.50873 0.37466
# Poissons Ratio (y) = 0.50873 0.37466
# Poissons Ratio (z) = 0.15656 0.15656
#
# Static dielectric constant tensor:
#      x y z
#    x 3.186860 0.000000 0.000000 
#    y 0.000000 3.186860 0.000000 
#    z 0.000000 0.000000 3.678210 
# 
# 
# High freq. dielectric constant tensor:
#      x y z
#    x 1.679760 0.000000 0.000000 
#    y 0.000000 1.679760 0.000000 
#    z 0.000000 0.000000 1.718140 
# 
# From -- ./inp_files/5442.got.cif
#   From: 2010.03.12/outbox.cif.g09.slc.cpg/sg139_3_cif.got.tgz:5442.got - 2010.04.08 09:46:31.
