data_PCOD8319441
_publ_section_title
;
Structure prediction by ZEFSAII (Michael W. Deem and Ramdas Pophale) SiO2 
 PCOD8319441
Probable space group: I 4/M M M
;
_chemical_formula_sum "Si O2"
_cell_formula_units_Z 160
_cell_length_a 23.127477
_cell_length_b 23.127477
_cell_length_c 19.799451
_cell_angle_alpha 90.000000
_cell_angle_beta 90.000000
_cell_angle_gamma 90.000000
_cell_volume 10590.334160
_symmetry_space_group_name_H-M "I 4/M M M"
_symmetry_group_IT_number 139
_symmetry_cell_setting 'tetragonal'
loop_
_space_group_symop_operation_xyz
x,y,z
-y,x,z
-x,-y,z
y,-x,z
x,-y,-z
-x,y,-z
y,x,-z
-y,-x,-z
-x,-y,-z
y,-x,-z
x,y,-z
-y,x,-z
-x,y,z
x,-y,z
-y,-x,z
y,x,z
1/2+x,1/2+y,1/2+z
1/2-y,1/2+x,1/2+z
1/2-x,1/2-y,1/2+z
1/2+y,1/2-x,1/2+z
1/2+x,1/2-y,1/2-z
1/2-x,1/2+y,1/2-z
1/2+y,1/2+x,1/2-z
1/2-y,1/2-x,1/2-z
1/2-x,1/2-y,1/2-z
1/2+y,1/2-x,1/2-z
1/2+x,1/2+y,1/2-z
1/2-y,1/2+x,1/2-z
1/2-x,1/2+y,1/2+z
1/2+x,1/2-y,1/2+z
1/2-y,1/2-x,1/2+z
1/2+y,1/2+x,1/2+z
loop_
_atom_site_type_symbol
_atom_site_label
_atom_site_fract_x
_atom_site_fract_y
_atom_site_fract_z
Si Si1 0.255574 0.652148 0.183868
Si Si2 0.339648 0.754876 0.335778
Si Si3 0.564926 0.766768 0.925466
Si Si4 0.562575 0.902277 0.921965
Si Si5 0.934679 0.313035 0.921190
O O1 0.316245 0.683755 0.184589
O O2 0.242355 0.633288 0.260636
O O3 0.205857 0.693573 0.154979
O O4 0.264767 0.598649 0.134208
O O5 0.306255 0.693745 0.349728
O O6 0.392280 0.766229 0.386922
O O7 0.500000 0.743114 0.923146
O O8 0.566760 0.834401 0.911214
O O9 0.591532 0.753695 0.000000
O O10 0.500000 0.923580 0.890467
O O11 0.621306 0.929432 0.890209
O O12 0.560977 0.919461 0.000000
O O13 0.000000 0.291422 0.909469
O O14 0.918245 0.314616 0.000000
#
# Coordination Sequence:
#
# PCOD8319441 Si02
#       5
#    32  32  32  32  32
#     4   9  17  29  45  63  83 109 144 180 214 260
#     4   9  18  31  44  60  84 112 142 179 224 265
#     4   9  16  26  42  64  88 113 142 174 210 253
#     4   8  14  25  39  56  82 114 145 177 212 247
#     4  10  19  29  43  64  86 110 148 189 219 256
#
# _framework density 15.108116000000001
#
# number of rings (size 3 to 8) (size 9 to 14) (size 15 to 20)
#    0.000    3.000    2.000    2.400    0.000    2.000 
#    0.000    4.000    0.000    0.000    0.000    0.000 
#    0.000    0.800    0.000    8.800    0.000    6.400 
#
# Total GULP energy -991059.602717 kJ/mol
# GULP energy per Si atom -12388.245034 kJ/mol
# Density = 1.507373 g / cm^3
# Si number density = 15.108116 Si / 1000 Ang^3
#
#
#
# Elastic Constant Matrix: (Units=GPa)
#
#
# Indices 1 2 3 4 5 6 
#
# 1 59.4825 32.4035 38.3220 0.0000 0.0000 0.0000
# 2 32.4035 59.4825 38.3220 0.0000 0.0000 0.0000
# 3 38.3220 38.3220 69.0007 0.0000 0.0000 0.0000
# 4 0.0000 0.0000 0.0000 23.0739 0.0000 0.0000
# 5 0.0000 0.0000 0.0000 0.0000 23.0739 0.0000
# 6 0.0000 0.0000 0.0000 0.0000 0.0000 16.4028
#
#
#
# Elastic Compliance Matrix: (Units=1/GPa)
#
#
# Indices 1 2 3 4 5 6 
#
# 1 0.028603 -0.008326 -0.011261 0.000000 0.000000 0.000000
# 2 -0.008326 0.028603 -0.011261 0.000000 0.000000 0.000000
# 3 -0.011261 -0.011261 0.027001 0.000000 0.000000 0.000000
# 4 0.000000 0.000000 0.000000 0.043339 0.000000 0.000000
# 5 0.000000 0.000000 0.000000 0.000000 0.043339 0.000000
# 6 0.000000 0.000000 0.000000 0.000000 0.000000 0.060965
#
#
# Mechanical properties :
#
#
# Convention : Reuss Voigt Hill
#
# Bulk Modulus (GPa) = 44.42655 45.11787 44.77221
# Shear Modulus (GPa) = 16.60857 17.77135 17.18996
#
# Velocity S-wave (km/s) = 3.31919 3.43341 3.37678
# Velocity P-wave (km/s) = 6.64522 6.75618 6.70093
#
# Compressibility (1/GPa) = 0.02250906
#
# Stress axis : x y z
#
# Youngs Moduli (GPa) = 34.96192 34.96192 37.03554
#
# Poissons Ratio (x) = 0.29111 0.41706
# Poissons Ratio (y) = 0.29111 0.41706
# Poissons Ratio (z) = 0.39371 0.39371
#
# Static dielectric constant tensor:
#      x y z
#    x 2.704950 0.000000 0.000000 
#    y 0.000000 2.704950 0.000000 
#    z 0.000000 0.000000 2.804560 
# 
# 
# High freq. dielectric constant tensor:
#      x y z
#    x 1.555900 0.000000 0.000000 
#    y 0.000000 1.555900 0.000000 
#    z 0.000000 0.000000 1.562190 
# 
# From -- ./inp_files/5900.got.cif
#   From: 2010.03.12/outbox.cif.g09.slc.cpg/sg139_3_cif.got.tgz:5900.got - 2010.04.08 09:46:31.
