data_PCOD8319501
_publ_section_title
;
Structure prediction by ZEFSAII (Michael W. Deem and Ramdas Pophale) SiO2 
 PCOD8319501
Probable space group: I 4/M M M
;
_chemical_formula_sum "Si O2"
_cell_formula_units_Z 160
_cell_length_a 22.936862
_cell_length_b 22.936862
_cell_length_c 18.073439
_cell_angle_alpha 90.000000
_cell_angle_beta 90.000000
_cell_angle_gamma 90.000000
_cell_volume 9508.429723
_symmetry_space_group_name_H-M "I 4/M M M"
_symmetry_group_IT_number 139
_symmetry_cell_setting 'tetragonal'
loop_
_space_group_symop_operation_xyz
x,y,z
-y,x,z
-x,-y,z
y,-x,z
x,-y,-z
-x,y,-z
y,x,-z
-y,-x,-z
-x,-y,-z
y,-x,-z
x,y,-z
-y,x,-z
-x,y,z
x,-y,z
-y,-x,z
y,x,z
1/2+x,1/2+y,1/2+z
1/2-y,1/2+x,1/2+z
1/2-x,1/2-y,1/2+z
1/2+y,1/2-x,1/2+z
1/2+x,1/2-y,1/2-z
1/2-x,1/2+y,1/2-z
1/2+y,1/2+x,1/2-z
1/2-y,1/2-x,1/2-z
1/2-x,1/2-y,1/2-z
1/2+y,1/2-x,1/2-z
1/2+x,1/2+y,1/2-z
1/2-y,1/2+x,1/2-z
1/2-x,1/2+y,1/2+z
1/2+x,1/2-y,1/2+z
1/2-y,1/2-x,1/2+z
1/2+y,1/2+x,1/2+z
loop_
_atom_site_type_symbol
_atom_site_label
_atom_site_fract_x
_atom_site_fract_y
_atom_site_fract_z
Si Si1 0.359202 0.164050 0.586374
Si Si2 0.270466 0.632922 0.082296
Si Si3 0.432973 0.664754 0.203763
Si Si4 0.565348 0.127369 0.808117
Si Si5 0.229592 0.566976 0.302259
O O1 0.373749 0.169316 0.500000
O O2 0.290571 0.162698 0.603820
O O3 0.384450 0.103843 0.619153
O O4 0.390050 0.217927 0.628648
O O5 0.315377 0.684624 0.086919
O O6 0.292274 0.581353 0.135380
O O7 0.266466 0.605825 0.000000
O O8 0.500000 0.644050 0.195964
O O9 0.392211 0.607790 0.206783
O O10 0.424196 0.703260 0.277767
O O11 0.500000 0.129116 0.837085
O O12 0.574793 0.074793 0.750000
O O13 0.583269 0.187309 0.766338
O O14 0.218239 0.500000 0.326226
#
# Coordination Sequence:
#
# PCOD8319501 Si02
#       5
#    32  32  32  32  32
#     4  10  19  30  48  74 101 131 167 207 248 291
#     4   9  18  31  47  72 105 134 161 197 241 291
#     4  10  20  34  53  75  99 131 169 207 249 298
#     4   9  17  30  46  65  93 129 169 207 242 286
#     4   9  18  33  49  68  98 134 170 206 251 302
#
# _framework density 16.827173999999999
#
# number of rings (size 3 to 8) (size 9 to 14) (size 15 to 20)
#    0.000    2.600    2.000    0.000    0.000    2.400 
#    0.000    4.000    0.000    0.000    0.000    8.400 
#    0.000    0.000    0.000    4.400    0.000    0.000 
#
# Total GULP energy -991557.567345 kJ/mol
# GULP energy per Si atom -12394.469592 kJ/mol
# Density = 1.678887 g / cm^3
# Si number density = 16.827174 Si / 1000 Ang^3
#
#
#
# Elastic Constant Matrix: (Units=GPa)
#
#
# Indices 1 2 3 4 5 6 
#
# 1 77.7493 42.4796 46.7088 0.0000 0.0000 0.0000
# 2 42.4796 77.7493 46.7088 0.0000 0.0000 0.0000
# 3 46.7088 46.7088 89.5528 0.0000 0.0000 0.0000
# 4 0.0000 0.0000 0.0000 19.6393 0.0000 0.0000
# 5 0.0000 0.0000 0.0000 0.0000 19.6393 0.0000
# 6 0.0000 0.0000 0.0000 0.0000 0.0000 18.9448
#
#
#
# Elastic Compliance Matrix: (Units=1/GPa)
#
#
# Indices 1 2 3 4 5 6 
#
# 1 0.021169 -0.007184 -0.007294 0.000000 0.000000 0.000000
# 2 -0.007184 0.021169 -0.007294 0.000000 0.000000 0.000000
# 3 -0.007294 -0.007294 0.018776 0.000000 0.000000 0.000000
# 4 0.000000 0.000000 0.000000 0.050918 0.000000 0.000000
# 5 0.000000 0.000000 0.000000 0.000000 0.050918 0.000000
# 6 0.000000 0.000000 0.000000 0.000000 0.000000 0.052785
#
#
# Mechanical properties :
#
#
# Convention : Reuss Voigt Hill
#
# Bulk Modulus (GPa) = 56.91954 57.42730 57.17342
# Shear Modulus (GPa) = 18.85819 18.92163 18.88991
#
# Velocity S-wave (km/s) = 3.35132 3.35695 3.35413
# Velocity P-wave (km/s) = 6.99103 7.01621 7.00363
#
# Compressibility (1/GPa) = 0.01756866
#
# Stress axis : x y z
#
# Youngs Moduli (GPa) = 47.23876 47.23876 53.26015
#
# Poissons Ratio (x) = 0.33936 0.38850
# Poissons Ratio (y) = 0.33936 0.38850
# Poissons Ratio (z) = 0.34458 0.34458
#
# Static dielectric constant tensor:
#      x y z
#    x 3.056980 0.000000 0.000000 
#    y 0.000000 3.056980 0.000000 
#    z 0.000000 0.000000 3.164030 
# 
# 
# High freq. dielectric constant tensor:
#      x y z
#    x 1.639550 0.000000 0.000000 
#    y 0.000000 1.639550 0.000000 
#    z 0.000000 0.000000 1.636270 
# 
# From -- ./inp_files/5908.got.cif
#   From: 2010.03.12/outbox.cif.g09.slc.cpg/sg139_3_cif.got.tgz:5908.got - 2010.04.08 09:46:31.
