data_PCOD8319808
_publ_section_title
;
Structure prediction by ZEFSAII (Michael W. Deem and Ramdas Pophale) SiO2 
 PCOD8319808
Probable space group: I 4/M M M
;
_chemical_formula_sum "Si O2"
_cell_formula_units_Z 112
_cell_length_a 19.513865
_cell_length_b 19.513865
_cell_length_c 15.624624
_cell_angle_alpha 90.000000
_cell_angle_beta 90.000000
_cell_angle_gamma 90.000000
_cell_volume 5949.715061
_symmetry_space_group_name_H-M "I 4/M M M"
_symmetry_group_IT_number 139
_symmetry_cell_setting 'tetragonal'
loop_
_space_group_symop_operation_xyz
x,y,z
-y,x,z
-x,-y,z
y,-x,z
x,-y,-z
-x,y,-z
y,x,-z
-y,-x,-z
-x,-y,-z
y,-x,-z
x,y,-z
-y,x,-z
-x,y,z
x,-y,z
-y,-x,z
y,x,z
1/2+x,1/2+y,1/2+z
1/2-y,1/2+x,1/2+z
1/2-x,1/2-y,1/2+z
1/2+y,1/2-x,1/2+z
1/2+x,1/2-y,1/2-z
1/2-x,1/2+y,1/2-z
1/2+y,1/2+x,1/2-z
1/2-y,1/2-x,1/2-z
1/2-x,1/2-y,1/2-z
1/2+y,1/2-x,1/2-z
1/2+x,1/2+y,1/2-z
1/2-y,1/2+x,1/2-z
1/2-x,1/2+y,1/2+z
1/2+x,1/2-y,1/2+z
1/2-y,1/2-x,1/2+z
1/2+y,1/2+x,1/2+z
loop_
_atom_site_type_symbol
_atom_site_label
_atom_site_fract_x
_atom_site_fract_y
_atom_site_fract_z
Si Si1 0.807594 0.922841 0.734588
Si Si2 0.580682 0.000000 0.399509
Si Si3 0.378146 0.828856 0.161007
Si Si4 0.742458 0.368981 0.406456
O O1 0.870956 0.870956 0.724031
O O2 0.749069 0.906558 0.663389
O O3 0.774264 0.921826 0.830040
O O4 0.834535 0.000000 0.718838
O O5 0.614565 0.064712 0.354989
O O6 0.500000 0.000000 0.380439
O O7 0.596557 0.000000 0.500000
O O8 0.341013 0.841013 0.250000
O O9 0.320261 0.841259 0.090031
O O10 0.727291 0.402756 0.500000
O O11 0.697306 0.302695 0.390127
#
# Coordination Sequence:
#
# PCOD8319808 Si02
#       4
#    32  16  32  32
#     4  10  20  35  55  81 109 145 191 236 283 334
#     4  11  24  36  50  78 111 143 179 220 272 342
#     4  10  20  34  54  75 106 145 183 226 273 333
#     4   9  18  33  54  78 104 136 178 227 277 334
#
# _framework density 18.824431000000001
#
# number of rings (size 3 to 8) (size 9 to 14) (size 15 to 20)
#    0.000    2.143    1.429    1.714    2.000    5.429 
#    0.000    0.000    0.000    0.000    0.000    4.000 
#    0.000    1.143    0.000    0.000    0.000    0.000 
#
# Total GULP energy -694085.195477 kJ/mol
# GULP energy per Si atom -12394.378491 kJ/mol
# Density = 1.878159 g / cm^3
# Si number density = 18.824431 Si / 1000 Ang^3
#
#
#
# Elastic Constant Matrix: (Units=GPa)
#
#
# Indices 1 2 3 4 5 6 
#
# 1 111.9703 41.5149 11.0935 0.0000 0.0000 0.0000
# 2 41.5149 111.9703 11.0935 0.0000 0.0000 0.0000
# 3 11.0935 11.0935 30.5377 0.0000 0.0000 0.0000
# 4 0.0000 0.0000 0.0000 20.3703 0.0000 0.0000
# 5 0.0000 0.0000 0.0000 0.0000 20.3703 0.0000
# 6 0.0000 0.0000 0.0000 0.0000 0.0000 22.9707
#
#
#
# Elastic Compliance Matrix: (Units=1/GPa)
#
#
# Indices 1 2 3 4 5 6 
#
# 1 0.010535 -0.003658 -0.002498 0.000000 0.000000 0.000000
# 2 -0.003658 0.010535 -0.002498 0.000000 0.000000 0.000000
# 3 -0.002498 -0.002498 0.034561 0.000000 0.000000 0.000000
# 4 0.000000 0.000000 0.000000 0.049091 0.000000 0.000000
# 5 0.000000 0.000000 0.000000 0.000000 0.049091 0.000000
# 6 0.000000 0.000000 0.000000 0.000000 0.000000 0.043534
#
#
# Mechanical properties :
#
#
# Convention : Reuss Voigt Hill
#
# Bulk Modulus (GPa) = 26.09458 42.43133 34.26296
# Shear Modulus (GPa) = 21.98477 25.46067 23.72272
#
# Velocity S-wave (km/s) = 3.42114 3.68167 3.55379
# Velocity P-wave (km/s) = 5.43119 6.37671 5.92285
#
# Compressibility (1/GPa) = 0.03832213
#
# Stress axis : x y z
#
# Youngs Moduli (GPa) = 94.92278 94.92278 28.93405
#
# Poissons Ratio (x) = 0.34727 0.07228
# Poissons Ratio (y) = 0.34727 0.07228
# Poissons Ratio (z) = 0.23712 0.23712
#
# Static dielectric constant tensor:
#      x y z
#    x 3.402370 0.000000 0.000000 
#    y 0.000000 3.402370 0.000000 
#    z 0.000000 0.000000 3.512730 
# 
# 
# High freq. dielectric constant tensor:
#      x y z
#    x 1.726340 0.000000 0.000000 
#    y 0.000000 1.726340 0.000000 
#    z 0.000000 0.000000 1.722320 
# 
# From -- ./inp_files/7552.got.cif
#   From: 2010.03.12/outbox.cif.g09.slc.cpg/sg139_4_cif.got.tgz:7552.got - 2010.04.08 09:46:31.
