data_PCOD8319339
_publ_section_title
;
Structure prediction by ZEFSAII (Michael W. Deem and Ramdas Pophale) SiO2 
 PCOD8319339
Probable space group: I 4/M M M
;
_chemical_formula_sum "Si O2"
_cell_formula_units_Z 160
_cell_length_a 22.128303
_cell_length_b 22.128303
_cell_length_c 18.823907
_cell_angle_alpha 90.000000
_cell_angle_beta 90.000000
_cell_angle_gamma 90.000000
_cell_volume 9217.348065
_symmetry_space_group_name_H-M "I 4/M M M"
_symmetry_group_IT_number 139
_symmetry_cell_setting 'tetragonal'
loop_
_space_group_symop_operation_xyz
x,y,z
-y,x,z
-x,-y,z
y,-x,z
x,-y,-z
-x,y,-z
y,x,-z
-y,-x,-z
-x,-y,-z
y,-x,-z
x,y,-z
-y,x,-z
-x,y,z
x,-y,z
-y,-x,z
y,x,z
1/2+x,1/2+y,1/2+z
1/2-y,1/2+x,1/2+z
1/2-x,1/2-y,1/2+z
1/2+y,1/2-x,1/2+z
1/2+x,1/2-y,1/2-z
1/2-x,1/2+y,1/2-z
1/2+y,1/2+x,1/2-z
1/2-y,1/2-x,1/2-z
1/2-x,1/2-y,1/2-z
1/2+y,1/2-x,1/2-z
1/2+x,1/2+y,1/2-z
1/2-y,1/2+x,1/2-z
1/2-x,1/2+y,1/2+z
1/2+x,1/2-y,1/2+z
1/2-y,1/2-x,1/2+z
1/2+y,1/2+x,1/2+z
loop_
_atom_site_type_symbol
_atom_site_label
_atom_site_fract_x
_atom_site_fract_y
_atom_site_fract_z
Si Si1 0.289980 0.387902 0.578330
Si Si2 0.066223 0.432685 0.915551
Si Si3 0.830624 0.930740 0.222246
Si Si4 0.741919 0.158325 0.710237
Si Si5 0.839955 0.663979 0.417473
O O1 0.294698 0.418675 0.500000
O O2 0.324592 0.324592 0.579350
O O3 0.317543 0.432094 0.637528
O O4 0.222007 0.370679 0.597022
O O5 0.079184 0.500000 0.887538
O O6 0.118675 0.390215 0.886462
O O7 0.000000 0.411009 0.888666
O O8 0.066710 0.430953 0.000000
O O9 0.890331 0.890331 0.239241
O O10 0.770639 0.904428 0.261322
O O11 0.841962 0.000000 0.246957
O O12 0.792447 0.207554 0.724628
O O13 0.680148 0.180148 0.750000
O O14 0.726012 0.153427 0.626720
O O15 0.848221 0.680909 0.500000
#
# Coordination Sequence:
#
# PCOD8319339 Si02
#       5
#    32  32  32  32  32
#     4   9  17  30  49  75 105 132 162 204 251 298
#     4   8  15  28  43  61  91 129 164 197 233 274
#     4  10  21  36  54  75 101 137 175 213 260 308
#     4  10  19  34  51  70 101 134 162 201 255 305
#     4  10  18  28  49  77 100 129 167 207 249 299
#
# _framework density 17.358573
#
# number of rings (size 3 to 8) (size 9 to 14) (size 15 to 20)
#    0.000    2.600    2.000    1.200    0.000    3.400 
#    0.000    2.000    0.000    0.000    0.000    4.200 
#    0.000    0.000    0.000    4.400    0.000    0.000 
#
# Total GULP energy -991419.181808 kJ/mol
# GULP energy per Si atom -12392.739773 kJ/mol
# Density = 1.731906 g / cm^3
# Si number density = 17.358573 Si / 1000 Ang^3
#
#
#
# Elastic Constant Matrix: (Units=GPa)
#
#
# Indices 1 2 3 4 5 6 
#
# 1 78.8283 30.9179 22.4644 0.0000 0.0000 0.0000
# 2 30.9179 78.8283 22.4644 0.0000 0.0000 0.0000
# 3 22.4644 22.4644 55.8479 0.0000 0.0000 0.0000
# 4 0.0000 0.0000 0.0000 17.6083 0.0000 0.0000
# 5 0.0000 0.0000 0.0000 0.0000 17.6083 0.0000
# 6 0.0000 0.0000 0.0000 0.0000 0.0000 8.7960
#
#
#
# Elastic Compliance Matrix: (Units=1/GPa)
#
#
# Indices 1 2 3 4 5 6 
#
# 1 0.015890 -0.004982 -0.004388 0.000000 0.000000 0.000000
# 2 -0.004982 0.015890 -0.004388 0.000000 0.000000 0.000000
# 3 -0.004388 -0.004388 0.021436 0.000000 0.000000 0.000000
# 4 0.000000 0.000000 0.000000 0.056791 0.000000 0.000000
# 5 0.000000 0.000000 0.000000 0.000000 0.056791 0.000000
# 6 0.000000 0.000000 0.000000 0.000000 0.000000 0.113688
#
#
# Mechanical properties :
#
#
# Convention : Reuss Voigt Hill
#
# Bulk Modulus (GPa) = 38.90884 40.57754 39.74319
# Shear Modulus (GPa) = 15.79432 17.97970 16.88701
#
# Velocity S-wave (km/s) = 3.01970 3.22185 3.12241
# Velocity P-wave (km/s) = 5.88401 6.10469 5.99537
#
# Compressibility (1/GPa) = 0.02570110
#
# Stress axis : x y z
#
# Youngs Moduli (GPa) = 62.93158 62.93158 46.65125
#
# Poissons Ratio (x) = 0.31353 0.20469
# Poissons Ratio (y) = 0.31353 0.20469
# Poissons Ratio (z) = 0.27613 0.27613
#
# Static dielectric constant tensor:
#      x y z
#    x 3.235950 0.000000 0.000000 
#    y 0.000000 3.235950 0.000000 
#    z 0.000000 0.000000 3.160680 
# 
# 
# High freq. dielectric constant tensor:
#      x y z
#    x 1.657880 0.000000 0.000000 
#    y 0.000000 1.657880 0.000000 
#    z 0.000000 0.000000 1.651530 
# 
# From -- ./inp_files/8392.got.cif
#   From: 2010.03.12/outbox.cif.g09.slc.cpg/sg139_5_cif.got.tgz:8392.got - 2010.04.08 09:46:31.
