data_PCOD8319165
_publ_section_title
;
Structure prediction by ZEFSAII (Michael W. Deem and Ramdas Pophale) SiO2 
 PCOD8319165
Probable space group: P 42/N C M
;
_chemical_formula_sum "Si O2"
_cell_formula_units_Z 40
_cell_length_a 13.589600
_cell_length_b 13.589600
_cell_length_c 8.829833
_cell_angle_alpha 90.000000
_cell_angle_beta 90.000000
_cell_angle_gamma 90.000000
_cell_volume 1630.669084
_symmetry_space_group_name_H-M "P 42/N C M"
_symmetry_group_IT_number 138
_space_group.IT_coordinate_system_code '2'
_symmetry_cell_setting 'tetragonal'
loop_
_space_group_symop_operation_xyz
x,y,z
1/2-y,x,1/2+z
1/2-x,1/2-y,z
y,1/2-x,1/2+z
1/2+x,-y,1/2-z
-x,1/2+y,1/2-z
1/2+y,1/2+x,-z
-y,-x,-z
-x,-y,-z
1/2+y,-x,1/2-z
1/2+x,1/2+y,-z
-y,1/2+x,1/2-z
1/2-x,y,1/2+z
x,1/2-y,1/2+z
1/2-y,1/2-x,z
y,x,z
loop_
_atom_site_type_symbol
_atom_site_label
_atom_site_fract_x
_atom_site_fract_y
_atom_site_fract_z
Si Si1 0.980896 0.519105 0.710424
Si Si2 0.847378 0.652623 0.876037
Si Si3 0.663574 0.135972 0.325009
Si Si4 0.346973 0.346973 0.958318
O O1 0.097350 0.539758 0.709083
O O2 0.068442 0.431559 0.442939
O O3 0.931508 0.568493 0.861346
O O4 0.814252 0.685749 0.708983
O O5 0.889665 0.749855 0.959309
O O6 0.665545 0.165545 0.500000
O O7 0.614830 0.226844 0.232925
#
# Coordination Sequence:
#
# PCOD8319165 Si02
#       4
#     8   8  16   8
#     4  10  25  39  74 100 131 182 239 281 344 422
#     4   9  18  33  56  89 139 175 215 274 346 395
#     4  11  25  49  73 100 142 187 232 291 350 414
#     4   9  18  33  57  93 136 178 211 279 344 399
#
# _framework density 24.529807000000002
#
# number of rings (size 3 to 8) (size 9 to 14) (size 15 to 20)
#    1.200    0.800    0.000    5.400    5.600    0.000 
#    0.000    8.000    0.000    0.000    0.000    0.000 
#    0.000    0.000    0.000    0.000    0.000    0.000 
#
# Total GULP energy -495754.899656 kJ/mol
# GULP energy per Si atom -12393.872491 kJ/mol
# Density = 2.447398 g / cm^3
# Si number density = 24.529807 Si / 1000 Ang^3
#
#
#
# Elastic Constant Matrix: (Units=GPa)
#
#
# Indices 1 2 3 4 5 6 
#
# 1 70.6655 30.8674 15.4928 0.0000 0.0000 0.0000
# 2 30.8674 70.6655 15.4928 0.0000 0.0000 0.0000
# 3 15.4928 15.4928 128.2285 0.0000 0.0000 0.0000
# 4 0.0000 0.0000 0.0000 16.6987 0.0000 0.0000
# 5 0.0000 0.0000 0.0000 0.0000 16.6987 0.0000
# 6 0.0000 0.0000 0.0000 0.0000 0.0000 47.8071
#
#
#
# Elastic Compliance Matrix: (Units=1/GPa)
#
#
# Indices 1 2 3 4 5 6 
#
# 1 0.017676 -0.007450 -0.001236 0.000000 0.000000 0.000000
# 2 -0.007450 0.017676 -0.001236 0.000000 0.000000 0.000000
# 3 -0.001236 -0.001236 0.008097 0.000000 0.000000 0.000000
# 4 0.000000 0.000000 0.000000 0.059885 0.000000 0.000000
# 5 0.000000 0.000000 0.000000 0.000000 0.059885 0.000000
# 6 0.000000 0.000000 0.000000 0.000000 0.000000 0.020917
#
#
# Mechanical properties :
#
#
# Convention : Reuss Voigt Hill
#
# Bulk Modulus (GPa) = 42.36000 43.69614 43.02807
# Shear Modulus (GPa) = 23.60173 30.08802 26.84487
#
# Velocity S-wave (km/s) = 3.10524 3.50607 3.31173
# Velocity P-wave (km/s) = 5.49208 5.85168 5.67473
#
# Compressibility (1/GPa) = 0.02360718
#
# Stress axis : x y z
#
# Youngs Moduli (GPa) = 56.57252 56.57252 123.50045
#
# Poissons Ratio (x) = 0.42148 0.15259
# Poissons Ratio (y) = 0.42148 0.15259
# Poissons Ratio (z) = 0.06990 0.06990
#
# Static dielectric constant tensor:
#      x y z
#    x 4.087060 0.000000 0.000000 
#    y 0.000000 4.087060 0.000000 
#    z 0.000000 0.000000 4.450230 
# 
# 
# High freq. dielectric constant tensor:
#      x y z
#    x 1.964490 0.000000 0.000000 
#    y 0.000000 1.964490 0.000000 
#    z 0.000000 0.000000 1.981850 
# 
# From -- ./inp_files/876.got.cif
#   From: 2010.03.12/outbox.cif.g09.slc.cpg/sg138_1_cif.got.tgz:876.got - 2010.04.08 09:41:05.
