data_PCOD8319313
_publ_section_title
;
Structure prediction by ZEFSAII (Michael W. Deem and Ramdas Pophale) SiO2 
 PCOD8319313
Probable space group: I 4/M M M
;
_chemical_formula_sum "Si O2"
_cell_formula_units_Z 160
_cell_length_a 17.307508
_cell_length_b 17.307508
_cell_length_c 32.560538
_cell_angle_alpha 90.000000
_cell_angle_beta 90.000000
_cell_angle_gamma 90.000000
_cell_volume 9753.503726
_symmetry_space_group_name_H-M "I 4/M M M"
_symmetry_group_IT_number 139
_symmetry_cell_setting 'tetragonal'
loop_
_space_group_symop_operation_xyz
x,y,z
-y,x,z
-x,-y,z
y,-x,z
x,-y,-z
-x,y,-z
y,x,-z
-y,-x,-z
-x,-y,-z
y,-x,-z
x,y,-z
-y,x,-z
-x,y,z
x,-y,z
-y,-x,z
y,x,z
1/2+x,1/2+y,1/2+z
1/2-y,1/2+x,1/2+z
1/2-x,1/2-y,1/2+z
1/2+y,1/2-x,1/2+z
1/2+x,1/2-y,1/2-z
1/2-x,1/2+y,1/2-z
1/2+y,1/2+x,1/2-z
1/2-y,1/2-x,1/2-z
1/2-x,1/2-y,1/2-z
1/2+y,1/2-x,1/2-z
1/2+x,1/2+y,1/2-z
1/2-y,1/2+x,1/2-z
1/2-x,1/2+y,1/2+z
1/2+x,1/2-y,1/2+z
1/2-y,1/2-x,1/2+z
1/2+y,1/2+x,1/2+z
loop_
_atom_site_type_symbol
_atom_site_label
_atom_site_fract_x
_atom_site_fract_y
_atom_site_fract_z
Si Si1 0.631296 0.756207 0.764517
Si Si2 0.700722 0.171542 0.885506
Si Si3 0.783940 0.089254 0.046897
Si Si4 0.085758 0.208784 0.178410
Si Si5 0.717179 0.586904 0.851709
O O1 0.708770 0.708770 0.774906
O O2 0.657853 0.842148 0.750000
O O3 0.583221 0.718765 0.727417
O O4 0.581383 0.753500 0.805872
O O5 0.760993 0.239007 0.890987
O O6 0.710930 0.115411 0.924882
O O7 0.717183 0.124965 0.843314
O O8 0.617676 0.213765 0.881533
O O9 0.860652 0.139349 0.057037
O O10 0.804122 0.000000 0.055803
O O11 0.757793 0.101486 0.000000
O O12 0.132126 0.132126 0.165823
O O13 0.000000 0.198276 0.161214
O O14 0.694821 0.500000 0.865515
O O15 0.640478 0.640478 0.853777
#
# Coordination Sequence:
#
# PCOD8319313 Si02
#       5
#    32  32  32  32  32
#     4   9  15  27  44  63  86 116 155 189 221 267
#     4   9  17  30  46  65  89 121 160 189 216 265
#     4   9  17  29  47  72 100 128 157 190 227 265
#     4  10  18  27  42  63  88 119 153 188 224 262
#     4  10  19  31  49  71  93 117 148 189 237 285
#
# _framework density 16.404361000000002
#
# number of rings (size 3 to 8) (size 9 to 14) (size 15 to 20)
#    0.000    2.600    2.000    1.200    0.000    0.600 
#    0.000    1.000    0.000   10.200    0.000    2.800 
#    0.000    0.000    0.000    7.800    0.000    0.000 
#
# Total GULP energy -991234.560023 kJ/mol
# GULP energy per Si atom -12390.432000 kJ/mol
# Density = 1.636702 g / cm^3
# Si number density = 16.404361 Si / 1000 Ang^3
#
#
#
# Elastic Constant Matrix: (Units=GPa)
#
#
# Indices 1 2 3 4 5 6 
#
# 1 76.4112 57.2371 26.9704 0.0000 0.0000 0.0000
# 2 57.2371 76.4103 26.9702 0.0000 0.0000 0.0000
# 3 26.9704 26.9702 78.5532 0.0000 0.0000 0.0000
# 4 0.0000 0.0000 0.0000 16.5160 0.0000 0.0000
# 5 0.0000 0.0000 0.0000 0.0000 16.5160 0.0000
# 6 0.0000 0.0000 0.0000 0.0000 0.0000 14.3479
#
#
#
# Elastic Compliance Matrix: (Units=1/GPa)
#
#
# Indices 1 2 3 4 5 6 
#
# 1 0.030420 -0.021734 -0.002982 0.000000 0.000000 0.000000
# 2 -0.021734 0.030421 -0.002982 0.000000 0.000000 0.000000
# 3 -0.002982 -0.002982 0.014778 0.000000 0.000000 0.000000
# 4 0.000000 0.000000 0.000000 0.060547 0.000000 0.000000
# 5 0.000000 0.000000 0.000000 0.000000 0.060547 0.000000
# 6 0.000000 0.000000 0.000000 0.000000 0.000000 0.069697
#
#
# Mechanical properties :
#
#
# Convention : Reuss Voigt Hill
#
# Bulk Modulus (GPa) = 49.45328 50.41445 49.93386
# Shear Modulus (GPa) = 15.21847 17.48911 16.35379
#
# Velocity S-wave (km/s) = 3.04914 3.26870 3.16083
# Velocity P-wave (km/s) = 6.52749 6.71155 6.62016
#
# Compressibility (1/GPa) = 0.02022111
#
# Stress axis : x y z
#
# Youngs Moduli (GPa) = 32.87292 32.87254 67.66788
#
# Poissons Ratio (x) = 0.71446 0.20180
# Poissons Ratio (y) = 0.71447 0.20180
# Poissons Ratio (z) = 0.09803 0.09803
#
# Static dielectric constant tensor:
#      x y z
#    x 2.967970 0.000000 0.000000 
#    y 0.000000 2.967980 0.000000 
#    z 0.000000 0.000000 3.208450 
# 
# 
# High freq. dielectric constant tensor:
#      x y z
#    x 1.605670 0.000000 0.000000 
#    y 0.000000 1.605670 0.000000 
#    z 0.000000 0.000000 1.625030 
# 
# From -- ./inp_files/14075.got.cif
#   From: 2010.03.12/outbox.cif.g09.slc.cpg/sg139_8_cif.got.tgz:14075.got - 2010.04.08 09:46:31.
