data_PCOD8319967
_publ_section_title
;
Structure prediction by ZEFSAII (Michael W. Deem and Ramdas Pophale) SiO2 
 PCOD8319967
Probable space group: I 4/M M M
;
_chemical_formula_sum "Si O2"
_cell_formula_units_Z 144
_cell_length_a 22.657178
_cell_length_b 22.657178
_cell_length_c 14.822210
_cell_angle_alpha 90.000000
_cell_angle_beta 90.000000
_cell_angle_gamma 90.000000
_cell_volume 7608.947634
_symmetry_space_group_name_H-M "I 4/M M M"
_symmetry_group_IT_number 139
_symmetry_cell_setting 'tetragonal'
loop_
_space_group_symop_operation_xyz
x,y,z
-y,x,z
-x,-y,z
y,-x,z
x,-y,-z
-x,y,-z
y,x,-z
-y,-x,-z
-x,-y,-z
y,-x,-z
x,y,-z
-y,x,-z
-x,y,z
x,-y,z
-y,-x,z
y,x,z
1/2+x,1/2+y,1/2+z
1/2-y,1/2+x,1/2+z
1/2-x,1/2-y,1/2+z
1/2+y,1/2-x,1/2+z
1/2+x,1/2-y,1/2-z
1/2-x,1/2+y,1/2-z
1/2+y,1/2+x,1/2-z
1/2-y,1/2-x,1/2-z
1/2-x,1/2-y,1/2-z
1/2+y,1/2-x,1/2-z
1/2+x,1/2+y,1/2-z
1/2-y,1/2+x,1/2-z
1/2-x,1/2+y,1/2+z
1/2+x,1/2-y,1/2+z
1/2-y,1/2-x,1/2+z
1/2+y,1/2+x,1/2+z
loop_
_atom_site_type_symbol
_atom_site_label
_atom_site_fract_x
_atom_site_fract_y
_atom_site_fract_z
Si Si1 0.433162 0.000000 0.392084
Si Si2 0.568068 0.258845 0.898216
Si Si3 0.728138 0.068375 0.104576
Si Si4 0.068097 0.163954 0.769024
Si Si5 0.366262 0.886641 0.606176
O O1 0.401259 0.057969 0.352006
O O2 0.500000 0.000000 0.357509
O O3 0.429572 0.000000 0.500000
O O4 0.500000 0.238459 0.889687
O O5 0.581825 0.312559 0.831503
O O6 0.608388 0.203044 0.871144
O O7 0.581955 0.280083 0.000000
O O8 0.786492 0.085814 0.158806
O O9 0.674456 0.107417 0.144980
O O10 0.711661 0.000000 0.119357
O O11 0.740236 0.082356 0.000000
O O12 0.106036 0.106036 0.788105
O O13 0.000000 0.145832 0.779359
O O14 0.377007 0.886708 0.500000
#
# Coordination Sequence:
#
# PCOD8319967 Si02
#       5
#    16  32  32  32  32
#     4   9  14  20  38  72 108 140 184 232 256 277
#     4   9  17  32  53  77 107 143 178 212 254 306
#     4   9  18  33  52  76 109 146 179 213 255 304
#     4  10  22  39  59  81 100 127 166 213 273 333
#     4   9  15  26  46  74 106 145 186 217 250 289
#
# _framework density 18.925087999999999
#
# number of rings (size 3 to 8) (size 9 to 14) (size 15 to 20)
#    0.000    2.778    1.111    0.667    0.000    4.667 
#    0.000    2.222    0.000    4.000    0.000    6.222 
#    0.000    0.000    0.000    0.000    0.000    0.000 
#
# Total GULP energy -892777.715499 kJ/mol
# GULP energy per Si atom -12399.690493 kJ/mol
# Density = 1.888201 g / cm^3
# Si number density = 18.925088 Si / 1000 Ang^3
#
#
#
# Elastic Constant Matrix: (Units=GPa)
#
#
# Indices 1 2 3 4 5 6 
#
# 1 107.2854 77.4278 30.8034 0.0000 0.0000 0.0000
# 2 77.4278 107.2854 30.8034 0.0000 0.0000 0.0000
# 3 30.8034 30.8034 53.4116 0.0000 0.0000 0.0000
# 4 0.0000 0.0000 0.0000 16.8068 0.0000 0.0000
# 5 0.0000 0.0000 0.0000 0.0000 16.8068 0.0000
# 6 0.0000 0.0000 0.0000 0.0000 0.0000 39.0645
#
#
#
# Elastic Compliance Matrix: (Units=1/GPa)
#
#
# Indices 1 2 3 4 5 6 
#
# 1 0.020098 -0.013395 -0.003866 0.000000 0.000000 0.000000
# 2 -0.013395 0.020098 -0.003866 0.000000 0.000000 0.000000
# 3 -0.003866 -0.003866 0.023181 0.000000 0.000000 0.000000
# 4 0.000000 0.000000 0.000000 0.059500 0.000000 0.000000
# 5 0.000000 0.000000 0.000000 0.000000 0.059500 0.000000
# 6 0.000000 0.000000 0.000000 0.000000 0.000000 0.025599
#
#
# Mechanical properties :
#
#
# Convention : Reuss Voigt Hill
#
# Bulk Modulus (GPa) = 47.33838 60.67238 54.00538
# Shear Modulus (GPa) = 19.43489 23.13213 21.28351
#
# Velocity S-wave (km/s) = 3.20806 3.49993 3.35717
# Velocity P-wave (km/s) = 6.22817 6.96143 6.60498
#
# Compressibility (1/GPa) = 0.02112451
#
# Stress axis : x y z
#
# Youngs Moduli (GPa) = 49.75682 49.75682 43.13786
#
# Poissons Ratio (x) = 0.66647 0.16676
# Poissons Ratio (y) = 0.66647 0.16676
# Poissons Ratio (z) = 0.19235 0.19235
#
# Static dielectric constant tensor:
#      x y z
#    x 3.263820 0.000000 0.000000 
#    y 0.000000 3.263820 0.000000 
#    z 0.000000 0.000000 3.437270 
# 
# 
# High freq. dielectric constant tensor:
#      x y z
#    x 1.715840 0.000000 0.000000 
#    y 0.000000 1.715840 0.000000 
#    z 0.000000 0.000000 1.730370 
# 
# From -- ./inp_files/8196.got.cif
#   From: 2010.03.12/outbox.cif.g09.slc.cpg/sg139_5_cif.got.tgz:8196.got - 2010.04.08 09:46:31.
