data_PCOD8319774
_publ_section_title
;
Structure prediction by ZEFSAII (Michael W. Deem and Ramdas Pophale) SiO2 
 PCOD8319774
Probable space group: I 4/M M M
;
_chemical_formula_sum "Si O2"
_cell_formula_units_Z 80
_cell_length_a 24.330081
_cell_length_b 24.330081
_cell_length_c 7.774783
_cell_angle_alpha 90.000000
_cell_angle_beta 90.000000
_cell_angle_gamma 90.000000
_cell_volume 4602.304889
_symmetry_space_group_name_H-M "I 4/M M M"
_symmetry_group_IT_number 139
_symmetry_cell_setting 'tetragonal'
loop_
_space_group_symop_operation_xyz
x,y,z
-y,x,z
-x,-y,z
y,-x,z
x,-y,-z
-x,y,-z
y,x,-z
-y,-x,-z
-x,-y,-z
y,-x,-z
x,y,-z
-y,x,-z
-x,y,z
x,-y,z
-y,-x,z
y,x,z
1/2+x,1/2+y,1/2+z
1/2-y,1/2+x,1/2+z
1/2-x,1/2-y,1/2+z
1/2+y,1/2-x,1/2+z
1/2+x,1/2-y,1/2-z
1/2-x,1/2+y,1/2-z
1/2+y,1/2+x,1/2-z
1/2-y,1/2-x,1/2-z
1/2-x,1/2-y,1/2-z
1/2+y,1/2-x,1/2-z
1/2+x,1/2+y,1/2-z
1/2-y,1/2+x,1/2-z
1/2-x,1/2+y,1/2+z
1/2+x,1/2-y,1/2+z
1/2-y,1/2-x,1/2+z
1/2+y,1/2+x,1/2+z
loop_
_atom_site_type_symbol
_atom_site_label
_atom_site_fract_x
_atom_site_fract_y
_atom_site_fract_z
Si Si1 0.769955 0.065273 0.691962
Si Si2 0.939640 0.350692 0.298633
Si Si3 0.065220 0.846840 0.000000
O O1 0.783370 0.088859 0.500000
O O2 0.709175 0.083524 0.758108
O O3 0.770219 0.000000 0.683270
O O4 0.814431 0.085717 0.830217
O O5 0.947152 0.348702 0.500000
O O6 0.898189 0.398189 0.250000
O O7 0.000000 0.362316 0.215105
O O8 0.093742 0.906259 0.000000
O O9 0.000000 0.855988 0.000000
#
# Coordination Sequence:
#
# PCOD8319774 Si02
#       3
#    32  32  16
#     4   8  16  32  50  70  96 128 170 205 231 279
#     4   9  18  30  45  69  97 129 169 210 251 290
#     4  10  20  33  54  80 101 127 157 191 243 299
#
# _framework density 17.382594999999998
#
# number of rings (size 3 to 8) (size 9 to 14) (size 15 to 20)
#    0.000    3.200    0.000    2.400    2.800    2.200 
#    0.000    2.000    0.000    1.200    0.000    5.600 
#    0.000    0.000    0.000    0.000    0.000    0.000 
#
# Total GULP energy -495586.579604 kJ/mol
# GULP energy per Si atom -12389.664490 kJ/mol
# Density = 1.734303 g / cm^3
# Si number density = 17.382595 Si / 1000 Ang^3
#
#
#
# Elastic Constant Matrix: (Units=GPa)
#
#
# Indices 1 2 3 4 5 6 
#
# 1 82.6308 56.4058 38.3970 0.0000 0.0000 0.0000
# 2 56.4058 82.6217 38.3952 0.0000 0.0000 0.0000
# 3 38.3970 38.3952 79.6001 0.0000 0.0000 0.0000
# 4 0.0000 0.0000 0.0000 18.8320 0.0000 0.0000
# 5 0.0000 0.0000 0.0000 0.0000 18.8306 0.0000
# 6 0.0000 0.0000 0.0000 0.0000 0.0000 2.8223
#
#
#
# Elastic Compliance Matrix: (Units=1/GPa)
#
#
# Indices 1 2 3 4 5 6 
#
# 1 0.023970 -0.014167 -0.004729 0.000000 0.000000 0.000000
# 2 -0.014167 0.023973 -0.004730 0.000000 0.000000 0.000000
# 3 -0.004729 -0.004730 0.017125 0.000000 0.000000 0.000000
# 4 0.000000 0.000000 0.000000 0.053101 0.000000 0.000000
# 5 0.000000 0.000000 0.000000 0.000000 0.053105 0.000000
# 6 0.000000 0.000000 0.000000 0.000000 0.000000 0.354316
#
#
# Mechanical properties :
#
#
# Convention : Reuss Voigt Hill
#
# Bulk Modulus (GPa) = 56.12557 56.80539 56.46548
# Shear Modulus (GPa) = 8.63885 15.54063 12.08974
#
# Velocity S-wave (km/s) = 2.23173 2.99328 2.64011
# Velocity P-wave (km/s) = 6.24494 6.68556 6.46900
#
# Compressibility (1/GPa) = 0.01781719
#
# Stress axis : x y z
#
# Youngs Moduli (GPa) = 41.71851 41.71369 58.39262
#
# Poissons Ratio (x) = 0.59095 0.27615
# Poissons Ratio (y) = 0.59101 0.27618
# Poissons Ratio (z) = 0.19730 0.19729
#
# Static dielectric constant tensor:
#      x y z
#    x 2.828810 0.000000 0.000000 
#    y 0.000000 2.828820 0.000000 
#    z 0.000000 0.000000 3.583830 
# 
# 
# High freq. dielectric constant tensor:
#      x y z
#    x 1.645710 0.000000 0.000000 
#    y 0.000000 1.645710 0.000000 
#    z 0.000000 0.000000 1.680100 
# 
# From -- ./inp_files/944.got.cif
#   From: 2010.03.12/outbox.cif.g09.slc.cpg/sg139_1_cif.got.tgz:944.got - 2010.04.08 09:46:31.
