data_PCOD8319291
_publ_section_title
;
Structure prediction by ZEFSAII (Michael W. Deem and Ramdas Pophale) SiO2 
 PCOD8319291
Probable space group: I 4/M M M
;
_chemical_formula_sum "Si O2"
_cell_formula_units_Z 176
_cell_length_a 19.836895
_cell_length_b 19.836895
_cell_length_c 24.556894
_cell_angle_alpha 90.000000
_cell_angle_beta 90.000000
_cell_angle_gamma 90.000000
_cell_volume 9663.196805
_symmetry_space_group_name_H-M "I 4/M M M"
_symmetry_group_IT_number 139
_symmetry_cell_setting 'tetragonal'
loop_
_space_group_symop_operation_xyz
x,y,z
-y,x,z
-x,-y,z
y,-x,z
x,-y,-z
-x,y,-z
y,x,-z
-y,-x,-z
-x,-y,-z
y,-x,-z
x,y,-z
-y,x,-z
-x,y,z
x,-y,z
-y,-x,z
y,x,z
1/2+x,1/2+y,1/2+z
1/2-y,1/2+x,1/2+z
1/2-x,1/2-y,1/2+z
1/2+y,1/2-x,1/2+z
1/2+x,1/2-y,1/2-z
1/2-x,1/2+y,1/2-z
1/2+y,1/2+x,1/2-z
1/2-y,1/2-x,1/2-z
1/2-x,1/2-y,1/2-z
1/2+y,1/2-x,1/2-z
1/2+x,1/2+y,1/2-z
1/2-y,1/2+x,1/2-z
1/2-x,1/2+y,1/2+z
1/2+x,1/2-y,1/2+z
1/2-y,1/2-x,1/2+z
1/2+y,1/2+x,1/2+z
loop_
_atom_site_type_symbol
_atom_site_label
_atom_site_fract_x
_atom_site_fract_y
_atom_site_fract_z
Si Si1 0.780947 0.113548 0.716598
Si Si2 0.575816 0.685861 0.666013
Si Si3 0.315164 0.574987 0.099246
Si Si4 0.337762 0.923988 0.859188
Si Si5 0.132767 0.632767 0.750000
Si Si6 0.922484 0.669395 0.437650
O O1 0.811851 0.188150 0.714276
O O2 0.809026 0.073715 0.768697
O O3 0.802535 0.071754 0.663860
O O4 0.701699 0.124764 0.717029
O O5 0.500000 0.666703 0.646428
O O6 0.628823 0.628823 0.645818
O O7 0.598011 0.758991 0.642909
O O8 0.335797 0.500000 0.079934
O O9 0.374448 0.625553 0.082312
O O10 0.247157 0.598851 0.069296
O O11 0.371314 0.921954 0.798428
O O12 0.375041 0.876715 0.901402
O O13 0.344507 0.000000 0.880302
O O14 0.912513 0.647808 0.500000
O O15 0.000000 0.659477 0.419120
#
# Coordination Sequence:
#
# PCOD8319291 Si02
#       6
#    32  32  32  32  16  32
#     4   9  16  27  47  74 104 140 180 218 257 305
#     4   9  18  31  49  76 110 145 180 217 259 311
#     4  10  20  34  54  79 108 141 178 220 264 312
#     4  10  21  35  53  81 111 138 173 220 268 317
#     4  10  17  30  50  77 108 142 172 210 264 314
#     4  10  22  40  59  77 101 138 181 221 263 316
#
# _framework density 18.213433999999999
#
# number of rings (size 3 to 8) (size 9 to 14) (size 15 to 20)
#    0.000    2.364    1.818    0.818    0.000    4.364 
#    0.000    0.909    0.000    3.273    0.000    2.545 
#    0.000    0.000    0.000    4.000    0.000    0.000 
#
# Total GULP energy -1090911.243357 kJ/mol
# GULP energy per Si atom -12396.718675 kJ/mol
# Density = 1.817198 g / cm^3
# Si number density = 18.213434 Si / 1000 Ang^3
#
#
#
# Elastic Constant Matrix: (Units=GPa)
#
#
# Indices 1 2 3 4 5 6 
#
# 1 108.2395 66.2187 37.3362 0.0000 0.0000 0.0000
# 2 66.2187 108.2395 37.3362 0.0000 0.0000 0.0000
# 3 37.3362 37.3362 66.4325 0.0000 0.0000 0.0000
# 4 0.0000 0.0000 0.0000 1.0791 0.0000 0.0000
# 5 0.0000 0.0000 0.0000 0.0000 1.0791 0.0000
# 6 0.0000 0.0000 0.0000 0.0000 0.0000 30.9289
#
#
#
# Elastic Compliance Matrix: (Units=1/GPa)
#
#
# Indices 1 2 3 4 5 6 
#
# 1 0.015673 -0.008125 -0.004242 0.000000 0.000000 0.000000
# 2 -0.008125 0.015673 -0.004242 0.000000 0.000000 0.000000
# 3 -0.004242 -0.004242 0.019821 0.000000 0.000000 0.000000
# 4 0.000000 0.000000 0.000000 0.926656 -0.000001 0.000000
# 5 0.000000 0.000000 0.000000 -0.000001 0.926662 0.000000
# 6 0.000000 0.000000 0.000000 0.000000 0.000000 0.032332
#
#
# Mechanical properties :
#
#
# Convention : Reuss Voigt Hill
#
# Bulk Modulus (GPa) = 55.71465 62.74377 59.22921
# Shear Modulus (GPa) = 2.53034 16.08547 9.30791
#
# Velocity S-wave (km/s) = 1.17995 2.97503 2.26309
# Velocity P-wave (km/s) = 5.70199 6.80625 6.27844
#
# Compressibility (1/GPa) = 0.01794860
#
# Stress axis : x y z
#
# Youngs Moduli (GPa) = 63.80518 63.80518 50.45164
#
# Poissons Ratio (x) = 0.51842 0.21401
# Poissons Ratio (y) = 0.51842 0.21401
# Poissons Ratio (z) = 0.27066 0.27066
#
# Static dielectric constant tensor:
#      x y z
#    x 3.307820 0.000000 0.000000 
#    y 0.000000 3.307820 0.000000 
#    z 0.000000 0.000000 3.160780 
# 
# 
# High freq. dielectric constant tensor:
#      x y z
#    x 1.702760 0.000000 0.000000 
#    y 0.000000 1.702760 0.000000 
#    z 0.000000 0.000000 1.683470 
# 
# From -- ./inp_files/13143.got.cif
#   From: 2010.03.12/outbox.cif.g09.slc.cpg/sg139_7_cif.got.tgz:13143.got - 2010.04.08 09:46:31.
