data_PCOD8319366
_publ_section_title
;
Structure prediction by ZEFSAII (Michael W. Deem and Ramdas Pophale) SiO2 
 PCOD8319366
Probable space group: I 4/M M M
;
_chemical_formula_sum "Si O2"
_cell_formula_units_Z 144
_cell_length_a 21.066592
_cell_length_b 21.066592
_cell_length_c 21.124308
_cell_angle_alpha 90.000000
_cell_angle_beta 90.000000
_cell_angle_gamma 90.000000
_cell_volume 9374.995320
_symmetry_space_group_name_H-M "I 4/M M M"
_symmetry_group_IT_number 139
_symmetry_cell_setting 'tetragonal'
loop_
_space_group_symop_operation_xyz
x,y,z
-y,x,z
-x,-y,z
y,-x,z
x,-y,-z
-x,y,-z
y,x,-z
-y,-x,-z
-x,-y,-z
y,-x,-z
x,y,-z
-y,x,-z
-x,y,z
x,-y,z
-y,-x,z
y,x,z
1/2+x,1/2+y,1/2+z
1/2-y,1/2+x,1/2+z
1/2-x,1/2-y,1/2+z
1/2+y,1/2-x,1/2+z
1/2+x,1/2-y,1/2-z
1/2-x,1/2+y,1/2-z
1/2+y,1/2+x,1/2-z
1/2-y,1/2-x,1/2-z
1/2-x,1/2-y,1/2-z
1/2+y,1/2-x,1/2-z
1/2+x,1/2+y,1/2-z
1/2-y,1/2+x,1/2-z
1/2-x,1/2+y,1/2+z
1/2+x,1/2-y,1/2+z
1/2-y,1/2-x,1/2+z
1/2+y,1/2+x,1/2+z
loop_
_atom_site_type_symbol
_atom_site_label
_atom_site_fract_x
_atom_site_fract_y
_atom_site_fract_z
Si Si1 0.250130 0.648891 0.572545
Si Si2 0.925960 0.823986 0.828276
Si Si3 0.500000 0.924645 0.074252
Si Si4 0.794852 0.428820 0.250352
Si Si5 0.874586 0.627361 0.644052
O O1 0.251925 0.629800 0.500000
O O2 0.282346 0.717655 0.585353
O O3 0.290977 0.594366 0.606420
O O4 0.176983 0.650801 0.593510
O O5 0.889409 0.889409 0.815813
O O6 0.907865 0.775190 0.772218
O O7 0.000000 0.839514 0.830799
O O8 0.562930 0.898027 0.108504
O O9 0.500000 0.000000 0.081193
O O10 0.500000 0.904886 0.000000
O O11 0.794807 0.500000 0.226212
O O12 0.844464 0.425330 0.309234
O O13 0.812620 0.387795 0.189278
#
# Coordination Sequence:
#
# PCOD8319366 Si02
#       5
#    32  32  16  32  32
#     4   9  18  32  48  66  88 117 155 195 234 275
#     4   9  18  31  48  69  93 119 148 185 232 283
#     4  11  22  32  42  64  98 130 161 193 233 282
#     4   9  17  30  45  65  90 116 152 190 228 273
#     4  10  18  30  47  65  88 120 158 195 232 273
#
# _framework density 15.360008000000001
#
# number of rings (size 3 to 8) (size 9 to 14) (size 15 to 20)
#    0.000    2.556    1.111    1.333    0.000    2.444 
#    0.000    4.444    0.000    0.000    0.000    3.111 
#    0.000    0.000    0.000    0.000    0.000    1.111 
#
# Total GULP energy -892389.449739 kJ/mol
# GULP energy per Si atom -12394.297913 kJ/mol
# Density = 1.532505 g / cm^3
# Si number density = 15.360008 Si / 1000 Ang^3
#
#
#
# Elastic Constant Matrix: (Units=GPa)
#
#
# Indices 1 2 3 4 5 6 
#
# 1 102.7303 61.6806 47.3517 0.0000 0.0000 0.0000
# 2 61.6806 102.7303 47.3517 0.0000 0.0000 0.0000
# 3 47.3517 47.3517 80.4825 0.0000 0.0000 0.0000
# 4 0.0000 0.0000 0.0000 20.0447 0.0000 0.0000
# 5 0.0000 0.0000 0.0000 0.0000 20.0447 0.0000
# 6 0.0000 0.0000 0.0000 0.0000 0.0000 20.5351
#
#
#
# Elastic Compliance Matrix: (Units=1/GPa)
#
#
# Indices 1 2 3 4 5 6 
#
# 1 0.016780 -0.007580 -0.005413 0.000000 0.000000 0.000000
# 2 -0.007580 0.016780 -0.005413 0.000000 0.000000 0.000000
# 3 -0.005413 -0.005413 0.018794 0.000000 0.000000 0.000000
# 4 0.000000 0.000000 0.000000 0.049888 0.000000 0.000000
# 5 0.000000 0.000000 0.000000 0.000000 0.049888 0.000000
# 6 0.000000 0.000000 0.000000 0.000000 0.000000 0.048697
#
#
# Mechanical properties :
#
#
# Convention : Reuss Voigt Hill
#
# Bulk Modulus (GPa) = 64.33691 66.52344 65.43018
# Shear Modulus (GPa) = 20.59114 20.76218 20.67666
#
# Velocity S-wave (km/s) = 3.66535 3.68054 3.67295
# Velocity P-wave (km/s) = 7.73886 7.83999 7.78959
#
# Compressibility (1/GPa) = 0.01554318
#
# Stress axis : x y z
#
# Youngs Moduli (GPa) = 59.59299 59.59299 53.20721
#
# Poissons Ratio (x) = 0.45173 0.28801
# Poissons Ratio (y) = 0.45173 0.28801
# Poissons Ratio (z) = 0.32257 0.32257
#
# Static dielectric constant tensor:
#      x y z
#    x 2.933920 0.000000 0.000000 
#    y 0.000000 2.933920 0.000000 
#    z 0.000000 0.000000 2.972620 
# 
# 
# High freq. dielectric constant tensor:
#      x y z
#    x 1.584000 0.000000 0.000000 
#    y 0.000000 1.584000 0.000000 
#    z 0.000000 0.000000 1.587690 
# 
# From -- ./inp_files/10258.got.cif
#   From: 2010.03.12/outbox.cif.g09.slc.cpg/sg139_6_cif.got.tgz:10258.got - 2010.04.08 09:46:31.
