data_PCOD8319132
_publ_section_title
;
Structure prediction by ZEFSAII (Michael W. Deem and Ramdas Pophale) SiO2 
 PCOD8319132
Probable space group: P 42/N C M
;
_chemical_formula_sum "Si O2"
_cell_formula_units_Z 128
_cell_length_a 23.567828
_cell_length_b 23.567828
_cell_length_c 11.619945
_cell_angle_alpha 90.000000
_cell_angle_beta 90.000000
_cell_angle_gamma 90.000000
_cell_volume 6454.211494
_symmetry_space_group_name_H-M "P 42/N C M"
_symmetry_group_IT_number 138
_space_group.IT_coordinate_system_code '2'
_symmetry_cell_setting 'tetragonal'
loop_
_space_group_symop_operation_xyz
x,y,z
1/2-y,x,1/2+z
1/2-x,1/2-y,z
y,1/2-x,1/2+z
1/2+x,-y,1/2-z
-x,1/2+y,1/2-z
1/2+y,1/2+x,-z
-y,-x,-z
-x,-y,-z
1/2+y,-x,1/2-z
1/2+x,1/2+y,-z
-y,1/2+x,1/2-z
1/2-x,y,1/2+z
x,1/2-y,1/2+z
1/2-y,1/2-x,z
y,x,z
loop_
_atom_site_type_symbol
_atom_site_label
_atom_site_fract_x
_atom_site_fract_y
_atom_site_fract_z
Si Si1 0.094483 0.777980 0.217984
Si Si2 0.671360 0.580802 0.404498
Si Si3 0.353564 0.550263 0.976607
Si Si4 0.639651 0.947428 0.156901
Si Si5 0.443390 0.917873 0.120418
Si Si6 0.275537 0.012314 0.663280
Si Si7 0.511749 0.600810 0.227884
Si Si8 0.646849 0.330046 0.378369
O O1 0.082397 0.804886 0.093822
O O2 0.136495 0.726213 0.193970
O O3 0.127751 0.819118 0.299801
O O4 0.036155 0.764376 0.283891
O O5 0.647816 0.647816 0.406228
O O6 0.651862 0.550845 0.521134
O O7 0.738661 0.563757 0.396395
O O8 0.643643 0.552927 0.292908
O O9 0.378210 0.498570 0.901410
O O10 0.404240 0.595761 0.000000
O O11 0.323510 0.519462 0.085534
O O12 0.612230 0.887771 0.194555
O O13 0.695534 0.955674 0.230753
O O14 0.593571 0.996572 0.180094
O O15 0.414764 0.856960 0.093810
O O16 0.403251 0.951870 0.207609
O O17 0.451493 0.951493 0.000000
O O18 0.538513 0.538513 0.223857
O O19 0.679629 0.320372 0.500000
#
# Coordination Sequence:
#
# PCOD8319132 Si02
#       8
#    16  16  16  16  16  16  16  16
#     4  12  23  43  61  87 116 162 218 263 315 366
#     4  10  22  40  63  94 124 160 216 269 314 376
#     4  12  25  40  60  92 130 170 210 253 318 399
#     4  11  23  38  62  98 127 158 208 257 309 378
#     4  11  19  34  59  90 125 161 202 252 314 375
#     4  12  23  40  68  90 128 173 204 262 320 379
#     4  11  22  38  59  90 129 165 202 251 318 392
#     4  11  24  39  62  86 113 157 215 269 310 365
#
# _framework density 19.832013
#
# number of rings (size 3 to 8) (size 9 to 14) (size 15 to 20)
#    0.000    0.750    5.000    3.375    1.750    1.500 
#    0.000    0.625    0.000    0.375    0.000    1.750 
#    0.000    0.000    0.000    0.000    0.000    0.000 
#
# Total GULP energy -1586178.070316 kJ/mol
# GULP energy per Si atom -12392.016174 kJ/mol
# Density = 1.978687 g / cm^3
# Si number density = 19.832013 Si / 1000 Ang^3
#
#
#
# Elastic Constant Matrix: (Units=GPa)
#
#
# Indices 1 2 3 4 5 6 
#
# 1 126.1774 0.7295 29.1456 0.0000 0.0000 0.0000
# 2 0.7295 126.1789 29.1600 0.0000 0.0000 0.0000
# 3 29.1456 29.1600 85.5862 0.0000 0.0000 0.0000
# 4 0.0000 0.0000 0.0000 29.7988 0.0000 0.0000
# 5 0.0000 0.0000 0.0000 0.0000 29.7579 0.0000
# 6 0.0000 0.0000 0.0000 0.0000 0.0000 39.7645
#
#
#
# Elastic Compliance Matrix: (Units=1/GPa)
#
#
# Indices 1 2 3 4 5 6 
#
# 1 0.008656 0.000685 -0.003181 0.000000 0.000000 0.000000
# 2 0.000685 0.008657 -0.003183 0.000000 0.000000 0.000000
# 3 -0.003181 -0.003183 0.013852 0.000000 0.000000 0.000000
# 4 0.000000 0.000000 0.000000 0.033558 0.000000 0.000000
# 5 0.000000 0.000000 0.000000 0.000000 0.033605 0.000000
# 6 0.000000 0.000000 0.000000 0.000000 0.000000 0.025148
#
#
# Mechanical properties :
#
#
# Convention : Reuss Voigt Hill
#
# Bulk Modulus (GPa) = 50.48674 50.66807 50.57740
# Shear Modulus (GPa) = 35.35165 38.45805 36.90485
#
# Velocity S-wave (km/s) = 4.22661 4.40840 4.31846
# Velocity P-wave (km/s) = 7.02364 7.17747 7.10097
#
# Compressibility (1/GPa) = 0.01980718
#
# Stress axis : x y z
#
# Youngs Moduli (GPa) = 115.52388 115.51569 72.19247
#
# Poissons Ratio (x) = -0.07914 0.22966
# Poissons Ratio (y) = -0.07915 0.22977
# Poissons Ratio (z) = 0.36751 0.36766
#
# Static dielectric constant tensor:
#      x y z
#    x 132.548230 0.000000 0.000000 
#    y 0.000000 101.086420 0.000000 
#    z 0.000000 0.000000 3.747240 
# 
# 
# High freq. dielectric constant tensor:
#      x y z
#    x 1.761550 0.000000 0.000000 
#    y 0.000000 1.761550 0.000000 
#    z 0.000000 0.000000 1.781930 
# 
# From -- ./inp_files/3346.got.cif
#   From: 2010.03.12/outbox.cif.g09.slc.cpg/sg138_2_cif.got.tgz:3346.got - 2010.04.08 09:41:05.
