data_PCOD8319296
_publ_section_title
;
Structure prediction by ZEFSAII (Michael W. Deem and Ramdas Pophale) SiO2 
 PCOD8319296
Probable space group: I 4/M M M
;
_chemical_formula_sum "Si O2"
_cell_formula_units_Z 160
_cell_length_a 25.838906
_cell_length_b 25.838906
_cell_length_c 18.400423
_cell_angle_alpha 90.000000
_cell_angle_beta 90.000000
_cell_angle_gamma 90.000000
_cell_volume 12285.025180
_symmetry_space_group_name_H-M "I 4/M M M"
_symmetry_group_IT_number 139
_symmetry_cell_setting 'tetragonal'
loop_
_space_group_symop_operation_xyz
x,y,z
-y,x,z
-x,-y,z
y,-x,z
x,-y,-z
-x,y,-z
y,x,-z
-y,-x,-z
-x,-y,-z
y,-x,-z
x,y,-z
-y,x,-z
-x,y,z
x,-y,z
-y,-x,z
y,x,z
1/2+x,1/2+y,1/2+z
1/2-y,1/2+x,1/2+z
1/2-x,1/2-y,1/2+z
1/2+y,1/2-x,1/2+z
1/2+x,1/2-y,1/2-z
1/2-x,1/2+y,1/2-z
1/2+y,1/2+x,1/2-z
1/2-y,1/2-x,1/2-z
1/2-x,1/2-y,1/2-z
1/2+y,1/2-x,1/2-z
1/2+x,1/2+y,1/2-z
1/2-y,1/2+x,1/2-z
1/2-x,1/2+y,1/2+z
1/2+x,1/2-y,1/2+z
1/2-y,1/2-x,1/2+z
1/2+y,1/2+x,1/2+z
loop_
_atom_site_type_symbol
_atom_site_label
_atom_site_fract_x
_atom_site_fract_y
_atom_site_fract_z
Si Si1 0.878057 0.441316 0.302953
Si Si2 0.729912 0.349836 0.762155
Si Si3 0.376496 0.852862 0.917969
Si Si4 0.212630 0.440943 0.190099
Si Si5 0.780684 0.700404 0.365487
O O1 0.887418 0.500000 0.327855
O O2 0.924767 0.424767 0.250000
O O3 0.875524 0.406753 0.374895
O O4 0.825095 0.434989 0.258692
O O5 0.671086 0.328915 0.773317
O O6 0.735200 0.409405 0.788094
O O7 0.746793 0.342107 0.678275
O O8 0.769371 0.316398 0.809171
O O9 0.417598 0.813801 0.881826
O O10 0.318689 0.828351 0.921422
O O11 0.394660 0.863760 0.000000
O O12 0.228019 0.500000 0.174491
O O13 0.741175 0.741175 0.404418
#
# Coordination Sequence:
#
# PCOD8319296 Si02
#       5
#    32  32  32  32  32
#     4   9  17  29  42  53  66  89 124 160 191 222
#     4   8  12  21  39  57  71  91 120 151 178 206
#     4  10  18  26  37  55  77  97 121 150 183 223
#     4   9  16  27  41  54  71  96 124 152 184 220
#     4   8  13  22  36  54  76  97 117 143 174 211
#
# _framework density 13.023986000000001
#
# number of rings (size 3 to 8) (size 9 to 14) (size 15 to 20)
#    0.000    3.200    2.000    1.200    0.000    1.400 
#    0.000    0.000    0.000    0.000    0.000    5.600 
#    0.000    0.400    0.000    0.000    0.000    0.000 
#
# Total GULP energy -991202.943314 kJ/mol
# GULP energy per Si atom -12390.036791 kJ/mol
# Density = 1.299434 g / cm^3
# Si number density = 13.023986 Si / 1000 Ang^3
#
#
#
# Elastic Constant Matrix: (Units=GPa)
#
#
# Indices 1 2 3 4 5 6 
#
# 1 75.8171 51.2461 27.9990 0.0000 0.0000 0.0000
# 2 51.2461 75.8171 27.9990 0.0000 0.0000 0.0000
# 3 27.9990 27.9990 62.3022 0.0000 0.0000 0.0000
# 4 0.0000 0.0000 0.0000 9.9913 0.0000 0.0000
# 5 0.0000 0.0000 0.0000 0.0000 9.9913 0.0000
# 6 0.0000 0.0000 0.0000 0.0000 0.0000 14.1309
#
#
#
# Elastic Compliance Matrix: (Units=1/GPa)
#
#
# Indices 1 2 3 4 5 6 
#
# 1 0.025256 -0.015442 -0.004410 0.000000 0.000000 0.000000
# 2 -0.015442 0.025256 -0.004410 0.000000 0.000000 0.000000
# 3 -0.004410 -0.004410 0.020015 0.000000 0.000000 0.000000
# 4 0.000000 0.000000 0.000000 0.100088 0.000000 0.000000
# 5 0.000000 0.000000 0.000000 0.000000 0.100088 0.000000
# 6 0.000000 0.000000 0.000000 0.000000 0.000000 0.070767
#
#
# Mechanical properties :
#
#
# Convention : Reuss Voigt Hill
#
# Bulk Modulus (GPa) = 45.45255 47.60274 46.52765
# Shear Modulus (GPa) = 12.58402 13.93548 13.25975
#
# Velocity S-wave (km/s) = 3.11178 3.27461 3.19423
# Velocity P-wave (km/s) = 6.91995 7.13631 7.02896
#
# Compressibility (1/GPa) = 0.02200097
#
# Stress axis : x y z
#
# Youngs Moduli (GPa) = 39.59434 39.59434 49.96274
#
# Poissons Ratio (x) = 0.61143 0.22036
# Poissons Ratio (y) = 0.61143 0.22036
# Poissons Ratio (z) = 0.17463 0.17463
#
# Static dielectric constant tensor:
#      x y z
#    x 2.624630 0.000000 0.000000 
#    y 0.000000 2.624630 0.000000 
#    z 0.000000 0.000000 2.396380 
# 
# 
# High freq. dielectric constant tensor:
#      x y z
#    x 1.473660 0.000000 0.000000 
#    y 0.000000 1.473660 0.000000 
#    z 0.000000 0.000000 1.477790 
# 
# From -- ./inp_files/8776.got.cif
#   From: 2010.03.12/outbox.cif.g09.slc.cpg/sg139_5_cif.got.tgz:8776.got - 2010.04.08 09:46:31.
