data_PCOD8319319
_publ_section_title
;
Structure prediction by ZEFSAII (Michael W. Deem and Ramdas Pophale) SiO2 
 PCOD8319319
Probable space group: I 4/M M M
;
_chemical_formula_sum "Si O2"
_cell_formula_units_Z 160
_cell_length_a 32.841109
_cell_length_b 32.841109
_cell_length_c 7.745722
_cell_angle_alpha 90.000000
_cell_angle_beta 90.000000
_cell_angle_gamma 90.000000
_cell_volume 8354.058925
_symmetry_space_group_name_H-M "I 4/M M M"
_symmetry_group_IT_number 139
_symmetry_cell_setting 'tetragonal'
loop_
_space_group_symop_operation_xyz
x,y,z
-y,x,z
-x,-y,z
y,-x,z
x,-y,-z
-x,y,-z
y,x,-z
-y,-x,-z
-x,-y,-z
y,-x,-z
x,y,-z
-y,x,-z
-x,y,z
x,-y,z
-y,-x,z
y,x,z
1/2+x,1/2+y,1/2+z
1/2-y,1/2+x,1/2+z
1/2-x,1/2-y,1/2+z
1/2+y,1/2-x,1/2+z
1/2+x,1/2-y,1/2-z
1/2-x,1/2+y,1/2-z
1/2+y,1/2+x,1/2-z
1/2-y,1/2-x,1/2-z
1/2-x,1/2-y,1/2-z
1/2+y,1/2-x,1/2-z
1/2+x,1/2+y,1/2-z
1/2-y,1/2+x,1/2-z
1/2-x,1/2+y,1/2+z
1/2+x,1/2-y,1/2+z
1/2-y,1/2-x,1/2+z
1/2+y,1/2+x,1/2+z
loop_
_atom_site_type_symbol
_atom_site_label
_atom_site_fract_x
_atom_site_fract_y
_atom_site_fract_z
Si Si1 0.045392 0.390766 0.203552
Si Si2 0.283110 0.283110 0.703348
Si Si3 0.453403 0.386549 0.000000
Si Si4 0.761013 0.871160 0.795956
Si Si5 0.673118 0.109470 0.796869
Si Si6 0.656068 0.410885 0.303340
O O1 0.066426 0.433575 0.250000
O O2 0.072046 0.353300 0.282346
O O3 0.000000 0.389636 0.284381
O O4 0.042770 0.386376 0.000000
O O5 0.287864 0.287864 0.500000
O O6 0.250000 0.250000 0.750000
O O7 0.326523 0.269662 0.783880
O O8 0.444593 0.360698 0.172528
O O9 0.500000 0.399564 0.000000
O O10 0.427822 0.427822 0.000000
O O11 0.718906 0.889565 0.719279
O O12 0.797597 0.901666 0.748854
O O13 0.756989 0.866672 0.000000
O O14 0.652129 0.152129 0.750000
O O15 0.674929 0.103950 0.000000
O O16 0.653208 0.427538 0.500000
O O17 0.630987 0.369014 0.285671
#
# Coordination Sequence:
#
# PCOD8319319 Si02
#       6
#    32  16  16  32  32  32
#     4   9  18  32  49  68  89 114 148 193 245 305
#     4  10  18  28  40  66 104 136 174 225 261 292
#     4  10  22  39  60  88 116 140 180 224 269 335
#     4   9  16  29  48  68  99 139 178 216 257 302
#     4   9  17  30  46  66  95 130 168 208 255 310
#     4   9  17  34  57  80 109 149 186 222 269 314
#
# _framework density 19.152367000000002
#
# number of rings (size 3 to 8) (size 9 to 14) (size 15 to 20)
#    0.000    2.800    1.000    0.600    0.000    1.100 
#    3.600    2.000    0.000    3.600    0.000    2.800 
#    0.000    0.000    0.000    0.000    0.000    0.000 
#
# Total GULP energy -991679.216971 kJ/mol
# GULP energy per Si atom -12395.990212 kJ/mol
# Density = 1.910877 g / cm^3
# Si number density = 19.152367 Si / 1000 Ang^3
#
#
#
# Elastic Constant Matrix: (Units=GPa)
#
#
# Indices 1 2 3 4 5 6 
#
# 1 152.6918 66.8154 27.1766 0.0000 0.0000 0.0000
# 2 66.8154 152.6914 27.1778 0.0000 0.0000 0.0000
# 3 27.1766 27.1778 47.4173 0.0000 0.0000 0.0000
# 4 0.0000 0.0000 0.0000 16.5419 0.0000 0.0000
# 5 0.0000 0.0000 0.0000 0.0000 16.5421 0.0000
# 6 0.0000 0.0000 0.0000 0.0000 0.0000 18.4816
#
#
#
# Elastic Compliance Matrix: (Units=1/GPa)
#
#
# Indices 1 2 3 4 5 6 
#
# 1 0.008477 -0.003168 -0.003043 0.000000 0.000000 0.000000
# 2 -0.003168 0.008477 -0.003043 0.000000 0.000000 0.000000
# 3 -0.003043 -0.003043 0.024577 0.000000 0.000000 0.000000
# 4 0.000000 0.000000 0.000000 0.060452 0.000000 0.000000
# 5 0.000000 0.000000 0.000000 0.000000 0.060452 0.000000
# 6 0.000000 0.000000 0.000000 0.000000 0.000000 0.054108
#
#
# Mechanical properties :
#
#
# Convention : Reuss Voigt Hill
#
# Bulk Modulus (GPa) = 43.43290 66.12667 54.77978
# Shear Modulus (GPa) = 20.59940 25.75517 23.17728
#
# Velocity S-wave (km/s) = 3.28312 3.67106 3.48250
# Velocity P-wave (km/s) = 6.09087 7.25055 6.69586
#
# Compressibility (1/GPa) = 0.02302402
#
# Stress axis : x y z
#
# Youngs Moduli (GPa) = 117.96822 117.96667 40.68767
#
# Poissons Ratio (x) = 0.37369 0.12380
# Poissons Ratio (y) = 0.37369 0.12382
# Poissons Ratio (z) = 0.35895 0.35899
#
# Static dielectric constant tensor:
#      x y z
#    x 3.610290 0.000000 0.000000 
#    y 0.000000 3.610300 0.000000 
#    z 0.000000 0.000000 3.364420 
# 
# 
# High freq. dielectric constant tensor:
#      x y z
#    x 1.734390 0.000000 0.000000 
#    y 0.000000 1.734390 0.000000 
#    z 0.000000 0.000000 1.728230 
# 
# From -- ./inp_files/2191.got.cif
#   From: 2010.03.12/outbox.cif.g09.slc.cpg/sg139_2_cif.got.tgz:2191.got - 2010.04.08 09:46:31.
