data_PCOD8319969
_publ_section_title
;
Structure prediction by ZEFSAII (Michael W. Deem and Ramdas Pophale) SiO2 
 PCOD8319969
Probable space group: I 4/M M M
;
_chemical_formula_sum "Si O2"
_cell_formula_units_Z 160
_cell_length_a 20.601508
_cell_length_b 20.601508
_cell_length_c 19.346577
_cell_angle_alpha 90.000000
_cell_angle_beta 90.000000
_cell_angle_gamma 90.000000
_cell_volume 8211.115455
_symmetry_space_group_name_H-M "I 4/M M M"
_symmetry_group_IT_number 139
_symmetry_cell_setting 'tetragonal'
loop_
_space_group_symop_operation_xyz
x,y,z
-y,x,z
-x,-y,z
y,-x,z
x,-y,-z
-x,y,-z
y,x,-z
-y,-x,-z
-x,-y,-z
y,-x,-z
x,y,-z
-y,x,-z
-x,y,z
x,-y,z
-y,-x,z
y,x,z
1/2+x,1/2+y,1/2+z
1/2-y,1/2+x,1/2+z
1/2-x,1/2-y,1/2+z
1/2+y,1/2-x,1/2+z
1/2+x,1/2-y,1/2-z
1/2-x,1/2+y,1/2-z
1/2+y,1/2+x,1/2-z
1/2-y,1/2-x,1/2-z
1/2-x,1/2-y,1/2-z
1/2+y,1/2-x,1/2-z
1/2+x,1/2+y,1/2-z
1/2-y,1/2+x,1/2-z
1/2-x,1/2+y,1/2+z
1/2+x,1/2-y,1/2+z
1/2-y,1/2-x,1/2+z
1/2+y,1/2+x,1/2+z
loop_
_atom_site_type_symbol
_atom_site_label
_atom_site_fract_x
_atom_site_fract_y
_atom_site_fract_z
Si Si1 0.576018 0.928136 0.825385
Si Si2 0.688843 0.884602 0.420474
Si Si3 0.858481 0.752381 0.924817
Si Si4 0.073402 0.821507 0.812165
Si Si5 0.818783 0.074297 0.345722
O O1 0.500000 0.936622 0.820113
O O2 0.598967 0.901034 0.750000
O O3 0.591617 0.876902 0.884702
O O4 0.606368 0.000000 0.842256
O O5 0.685702 0.906339 0.500000
O O6 0.690029 0.807188 0.410863
O O7 0.754378 0.913745 0.389590
O O8 0.816701 0.816701 0.926715
O O9 0.910144 0.760794 0.862744
O O10 0.893260 0.743192 0.000000
O O11 0.115620 0.884381 0.830072
O O12 0.085750 0.798797 0.733806
O O13 0.000000 0.842909 0.824447
O O14 0.877305 0.122696 0.367947
O O15 0.842414 0.000000 0.357456
#
# Coordination Sequence:
#
# PCOD8319969 Si02
#       5
#    32  32  32  32  32
#     4   9  20  38  57  79 110 149 188 226 275 335
#     4  11  23  37  57  86 115 147 190 238 287 340
#     4   9  19  35  53  76 110 148 182 224 281 340
#     4   9  19  35  55  81 112 149 194 241 291 348
#     4  10  22  39  60  87 117 152 195 244 298 353
#
# _framework density 19.485780999999999
#
# number of rings (size 3 to 8) (size 9 to 14) (size 15 to 20)
#    0.000    2.400    0.000    1.800    2.800    4.800 
#    0.000    8.000    0.000    0.000    0.000    4.200 
#    0.000    0.000    0.000    0.000    0.000    0.000 
#
# Total GULP energy -991507.752188 kJ/mol
# GULP energy per Si atom -12393.846902 kJ/mol
# Density = 1.944143 g / cm^3
# Si number density = 19.485781 Si / 1000 Ang^3
#
#
#
# Elastic Constant Matrix: (Units=GPa)
#
#
# Indices 1 2 3 4 5 6 
#
# 1 95.2108 38.0304 61.1784 0.0000 0.0000 0.0000
# 2 38.0304 95.2108 61.1782 0.0000 0.0000 0.0000
# 3 61.1784 61.1782 126.4506 0.0000 0.0000 0.0000
# 4 0.0000 0.0000 0.0000 150.0952 0.0000 0.0000
# 5 0.0000 0.0000 0.0000 0.0000 149.2260 0.0000
# 6 0.0000 0.0000 0.0000 0.0000 0.0000 26.9172
#
#
#
# Elastic Compliance Matrix: (Units=1/GPa)
#
#
# Indices 1 2 3 4 5 6 
#
# 1 0.015497 -0.001991 -0.006534 0.000000 0.000000 0.000000
# 2 -0.001991 0.015497 -0.006534 0.000000 0.000000 0.000000
# 3 -0.006534 -0.006534 0.014231 0.000000 0.000000 0.000000
# 4 0.000000 0.000000 0.000000 0.006662 0.000000 0.000000
# 5 0.000000 0.000000 0.000000 0.000000 0.006701 0.000000
# 6 0.000000 0.000000 0.000000 0.000000 0.000000 0.037151
#
#
# Mechanical properties :
#
#
# Convention : Reuss Voigt Hill
#
# Bulk Modulus (GPa) = 66.20175 70.84960 68.52568
# Shear Modulus (GPa) = 38.19879 75.68004 56.93942
#
# Velocity S-wave (km/s) = 4.43238 6.23882 5.41151
# Velocity P-wave (km/s) = 7.76162 9.39871 8.61912
#
# Compressibility (1/GPa) = 0.01510534
#
# Stress axis : x y z
#
# Youngs Moduli (GPa) = 64.52838 64.52855 70.26995
#
# Poissons Ratio (x) = 0.12851 0.45916
# Poissons Ratio (y) = 0.12851 0.45915
# Poissons Ratio (z) = 0.42164 0.42164
#
# Static dielectric constant tensor:
#      x y z
#    x 3.328770 0.000000 0.000000 
#    y 0.000000 3.327580 0.000000 
#    z 0.000000 0.000000 4.083370 
# 
# 
# High freq. dielectric constant tensor:
#      x y z
#    x 1.752530 0.000000 0.000000 
#    y 0.000000 1.752530 0.000000 
#    z 0.000000 0.000000 1.766980 
# 
# From -- ./inp_files/8377.got.cif
#   From: 2010.03.12/outbox.cif.g09.slc.cpg/sg139_5_cif.got.tgz:8377.got - 2010.04.08 09:46:31.
