data_PCOD8319759
_publ_section_title
;
Structure prediction by ZEFSAII (Michael W. Deem and Ramdas Pophale) SiO2 
 PCOD8319759
Probable space group: I 4/M M M
;
_chemical_formula_sum "Si O2"
_cell_formula_units_Z 128
_cell_length_a 19.536827
_cell_length_b 19.536827
_cell_length_c 18.655442
_cell_angle_alpha 90.000000
_cell_angle_beta 90.000000
_cell_angle_gamma 90.000000
_cell_volume 7120.551056
_symmetry_space_group_name_H-M "I 4/M M M"
_symmetry_group_IT_number 139
_symmetry_cell_setting 'tetragonal'
loop_
_space_group_symop_operation_xyz
x,y,z
-y,x,z
-x,-y,z
y,-x,z
x,-y,-z
-x,y,-z
y,x,-z
-y,-x,-z
-x,-y,-z
y,-x,-z
x,y,-z
-y,x,-z
-x,y,z
x,-y,z
-y,-x,z
y,x,z
1/2+x,1/2+y,1/2+z
1/2-y,1/2+x,1/2+z
1/2-x,1/2-y,1/2+z
1/2+y,1/2-x,1/2+z
1/2+x,1/2-y,1/2-z
1/2-x,1/2+y,1/2-z
1/2+y,1/2+x,1/2-z
1/2-y,1/2-x,1/2-z
1/2-x,1/2-y,1/2-z
1/2+y,1/2-x,1/2-z
1/2+x,1/2+y,1/2-z
1/2-y,1/2+x,1/2-z
1/2-x,1/2+y,1/2+z
1/2+x,1/2-y,1/2+z
1/2-y,1/2-x,1/2+z
1/2+y,1/2+x,1/2+z
loop_
_atom_site_type_symbol
_atom_site_label
_atom_site_fract_x
_atom_site_fract_y
_atom_site_fract_z
Si Si1 0.679440 0.574707 0.725615
Si Si2 0.270909 0.424476 0.578124
Si Si3 0.920365 0.677370 0.292502
Si Si4 0.180114 0.293406 0.418249
O O1 0.656903 0.500000 0.753873
O O2 0.630208 0.630208 0.763201
O O3 0.671497 0.580843 0.639501
O O4 0.758503 0.588483 0.740310
O O5 0.306092 0.414710 0.500000
O O6 0.235659 0.500000 0.583216
O O7 0.214131 0.367152 0.588447
O O8 0.885449 0.614552 0.250000
O O9 0.885688 0.701648 0.366892
O O10 0.000000 0.659235 0.307128
O O11 0.155889 0.279553 0.500000
O O12 0.233748 0.233748 0.394257
#
# Coordination Sequence:
#
# PCOD8319759 Si02
#       4
#    32  32  32  32
#     4  10  20  33  51  75 102 136 174 212 260 314
#     4   9  17  29  47  74 107 137 167 204 247 304
#     4  11  23  37  54  77 106 142 181 224 273 324
#     4  10  20  34  56  82 106 138 179 223 273 326
#
# _framework density 17.976137000000001
#
# number of rings (size 3 to 8) (size 9 to 14) (size 15 to 20)
#    0.000    2.000    2.500    1.500    0.000    3.500 
#    0.000    0.000    0.000    0.000    0.000    8.750 
#    0.000    0.000    0.000   23.250    0.000    0.000 
#
# Total GULP energy -792871.629162 kJ/mol
# GULP energy per Si atom -12388.619206 kJ/mol
# Density = 1.793522 g / cm^3
# Si number density = 17.976137 Si / 1000 Ang^3
#
#
#
# Elastic Constant Matrix: (Units=GPa)
#
#
# Indices 1 2 3 4 5 6 
#
# 1 98.3308 79.5822 36.8246 0.0000 0.0000 0.0000
# 2 79.5822 98.3315 36.8243 0.0000 0.0000 0.0000
# 3 36.8246 36.8243 78.0583 0.0000 0.0000 0.0000
# 4 0.0000 0.0000 0.0000 20.5245 0.0000 0.0000
# 5 0.0000 0.0000 0.0000 0.0000 20.5244 0.0000
# 6 0.0000 0.0000 0.0000 0.0000 0.0000 23.0324
#
#
#
# Elastic Compliance Matrix: (Units=1/GPa)
#
#
# Indices 1 2 3 4 5 6 
#
# 1 0.030161 -0.023176 -0.003295 0.000000 0.000000 0.000000
# 2 -0.023176 0.030160 -0.003295 0.000000 0.000000 0.000000
# 3 -0.003295 -0.003295 0.015920 0.000000 0.000000 0.000000
# 4 0.000000 0.000000 0.000000 0.048722 0.000000 0.000000
# 5 0.000000 0.000000 0.000000 0.000000 0.048722 0.000000
# 6 0.000000 0.000000 0.000000 0.000000 0.000000 0.043417
#
#
# Mechanical properties :
#
#
# Convention : Reuss Voigt Hill
#
# Bulk Modulus (GPa) = 59.84793 64.57588 62.21190
# Shear Modulus (GPa) = 17.71765 20.91556 19.31660
#
# Velocity S-wave (km/s) = 3.14286 3.41474 3.28162
# Velocity P-wave (km/s) = 6.82169 7.17972 7.00299
#
# Compressibility (1/GPa) = 0.01670902
#
# Stress axis : x y z
#
# Youngs Moduli (GPa) = 33.15566 33.15607 62.81442
#
# Poissons Ratio (x) = 0.76842 0.20699
# Poissons Ratio (y) = 0.76841 0.20697
# Poissons Ratio (z) = 0.10926 0.10925
#
# Static dielectric constant tensor:
#      x y z
#    x 3.269680 0.000000 0.000000 
#    y 0.000000 3.269680 0.000000 
#    z 0.000000 0.000000 3.514010 
# 
# 
# High freq. dielectric constant tensor:
#      x y z
#    x 1.683210 0.000000 0.000000 
#    y 0.000000 1.683210 0.000000 
#    z 0.000000 0.000000 1.699410 
# 
# From -- ./inp_files/7968.got.cif
#   From: 2010.03.12/outbox.cif.g09.slc.cpg/sg139_4_cif.got.tgz:7968.got - 2010.04.08 09:46:31.
