data_PCOD8319534
_publ_section_title
;
Structure prediction by ZEFSAII (Michael W. Deem and Ramdas Pophale) SiO2 
 PCOD8319534
Probable space group: I 4/M M M
;
_chemical_formula_sum "Si O2"
_cell_formula_units_Z 160
_cell_length_a 31.930644
_cell_length_b 31.930644
_cell_length_c 9.024037
_cell_angle_alpha 90.000000
_cell_angle_beta 90.000000
_cell_angle_gamma 90.000000
_cell_volume 9200.601545
_symmetry_space_group_name_H-M "I 4/M M M"
_symmetry_group_IT_number 139
_symmetry_cell_setting 'tetragonal'
loop_
_space_group_symop_operation_xyz
x,y,z
-y,x,z
-x,-y,z
y,-x,z
x,-y,-z
-x,y,-z
y,x,-z
-y,-x,-z
-x,-y,-z
y,-x,-z
x,y,-z
-y,x,-z
-x,y,z
x,-y,z
-y,-x,z
y,x,z
1/2+x,1/2+y,1/2+z
1/2-y,1/2+x,1/2+z
1/2-x,1/2-y,1/2+z
1/2+y,1/2-x,1/2+z
1/2+x,1/2-y,1/2-z
1/2-x,1/2+y,1/2-z
1/2+y,1/2+x,1/2-z
1/2-y,1/2-x,1/2-z
1/2-x,1/2-y,1/2-z
1/2+y,1/2-x,1/2-z
1/2+x,1/2+y,1/2-z
1/2-y,1/2+x,1/2-z
1/2-x,1/2+y,1/2+z
1/2+x,1/2-y,1/2+z
1/2-y,1/2-x,1/2+z
1/2+y,1/2+x,1/2+z
loop_
_atom_site_type_symbol
_atom_site_label
_atom_site_fract_x
_atom_site_fract_y
_atom_site_fract_z
Si Si1 0.582959 0.349602 0.673107
Si Si2 0.146231 0.000000 0.335781
Si Si3 0.000000 0.245362 0.666478
Si Si4 0.253855 0.583493 0.324746
Si Si5 0.384166 0.822982 0.825385
Si Si6 0.547888 0.109123 0.173584
O O1 0.573454 0.351950 0.500000
O O2 0.622772 0.377229 0.719706
O O3 0.541915 0.368449 0.752211
O O4 0.593186 0.301896 0.719807
O O5 0.195817 0.000000 0.343535
O O6 0.126544 0.000000 0.500000
O O7 0.039471 0.261077 0.758089
O O8 0.000000 0.264934 0.500000
O O9 0.247558 0.583712 0.500000
O O10 0.223287 0.616456 0.246513
O O11 0.345104 0.845104 0.750000
O O12 0.426614 0.848592 0.786582
O O13 0.377130 0.819325 0.000000
O O14 0.500000 0.114398 0.229107
O O15 0.568867 0.068867 0.250000
O O16 0.549492 0.100547 0.000000
#
# Coordination Sequence:
#
# PCOD8319534 Si02
#       6
#    32  16  16  32  32  32
#     4   9  18  33  53  76 105 140 172 204 244 294
#     4   9  17  29  47  74 106 137 167 204 245 284
#     4   9  17  29  45  69 100 130 160 194 243 298
#     4  10  19  31  49  75 101 126 163 206 249 298
#     4  10  20  34  51  69  95 129 164 204 254 308
#     4   9  19  34  49  67  91 122 159 199 244 295
#
# _framework density 17.390166000000001
#
# number of rings (size 3 to 8) (size 9 to 14) (size 15 to 20)
#    0.000    2.600    0.000    1.800    1.400    5.000 
#    0.000    1.000    0.000    0.900    0.000    2.100 
#    0.000    0.000    0.000    0.000    0.000    0.000 
#
# Total GULP energy -991862.281549 kJ/mol
# GULP energy per Si atom -12398.278519 kJ/mol
# Density = 1.735059 g / cm^3
# Si number density = 17.390166 Si / 1000 Ang^3
#
#
#
# Elastic Constant Matrix: (Units=GPa)
#
#
# Indices 1 2 3 4 5 6 
#
# 1 104.0664 58.3797 50.1003 0.0000 0.0000 0.0000
# 2 58.3797 104.0664 50.1003 0.0000 0.0000 0.0000
# 3 50.1003 50.1003 85.2918 0.0000 0.0000 0.0000
# 4 0.0000 0.0000 0.0000 24.8708 0.0000 0.0000
# 5 0.0000 0.0000 0.0000 0.0000 24.8708 0.0000
# 6 0.0000 0.0000 0.0000 0.0000 0.0000 17.2485
#
#
#
# Elastic Compliance Matrix: (Units=1/GPa)
#
#
# Indices 1 2 3 4 5 6 
#
# 1 0.015771 -0.006117 -0.005671 0.000000 0.000000 0.000000
# 2 -0.006117 0.015771 -0.005671 0.000000 0.000000 0.000000
# 3 -0.005671 -0.005671 0.018386 0.000000 0.000000 0.000000
# 4 0.000000 0.000000 0.000000 0.040208 0.000000 0.000000
# 5 0.000000 0.000000 0.000000 0.000000 0.040208 0.000000
# 6 0.000000 0.000000 0.000000 0.000000 0.000000 0.057976
#
#
# Mechanical properties :
#
#
# Convention : Reuss Voigt Hill
#
# Bulk Modulus (GPa) = 66.61649 67.84284 67.22966
# Shear Modulus (GPa) = 21.90677 22.38765 22.14721
#
# Velocity S-wave (km/s) = 3.55311 3.59189 3.57255
# Velocity P-wave (km/s) = 7.43121 7.50327 7.46733
#
# Compressibility (1/GPa) = 0.01501130
#
# Stress axis : x y z
#
# Youngs Moduli (GPa) = 63.40790 63.40790 54.38869
#
# Poissons Ratio (x) = 0.38789 0.30841
# Poissons Ratio (y) = 0.38789 0.30841
# Poissons Ratio (z) = 0.35956 0.35956
#
# Static dielectric constant tensor:
#      x y z
#    x 3.107190 0.000000 0.000000 
#    y 0.000000 3.107190 0.000000 
#    z 0.000000 0.000000 3.327660 
# 
# 
# High freq. dielectric constant tensor:
#      x y z
#    x 1.655360 0.000000 0.000000 
#    y 0.000000 1.655360 0.000000 
#    z 0.000000 0.000000 1.680670 
# 
# From -- ./inp_files/2212.got.cif
#   From: 2010.03.12/outbox.cif.g09.slc.cpg/sg139_2_cif.got.tgz:2212.got - 2010.04.08 09:46:31.
