data_PCOD8319407
_publ_section_title
;
Structure prediction by ZEFSAII (Michael W. Deem and Ramdas Pophale) SiO2 
 PCOD8319407
Probable space group: I 4/M M M
;
_chemical_formula_sum "Si O2"
_cell_formula_units_Z 144
_cell_length_a 19.368370
_cell_length_b 19.368370
_cell_length_c 22.281344
_cell_angle_alpha 90.000000
_cell_angle_beta 90.000000
_cell_angle_gamma 90.000000
_cell_volume 8358.484274
_symmetry_space_group_name_H-M "I 4/M M M"
_symmetry_group_IT_number 139
_symmetry_cell_setting 'tetragonal'
loop_
_space_group_symop_operation_xyz
x,y,z
-y,x,z
-x,-y,z
y,-x,z
x,-y,-z
-x,y,-z
y,x,-z
-y,-x,-z
-x,-y,-z
y,-x,-z
x,y,-z
-y,x,-z
-x,y,z
x,-y,z
-y,-x,z
y,x,z
1/2+x,1/2+y,1/2+z
1/2-y,1/2+x,1/2+z
1/2-x,1/2-y,1/2+z
1/2+y,1/2-x,1/2+z
1/2+x,1/2-y,1/2-z
1/2-x,1/2+y,1/2-z
1/2+y,1/2+x,1/2-z
1/2-y,1/2-x,1/2-z
1/2-x,1/2-y,1/2-z
1/2+y,1/2-x,1/2-z
1/2+x,1/2+y,1/2-z
1/2-y,1/2+x,1/2-z
1/2-x,1/2+y,1/2+z
1/2+x,1/2-y,1/2+z
1/2-y,1/2-x,1/2+z
1/2+y,1/2+x,1/2+z
loop_
_atom_site_type_symbol
_atom_site_label
_atom_site_fract_x
_atom_site_fract_y
_atom_site_fract_z
Si Si1 0.138107 0.747512 0.735033
Si Si2 0.579347 0.309377 0.352127
Si Si3 0.829690 0.281905 0.929523
Si Si4 0.688508 0.423901 0.000000
Si Si5 0.578202 0.213236 0.112013
O O1 0.196339 0.803662 0.720876
O O2 0.174388 0.674388 0.750000
O O3 0.090995 0.767908 0.790872
O O4 0.086786 0.744149 0.678337
O O5 0.500000 0.325039 0.362899
O O6 0.617362 0.382639 0.349550
O O7 0.606750 0.264020 0.407503
O O8 0.757562 0.242439 0.911397
O O9 0.838567 0.357377 0.898560
O O10 0.834614 0.290934 0.000000
O O11 0.730972 0.410427 0.060210
O O12 0.658075 0.500000 0.000000
O O13 0.624076 0.375925 0.000000
O O14 0.500000 0.181185 0.106439
#
# Coordination Sequence:
#
# PCOD8319407 Si02
#       5
#    32  32  32  16  32
#     4  10  18  31  53  78 104 137 178 223 263 303
#     4  10  21  36  55  81 109 139 175 214 264 320
#     4  10  19  33  55  78 103 136 176 223 264 308
#     4  10  20  31  46  70 103 141 176 212 254 300
#     4  11  20  30  49  78 107 135 170 218 267 306
#
# _framework density 17.228003999999999
#
# number of rings (size 3 to 8) (size 9 to 14) (size 15 to 20)
#    0.000    1.778    3.333    2.667    0.000    0.778 
#    0.000    0.000    0.000    0.667    0.000    9.333 
#    0.000    0.000    0.000    0.000    0.000    0.000 
#
# Total GULP energy -892414.356750 kJ/mol
# GULP energy per Si atom -12394.643844 kJ/mol
# Density = 1.718879 g / cm^3
# Si number density = 17.228004 Si / 1000 Ang^3
#
#
#
# Elastic Constant Matrix: (Units=GPa)
#
#
# Indices 1 2 3 4 5 6 
#
# 1 100.9087 33.2546 21.3321 0.0000 0.0000 0.0000
# 2 33.2546 100.9078 21.3319 0.0000 0.0000 0.0000
# 3 21.3321 21.3319 60.8170 0.0000 0.0000 0.0000
# 4 0.0000 0.0000 0.0000 12.3033 0.0000 0.0000
# 5 0.0000 0.0000 0.0000 0.0000 12.3076 0.0000
# 6 0.0000 0.0000 0.0000 0.0000 0.0000 13.0581
#
#
#
# Elastic Compliance Matrix: (Units=1/GPa)
#
#
# Indices 1 2 3 4 5 6 
#
# 1 0.011585 -0.003196 -0.002943 0.000000 0.000000 0.000000
# 2 -0.003196 0.011585 -0.002943 0.000000 0.000000 0.000000
# 3 -0.002943 -0.002943 0.018507 0.000000 0.000000 0.000000
# 4 0.000000 0.000000 0.000000 0.081279 0.000000 0.000000
# 5 0.000000 0.000000 0.000000 0.000000 0.081251 0.000000
# 6 0.000000 0.000000 0.000000 0.000000 0.000000 0.076581
#
#
# Mechanical properties :
#
#
# Convention : Reuss Voigt Hill
#
# Bulk Modulus (GPa) = 42.52550 46.05229 44.28890
# Shear Modulus (GPa) = 16.29787 19.98148 18.13968
#
# Velocity S-wave (km/s) = 3.07907 3.40932 3.24839
# Velocity P-wave (km/s) = 6.11379 6.50285 6.31132
#
# Compressibility (1/GPa) = 0.02351530
#
# Stress axis : x y z
#
# Youngs Moduli (GPa) = 86.31685 86.31613 54.03345
#
# Poissons Ratio (x) = 0.27586 0.15900
# Poissons Ratio (y) = 0.27586 0.15900
# Poissons Ratio (z) = 0.25400 0.25400
#
# Static dielectric constant tensor:
#      x y z
#    x 3.127920 0.000000 0.000000 
#    y 0.000000 3.127910 0.000000 
#    z 0.000000 0.000000 3.378160 
# 
# 
# High freq. dielectric constant tensor:
#      x y z
#    x 1.643470 0.000000 0.000000 
#    y 0.000000 1.643470 0.000000 
#    z 0.000000 0.000000 1.689530 
# 
# From -- ./inp_files/11493.got.cif
#   From: 2010.03.12/outbox.cif.g09.slc.cpg/sg139_6_cif.got.tgz:11493.got - 2010.04.08 09:46:31.
