data_PCOD8319953
_publ_section_title
;
Structure prediction by ZEFSAII (Michael W. Deem and Ramdas Pophale) SiO2 
 PCOD8319953
Probable space group: I 4/M M M
;
_chemical_formula_sum "Si O2"
_cell_formula_units_Z 112
_cell_length_a 17.974504
_cell_length_b 17.974504
_cell_length_c 17.282918
_cell_angle_alpha 90.000000
_cell_angle_beta 90.000000
_cell_angle_gamma 90.000000
_cell_volume 5583.813437
_symmetry_space_group_name_H-M "I 4/M M M"
_symmetry_group_IT_number 139
_symmetry_cell_setting 'tetragonal'
loop_
_space_group_symop_operation_xyz
x,y,z
-y,x,z
-x,-y,z
y,-x,z
x,-y,-z
-x,y,-z
y,x,-z
-y,-x,-z
-x,-y,-z
y,-x,-z
x,y,-z
-y,x,-z
-x,y,z
x,-y,z
-y,-x,z
y,x,z
1/2+x,1/2+y,1/2+z
1/2-y,1/2+x,1/2+z
1/2-x,1/2-y,1/2+z
1/2+y,1/2-x,1/2+z
1/2+x,1/2-y,1/2-z
1/2-x,1/2+y,1/2-z
1/2+y,1/2+x,1/2-z
1/2-y,1/2-x,1/2-z
1/2-x,1/2-y,1/2-z
1/2+y,1/2-x,1/2-z
1/2+x,1/2+y,1/2-z
1/2-y,1/2+x,1/2-z
1/2-x,1/2+y,1/2+z
1/2+x,1/2-y,1/2+z
1/2-y,1/2-x,1/2+z
1/2+y,1/2+x,1/2+z
loop_
_atom_site_type_symbol
_atom_site_label
_atom_site_fract_x
_atom_site_fract_y
_atom_site_fract_z
Si Si1 0.000000 0.412244 0.589192
Si Si2 0.653503 0.855414 0.841161
Si Si3 0.301362 0.301362 0.091777
Si Si4 0.917750 0.082251 0.407936
Si Si5 0.583295 0.296530 0.589699
O O1 0.926720 0.380482 0.629227
O O2 0.000000 0.500000 0.598918
O O3 0.000000 0.387666 0.500000
O O4 0.651045 0.848956 0.750000
O O5 0.675264 0.778177 0.878857
O O6 0.718636 0.912367 0.864638
O O7 0.359845 0.359845 0.127375
O O8 0.301491 0.301491 0.000000
O O9 0.916008 0.083993 0.500000
O O10 0.000000 0.103896 0.378388
O O11 0.599307 0.279716 0.500000
O O12 0.500000 0.328544 0.601360
O O13 0.642344 0.357657 0.621027
#
# Coordination Sequence:
#
# PCOD8319953 Si02
#       5
#    16  32  16  16  32
#     4  11  26  46  70  96 127 169 219 264 322 398
#     4  12  26  41  64  94 130 170 212 268 326 384
#     4  11  22  39  64  92 126 167 220 266 314 386
#     4   8  16  32  55  84 117 156 204 262 318 365
#     4  10  21  40  67  95 126 163 208 260 319 383
#
# _framework density 20.057977000000001
#
# number of rings (size 3 to 8) (size 9 to 14) (size 15 to 20)
#    0.000    1.429    1.429    4.286    6.000    2.571 
#    0.000    1.429    0.000    0.000    0.000    0.000 
#    0.000    0.000    0.000    0.000    0.000    0.000 
#
# Total GULP energy -694449.294183 kJ/mol
# GULP energy per Si atom -12400.880253 kJ/mol
# Density = 2.001232 g / cm^3
# Si number density = 20.057977 Si / 1000 Ang^3
#
#
#
# Elastic Constant Matrix: (Units=GPa)
#
#
# Indices 1 2 3 4 5 6 
#
# 1 136.5355 39.9408 39.0354 0.0000 0.0000 0.0000
# 2 39.9408 136.5341 39.0344 0.0000 0.0000 0.0000
# 3 39.0354 39.0344 100.5020 0.0000 0.0000 0.0000
# 4 0.0000 0.0000 0.0000 -37.4844 0.0000 0.0000
# 5 0.0000 0.0000 0.0000 0.0000 -37.4764 0.0000
# 6 0.0000 0.0000 0.0000 0.0000 0.0000 43.1683
#
#
#
# Elastic Compliance Matrix: (Units=1/GPa)
#
#
# Indices 1 2 3 4 5 6 
#
# 1 0.008597 -0.001755 -0.002658 0.000000 0.000000 0.000000
# 2 -0.001755 0.008597 -0.002657 0.000000 0.000000 0.000000
# 3 -0.002658 -0.002657 0.012014 0.000000 0.000000 0.000000
# 4 0.000000 0.000000 0.000000 -0.026678 0.000000 0.000000
# 5 0.000000 0.000000 0.000000 0.000000 -0.026683 0.000000
# 6 0.000000 0.000000 0.000000 0.000000 0.000000 0.023165
#
#
# Mechanical properties :
#
#
# Convention : Reuss Voigt Hill
#
# Bulk Modulus (GPa) = 66.36260 67.73251 67.04756
# Shear Modulus (GPa) = 275.08304 10.67890 142.88097
#
# Velocity S-wave (km/s) = 11.72355 2.30989 8.44918
# Velocity P-wave (km/s) = 14.71098 6.39967 11.34391
#
# Compressibility (1/GPa) = 0.01506873
#
# Stress axis : x y z
#
# Youngs Moduli (GPa) = 116.31494 116.31435 83.23367
#
# Poissons Ratio (x) = 0.20416 0.22119
# Poissons Ratio (y) = 0.20416 0.22119
# Poissons Ratio (z) = 0.30911 0.30910
#
# Static dielectric constant tensor:
#      x y z
#    x 3.838680 0.000000 0.000000 
#    y 0.000000 3.838670 0.000000 
#    z 0.000000 0.000000 3.517410 
# 
# 
# High freq. dielectric constant tensor:
#      x y z
#    x 1.798310 0.000000 0.000000 
#    y 0.000000 1.798310 0.000000 
#    z 0.000000 0.000000 1.765850 
# 
# From -- ./inp_files/7619.got.cif
#   From: 2010.03.12/outbox.cif.g09.slc.cpg/sg139_4_cif.got.tgz:7619.got - 2010.04.08 09:46:31.
