data_PCOD8319564
_publ_section_title
;
Structure prediction by ZEFSAII (Michael W. Deem and Ramdas Pophale) SiO2 
 PCOD8319564
Probable space group: I 4/M M M
;
_chemical_formula_sum "Si O2"
_cell_formula_units_Z 240
_cell_length_a 20.783509
_cell_length_b 20.783509
_cell_length_c 30.778670
_cell_angle_alpha 90.000000
_cell_angle_beta 90.000000
_cell_angle_gamma 90.000000
_cell_volume 13294.977204
_symmetry_space_group_name_H-M "I 4/M M M"
_symmetry_group_IT_number 139
_symmetry_cell_setting 'tetragonal'
loop_
_space_group_symop_operation_xyz
x,y,z
-y,x,z
-x,-y,z
y,-x,z
x,-y,-z
-x,y,-z
y,x,-z
-y,-x,-z
-x,-y,-z
y,-x,-z
x,y,-z
-y,x,-z
-x,y,z
x,-y,z
-y,-x,z
y,x,z
1/2+x,1/2+y,1/2+z
1/2-y,1/2+x,1/2+z
1/2-x,1/2-y,1/2+z
1/2+y,1/2-x,1/2+z
1/2+x,1/2-y,1/2-z
1/2-x,1/2+y,1/2-z
1/2+y,1/2+x,1/2-z
1/2-y,1/2-x,1/2-z
1/2-x,1/2-y,1/2-z
1/2+y,1/2-x,1/2-z
1/2+x,1/2+y,1/2-z
1/2-y,1/2+x,1/2-z
1/2-x,1/2+y,1/2+z
1/2+x,1/2-y,1/2+z
1/2-y,1/2-x,1/2+z
1/2+y,1/2+x,1/2+z
loop_
_atom_site_type_symbol
_atom_site_label
_atom_site_fract_x
_atom_site_fract_y
_atom_site_fract_z
Si Si1 0.425994 0.258818 0.250584
Si Si2 0.070967 0.726500 0.097061
Si Si3 0.071955 0.172625 0.166030
Si Si4 0.198768 0.695792 0.050990
Si Si5 0.427699 0.106583 0.656165
Si Si6 0.927554 0.824006 0.336474
Si Si7 0.428768 0.801239 0.108449
Si Si8 0.123362 0.623362 0.250000
O O1 0.500000 0.236731 0.255368
O O2 0.396637 0.283910 0.296040
O O3 0.418794 0.314997 0.215007
O O4 0.385481 0.197041 0.236206
O O5 0.077046 0.796097 0.118588
O O6 0.126893 0.720431 0.061545
O O7 0.078126 0.678632 0.137859
O O8 0.000000 0.717778 0.075034
O O9 0.104271 0.104271 0.162502
O O10 0.000000 0.159091 0.180952
O O11 0.253046 0.746955 0.067776
O O12 0.206274 0.625414 0.071769
O O13 0.205610 0.687275 0.000000
O O14 0.500000 0.079106 0.645883
O O15 0.371035 0.067824 0.631928
O O16 0.419881 0.105226 0.708231
O O17 0.877774 0.877774 0.353836
O O18 0.913627 0.754532 0.357203
O O19 0.000000 0.847384 0.347618
O O20 0.500000 0.791227 0.087674
#
# Coordination Sequence:
#
# PCOD8319564 Si02
#       8
#    32  32  32  32  32  32  32  16
#     4  10  20  33  47  69 102 138 175 217 260 300
#     4   9  18  34  54  77 105 135 165 204 257 310
#     4  10  19  32  50  71  99 135 173 214 259 305
#     4  10  21  37  58  83 107 131 168 214 252 305
#     4  10  20  33  51  74 102 139 179 218 254 294
#     4  10  20  35  54  75 103 138 177 221 267 313
#     4  10  21  37  55  76 106 140 170 211 265 314
#     4  12  18  30  51  75 102 140 184 218 253 299
#
# _framework density 18.051931
#
# number of rings (size 3 to 8) (size 9 to 14) (size 15 to 20)
#    0.000    2.000    2.667    1.600    0.000    1.600 
#    0.000    2.667    0.000    4.200    0.000    3.733 
#    0.000    0.000    0.000   24.800    0.000    0.000 
#
# Total GULP energy -1487301.387301 kJ/mol
# GULP energy per Si atom -12394.178228 kJ/mol
# Density = 1.801084 g / cm^3
# Si number density = 18.051931 Si / 1000 Ang^3
#
#
#
# Elastic Constant Matrix: (Units=GPa)
#
#
# Indices 1 2 3 4 5 6 
#
# 1 99.5802 67.8762 30.2992 0.0000 0.0000 0.0000
# 2 67.8762 99.5802 30.2992 0.0000 0.0000 0.0000
# 3 30.2992 30.2992 64.3434 0.0000 0.0000 0.0000
# 4 0.0000 0.0000 0.0000 20.8089 0.0000 0.0000
# 5 0.0000 0.0000 0.0000 0.0000 20.8089 0.0000
# 6 0.0000 0.0000 0.0000 0.0000 0.0000 26.4321
#
#
#
# Elastic Compliance Matrix: (Units=1/GPa)
#
#
# Indices 1 2 3 4 5 6 
#
# 1 0.019370 -0.012172 -0.003390 0.000000 0.000000 0.000000
# 2 -0.012172 0.019370 -0.003390 0.000000 0.000000 0.000000
# 3 -0.003390 -0.003390 0.018734 0.000000 0.000000 0.000000
# 4 0.000000 0.000000 0.000000 0.048056 0.000000 0.000000
# 5 0.000000 0.000000 0.000000 0.000000 0.048056 0.000000
# 6 0.000000 0.000000 0.000000 0.000000 0.000000 0.037833
#
#
# Mechanical properties :
#
#
# Convention : Reuss Voigt Hill
#
# Bulk Modulus (GPa) = 51.09351 57.82809 54.46080
# Shear Modulus (GPa) = 21.20031 22.61194 21.90613
#
# Velocity S-wave (km/s) = 3.43068 3.54306 3.48732
# Velocity P-wave (km/s) = 6.63761 6.98867 6.81540
#
# Compressibility (1/GPa) = 0.01957196
#
# Stress axis : x y z
#
# Youngs Moduli (GPa) = 51.62616 51.62616 53.37884
#
# Poissons Ratio (x) = 0.62838 0.18094
# Poissons Ratio (y) = 0.62838 0.18094
# Poissons Ratio (z) = 0.17500 0.17500
#
# Static dielectric constant tensor:
#      x y z
#    x 3.366500 0.000000 0.000000 
#    y 0.000000 3.366500 0.000000 
#    z 0.000000 0.000000 3.010230 
# 
# 
# High freq. dielectric constant tensor:
#      x y z
#    x 1.698520 0.000000 0.000000 
#    y 0.000000 1.698520 0.000000 
#    z 0.000000 0.000000 1.671370 
# 
# From -- ./inp_files/14611.got.cif
#   From: 2010.03.12/outbox.cif.g09.slc.cpg/sg139_8_cif.got.tgz:14611.got - 2010.04.08 09:46:31.
