data_PCOD8319210
_publ_section_title
;
Structure prediction by ZEFSAII (Michael W. Deem and Ramdas Pophale) SiO2 
 PCOD8319210
Probable space group: P 42/N C M
;
_chemical_formula_sum "Si O2"
_cell_formula_units_Z 72
_cell_length_a 17.074585
_cell_length_b 17.074585
_cell_length_c 11.510221
_cell_angle_alpha 90.000000
_cell_angle_beta 90.000000
_cell_angle_gamma 90.000000
_cell_volume 3355.706554
_symmetry_space_group_name_H-M "P 42/N C M"
_symmetry_group_IT_number 138
_space_group.IT_coordinate_system_code '2'
_symmetry_cell_setting 'tetragonal'
loop_
_space_group_symop_operation_xyz
x,y,z
1/2-y,x,1/2+z
1/2-x,1/2-y,z
y,1/2-x,1/2+z
1/2+x,-y,1/2-z
-x,1/2+y,1/2-z
1/2+y,1/2+x,-z
-y,-x,-z
-x,-y,-z
1/2+y,-x,1/2-z
1/2+x,1/2+y,-z
-y,1/2+x,1/2-z
1/2-x,y,1/2+z
x,1/2-y,1/2+z
1/2-y,1/2-x,z
y,x,z
loop_
_atom_site_type_symbol
_atom_site_label
_atom_site_fract_x
_atom_site_fract_y
_atom_site_fract_z
Si Si1 0.400946 0.099055 0.286396
Si Si2 0.622736 0.240153 0.761444
Si Si3 0.391281 0.108720 0.561849
Si Si4 0.029098 0.029098 0.256259
Si Si5 0.465481 0.647801 0.566917
Si Si6 0.731448 0.535249 0.365606
O O1 0.399321 0.100680 0.424672
O O2 0.315528 0.075032 0.240105
O O3 0.463235 0.036766 0.238406
O O4 0.669492 0.320737 0.778133
O O5 0.587327 0.220066 0.888044
O O6 0.554761 0.248196 0.665528
O O7 0.451612 0.048389 0.622436
O O8 0.410687 0.195161 0.606418
O O9 0.001813 0.108621 0.318625
O O10 0.415941 0.584060 0.500000
O O11 0.533224 0.678971 0.482241
#
# Coordination Sequence:
#
# PCOD8319210 Si02
#       6
#     8  16   8   8  16  16
#     4  12  26  51  74 106 145 183 242 301 351 427
#     4  11  23  41  65 103 148 186 231 290 362 434
#     4  12  29  46  73 107 149 193 227 303 365 417
#     4  12  23  46  78 108 135 192 251 294 346 425
#     4  12  22  42  73 104 137 188 238 296 349 419
#     4  12  26  48  72 106 145 183 246 292 359 429
#
# _framework density 21.455988999999999
#
# number of rings (size 3 to 8) (size 9 to 14) (size 15 to 20)
#    0.000    0.222    6.667    2.667    0.000    1.333 
#    4.000    1.111    0.000    0.000    0.000    0.000 
#    0.000    0.000    0.000    0.000    0.000    0.000 
#
# Total GULP energy -893129.043999 kJ/mol
# GULP energy per Si atom -12404.570056 kJ/mol
# Density = 2.140715 g / cm^3
# Si number density = 21.455989 Si / 1000 Ang^3
#
#
#
# Elastic Constant Matrix: (Units=GPa)
#
#
# Indices 1 2 3 4 5 6 
#
# 1 108.0348 71.2900 52.8875 0.0000 0.0000 0.0000
# 2 71.2900 108.0334 52.8867 0.0000 0.0000 0.0000
# 3 52.8875 52.8867 142.0534 0.0000 0.0000 0.0000
# 4 0.0000 0.0000 0.0000 33.6648 0.0000 0.0000
# 5 0.0000 0.0000 0.0000 0.0000 33.6640 0.0000
# 6 0.0000 0.0000 0.0000 0.0000 0.0000 42.4873
#
#
#
# Elastic Compliance Matrix: (Units=1/GPa)
#
#
# Indices 1 2 3 4 5 6 
#
# 1 0.017180 -0.010035 -0.002660 0.000000 0.000000 0.000000
# 2 -0.010035 0.017181 -0.002660 0.000000 0.000000 0.000000
# 3 -0.002660 -0.002660 0.009021 0.000000 0.000000 0.000000
# 4 0.000000 0.000000 0.000000 0.029705 0.000000 0.000000
# 5 0.000000 0.000000 0.000000 0.000000 0.029705 0.000000
# 6 0.000000 0.000000 0.000000 0.000000 0.000000 0.023536
#
#
# Mechanical properties :
#
#
# Convention : Reuss Voigt Hill
#
# Bulk Modulus (GPa) = 78.92374 79.13890 79.03132
# Shear Modulus (GPa) = 31.00537 34.03373 32.51955
#
# Velocity S-wave (km/s) = 3.80553 3.98705 3.89735
# Velocity P-wave (km/s) = 7.49488 7.62625 7.56085
#
# Compressibility (1/GPa) = 0.01267046
#
# Stress axis : x y z
#
# Youngs Moduli (GPa) = 58.20583 58.20530 110.85799
#
# Poissons Ratio (x) = 0.58408 0.29493
# Poissons Ratio (y) = 0.58408 0.29492
# Poissons Ratio (z) = 0.15485 0.15485
#
# Static dielectric constant tensor:
#      x y z
#    x 3.958770 0.000000 0.000000 
#    y 0.000000 3.958770 0.000000 
#    z 0.000000 0.000000 4.036410 
# 
# 
# High freq. dielectric constant tensor:
#      x y z
#    x 1.845370 0.000000 0.000000 
#    y 0.000000 1.845370 0.000000 
#    z 0.000000 0.000000 1.850910 
# 
# From -- ./inp_files/2854.got.cif
#   From: 2010.03.12/outbox.cif.g09.slc.cpg/sg138_2_cif.got.tgz:2854.got - 2010.04.08 09:41:05.
