data_PCOD8319022
_publ_section_title
;
Structure prediction by ZEFSAII (Michael W. Deem and Ramdas Pophale) SiO2 
 PCOD8319022
Probable space group: P 42/N C M
;
_chemical_formula_sum "Si O2"
_cell_formula_units_Z 36
_cell_length_a 9.771076
_cell_length_b 9.771076
_cell_length_c 20.059134
_cell_angle_alpha 90.000000
_cell_angle_beta 90.000000
_cell_angle_gamma 90.000000
_cell_volume 1915.124279
_symmetry_space_group_name_H-M "P 42/N C M"
_symmetry_group_IT_number 138
_space_group.IT_coordinate_system_code '2'
_symmetry_cell_setting 'tetragonal'
loop_
_space_group_symop_operation_xyz
x,y,z
1/2-y,x,1/2+z
1/2-x,1/2-y,z
y,1/2-x,1/2+z
1/2+x,-y,1/2-z
-x,1/2+y,1/2-z
1/2+y,1/2+x,-z
-y,-x,-z
-x,-y,-z
1/2+y,-x,1/2-z
1/2+x,1/2+y,-z
-y,1/2+x,1/2-z
1/2-x,y,1/2+z
x,1/2-y,1/2+z
1/2-y,1/2-x,z
y,x,z
loop_
_atom_site_type_symbol
_atom_site_label
_atom_site_fract_x
_atom_site_fract_y
_atom_site_fract_z
Si Si1 0.616219 0.883782 0.746000
Si Si2 0.092122 0.092122 0.047066
Si Si3 0.885509 0.885509 0.503757
Si Si4 0.907028 0.907028 0.800354
Si Si5 0.750000 0.750000 0.124597
O O1 0.749139 0.940634 0.784503
O O2 0.654820 0.845181 0.670241
O O3 0.500822 0.999179 0.746840
O O4 0.058985 0.058985 0.123396
O O5 0.250861 0.058788 0.033316
O O6 0.000000 0.000000 0.000000
O O7 0.846776 0.846776 0.579687
O O8 0.000000 0.000000 0.500000
#
# Coordination Sequence:
#
# PCOD8319022 Si02
#       5
#     8   8   8   8   4
#     4  10  21  36  58  78 111 146 184 232 270 331
#     4  10  21  38  57  80 115 145 177 229 278 329
#     4  10  20  35  57  82 108 146 186 227 273 329
#     4  10  21  39  56  82 108 146 186 224 279 323
#     4   8  18  36  54  80 110 142 182 230 280 320
#
# _framework density 18.797734999999999
#
# number of rings (size 3 to 8) (size 9 to 14) (size 15 to 20)
#    0.000    2.667    0.000    5.333    0.000    8.889 
#    0.000    4.444    0.000    0.000    0.000    0.000 
#    0.000    0.000    0.000    0.000    0.000    0.000 
#
# Total GULP energy -446377.209554 kJ/mol
# GULP energy per Si atom -12399.366932 kJ/mol
# Density = 1.875495 g / cm^3
# Si number density = 18.797735 Si / 1000 Ang^3
#
#
#
# Elastic Constant Matrix: (Units=GPa)
#
#
# Indices 1 2 3 4 5 6 
#
# 1 110.9635 101.4718 36.9912 0.0000 0.0000 0.0000
# 2 101.4718 110.9635 36.9912 0.0000 0.0000 0.0000
# 3 36.9912 36.9912 126.3324 0.0000 0.0000 0.0000
# 4 0.0000 0.0000 0.0000 23.2080 0.0000 0.0000
# 5 0.0000 0.0000 0.0000 0.0000 23.2080 0.0000
# 6 0.0000 0.0000 0.0000 0.0000 0.0000 58.1576
#
#
#
# Elastic Compliance Matrix: (Units=1/GPa)
#
#
# Indices 1 2 3 4 5 6 
#
# 1 0.055299 -0.050057 -0.001535 0.000000 0.000000 0.000000
# 2 -0.050057 0.055299 -0.001535 0.000000 0.000000 0.000000
# 3 -0.001535 -0.001535 0.008814 0.000000 0.000000 0.000000
# 4 0.000000 0.000000 0.000000 0.043089 0.000000 0.000000
# 5 0.000000 0.000000 0.000000 0.000000 0.043089 0.000000
# 6 0.000000 0.000000 0.000000 0.000000 0.000000 0.017195
#
#
# Mechanical properties :
#
#
# Convention : Reuss Voigt Hill
#
# Bulk Modulus (GPa) = 75.99524 77.68534 76.84029
# Shear Modulus (GPa) = 14.99598 32.43508 23.71553
#
# Velocity S-wave (km/s) = 2.82752 4.15839 3.55578
# Velocity P-wave (km/s) = 7.15370 8.02951 7.60422
#
# Compressibility (1/GPa) = 0.01315872
#
# Stress axis : x y z
#
# Youngs Moduli (GPa) = 18.08362 18.08362 113.44990
#
# Poissons Ratio (x) = 0.90521 0.17413
# Poissons Ratio (y) = 0.90521 0.17413
# Poissons Ratio (z) = 0.02776 0.02776
#
# Static dielectric constant tensor:
#      x y z
#    x 3.048610 0.000000 0.000000 
#    y 0.000000 3.048610 0.000000 
#    z 0.000000 0.000000 3.523230 
# 
# 
# High freq. dielectric constant tensor:
#      x y z
#    x 1.721920 0.000000 0.000000 
#    y 0.000000 1.721920 0.000000 
#    z 0.000000 0.000000 1.745040 
# 
# From -- ./inp_files/5574.got.cif
#   From: 2010.03.12/outbox.cif.g09.slc.cpg/sg138_3_cif.got.tgz:5574.got - 2010.04.08 09:41:05.
