data_PCOD8319929
_publ_section_title
;
Structure prediction by ZEFSAII (Michael W. Deem and Ramdas Pophale) SiO2 
 PCOD8319929
Probable space group: I 4/M M M
;
_chemical_formula_sum "Si O2"
_cell_formula_units_Z 160
_cell_length_a 23.173962
_cell_length_b 23.173962
_cell_length_c 14.473675
_cell_angle_alpha 90.000000
_cell_angle_beta 90.000000
_cell_angle_gamma 90.000000
_cell_volume 7772.834083
_symmetry_space_group_name_H-M "I 4/M M M"
_symmetry_group_IT_number 139
_symmetry_cell_setting 'tetragonal'
loop_
_space_group_symop_operation_xyz
x,y,z
-y,x,z
-x,-y,z
y,-x,z
x,-y,-z
-x,y,-z
y,x,-z
-y,-x,-z
-x,-y,-z
y,-x,-z
x,y,-z
-y,x,-z
-x,y,z
x,-y,z
-y,-x,z
y,x,z
1/2+x,1/2+y,1/2+z
1/2-y,1/2+x,1/2+z
1/2-x,1/2-y,1/2+z
1/2+y,1/2-x,1/2+z
1/2+x,1/2-y,1/2-z
1/2-x,1/2+y,1/2-z
1/2+y,1/2+x,1/2-z
1/2-y,1/2-x,1/2-z
1/2-x,1/2-y,1/2-z
1/2+y,1/2-x,1/2-z
1/2+x,1/2+y,1/2-z
1/2-y,1/2+x,1/2-z
1/2-x,1/2+y,1/2+z
1/2+x,1/2-y,1/2+z
1/2-y,1/2-x,1/2+z
1/2+y,1/2+x,1/2+z
loop_
_atom_site_type_symbol
_atom_site_label
_atom_site_fract_x
_atom_site_fract_y
_atom_site_fract_z
Si Si1 0.171490 0.171490 0.398351
Si Si2 0.814613 0.500000 0.892436
Si Si3 0.347045 0.652956 0.301393
Si Si4 0.564938 0.435063 0.609191
Si Si5 0.271209 0.875802 0.894172
Si Si6 0.000000 0.407231 0.739695
Si Si7 0.297776 0.873770 0.395556
Si Si8 0.000000 0.314742 0.898507
O O1 0.148786 0.148786 0.500000
O O2 0.142194 0.142194 0.308840
O O3 0.161473 0.239159 0.390603
O O4 0.881637 0.500000 0.864024
O O5 0.790790 0.438450 0.849217
O O6 0.802599 0.500000 0.000000
O O7 0.390084 0.609917 0.351030
O O8 0.280925 0.641570 0.327673
O O9 0.580546 0.500000 0.641942
O O10 0.568766 0.431234 0.500000
O O11 0.330786 0.847048 0.854403
O O12 0.274154 0.944557 0.889570
O O13 0.259867 0.854884 0.000000
O O14 0.942743 0.442743 0.750000
O O15 0.000000 0.360019 0.817950
O O16 0.317034 0.886867 0.500000
O O17 0.000000 0.345250 0.000000
#
# Coordination Sequence:
#
# PCOD8319929 Si02
#       8
#    16  16  16  16  32  16  32  16
#     4  10  23  42  60  87 121 159 204 257 309 360
#     4  10  21  39  65  88 114 162 212 260 309 371
#     4  12  24  36  63  96 127 165 207 248 310 379
#     4   9  20  41  68  96 130 167 199 238 293 370
#     4  10  21  37  59  91 126 160 200 254 315 383
#     4  11  24  38  56  84 116 155 209 265 309 369
#     4   9  19  38  61  85 119 159 207 258 311 372
#     4  10  23  41  59  84 125 165 199 254 321 370
#
# _framework density 20.584513000000001
#
# number of rings (size 3 to 8) (size 9 to 14) (size 15 to 20)
#    0.000    2.000    0.000    3.000    4.200    5.600 
#    1.800    1.000    0.000    0.000    0.000    0.700 
#    0.000    0.000    0.000    0.000    0.000    0.000 
#
# Total GULP energy -991092.145887 kJ/mol
# GULP energy per Si atom -12388.651824 kJ/mol
# Density = 2.053766 g / cm^3
# Si number density = 20.584513 Si / 1000 Ang^3
#
#
#
# Elastic Constant Matrix: (Units=GPa)
#
#
# Indices 1 2 3 4 5 6 
#
# 1 124.6866 75.6310 19.2970 0.0000 0.0000 0.0000
# 2 75.6310 124.6867 19.2972 0.0000 0.0000 0.0000
# 3 19.2970 19.2972 77.2327 0.0000 0.0000 0.0000
# 4 0.0000 0.0000 0.0000 17.5870 0.0000 0.0000
# 5 0.0000 0.0000 0.0000 0.0000 17.5871 0.0000
# 6 0.0000 0.0000 0.0000 0.0000 0.0000 37.1547
#
#
#
# Elastic Compliance Matrix: (Units=1/GPa)
#
#
# Indices 1 2 3 4 5 6 
#
# 1 0.012815 -0.007570 -0.001310 0.000000 0.000000 0.000000
# 2 -0.007570 0.012815 -0.001310 0.000000 0.000000 0.000000
# 3 -0.001310 -0.001310 0.013603 0.000000 0.000000 0.000000
# 4 0.000000 0.000000 0.000000 0.056860 0.000000 0.000000
# 5 0.000000 0.000000 0.000000 0.000000 0.056860 0.000000
# 6 0.000000 0.000000 0.000000 0.000000 0.000000 0.026914
#
#
# Mechanical properties :
#
#
# Convention : Reuss Voigt Hill
#
# Bulk Modulus (GPa) = 53.04972 61.67294 57.36133
# Shear Modulus (GPa) = 24.20932 28.62450 26.41691
#
# Velocity S-wave (km/s) = 3.43314 3.73310 3.58626
# Velocity P-wave (km/s) = 6.44538 6.97189 6.71380
#
# Compressibility (1/GPa) = 0.01885024
#
# Stress axis : x y z
#
# Youngs Moduli (GPa) = 78.03492 78.03491 73.51482
#
# Poissons Ratio (x) = 0.59074 0.09633
# Poissons Ratio (y) = 0.59074 0.09633
# Poissons Ratio (z) = 0.10225 0.10226
#
# Static dielectric constant tensor:
#      x y z
#    x 3.784330 0.000000 0.000000 
#    y 0.000000 3.784330 0.000000 
#    z 0.000000 0.000000 3.928430 
# 
# 
# High freq. dielectric constant tensor:
#      x y z
#    x 1.802770 0.000000 0.000000 
#    y 0.000000 1.802770 0.000000 
#    z 0.000000 0.000000 1.802330 
# 
# From -- ./inp_files/6069.got.cif
#   From: 2010.03.12/outbox.cif.g09.slc.cpg/sg139_4_cif.got.tgz:6069.got - 2010.04.08 09:46:31.
