data_PCOD8319482
_publ_section_title
;
Structure prediction by ZEFSAII (Michael W. Deem and Ramdas Pophale) SiO2 
 PCOD8319482
Probable space group: I 4/M M M
;
_chemical_formula_sum "Si O2"
_cell_formula_units_Z 176
_cell_length_a 27.101144
_cell_length_b 27.101144
_cell_length_c 14.270576
_cell_angle_alpha 90.000000
_cell_angle_beta 90.000000
_cell_angle_gamma 90.000000
_cell_volume 10481.338583
_symmetry_space_group_name_H-M "I 4/M M M"
_symmetry_group_IT_number 139
_symmetry_cell_setting 'tetragonal'
loop_
_space_group_symop_operation_xyz
x,y,z
-y,x,z
-x,-y,z
y,-x,z
x,-y,-z
-x,y,-z
y,x,-z
-y,-x,-z
-x,-y,-z
y,-x,-z
x,y,-z
-y,x,-z
-x,y,z
x,-y,z
-y,-x,z
y,x,z
1/2+x,1/2+y,1/2+z
1/2-y,1/2+x,1/2+z
1/2-x,1/2-y,1/2+z
1/2+y,1/2-x,1/2+z
1/2+x,1/2-y,1/2-z
1/2-x,1/2+y,1/2-z
1/2+y,1/2+x,1/2-z
1/2-y,1/2-x,1/2-z
1/2-x,1/2-y,1/2-z
1/2+y,1/2-x,1/2-z
1/2+x,1/2+y,1/2-z
1/2-y,1/2+x,1/2-z
1/2-x,1/2+y,1/2+z
1/2+x,1/2-y,1/2+z
1/2-y,1/2-x,1/2+z
1/2+y,1/2+x,1/2+z
loop_
_atom_site_type_symbol
_atom_site_label
_atom_site_fract_x
_atom_site_fract_y
_atom_site_fract_z
Si Si1 0.058046 0.209102 0.396167
Si Si2 0.915838 0.222003 0.107873
Si Si3 0.655425 0.844576 0.250000
Si Si4 0.295298 0.055172 0.261123
Si Si5 0.942259 0.863286 0.762992
Si Si6 0.266697 0.811419 0.892518
O O1 0.082295 0.205677 0.500000
O O2 0.070122 0.261917 0.350228
O O3 0.078037 0.165966 0.328515
O O4 0.000000 0.202885 0.404200
O O5 0.945906 0.262452 0.167164
O O6 0.929823 0.167745 0.143862
O O7 0.857600 0.230234 0.121903
O O8 0.931803 0.226997 0.000000
O O9 0.662220 0.903624 0.254364
O O10 0.682075 0.819628 0.161193
O O11 0.318066 0.000000 0.273319
O O12 0.915737 0.915737 0.768327
O O13 0.000000 0.873740 0.756331
O O14 0.237292 0.762709 0.857188
O O15 0.281614 0.805217 0.000000
#
# Coordination Sequence:
#
# PCOD8319482 Si02
#       6
#    32  32  16  32  32  32
#     4   8  15  30  50  67  84 109 144 188 230 265
#     4   9  17  31  51  70  87 112 149 191 231 270
#     4  10  19  30  46  67  96 128 154 184 220 265
#     4   9  18  31  48  71  94 118 151 188 225 264
#     4  10  20  31  44  64  88 117 154 191 230 274
#     4   9  17  29  46  69  96 122 146 176 221 278
#
# _framework density 16.791747999999998
#
# number of rings (size 3 to 8) (size 9 to 14) (size 15 to 20)
#    0.000    2.909    0.000    2.455    0.000    3.818 
#    0.000    0.909    0.000    0.273    0.000    3.818 
#    0.000    0.000    0.000   13.636    0.000    0.000 
#
# Total GULP energy -1090835.322434 kJ/mol
# GULP energy per Si atom -12395.855937 kJ/mol
# Density = 1.675353 g / cm^3
# Si number density = 16.791748 Si / 1000 Ang^3
#
#
#
# Elastic Constant Matrix: (Units=GPa)
#
#
# Indices 1 2 3 4 5 6 
#
# 1 85.7589 53.2403 29.2756 0.0000 0.0000 0.0000
# 2 53.2403 85.7599 29.2758 0.0000 0.0000 0.0000
# 3 29.2756 29.2758 100.6606 0.0000 0.0000 0.0000
# 4 0.0000 0.0000 0.0000 17.2259 0.0000 0.0000
# 5 0.0000 0.0000 0.0000 0.0000 17.2261 0.0000
# 6 0.0000 0.0000 0.0000 0.0000 0.0000 18.2465
#
#
#
# Elastic Compliance Matrix: (Units=1/GPa)
#
#
# Indices 1 2 3 4 5 6 
#
# 1 0.019475 -0.011276 -0.002384 0.000000 0.000000 0.000000
# 2 -0.011276 0.019475 -0.002384 0.000000 0.000000 0.000000
# 3 -0.002384 -0.002384 0.011321 0.000000 0.000000 0.000000
# 4 0.000000 0.000000 0.000000 0.058052 0.000000 0.000000
# 5 0.000000 0.000000 0.000000 0.000000 0.058051 0.000000
# 6 0.000000 0.000000 0.000000 0.000000 0.000000 0.054805
#
#
# Mechanical properties :
#
#
# Convention : Reuss Voigt Hill
#
# Bulk Modulus (GPa) = 55.00299 55.08477 55.04388
# Shear Modulus (GPa) = 19.28042 21.23221 20.25631
#
# Velocity S-wave (km/s) = 3.39220 3.55976 3.47699
# Velocity P-wave (km/s) = 6.94044 7.05491 6.99791
#
# Compressibility (1/GPa) = 0.01818083
#
# Stress axis : x y z
#
# Youngs Moduli (GPa) = 51.34782 51.34846 88.32864
#
# Poissons Ratio (x) = 0.57902 0.21062
# Poissons Ratio (y) = 0.57901 0.21062
# Poissons Ratio (z) = 0.12244 0.12244
#
# Static dielectric constant tensor:
#      x y z
#    x 2.939240 0.000000 0.000000 
#    y 0.000000 2.939220 0.000000 
#    z 0.000000 0.000000 3.489800 
# 
# 
# High freq. dielectric constant tensor:
#      x y z
#    x 1.623810 0.000000 0.000000 
#    y 0.000000 1.623810 0.000000 
#    z 0.000000 0.000000 1.656730 
# 
# From -- ./inp_files/6379.got.cif
#   From: 2010.03.12/outbox.cif.g09.slc.cpg/sg139_4_cif.got.tgz:6379.got - 2010.04.08 09:46:31.
