data_PCOD8319625
_publ_section_title
;
Structure prediction by ZEFSAII (Michael W. Deem and Ramdas Pophale) SiO2 
 PCOD8319625
Probable space group: I 4/M M M
;
_chemical_formula_sum "Si O2"
_cell_formula_units_Z 240
_cell_length_a 20.942437
_cell_length_b 20.942437
_cell_length_c 27.896607
_cell_angle_alpha 90.000000
_cell_angle_beta 90.000000
_cell_angle_gamma 90.000000
_cell_volume 12235.052002
_symmetry_space_group_name_H-M "I 4/M M M"
_symmetry_group_IT_number 139
_symmetry_cell_setting 'tetragonal'
loop_
_space_group_symop_operation_xyz
x,y,z
-y,x,z
-x,-y,z
y,-x,z
x,-y,-z
-x,y,-z
y,x,-z
-y,-x,-z
-x,-y,-z
y,-x,-z
x,y,-z
-y,x,-z
-x,y,z
x,-y,z
-y,-x,z
y,x,z
1/2+x,1/2+y,1/2+z
1/2-y,1/2+x,1/2+z
1/2-x,1/2-y,1/2+z
1/2+y,1/2-x,1/2+z
1/2+x,1/2-y,1/2-z
1/2-x,1/2+y,1/2-z
1/2+y,1/2+x,1/2-z
1/2-y,1/2-x,1/2-z
1/2-x,1/2-y,1/2-z
1/2+y,1/2-x,1/2-z
1/2+x,1/2+y,1/2-z
1/2-y,1/2+x,1/2-z
1/2-x,1/2+y,1/2+z
1/2+x,1/2-y,1/2+z
1/2-y,1/2-x,1/2+z
1/2+y,1/2+x,1/2+z
loop_
_atom_site_type_symbol
_atom_site_label
_atom_site_fract_x
_atom_site_fract_y
_atom_site_fract_z
Si Si1 0.075753 0.824300 0.808474
Si Si2 0.258076 0.574529 0.212892
Si Si3 0.737131 0.426321 0.594489
Si Si4 0.179986 0.075479 0.386593
Si Si5 0.926416 0.382937 0.299897
Si Si6 0.424787 0.671914 0.500000
Si Si7 0.926572 0.698321 0.447161
Si Si8 0.927794 0.616477 0.897278
O O1 0.104685 0.895316 0.807834
O O2 0.102400 0.786262 0.762213
O O3 0.102768 0.788185 0.855587
O O4 0.000000 0.831351 0.807123
O O5 0.247130 0.500000 0.220083
O O6 0.306025 0.588225 0.169287
O O7 0.188078 0.603988 0.202934
O O8 0.718674 0.500000 0.596169
O O9 0.705275 0.395545 0.547392
O O10 0.811449 0.415356 0.588062
O O11 0.118132 0.118132 0.401367
O O12 0.242689 0.100520 0.415598
O O13 0.165320 0.000000 0.395760
O O14 0.919397 0.419397 0.250000
O O15 0.889176 0.423164 0.339961
O O16 0.000000 0.380579 0.315555
O O17 0.500000 0.674183 0.500000
O O18 0.401242 0.598758 0.500000
O O19 0.893843 0.697426 0.500000
O O20 0.922551 0.628594 0.422689
O O21 0.000000 0.713719 0.453334
O O22 0.000000 0.594947 0.913071
#
# Coordination Sequence:
#
# PCOD8319625 Si02
#       8
#    32  32  32  32  32  16  32  32
#     4  10  19  33  54  79 108 143 185 233 288 350
#     4   9  18  34  55  77 110 156 190 221 283 355
#     4   9  20  36  54  77 107 148 189 229 286 347
#     4  10  20  38  63  89 119 156 196 240 294 354
#     4  11  21  34  55  83 117 153 190 235 286 338
#     4  10  20  37  60  82 109 143 183 237 296 352
#     4  10  22  40  61  86 118 154 191 237 297 354
#     4  11  22  37  60  84 113 154 198 240 282 337
#
# _framework density 19.615773000000001
#
# number of rings (size 3 to 8) (size 9 to 14) (size 15 to 20)
#    0.000    2.000    1.333    2.400    0.933    4.733 
#    0.000    2.000    0.000    6.400    0.000    1.867 
#    0.000    0.000    0.000    0.000    0.000    0.000 
#
# Total GULP energy -1487359.944336 kJ/mol
# GULP energy per Si atom -12394.666203 kJ/mol
# Density = 1.957113 g / cm^3
# Si number density = 19.615773 Si / 1000 Ang^3
#
#
#
# Elastic Constant Matrix: (Units=GPa)
#
#
# Indices 1 2 3 4 5 6 
#
# 1 69.1932 42.3360 32.7162 0.0000 0.0000 0.0000
# 2 42.3360 69.1968 32.7176 0.0000 0.0000 0.0000
# 3 32.7162 32.7176 145.5217 0.0000 0.0000 0.0000
# 4 0.0000 0.0000 0.0000 18.2101 0.0000 0.0000
# 5 0.0000 0.0000 0.0000 0.0000 18.2094 0.0000
# 6 0.0000 0.0000 0.0000 0.0000 0.0000 20.1161
#
#
#
# Elastic Compliance Matrix: (Units=1/GPa)
#
#
# Indices 1 2 3 4 5 6 
#
# 1 0.023781 -0.013452 -0.002322 0.000000 0.000000 0.000000
# 2 -0.013452 0.023779 -0.002322 0.000000 0.000000 0.000000
# 3 -0.002322 -0.002322 0.007916 0.000000 0.000000 0.000000
# 4 0.000000 0.000000 0.000000 0.054915 0.000000 0.000000
# 5 0.000000 0.000000 0.000000 0.000000 0.054917 0.000000
# 6 0.000000 0.000000 0.000000 0.000000 0.000000 0.049711
#
#
# Mechanical properties :
#
#
# Convention : Reuss Voigt Hill
#
# Bulk Modulus (GPa) = 51.85512 55.49459 53.67485
# Shear Modulus (GPa) = 19.40706 23.04991 21.22849
#
# Velocity S-wave (km/s) = 3.14882 3.43165 3.29327
# Velocity P-wave (km/s) = 6.30182 6.63731 6.47174
#
# Compressibility (1/GPa) = 0.01928450
#
# Stress axis : x y z
#
# Youngs Moduli (GPa) = 42.05122 42.05321 126.32711
#
# Poissons Ratio (x) = 0.56568 0.29334
# Poissons Ratio (y) = 0.56565 0.29335
# Poissons Ratio (z) = 0.09764 0.09765
#
# Static dielectric constant tensor:
#      x y z
#    x 3.382680 0.000000 0.000000 
#    y 0.000000 3.382670 0.000000 
#    z 0.000000 0.000000 3.989160 
# 
# 
# High freq. dielectric constant tensor:
#      x y z
#    x 1.744670 0.000000 0.000000 
#    y 0.000000 1.744670 0.000000 
#    z 0.000000 0.000000 1.780680 
# 
# From -- ./inp_files/13399.got.cif
#   From: 2010.03.12/outbox.cif.g09.slc.cpg/sg139_7_cif.got.tgz:13399.got - 2010.04.08 09:46:31.
