data_PCOD8319090
_publ_section_title
;
Structure prediction by ZEFSAII (Michael W. Deem and Ramdas Pophale) SiO2 
 PCOD8319090
Probable space group: P 42/N C M
;
_chemical_formula_sum "Si O2"
_cell_formula_units_Z 96
_cell_length_a 14.574474
_cell_length_b 14.574474
_cell_length_c 20.464603
_cell_angle_alpha 90.000000
_cell_angle_beta 90.000000
_cell_angle_gamma 90.000000
_cell_volume 4346.994630
_symmetry_space_group_name_H-M "P 42/N C M"
_symmetry_group_IT_number 138
_space_group.IT_coordinate_system_code '2'
_symmetry_cell_setting 'tetragonal'
loop_
_space_group_symop_operation_xyz
x,y,z
1/2-y,x,1/2+z
1/2-x,1/2-y,z
y,1/2-x,1/2+z
1/2+x,-y,1/2-z
-x,1/2+y,1/2-z
1/2+y,1/2+x,-z
-y,-x,-z
-x,-y,-z
1/2+y,-x,1/2-z
1/2+x,1/2+y,-z
-y,1/2+x,1/2-z
1/2-x,y,1/2+z
x,1/2-y,1/2+z
1/2-y,1/2-x,z
y,x,z
loop_
_atom_site_type_symbol
_atom_site_label
_atom_site_fract_x
_atom_site_fract_y
_atom_site_fract_z
Si Si1 0.605743 0.749361 0.981237
Si Si2 0.483832 0.161153 0.899855
Si Si3 0.579934 0.727311 0.217467
Si Si4 0.832864 0.173463 0.660759
Si Si5 0.508503 0.791716 0.350380
Si Si6 0.422294 0.565284 0.771353
O O1 0.660465 0.839536 0.957528
O O2 0.674972 0.674972 0.011687
O O3 0.558751 0.704084 0.918792
O O4 0.535372 0.775043 0.037942
O O5 0.443081 0.056920 0.911786
O O6 0.428692 0.193142 0.835468
O O7 0.593841 0.174715 0.893715
O O8 0.676188 0.676188 0.208081
O O9 0.577231 0.765797 0.291286
O O10 0.493747 0.661891 0.203768
O O11 0.750000 0.250000 0.664108
O O12 0.927628 0.219449 0.643073
O O13 0.848221 0.115451 0.728333
O O14 0.467765 0.892038 0.335773
O O15 0.497753 0.497753 0.735542
#
# Coordination Sequence:
#
# PCOD8319090 Si02
#       6
#    16  16  16  16  16  16
#     4  10  23  43  65  92 130 176 224 279 343 405
#     4  11  23  42  66  93 129 175 225 274 331 407
#     4  10  21  36  58  92 127 162 215 276 332 395
#     4  11  24  39  64  96 131 173 220 276 344 401
#     4  11  22  37  64  93 130 169 220 274 340 405
#     4  10  21  38  62  94 132 172 219 275 337 407
#
# _framework density 22.084223999999999
#
# number of rings (size 3 to 8) (size 9 to 14) (size 15 to 20)
#    0.000    1.500    1.667    3.000    2.333    4.333 
#    0.000    5.833    0.000    6.000    0.000    0.000 
#    0.000    0.000    0.000    0.000    0.000    0.000 
#
# Total GULP energy -1189551.994120 kJ/mol
# GULP energy per Si atom -12391.166605 kJ/mol
# Density = 2.203396 g / cm^3
# Si number density = 22.084224 Si / 1000 Ang^3
#
#
#
# Elastic Constant Matrix: (Units=GPa)
#
#
# Indices 1 2 3 4 5 6 
#
# 1 108.3902 39.5826 36.4839 0.0000 0.0000 0.0000
# 2 39.5826 108.3902 36.4839 0.0000 0.0000 0.0000
# 3 36.4839 36.4839 100.5899 0.0000 0.0000 0.0000
# 4 0.0000 0.0000 0.0000 27.1170 0.0000 0.0000
# 5 0.0000 0.0000 0.0000 0.0000 27.1170 0.0000
# 6 0.0000 0.0000 0.0000 0.0000 0.0000 43.5648
#
#
#
# Elastic Compliance Matrix: (Units=1/GPa)
#
#
# Indices 1 2 3 4 5 6 
#
# 1 0.011382 -0.003152 -0.002985 0.000000 0.000000 0.000000
# 2 -0.003152 0.011382 -0.002985 0.000000 0.000000 0.000000
# 3 -0.002985 -0.002985 0.012107 0.000000 0.000000 0.000000
# 4 0.000000 0.000000 0.000000 0.036877 0.000000 0.000000
# 5 0.000000 0.000000 0.000000 0.000000 0.036877 0.000000
# 6 0.000000 0.000000 0.000000 0.000000 0.000000 0.022954
#
#
# Mechanical properties :
#
#
# Convention : Reuss Voigt Hill
#
# Bulk Modulus (GPa) = 60.14465 60.27455 60.20960
# Shear Modulus (GPa) = 32.18244 33.21441 32.69843
#
# Velocity S-wave (km/s) = 3.82155 3.88234 3.85206
# Velocity P-wave (km/s) = 6.83854 6.88832 6.86348
#
# Compressibility (1/GPa) = 0.01662658
#
# Stress axis : x y z
#
# Youngs Moduli (GPa) = 87.86101 87.86101 82.59913
#
# Poissons Ratio (x) = 0.27691 0.24656
# Poissons Ratio (y) = 0.27691 0.24656
# Poissons Ratio (z) = 0.26226 0.26226
#
# Static dielectric constant tensor:
#      x y z
#    x 4.287670 0.000000 0.000000 
#    y 0.000000 4.287670 0.000000 
#    z 0.000000 0.000000 3.701320 
# 
# 
# High freq. dielectric constant tensor:
#      x y z
#    x 1.882240 0.000000 0.000000 
#    y 0.000000 1.882240 0.000000 
#    z 0.000000 0.000000 1.837280 
# 
# From -- ./inp_files/6224.got.cif
#   From: 2010.03.12/outbox.cif.g09.slc.cpg/sg138_4_cif.got.tgz:6224.got - 2010.04.08 09:41:05.
