data_PCOD8319397
_publ_section_title
;
Structure prediction by ZEFSAII (Michael W. Deem and Ramdas Pophale) SiO2 
 PCOD8319397
Probable space group: I 4/M M M
;
_chemical_formula_sum "Si O2"
_cell_formula_units_Z 176
_cell_length_a 26.582922
_cell_length_b 26.582922
_cell_length_c 14.526968
_cell_angle_alpha 90.000000
_cell_angle_beta 90.000000
_cell_angle_gamma 90.000000
_cell_volume 10265.507244
_symmetry_space_group_name_H-M "I 4/M M M"
_symmetry_group_IT_number 139
_symmetry_cell_setting 'tetragonal'
loop_
_space_group_symop_operation_xyz
x,y,z
-y,x,z
-x,-y,z
y,-x,z
x,-y,-z
-x,y,-z
y,x,-z
-y,-x,-z
-x,-y,-z
y,-x,-z
x,y,-z
-y,x,-z
-x,y,z
x,-y,z
-y,-x,z
y,x,z
1/2+x,1/2+y,1/2+z
1/2-y,1/2+x,1/2+z
1/2-x,1/2-y,1/2+z
1/2+y,1/2-x,1/2+z
1/2+x,1/2-y,1/2-z
1/2-x,1/2+y,1/2-z
1/2+y,1/2+x,1/2-z
1/2-y,1/2-x,1/2-z
1/2-x,1/2-y,1/2-z
1/2+y,1/2-x,1/2-z
1/2+x,1/2+y,1/2-z
1/2-y,1/2+x,1/2-z
1/2-x,1/2+y,1/2+z
1/2+x,1/2-y,1/2+z
1/2-y,1/2-x,1/2+z
1/2+y,1/2+x,1/2+z
loop_
_atom_site_type_symbol
_atom_site_label
_atom_site_fract_x
_atom_site_fract_y
_atom_site_fract_z
Si Si1 0.838673 0.838673 0.398990
Si Si2 0.635828 0.364173 0.718525
Si Si3 0.112734 0.266766 0.396636
Si Si4 0.314848 0.555360 0.398261
Si Si5 0.806657 0.649489 0.395687
Si Si6 0.715701 0.943775 0.216059
Si Si7 0.218061 0.218061 0.822467
O O1 0.855961 0.855961 0.500000
O O2 0.872116 0.872116 0.328064
O O3 0.848814 0.779449 0.384345
O O4 0.584869 0.349726 0.670560
O O5 0.678819 0.321182 0.720869
O O6 0.089010 0.266161 0.500000
O O7 0.144498 0.316793 0.380269
O O8 0.068870 0.265302 0.319694
O O9 0.313032 0.580563 0.500000
O O10 0.338002 0.500000 0.406036
O O11 0.259934 0.553526 0.357067
O O12 0.804345 0.629162 0.500000
O O13 0.816374 0.602739 0.325255
O O14 0.756336 0.682954 0.380020
O O15 0.689873 0.000000 0.218322
O O16 0.250000 0.250000 0.750000
#
# Coordination Sequence:
#
# PCOD8319397 Si02
#       7
#    16  16  32  32  32  32  16
#     4  10  18  31  49  74 104 132 164 202 240 282
#     4  12  19  32  54  69  94 134 167 208 253 293
#     4  10  20  34  51  72  99 133 167 203 245 288
#     4  10  21  34  48  70  98 128 166 209 251 298
#     4  11  21  32  49  72 100 132 165 201 243 292
#     4  11  21  33  48  67  99 136 167 205 241 286
#     4  12  21  29  46  70 102 133 166 204 229 283
#
# _framework density 17.144793
#
# number of rings (size 3 to 8) (size 9 to 14) (size 15 to 20)
#    0.000    1.273    3.636    4.364    0.000    3.636 
#    0.000    0.000    0.000    0.818    0.000    1.273 
#    0.000    5.818    0.000   16.818    0.000    0.091 
#
# Total GULP energy -1090218.848237 kJ/mol
# GULP energy per Si atom -12388.850548 kJ/mol
# Density = 1.710577 g / cm^3
# Si number density = 17.144793 Si / 1000 Ang^3
#
#
#
# Elastic Constant Matrix: (Units=GPa)
#
#
# Indices 1 2 3 4 5 6 
#
# 1 62.2331 18.7698 41.5405 0.0000 0.0000 0.0000
# 2 18.7698 62.2331 41.5405 0.0000 0.0000 0.0000
# 3 41.5405 41.5405 151.5628 0.0000 0.0000 0.0000
# 4 0.0000 0.0000 0.0000 24.8546 0.0000 0.0000
# 5 0.0000 0.0000 0.0000 0.0000 24.8546 0.0000
# 6 0.0000 0.0000 0.0000 0.0000 0.0000 9.8597
#
#
#
# Elastic Compliance Matrix: (Units=1/GPa)
#
#
# Indices 1 2 3 4 5 6 
#
# 1 0.020090 -0.002918 -0.004707 0.000000 0.000000 0.000000
# 2 -0.002918 0.020090 -0.004707 0.000000 0.000000 0.000000
# 3 -0.004707 -0.004707 0.009178 0.000000 0.000000 0.000000
# 4 0.000000 0.000000 0.000000 0.040234 0.000000 0.000000
# 5 0.000000 0.000000 0.000000 0.000000 0.040234 0.000000
# 6 0.000000 0.000000 0.000000 0.000000 0.000000 0.101423
#
#
# Mechanical properties :
#
#
# Convention : Reuss Voigt Hill
#
# Bulk Modulus (GPa) = 40.49156 53.30341 46.89748
# Shear Modulus (GPa) = 18.92908 23.52566 21.22737
#
# Velocity S-wave (km/s) = 3.32636 3.70831 3.52251
# Velocity P-wave (km/s) = 6.19852 7.03513 6.63003
#
# Compressibility (1/GPa) = 0.02469651
#
# Stress axis : x y z
#
# Youngs Moduli (GPa) = 49.77527 49.77527 108.95661
#
# Poissons Ratio (x) = 0.14522 0.51283
# Poissons Ratio (y) = 0.14522 0.51283
# Poissons Ratio (z) = 0.23428 0.23428
#
# Static dielectric constant tensor:
#      x y z
#    x 3.408520 0.000000 0.000000 
#    y 0.000000 3.408520 0.000000 
#    z 0.000000 0.000000 3.707150 
# 
# 
# High freq. dielectric constant tensor:
#      x y z
#    x 1.626950 0.000000 0.000000 
#    y 0.000000 1.626950 0.000000 
#    z 0.000000 0.000000 1.693870 
# 
# From -- ./inp_files/6433.got.cif
#   From: 2010.03.12/outbox.cif.g09.slc.cpg/sg139_4_cif.got.tgz:6433.got - 2010.04.08 09:46:31.
