data_PCOD8319646
_publ_section_title
;
Structure prediction by ZEFSAII (Michael W. Deem and Ramdas Pophale) SiO2 
 PCOD8319646
Probable space group: I 4/M M M
;
_chemical_formula_sum "Si O2"
_cell_formula_units_Z 160
_cell_length_a 32.496140
_cell_length_b 32.496140
_cell_length_c 8.725807
_cell_angle_alpha 90.000000
_cell_angle_beta 90.000000
_cell_angle_gamma 90.000000
_cell_volume 9214.444469
_symmetry_space_group_name_H-M "I 4/M M M"
_symmetry_group_IT_number 139
_symmetry_cell_setting 'tetragonal'
loop_
_space_group_symop_operation_xyz
x,y,z
-y,x,z
-x,-y,z
y,-x,z
x,-y,-z
-x,y,-z
y,x,-z
-y,-x,-z
-x,-y,-z
y,-x,-z
x,y,-z
-y,x,-z
-x,y,z
x,-y,z
-y,-x,z
y,x,z
1/2+x,1/2+y,1/2+z
1/2-y,1/2+x,1/2+z
1/2-x,1/2-y,1/2+z
1/2+y,1/2-x,1/2+z
1/2+x,1/2-y,1/2-z
1/2-x,1/2+y,1/2-z
1/2+y,1/2+x,1/2-z
1/2-y,1/2-x,1/2-z
1/2-x,1/2-y,1/2-z
1/2+y,1/2-x,1/2-z
1/2+x,1/2+y,1/2-z
1/2-y,1/2+x,1/2-z
1/2-x,1/2+y,1/2+z
1/2+x,1/2-y,1/2+z
1/2-y,1/2-x,1/2+z
1/2+y,1/2+x,1/2+z
loop_
_atom_site_type_symbol
_atom_site_label
_atom_site_fract_x
_atom_site_fract_y
_atom_site_fract_z
Si Si1 0.954123 0.790206 0.825431
Si Si2 0.439964 0.000000 0.177647
Si Si3 0.354494 0.000000 0.322908
Si Si4 0.805860 0.870802 0.680593
Si Si5 0.195980 0.569936 0.324233
Si Si6 0.785244 0.653563 0.817504
O O1 0.917605 0.813364 0.736175
O O2 0.946097 0.742086 0.812614
O O3 0.000000 0.800066 0.758222
O O4 0.952323 0.804983 0.000000
O O5 0.459159 0.040842 0.250000
O O6 0.392216 0.000000 0.208320
O O7 0.449632 0.000000 0.000000
O O8 0.329549 0.041006 0.287109
O O9 0.367877 0.000000 0.500000
O O10 0.807507 0.871741 0.500000
O O11 0.842114 0.842114 0.748062
O O12 0.762449 0.850913 0.733326
O O13 0.180375 0.568099 0.500000
O O14 0.190332 0.615843 0.259481
O O15 0.804045 0.695956 0.750000
O O16 0.790113 0.652682 0.000000
#
# Coordination Sequence:
#
# PCOD8319646 Si02
#       6
#    32  16  16  32  32  32
#     4   9  17  31  51  75 102 131 165 204 249 297
#     4  11  23  42  61  76  94 118 150 190 240 299
#     4  12  23  35  54  80 103 126 158 198 249 307
#     4   9  19  34  50  72 103 136 173 215 253 294
#     4  10  19  34  52  73 100 129 160 204 252 300
#     4  10  20  34  50  71  98 134 174 215 257 302
#
# _framework density 17.364042000000001
#
# number of rings (size 3 to 8) (size 9 to 14) (size 15 to 20)
#    0.000    2.100    1.000    3.300    0.000    3.600 
#    0.000    4.000    0.000    0.000    0.000    0.000 
#    0.000    0.400    0.000    4.400    0.000    3.200 
#
# Total GULP energy -991846.885577 kJ/mol
# GULP energy per Si atom -12398.086070 kJ/mol
# Density = 1.732452 g / cm^3
# Si number density = 17.364042 Si / 1000 Ang^3
#
#
#
# Elastic Constant Matrix: (Units=GPa)
#
#
# Indices 1 2 3 4 5 6 
#
# 1 92.1276 55.5602 26.9638 0.0000 0.0000 0.0000
# 2 55.5602 92.1217 26.9636 0.0000 0.0000 0.0000
# 3 26.9638 26.9636 73.3386 0.0000 0.0000 0.0000
# 4 0.0000 0.0000 0.0000 24.4767 0.0000 0.0000
# 5 0.0000 0.0000 0.0000 0.0000 24.4774 0.0000
# 6 0.0000 0.0000 0.0000 0.0000 0.0000 5.3954
#
#
#
# Elastic Compliance Matrix: (Units=1/GPa)
#
#
# Indices 1 2 3 4 5 6 
#
# 1 0.017584 -0.009764 -0.002875 0.000000 0.000000 0.000000
# 2 -0.009764 0.017586 -0.002876 0.000000 0.000000 0.000000
# 3 -0.002875 -0.002876 0.015750 0.000000 0.000000 0.000000
# 4 0.000000 0.000000 0.000000 0.040855 0.000000 0.000000
# 5 0.000000 0.000000 0.000000 0.000000 0.040854 0.000000
# 6 0.000000 0.000000 0.000000 0.000000 0.000000 0.185344
#
#
# Mechanical properties :
#
#
# Convention : Reuss Voigt Hill
#
# Bulk Modulus (GPa) = 50.27642 52.95145 51.61394
# Shear Modulus (GPa) = 14.05944 20.74325 17.40134
#
# Velocity S-wave (km/s) = 2.84859 3.46006 3.16911
# Velocity P-wave (km/s) = 6.31161 6.82084 6.57116
#
# Compressibility (1/GPa) = 0.01989004
#
# Stress axis : x y z
#
# Youngs Moduli (GPa) = 56.86832 56.86434 63.49278
#
# Poissons Ratio (x) = 0.55522 0.18256
# Poissons Ratio (y) = 0.55526 0.18259
# Poissons Ratio (z) = 0.16352 0.16353
#
# Static dielectric constant tensor:
#      x y z
#    x 3.106550 0.000000 0.000000 
#    y 0.000000 3.106510 0.000000 
#    z 0.000000 0.000000 3.266630 
# 
# 
# High freq. dielectric constant tensor:
#      x y z
#    x 1.654930 0.000000 0.000000 
#    y 0.000000 1.654930 0.000000 
#    z 0.000000 0.000000 1.677260 
# 
# From -- ./inp_files/2160.got.cif
#   From: 2010.03.12/outbox.cif.g09.slc.cpg/sg139_2_cif.got.tgz:2160.got - 2010.04.08 09:46:31.
