data_PCOD8319589
_publ_section_title
;
Structure prediction by ZEFSAII (Michael W. Deem and Ramdas Pophale) SiO2 
 PCOD8319589
Probable space group: I 4/M M M
;
_chemical_formula_sum "Si O2"
_cell_formula_units_Z 144
_cell_length_a 20.785782
_cell_length_b 20.785782
_cell_length_c 19.512164
_cell_angle_alpha 90.000000
_cell_angle_beta 90.000000
_cell_angle_gamma 90.000000
_cell_volume 8430.205741
_symmetry_space_group_name_H-M "I 4/M M M"
_symmetry_group_IT_number 139
_symmetry_cell_setting 'tetragonal'
loop_
_space_group_symop_operation_xyz
x,y,z
-y,x,z
-x,-y,z
y,-x,z
x,-y,-z
-x,y,-z
y,x,-z
-y,-x,-z
-x,-y,-z
y,-x,-z
x,y,-z
-y,x,-z
-x,y,z
x,-y,z
-y,-x,z
y,x,z
1/2+x,1/2+y,1/2+z
1/2-y,1/2+x,1/2+z
1/2-x,1/2-y,1/2+z
1/2+y,1/2-x,1/2+z
1/2+x,1/2-y,1/2-z
1/2-x,1/2+y,1/2-z
1/2+y,1/2+x,1/2-z
1/2-y,1/2-x,1/2-z
1/2-x,1/2-y,1/2-z
1/2+y,1/2-x,1/2-z
1/2+x,1/2+y,1/2-z
1/2-y,1/2+x,1/2-z
1/2-x,1/2+y,1/2+z
1/2+x,1/2-y,1/2+z
1/2-y,1/2-x,1/2+z
1/2+y,1/2+x,1/2+z
loop_
_atom_site_type_symbol
_atom_site_label
_atom_site_fract_x
_atom_site_fract_y
_atom_site_fract_z
Si Si1 0.000000 0.571828 0.419483
Si Si2 0.871850 0.231467 0.923633
Si Si3 0.927766 0.174037 0.795596
Si Si4 0.378800 0.841604 0.921279
Si Si5 0.238841 0.343154 0.201640
O O1 0.065290 0.608978 0.397608
O O2 0.000000 0.500000 0.386151
O O3 0.000000 0.564101 0.500000
O O4 0.801329 0.198671 0.908176
O O5 0.923953 0.202874 0.872012
O O6 0.872139 0.308109 0.914668
O O7 0.894162 0.213457 0.000000
O O8 0.895548 0.104453 0.793072
O O9 0.895090 0.221767 0.742943
O O10 0.000000 0.164636 0.772449
O O11 0.379192 0.782859 0.867886
O O12 0.390759 0.818214 0.000000
O O13 0.281569 0.281569 0.181254
O O14 0.179726 0.320275 0.250000
#
# Coordination Sequence:
#
# PCOD8319589 Si02
#       5
#    16  32  32  32  32
#     4   9  20  36  50  70 104 142 176 206 240 291
#     4   9  17  31  53  80 103 125 165 215 257 301
#     4  10  21  35  52  75 103 137 171 208 256 307
#     4  10  19  32  53  75  99 136 173 208 250 298
#     4  10  19  34  53  77 106 128 158 211 266 304
#
# _framework density 17.081434000000002
#
# number of rings (size 3 to 8) (size 9 to 14) (size 15 to 20)
#    0.000    2.333    2.222    0.667    1.556    2.889 
#    0.000    2.222    0.000    0.000    0.000    3.111 
#    0.000    0.000    0.000    4.889    0.000    0.000 
#
# Total GULP energy -892403.511686 kJ/mol
# GULP energy per Si atom -12394.493218 kJ/mol
# Density = 1.704256 g / cm^3
# Si number density = 17.081434 Si / 1000 Ang^3
#
#
#
# Elastic Constant Matrix: (Units=GPa)
#
#
# Indices 1 2 3 4 5 6 
#
# 1 99.1351 39.0930 33.8665 0.0000 0.0000 0.0000
# 2 39.0930 99.1344 33.8659 0.0000 0.0000 0.0000
# 3 33.8665 33.8659 84.3424 0.0000 0.0000 0.0000
# 4 0.0000 0.0000 0.0000 15.8569 0.0000 0.0000
# 5 0.0000 0.0000 0.0000 0.0000 15.8567 0.0000
# 6 0.0000 0.0000 0.0000 0.0000 0.0000 17.7661
#
#
#
# Elastic Compliance Matrix: (Units=1/GPa)
#
#
# Indices 1 2 3 4 5 6 
#
# 1 0.012831 -0.003824 -0.003616 0.000000 0.000000 0.000000
# 2 -0.003824 0.012831 -0.003616 0.000000 0.000000 0.000000
# 3 -0.003616 -0.003616 0.014761 0.000000 0.000000 0.000000
# 4 0.000000 0.000000 0.000000 0.063064 0.000000 0.000000
# 5 0.000000 0.000000 0.000000 0.000000 0.063065 0.000000
# 6 0.000000 0.000000 0.000000 0.000000 0.000000 0.056287
#
#
# Mechanical properties :
#
#
# Convention : Reuss Voigt Hill
#
# Bulk Modulus (GPa) = 54.62087 55.14032 54.88059
# Shear Modulus (GPa) = 19.91596 21.61504 20.76550
#
# Velocity S-wave (km/s) = 3.41829 3.56112 3.49044
# Velocity P-wave (km/s) = 6.90115 7.01853 6.96008
#
# Compressibility (1/GPa) = 0.01830802
#
# Stress axis : x y z
#
# Youngs Moduli (GPa) = 77.93767 77.93748 67.74768
#
# Poissons Ratio (x) = 0.29806 0.24501
# Poissons Ratio (y) = 0.29806 0.24500
# Poissons Ratio (z) = 0.28186 0.28185
#
# Static dielectric constant tensor:
#      x y z
#    x 3.121030 0.000000 0.000000 
#    y 0.000000 3.121030 0.000000 
#    z 0.000000 0.000000 3.343280 
# 
# 
# High freq. dielectric constant tensor:
#      x y z
#    x 1.645780 0.000000 0.000000 
#    y 0.000000 1.645780 0.000000 
#    z 0.000000 0.000000 1.661070 
# 
# From -- ./inp_files/10285.got.cif
#   From: 2010.03.12/outbox.cif.g09.slc.cpg/sg139_6_cif.got.tgz:10285.got - 2010.04.08 09:46:31.
