data_PCOD8319647
_publ_section_title
;
Structure prediction by ZEFSAII (Michael W. Deem and Ramdas Pophale) SiO2 
 PCOD8319647
Probable space group: I 4/M M M
;
_chemical_formula_sum "Si O2"
_cell_formula_units_Z 192
_cell_length_a 27.540426
_cell_length_b 27.540426
_cell_length_c 14.292516
_cell_angle_alpha 90.000000
_cell_angle_beta 90.000000
_cell_angle_gamma 90.000000
_cell_volume 10840.516992
_symmetry_space_group_name_H-M "I 4/M M M"
_symmetry_group_IT_number 139
_symmetry_cell_setting 'tetragonal'
loop_
_space_group_symop_operation_xyz
x,y,z
-y,x,z
-x,-y,z
y,-x,z
x,-y,-z
-x,y,-z
y,x,-z
-y,-x,-z
-x,-y,-z
y,-x,-z
x,y,-z
-y,x,-z
-x,y,z
x,-y,z
-y,-x,z
y,x,z
1/2+x,1/2+y,1/2+z
1/2-y,1/2+x,1/2+z
1/2-x,1/2-y,1/2+z
1/2+y,1/2-x,1/2+z
1/2+x,1/2-y,1/2-z
1/2-x,1/2+y,1/2-z
1/2+y,1/2+x,1/2-z
1/2-y,1/2-x,1/2-z
1/2-x,1/2-y,1/2-z
1/2+y,1/2-x,1/2-z
1/2+x,1/2+y,1/2-z
1/2-y,1/2+x,1/2-z
1/2-x,1/2+y,1/2+z
1/2+x,1/2-y,1/2+z
1/2-y,1/2-x,1/2+z
1/2+y,1/2+x,1/2+z
loop_
_atom_site_type_symbol
_atom_site_label
_atom_site_fract_x
_atom_site_fract_y
_atom_site_fract_z
Si Si1 0.853338 0.774386 0.609506
Si Si2 0.888009 0.623058 0.896476
Si Si3 0.158720 0.447061 0.235426
Si Si4 0.944313 0.770567 0.740224
Si Si5 0.815212 0.292323 0.896324
Si Si6 0.374064 0.702871 0.607613
O O1 0.862148 0.763796 0.500000
O O2 0.824580 0.824580 0.626056
O O3 0.906695 0.779616 0.655081
O O4 0.820624 0.729779 0.653798
O O5 0.848706 0.585454 0.856360
O O6 0.932642 0.626127 0.825007
O O7 0.862612 0.674753 0.899525
O O8 0.905479 0.607165 0.000000
O O9 0.141412 0.500000 0.205617
O O10 0.214272 0.445766 0.265500
O O11 0.923456 0.797764 0.832029
O O12 0.000000 0.788532 0.717640
O O13 0.834716 0.242108 0.850281
O O14 0.796248 0.279239 0.000000
O O15 0.386828 0.715879 0.500000
O O16 0.350190 0.649810 0.615229
#
# Coordination Sequence:
#
# PCOD8319647 Si02
#       6
#    32  32  32  32  32  32
#     4  10  20  34  52  75 104 138 173 207 246 294
#     4  10  19  34  53  71 100 132 167 211 254 303
#     4  10  21  34  50  74 100 129 169 212 255 305
#     4  11  22  34  48  71 104 140 174 205 244 291
#     4   9  16  29  48  74 103 133 167 201 238 286
#     4  10  20  34  52  75 104 138 173 207 246 294
#
# _framework density 17.711331999999999
#
# number of rings (size 3 to 8) (size 9 to 14) (size 15 to 20)
#    0.000    2.000    3.333    1.000    0.000    4.000 
#    0.000    5.000    0.000    4.000    0.000    4.667 
#    0.000    5.333    0.000   14.667    0.000    0.000 
#
# Total GULP energy -1189620.382903 kJ/mol
# GULP energy per Si atom -12391.878989 kJ/mol
# Density = 1.767102 g / cm^3
# Si number density = 17.711332 Si / 1000 Ang^3
#
#
#
# Elastic Constant Matrix: (Units=GPa)
#
#
# Indices 1 2 3 4 5 6 
#
# 1 75.2214 27.0112 16.0895 0.0000 0.0000 0.0000
# 2 27.0112 75.2214 16.0895 0.0000 0.0000 0.0000
# 3 16.0895 16.0895 61.4939 0.0000 0.0000 0.0000
# 4 0.0000 0.0000 0.0000 16.8511 0.0000 0.0000
# 5 0.0000 0.0000 0.0000 0.0000 16.8511 0.0000
# 6 0.0000 0.0000 0.0000 0.0000 0.0000 14.7980
#
#
#
# Elastic Compliance Matrix: (Units=1/GPa)
#
#
# Indices 1 2 3 4 5 6 
#
# 1 0.015701 -0.005041 -0.002789 0.000000 0.000000 0.000000
# 2 -0.005041 0.015701 -0.002789 0.000000 0.000000 0.000000
# 3 -0.002789 -0.002789 0.017721 0.000000 0.000000 0.000000
# 4 0.000000 0.000000 0.000000 0.059343 0.000000 0.000000
# 5 0.000000 0.000000 0.000000 0.000000 0.059343 0.000000
# 6 0.000000 0.000000 0.000000 0.000000 0.000000 0.067577
#
#
# Mechanical properties :
#
#
# Convention : Reuss Voigt Hill
#
# Bulk Modulus (GPa) = 35.86252 36.70186 36.28219
# Shear Modulus (GPa) = 18.80266 19.88316 19.34291
#
# Velocity S-wave (km/s) = 3.26178 3.35419 3.30831
# Velocity P-wave (km/s) = 5.87179 5.98064 5.92647
#
# Compressibility (1/GPa) = 0.02788426
#
# Stress axis : x y z
#
# Youngs Moduli (GPa) = 63.69028 63.69028 56.42954
#
# Poissons Ratio (x) = 0.32109 0.15738
# Poissons Ratio (y) = 0.32109 0.15738
# Poissons Ratio (z) = 0.17763 0.17763
#
# Static dielectric constant tensor:
#      x y z
#    x 3.184870 0.000000 0.000000 
#    y 0.000000 3.184870 0.000000 
#    z 0.000000 0.000000 3.351760 
# 
# 
# High freq. dielectric constant tensor:
#      x y z
#    x 1.656510 0.000000 0.000000 
#    y 0.000000 1.656510 0.000000 
#    z 0.000000 0.000000 1.687950 
# 
# From -- ./inp_files/6687.got.cif
#   From: 2010.03.12/outbox.cif.g09.slc.cpg/sg139_4_cif.got.tgz:6687.got - 2010.04.08 09:46:31.
