data_PCOD8319613
_publ_section_title
;
Structure prediction by ZEFSAII (Michael W. Deem and Ramdas Pophale) SiO2 
 PCOD8319613
Probable space group: I 4/M M M
;
_chemical_formula_sum "Si O2"
_cell_formula_units_Z 240
_cell_length_a 28.799299
_cell_length_b 28.799299
_cell_length_c 15.655827
_cell_angle_alpha 90.000000
_cell_angle_beta 90.000000
_cell_angle_gamma 90.000000
_cell_volume 12984.937010
_symmetry_space_group_name_H-M "I 4/M M M"
_symmetry_group_IT_number 139
_symmetry_cell_setting 'tetragonal'
loop_
_space_group_symop_operation_xyz
x,y,z
-y,x,z
-x,-y,z
y,-x,z
x,-y,-z
-x,y,-z
y,x,-z
-y,-x,-z
-x,-y,-z
y,-x,-z
x,y,-z
-y,x,-z
-x,y,z
x,-y,z
-y,-x,z
y,x,z
1/2+x,1/2+y,1/2+z
1/2-y,1/2+x,1/2+z
1/2-x,1/2-y,1/2+z
1/2+y,1/2-x,1/2+z
1/2+x,1/2-y,1/2-z
1/2-x,1/2+y,1/2-z
1/2+y,1/2+x,1/2-z
1/2-y,1/2-x,1/2-z
1/2-x,1/2-y,1/2-z
1/2+y,1/2-x,1/2-z
1/2+x,1/2+y,1/2-z
1/2-y,1/2+x,1/2-z
1/2-x,1/2+y,1/2+z
1/2+x,1/2-y,1/2+z
1/2-y,1/2-x,1/2+z
1/2+y,1/2+x,1/2+z
loop_
_atom_site_type_symbol
_atom_site_label
_atom_site_fract_x
_atom_site_fract_y
_atom_site_fract_z
Si Si1 0.131025 0.053988 0.500000
Si Si2 0.053284 0.447800 0.902022
Si Si3 0.853128 0.716872 0.904140
Si Si4 0.786786 0.863730 0.755840
Si Si5 0.678327 0.245396 0.905798
Si Si6 0.128486 0.619974 0.845490
Si Si7 0.190655 0.948407 0.665585
Si Si8 0.449346 0.207404 0.097810
O O1 0.084428 0.084428 0.500000
O O2 0.161861 0.066453 0.417795
O O3 0.116479 0.000000 0.500000
O O4 0.060448 0.500000 0.866561
O O5 0.082866 0.411609 0.848242
O O6 0.000000 0.433000 0.893468
O O7 0.069761 0.445739 0.000000
O O8 0.872838 0.754360 0.837684
O O9 0.799254 0.708778 0.881456
O O10 0.879042 0.666981 0.899606
O O11 0.859648 0.736679 0.000000
O O12 0.819450 0.819450 0.773026
O O13 0.755220 0.858094 0.669895
O O14 0.818010 0.909982 0.739769
O O15 0.710838 0.289162 0.912738
O O16 0.654208 0.238162 0.000000
O O17 0.136946 0.636946 0.750000
O O18 0.173309 0.592235 0.877277
O O19 0.245534 0.948133 0.650557
O O20 0.175070 0.000000 0.695988
O O21 0.500000 0.183154 0.113558
O O22 0.444074 0.221341 0.000000
#
# Coordination Sequence:
#
# PCOD8319613 Si02
#       8
#    16  32  32  32  32  32  32  32
#     4  10  20  35  56  84 120 156 183 207 239 291
#     4   9  19  37  57  74  96 130 174 224 278 339
#     4  11  22  36  52  71 102 141 181 228 283 332
#     4  11  22  35  54  78 104 140 185 225 264 321
#     4   9  18  31  49  75 106 140 175 216 265 319
#     4  12  23  33  49  75 102 132 172 225 291 352
#     4  10  20  35  54  80 111 139 171 215 264 306
#     4  10  19  33  53  74  98 133 175 216 262 321
#
# _framework density 18.482953999999999
#
# number of rings (size 3 to 8) (size 9 to 14) (size 15 to 20)
#    0.000    1.733    0.667    5.600    0.933    5.133 
#    0.000    1.333    0.000    1.200    0.000    0.000 
#    0.000    0.000    0.000    0.000    0.000    0.000 
#
# Total GULP energy -1487642.862201 kJ/mol
# GULP energy per Si atom -12397.023852 kJ/mol
# Density = 1.844089 g / cm^3
# Si number density = 18.482954 Si / 1000 Ang^3
#
#
#
# Elastic Constant Matrix: (Units=GPa)
#
#
# Indices 1 2 3 4 5 6 
#
# 1 79.1492 31.8400 31.4872 0.0000 0.0000 0.0000
# 2 31.8400 79.1492 31.4872 0.0000 0.0000 0.0000
# 3 31.4872 31.4872 83.5695 0.0000 0.0000 0.0000
# 4 0.0000 0.0000 0.0000 21.1972 0.0000 0.0000
# 5 0.0000 0.0000 0.0000 0.0000 21.1972 0.0000
# 6 0.0000 0.0000 0.0000 0.0000 0.0000 24.2205
#
#
#
# Elastic Compliance Matrix: (Units=1/GPa)
#
#
# Indices 1 2 3 4 5 6 
#
# 1 0.016299 -0.004839 -0.004318 0.000000 0.000000 0.000000
# 2 -0.004839 0.016299 -0.004318 0.000000 0.000000 0.000000
# 3 -0.004318 -0.004318 0.015220 0.000000 0.000000 0.000000
# 4 0.000000 0.000000 0.000000 0.047176 0.000000 0.000000
# 5 0.000000 0.000000 0.000000 0.000000 0.047176 0.000000
# 6 0.000000 0.000000 0.000000 0.000000 0.000000 0.041287
#
#
# Mechanical properties :
#
#
# Convention : Reuss Voigt Hill
#
# Bulk Modulus (GPa) = 47.91994 47.94410 47.93202
# Shear Modulus (GPa) = 23.00315 23.12654 23.06485
#
# Velocity S-wave (km/s) = 3.53166 3.54112 3.53639
# Velocity P-wave (km/s) = 6.52786 6.53570 6.53178
#
# Compressibility (1/GPa) = 0.02086814
#
# Stress axis : x y z
#
# Youngs Moduli (GPa) = 61.35478 61.35478 65.70384
#
# Poissons Ratio (x) = 0.29689 0.28370
# Poissons Ratio (y) = 0.29689 0.28370
# Poissons Ratio (z) = 0.26492 0.26492
#
# Static dielectric constant tensor:
#      x y z
#    x 3.423080 0.000000 0.000000 
#    y 0.000000 3.423080 0.000000 
#    z 0.000000 0.000000 3.346450 
# 
# 
# High freq. dielectric constant tensor:
#      x y z
#    x 1.709160 0.000000 0.000000 
#    y 0.000000 1.709160 0.000000 
#    z 0.000000 0.000000 1.698890 
# 
# From -- ./inp_files/6807.got.cif
#   From: 2010.03.12/outbox.cif.g09.slc.cpg/sg139_4_cif.got.tgz:6807.got - 2010.04.08 09:46:31.
