data_PCOD8319789
_publ_section_title
;
Structure prediction by ZEFSAII (Michael W. Deem and Ramdas Pophale) SiO2 
 PCOD8319789
Probable space group: I 4/M M M
;
_chemical_formula_sum "Si O2"
_cell_formula_units_Z 144
_cell_length_a 28.516960
_cell_length_b 28.516960
_cell_length_c 9.703775
_cell_angle_alpha 90.000000
_cell_angle_beta 90.000000
_cell_angle_gamma 90.000000
_cell_volume 7891.274868
_symmetry_space_group_name_H-M "I 4/M M M"
_symmetry_group_IT_number 139
_symmetry_cell_setting 'tetragonal'
loop_
_space_group_symop_operation_xyz
x,y,z
-y,x,z
-x,-y,z
y,-x,z
x,-y,-z
-x,y,-z
y,x,-z
-y,-x,-z
-x,-y,-z
y,-x,-z
x,y,-z
-y,x,-z
-x,y,z
x,-y,z
-y,-x,z
y,x,z
1/2+x,1/2+y,1/2+z
1/2-y,1/2+x,1/2+z
1/2-x,1/2-y,1/2+z
1/2+y,1/2-x,1/2+z
1/2+x,1/2-y,1/2-z
1/2-x,1/2+y,1/2-z
1/2+y,1/2+x,1/2-z
1/2-y,1/2-x,1/2-z
1/2-x,1/2-y,1/2-z
1/2+y,1/2-x,1/2-z
1/2+x,1/2+y,1/2-z
1/2-y,1/2+x,1/2-z
1/2-x,1/2+y,1/2+z
1/2+x,1/2-y,1/2+z
1/2-y,1/2-x,1/2+z
1/2+y,1/2+x,1/2+z
loop_
_atom_site_type_symbol
_atom_site_label
_atom_site_fract_x
_atom_site_fract_y
_atom_site_fract_z
Si Si1 0.551139 0.051139 0.250000
Si Si2 0.869898 0.053884 0.840222
Si Si3 0.650065 0.949581 0.653516
Si Si4 0.639918 0.202737 0.836425
Si Si5 0.114689 0.191894 0.657209
O O1 0.500000 0.054756 0.324908
O O2 0.593740 0.056614 0.357084
O O3 0.916518 0.083483 0.802886
O O4 0.825481 0.072055 0.752818
O O5 0.880219 0.000000 0.802042
O O6 0.856792 0.059596 0.000000
O O7 0.670296 0.951290 0.500000
O O8 0.674865 0.905376 0.725042
O O9 0.662265 0.000000 0.726129
O O10 0.684785 0.184785 0.750000
O O11 0.631483 0.256664 0.800201
O O12 0.648220 0.194511 0.000000
O O13 0.096760 0.190829 0.500000
O O14 0.159337 0.159337 0.679918
#
# Coordination Sequence:
#
# PCOD8319789 Si02
#       5
#    16  32  32  32  32
#     4   9  16  26  42  62  83 110 146 186 229 280
#     4   9  18  33  54  81 112 143 174 210 253 303
#     4   9  17  29  44  63  89 120 154 191 235 292
#     4  10  20  34  52  73  98 128 165 213 264 310
#     4   9  19  35  53  74 101 135 175 214 253 303
#
# _framework density 18.248003000000001
#
# number of rings (size 3 to 8) (size 9 to 14) (size 15 to 20)
#    0.000    2.778    1.111    0.000    0.000    3.333 
#    0.000    5.556    0.000    0.667    0.000    3.111 
#    0.000    0.000    0.000    0.000    0.000    0.000 
#
# Total GULP energy -892094.734303 kJ/mol
# GULP energy per Si atom -12390.204643 kJ/mol
# Density = 1.820647 g / cm^3
# Si number density = 18.248003 Si / 1000 Ang^3
#
#
#
# Elastic Constant Matrix: (Units=GPa)
#
#
# Indices 1 2 3 4 5 6 
#
# 1 122.0035 54.2977 46.9455 0.0000 0.0000 0.0000
# 2 54.2977 122.0035 46.9455 0.0000 0.0000 0.0000
# 3 46.9455 46.9455 57.5984 0.0000 0.0000 0.0000
# 4 0.0000 0.0000 0.0000 25.4419 0.0000 0.0000
# 5 0.0000 0.0000 0.0000 0.0000 25.4419 0.0000
# 6 0.0000 0.0000 0.0000 0.0000 0.0000 16.9678
#
#
#
# Elastic Compliance Matrix: (Units=1/GPa)
#
#
# Indices 1 2 3 4 5 6 
#
# 1 0.012396 -0.002374 -0.008169 0.000000 0.000000 0.000000
# 2 -0.002374 0.012396 -0.008169 0.000000 0.000000 0.000000
# 3 -0.008169 -0.008169 0.030678 0.000000 0.000000 0.000000
# 4 0.000000 0.000000 0.000000 0.039305 0.000000 0.000000
# 5 0.000000 0.000000 0.000000 0.000000 0.039305 0.000000
# 6 0.000000 0.000000 0.000000 0.000000 0.000000 0.058935
#
#
# Mechanical properties :
#
#
# Convention : Reuss Voigt Hill
#
# Bulk Modulus (GPa) = 55.41000 66.44251 60.92626
# Shear Modulus (GPa) = 21.14578 23.79811 22.47195
#
# Velocity S-wave (km/s) = 3.40781 3.61522 3.51304
# Velocity P-wave (km/s) = 6.77607 7.34277 7.06510
#
# Compressibility (1/GPa) = 0.01804728
#
# Stress axis : x y z
#
# Youngs Moduli (GPa) = 80.67021 80.67021 32.59708
#
# Poissons Ratio (x) = 0.19148 0.26628
# Poissons Ratio (y) = 0.19148 0.26628
# Poissons Ratio (z) = 0.65898 0.65898
#
# Static dielectric constant tensor:
#      x y z
#    x 3.463650 0.000000 0.000000 
#    y 0.000000 3.463650 0.000000 
#    z 0.000000 0.000000 3.086010 
# 
# 
# High freq. dielectric constant tensor:
#      x y z
#    x 1.710220 0.000000 0.000000 
#    y 0.000000 1.710220 0.000000 
#    z 0.000000 0.000000 1.673310 
# 
# From -- ./inp_files/1991.got.cif
#   From: 2010.03.12/outbox.cif.g09.slc.cpg/sg139_1_cif.got.tgz:1991.got - 2010.04.08 09:46:31.
