data_PCOD8319255
_publ_section_title
;
Structure prediction by ZEFSAII (Michael W. Deem and Ramdas Pophale) SiO2 
 PCOD8319255
Probable space group: I 4/M M M
;
_chemical_formula_sum "Si O2"
_cell_formula_units_Z 144
_cell_length_a 21.765326
_cell_length_b 21.765326
_cell_length_c 19.263850
_cell_angle_alpha 90.000000
_cell_angle_beta 90.000000
_cell_angle_gamma 90.000000
_cell_volume 9125.852408
_symmetry_space_group_name_H-M "I 4/M M M"
_symmetry_group_IT_number 139
_symmetry_cell_setting 'tetragonal'
loop_
_space_group_symop_operation_xyz
x,y,z
-y,x,z
-x,-y,z
y,-x,z
x,-y,-z
-x,y,-z
y,x,-z
-y,-x,-z
-x,-y,-z
y,-x,-z
x,y,-z
-y,x,-z
-x,y,z
x,-y,z
-y,-x,z
y,x,z
1/2+x,1/2+y,1/2+z
1/2-y,1/2+x,1/2+z
1/2-x,1/2-y,1/2+z
1/2+y,1/2-x,1/2+z
1/2+x,1/2-y,1/2-z
1/2-x,1/2+y,1/2-z
1/2+y,1/2+x,1/2-z
1/2-y,1/2-x,1/2-z
1/2-x,1/2-y,1/2-z
1/2+y,1/2-x,1/2-z
1/2+x,1/2+y,1/2-z
1/2-y,1/2+x,1/2-z
1/2-x,1/2+y,1/2+z
1/2+x,1/2-y,1/2+z
1/2-y,1/2-x,1/2+z
1/2+y,1/2+x,1/2+z
loop_
_atom_site_type_symbol
_atom_site_label
_atom_site_fract_x
_atom_site_fract_y
_atom_site_fract_z
Si Si1 0.393801 0.142481 0.645201
Si Si2 0.759836 0.071016 0.922244
Si Si3 0.000000 0.571987 0.923183
Si Si4 0.569703 0.204765 0.784499
Si Si5 0.571169 0.329928 0.714268
O O1 0.387396 0.199837 0.592494
O O2 0.437719 0.090484 0.615219
O O3 0.426142 0.164931 0.715178
O O4 0.325534 0.114554 0.658010
O O5 0.812419 0.085354 0.865954
O O6 0.738919 0.000000 0.914421
O O7 0.784682 0.084819 0.000000
O O8 0.000000 0.500000 0.927805
O O9 0.000000 0.601762 0.000000
O O10 0.500000 0.203551 0.812224
O O11 0.589582 0.274432 0.766152
O O12 0.500000 0.347412 0.723350
O O13 0.611333 0.388668 0.734934
#
# Coordination Sequence:
#
# PCOD8319255 Si02
#       5
#    32  32  16  32  32
#     4  10  16  27  41  59  81 119 159 187 219 251
#     4   9  16  28  45  61  85 123 158 185 215 260
#     4  11  20  26  36  60  92 120 155 199 227 247
#     4   9  17  29  42  59  86 114 150 186 222 269
#     4   9  18  32  49  68  87 109 140 181 232 284
#
# _framework density 15.779348000000001
#
# number of rings (size 3 to 8) (size 9 to 14) (size 15 to 20)
#    0.000    2.556    2.222    2.667    0.000    0.667 
#    0.000    8.889    0.000    0.000    0.000    3.111 
#    0.000    0.000    0.000    2.000    0.000    4.444 
#
# Total GULP energy -892510.071544 kJ/mol
# GULP energy per Si atom -12395.973216 kJ/mol
# Density = 1.574343 g / cm^3
# Si number density = 15.779348 Si / 1000 Ang^3
#
#
#
# Elastic Constant Matrix: (Units=GPa)
#
#
# Indices 1 2 3 4 5 6 
#
# 1 82.0594 59.5428 28.1347 0.0000 0.0000 0.0000
# 2 59.5428 82.0594 28.1347 0.0000 0.0000 0.0000
# 3 28.1347 28.1347 40.9976 0.0000 0.0000 0.0000
# 4 0.0000 0.0000 0.0000 12.4637 0.0000 0.0000
# 5 0.0000 0.0000 0.0000 0.0000 12.4637 0.0000
# 6 0.0000 0.0000 0.0000 0.0000 0.0000 29.6200
#
#
#
# Elastic Compliance Matrix: (Units=1/GPa)
#
#
# Indices 1 2 3 4 5 6 
#
# 1 0.027061 -0.017351 -0.006663 0.000000 0.000000 0.000000
# 2 -0.017351 0.027061 -0.006663 0.000000 0.000000 0.000000
# 3 -0.006663 -0.006663 0.033537 0.000000 0.000000 0.000000
# 4 0.000000 0.000000 0.000000 0.080233 0.000000 0.000000
# 5 0.000000 0.000000 0.000000 0.000000 0.080233 0.000000
# 6 0.000000 0.000000 0.000000 0.000000 0.000000 0.033761
#
#
# Mechanical properties :
#
#
# Convention : Reuss Voigt Hill
#
# Bulk Modulus (GPa) = 38.01803 48.52675 43.27239
# Shear Modulus (GPa) = 14.20417 16.86309 15.53363
#
# Velocity S-wave (km/s) = 3.00355 3.27261 3.14096
# Velocity P-wave (km/s) = 6.01450 6.71566 6.37473
#
# Compressibility (1/GPa) = 0.02630331
#
# Stress axis : x y z
#
# Youngs Moduli (GPa) = 36.95387 36.95387 29.81757
#
# Poissons Ratio (x) = 0.64118 0.19869
# Poissons Ratio (y) = 0.64118 0.19869
# Poissons Ratio (z) = 0.24624 0.24624
#
# Static dielectric constant tensor:
#      x y z
#    x 2.857420 0.000000 0.000000 
#    y 0.000000 2.857420 0.000000 
#    z 0.000000 0.000000 3.038230 
# 
# 
# High freq. dielectric constant tensor:
#      x y z
#    x 1.589270 0.000000 0.000000 
#    y 0.000000 1.589270 0.000000 
#    z 0.000000 0.000000 1.584040 
# 
# From -- ./inp_files/10242.got.cif
#   From: 2010.03.12/outbox.cif.g09.slc.cpg/sg139_6_cif.got.tgz:10242.got - 2010.04.08 09:46:31.
