data_PCOD8319926
_publ_section_title
;
Structure prediction by ZEFSAII (Michael W. Deem and Ramdas Pophale) SiO2 
 PCOD8319926
Probable space group: I 4/M M M
;
_chemical_formula_sum "Si O2"
_cell_formula_units_Z 160
_cell_length_a 16.974374
_cell_length_b 16.974374
_cell_length_c 27.410451
_cell_angle_alpha 90.000000
_cell_angle_beta 90.000000
_cell_angle_gamma 90.000000
_cell_volume 7897.756052
_symmetry_space_group_name_H-M "I 4/M M M"
_symmetry_group_IT_number 139
_symmetry_cell_setting 'tetragonal'
loop_
_space_group_symop_operation_xyz
x,y,z
-y,x,z
-x,-y,z
y,-x,z
x,-y,-z
-x,y,-z
y,x,-z
-y,-x,-z
-x,-y,-z
y,-x,-z
x,y,-z
-y,x,-z
-x,y,z
x,-y,z
-y,-x,z
y,x,z
1/2+x,1/2+y,1/2+z
1/2-y,1/2+x,1/2+z
1/2-x,1/2-y,1/2+z
1/2+y,1/2-x,1/2+z
1/2+x,1/2-y,1/2-z
1/2-x,1/2+y,1/2-z
1/2+y,1/2+x,1/2-z
1/2-y,1/2-x,1/2-z
1/2-x,1/2-y,1/2-z
1/2+y,1/2-x,1/2-z
1/2+x,1/2+y,1/2-z
1/2-y,1/2+x,1/2-z
1/2-x,1/2+y,1/2+z
1/2+x,1/2-y,1/2+z
1/2-y,1/2-x,1/2+z
1/2+y,1/2+x,1/2+z
loop_
_atom_site_type_symbol
_atom_site_label
_atom_site_fract_x
_atom_site_fract_y
_atom_site_fract_z
Si Si1 0.715323 0.087902 0.737781
Si Si2 0.412074 0.713304 0.338339
Si Si3 0.000000 0.410757 0.447266
Si Si4 0.836655 0.357252 0.589526
Si Si5 0.773994 0.095544 0.000000
Si Si6 0.591806 0.713033 0.867220
O O1 0.644379 0.144379 0.750000
O O2 0.780935 0.095066 0.780016
O O3 0.756220 0.108769 0.687055
O O4 0.680420 0.000000 0.736090
O O5 0.500000 0.688498 0.354163
O O6 0.353293 0.646708 0.358684
O O7 0.390965 0.798007 0.361271
O O8 0.077766 0.395392 0.416019
O O9 0.000000 0.500000 0.461604
O O10 0.000000 0.364617 0.500000
O O11 0.776888 0.376941 0.546119
O O12 0.855376 0.264613 0.595446
O O13 0.858347 0.141654 0.000000
O O14 0.786919 0.000000 0.000000
O O15 0.500000 0.715353 0.881563
O O16 0.623532 0.623532 0.871071
#
# Coordination Sequence:
#
# PCOD8319926 Si02
#       6
#    32  32  16  32  16  32
#     4  10  21  37  58  87 121 162 204 247 300 360
#     4  11  23  39  61  89 123 164 207 252 301 358
#     4  11  22  40  64  90 125 155 191 251 310 367
#     4  12  23  40  63  94 121 158 205 248 306 369
#     4  12  26  44  67  95 128 166 208 254 303 362
#     4  11  23  40  62  90 122 161 208 254 306 364
#
# _framework density 20.25892
#
# number of rings (size 3 to 8) (size 9 to 14) (size 15 to 20)
#    0.000    0.900    4.000    4.200    0.000    1.500 
#    0.000    0.000    0.000    6.000    0.000    0.000 
#    0.000    3.200    0.000    0.000    0.000    0.000 
#
# Total GULP energy -991666.629050 kJ/mol
# GULP energy per Si atom -12395.832863 kJ/mol
# Density = 2.021281 g / cm^3
# Si number density = 20.258920 Si / 1000 Ang^3
#
#
#
# Elastic Constant Matrix: (Units=GPa)
#
#
# Indices 1 2 3 4 5 6 
#
# 1 125.3821 93.3242 37.9666 0.0000 0.0000 0.0000
# 2 93.3242 125.3831 37.9663 0.0000 0.0000 0.0000
# 3 37.9666 37.9663 69.7754 0.0000 0.0000 0.0000
# 4 0.0000 0.0000 0.0000 24.8609 0.0000 0.0000
# 5 0.0000 0.0000 0.0000 0.0000 24.8603 0.0000
# 6 0.0000 0.0000 0.0000 0.0000 0.0000 7.9869
#
#
#
# Elastic Compliance Matrix: (Units=1/GPa)
#
#
# Indices 1 2 3 4 5 6 
#
# 1 0.018415 -0.012778 -0.003068 0.000000 0.000000 0.000000
# 2 -0.012778 0.018415 -0.003067 0.000000 0.000000 0.000000
# 3 -0.003068 -0.003067 0.017670 0.000000 0.000000 0.000000
# 4 0.000000 0.000000 0.000000 0.040224 0.000000 0.000000
# 5 0.000000 0.000000 0.000000 0.000000 0.040225 0.000000
# 6 0.000000 0.000000 0.000000 0.000000 0.000000 0.125205
#
#
# Mechanical properties :
#
#
# Convention : Reuss Voigt Hill
#
# Bulk Modulus (GPa) = 59.97068 73.22832 66.59950
# Shear Modulus (GPa) = 16.47245 21.62720 19.04982
#
# Velocity S-wave (km/s) = 2.85458 3.27087 3.06979
# Velocity P-wave (km/s) = 6.36641 7.10559 6.74613
#
# Compressibility (1/GPa) = 0.01667482
#
# Stress axis : x y z
#
# Youngs Moduli (GPa) = 54.30273 54.30338 56.59386
#
# Poissons Ratio (x) = 0.69388 0.17360
# Poissons Ratio (y) = 0.69387 0.17359
# Poissons Ratio (z) = 0.16657 0.16656
#
# Static dielectric constant tensor:
#      x y z
#    x 3.711850 0.000000 0.000000 
#    y 0.000000 3.711850 0.000000 
#    z 0.000000 0.000000 3.878900 
# 
# 
# High freq. dielectric constant tensor:
#      x y z
#    x 1.789640 0.000000 0.000000 
#    y 0.000000 1.789640 0.000000 
#    z 0.000000 0.000000 1.796870 
# 
# From -- ./inp_files/13028.got.cif
#   From: 2010.03.12/outbox.cif.g09.slc.cpg/sg139_7_cif.got.tgz:13028.got - 2010.04.08 09:46:31.
