data_PCOD8319848
_publ_section_title
;
Structure prediction by ZEFSAII (Michael W. Deem and Ramdas Pophale) SiO2 
 PCOD8319848
Probable space group: I 4/M M M
;
_chemical_formula_sum "Si O2"
_cell_formula_units_Z 164
_cell_length_a 21.352209
_cell_length_b 21.352209
_cell_length_c 18.936637
_cell_angle_alpha 90.000000
_cell_angle_beta 90.000000
_cell_angle_gamma 90.000000
_cell_volume 8633.531496
_symmetry_space_group_name_H-M "I 4/M M M"
_symmetry_group_IT_number 139
_symmetry_cell_setting 'tetragonal'
loop_
_space_group_symop_operation_xyz
x,y,z
-y,x,z
-x,-y,z
y,-x,z
x,-y,-z
-x,y,-z
y,x,-z
-y,-x,-z
-x,-y,-z
y,-x,-z
x,y,-z
-y,x,-z
-x,y,z
x,-y,z
-y,-x,z
y,x,z
1/2+x,1/2+y,1/2+z
1/2-y,1/2+x,1/2+z
1/2-x,1/2-y,1/2+z
1/2+y,1/2-x,1/2+z
1/2+x,1/2-y,1/2-z
1/2-x,1/2+y,1/2-z
1/2+y,1/2+x,1/2-z
1/2-y,1/2-x,1/2-z
1/2-x,1/2-y,1/2-z
1/2+y,1/2-x,1/2-z
1/2+x,1/2+y,1/2-z
1/2-y,1/2+x,1/2-z
1/2-x,1/2+y,1/2+z
1/2+x,1/2-y,1/2+z
1/2-y,1/2-x,1/2+z
1/2+y,1/2+x,1/2+z
loop_
_atom_site_type_symbol
_atom_site_label
_atom_site_fract_x
_atom_site_fract_y
_atom_site_fract_z
Si Si1 0.000000 0.000000 0.355578
Si Si2 0.500000 0.070891 0.916512
Si Si3 0.858059 0.758035 0.079809
Si Si4 0.000000 0.132591 0.581225
Si Si5 0.328265 0.571193 0.698557
Si Si6 0.840296 0.386669 0.081454
Si Si7 0.292147 0.607107 0.149470
O O1 0.074494 0.000000 0.367073
O O2 0.563089 0.107669 0.892110
O O3 0.500000 0.000000 0.884381
O O4 0.500000 0.065510 0.000000
O O5 0.788736 0.788736 0.093976
O O6 0.907913 0.787355 0.132421
O O7 0.862766 0.684145 0.092120
O O8 0.878707 0.773848 0.000000
O O9 0.061560 0.172990 0.595751
O O10 0.000000 0.110329 0.500000
O O11 0.346621 0.500000 0.688706
O O12 0.394406 0.605595 0.701633
O O13 0.291145 0.582161 0.770720
O O14 0.779617 0.392406 0.128861
O O15 0.823224 0.399858 0.000000
O O16 0.324077 0.675924 0.145295
#
# Coordination Sequence:
#
# PCOD8319848 Si02
#       7
#     4  16  32  16  32  32  32
#     4  12  25  36  48  76 120 164 213 254 289 320
#     4   9  19  35  54  81 115 146 188 239 285 347
#     4   9  19  37  61  87 113 141 184 243 303 361
#     4  12  22  34  50  74 113 164 206 244 282 326
#     4  10  22  39  57  84 117 154 197 238 288 344
#     4  10  20  35  58  86 115 151 190 236 295 348
#     4  11  22  35  53  81 116 156 198 240 282 341
#
# _framework density 18.995704
#
# number of rings (size 3 to 8) (size 9 to 14) (size 15 to 20)
#    0.000    1.854    1.951    2.195    0.000    4.878 
#    0.000    4.878    0.000    0.000    0.000    2.732 
#    0.000    0.000    0.000    0.000    0.000    0.000 
#
# Total GULP energy -1015843.824978 kJ/mol
# GULP energy per Si atom -12388.339329 kJ/mol
# Density = 1.895247 g / cm^3
# Si number density = 18.995704 Si / 1000 Ang^3
#
#
#
# Elastic Constant Matrix: (Units=GPa)
#
#
# Indices 1 2 3 4 5 6 
#
# 1 139.7142 58.1591 51.9003 0.0000 0.0000 0.0000
# 2 58.1591 139.7142 51.9003 0.0000 0.0000 0.0000
# 3 51.9003 51.9003 74.7856 0.0000 0.0000 0.0000
# 4 0.0000 0.0000 0.0000 21.7982 0.0000 0.0000
# 5 0.0000 0.0000 0.0000 0.0000 21.7982 0.0000
# 6 0.0000 0.0000 0.0000 0.0000 0.0000 22.1373
#
#
#
# Elastic Compliance Matrix: (Units=1/GPa)
#
#
# Indices 1 2 3 4 5 6 
#
# 1 0.010104 -0.002157 -0.005515 0.000000 0.000000 0.000000
# 2 -0.002157 0.010104 -0.005515 0.000000 0.000000 0.000000
# 3 -0.005515 -0.005515 0.021026 0.000000 0.000000 0.000000
# 4 0.000000 0.000000 0.000000 0.045875 0.000000 0.000000
# 5 0.000000 0.000000 0.000000 0.000000 0.045875 0.000000
# 6 0.000000 0.000000 0.000000 0.000000 0.000000 0.045173
#
#
# Mechanical properties :
#
#
# Convention : Reuss Voigt Hill
#
# Bulk Modulus (GPa) = 67.29525 75.34814 71.32169
# Shear Modulus (GPa) = 23.86794 25.96369 24.91582
#
# Velocity S-wave (km/s) = 3.54855 3.70106 3.62561
# Velocity P-wave (km/s) = 7.23139 7.61681 7.42660
#
# Compressibility (1/GPa) = 0.01485989
#
# Stress axis : x y z
#
# Youngs Moduli (GPa) = 98.96856 98.96856 47.55970
#
# Poissons Ratio (x) = 0.21352 0.26229
# Poissons Ratio (y) = 0.21352 0.26229
# Poissons Ratio (z) = 0.54581 0.54581
#
# Static dielectric constant tensor:
#      x y z
#    x 4.401610 0.000000 0.000000 
#    y 0.000000 4.401610 0.000000 
#    z 0.000000 0.000000 3.421900 
# 
# 
# High freq. dielectric constant tensor:
#      x y z
#    x 1.743510 0.000000 0.000000 
#    y 0.000000 1.743510 0.000000 
#    z 0.000000 0.000000 1.720300 
# 
# From -- ./inp_files/10374.got.cif
#   From: 2010.03.12/outbox.cif.g09.slc.cpg/sg139_6_cif.got.tgz:10374.got - 2010.04.08 09:46:31.
