data_PCOD8319348
_publ_section_title
;
Structure prediction by ZEFSAII (Michael W. Deem and Ramdas Pophale) SiO2 
 PCOD8319348
Probable space group: I 4/M M M
;
_chemical_formula_sum "Si O2"
_cell_formula_units_Z 192
_cell_length_a 20.181755
_cell_length_b 20.181755
_cell_length_c 27.840206
_cell_angle_alpha 90.000000
_cell_angle_beta 90.000000
_cell_angle_gamma 90.000000
_cell_volume 11339.405964
_symmetry_space_group_name_H-M "I 4/M M M"
_symmetry_group_IT_number 139
_symmetry_cell_setting 'tetragonal'
loop_
_space_group_symop_operation_xyz
x,y,z
-y,x,z
-x,-y,z
y,-x,z
x,-y,-z
-x,y,-z
y,x,-z
-y,-x,-z
-x,-y,-z
y,-x,-z
x,y,-z
-y,x,-z
-x,y,z
x,-y,z
-y,-x,z
y,x,z
1/2+x,1/2+y,1/2+z
1/2-y,1/2+x,1/2+z
1/2-x,1/2-y,1/2+z
1/2+y,1/2-x,1/2+z
1/2+x,1/2-y,1/2-z
1/2-x,1/2+y,1/2-z
1/2+y,1/2+x,1/2-z
1/2-y,1/2-x,1/2-z
1/2-x,1/2-y,1/2-z
1/2+y,1/2-x,1/2-z
1/2+x,1/2+y,1/2-z
1/2-y,1/2+x,1/2-z
1/2-x,1/2+y,1/2+z
1/2+x,1/2-y,1/2+z
1/2-y,1/2-x,1/2+z
1/2+y,1/2+x,1/2+z
loop_
_atom_site_type_symbol
_atom_site_label
_atom_site_fract_x
_atom_site_fract_y
_atom_site_fract_z
Si Si1 0.839482 0.731721 0.892533
Si Si2 0.691795 0.074931 0.298303
Si Si3 0.928269 0.827125 0.943787
Si Si4 0.140718 0.249967 0.446374
Si Si5 0.686023 0.423176 0.861406
Si Si6 0.326045 0.922973 0.810490
O O1 0.778138 0.778138 0.875995
O O2 0.882565 0.764043 0.934503
O O3 0.814379 0.662221 0.915275
O O4 0.889198 0.723736 0.847858
O O5 0.755359 0.104306 0.326607
O O6 0.707612 0.081035 0.241817
O O7 0.621773 0.108058 0.311469
O O8 0.682672 0.000000 0.315094
O O9 0.892784 0.892784 0.922578
O O10 0.000000 0.820142 0.918809
O O11 0.936843 0.834085 0.000000
O O12 0.113986 0.268229 0.500000
O O13 0.206055 0.206055 0.452066
O O14 0.084635 0.210380 0.416646
O O15 0.668644 0.500000 0.851531
O O16 0.620609 0.379392 0.851629
O O17 0.342152 0.000000 0.823628
#
# Coordination Sequence:
#
# PCOD8319348 Si02
#       6
#    32  32  32  32  32  32
#     4  10  18  29  45  69  98 128 161 200 246 295
#     4   9  19  34  50  72 101 131 162 200 247 297
#     4   9  17  28  42  61  88 123 162 205 249 291
#     4   9  17  30  49  72  97 127 163 202 248 300
#     4  10  20  35  54  76 103 132 166 206 249 299
#     4  10  19  31  50  75 101 128 164 206 246 290
#
# _framework density 16.932103999999999
#
# number of rings (size 3 to 8) (size 9 to 14) (size 15 to 20)
#    0.000    2.500    1.667    1.000    0.000    3.667 
#    0.000    4.167    0.000    0.000    0.000    2.333 
#    0.000    6.667    0.000    0.000    0.000    0.000 
#
# Total GULP energy -1189667.597217 kJ/mol
# GULP energy per Si atom -12392.370804 kJ/mol
# Density = 1.689357 g / cm^3
# Si number density = 16.932104 Si / 1000 Ang^3
#
#
#
# Elastic Constant Matrix: (Units=GPa)
#
#
# Indices 1 2 3 4 5 6 
#
# 1 83.5434 42.5330 31.5827 0.0000 0.0000 0.0000
# 2 42.5330 83.5434 31.5827 0.0000 0.0000 0.0000
# 3 31.5827 31.5827 75.1182 0.0000 0.0000 0.0000
# 4 0.0000 0.0000 0.0000 21.9708 0.0000 0.0000
# 5 0.0000 0.0000 0.0000 0.0000 21.9708 0.0000
# 6 0.0000 0.0000 0.0000 0.0000 0.0000 20.2644
#
#
#
# Elastic Compliance Matrix: (Units=1/GPa)
#
#
# Indices 1 2 3 4 5 6 
#
# 1 0.017216 -0.007168 -0.004225 0.000000 0.000000 0.000000
# 2 -0.007168 0.017216 -0.004225 0.000000 0.000000 0.000000
# 3 -0.004225 -0.004225 0.016865 0.000000 0.000000 0.000000
# 4 0.000000 0.000000 0.000000 0.045515 0.000000 0.000000
# 5 0.000000 0.000000 0.000000 0.000000 0.045515 0.000000
# 6 0.000000 0.000000 0.000000 0.000000 0.000000 0.049348
#
#
# Mechanical properties :
#
#
# Convention : Reuss Voigt Hill
#
# Bulk Modulus (GPa) = 49.84395 50.40018 50.12206
# Shear Modulus (GPa) = 21.77732 21.94166 21.85949
#
# Velocity S-wave (km/s) = 3.59019 3.60371 3.59696
# Velocity P-wave (km/s) = 6.83282 6.86632 6.84959
#
# Compressibility (1/GPa) = 0.02006262
#
# Stress axis : x y z
#
# Youngs Moduli (GPa) = 58.08491 58.08491 59.29504
#
# Poissons Ratio (x) = 0.41634 0.25050
# Poissons Ratio (y) = 0.41634 0.25050
# Poissons Ratio (z) = 0.24539 0.24539
#
# Static dielectric constant tensor:
#      x y z
#    x 3.164840 0.000000 0.000000 
#    y 0.000000 3.164840 0.000000 
#    z 0.000000 0.000000 3.232300 
# 
# 
# High freq. dielectric constant tensor:
#      x y z
#    x 1.642560 0.000000 0.000000 
#    y 0.000000 1.642560 0.000000 
#    z 0.000000 0.000000 1.649870 
# 
# From -- ./inp_files/11955.got.cif
#   From: 2010.03.12/outbox.cif.g09.slc.cpg/sg139_6_cif.got.tgz:11955.got - 2010.04.08 09:46:31.
