data_PCOD8319777
_publ_section_title
;
Structure prediction by ZEFSAII (Michael W. Deem and Ramdas Pophale) SiO2 
 PCOD8319777
Probable space group: I 4/M M M
;
_chemical_formula_sum "Si O2"
_cell_formula_units_Z 104
_cell_length_a 15.699500
_cell_length_b 15.699500
_cell_length_c 21.972900
_cell_angle_alpha 90.000000
_cell_angle_beta 90.000000
_cell_angle_gamma 90.000000
_cell_volume 5415.755152
_symmetry_space_group_name_H-M "I 4/M M M"
_symmetry_group_IT_number 139
_symmetry_cell_setting 'tetragonal'
loop_
_space_group_symop_operation_xyz
x,y,z
-y,x,z
-x,-y,z
y,-x,z
x,-y,-z
-x,y,-z
y,x,-z
-y,-x,-z
-x,-y,-z
y,-x,-z
x,y,-z
-y,x,-z
-x,y,z
x,-y,z
-y,-x,z
y,x,z
1/2+x,1/2+y,1/2+z
1/2-y,1/2+x,1/2+z
1/2-x,1/2-y,1/2+z
1/2+y,1/2-x,1/2+z
1/2+x,1/2-y,1/2-z
1/2-x,1/2+y,1/2-z
1/2+y,1/2+x,1/2-z
1/2-y,1/2-x,1/2-z
1/2-x,1/2-y,1/2-z
1/2+y,1/2-x,1/2-z
1/2+x,1/2+y,1/2-z
1/2-y,1/2+x,1/2-z
1/2-x,1/2+y,1/2+z
1/2+x,1/2-y,1/2+z
1/2-y,1/2-x,1/2+z
1/2+y,1/2+x,1/2+z
loop_
_atom_site_type_symbol
_atom_site_label
_atom_site_fract_x
_atom_site_fract_y
_atom_site_fract_z
Si Si1 0.000000 0.765936 0.931917
Si Si2 0.092259 0.500000 0.383346
Si Si3 0.809297 0.190704 0.613930
Si Si4 0.899416 0.899416 0.500000
Si Si5 0.674839 0.325162 0.428287
Si Si6 0.902797 0.327838 0.307240
O O1 0.084643 0.799312 0.897839
O O2 0.000000 0.663650 0.935040
O O3 0.000000 0.801247 0.000000
O O4 0.102769 0.584629 0.343985
O O5 0.000000 0.500000 0.415616
O O6 0.859341 0.140660 0.561101
O O7 0.744857 0.255144 0.582897
O O8 0.754995 0.125028 0.654497
O O9 0.000000 0.880391 0.500000
O O10 0.665192 0.334809 0.500000
O O11 0.839457 0.339457 0.250000
O O12 0.000000 0.312553 0.285805
#
# Coordination Sequence:
#
# PCOD8319777 Si02
#       6
#    16  16  16   8  16  32
#     4  10  20  36  54  80 115 157 195 256 311 373
#     4  10  20  33  55  85 116 157 196 242 317 380
#     4  12  22  38  64  95 117 156 214 255 294 366
#     4  11  26  48  68  90 130 169 200 250 310 369
#     4  10  20  35  55  80 116 148 194 247 304 361
#     4  11  22  38  60  87 122 160 202 251 308 370
#
# _framework density 19.203232
#
# number of rings (size 3 to 8) (size 9 to 14) (size 15 to 20)
#    0.000    1.308    5.385    1.385    0.000    0.615 
#    0.000    1.538    0.000    0.000    0.000    0.000 
#    0.000    0.000    0.000    0.000    0.000    0.000 
#
# Total GULP energy -644456.450526 kJ/mol
# GULP energy per Si atom -12393.393279 kJ/mol
# Density = 1.915952 g / cm^3
# Si number density = 19.203232 Si / 1000 Ang^3
#
#
#
# Elastic Constant Matrix: (Units=GPa)
#
#
# Indices 1 2 3 4 5 6 
#
# 1 132.0027 77.0820 43.7066 0.0000 0.0000 0.0000
# 2 77.0820 132.0030 43.7066 0.0000 0.0000 0.0000
# 3 43.7066 43.7066 72.5419 0.0000 0.0000 0.0000
# 4 0.0000 0.0000 0.0000 16.0448 0.0000 0.0000
# 5 0.0000 0.0000 0.0000 0.0000 16.0456 0.0000
# 6 0.0000 0.0000 0.0000 0.0000 0.0000 31.2369
#
#
#
# Elastic Compliance Matrix: (Units=1/GPa)
#
#
# Indices 1 2 3 4 5 6 
#
# 1 0.012301 -0.005907 -0.003852 0.000000 0.000000 0.000000
# 2 -0.005907 0.012301 -0.003852 0.000000 0.000000 0.000000
# 3 -0.003852 -0.003852 0.018427 0.000000 0.000000 0.000000
# 4 0.000000 0.000000 0.000000 0.062325 0.000000 0.000000
# 5 0.000000 0.000000 0.000000 0.000000 0.062322 0.000000
# 6 0.000000 0.000000 0.000000 0.000000 0.000000 0.032013
#
#
# Mechanical properties :
#
#
# Convention : Reuss Voigt Hill
#
# Bulk Modulus (GPa) = 63.26940 73.94864 68.60902
# Shear Modulus (GPa) = 21.53505 24.13564 22.83534
#
# Velocity S-wave (km/s) = 3.35241 3.54906 3.45213
# Velocity P-wave (km/s) = 6.92847 7.44221 7.18993
#
# Compressibility (1/GPa) = 0.01580543
#
# Stress axis : x y z
#
# Youngs Moduli (GPa) = 81.29693 81.29714 54.26926
#
# Poissons Ratio (x) = 0.48026 0.20904
# Poissons Ratio (y) = 0.48026 0.20904
# Poissons Ratio (z) = 0.31314 0.31314
#
# Static dielectric constant tensor:
#      x y z
#    x 3.818310 0.000000 0.000000 
#    y 0.000000 3.818320 0.000000 
#    z 0.000000 0.000000 3.237960 
# 
# 
# High freq. dielectric constant tensor:
#      x y z
#    x 1.758820 0.000000 0.000000 
#    y 0.000000 1.758820 0.000000 
#    z 0.000000 0.000000 1.719330 
# 
# From -- ./inp_files/11125.got.cif
#   From: 2010.03.12/outbox.cif.g09.slc.cpg/sg139_6_cif.got.tgz:11125.got - 2010.04.08 09:46:31.
