data_PCOD8319943
_publ_section_title
;
Structure prediction by ZEFSAII (Michael W. Deem and Ramdas Pophale) SiO2 
 PCOD8319943
Probable space group: I 4/M M M
;
_chemical_formula_sum "Si O2"
_cell_formula_units_Z 136
_cell_length_a 25.974626
_cell_length_b 25.974626
_cell_length_c 10.421980
_cell_angle_alpha 90.000000
_cell_angle_beta 90.000000
_cell_angle_gamma 90.000000
_cell_volume 7031.513929
_symmetry_space_group_name_H-M "I 4/M M M"
_symmetry_group_IT_number 139
_symmetry_cell_setting 'tetragonal'
loop_
_space_group_symop_operation_xyz
x,y,z
-y,x,z
-x,-y,z
y,-x,z
x,-y,-z
-x,y,-z
y,x,-z
-y,-x,-z
-x,-y,-z
y,-x,-z
x,y,-z
-y,x,-z
-x,y,z
x,-y,z
-y,-x,z
y,x,z
1/2+x,1/2+y,1/2+z
1/2-y,1/2+x,1/2+z
1/2-x,1/2-y,1/2+z
1/2+y,1/2-x,1/2+z
1/2+x,1/2-y,1/2-z
1/2-x,1/2+y,1/2-z
1/2+y,1/2+x,1/2-z
1/2-y,1/2-x,1/2-z
1/2-x,1/2-y,1/2-z
1/2+y,1/2-x,1/2-z
1/2+x,1/2+y,1/2-z
1/2-y,1/2+x,1/2-z
1/2-x,1/2+y,1/2+z
1/2+x,1/2-y,1/2+z
1/2-y,1/2-x,1/2+z
1/2+y,1/2+x,1/2+z
loop_
_atom_site_type_symbol
_atom_site_label
_atom_site_fract_x
_atom_site_fract_y
_atom_site_fract_z
Si Si1 0.274355 0.059155 0.500000
Si Si2 0.558696 0.058696 0.750000
Si Si3 0.619660 0.619660 0.712319
Si Si4 0.058024 0.297127 0.000000
Si Si5 0.055164 0.944837 0.354367
Si Si6 0.059440 0.940561 0.000000
Si Si7 0.220487 0.059360 0.231992
Si Si8 0.614147 0.097931 0.500000
O O1 0.240750 0.071198 0.374257
O O2 0.324220 0.095318 0.500000
O O3 0.292830 0.000000 0.500000
O O4 0.500000 0.068382 0.708180
O O5 0.593842 0.070657 0.628022
O O6 0.599147 0.599147 0.848648
O O7 0.584741 0.584741 0.622575
O O8 0.679151 0.604011 0.695777
O O9 0.067180 0.264990 0.128618
O O10 0.098796 0.342676 0.000000
O O11 0.000000 0.319569 0.000000
O O12 0.045030 0.954971 0.500000
O O13 0.000000 0.927785 0.291980
O O14 0.000000 0.927578 0.000000
O O15 0.199499 0.000000 0.223896
#
# Coordination Sequence:
#
# PCOD8319943 Si02
#       8
#    16  16  16  16  16   8  32  16
#     4  10  22  39  58  86 117 150 195 245 290 343
#     4  11  22  34  54  92 130 155 184 226 282 357
#     4  12  22  35  58  79 109 153 197 236 296 348
#     4  10  21  39  60  85 114 152 197 241 293 353
#     4   9  18  30  46  74 109 140 174 217 274 355
#     4  11  22  34  52  84 120 150 186 234 294 374
#     4  10  22  38  58  84 117 151 195 249 297 350
#     4  12  22  38  64  84 117 164 201 234 289 355
#
# _framework density 19.341495999999999
#
# number of rings (size 3 to 8) (size 9 to 14) (size 15 to 20)
#    0.000    1.471    0.000    6.706    1.647    4.706 
#    0.000    0.000    0.000    4.235    0.000    0.000 
#    0.000    0.000    0.000    0.000    0.000    0.000 
#
# Total GULP energy -842787.229734 kJ/mol
# GULP energy per Si atom -12393.929849 kJ/mol
# Density = 1.929747 g / cm^3
# Si number density = 19.341496 Si / 1000 Ang^3
#
#
#
# Elastic Constant Matrix: (Units=GPa)
#
#
# Indices 1 2 3 4 5 6 
#
# 1 110.4999 50.1072 25.2218 0.0000 0.0000 0.0000
# 2 50.1072 110.4995 25.2213 0.0000 0.0000 0.0000
# 3 25.2218 25.2213 109.4895 0.0000 0.0000 0.0000
# 4 0.0000 0.0000 0.0000 23.8835 0.0000 0.0000
# 5 0.0000 0.0000 0.0000 0.0000 23.8812 0.0000
# 6 0.0000 0.0000 0.0000 0.0000 0.0000 37.8341
#
#
#
# Elastic Compliance Matrix: (Units=1/GPa)
#
#
# Indices 1 2 3 4 5 6 
#
# 1 0.011635 -0.004923 -0.001546 0.000000 0.000000 0.000000
# 2 -0.004923 0.011635 -0.001546 0.000000 0.000000 0.000000
# 3 -0.001546 -0.001546 0.009846 0.000000 0.000000 0.000000
# 4 0.000000 0.000000 0.000000 0.041870 0.000000 0.000000
# 5 0.000000 0.000000 0.000000 0.000000 0.041874 0.000000
# 6 0.000000 0.000000 0.000000 0.000000 0.000000 0.026431
#
#
# Mechanical properties :
#
#
# Convention : Reuss Voigt Hill
#
# Bulk Modulus (GPa) = 58.53079 59.06549 58.79814
# Shear Modulus (GPa) = 30.29990 32.44898 31.37444
#
# Velocity S-wave (km/s) = 3.96229 4.10040 4.03194
# Velocity P-wave (km/s) = 7.15964 7.28164 7.22090
#
# Compressibility (1/GPa) = 0.01708503
#
# Stress axis : x y z
#
# Youngs Moduli (GPa) = 85.94637 85.94625 101.56795
#
# Poissons Ratio (x) = 0.42313 0.15704
# Poissons Ratio (y) = 0.42313 0.15704
# Poissons Ratio (z) = 0.13289 0.13288
#
# Static dielectric constant tensor:
#      x y z
#    x 3.397940 0.000000 0.000000 
#    y 0.000000 3.397930 0.000000 
#    z 0.000000 0.000000 3.652740 
# 
# 
# High freq. dielectric constant tensor:
#      x y z
#    x 1.735650 0.000000 0.000000 
#    y 0.000000 1.735650 0.000000 
#    z 0.000000 0.000000 1.778650 
# 
# From -- ./inp_files/3638.got.cif
#   From: 2010.03.12/outbox.cif.g09.slc.cpg/sg139_2_cif.got.tgz:3638.got - 2010.04.08 09:46:31.
