data_PCOD8319427
_publ_section_title
;
Structure prediction by ZEFSAII (Michael W. Deem and Ramdas Pophale) SiO2 
 PCOD8319427
Probable space group: I 4/M M M
;
_chemical_formula_sum "Si O2"
_cell_formula_units_Z 160
_cell_length_a 18.292345
_cell_length_b 18.292345
_cell_length_c 29.456043
_cell_angle_alpha 90.000000
_cell_angle_beta 90.000000
_cell_angle_gamma 90.000000
_cell_volume 9856.283178
_symmetry_space_group_name_H-M "I 4/M M M"
_symmetry_group_IT_number 139
_symmetry_cell_setting 'tetragonal'
loop_
_space_group_symop_operation_xyz
x,y,z
-y,x,z
-x,-y,z
y,-x,z
x,-y,-z
-x,y,-z
y,x,-z
-y,-x,-z
-x,-y,-z
y,-x,-z
x,y,-z
-y,x,-z
-x,y,z
x,-y,z
-y,-x,z
y,x,z
1/2+x,1/2+y,1/2+z
1/2-y,1/2+x,1/2+z
1/2-x,1/2-y,1/2+z
1/2+y,1/2-x,1/2+z
1/2+x,1/2-y,1/2-z
1/2-x,1/2+y,1/2-z
1/2+y,1/2+x,1/2-z
1/2-y,1/2-x,1/2-z
1/2-x,1/2-y,1/2-z
1/2+y,1/2-x,1/2-z
1/2+x,1/2+y,1/2-z
1/2-y,1/2+x,1/2-z
1/2-x,1/2+y,1/2+z
1/2+x,1/2-y,1/2+z
1/2-y,1/2-x,1/2+z
1/2+y,1/2+x,1/2+z
loop_
_atom_site_type_symbol
_atom_site_label
_atom_site_fract_x
_atom_site_fract_y
_atom_site_fract_z
Si Si1 0.764856 0.353544 0.101899
Si Si2 0.800734 0.084374 0.690105
Si Si3 0.500000 0.784707 0.053571
Si Si4 0.582391 0.159319 0.632784
Si Si5 0.000000 0.579461 0.386428
Si Si6 0.081912 0.305168 0.768067
O O1 0.711141 0.288860 0.085530
O O2 0.751730 0.374526 0.154450
O O3 0.747174 0.425283 0.071676
O O4 0.849776 0.324566 0.098203
O O5 0.881662 0.118339 0.688442
O O6 0.769612 0.096991 0.740777
O O7 0.806561 0.000000 0.676585
O O8 0.500000 0.867668 0.070496
O O9 0.500000 0.780781 0.000000
O O10 0.500000 0.175144 0.612504
O O11 0.589821 0.072305 0.644586
O O12 0.593785 0.207233 0.678143
O O13 0.000000 0.500000 0.409213
O O14 0.132313 0.367688 0.750000
O O15 0.000000 0.331966 0.758870
#
# Coordination Sequence:
#
# PCOD8319427 Si02
#       6
#    32  32  16  32  16  32
#     4  10  19  32  50  68  91 121 156 196 243 290
#     4  10  20  33  47  63  85 117 158 201 238 281
#     4  10  20  33  50  69  92 118 151 195 244 292
#     4   9  17  29  43  66  97 127 154 186 227 272
#     4   8  16  29  48  66  95 127 158 186 217 269
#     4  10  19  26  39  63  93 121 150 183 219 271
#
# _framework density 16.233301000000001
#
# number of rings (size 3 to 8) (size 9 to 14) (size 15 to 20)
#    0.000    2.400    3.000    0.000    1.400    2.200 
#    0.000    0.000    0.000    0.300    0.000    0.700 
#    0.000    0.400    0.000    0.000    0.000    0.000 
#
# Total GULP energy -991131.715942 kJ/mol
# GULP energy per Si atom -12389.146449 kJ/mol
# Density = 1.619635 g / cm^3
# Si number density = 16.233301 Si / 1000 Ang^3
#
#
#
# Elastic Constant Matrix: (Units=GPa)
#
#
# Indices 1 2 3 4 5 6 
#
# 1 77.8606 45.7563 21.1068 0.0000 0.0000 0.0000
# 2 45.7563 77.8596 21.1086 0.0000 0.0000 0.0000
# 3 21.1068 21.1086 60.6131 0.0000 0.0000 0.0000
# 4 0.0000 0.0000 0.0000 11.9212 0.0000 0.0000
# 5 0.0000 0.0000 0.0000 0.0000 11.9212 0.0000
# 6 0.0000 0.0000 0.0000 0.0000 0.0000 24.6668
#
#
#
# Elastic Compliance Matrix: (Units=1/GPa)
#
#
# Indices 1 2 3 4 5 6 
#
# 1 0.020165 -0.010984 -0.003197 0.000000 0.000000 0.000000
# 2 -0.010984 0.020166 -0.003198 0.000000 0.000000 0.000000
# 3 -0.003197 -0.003198 0.018725 0.000000 0.000000 0.000000
# 4 0.000000 0.000000 0.000000 0.083884 0.000000 0.000000
# 5 0.000000 0.000000 0.000000 0.000000 0.083884 0.000000
# 6 0.000000 0.000000 0.000000 0.000000 0.000000 0.040540
#
#
# Mechanical properties :
#
#
# Convention : Reuss Voigt Hill
#
# Bulk Modulus (GPa) = 41.15471 43.58630 42.37051
# Shear Modulus (GPa) = 16.11757 18.25928 17.18843
#
# Velocity S-wave (km/s) = 3.15440 3.35745 3.25751
# Velocity P-wave (km/s) = 6.21885 6.47597 6.34871
#
# Compressibility (1/GPa) = 0.02429855
#
# Stress axis : x y z
#
# Youngs Moduli (GPa) = 49.59112 49.58953 53.40474
#
# Poissons Ratio (x) = 0.54468 0.17072
# Poissons Ratio (y) = 0.54470 0.17078
# Poissons Ratio (z) = 0.15853 0.15858
#
# Static dielectric constant tensor:
#      x y z
#    x 3.153760 0.000000 0.000000 
#    y 0.000000 3.153750 0.000000 
#    z 0.000000 0.000000 2.757000 
# 
# 
# High freq. dielectric constant tensor:
#      x y z
#    x 1.616500 0.000000 0.000000 
#    y 0.000000 1.616500 0.000000 
#    z 0.000000 0.000000 1.585170 
# 
# From -- ./inp_files/12965.got.cif
#   From: 2010.03.12/outbox.cif.g09.slc.cpg/sg139_7_cif.got.tgz:12965.got - 2010.04.08 09:46:31.
