data_PCOD8319562
_publ_section_title
;
Structure prediction by ZEFSAII (Michael W. Deem and Ramdas Pophale) SiO2 
 PCOD8319562
Probable space group: I 4/M M M
;
_chemical_formula_sum "Si O2"
_cell_formula_units_Z 144
_cell_length_a 22.242438
_cell_length_b 22.242438
_cell_length_c 17.374513
_cell_angle_alpha 90.000000
_cell_angle_beta 90.000000
_cell_angle_gamma 90.000000
_cell_volume 8595.624156
_symmetry_space_group_name_H-M "I 4/M M M"
_symmetry_group_IT_number 139
_symmetry_cell_setting 'tetragonal'
loop_
_space_group_symop_operation_xyz
x,y,z
-y,x,z
-x,-y,z
y,-x,z
x,-y,-z
-x,y,-z
y,x,-z
-y,-x,-z
-x,-y,-z
y,-x,-z
x,y,-z
-y,x,-z
-x,y,z
x,-y,z
-y,-x,z
y,x,z
1/2+x,1/2+y,1/2+z
1/2-y,1/2+x,1/2+z
1/2-x,1/2-y,1/2+z
1/2+y,1/2-x,1/2+z
1/2+x,1/2-y,1/2-z
1/2-x,1/2+y,1/2-z
1/2+y,1/2+x,1/2-z
1/2-y,1/2-x,1/2-z
1/2-x,1/2-y,1/2-z
1/2+y,1/2-x,1/2-z
1/2+x,1/2+y,1/2-z
1/2-y,1/2+x,1/2-z
1/2-x,1/2+y,1/2+z
1/2+x,1/2-y,1/2+z
1/2-y,1/2-x,1/2+z
1/2+y,1/2+x,1/2+z
loop_
_atom_site_type_symbol
_atom_site_label
_atom_site_fract_x
_atom_site_fract_y
_atom_site_fract_z
Si Si1 0.291951 0.931176 0.231565
Si Si2 0.895863 0.203682 0.000000
Si Si3 0.199075 0.299859 0.000000
Si Si4 0.666948 0.566608 0.336821
Si Si5 0.067685 0.570631 0.000000
Si Si6 0.125825 0.349489 0.627343
O O1 0.220791 0.918297 0.222179
O O2 0.312420 0.919954 0.319136
O O3 0.326082 0.885911 0.176337
O O4 0.306586 0.000000 0.209234
O O5 0.867632 0.270162 0.000000
O O6 0.934705 0.192903 0.923720
O O7 0.839704 0.160297 0.000000
O O8 0.201175 0.340660 0.076285
O O9 0.254389 0.254389 0.000000
O O10 0.641033 0.500000 0.320352
O O11 0.614185 0.614185 0.324360
O O12 0.102904 0.590065 0.923859
O O13 0.062991 0.500000 0.000000
O O14 0.000000 0.598259 0.000000
#
# Coordination Sequence:
#
# PCOD8319562 Si02
#       6
#    32  16  16  32  16  32
#     4  10  20  33  49  71  99 128 161 202 247 294
#     4   9  16  30  47  68  96 125 159 197 238 283
#     4  10  19  32  49  72  98 125 160 200 243 288
#     4  10  20  33  50  72  99 132 167 204 247 294
#     4  10  20  34  51  70  94 127 166 205 244 287
#     4  10  20  33  50  72  96 127 164 202 246 293
#
# _framework density 16.752708999999999
#
# number of rings (size 3 to 8) (size 9 to 14) (size 15 to 20)
#    0.000    2.111    2.222    1.667    0.000    1.111 
#    0.000    2.222    0.000    7.333    0.000    0.000 
#    0.000    0.000    0.000    0.000    0.000   45.111 
#
# Total GULP energy -892680.250701 kJ/mol
# GULP energy per Si atom -12398.336815 kJ/mol
# Density = 1.671458 g / cm^3
# Si number density = 16.752709 Si / 1000 Ang^3
#
#
#
# Elastic Constant Matrix: (Units=GPa)
#
#
# Indices 1 2 3 4 5 6 
#
# 1 79.9113 41.4876 40.9113 0.0000 0.0000 0.0000
# 2 41.4876 79.9114 40.9112 0.0000 0.0000 0.0000
# 3 40.9113 40.9112 99.2145 0.0000 0.0000 0.0000
# 4 0.0000 0.0000 0.0000 25.5134 0.0000 0.0000
# 5 0.0000 0.0000 0.0000 0.0000 25.5164 0.0000
# 6 0.0000 0.0000 0.0000 0.0000 0.0000 29.0432
#
#
#
# Elastic Compliance Matrix: (Units=1/GPa)
#
#
# Indices 1 2 3 4 5 6 
#
# 1 0.018717 -0.007309 -0.004704 0.000000 0.000000 0.000000
# 2 -0.007309 0.018717 -0.004704 0.000000 0.000000 0.000000
# 3 -0.004704 -0.004704 0.013959 0.000000 0.000000 0.000000
# 4 0.000000 0.000000 0.000000 0.039195 0.000000 0.000000
# 5 0.000000 0.000000 0.000000 0.000000 0.039190 0.000000
# 6 0.000000 0.000000 0.000000 0.000000 0.000000 0.034432
#
#
# Mechanical properties :
#
#
# Convention : Reuss Voigt Hill
#
# Bulk Modulus (GPa) = 55.68518 56.18416 55.93467
# Shear Modulus (GPa) = 24.55448 25.06308 24.80878
#
# Velocity S-wave (km/s) = 3.83260 3.87209 3.85240
# Velocity P-wave (km/s) = 7.27302 7.32127 7.29718
#
# Compressibility (1/GPa) = 0.01795810
#
# Stress axis : x y z
#
# Youngs Moduli (GPa) = 53.42815 53.42839 71.64046
#
# Poissons Ratio (x) = 0.39050 0.33700
# Poissons Ratio (y) = 0.39050 0.33700
# Poissons Ratio (z) = 0.25133 0.25133
#
# Static dielectric constant tensor:
#      x y z
#    x 3.079050 0.000000 0.000000 
#    y 0.000000 3.079040 0.000000 
#    z 0.000000 0.000000 3.327690 
# 
# 
# High freq. dielectric constant tensor:
#      x y z
#    x 1.641680 0.000000 0.000000 
#    y 0.000000 1.641680 0.000000 
#    z 0.000000 0.000000 1.640950 
# 
# From -- ./inp_files/8268.got.cif
#   From: 2010.03.12/outbox.cif.g09.slc.cpg/sg139_5_cif.got.tgz:8268.got - 2010.04.08 09:46:31.
