data_PCOD8319546
_publ_section_title
;
Structure prediction by ZEFSAII (Michael W. Deem and Ramdas Pophale) SiO2 
 PCOD8319546
Probable space group: I 4/M M M
;
_chemical_formula_sum "Si O2"
_cell_formula_units_Z 160
_cell_length_a 18.220451
_cell_length_b 18.220451
_cell_length_c 23.984263
_cell_angle_alpha 90.000000
_cell_angle_beta 90.000000
_cell_angle_gamma 90.000000
_cell_volume 7962.411586
_symmetry_space_group_name_H-M "I 4/M M M"
_symmetry_group_IT_number 139
_symmetry_cell_setting 'tetragonal'
loop_
_space_group_symop_operation_xyz
x,y,z
-y,x,z
-x,-y,z
y,-x,z
x,-y,-z
-x,y,-z
y,x,-z
-y,-x,-z
-x,-y,-z
y,-x,-z
x,y,-z
-y,x,-z
-x,y,z
x,-y,z
-y,-x,z
y,x,z
1/2+x,1/2+y,1/2+z
1/2-y,1/2+x,1/2+z
1/2-x,1/2-y,1/2+z
1/2+y,1/2-x,1/2+z
1/2+x,1/2-y,1/2-z
1/2-x,1/2+y,1/2-z
1/2+y,1/2+x,1/2-z
1/2-y,1/2-x,1/2-z
1/2-x,1/2-y,1/2-z
1/2+y,1/2-x,1/2-z
1/2+x,1/2+y,1/2-z
1/2-y,1/2+x,1/2-z
1/2-x,1/2+y,1/2+z
1/2+x,1/2-y,1/2+z
1/2-y,1/2-x,1/2+z
1/2+y,1/2+x,1/2+z
loop_
_atom_site_type_symbol
_atom_site_label
_atom_site_fract_x
_atom_site_fract_y
_atom_site_fract_z
Si Si1 0.655161 0.772665 0.119175
Si Si2 0.296589 0.584445 0.778543
Si Si3 0.083455 0.323237 0.000000
Si Si4 0.302395 0.419372 0.580500
Si Si5 0.288428 0.914575 0.500000
Si Si6 0.917298 0.294829 0.824637
O O1 0.737526 0.737526 0.121718
O O2 0.600559 0.726607 0.158179
O O3 0.624137 0.760685 0.056664
O O4 0.655430 0.855523 0.144994
O O5 0.320890 0.500000 0.772932
O O6 0.364810 0.635191 0.760731
O O7 0.225169 0.601170 0.739331
O O8 0.107113 0.274606 0.053339
O O9 0.124107 0.401109 0.000000
O O10 0.000000 0.345300 0.000000
O O11 0.322614 0.500000 0.557633
O O12 0.367764 0.367764 0.561795
O O13 0.285957 0.419267 0.646067
O O14 0.268470 0.000000 0.500000
O O15 0.000000 0.330728 0.830161
#
# Coordination Sequence:
#
# PCOD8319546 Si02
#       6
#    32  32  16  32  16  32
#     4  11  22  38  61  85 114 154 198 243 294 353
#     4  10  21  37  58  86 118 152 193 244 299 357
#     4  10  21  36  52  71  99 143 190 229 281 343
#     4  10  19  31  50  77 110 147 190 232 274 333
#     4  12  25  38  57  84 111 141 188 249 303 347
#     4  10  20  34  56  86 118 150 192 237 282 343
#
# _framework density 20.094414
#
# number of rings (size 3 to 8) (size 9 to 14) (size 15 to 20)
#    0.000    1.600    2.000    3.600    0.000    3.000 
#    0.000    0.000    0.000    7.200    0.000    5.600 
#    0.000    7.200    0.000    0.000    0.000    0.000 
#
# Total GULP energy -991118.419438 kJ/mol
# GULP energy per Si atom -12388.980243 kJ/mol
# Density = 2.004868 g / cm^3
# Si number density = 20.094414 Si / 1000 Ang^3
#
#
#
# Elastic Constant Matrix: (Units=GPa)
#
#
# Indices 1 2 3 4 5 6 
#
# 1 72.8115 25.8293 16.4441 0.0000 0.0000 0.0000
# 2 25.8293 72.8115 16.4441 0.0000 0.0000 0.0000
# 3 16.4441 16.4441 119.1873 0.0000 0.0000 0.0000
# 4 0.0000 0.0000 0.0000 28.3287 0.0000 0.0000
# 5 0.0000 0.0000 0.0000 0.0000 28.3287 0.0000
# 6 0.0000 0.0000 0.0000 0.0000 0.0000 20.1517
#
#
#
# Elastic Compliance Matrix: (Units=1/GPa)
#
#
# Indices 1 2 3 4 5 6 
#
# 1 0.015956 -0.005329 -0.001466 0.000000 0.000000 0.000000
# 2 -0.005329 0.015956 -0.001466 0.000000 0.000000 0.000000
# 3 -0.001466 -0.001466 0.008795 0.000000 0.000000 0.000000
# 4 0.000000 0.000000 0.000000 0.035300 0.000000 0.000000
# 5 0.000000 0.000000 0.000000 0.000000 0.035300 0.000000
# 6 0.000000 0.000000 0.000000 0.000000 0.000000 0.049624
#
#
# Mechanical properties :
#
#
# Convention : Reuss Voigt Hill
#
# Bulk Modulus (GPa) = 41.35064 42.47167 41.91115
# Shear Modulus (GPa) = 26.95229 29.10136 28.02682
#
# Velocity S-wave (km/s) = 3.66633 3.80969 3.73870
# Velocity P-wave (km/s) = 6.20850 6.36660 6.28805
#
# Compressibility (1/GPa) = 0.02418342
#
# Stress axis : x y z
#
# Youngs Moduli (GPa) = 62.67371 62.67371 113.70462
#
# Poissons Ratio (x) = 0.33399 0.16671
# Poissons Ratio (y) = 0.33399 0.16671
# Poissons Ratio (z) = 0.09189 0.09189
#
# Static dielectric constant tensor:
#      x y z
#    x 3.410830 0.000000 0.000000 
#    y 0.000000 3.410830 0.000000 
#    z 0.000000 0.000000 4.015180 
# 
# 
# High freq. dielectric constant tensor:
#      x y z
#    x 1.758930 0.000000 0.000000 
#    y 0.000000 1.758930 0.000000 
#    z 0.000000 0.000000 1.812600 
# 
# From -- ./inp_files/12993.got.cif
#   From: 2010.03.12/outbox.cif.g09.slc.cpg/sg139_7_cif.got.tgz:12993.got - 2010.04.08 09:46:31.
