data_PCOD8319136
_publ_section_title
;
Structure prediction by ZEFSAII (Michael W. Deem and Ramdas Pophale) SiO2 
 PCOD8319136
Probable space group: P 42/N C M
;
_chemical_formula_sum "Si O2"
_cell_formula_units_Z 80
_cell_length_a 13.004616
_cell_length_b 13.004616
_cell_length_c 23.742205
_cell_angle_alpha 90.000000
_cell_angle_beta 90.000000
_cell_angle_gamma 90.000000
_cell_volume 4015.282595
_symmetry_space_group_name_H-M "P 42/N C M"
_symmetry_group_IT_number 138
_space_group.IT_coordinate_system_code '2'
_symmetry_cell_setting 'tetragonal'
loop_
_space_group_symop_operation_xyz
x,y,z
1/2-y,x,1/2+z
1/2-x,1/2-y,z
y,1/2-x,1/2+z
1/2+x,-y,1/2-z
-x,1/2+y,1/2-z
1/2+y,1/2+x,-z
-y,-x,-z
-x,-y,-z
1/2+y,-x,1/2-z
1/2+x,1/2+y,-z
-y,1/2+x,1/2-z
1/2-x,y,1/2+z
x,1/2-y,1/2+z
1/2-y,1/2-x,z
y,x,z
loop_
_atom_site_type_symbol
_atom_site_label
_atom_site_fract_x
_atom_site_fract_y
_atom_site_fract_z
Si Si1 0.517486 0.813762 0.418668
Si Si2 0.003116 0.338508 0.982980
Si Si3 0.134006 0.793842 0.098394
Si Si4 0.468214 0.630819 0.206162
Si Si5 0.803065 0.967218 0.788195
O O1 0.598699 0.901302 0.431690
O O2 0.538113 0.721340 0.461115
O O3 0.405418 0.861194 0.429675
O O4 0.524298 0.775130 0.354224
O O5 0.105727 0.394274 0.958228
O O6 0.947993 0.269173 0.937137
O O7 0.923670 0.423670 0.000000
O O8 0.250000 0.750000 0.099744
O O9 0.084274 0.795881 0.160226
O O10 0.555814 0.555814 0.179392
O O11 0.522014 0.697501 0.254516
O O12 0.378857 0.558681 0.231611
O O13 0.857227 0.857227 0.775868
#
# Coordination Sequence:
#
# PCOD8319136 Si02
#       5
#    16  16  16  16  16
#     4  10  22  41  64  92 126 165 209 254 302 369
#     4  11  24  40  60  91 125 157 203 258 308 364
#     4  11  22  39  65  91 121 164 208 252 313 369
#     4  10  23  39  60  93 126 159 206 256 301 362
#     4   9  21  39  61  91 125 163 205 250 304 362
#
# _framework density 19.923877000000001
#
# number of rings (size 3 to 8) (size 9 to 14) (size 15 to 20)
#    0.000    1.800    2.000    2.400    5.600    4.800 
#    0.000    6.000    0.000    0.000    0.000    0.000 
#    0.000    0.000    0.000    0.000    0.000    0.000 
#
# Total GULP energy -991750.307063 kJ/mol
# GULP energy per Si atom -12396.878838 kJ/mol
# Density = 1.987853 g / cm^3
# Si number density = 19.923877 Si / 1000 Ang^3
#
#
#
# Elastic Constant Matrix: (Units=GPa)
#
#
# Indices 1 2 3 4 5 6 
#
# 1 108.5866 44.5546 52.5010 0.0000 0.0000 0.0000
# 2 44.5546 108.5866 52.5010 0.0000 0.0000 0.0000
# 3 52.5010 52.5010 70.6940 0.0000 0.0000 0.0000
# 4 0.0000 0.0000 0.0000 32.7364 0.0000 0.0000
# 5 0.0000 0.0000 0.0000 0.0000 32.7364 0.0000
# 6 0.0000 0.0000 0.0000 0.0000 0.0000 31.5756
#
#
#
# Elastic Compliance Matrix: (Units=1/GPa)
#
#
# Indices 1 2 3 4 5 6 
#
# 1 0.014461 -0.001156 -0.009881 0.000000 0.000000 0.000000
# 2 -0.001156 0.014461 -0.009881 0.000000 0.000000 0.000000
# 3 -0.009881 -0.009881 0.028821 0.000000 0.000000 0.000000
# 4 0.000000 0.000000 0.000000 0.030547 0.000000 0.000000
# 5 0.000000 0.000000 0.000000 0.000000 0.030547 0.000000
# 6 0.000000 0.000000 0.000000 0.000000 0.000000 0.031670
#
#
# Mechanical properties :
#
#
# Convention : Reuss Voigt Hill
#
# Bulk Modulus (GPa) = 62.86239 65.22006 64.04122
# Shear Modulus (GPa) = 25.29780 28.63040 26.96410
#
# Velocity S-wave (km/s) = 3.56718 3.79488 3.68279
# Velocity P-wave (km/s) = 6.97038 7.21160 7.09201
#
# Compressibility (1/GPa) = 0.01590776
#
# Stress axis : x y z
#
# Youngs Moduli (GPa) = 69.15170 69.15170 34.69638
#
# Poissons Ratio (x) = 0.07995 0.34283
# Poissons Ratio (y) = 0.07995 0.34283
# Poissons Ratio (z) = 0.68327 0.68327
#
# Static dielectric constant tensor:
#      x y z
#    x 3.966260 0.000000 0.000000 
#    y 0.000000 3.966260 0.000000 
#    z 0.000000 0.000000 3.518860 
# 
# 
# High freq. dielectric constant tensor:
#      x y z
#    x 1.785540 0.000000 0.000000 
#    y 0.000000 1.785540 0.000000 
#    z 0.000000 0.000000 1.763780 
# 
# From -- ./inp_files/7911.got.cif
#   From: 2010.03.12/outbox.cif.g09.slc.cpg/sg138_4_cif.got.tgz:7911.got - 2010.04.08 09:41:05.
