data_PCOD8319722
_publ_section_title
;
Structure prediction by ZEFSAII (Michael W. Deem and Ramdas Pophale) SiO2 
 PCOD8319722
Probable space group: I 4/M M M
;
_chemical_formula_sum "Si O2"
_cell_formula_units_Z 240
_cell_length_a 21.931158
_cell_length_b 21.931158
_cell_length_c 28.502805
_cell_angle_alpha 90.000000
_cell_angle_beta 90.000000
_cell_angle_gamma 90.000000
_cell_volume 13709.156337
_symmetry_space_group_name_H-M "I 4/M M M"
_symmetry_group_IT_number 139
_symmetry_cell_setting 'tetragonal'
loop_
_space_group_symop_operation_xyz
x,y,z
-y,x,z
-x,-y,z
y,-x,z
x,-y,-z
-x,y,-z
y,x,-z
-y,-x,-z
-x,-y,-z
y,-x,-z
x,y,-z
-y,x,-z
-x,y,z
x,-y,z
-y,-x,z
y,x,z
1/2+x,1/2+y,1/2+z
1/2-y,1/2+x,1/2+z
1/2-x,1/2-y,1/2+z
1/2+y,1/2-x,1/2+z
1/2+x,1/2-y,1/2-z
1/2-x,1/2+y,1/2-z
1/2+y,1/2+x,1/2-z
1/2-y,1/2-x,1/2-z
1/2-x,1/2-y,1/2-z
1/2+y,1/2-x,1/2-z
1/2+x,1/2+y,1/2-z
1/2-y,1/2+x,1/2-z
1/2-x,1/2+y,1/2+z
1/2+x,1/2-y,1/2+z
1/2-y,1/2-x,1/2+z
1/2+y,1/2+x,1/2+z
loop_
_atom_site_type_symbol
_atom_site_label
_atom_site_fract_x
_atom_site_fract_y
_atom_site_fract_z
Si Si1 0.666140 0.430509 0.721062
Si Si2 0.932988 0.428300 0.801954
Si Si3 0.663738 0.567562 0.389714
Si Si4 0.345606 0.754719 0.226236
Si Si5 0.651874 0.106921 0.553366
Si Si6 0.068606 0.278337 0.947432
Si Si7 0.072771 0.688516 0.647806
Si Si8 0.500000 0.064857 0.945539
O O1 0.665298 0.500000 0.740705
O O2 0.604100 0.395900 0.737463
O O3 0.670248 0.430729 0.665572
O O4 0.725380 0.393339 0.737417
O O5 0.941269 0.500000 0.801420
O O6 0.909037 0.409037 0.750000
O O7 0.881713 0.409922 0.839643
O O8 0.000000 0.398515 0.813343
O O9 0.648048 0.500000 0.407705
O O10 0.610468 0.610468 0.408400
O O11 0.726878 0.589806 0.411599
O O12 0.293264 0.706737 0.211411
O O13 0.314034 0.814034 0.250000
O O14 0.386195 0.768989 0.180638
O O15 0.677041 0.095227 0.500000
O O16 0.620638 0.171678 0.557082
O O17 0.702442 0.095750 0.594024
O O18 0.600878 0.059226 0.569097
O O19 0.000000 0.302995 0.935803
O O20 0.068908 0.251790 0.000000
O O21 0.000000 0.701738 0.653758
O O22 0.500000 0.000000 0.918410
O O23 0.500000 0.052074 0.000000
#
# Coordination Sequence:
#
# PCOD8319722 Si02
#       8
#    32  32  32  32  32  32  32  16
#     4   9  18  34  55  79 105 131 163 209 260 313
#     4   8  15  28  42  61  95 131 161 198 243 292
#     4   9  18  32  52  77 103 133 170 215 270 321
#     4  10  22  38  55  75 102 137 173 209 247 297
#     4  10  20  33  47  70  99 129 168 213 259 303
#     4   9  18  32  47  65  94 132 174 215 255 303
#     4  11  21  33  52  77  99 130 169 210 259 310
#     4   9  16  28  46  66  96 132 164 206 255 301
#
# _framework density 17.506547999999999
#
# number of rings (size 3 to 8) (size 9 to 14) (size 15 to 20)
#    0.000    2.600    0.667    1.600    1.867    3.200 
#    0.000    2.000    0.000    1.200    0.000    1.867 
#    0.000    0.000    0.000    0.000    0.000    0.000 
#
# Total GULP energy -1486852.392351 kJ/mol
# GULP energy per Si atom -12390.436603 kJ/mol
# Density = 1.746670 g / cm^3
# Si number density = 17.506548 Si / 1000 Ang^3
#
#
#
# Elastic Constant Matrix: (Units=GPa)
#
#
# Indices 1 2 3 4 5 6 
#
# 1 78.9553 38.1931 27.7757 0.0000 0.0000 0.0000
# 2 38.1931 78.9553 27.7757 0.0000 0.0000 0.0000
# 3 27.7757 27.7757 63.7256 0.0000 0.0000 0.0000
# 4 0.0000 0.0000 0.0000 23.7645 0.0000 0.0000
# 5 0.0000 0.0000 0.0000 0.0000 23.7645 0.0000
# 6 0.0000 0.0000 0.0000 0.0000 0.0000 25.9131
#
#
#
# Elastic Compliance Matrix: (Units=1/GPa)
#
#
# Indices 1 2 3 4 5 6 
#
# 1 0.017646 -0.006886 -0.004690 0.000000 0.000000 0.000000
# 2 -0.006886 0.017646 -0.004690 0.000000 0.000000 0.000000
# 3 -0.004690 -0.004690 0.019781 0.000000 0.000000 0.000000
# 4 0.000000 0.000000 0.000000 0.042080 0.000000 0.000000
# 5 0.000000 0.000000 0.000000 0.000000 0.042080 0.000000
# 6 0.000000 0.000000 0.000000 0.000000 0.000000 0.038590
#
#
# Mechanical properties :
#
#
# Convention : Reuss Voigt Hill
#
# Bulk Modulus (GPa) = 44.36339 45.45834 44.91086
# Shear Modulus (GPa) = 22.94957 23.21453 23.08205
#
# Velocity S-wave (km/s) = 3.62458 3.64544 3.63503
# Velocity P-wave (km/s) = 6.55079 6.61376 6.58235
#
# Compressibility (1/GPa) = 0.02254111
#
# Stress axis : x y z
#
# Youngs Moduli (GPa) = 56.66894 56.66894 50.55447
#
# Poissons Ratio (x) = 0.39023 0.23710
# Poissons Ratio (y) = 0.39023 0.23710
# Poissons Ratio (z) = 0.26578 0.26577
#
# Static dielectric constant tensor:
#      x y z
#    x 3.264110 0.000000 0.000000 
#    y 0.000000 3.264110 0.000000 
#    z 0.000000 0.000000 3.393420 
# 
# 
# High freq. dielectric constant tensor:
#      x y z
#    x 1.656830 0.000000 0.000000 
#    y 0.000000 1.656830 0.000000 
#    z 0.000000 0.000000 1.676830 
# 
# From -- ./inp_files/14619.got.cif
#   From: 2010.03.12/outbox.cif.g09.slc.cpg/sg139_8_cif.got.tgz:14619.got - 2010.04.08 09:46:31.
