data_PCOD8319189
_publ_section_title
;
Structure prediction by ZEFSAII (Michael W. Deem and Ramdas Pophale) SiO2 
 PCOD8319189
Probable space group: P 42/N C M
;
_chemical_formula_sum "Si O2"
_cell_formula_units_Z 96
_cell_length_a 14.985061
_cell_length_b 14.985061
_cell_length_c 21.891947
_cell_angle_alpha 90.000000
_cell_angle_beta 90.000000
_cell_angle_gamma 90.000000
_cell_volume 4915.881647
_symmetry_space_group_name_H-M "P 42/N C M"
_symmetry_group_IT_number 138
_space_group.IT_coordinate_system_code '2'
_symmetry_cell_setting 'tetragonal'
loop_
_space_group_symop_operation_xyz
x,y,z
1/2-y,x,1/2+z
1/2-x,1/2-y,z
y,1/2-x,1/2+z
1/2+x,-y,1/2-z
-x,1/2+y,1/2-z
1/2+y,1/2+x,-z
-y,-x,-z
-x,-y,-z
1/2+y,-x,1/2-z
1/2+x,1/2+y,-z
-y,1/2+x,1/2-z
1/2-x,y,1/2+z
x,1/2-y,1/2+z
1/2-y,1/2-x,z
y,x,z
loop_
_atom_site_type_symbol
_atom_site_label
_atom_site_fract_x
_atom_site_fract_y
_atom_site_fract_z
Si Si1 0.497914 0.146544 0.002844
Si Si2 0.435968 0.583448 0.161505
Si Si3 0.175833 0.175833 0.301051
Si Si4 0.823161 0.676840 0.334061
Si Si5 0.914846 0.061575 0.305818
Si Si6 0.245769 0.995775 0.122313
Si Si7 0.000051 0.723022 0.130047
O O1 0.408187 0.091814 0.018858
O O2 0.519983 0.218215 0.054595
O O3 0.485212 0.198252 0.939968
O O4 0.580916 0.080916 0.000000
O O5 0.505127 0.505127 0.143307
O O6 0.426458 0.589933 0.233891
O O7 0.339419 0.566517 0.132656
O O8 0.467179 0.676184 0.133286
O O9 0.250000 0.250000 0.296164
O O10 0.144005 0.144005 0.233258
O O11 0.092897 0.217442 0.335416
O O12 0.750000 0.750000 0.322720
O O13 0.782413 0.597675 0.372816
O O14 0.929553 0.156326 0.338460
O O15 0.820761 0.022675 0.327037
O O16 0.994907 0.994907 0.325564
#
# Coordination Sequence:
#
# PCOD8319189 Si02
#       7
#    16  16   8   8  16  16  16
#     4  11  23  45  70  95 128 170 225 278 324 393
#     4  11  25  43  63  97 142 180 214 269 345 408
#     4  11  22  40  65  99 134 171 228 286 337 389
#     4  11  22  40  66  98 136 171 223 289 339 389
#     4  11  21  40  71  99 131 172 228 284 332 387
#     4  12  24  42  66 102 134 177 223 271 340 397
#     4  12  23  42  68  98 131 179 223 274 332 395
#
# _framework density 19.528541000000001
#
# number of rings (size 3 to 8) (size 9 to 14) (size 15 to 20)
#    0.000    0.667    4.167    5.000    0.000    4.000 
#    3.000    3.333    0.000    0.000    0.000    0.000 
#    0.000    0.000    0.000    0.000    0.000    0.000 
#
# Total GULP energy -1190981.209988 kJ/mol
# GULP energy per Si atom -12406.054271 kJ/mol
# Density = 1.948409 g / cm^3
# Si number density = 19.528541 Si / 1000 Ang^3
#
#
#
# Elastic Constant Matrix: (Units=GPa)
#
#
# Indices 1 2 3 4 5 6 
#
# 1 125.6767 24.4932 47.0792 0.0000 0.0000 0.0000
# 2 24.4932 125.6767 47.0792 0.0000 0.0000 0.0000
# 3 47.0792 47.0792 101.8922 0.0000 0.0000 0.0000
# 4 0.0000 0.0000 0.0000 31.0683 0.0000 0.0000
# 5 0.0000 0.0000 0.0000 0.0000 31.0683 0.0000
# 6 0.0000 0.0000 0.0000 0.0000 0.0000 31.9138
#
#
#
# Elastic Compliance Matrix: (Units=1/GPa)
#
#
# Indices 1 2 3 4 5 6 
#
# 1 0.009629 -0.000254 -0.004332 0.000000 0.000000 0.000000
# 2 -0.000254 0.009629 -0.004332 0.000000 0.000000 0.000000
# 3 -0.004332 -0.004332 0.013817 0.000000 0.000000 0.000000
# 4 0.000000 0.000000 0.000000 0.032187 0.000000 0.000000
# 5 0.000000 0.000000 0.000000 0.000000 0.032187 0.000000
# 6 0.000000 0.000000 0.000000 0.000000 0.000000 0.031334
#
#
# Mechanical properties :
#
#
# Convention : Reuss Voigt Hill
#
# Bulk Modulus (GPa) = 65.61459 65.61652 65.61555
# Shear Modulus (GPa) = 32.95989 34.44968 33.70478
#
# Velocity S-wave (km/s) = 4.11272 4.20464 4.15893
# Velocity P-wave (km/s) = 7.49832 7.56606 7.53227
#
# Compressibility (1/GPa) = 0.01524051
#
# Stress axis : x y z
#
# Youngs Moduli (GPa) = 103.85160 103.85160 72.37300
#
# Poissons Ratio (x) = 0.02637 0.31351
# Poissons Ratio (y) = 0.02637 0.31351
# Poissons Ratio (z) = 0.44987 0.44987
#
# Static dielectric constant tensor:
#      x y z
#    x 3.521140 0.000000 0.000000 
#    y 0.000000 3.521140 0.000000 
#    z 0.000000 0.000000 3.859260 
# 
# 
# High freq. dielectric constant tensor:
#      x y z
#    x 1.769320 0.000000 0.000000 
#    y 0.000000 1.769320 0.000000 
#    z 0.000000 0.000000 1.766290 
# 
# From -- ./inp_files/6308.got.cif
#   From: 2010.03.12/outbox.cif.g09.slc.cpg/sg138_4_cif.got.tgz:6308.got - 2010.04.08 09:41:05.
