data_PCOD8319341
_publ_section_title
;
Structure prediction by ZEFSAII (Michael W. Deem and Ramdas Pophale) SiO2 
 PCOD8319341
Probable space group: I 4/M M M
;
_chemical_formula_sum "Si O2"
_cell_formula_units_Z 128
_cell_length_a 34.078932
_cell_length_b 34.078932
_cell_length_c 7.817058
_cell_angle_alpha 90.000000
_cell_angle_beta 90.000000
_cell_angle_gamma 90.000000
_cell_volume 9078.524840
_symmetry_space_group_name_H-M "I 4/M M M"
_symmetry_group_IT_number 139
_symmetry_cell_setting 'tetragonal'
loop_
_space_group_symop_operation_xyz
x,y,z
-y,x,z
-x,-y,z
y,-x,z
x,-y,-z
-x,y,-z
y,x,-z
-y,-x,-z
-x,-y,-z
y,-x,-z
x,y,-z
-y,x,-z
-x,y,z
x,-y,z
-y,-x,z
y,x,z
1/2+x,1/2+y,1/2+z
1/2-y,1/2+x,1/2+z
1/2-x,1/2-y,1/2+z
1/2+y,1/2-x,1/2+z
1/2+x,1/2-y,1/2-z
1/2-x,1/2+y,1/2-z
1/2+y,1/2+x,1/2-z
1/2-y,1/2-x,1/2-z
1/2-x,1/2-y,1/2-z
1/2+y,1/2-x,1/2-z
1/2+x,1/2+y,1/2-z
1/2-y,1/2+x,1/2-z
1/2-x,1/2+y,1/2+z
1/2+x,1/2-y,1/2+z
1/2-y,1/2-x,1/2+z
1/2+y,1/2+x,1/2+z
loop_
_atom_site_type_symbol
_atom_site_label
_atom_site_fract_x
_atom_site_fract_y
_atom_site_fract_z
Si Si1 0.248735 0.045200 0.500000
Si Si2 0.312655 0.250242 0.799106
Si Si3 0.956917 0.844882 0.500000
Si Si4 0.092009 0.845494 0.812492
Si Si5 0.754487 0.900065 0.807322
O O1 0.202038 0.043032 0.500000
O O2 0.263849 0.069252 0.668774
O O3 0.265213 0.000000 0.500000
O O4 0.289733 0.289733 0.733526
O O5 0.287325 0.212676 0.750000
O O6 0.354915 0.242214 0.715416
O O7 0.318694 0.253362 0.000000
O O8 0.936908 0.862276 0.330580
O O9 0.000000 0.862333 0.500000
O O10 0.133804 0.866197 0.796531
O O11 0.100118 0.800544 0.778102
O O12 0.073068 0.852506 0.000000
O O13 0.742870 0.913796 0.000000
#
# Coordination Sequence:
#
# PCOD8319341 Si02
#       5
#    16  32  16  32  32
#     4   9  18  31  43  59  79 101 136 173 207 250
#     4  10  19  29  41  59  84 113 145 180 215 254
#     4   9  17  27  39  55  75  98 121 150 188 229
#     4   9  17  27  40  57  75  97 123 150 183 229
#     4  10  18  29  44  60  80 106 134 167 209 248
#
# _framework density 14.099207
#
# number of rings (size 3 to 8) (size 9 to 14) (size 15 to 20)
#    0.000    2.500    1.250    1.875    0.000    3.500 
#    0.000    5.000    0.000    0.000    0.000    0.000 
#    0.000    4.000    0.000   11.000    0.000    1.000 
#
# Total GULP energy -793032.860466 kJ/mol
# GULP energy per Si atom -12391.138445 kJ/mol
# Density = 1.406712 g / cm^3
# Si number density = 14.099207 Si / 1000 Ang^3
#
#
#
# Elastic Constant Matrix: (Units=GPa)
#
#
# Indices 1 2 3 4 5 6 
#
# 1 59.5206 11.7392 31.8357 0.0000 0.0000 0.0000
# 2 11.7392 59.5173 31.8338 0.0000 0.0000 0.0000
# 3 31.8357 31.8338 105.8419 0.0000 0.0000 0.0000
# 4 0.0000 0.0000 0.0000 13.8505 0.0000 0.0000
# 5 0.0000 0.0000 0.0000 0.0000 13.8503 0.0000
# 6 0.0000 0.0000 0.0000 0.0000 0.0000 7.5408
#
#
#
# Elastic Compliance Matrix: (Units=1/GPa)
#
#
# Indices 1 2 3 4 5 6 
#
# 1 0.020060 -0.000869 -0.005772 0.000000 0.000000 0.000000
# 2 -0.000869 0.020061 -0.005772 0.000000 0.000000 0.000000
# 3 -0.005772 -0.005772 0.012920 0.000000 0.000000 0.000000
# 4 0.000000 0.000000 0.000000 0.072199 0.000000 0.000000
# 5 0.000000 0.000000 0.000000 0.000000 0.072200 0.000000
# 6 0.000000 0.000000 0.000000 0.000000 0.000000 0.132613
#
#
# Mechanical properties :
#
#
# Convention : Reuss Voigt Hill
#
# Bulk Modulus (GPa) = 35.44403 41.74413 38.59408
# Shear Modulus (GPa) = 13.72552 17.01307 15.36929
#
# Velocity S-wave (km/s) = 3.12347 3.47748 3.30522
# Velocity P-wave (km/s) = 6.18075 6.76724 6.48064
#
# Compressibility (1/GPa) = 0.02821350
#
# Stress axis : x y z
#
# Youngs Moduli (GPa) = 49.85116 49.84898 77.39743
#
# Poissons Ratio (x) = 0.04333 0.44676
# Poissons Ratio (y) = 0.04333 0.44675
# Poissons Ratio (z) = 0.28775 0.28773
#
# Static dielectric constant tensor:
#      x y z
#    x 2.581650 0.000000 0.000000 
#    y 0.000000 2.581650 0.000000 
#    z 0.000000 0.000000 3.132110 
# 
# 
# High freq. dielectric constant tensor:
#      x y z
#    x 1.496630 0.000000 0.000000 
#    y 0.000000 1.496630 0.000000 
#    z 0.000000 0.000000 1.563850 
# 
# From -- ./inp_files/1859.got.cif
#   From: 2010.03.12/outbox.cif.g09.slc.cpg/sg139_1_cif.got.tgz:1859.got - 2010.04.08 09:46:31.
