data_PCOD8319641
_publ_section_title
;
Structure prediction by ZEFSAII (Michael W. Deem and Ramdas Pophale) SiO2 
 PCOD8319641
Probable space group: I 4/M M M
;
_chemical_formula_sum "Si O2"
_cell_formula_units_Z 160
_cell_length_a 20.264567
_cell_length_b 20.264567
_cell_length_c 19.235748
_cell_angle_alpha 90.000000
_cell_angle_beta 90.000000
_cell_angle_gamma 90.000000
_cell_volume 7899.211385
_symmetry_space_group_name_H-M "I 4/M M M"
_symmetry_group_IT_number 139
_symmetry_cell_setting 'tetragonal'
loop_
_space_group_symop_operation_xyz
x,y,z
-y,x,z
-x,-y,z
y,-x,z
x,-y,-z
-x,y,-z
y,x,-z
-y,-x,-z
-x,-y,-z
y,-x,-z
x,y,-z
-y,x,-z
-x,y,z
x,-y,z
-y,-x,z
y,x,z
1/2+x,1/2+y,1/2+z
1/2-y,1/2+x,1/2+z
1/2-x,1/2-y,1/2+z
1/2+y,1/2-x,1/2+z
1/2+x,1/2-y,1/2-z
1/2-x,1/2+y,1/2-z
1/2+y,1/2+x,1/2-z
1/2-y,1/2-x,1/2-z
1/2-x,1/2-y,1/2-z
1/2+y,1/2-x,1/2-z
1/2+x,1/2+y,1/2-z
1/2-y,1/2+x,1/2-z
1/2-x,1/2+y,1/2+z
1/2+x,1/2-y,1/2+z
1/2-y,1/2-x,1/2+z
1/2+y,1/2+x,1/2+z
loop_
_atom_site_type_symbol
_atom_site_label
_atom_site_fract_x
_atom_site_fract_y
_atom_site_fract_z
Si Si1 0.680159 0.866464 0.578660
Si Si2 0.227678 0.121991 0.923417
Si Si3 0.926659 0.073342 0.582823
Si Si4 0.175879 0.425734 0.217557
Si Si5 0.676079 0.676079 0.918530
Si Si6 0.425488 0.316365 0.719179
O O1 0.680592 0.895147 0.500000
O O2 0.628906 0.806337 0.585351
O O3 0.664102 0.923527 0.634014
O O4 0.750584 0.840201 0.603923
O O5 0.194608 0.194608 0.918581
O O6 0.198805 0.075578 0.863516
O O7 0.212789 0.091182 0.000000
O O8 0.924794 0.075207 0.500000
O O9 0.875331 0.124670 0.617073
O O10 0.000000 0.092507 0.608682
O O11 0.160827 0.500000 0.243037
O O12 0.124884 0.375116 0.250000
O O13 0.250298 0.405387 0.239012
O O14 0.668196 0.668196 0.000000
O O15 0.500000 0.338724 0.737821
O O16 0.374643 0.374643 0.739030
#
# Coordination Sequence:
#
# PCOD8319641 Si02
#       6
#    32  32  16  32  16  32
#     4  10  19  33  56  87 118 150 189 241 297 347
#     4   9  16  30  55  86 118 152 193 242 298 354
#     4   8  14  25  40  59  91 142 195 232 270 332
#     4  11  24  41  62  89 119 155 201 247 298 357
#     4   9  17  28  48  77 111 144 182 233 294 340
#     4  10  22  38  60  90 121 159 205 246 294 354
#
# _framework density 20.255186999999999
#
# number of rings (size 3 to 8) (size 9 to 14) (size 15 to 20)
#    0.000    2.300    3.000    0.300    1.400    2.400 
#    0.000    2.000    0.000    0.600    0.000    4.200 
#    0.000    0.000    0.000    0.000    0.000    0.000 
#
# Total GULP energy -991520.222085 kJ/mol
# GULP energy per Si atom -12394.002776 kJ/mol
# Density = 2.020908 g / cm^3
# Si number density = 20.255187 Si / 1000 Ang^3
#
#
#
# Elastic Constant Matrix: (Units=GPa)
#
#
# Indices 1 2 3 4 5 6 
#
# 1 92.7506 60.2020 27.5155 0.0000 0.0000 0.0000
# 2 60.2020 92.7517 27.5153 0.0000 0.0000 0.0000
# 3 27.5155 27.5153 107.0535 0.0000 0.0000 0.0000
# 4 0.0000 0.0000 0.0000 16.2386 0.0000 0.0000
# 5 0.0000 0.0000 0.0000 0.0000 16.2388 0.0000
# 6 0.0000 0.0000 0.0000 0.0000 0.0000 24.6413
#
#
#
# Elastic Compliance Matrix: (Units=1/GPa)
#
#
# Indices 1 2 3 4 5 6 
#
# 1 0.018964 -0.011759 -0.001852 0.000000 0.000000 0.000000
# 2 -0.011759 0.018963 -0.001852 0.000000 0.000000 0.000000
# 3 -0.001852 -0.001852 0.010293 0.000000 0.000000 0.000000
# 4 0.000000 0.000000 0.000000 0.061582 0.000000 0.000000
# 5 0.000000 0.000000 0.000000 0.000000 0.061581 0.000000
# 6 0.000000 0.000000 0.000000 0.000000 0.000000 0.040582
#
#
# Mechanical properties :
#
#
# Convention : Reuss Voigt Hill
#
# Bulk Modulus (GPa) = 57.82126 58.11351 57.96738
# Shear Modulus (GPa) = 20.10818 23.24525 21.67671
#
# Velocity S-wave (km/s) = 3.15420 3.39133 3.27491
# Velocity P-wave (km/s) = 6.47099 6.63986 6.55597
#
# Compressibility (1/GPa) = 0.01729468
#
# Stress axis : x y z
#
# Youngs Moduli (GPa) = 52.73261 52.73332 97.15372
#
# Poissons Ratio (x) = 0.62011 0.17990
# Poissons Ratio (y) = 0.62010 0.17989
# Poissons Ratio (z) = 0.09765 0.09764
#
# Static dielectric constant tensor:
#      x y z
#    x 3.443090 0.000000 0.000000 
#    y 0.000000 3.443080 0.000000 
#    z 0.000000 0.000000 3.780000 
# 
# 
# High freq. dielectric constant tensor:
#      x y z
#    x 1.767650 0.000000 0.000000 
#    y 0.000000 1.767640 0.000000 
#    z 0.000000 0.000000 1.800690 
# 
# From -- ./inp_files/8473.got.cif
#   From: 2010.03.12/outbox.cif.g09.slc.cpg/sg139_5_cif.got.tgz:8473.got - 2010.04.08 09:46:31.
