data_PCOD8319994
_publ_section_title
;
Structure prediction by ZEFSAII (Michael W. Deem and Ramdas Pophale) SiO2 
 PCOD8319994
Probable space group: I 4/M M M
;
_chemical_formula_sum "Si O2"
_cell_formula_units_Z 144
_cell_length_a 17.673977
_cell_length_b 17.673977
_cell_length_c 23.416099
_cell_angle_alpha 90.000000
_cell_angle_beta 90.000000
_cell_angle_gamma 90.000000
_cell_volume 7314.474270
_symmetry_space_group_name_H-M "I 4/M M M"
_symmetry_group_IT_number 139
_symmetry_cell_setting 'tetragonal'
loop_
_space_group_symop_operation_xyz
x,y,z
-y,x,z
-x,-y,z
y,-x,z
x,-y,-z
-x,y,-z
y,x,-z
-y,-x,-z
-x,-y,-z
y,-x,-z
x,y,-z
-y,x,-z
-x,y,z
x,-y,z
-y,-x,z
y,x,z
1/2+x,1/2+y,1/2+z
1/2-y,1/2+x,1/2+z
1/2-x,1/2-y,1/2+z
1/2+y,1/2-x,1/2+z
1/2+x,1/2-y,1/2-z
1/2-x,1/2+y,1/2-z
1/2+y,1/2+x,1/2-z
1/2-y,1/2-x,1/2-z
1/2-x,1/2-y,1/2-z
1/2+y,1/2-x,1/2-z
1/2+x,1/2+y,1/2-z
1/2-y,1/2+x,1/2-z
1/2-x,1/2+y,1/2+z
1/2+x,1/2-y,1/2+z
1/2-y,1/2-x,1/2+z
1/2+y,1/2+x,1/2+z
loop_
_atom_site_type_symbol
_atom_site_label
_atom_site_fract_x
_atom_site_fract_y
_atom_site_fract_z
Si Si1 0.288485 0.586063 0.123406
Si Si2 0.628002 0.245888 0.245511
Si Si3 0.083043 0.500000 0.432311
Si Si4 0.850623 0.668422 0.067322
Si Si5 0.702915 0.584206 0.636437
O O1 0.303836 0.500000 0.102424
O O2 0.366401 0.633600 0.119286
O O3 0.256673 0.580974 0.187652
O O4 0.225871 0.625003 0.083381
O O5 0.698116 0.301885 0.244943
O O6 0.660375 0.160375 0.250000
O O7 0.576127 0.262785 0.300092
O O8 0.079101 0.500000 0.500000
O O9 0.123397 0.424266 0.410755
O O10 0.000000 0.500000 0.405155
O O11 0.856832 0.748769 0.098628
O O12 0.850947 0.681898 0.000000
O O13 0.700095 0.500000 0.609331
O O14 0.618156 0.618156 0.638902
#
# Coordination Sequence:
#
# PCOD8319994 Si02
#       5
#    32  32  16  32  32
#     4  11  23  39  61  88 120 159 201 246 296 353
#     4   9  17  34  59  85 113 147 190 240 293 346
#     4   9  18  34  56  82 113 145 181 235 297 351
#     4  11  22  38  60  87 116 151 198 248 298 353
#     4  11  22  37  59  86 118 155 195 240 290 350
#
# _framework density 19.686990999999999
#
# number of rings (size 3 to 8) (size 9 to 14) (size 15 to 20)
#    0.000    1.667    3.333    2.000    0.000    3.556 
#    0.000    0.000    0.000    4.000    0.000    4.667 
#    0.000    0.000    0.000    0.000    0.000    0.000 
#
# Total GULP energy -892677.716793 kJ/mol
# GULP energy per Si atom -12398.301622 kJ/mol
# Density = 1.964218 g / cm^3
# Si number density = 19.686991 Si / 1000 Ang^3
#
#
#
# Elastic Constant Matrix: (Units=GPa)
#
#
# Indices 1 2 3 4 5 6 
#
# 1 102.2949 46.8727 12.6655 0.0000 0.0000 0.0000
# 2 46.8727 102.2949 12.6654 0.0000 0.0000 0.0000
# 3 12.6655 12.6654 77.0179 0.0000 0.0000 0.0000
# 4 0.0000 0.0000 0.0000 20.5536 0.0000 0.0000
# 5 0.0000 0.0000 0.0000 0.0000 20.5536 0.0000
# 6 0.0000 0.0000 0.0000 0.0000 0.0000 22.4467
#
#
#
# Elastic Compliance Matrix: (Units=1/GPa)
#
#
# Indices 1 2 3 4 5 6 
#
# 1 0.012470 -0.005573 -0.001134 0.000000 0.000000 0.000000
# 2 -0.005573 0.012470 -0.001134 0.000000 0.000000 0.000000
# 3 -0.001134 -0.001134 0.013357 0.000000 0.000000 0.000000
# 4 0.000000 0.000000 0.000000 0.048653 0.000000 0.000000
# 5 0.000000 0.000000 0.000000 0.000000 0.048653 0.000000
# 6 0.000000 0.000000 0.000000 0.000000 0.000000 0.044550
#
#
# Mechanical properties :
#
#
# Convention : Reuss Voigt Hill
#
# Bulk Modulus (GPa) = 44.22142 47.33498 45.77820
# Shear Modulus (GPa) = 24.58517 26.67103 25.62810
#
# Velocity S-wave (km/s) = 3.53767 3.68469 3.61193
# Velocity P-wave (km/s) = 6.26082 6.49604 6.37952
#
# Compressibility (1/GPa) = 0.02261348
#
# Stress axis : x y z
#
# Youngs Moduli (GPa) = 80.19318 80.19318 74.86715
#
# Poissons Ratio (x) = 0.44695 0.08491
# Poissons Ratio (y) = 0.44695 0.08491
# Poissons Ratio (z) = 0.09095 0.09095
#
# Static dielectric constant tensor:
#      x y z
#    x 3.504950 0.000000 0.000000 
#    y 0.000000 3.504950 0.000000 
#    z 0.000000 0.000000 3.507990 
# 
# 
# High freq. dielectric constant tensor:
#      x y z
#    x 1.762680 0.000000 0.000000 
#    y 0.000000 1.762680 0.000000 
#    z 0.000000 0.000000 1.757150 
# 
# From -- ./inp_files/11502.got.cif
#   From: 2010.03.12/outbox.cif.g09.slc.cpg/sg139_6_cif.got.tgz:11502.got - 2010.04.08 09:46:31.
