data_PCOD8319419
_publ_section_title
;
Structure prediction by ZEFSAII (Michael W. Deem and Ramdas Pophale) SiO2 
 PCOD8319419
Probable space group: I 4/M M M
;
_chemical_formula_sum "Si O2"
_cell_formula_units_Z 160
_cell_length_a 21.862915
_cell_length_b 21.862915
_cell_length_c 17.868534
_cell_angle_alpha 90.000000
_cell_angle_beta 90.000000
_cell_angle_gamma 90.000000
_cell_volume 8540.927896
_symmetry_space_group_name_H-M "I 4/M M M"
_symmetry_group_IT_number 139
_symmetry_cell_setting 'tetragonal'
loop_
_space_group_symop_operation_xyz
x,y,z
-y,x,z
-x,-y,z
y,-x,z
x,-y,-z
-x,y,-z
y,x,-z
-y,-x,-z
-x,-y,-z
y,-x,-z
x,y,-z
-y,x,-z
-x,y,z
x,-y,z
-y,-x,z
y,x,z
1/2+x,1/2+y,1/2+z
1/2-y,1/2+x,1/2+z
1/2-x,1/2-y,1/2+z
1/2+y,1/2-x,1/2+z
1/2+x,1/2-y,1/2-z
1/2-x,1/2+y,1/2-z
1/2+y,1/2+x,1/2-z
1/2-y,1/2-x,1/2-z
1/2-x,1/2-y,1/2-z
1/2+y,1/2-x,1/2-z
1/2+x,1/2+y,1/2-z
1/2-y,1/2+x,1/2-z
1/2-x,1/2+y,1/2+z
1/2+x,1/2-y,1/2+z
1/2-y,1/2-x,1/2+z
1/2+y,1/2+x,1/2+z
loop_
_atom_site_type_symbol
_atom_site_label
_atom_site_fract_x
_atom_site_fract_y
_atom_site_fract_z
Si Si1 0.155106 0.609225 0.087528
Si Si2 0.932955 0.500000 0.087862
Si Si3 0.252849 0.351628 0.413675
Si Si4 0.927576 0.830986 0.195573
Si Si5 0.338222 0.428789 0.000000
Si Si6 0.071581 0.222166 0.351833
O O1 0.099630 0.564090 0.110447
O O2 0.145257 0.680771 0.104762
O O3 0.207041 0.587536 0.144194
O O4 0.172652 0.599133 0.000000
O O5 0.000000 0.500000 0.126061
O O6 0.939994 0.500000 0.000000
O O7 0.263426 0.367248 0.500000
O O8 0.285764 0.285764 0.394633
O O9 0.283551 0.405964 0.367217
O O10 0.897197 0.897197 0.181645
O O11 0.903064 0.806435 0.275437
O O12 0.000000 0.838553 0.191374
O O13 0.308401 0.399175 0.925860
O O14 0.330715 0.500000 0.000000
O O15 0.409529 0.409529 0.000000
O O16 0.000000 0.211020 0.353147
#
# Coordination Sequence:
#
# PCOD8319419 Si02
#       6
#    32  16  32  32  16  32
#     4  10  18  32  56  80 113 150 187 232 277 327
#     4   9  18  30  50  82 114 146 193 239 275 328
#     4   9  20  37  56  83 112 141 179 229 290 347
#     4  10  22  39  58  82 111 143 183 231 281 339
#     4  10  20  31  48  74 106 144 186 232 275 329
#     4  10  19  33  53  79 109 146 187 229 272 321
#
# _framework density 18.733328
#
# number of rings (size 3 to 8) (size 9 to 14) (size 15 to 20)
#    0.000    2.300    2.000    0.600    0.000    3.900 
#    0.000    4.000    0.000    3.600    0.000    2.800 
#    0.000    0.000    0.000    0.000    0.000    0.000 
#
# Total GULP energy -991298.155828 kJ/mol
# GULP energy per Si atom -12391.226948 kJ/mol
# Density = 1.869069 g / cm^3
# Si number density = 18.733328 Si / 1000 Ang^3
#
#
#
# Elastic Constant Matrix: (Units=GPa)
#
#
# Indices 1 2 3 4 5 6 
#
# 1 -306.5177 449.8615 22.6177 0.0000 0.0000 0.0000
# 2 449.8615 -306.5177 22.6177 0.0000 0.0000 0.0000
# 3 22.6177 22.6177 62.7914 0.0000 0.0000 0.0000
# 4 0.0000 0.0000 0.0000 15.7322 0.0000 0.0000
# 5 0.0000 0.0000 0.0000 0.0000 15.7322 0.0000
# 6 0.0000 0.0000 0.0000 0.0000 0.0000 22.0462
#
#
#
# Elastic Compliance Matrix: (Units=1/GPa)
#
#
# Indices 1 2 3 4 5 6 
#
# 1 0.003274 0.004597 -0.002835 0.000000 0.000000 0.000000
# 2 0.004597 0.003274 -0.002835 0.000000 0.000000 0.000000
# 3 -0.002835 -0.002835 0.017968 0.000000 0.000000 0.000000
# 4 0.000000 0.000000 0.000000 0.063564 0.000000 0.000000
# 5 0.000000 0.000000 0.000000 0.000000 0.063564 0.000000
# 6 0.000000 0.000000 0.000000 0.000000 0.000000 0.045359
#
#
# Mechanical properties :
#
#
# Convention : Reuss Voigt Hill
#
# Bulk Modulus (GPa) = 44.70372 48.88331 46.79352
# Shear Modulus (GPa) = 24.20040 -58.98728 -17.39344
#
# Velocity S-wave (km/s) = 3.59811 -5.61749 -3.05040
# Velocity P-wave (km/s) = 6.41692 3.99049 3.55337
#
# Compressibility (1/GPa) = 0.02236950
#
# Stress axis : x y z
#
# Youngs Moduli (GPa) = 305.39760 305.39760 55.65388
#
# Poissons Ratio (x) = -1.40376 0.15779
# Poissons Ratio (y) = -1.40376 0.15779
# Poissons Ratio (z) = 0.86584 0.86584
#
# Static dielectric constant tensor:
#      x y z
#    x 3.472560 0.000000 0.000000 
#    y 0.000000 3.472560 0.000000 
#    z 0.000000 0.000000 3.568130 
# 
# 
# High freq. dielectric constant tensor:
#      x y z
#    x 1.723690 0.000000 0.000000 
#    y 0.000000 1.723690 0.000000 
#    z 0.000000 0.000000 1.717660 
# 
# From -- ./inp_files/8470.got.cif
#   From: 2010.03.12/outbox.cif.g09.slc.cpg/sg139_5_cif.got.tgz:8470.got - 2010.04.08 09:46:31.
