data_PCOD8319709
_publ_section_title
;
Structure prediction by ZEFSAII (Michael W. Deem and Ramdas Pophale) SiO2 
 PCOD8319709
Probable space group: I 4/M M M
;
_chemical_formula_sum "Si O2"
_cell_formula_units_Z 160
_cell_length_a 18.125451
_cell_length_b 18.125451
_cell_length_c 26.638992
_cell_angle_alpha 90.000000
_cell_angle_beta 90.000000
_cell_angle_gamma 90.000000
_cell_volume 8751.760626
_symmetry_space_group_name_H-M "I 4/M M M"
_symmetry_group_IT_number 139
_symmetry_cell_setting 'tetragonal'
loop_
_space_group_symop_operation_xyz
x,y,z
-y,x,z
-x,-y,z
y,-x,z
x,-y,-z
-x,y,-z
y,x,-z
-y,-x,-z
-x,-y,-z
y,-x,-z
x,y,-z
-y,x,-z
-x,y,z
x,-y,z
-y,-x,z
y,x,z
1/2+x,1/2+y,1/2+z
1/2-y,1/2+x,1/2+z
1/2-x,1/2-y,1/2+z
1/2+y,1/2-x,1/2+z
1/2+x,1/2-y,1/2-z
1/2-x,1/2+y,1/2-z
1/2+y,1/2+x,1/2-z
1/2-y,1/2-x,1/2-z
1/2-x,1/2-y,1/2-z
1/2+y,1/2-x,1/2-z
1/2+x,1/2+y,1/2-z
1/2-y,1/2+x,1/2-z
1/2-x,1/2+y,1/2+z
1/2+x,1/2-y,1/2+z
1/2-y,1/2-x,1/2+z
1/2+y,1/2+x,1/2+z
loop_
_atom_site_type_symbol
_atom_site_label
_atom_site_fract_x
_atom_site_fract_y
_atom_site_fract_z
Si Si1 0.083303 0.200930 0.404249
Si Si2 0.081758 0.338750 0.150235
Si Si3 0.140363 0.414943 0.942946
Si Si4 0.645228 0.761933 0.193408
Si Si5 0.300380 0.582119 0.706168
O O1 0.135973 0.135973 0.423564
O O2 0.102779 0.273366 0.436359
O O3 0.094251 0.216971 0.345206
O O4 0.000000 0.175067 0.413562
O O5 0.092098 0.361870 0.092407
O O6 0.151017 0.367291 0.183080
O O7 0.082269 0.249931 0.156039
O O8 0.000000 0.367664 0.168386
O O9 0.124704 0.500000 0.928174
O O10 0.116843 0.399090 0.000000
O O11 0.730193 0.730193 0.187501
O O12 0.619145 0.747603 0.249706
O O13 0.322931 0.500000 0.722220
O O14 0.375033 0.624968 0.694800
#
# Coordination Sequence:
#
# PCOD8319709 Si02
#       5
#    32  32  32  32  32
#     4   9  17  29  47  72 100 130 165 203 243 289
#     4  10  20  32  49  75 102 127 161 203 244 291
#     4   9  19  36  54  70  93 127 164 203 248 295
#     4   9  17  32  52  71  98 137 172 200 235 281
#     4  10  20  34  53  76 102 132 165 201 241 285
#
# _framework density 18.282036000000002
#
# number of rings (size 3 to 8) (size 9 to 14) (size 15 to 20)
#    0.000    2.600    0.000    1.800    0.000    4.800 
#    0.000    2.000    0.000    4.800    0.000    2.800 
#    0.000    0.000    0.000    4.400    0.000    0.000 
#
# Total GULP energy -991358.491072 kJ/mol
# GULP energy per Si atom -12391.981138 kJ/mol
# Density = 1.824042 g / cm^3
# Si number density = 18.282036 Si / 1000 Ang^3
#
#
#
# Elastic Constant Matrix: (Units=GPa)
#
#
# Indices 1 2 3 4 5 6 
#
# 1 114.3072 57.7479 36.3165 0.0000 0.0000 0.0000
# 2 57.7479 114.3072 36.3165 0.0000 0.0000 0.0000
# 3 36.3165 36.3165 83.5320 0.0000 0.0000 0.0000
# 4 0.0000 0.0000 0.0000 19.0230 0.0000 0.0000
# 5 0.0000 0.0000 0.0000 0.0000 19.0230 0.0000
# 6 0.0000 0.0000 0.0000 0.0000 0.0000 23.1535
#
#
#
# Elastic Compliance Matrix: (Units=1/GPa)
#
#
# Indices 1 2 3 4 5 6 
#
# 1 0.012400 -0.005281 -0.003095 0.000000 0.000000 0.000000
# 2 -0.005281 0.012400 -0.003095 0.000000 0.000000 0.000000
# 3 -0.003095 -0.003095 0.014663 0.000000 0.000000 0.000000
# 4 0.000000 0.000000 0.000000 0.052568 0.000000 0.000000
# 5 0.000000 0.000000 0.000000 0.000000 0.052568 0.000000
# 6 0.000000 0.000000 0.000000 0.000000 0.000000 0.043190
#
#
# Mechanical properties :
#
#
# Convention : Reuss Voigt Hill
#
# Bulk Modulus (GPa) = 60.53204 63.65644 62.09424
# Shear Modulus (GPa) = 23.12290 24.35760 23.74025
#
# Velocity S-wave (km/s) = 3.56024 3.65406 3.60746
# Velocity P-wave (km/s) = 7.07690 7.25931 7.16868
#
# Compressibility (1/GPa) = 0.01652018
#
# Stress axis : x y z
#
# Youngs Moduli (GPa) = 80.64786 80.64786 68.20100
#
# Poissons Ratio (x) = 0.42590 0.21107
# Poissons Ratio (y) = 0.42590 0.21107
# Poissons Ratio (z) = 0.24960 0.24960
#
# Static dielectric constant tensor:
#      x y z
#    x 3.428030 0.000000 0.000000 
#    y 0.000000 3.428030 0.000000 
#    z 0.000000 0.000000 3.298570 
# 
# 
# High freq. dielectric constant tensor:
#      x y z
#    x 1.703460 0.000000 0.000000 
#    y 0.000000 1.703460 0.000000 
#    z 0.000000 0.000000 1.690100 
# 
# From -- ./inp_files/12900.got.cif
#   From: 2010.03.12/outbox.cif.g09.slc.cpg/sg139_7_cif.got.tgz:12900.got - 2010.04.08 09:46:31.
