data_PCOD8319971
_publ_section_title
;
Structure prediction by ZEFSAII (Michael W. Deem and Ramdas Pophale) SiO2 
 PCOD8319971
Probable space group: I 4/M M M
;
_chemical_formula_sum "Si O2"
_cell_formula_units_Z 160
_cell_length_a 31.317165
_cell_length_b 31.317165
_cell_length_c 7.956587
_cell_angle_alpha 90.000000
_cell_angle_beta 90.000000
_cell_angle_gamma 90.000000
_cell_volume 7803.540646
_symmetry_space_group_name_H-M "I 4/M M M"
_symmetry_group_IT_number 139
_symmetry_cell_setting 'tetragonal'
loop_
_space_group_symop_operation_xyz
x,y,z
-y,x,z
-x,-y,z
y,-x,z
x,-y,-z
-x,y,-z
y,x,-z
-y,-x,-z
-x,-y,-z
y,-x,-z
x,y,-z
-y,x,-z
-x,y,z
x,-y,z
-y,-x,z
y,x,z
1/2+x,1/2+y,1/2+z
1/2-y,1/2+x,1/2+z
1/2-x,1/2-y,1/2+z
1/2+y,1/2-x,1/2+z
1/2+x,1/2-y,1/2-z
1/2-x,1/2+y,1/2-z
1/2+y,1/2+x,1/2-z
1/2-y,1/2-x,1/2-z
1/2-x,1/2-y,1/2-z
1/2+y,1/2-x,1/2-z
1/2+x,1/2+y,1/2-z
1/2-y,1/2+x,1/2-z
1/2-x,1/2+y,1/2+z
1/2+x,1/2-y,1/2+z
1/2-y,1/2-x,1/2+z
1/2+y,1/2+x,1/2+z
loop_
_atom_site_type_symbol
_atom_site_label
_atom_site_fract_x
_atom_site_fract_y
_atom_site_fract_z
Si Si1 0.657042 0.000000 0.687174
Si Si2 0.500000 0.066642 0.302668
Si Si3 0.216054 0.216054 0.697480
Si Si4 0.162824 0.406461 0.809607
Si Si5 0.126690 0.250347 0.189828
Si Si6 0.160524 0.090984 0.808188
Si Si7 0.048571 0.881814 0.500000
O O1 0.668506 0.953955 0.778609
O O2 0.677123 0.000000 0.500000
O O3 0.606564 0.000000 0.681670
O O4 0.500000 0.077935 0.500000
O O5 0.458125 0.041876 0.250000
O O6 0.210576 0.210576 0.500000
O O7 0.250000 0.250000 0.750000
O O8 0.231550 0.172763 0.778577
O O9 0.124009 0.375992 0.750000
O O10 0.208208 0.382366 0.801722
O O11 0.151385 0.416593 0.000000
O O12 0.094624 0.211140 0.224454
O O13 0.122987 0.266673 0.000000
O O14 0.136457 0.136457 0.780103
O O15 0.144560 0.057425 0.670344
O O16 0.151962 0.074920 0.000000
O O17 0.074931 0.925070 0.500000
O O18 0.000000 0.895710 0.500000
#
# Coordination Sequence:
#
# PCOD8319971 Si02
#       7
#    16  16  16  32  32  32  16
#     4  10  23  43  62  82 111 152 200 248 302 365
#     4  11  21  34  57  86 112 138 178 236 298 360
#     4  12  24  36  58  88 122 160 202 251 304 373
#     4  11  24  42  62  87 120 160 203 254 312 375
#     4  11  22  39  61  87 122 160 204 256 310 372
#     4   9  19  37  62  91 125 165 211 262 316 375
#     4  10  22  39  64  96 132 174 222 271 327 389
#
# _framework density 20.503515
#
# number of rings (size 3 to 8) (size 9 to 14) (size 15 to 20)
#    0.000    1.500    1.000    4.500    2.800    3.700 
#    1.800    0.000    0.000    0.000    0.000    2.800 
#    0.000    0.000    0.000    0.000    0.000    0.000 
#
# Total GULP energy -991218.798597 kJ/mol
# GULP energy per Si atom -12390.234982 kJ/mol
# Density = 2.045685 g / cm^3
# Si number density = 20.503515 Si / 1000 Ang^3
#
#
#
# Elastic Constant Matrix: (Units=GPa)
#
#
# Indices 1 2 3 4 5 6 
#
# 1 129.7402 46.9419 26.5390 0.0000 0.0000 0.0000
# 2 46.9419 129.7377 26.5389 0.0000 0.0000 0.0000
# 3 26.5390 26.5389 81.7486 0.0000 0.0000 0.0000
# 4 0.0000 0.0000 0.0000 22.9126 0.0000 0.0000
# 5 0.0000 0.0000 0.0000 0.0000 22.9133 0.0000
# 6 0.0000 0.0000 0.0000 0.0000 0.0000 32.3739
#
#
#
# Elastic Compliance Matrix: (Units=1/GPa)
#
#
# Indices 1 2 3 4 5 6 
#
# 1 0.009175 -0.002903 -0.002036 0.000000 0.000000 0.000000
# 2 -0.002903 0.009175 -0.002036 0.000000 0.000000 0.000000
# 3 -0.002036 -0.002036 0.013555 0.000000 0.000000 0.000000
# 4 0.000000 0.000000 0.000000 0.043644 0.000000 0.000000
# 5 0.000000 0.000000 0.000000 0.000000 0.043643 0.000000
# 6 0.000000 0.000000 0.000000 0.000000 0.000000 0.030889
#
#
# Mechanical properties :
#
#
# Convention : Reuss Voigt Hill
#
# Bulk Modulus (GPa) = 55.69891 60.14069 57.91980
# Shear Modulus (GPa) = 29.40923 31.72040 30.56481
#
# Velocity S-wave (km/s) = 3.79139 3.93755 3.86516
# Velocity P-wave (km/s) = 6.81107 7.07587 6.94473
#
# Compressibility (1/GPa) = 0.01795367
#
# Stress axis : x y z
#
# Youngs Moduli (GPa) = 108.99710 108.99488 73.77586
#
# Poissons Ratio (x) = 0.31642 0.15021
# Poissons Ratio (y) = 0.31643 0.15021
# Poissons Ratio (z) = 0.22192 0.22192
#
# Static dielectric constant tensor:
#      x y z
#    x 3.686380 0.000000 0.000000 
#    y 0.000000 3.686390 0.000000 
#    z 0.000000 0.000000 3.588670 
# 
# 
# High freq. dielectric constant tensor:
#      x y z
#    x 1.798210 0.000000 0.000000 
#    y 0.000000 1.798210 0.000000 
#    z 0.000000 0.000000 1.804580 
# 
# From -- ./inp_files/2303.got.cif
#   From: 2010.03.12/outbox.cif.g09.slc.cpg/sg139_2_cif.got.tgz:2303.got - 2010.04.08 09:46:31.
