data_PCOD8319737
_publ_section_title
;
Structure prediction by ZEFSAII (Michael W. Deem and Ramdas Pophale) SiO2 
 PCOD8319737
Probable space group: I 4/M M M
;
_chemical_formula_sum "Si O2"
_cell_formula_units_Z 152
_cell_length_a 17.606754
_cell_length_b 17.606754
_cell_length_c 28.609831
_cell_angle_alpha 90.000000
_cell_angle_beta 90.000000
_cell_angle_gamma 90.000000
_cell_volume 8868.984280
_symmetry_space_group_name_H-M "I 4/M M M"
_symmetry_group_IT_number 139
_symmetry_cell_setting 'tetragonal'
loop_
_space_group_symop_operation_xyz
x,y,z
-y,x,z
-x,-y,z
y,-x,z
x,-y,-z
-x,y,-z
y,x,-z
-y,-x,-z
-x,-y,-z
y,-x,-z
x,y,-z
-y,x,-z
-x,y,z
x,-y,z
-y,-x,z
y,x,z
1/2+x,1/2+y,1/2+z
1/2-y,1/2+x,1/2+z
1/2-x,1/2-y,1/2+z
1/2+y,1/2-x,1/2+z
1/2+x,1/2-y,1/2-z
1/2-x,1/2+y,1/2-z
1/2+y,1/2+x,1/2-z
1/2-y,1/2-x,1/2-z
1/2-x,1/2-y,1/2-z
1/2+y,1/2-x,1/2-z
1/2+x,1/2+y,1/2-z
1/2-y,1/2+x,1/2-z
1/2-x,1/2+y,1/2+z
1/2+x,1/2-y,1/2+z
1/2-y,1/2-x,1/2+z
1/2+y,1/2+x,1/2+z
loop_
_atom_site_type_symbol
_atom_site_label
_atom_site_fract_x
_atom_site_fract_y
_atom_site_fract_z
Si Si1 0.787640 0.412184 0.552876
Si Si2 0.911066 0.088935 0.190763
Si Si3 0.586236 0.085928 0.878783
Si Si4 0.913807 0.913807 0.000000
Si Si5 0.319658 0.909555 0.710291
Si Si6 0.148689 0.851312 0.094971
Si Si7 0.813000 0.187001 0.737647
O O1 0.781211 0.379206 0.500000
O O2 0.763566 0.500000 0.552553
O O3 0.872270 0.400436 0.571950
O O4 0.738123 0.368585 0.592479
O O5 0.893896 0.106105 0.136687
O O6 0.855367 0.144633 0.219422
O O7 0.000000 0.106311 0.201177
O O8 0.500000 0.101698 0.891159
O O9 0.613920 0.143178 0.838742
O O10 0.599693 0.000000 0.860370
O O11 0.879608 0.879608 0.045610
O O12 0.000000 0.892950 0.000000
O O13 0.369872 0.869872 0.750000
O O14 0.232596 0.878288 0.709456
O O15 0.319482 0.000000 0.718362
O O16 0.750000 0.250000 0.750000
#
# Coordination Sequence:
#
# PCOD8319737 Si02
#       7
#    32  16  32   8  32  16  16
#     4  10  20  33  50  72 101 138 175 215 261 307
#     4  11  24  40  57  76 103 143 185 222 265 319
#     4   9  19  34  52  75 101 131 170 215 264 318
#     4  11  20  32  48  68 100 138 176 216 256 295
#     4  10  20  34  53  76 102 132 169 215 267 319
#     4  12  22  33  50  75 104 136 177 221 258 304
#     4  10  23  37  52  76 103 135 169 214 266 320
#
# _framework density 17.138377999999999
#
# number of rings (size 3 to 8) (size 9 to 14) (size 15 to 20)
#    0.000    1.842    1.053    3.158    5.895    2.316 
#    0.000    2.105    0.000    0.000    0.000    0.000 
#    0.000    0.000    0.000    0.000    0.000    0.000 
#
# Total GULP energy -941760.111136 kJ/mol
# GULP energy per Si atom -12391.580410 kJ/mol
# Density = 1.709937 g / cm^3
# Si number density = 17.138378 Si / 1000 Ang^3
#
#
#
# Elastic Constant Matrix: (Units=GPa)
#
#
# Indices 1 2 3 4 5 6 
#
# 1 81.7198 41.9996 40.4723 0.0000 0.0000 0.0000
# 2 41.9996 81.7198 40.4723 0.0000 0.0000 0.0000
# 3 40.4723 40.4723 66.8538 0.0000 0.0000 0.0000
# 4 0.0000 0.0000 0.0000 24.8957 0.0000 0.0000
# 5 0.0000 0.0000 0.0000 0.0000 24.8957 0.0000
# 6 0.0000 0.0000 0.0000 0.0000 0.0000 30.8821
#
#
#
# Elastic Compliance Matrix: (Units=1/GPa)
#
#
# Indices 1 2 3 4 5 6 
#
# 1 0.019280 -0.005896 -0.008102 0.000000 0.000000 0.000000
# 2 -0.005896 0.019280 -0.008102 0.000000 0.000000 0.000000
# 3 -0.008102 -0.008102 0.024768 0.000000 0.000000 0.000000
# 4 0.000000 0.000000 0.000000 0.040168 0.000000 0.000000
# 5 0.000000 0.000000 0.000000 0.000000 0.040168 0.000000
# 6 0.000000 0.000000 0.000000 0.000000 0.000000 0.032381
#
#
# Mechanical properties :
#
#
# Convention : Reuss Voigt Hill
#
# Bulk Modulus (GPa) = 52.28400 52.90910 52.59655
# Shear Modulus (GPa) = 22.06318 23.29130 22.67724
#
# Velocity S-wave (km/s) = 3.59187 3.69048 3.64151
# Velocity P-wave (km/s) = 6.91196 7.00701 6.95965
#
# Compressibility (1/GPa) = 0.01912631
#
# Stress axis : x y z
#
# Youngs Moduli (GPa) = 51.86724 51.86724 40.37446
#
# Poissons Ratio (x) = 0.30582 0.32713
# Poissons Ratio (y) = 0.30582 0.32713
# Poissons Ratio (z) = 0.42025 0.42025
#
# Static dielectric constant tensor:
#      x y z
#    x 3.560670 0.000000 0.000000 
#    y 0.000000 3.560670 0.000000 
#    z 0.000000 0.000000 3.166300 
# 
# 
# High freq. dielectric constant tensor:
#      x y z
#    x 1.661900 0.000000 0.000000 
#    y 0.000000 1.661900 0.000000 
#    z 0.000000 0.000000 1.649790 
# 
# From -- ./inp_files/14180.got.cif
#   From: 2010.03.12/outbox.cif.g09.slc.cpg/sg139_8_cif.got.tgz:14180.got - 2010.04.08 09:46:31.
