data_PCOD8319667
_publ_section_title
;
Structure prediction by ZEFSAII (Michael W. Deem and Ramdas Pophale) SiO2 
 PCOD8319667
Probable space group: I 4/M M M
;
_chemical_formula_sum "Si O2"
_cell_formula_units_Z 160
_cell_length_a 21.922144
_cell_length_b 21.922144
_cell_length_c 18.805545
_cell_angle_alpha 90.000000
_cell_angle_beta 90.000000
_cell_angle_gamma 90.000000
_cell_volume 9037.576292
_symmetry_space_group_name_H-M "I 4/M M M"
_symmetry_group_IT_number 139
_symmetry_cell_setting 'tetragonal'
loop_
_space_group_symop_operation_xyz
x,y,z
-y,x,z
-x,-y,z
y,-x,z
x,-y,-z
-x,y,-z
y,x,-z
-y,-x,-z
-x,-y,-z
y,-x,-z
x,y,-z
-y,x,-z
-x,y,z
x,-y,z
-y,-x,z
y,x,z
1/2+x,1/2+y,1/2+z
1/2-y,1/2+x,1/2+z
1/2-x,1/2-y,1/2+z
1/2+y,1/2-x,1/2+z
1/2+x,1/2-y,1/2-z
1/2-x,1/2+y,1/2-z
1/2+y,1/2+x,1/2-z
1/2-y,1/2-x,1/2-z
1/2-x,1/2-y,1/2-z
1/2+y,1/2-x,1/2-z
1/2+x,1/2+y,1/2-z
1/2-y,1/2+x,1/2-z
1/2-x,1/2+y,1/2+z
1/2+x,1/2-y,1/2+z
1/2-y,1/2-x,1/2+z
1/2+y,1/2+x,1/2+z
loop_
_atom_site_type_symbol
_atom_site_label
_atom_site_fract_x
_atom_site_fract_y
_atom_site_fract_z
Si Si1 0.930048 0.829997 0.719023
Si Si2 0.882595 0.215250 0.420742
Si Si3 0.740785 0.842231 0.205640
Si Si4 0.427783 0.931799 0.328801
Si Si5 0.843279 0.351597 0.417890
O O1 0.891259 0.891259 0.735818
O O2 0.929222 0.814872 0.634872
O O3 0.901728 0.771267 0.758917
O O4 0.000000 0.840262 0.743091
O O5 0.909131 0.204978 0.500000
O O6 0.816396 0.183605 0.411976
O O7 0.873019 0.285871 0.404511
O O8 0.789971 0.789971 0.199613
O O9 0.682365 0.817636 0.250000
O O10 0.718893 0.859549 0.126584
O O11 0.500000 0.930712 0.334009
O O12 0.408123 0.908123 0.250000
O O13 0.401498 0.891029 0.391548
O O14 0.402878 0.000000 0.340504
O O15 0.827351 0.362737 0.500000
#
# Coordination Sequence:
#
# PCOD8319667 Si02
#       5
#    32  32  32  32  32
#     4  10  21  36  56  80 107 144 184 225 271 318
#     4   9  18  33  52  77 109 140 172 214 266 320
#     4  10  19  35  55  77 106 139 175 215 266 323
#     4   9  20  38  54  68  95 140 187 223 256 299
#     4  11  21  32  51  80 109 138 173 218 268 321
#
# _framework density 17.703862000000001
#
# number of rings (size 3 to 8) (size 9 to 14) (size 15 to 20)
#    0.000    2.200    2.000    1.800    0.000    4.200 
#    0.000    3.000    0.000    0.000    0.000    2.800 
#    0.000    0.000    0.000    4.400    0.000    0.000 
#
# Total GULP energy -991877.592599 kJ/mol
# GULP energy per Si atom -12398.469907 kJ/mol
# Density = 1.766357 g / cm^3
# Si number density = 17.703862 Si / 1000 Ang^3
#
#
#
# Elastic Constant Matrix: (Units=GPa)
#
#
# Indices 1 2 3 4 5 6 
#
# 1 73.0773 37.6879 38.7191 0.0000 0.0000 0.0000
# 2 37.6879 73.0757 38.7185 0.0000 0.0000 0.0000
# 3 38.7191 38.7185 105.2665 0.0000 0.0000 0.0000
# 4 0.0000 0.0000 0.0000 20.3142 0.0000 0.0000
# 5 0.0000 0.0000 0.0000 0.0000 20.3138 0.0000
# 6 0.0000 0.0000 0.0000 0.0000 0.0000 11.1442
#
#
#
# Elastic Compliance Matrix: (Units=1/GPa)
#
#
# Indices 1 2 3 4 5 6 
#
# 1 0.020205 -0.008052 -0.004470 0.000000 0.000000 0.000000
# 2 -0.008052 0.020206 -0.004470 0.000000 0.000000 0.000000
# 3 -0.004470 -0.004470 0.012788 0.000000 0.000000 0.000000
# 4 0.000000 0.000000 0.000000 0.049227 0.000000 0.000000
# 5 0.000000 0.000000 0.000000 0.000000 0.049228 0.000000
# 6 0.000000 0.000000 0.000000 0.000000 0.000000 0.089733
#
#
# Mechanical properties :
#
#
# Convention : Reuss Voigt Hill
#
# Bulk Modulus (GPa) = 52.04527 53.51895 52.78211
# Shear Modulus (GPa) = 17.74457 19.44070 18.59263
#
# Velocity S-wave (km/s) = 3.16935 3.31736 3.24420
# Velocity P-wave (km/s) = 6.54634 6.70589 6.62659
#
# Compressibility (1/GPa) = 0.01921404
#
# Stress axis : x y z
#
# Youngs Moduli (GPa) = 49.49185 49.49084 78.19741
#
# Poissons Ratio (x) = 0.39851 0.34956
# Poissons Ratio (y) = 0.39852 0.34956
# Poissons Ratio (z) = 0.22124 0.22124
#
# Static dielectric constant tensor:
#      x y z
#    x 3.151660 0.000000 0.000000 
#    y 0.000000 3.151660 0.000000 
#    z 0.000000 0.000000 3.411640 
# 
# 
# High freq. dielectric constant tensor:
#      x y z
#    x 1.672460 0.000000 0.000000 
#    y 0.000000 1.672460 0.000000 
#    z 0.000000 0.000000 1.682770 
# 
# From -- ./inp_files/8383.got.cif
#   From: 2010.03.12/outbox.cif.g09.slc.cpg/sg139_5_cif.got.tgz:8383.got - 2010.04.08 09:46:31.
