data_PCOD8319227
_publ_section_title
;
Structure prediction by ZEFSAII (Michael W. Deem and Ramdas Pophale) SiO2 
 PCOD8319227
Probable space group: P 42/N C M
;
_chemical_formula_sum "Si O2"
_cell_formula_units_Z 36
_cell_length_a 12.754584
_cell_length_b 12.754584
_cell_length_c 9.374734
_cell_angle_alpha 90.000000
_cell_angle_beta 90.000000
_cell_angle_gamma 90.000000
_cell_volume 1525.076224
_symmetry_space_group_name_H-M "P 42/N C M"
_symmetry_group_IT_number 138
_space_group.IT_coordinate_system_code '2'
_symmetry_cell_setting 'tetragonal'
loop_
_space_group_symop_operation_xyz
x,y,z
1/2-y,x,1/2+z
1/2-x,1/2-y,z
y,1/2-x,1/2+z
1/2+x,-y,1/2-z
-x,1/2+y,1/2-z
1/2+y,1/2+x,-z
-y,-x,-z
-x,-y,-z
1/2+y,-x,1/2-z
1/2+x,1/2+y,-z
-y,1/2+x,1/2-z
1/2-x,y,1/2+z
x,1/2-y,1/2+z
1/2-y,1/2-x,z
y,x,z
loop_
_atom_site_type_symbol
_atom_site_label
_atom_site_fract_x
_atom_site_fract_y
_atom_site_fract_z
Si Si1 0.252138 0.416669 0.816439
Si Si2 0.554661 0.203614 0.062759
Si Si3 0.750000 0.250000 0.250000
O O1 0.134423 0.365578 0.804552
O O2 0.327930 0.327930 0.877290
O O3 0.297859 0.453610 0.664133
O O4 0.262477 0.517346 0.919433
O O5 0.650249 0.260825 0.144861
O O6 0.590561 0.090561 0.000000
#
# Coordination Sequence:
#
# PCOD8319227 Si02
#       3
#    16  16   4
#     4  11  26  48  73 106 146 187 240 303 360 428
#     4  12  25  46  74 101 142 191 236 292 364 424
#     4  12  26  48  66 104 150 184 234 312 350 420
#
# _framework density 23.605377000000001
#
# number of rings (size 3 to 8) (size 9 to 14) (size 15 to 20)
#    0.000    0.444    4.444    3.333    0.000    7.111 
#    0.000    2.222    0.000    0.000    0.000    0.000 
#    0.000    0.000    0.000    0.000    0.000    0.000 
#
# Total GULP energy -445983.824581 kJ/mol
# GULP energy per Si atom -12388.439572 kJ/mol
# Density = 2.355165 g / cm^3
# Si number density = 23.605377 Si / 1000 Ang^3
#
#
#
# Elastic Constant Matrix: (Units=GPa)
#
#
# Indices 1 2 3 4 5 6 
#
# 1 96.2840 61.5128 59.5084 0.0000 0.0000 0.0000
# 2 61.5128 96.2840 59.5084 0.0000 0.0000 0.0000
# 3 59.5084 59.5084 153.5446 0.0000 0.0000 0.0000
# 4 0.0000 0.0000 0.0000 37.3698 0.0000 0.0000
# 5 0.0000 0.0000 0.0000 0.0000 37.3698 0.0000
# 6 0.0000 0.0000 0.0000 0.0000 0.0000 35.1356
#
#
#
# Elastic Compliance Matrix: (Units=1/GPa)
#
#
# Indices 1 2 3 4 5 6 
#
# 1 0.018857 -0.009902 -0.003471 0.000000 0.000000 0.000000
# 2 -0.009902 0.018857 -0.003471 0.000000 0.000000 0.000000
# 3 -0.003471 -0.003471 0.009203 0.000000 0.000000 0.000000
# 4 0.000000 0.000000 0.000000 0.026760 0.000000 0.000000
# 5 0.000000 0.000000 0.000000 0.000000 0.026760 0.000000
# 6 0.000000 0.000000 0.000000 0.000000 0.000000 0.028461
#
#
# Mechanical properties :
#
#
# Convention : Reuss Voigt Hill
#
# Bulk Modulus (GPa) = 75.58370 78.57464 77.07917
# Shear Modulus (GPa) = 29.94108 33.01390 31.47749
#
# Velocity S-wave (km/s) = 3.56533 3.74381 3.65566
# Velocity P-wave (km/s) = 7.00271 7.21437 7.10933
#
# Compressibility (1/GPa) = 0.01323036
#
# Stress axis : x y z
#
# Youngs Moduli (GPa) = 53.03021 53.03021 108.66088
#
# Poissons Ratio (x) = 0.52512 0.37712
# Poissons Ratio (y) = 0.52512 0.37712
# Poissons Ratio (z) = 0.18405 0.18405
#
# Static dielectric constant tensor:
#      x y z
#    x 4.147350 0.000000 0.000000 
#    y 0.000000 4.147350 0.000000 
#    z 0.000000 0.000000 4.511590 
# 
# 
# High freq. dielectric constant tensor:
#      x y z
#    x 1.924270 0.000000 0.000000 
#    y 0.000000 1.924270 0.000000 
#    z 0.000000 0.000000 1.960360 
# 
# From -- ./inp_files/771.got.cif
#   From: 2010.03.12/outbox.cif.g09.slc.cpg/sg138_1_cif.got.tgz:771.got - 2010.04.08 09:41:05.
