data_PCOD8319169
_publ_section_title
;
Structure prediction by ZEFSAII (Michael W. Deem and Ramdas Pophale) SiO2 
 PCOD8319169
Probable space group: P 42/N C M
;
_chemical_formula_sum "Si O2"
_cell_formula_units_Z 60
_cell_length_a 12.188999
_cell_length_b 12.188999
_cell_length_c 20.208641
_cell_angle_alpha 90.000000
_cell_angle_beta 90.000000
_cell_angle_gamma 90.000000
_cell_volume 3002.432080
_symmetry_space_group_name_H-M "P 42/N C M"
_symmetry_group_IT_number 138
_space_group.IT_coordinate_system_code '2'
_symmetry_cell_setting 'tetragonal'
loop_
_space_group_symop_operation_xyz
x,y,z
1/2-y,x,1/2+z
1/2-x,1/2-y,z
y,1/2-x,1/2+z
1/2+x,-y,1/2-z
-x,1/2+y,1/2-z
1/2+y,1/2+x,-z
-y,-x,-z
-x,-y,-z
1/2+y,-x,1/2-z
1/2+x,1/2+y,-z
-y,1/2+x,1/2-z
1/2-x,y,1/2+z
x,1/2-y,1/2+z
1/2-y,1/2-x,z
y,x,z
loop_
_atom_site_type_symbol
_atom_site_label
_atom_site_fract_x
_atom_site_fract_y
_atom_site_fract_z
Si Si1 0.121483 0.378518 0.681625
Si Si2 0.237666 0.529184 0.919949
Si Si3 0.545571 0.954430 0.176896
Si Si4 0.516887 0.516887 0.079435
Si Si5 0.407308 0.092693 0.009924
Si Si6 0.250000 0.750000 0.500000
Si Si7 0.372191 0.127810 0.161176
O O1 0.083686 0.416315 0.752590
O O2 0.249726 0.404157 0.680029
O O3 0.062999 0.437002 0.619805
O O4 0.146759 0.511298 0.862495
O O5 0.359841 0.504818 0.895709
O O6 0.207304 0.445405 0.978537
O O7 0.241167 0.650195 0.949492
O O8 0.455285 0.044716 0.195584
O O9 0.500000 0.500000 0.000000
O O10 0.385060 0.114941 0.084246
O O11 0.500000 0.000000 0.000000
#
# Coordination Sequence:
#
# PCOD8319169 Si02
#       7
#     8  16   8   8   8   4   8
#     4  11  29  43  69  97 137 185 232 282 338 424
#     4  11  24  39  70  97 145 168 227 279 357 411
#     4  11  26  47  67 100 131 199 224 282 343 427
#     4  12  25  42  65 109 138 169 225 299 350 400
#     4  11  19  42  65  99 124 178 214 275 336 424
#     4  12  20  40  68 110 132 180 218 304 336 408
#     4  11  23  48  71  91 135 178 230 273 337 420
#
# _framework density 19.983799000000001
#
# number of rings (size 3 to 8) (size 9 to 14) (size 15 to 20)
#    0.000    0.800    5.333    1.600    7.467    4.267 
#    0.000    0.000    0.000    0.000    0.000    0.000 
#    0.000    0.000    0.000    0.000    0.000    0.000 
#
# Total GULP energy -743758.129368 kJ/mol
# GULP energy per Si atom -12395.968823 kJ/mol
# Density = 1.993831 g / cm^3
# Si number density = 19.983799 Si / 1000 Ang^3
#
#
#
# Elastic Constant Matrix: (Units=GPa)
#
#
# Indices 1 2 3 4 5 6 
#
# 1 142.6846 106.1485 64.8671 0.0000 0.0000 0.0000
# 2 106.1485 142.6846 64.8671 0.0000 0.0000 0.0000
# 3 64.8671 64.8671 146.9216 0.0000 0.0000 0.0000
# 4 0.0000 0.0000 0.0000 235.5789 0.0000 0.0000
# 5 0.0000 0.0000 0.0000 0.0000 235.5789 0.0000
# 6 0.0000 0.0000 0.0000 0.0000 0.0000 39.9269
#
#
#
# Elastic Compliance Matrix: (Units=1/GPa)
#
#
# Indices 1 2 3 4 5 6 
#
# 1 0.016295 -0.011075 -0.002305 0.000000 0.000000 0.000000
# 2 -0.011075 0.016295 -0.002305 0.000000 0.000000 0.000000
# 3 -0.002305 -0.002305 0.008842 0.000000 0.000000 0.000000
# 4 0.000000 0.000000 0.000000 0.004245 0.000000 0.000000
# 5 0.000000 0.000000 0.000000 0.000000 0.004245 0.000000
# 6 0.000000 0.000000 0.000000 0.000000 0.000000 0.025046
#
#
# Mechanical properties :
#
#
# Convention : Reuss Voigt Hill
#
# Bulk Modulus (GPa) = 99.37390 100.45068 99.91229
# Shear Modulus (GPa) = 45.58244 115.31082 80.44663
#
# Velocity S-wave (km/s) = 4.78113 7.60443 6.35164
# Velocity P-wave (km/s) = 8.96182 11.29063 10.19295
#
# Compressibility (1/GPa) = 0.01006300
#
# Stress axis : x y z
#
# Youngs Moduli (GPa) = 61.36723 61.36723 113.10189
#
# Poissons Ratio (x) = 0.67964 0.26069
# Poissons Ratio (y) = 0.67964 0.26069
# Poissons Ratio (z) = 0.14144 0.14144
#
# Static dielectric constant tensor:
#      x y z
#    x 3.615730 0.000000 0.000000 
#    y 0.000000 3.615730 0.000000 
#    z 0.000000 0.000000 3.517910 
# 
# 
# High freq. dielectric constant tensor:
#      x y z
#    x 1.794840 0.000000 0.000000 
#    y 0.000000 1.794840 0.000000 
#    z 0.000000 0.000000 1.775410 
# 
# From -- ./inp_files/5924.got.cif
#   From: 2010.03.12/outbox.cif.g09.slc.cpg/sg138_3_cif.got.tgz:5924.got - 2010.04.08 09:41:05.
