data_PCOD8319515
_publ_section_title
;
Structure prediction by ZEFSAII (Michael W. Deem and Ramdas Pophale) SiO2 
 PCOD8319515
Probable space group: I 4/M M M
;
_chemical_formula_sum "Si O2"
_cell_formula_units_Z 176
_cell_length_a 18.721411
_cell_length_b 18.721411
_cell_length_c 30.404824
_cell_angle_alpha 90.000000
_cell_angle_beta 90.000000
_cell_angle_gamma 90.000000
_cell_volume 10656.624157
_symmetry_space_group_name_H-M "I 4/M M M"
_symmetry_group_IT_number 139
_symmetry_cell_setting 'tetragonal'
loop_
_space_group_symop_operation_xyz
x,y,z
-y,x,z
-x,-y,z
y,-x,z
x,-y,-z
-x,y,-z
y,x,-z
-y,-x,-z
-x,-y,-z
y,-x,-z
x,y,-z
-y,x,-z
-x,y,z
x,-y,z
-y,-x,z
y,x,z
1/2+x,1/2+y,1/2+z
1/2-y,1/2+x,1/2+z
1/2-x,1/2-y,1/2+z
1/2+y,1/2-x,1/2+z
1/2+x,1/2-y,1/2-z
1/2-x,1/2+y,1/2-z
1/2+y,1/2+x,1/2-z
1/2-y,1/2-x,1/2-z
1/2-x,1/2-y,1/2-z
1/2+y,1/2-x,1/2-z
1/2+x,1/2+y,1/2-z
1/2-y,1/2+x,1/2-z
1/2-x,1/2+y,1/2+z
1/2+x,1/2-y,1/2+z
1/2-y,1/2-x,1/2+z
1/2+y,1/2+x,1/2+z
loop_
_atom_site_type_symbol
_atom_site_label
_atom_site_fract_x
_atom_site_fract_y
_atom_site_fract_z
Si Si1 0.500000 0.228284 0.167201
Si Si2 0.731841 0.847304 0.212053
Si Si3 0.000000 0.416018 0.163107
Si Si4 0.733906 0.851081 0.450615
Si Si5 0.500000 0.202645 0.733129
Si Si6 0.500000 0.384881 0.861412
Si Si7 0.133064 0.649727 0.368441
Si Si8 0.000000 0.810811 0.548542
O O1 0.500000 0.191101 0.214753
O O2 0.500000 0.314183 0.168695
O O3 0.430356 0.204209 0.141438
O O4 0.806503 0.806503 0.215742
O O5 0.677347 0.822653 0.250000
O O6 0.697370 0.833708 0.164776
O O7 0.747845 0.931014 0.218505
O O8 0.000000 0.375362 0.210031
O O9 0.068475 0.393795 0.134455
O O10 0.000000 0.500000 0.172947
O O11 0.706408 0.835431 0.500000
O O12 0.798358 0.798358 0.437717
O O13 0.667247 0.839279 0.417555
O O14 0.760876 0.931571 0.446344
O O15 0.570587 0.429414 0.849371
O O16 0.500000 0.370156 0.913699
O O17 0.000000 0.847682 0.500000
#
# Coordination Sequence:
#
# PCOD8319515 Si02
#       8
#    16  32  16  32  16  16  32  16
#     4  12  21  33  51  70  93 137 170 205 261 302
#     4  10  20  33  52  77 101 128 165 208 257 309
#     4  10  22  36  54  79 108 132 166 206 258 320
#     4  10  20  34  54  76  98 132 176 217 255 298
#     4  10  22  37  50  77 101 131 169 210 256 307
#     4  11  24  36  47  69  98 131 173 217 261 305
#     4  11  20  35  52  76 103 132 167 208 259 307
#     4  10  19  31  48  69  93 124 166 212 254 290
#
# _framework density 16.515549
#
# number of rings (size 3 to 8) (size 9 to 14) (size 15 to 20)
#    0.000    1.545    4.545    1.091    0.000    2.545 
#    1.636    0.909    0.000    0.818    0.000    0.000 
#    0.000    0.000    0.000    0.000    0.000    0.000 
#
# Total GULP energy -1091282.402252 kJ/mol
# GULP energy per Si atom -12400.936389 kJ/mol
# Density = 1.647796 g / cm^3
# Si number density = 16.515549 Si / 1000 Ang^3
#
#
#
# Elastic Constant Matrix: (Units=GPa)
#
#
# Indices 1 2 3 4 5 6 
#
# 1 97.6578 47.0948 44.9450 0.0000 0.0000 0.0000
# 2 47.0948 97.6570 44.9450 0.0000 0.0000 0.0000
# 3 44.9450 44.9450 113.7218 0.0000 0.0000 0.0000
# 4 0.0000 0.0000 0.0000 22.9204 0.0000 0.0000
# 5 0.0000 0.0000 0.0000 0.0000 22.9205 0.0000
# 6 0.0000 0.0000 0.0000 0.0000 0.0000 20.2318
#
#
#
# Elastic Compliance Matrix: (Units=1/GPa)
#
#
# Indices 1 2 3 4 5 6 
#
# 1 0.014466 -0.005311 -0.003618 0.000000 0.000000 0.000000
# 2 -0.005311 0.014466 -0.003618 0.000000 0.000000 0.000000
# 3 -0.003618 -0.003618 0.011653 0.000000 0.000000 0.000000
# 4 0.000000 0.000000 0.000000 0.043629 0.000000 0.000000
# 5 0.000000 0.000000 0.000000 0.000000 0.043629 0.000000
# 6 0.000000 0.000000 0.000000 0.000000 0.000000 0.049427
#
#
# Mechanical properties :
#
#
# Convention : Reuss Voigt Hill
#
# Bulk Modulus (GPa) = 64.55485 64.77846 64.66666
# Shear Modulus (GPa) = 24.09279 24.68464 24.38872
#
# Velocity S-wave (km/s) = 3.82356 3.87024 3.84697
# Velocity P-wave (km/s) = 7.65931 7.69932 7.67934
#
# Compressibility (1/GPa) = 0.01549070
#
# Stress axis : x y z
#
# Youngs Moduli (GPa) = 69.12602 69.12529 85.81129
#
# Poissons Ratio (x) = 0.36713 0.31049
# Poissons Ratio (y) = 0.36713 0.31050
# Poissons Ratio (z) = 0.25012 0.25012
#
# Static dielectric constant tensor:
#      x y z
#    x 3.026670 0.000000 0.000000 
#    y 0.000000 3.026670 0.000000 
#    z 0.000000 0.000000 3.245910 
# 
# 
# High freq. dielectric constant tensor:
#      x y z
#    x 1.625330 0.000000 0.000000 
#    y 0.000000 1.625330 0.000000 
#    z 0.000000 0.000000 1.636320 
# 
# From -- ./inp_files/14325.got.cif
#   From: 2010.03.12/outbox.cif.g09.slc.cpg/sg139_8_cif.got.tgz:14325.got - 2010.04.08 09:46:31.
