data_PCOD8319141
_publ_section_title
;
Structure prediction by ZEFSAII (Michael W. Deem and Ramdas Pophale) SiO2 
 PCOD8319141
Probable space group: P 42/N C M
;
_chemical_formula_sum "Si O2"
_cell_formula_units_Z 52
_cell_length_a 13.228142
_cell_length_b 13.228142
_cell_length_c 14.288025
_cell_angle_alpha 90.000000
_cell_angle_beta 90.000000
_cell_angle_gamma 90.000000
_cell_volume 2500.172063
_symmetry_space_group_name_H-M "P 42/N C M"
_symmetry_group_IT_number 138
_space_group.IT_coordinate_system_code '2'
_symmetry_cell_setting 'tetragonal'
loop_
_space_group_symop_operation_xyz
x,y,z
1/2-y,x,1/2+z
1/2-x,1/2-y,z
y,1/2-x,1/2+z
1/2+x,-y,1/2-z
-x,1/2+y,1/2-z
1/2+y,1/2+x,-z
-y,-x,-z
-x,-y,-z
1/2+y,-x,1/2-z
1/2+x,1/2+y,-z
-y,1/2+x,1/2-z
1/2-x,y,1/2+z
x,1/2-y,1/2+z
1/2-y,1/2-x,z
y,x,z
loop_
_atom_site_type_symbol
_atom_site_label
_atom_site_fract_x
_atom_site_fract_y
_atom_site_fract_z
Si Si1 0.723894 0.439255 0.371998
Si Si2 0.245745 0.086893 0.966530
Si Si3 0.645751 0.480608 0.692543
Si Si4 0.250000 0.750000 0.500000
O O1 0.739725 0.541266 0.430463
O O2 0.606840 0.428807 0.343752
O O3 0.795578 0.442182 0.282630
O O4 0.757390 0.346139 0.434301
O O5 0.323244 0.176757 0.954122
O O6 0.131926 0.131926 0.955036
O O7 0.269729 0.004034 0.886725
O O8 0.578899 0.578899 0.715995
#
# Coordination Sequence:
#
# PCOD8319141 Si02
#       4
#    16  16  16   4
#     4  12  23  43  63  94 129 171 214 264 324 382
#     4  10  22  42  67  95 127 165 213 267 324 386
#     4  11  24  42  67  97 130 171 217 268 327 389
#     4  12  24  42  64  92 126 176 218 264 312 392
#
# _framework density 20.798568
#
# number of rings (size 3 to 8) (size 9 to 14) (size 15 to 20)
#    0.000    0.923    3.077    3.692    0.000    4.923 
#    0.000    4.615    0.000    0.000    0.000    0.000 
#    0.000    0.000    0.000    0.000    0.000    0.000 
#
# Total GULP energy -644991.833532 kJ/mol
# GULP energy per Si atom -12403.689106 kJ/mol
# Density = 2.075123 g / cm^3
# Si number density = 20.798568 Si / 1000 Ang^3
#
#
#
# Elastic Constant Matrix: (Units=GPa)
#
#
# Indices 1 2 3 4 5 6 
#
# 1 90.8788 48.9750 55.3903 0.0000 0.0000 0.0000
# 2 48.9750 90.8788 55.3903 0.0000 0.0000 0.0000
# 3 55.3903 55.3903 145.1078 0.0000 0.0000 0.0000
# 4 0.0000 0.0000 0.0000 44.0463 0.0000 0.0000
# 5 0.0000 0.0000 0.0000 0.0000 44.0463 0.0000
# 6 0.0000 0.0000 0.0000 0.0000 0.0000 40.7670
#
#
#
# Elastic Compliance Matrix: (Units=1/GPa)
#
#
# Indices 1 2 3 4 5 6 
#
# 1 0.017057 -0.006807 -0.003912 0.000000 0.000000 0.000000
# 2 -0.006807 0.017057 -0.003912 0.000000 0.000000 0.000000
# 3 -0.003912 -0.003912 0.009878 0.000000 0.000000 0.000000
# 4 0.000000 0.000000 0.000000 0.022703 0.000000 0.000000
# 5 0.000000 0.000000 0.000000 0.000000 0.022703 0.000000
# 6 0.000000 0.000000 0.000000 0.000000 0.000000 0.024530
#
#
# Mechanical properties :
#
#
# Convention : Reuss Voigt Hill
#
# Bulk Modulus (GPa) = 67.89999 71.81963 69.85981
# Shear Modulus (GPa) = 33.76055 36.91255 35.33655
#
# Velocity S-wave (km/s) = 4.03329 4.21737 4.12635
# Velocity P-wave (km/s) = 7.37612 7.63681 7.50760
#
# Compressibility (1/GPa) = 0.01472754
#
# Stress axis : x y z
#
# Youngs Moduli (GPa) = 58.62763 58.62763 101.23209
#
# Poissons Ratio (x) = 0.39910 0.39606
# Poissons Ratio (y) = 0.39910 0.39606
# Poissons Ratio (z) = 0.22937 0.22937
#
# Static dielectric constant tensor:
#      x y z
#    x 4.076550 0.000000 0.000000 
#    y 0.000000 4.076550 0.000000 
#    z 0.000000 0.000000 3.891680 
# 
# 
# High freq. dielectric constant tensor:
#      x y z
#    x 1.817560 0.000000 0.000000 
#    y 0.000000 1.817560 0.000000 
#    z 0.000000 0.000000 1.827060 
# 
# From -- ./inp_files/2492.got.cif
#   From: 2010.03.12/outbox.cif.g09.slc.cpg/sg138_2_cif.got.tgz:2492.got - 2010.04.08 09:41:05.
