data_PCOD8319884
_publ_section_title
;
Structure prediction by ZEFSAII (Michael W. Deem and Ramdas Pophale) SiO2 
 PCOD8319884
Probable space group: I 4/M M M
;
_chemical_formula_sum "Si O2"
_cell_formula_units_Z 160
_cell_length_a 17.774718
_cell_length_b 17.774718
_cell_length_c 26.500829
_cell_angle_alpha 90.000000
_cell_angle_beta 90.000000
_cell_angle_gamma 90.000000
_cell_volume 8372.687814
_symmetry_space_group_name_H-M "I 4/M M M"
_symmetry_group_IT_number 139
_symmetry_cell_setting 'tetragonal'
loop_
_space_group_symop_operation_xyz
x,y,z
-y,x,z
-x,-y,z
y,-x,z
x,-y,-z
-x,y,-z
y,x,-z
-y,-x,-z
-x,-y,-z
y,-x,-z
x,y,-z
-y,x,-z
-x,y,z
x,-y,z
-y,-x,z
y,x,z
1/2+x,1/2+y,1/2+z
1/2-y,1/2+x,1/2+z
1/2-x,1/2-y,1/2+z
1/2+y,1/2-x,1/2+z
1/2+x,1/2-y,1/2-z
1/2-x,1/2+y,1/2-z
1/2+y,1/2+x,1/2-z
1/2-y,1/2-x,1/2-z
1/2-x,1/2-y,1/2-z
1/2+y,1/2-x,1/2-z
1/2+x,1/2+y,1/2-z
1/2-y,1/2+x,1/2-z
1/2-x,1/2+y,1/2+z
1/2+x,1/2-y,1/2+z
1/2-y,1/2-x,1/2+z
1/2+y,1/2+x,1/2+z
loop_
_atom_site_type_symbol
_atom_site_label
_atom_site_fract_x
_atom_site_fract_y
_atom_site_fract_z
Si Si1 0.366596 0.191739 0.558762
Si Si2 0.296577 0.703424 0.095150
Si Si3 0.704289 0.415295 0.356920
Si Si4 0.586577 0.413424 0.941362
Si Si5 0.206994 0.584930 0.257943
Si Si6 0.500000 0.916456 0.559588
Si Si7 0.298814 0.298814 0.210891
O O1 0.378309 0.208782 0.500000
O O2 0.279289 0.171538 0.569069
O O3 0.387216 0.266922 0.588892
O O4 0.423757 0.126069 0.577063
O O5 0.360307 0.639694 0.091942
O O6 0.278411 0.721590 0.153461
O O7 0.674772 0.500000 0.361232
O O8 0.634523 0.365478 0.338800
O O9 0.771405 0.408521 0.316602
O O10 0.604719 0.500000 0.928309
O O11 0.602481 0.397520 0.000000
O O12 0.191808 0.500000 0.241206
O O13 0.130499 0.630499 0.250000
O O14 0.276164 0.615132 0.222892
O O15 0.500000 0.923272 0.500000
O O16 0.500000 0.000000 0.583885
O O17 0.250000 0.250000 0.250000
#
# Coordination Sequence:
#
# PCOD8319884 Si02
#       7
#    32  16  32  16  32  16  16
#     4  11  21  35  56  86 119 155 196 242 294 344
#     4  12  23  34  62  93 116 145 212 252 283 348
#     4  11  22  38  62  87 116 153 199 243 293 356
#     4   9  20  40  60  82 121 163 192 235 304 362
#     4  10  21  38  61  86 116 153 195 240 298 356
#     4   9  20  38  56  78 119 165 197 233 290 352
#     4  10  20  39  61  80 113 156 193 240 299 351
#
# _framework density 19.109753000000001
#
# number of rings (size 3 to 8) (size 9 to 14) (size 15 to 20)
#    0.000    1.600    3.000    3.600    0.000    2.000 
#    0.000    5.000    0.000    0.300    0.000    1.400 
#    0.000    0.000    0.000    0.000    0.000    0.000 
#
# Total GULP energy -991966.443304 kJ/mol
# GULP energy per Si atom -12399.580541 kJ/mol
# Density = 1.906626 g / cm^3
# Si number density = 19.109753 Si / 1000 Ang^3
#
#
#
# Elastic Constant Matrix: (Units=GPa)
#
#
# Indices 1 2 3 4 5 6 
#
# 1 136.5569 81.3022 27.8302 0.0000 0.0000 0.0000
# 2 81.3022 136.5565 27.8302 0.0000 0.0000 0.0000
# 3 27.8302 27.8302 81.1704 0.0000 0.0000 0.0000
# 4 0.0000 0.0000 0.0000 24.4816 0.0000 0.0000
# 5 0.0000 0.0000 0.0000 0.0000 24.4816 0.0000
# 6 0.0000 0.0000 0.0000 0.0000 0.0000 29.8362
#
#
#
# Elastic Compliance Matrix: (Units=1/GPa)
#
#
# Indices 1 2 3 4 5 6 
#
# 1 0.011564 -0.006534 -0.001725 0.000000 0.000000 0.000000
# 2 -0.006534 0.011564 -0.001725 0.000000 0.000000 0.000000
# 3 -0.001725 -0.001725 0.013503 0.000000 0.000000 0.000000
# 4 0.000000 0.000000 0.000000 0.040847 0.000000 0.000000
# 5 0.000000 0.000000 0.000000 0.000000 0.040847 0.000000
# 6 0.000000 0.000000 0.000000 0.000000 0.000000 0.033516
#
#
# Mechanical properties :
#
#
# Convention : Reuss Voigt Hill
#
# Bulk Modulus (GPa) = 60.00715 69.80102 64.90409
# Shear Modulus (GPa) = 28.19070 30.24795 29.21933
#
# Velocity S-wave (km/s) = 3.84500 3.98283 3.91452
# Velocity P-wave (km/s) = 7.15413 7.59975 7.38030
#
# Compressibility (1/GPa) = 0.01666468
#
# Stress axis : x y z
#
# Youngs Moduli (GPa) = 86.47204 86.47180 74.06009
#
# Poissons Ratio (x) = 0.56498 0.12774
# Poissons Ratio (y) = 0.56498 0.12774
# Poissons Ratio (z) = 0.14915 0.14915
#
# Static dielectric constant tensor:
#      x y z
#    x 3.679230 0.000000 0.000000 
#    y 0.000000 3.679230 0.000000 
#    z 0.000000 0.000000 3.423140 
# 
# 
# High freq. dielectric constant tensor:
#      x y z
#    x 1.740340 0.000000 0.000000 
#    y 0.000000 1.740340 0.000000 
#    z 0.000000 0.000000 1.738350 
# 
# From -- ./inp_files/13034.got.cif
#   From: 2010.03.12/outbox.cif.g09.slc.cpg/sg139_7_cif.got.tgz:13034.got - 2010.04.08 09:46:31.
