data_PCOD8319465
_publ_section_title
;
Structure prediction by ZEFSAII (Michael W. Deem and Ramdas Pophale) SiO2 
 PCOD8319465
Probable space group: I 4/M M M
;
_chemical_formula_sum "Si O2"
_cell_formula_units_Z 160
_cell_length_a 18.917926
_cell_length_b 18.917926
_cell_length_c 25.502740
_cell_angle_alpha 90.000000
_cell_angle_beta 90.000000
_cell_angle_gamma 90.000000
_cell_volume 9127.122679
_symmetry_space_group_name_H-M "I 4/M M M"
_symmetry_group_IT_number 139
_symmetry_cell_setting 'tetragonal'
loop_
_space_group_symop_operation_xyz
x,y,z
-y,x,z
-x,-y,z
y,-x,z
x,-y,-z
-x,y,-z
y,x,-z
-y,-x,-z
-x,-y,-z
y,-x,-z
x,y,-z
-y,x,-z
-x,y,z
x,-y,z
-y,-x,z
y,x,z
1/2+x,1/2+y,1/2+z
1/2-y,1/2+x,1/2+z
1/2-x,1/2-y,1/2+z
1/2+y,1/2-x,1/2+z
1/2+x,1/2-y,1/2-z
1/2-x,1/2+y,1/2-z
1/2+y,1/2+x,1/2-z
1/2-y,1/2-x,1/2-z
1/2-x,1/2-y,1/2-z
1/2+y,1/2-x,1/2-z
1/2+x,1/2+y,1/2-z
1/2-y,1/2+x,1/2-z
1/2-x,1/2+y,1/2+z
1/2+x,1/2-y,1/2+z
1/2-y,1/2-x,1/2+z
1/2+y,1/2+x,1/2+z
loop_
_atom_site_type_symbol
_atom_site_label
_atom_site_fract_x
_atom_site_fract_y
_atom_site_fract_z
Si Si1 0.579500 0.794025 0.402273
Si Si2 0.921206 0.807048 0.192349
Si Si3 0.577423 0.306716 0.500000
Si Si4 0.230940 0.346497 0.903309
Si Si5 0.582584 0.303178 0.000000
Si Si6 0.305854 0.581457 0.188656
O O1 0.500000 0.829028 0.406202
O O2 0.588971 0.759074 0.345552
O O3 0.589024 0.738257 0.448159
O O4 0.645627 0.846720 0.408524
O O5 0.868530 0.868530 0.175198
O O6 0.907789 0.780322 0.251538
O O7 0.000000 0.838593 0.187228
O O8 0.500000 0.340255 0.500000
O O9 0.629722 0.370279 0.500000
O O10 0.268611 0.268611 0.907510
O O11 0.247722 0.381294 0.847426
O O12 0.258984 0.396721 0.948903
O O13 0.500000 0.318663 0.000000
O O14 0.621440 0.378561 0.000000
O O15 0.314322 0.500000 0.173142
O O16 0.382229 0.617772 0.180012
#
# Coordination Sequence:
#
# PCOD8319465 Si02
#       6
#    32  32  16  32  16  32
#     4  10  20  33  49  69  95 127 165 209 249 286
#     4   9  17  29  45  68  98 129 163 202 246 298
#     4  10  19  30  45  65  90 120 153 190 234 284
#     4  10  19  32  52  74  98 130 167 205 245 291
#     4  10  21  36  56  82 108 134 161 192 236 290
#     4   9  18  31  48  72 100 130 162 198 244 298
#
# _framework density 17.530169000000001
#
# number of rings (size 3 to 8) (size 9 to 14) (size 15 to 20)
#    0.000    2.400    0.000    3.000    0.000    2.200 
#    0.000    5.000    0.000   10.200    0.000    0.000 
#    0.000    9.600    0.000    0.000    0.000    0.000 
#
# Total GULP energy -991656.058602 kJ/mol
# GULP energy per Si atom -12395.700733 kJ/mol
# Density = 1.749027 g / cm^3
# Si number density = 17.530169 Si / 1000 Ang^3
#
#
#
# Elastic Constant Matrix: (Units=GPa)
#
#
# Indices 1 2 3 4 5 6 
#
# 1 113.5410 53.6865 39.1362 0.0000 0.0000 0.0000
# 2 53.6865 113.5414 39.1368 0.0000 0.0000 0.0000
# 3 39.1362 39.1368 94.9206 0.0000 0.0000 0.0000
# 4 0.0000 0.0000 0.0000 34.9685 0.0000 0.0000
# 5 0.0000 0.0000 0.0000 0.0000 34.9709 0.0000
# 6 0.0000 0.0000 0.0000 0.0000 0.0000 19.8733
#
#
#
# Elastic Compliance Matrix: (Units=1/GPa)
#
#
# Indices 1 2 3 4 5 6 
#
# 1 0.012058 -0.004649 -0.003055 0.000000 0.000000 0.000000
# 2 -0.004649 0.012059 -0.003055 0.000000 0.000000 0.000000
# 3 -0.003055 -0.003055 0.013054 0.000000 0.000000 0.000000
# 4 0.000000 0.000000 0.000000 0.028597 0.000000 0.000000
# 5 0.000000 0.000000 0.000000 0.000000 0.028595 0.000000
# 6 0.000000 0.000000 0.000000 0.000000 0.000000 0.050319
#
#
# Mechanical properties :
#
#
# Convention : Reuss Voigt Hill
#
# Bulk Modulus (GPa) = 63.88310 65.10245 64.49277
# Shear Modulus (GPa) = 29.16842 30.63210 29.90026
#
# Velocity S-wave (km/s) = 4.08352 4.18472 4.13443
# Velocity P-wave (km/s) = 7.66514 7.78249 7.72404
#
# Compressibility (1/GPa) = 0.01565359
#
# Stress axis : x y z
#
# Youngs Moduli (GPa) = 82.92907 82.92900 76.60226
#
# Poissons Ratio (x) = 0.38551 0.23403
# Poissons Ratio (y) = 0.38551 0.23404
# Poissons Ratio (z) = 0.25336 0.25336
#
# Static dielectric constant tensor:
#      x y z
#    x 3.154550 0.000000 0.000000 
#    y 0.000000 3.154550 0.000000 
#    z 0.000000 0.000000 3.557900 
# 
# 
# High freq. dielectric constant tensor:
#      x y z
#    x 1.658020 0.000000 0.000000 
#    y 0.000000 1.658020 0.000000 
#    z 0.000000 0.000000 1.703640 
# 
# From -- ./inp_files/12953.got.cif
#   From: 2010.03.12/outbox.cif.g09.slc.cpg/sg139_7_cif.got.tgz:12953.got - 2010.04.08 09:46:31.
