data_PCOD8319336
_publ_section_title
;
Structure prediction by ZEFSAII (Michael W. Deem and Ramdas Pophale) SiO2 
 PCOD8319336
Probable space group: I 4/M M M
;
_chemical_formula_sum "Si O2"
_cell_formula_units_Z 160
_cell_length_a 31.978103
_cell_length_b 31.978103
_cell_length_c 9.125215
_cell_angle_alpha 90.000000
_cell_angle_beta 90.000000
_cell_angle_gamma 90.000000
_cell_volume 9331.436386
_symmetry_space_group_name_H-M "I 4/M M M"
_symmetry_group_IT_number 139
_symmetry_cell_setting 'tetragonal'
loop_
_space_group_symop_operation_xyz
x,y,z
-y,x,z
-x,-y,z
y,-x,z
x,-y,-z
-x,y,-z
y,x,-z
-y,-x,-z
-x,-y,-z
y,-x,-z
x,y,-z
-y,x,-z
-x,y,z
x,-y,z
-y,-x,z
y,x,z
1/2+x,1/2+y,1/2+z
1/2-y,1/2+x,1/2+z
1/2-x,1/2-y,1/2+z
1/2+y,1/2-x,1/2+z
1/2+x,1/2-y,1/2-z
1/2-x,1/2+y,1/2-z
1/2+y,1/2+x,1/2-z
1/2-y,1/2-x,1/2-z
1/2-x,1/2-y,1/2-z
1/2+y,1/2-x,1/2-z
1/2+x,1/2+y,1/2-z
1/2-y,1/2+x,1/2-z
1/2-x,1/2+y,1/2+z
1/2+x,1/2-y,1/2+z
1/2-y,1/2-x,1/2+z
1/2+y,1/2+x,1/2+z
loop_
_atom_site_type_symbol
_atom_site_label
_atom_site_fract_x
_atom_site_fract_y
_atom_site_fract_z
Si Si1 0.246620 0.909759 0.334990
Si Si2 0.500000 0.347934 0.327670
Si Si3 0.000000 0.234516 0.338035
Si Si4 0.175558 0.384295 0.328775
Si Si5 0.416966 0.650348 0.171811
Si Si6 0.047815 0.608264 0.171841
O O1 0.252052 0.892320 0.500000
O O2 0.276556 0.885149 0.225218
O O3 0.198287 0.906353 0.284789
O O4 0.261953 0.958216 0.326217
O O5 0.500000 0.356287 0.500000
O O6 0.500000 0.298814 0.292444
O O7 0.542238 0.367069 0.256968
O O8 0.000000 0.211771 0.500000
O O9 0.175351 0.375920 0.500000
O O10 0.154893 0.345108 0.250000
O O11 0.150385 0.426645 0.287673
O O12 0.377577 0.622424 0.218906
O O13 0.426293 0.647179 0.000000
O O14 0.068184 0.568184 0.250000
O O15 0.000000 0.613810 0.225166
O O16 0.049922 0.599591 0.000000
#
# Coordination Sequence:
#
# PCOD8319336 Si02
#       6
#    32  16  16  32  32  32
#     4   9  17  30  49  74  99 123 159 202 244 291
#     4  10  18  28  46  75 109 138 164 203 246 280
#     4   8  16  30  46  68  99 131 161 195 238 300
#     4  10  20  33  49  67  93 127 161 200 249 303
#     4   9  18  34  55  76 103 140 174 203 239 291
#     4   9  19  34  48  65  90 120 157 199 242 294
#
# _framework density 17.146342000000001
#
# number of rings (size 3 to 8) (size 9 to 14) (size 15 to 20)
#    0.000    2.800    0.000    2.700    1.400    5.000 
#    0.000    1.000    0.000    0.900    0.000    2.100 
#    0.000    0.000    0.000    0.000    0.000    0.000 
#
# Total GULP energy -991524.153886 kJ/mol
# GULP energy per Si atom -12394.051924 kJ/mol
# Density = 1.710732 g / cm^3
# Si number density = 17.146342 Si / 1000 Ang^3
#
#
#
# Elastic Constant Matrix: (Units=GPa)
#
#
# Indices 1 2 3 4 5 6 
#
# 1 101.9007 56.9643 46.6979 0.0000 0.0000 0.0000
# 2 56.9643 101.9037 46.6980 0.0000 0.0000 0.0000
# 3 46.6979 46.6980 72.2481 0.0000 0.0000 0.0000
# 4 0.0000 0.0000 0.0000 22.8342 0.0000 0.0000
# 5 0.0000 0.0000 0.0000 0.0000 22.8341 0.0000
# 6 0.0000 0.0000 0.0000 0.0000 0.0000 18.5312
#
#
#
# Elastic Compliance Matrix: (Units=1/GPa)
#
#
# Indices 1 2 3 4 5 6 
#
# 1 0.016203 -0.006050 -0.006562 0.000000 0.000000 0.000000
# 2 -0.006050 0.016202 -0.006562 0.000000 0.000000 0.000000
# 3 -0.006562 -0.006562 0.022324 0.000000 0.000000 0.000000
# 4 0.000000 0.000000 0.000000 0.043794 0.000000 0.000000
# 5 0.000000 0.000000 0.000000 0.000000 0.043794 0.000000
# 6 0.000000 0.000000 0.000000 0.000000 0.000000 0.053963
#
#
# Mechanical properties :
#
#
# Convention : Reuss Voigt Hill
#
# Bulk Modulus (GPa) = 61.04787 64.08587 62.56687
# Shear Modulus (GPa) = 20.82559 21.21939 21.02249
#
# Velocity S-wave (km/s) = 3.48886 3.52169 3.50532
# Velocity P-wave (km/s) = 7.20492 7.34802 7.27682
#
# Compressibility (1/GPa) = 0.01638059
#
# Stress axis : x y z
#
# Youngs Moduli (GPa) = 61.71716 61.71962 44.79487
#
# Poissons Ratio (x) = 0.37342 0.29395
# Poissons Ratio (y) = 0.37341 0.29394
# Poissons Ratio (z) = 0.40500 0.40499
#
# Static dielectric constant tensor:
#      x y z
#    x 3.137100 0.000000 0.000000 
#    y 0.000000 3.137090 0.000000 
#    z 0.000000 0.000000 3.101100 
# 
# 
# High freq. dielectric constant tensor:
#      x y z
#    x 1.643590 0.000000 0.000000 
#    y 0.000000 1.643590 0.000000 
#    z 0.000000 0.000000 1.659360 
# 
# From -- ./inp_files/2172.got.cif
#   From: 2010.03.12/outbox.cif.g09.slc.cpg/sg139_2_cif.got.tgz:2172.got - 2010.04.08 09:46:31.
