data_PCOD8319607
_publ_section_title
;
Structure prediction by ZEFSAII (Michael W. Deem and Ramdas Pophale) SiO2 
 PCOD8319607
Probable space group: I 4/M M M
;
_chemical_formula_sum "Si O2"
_cell_formula_units_Z 176
_cell_length_a 27.623718
_cell_length_b 27.623718
_cell_length_c 12.467464
_cell_angle_alpha 90.000000
_cell_angle_beta 90.000000
_cell_angle_gamma 90.000000
_cell_volume 9513.545213
_symmetry_space_group_name_H-M "I 4/M M M"
_symmetry_group_IT_number 139
_symmetry_cell_setting 'tetragonal'
loop_
_space_group_symop_operation_xyz
x,y,z
-y,x,z
-x,-y,z
y,-x,z
x,-y,-z
-x,y,-z
y,x,-z
-y,-x,-z
-x,-y,-z
y,-x,-z
x,y,-z
-y,x,-z
-x,y,z
x,-y,z
-y,-x,z
y,x,z
1/2+x,1/2+y,1/2+z
1/2-y,1/2+x,1/2+z
1/2-x,1/2-y,1/2+z
1/2+y,1/2-x,1/2+z
1/2+x,1/2-y,1/2-z
1/2-x,1/2+y,1/2-z
1/2+y,1/2+x,1/2-z
1/2-y,1/2-x,1/2-z
1/2-x,1/2-y,1/2-z
1/2+y,1/2-x,1/2-z
1/2+x,1/2+y,1/2-z
1/2-y,1/2+x,1/2-z
1/2-x,1/2+y,1/2+z
1/2+x,1/2-y,1/2+z
1/2-y,1/2-x,1/2+z
1/2+y,1/2+x,1/2+z
loop_
_atom_site_type_symbol
_atom_site_label
_atom_site_fract_x
_atom_site_fract_y
_atom_site_fract_z
Si Si1 0.304528 0.912561 0.375891
Si Si2 0.320595 0.140897 0.877377
Si Si3 0.132994 0.944395 0.500000
Si Si4 0.700734 0.556917 0.802674
Si Si5 0.372614 0.053470 0.214465
Si Si6 0.868454 0.788705 0.125102
O O1 0.317310 0.913232 0.500000
O O2 0.320333 0.859334 0.324456
O O3 0.249528 0.924735 0.356894
O O4 0.338449 0.952028 0.319167
O O5 0.343598 0.087038 0.870062
O O6 0.265682 0.142388 0.832266
O O7 0.316313 0.156519 0.000000
O O8 0.082716 0.917285 0.500000
O O9 0.161140 0.930605 0.608229
O O10 0.119853 0.000000 0.500000
O O11 0.702874 0.500000 0.775348
O O12 0.690015 0.586456 0.693566
O O13 0.423968 0.076033 0.250000
O O14 0.381330 0.000000 0.165539
O O15 0.820922 0.820922 0.145707
O O16 0.883699 0.789589 0.000000
#
# Coordination Sequence:
#
# PCOD8319607 Si02
#       6
#    32  32  16  32  32  32
#     4  10  19  33  52  74 105 138 175 218 271 323
#     4   9  19  34  52  72 102 137 179 223 262 322
#     4  10  22  39  58  84 114 142 175 217 265 319
#     4  11  21  34  56  83 110 138 175 225 270 316
#     4  10  20  33  51  73 100 135 178 225 274 324
#     4  10  21  37  55  77 111 150 184 220 267 321
#
# _framework density 18.499938
#
# number of rings (size 3 to 8) (size 9 to 14) (size 15 to 20)
#    0.000    2.000    2.727    1.091    0.000    2.091 
#    0.000    4.545    0.000    0.000    0.000    5.091 
#    0.000    0.000    0.000   16.909    0.000    0.182 
#
# Total GULP energy -1090710.090576 kJ/mol
# GULP energy per Si atom -12394.432847 kJ/mol
# Density = 1.845783 g / cm^3
# Si number density = 18.499938 Si / 1000 Ang^3
#
#
#
# Elastic Constant Matrix: (Units=GPa)
#
#
# Indices 1 2 3 4 5 6 
#
# 1 80.9452 80.6114 26.7943 0.0000 0.0000 0.0000
# 2 80.6114 80.8761 26.7749 0.0000 0.0000 0.0000
# 3 26.7943 26.7749 60.4036 0.0000 0.0000 0.0000
# 4 0.0000 0.0000 0.0000 26.2575 0.0000 0.0000
# 5 0.0000 0.0000 0.0000 0.0000 26.2565 0.0000
# 6 0.0000 0.0000 0.0000 0.0000 0.0000 21.9048
#
#
#
# Elastic Compliance Matrix: (Units=1/GPa)
#
#
# Indices 1 2 3 4 5 6 
#
# 1 1.673886 -1.667258 -0.003475 0.000000 0.000000 0.000000
# 2 -1.667258 1.675147 -0.002962 0.000000 0.000000 0.000000
# 3 -0.003475 -0.002962 0.019410 0.000000 0.000000 0.000000
# 4 0.000000 0.000000 0.000000 0.038084 0.000000 0.000000
# 5 0.000000 0.000000 0.000000 0.000000 0.038086 0.000000
# 6 0.000000 0.000000 0.000000 0.000000 0.000000 0.045652
#
#
# Mechanical properties :
#
#
# Convention : Reuss Voigt Hill
#
# Bulk Modulus (GPa) = 47.49959 54.50955 51.00457
# Shear Modulus (GPa) = 0.73050 20.75338 10.74194
#
# Velocity S-wave (km/s) = 0.62906 3.35297 2.41228
# Velocity P-wave (km/s) = 5.12434 6.67223 5.94884
#
# Compressibility (1/GPa) = 0.02105281
#
# Stress axis : x y z
#
# Youngs Moduli (GPa) = 0.59741 0.59696 51.52029
#
# Poissons Ratio (x) = 0.99529 0.17902
# Poissons Ratio (y) = 0.99604 0.15262
# Poissons Ratio (z) = 0.00208 0.00177
#
# Static dielectric constant tensor:
#      x y z
#    x 3.336170 0.000000 0.000000 
#    y 0.000000 3.336170 0.000000 
#    z 0.000000 0.000000 3.629000 
# 
# 
# High freq. dielectric constant tensor:
#      x y z
#    x 1.706640 0.000000 0.000000 
#    y 0.000000 1.706640 0.000000 
#    z 0.000000 0.000000 1.732690 
# 
# From -- ./inp_files/6411.got.cif
#   From: 2010.03.12/outbox.cif.g09.slc.cpg/sg139_4_cif.got.tgz:6411.got - 2010.04.08 09:46:31.
