data_PCOD8319753
_publ_section_title
;
Structure prediction by ZEFSAII (Michael W. Deem and Ramdas Pophale) SiO2 
 PCOD8319753
Probable space group: I 4/M M M
;
_chemical_formula_sum "Si O2"
_cell_formula_units_Z 128
_cell_length_a 29.574330
_cell_length_b 29.574330
_cell_length_c 8.760115
_cell_angle_alpha 90.000000
_cell_angle_beta 90.000000
_cell_angle_gamma 90.000000
_cell_volume 7661.955699
_symmetry_space_group_name_H-M "I 4/M M M"
_symmetry_group_IT_number 139
_symmetry_cell_setting 'tetragonal'
loop_
_space_group_symop_operation_xyz
x,y,z
-y,x,z
-x,-y,z
y,-x,z
x,-y,-z
-x,y,-z
y,x,-z
-y,-x,-z
-x,-y,-z
y,-x,-z
x,y,-z
-y,x,-z
-x,y,z
x,-y,z
-y,-x,z
y,x,z
1/2+x,1/2+y,1/2+z
1/2-y,1/2+x,1/2+z
1/2-x,1/2-y,1/2+z
1/2+y,1/2-x,1/2+z
1/2+x,1/2-y,1/2-z
1/2-x,1/2+y,1/2-z
1/2+y,1/2+x,1/2-z
1/2-y,1/2-x,1/2-z
1/2-x,1/2-y,1/2-z
1/2+y,1/2-x,1/2-z
1/2+x,1/2+y,1/2-z
1/2-y,1/2+x,1/2-z
1/2-x,1/2+y,1/2+z
1/2+x,1/2-y,1/2+z
1/2-y,1/2-x,1/2+z
1/2+y,1/2+x,1/2+z
loop_
_atom_site_type_symbol
_atom_site_label
_atom_site_fract_x
_atom_site_fract_y
_atom_site_fract_z
Si Si1 0.303658 0.303658 0.821105
Si Si2 0.949932 0.834151 0.669873
Si Si3 0.350296 0.784778 0.678911
Si Si4 0.370033 0.370033 0.327720
Si Si5 0.049709 0.259468 0.174581
O O1 0.257363 0.322648 0.749353
O O2 0.341253 0.341253 0.791635
O O3 0.295993 0.295993 0.000000
O O4 0.929459 0.839868 0.500000
O O5 0.922396 0.861381 0.796492
O O6 0.949745 0.781629 0.709393
O O7 0.000000 0.854308 0.675648
O O8 0.341181 0.783172 0.500000
O O9 0.330754 0.830754 0.750000
O O10 0.404556 0.787336 0.713548
O O11 0.356951 0.356951 0.500000
O O12 0.000000 0.284633 0.195027
O O13 0.053525 0.242122 0.000000
#
# Coordination Sequence:
#
# PCOD8319753 Si02
#       5
#    16  32  32  16  32
#     4  12  23  35  50  70 100 135 173 212 247 287
#     4  10  20  33  51  74  97 123 159 205 253 296
#     4  11  22  35  51  72 102 137 172 206 247 297
#     4  12  22  33  51  73  99 130 164 202 248 302
#     4   9  18  33  52  72  96 128 166 206 245 289
#
# _framework density 16.705916999999999
#
# number of rings (size 3 to 8) (size 9 to 14) (size 15 to 20)
#    0.000    1.500    2.500    4.125    0.000    2.500 
#    0.000    0.000    0.000    0.375    0.000    2.625 
#    0.000    0.500    0.000    6.250    0.000    0.000 
#
# Total GULP energy -792928.615008 kJ/mol
# GULP energy per Si atom -12389.509609 kJ/mol
# Density = 1.666789 g / cm^3
# Si number density = 16.705917 Si / 1000 Ang^3
#
#
#
# Elastic Constant Matrix: (Units=GPa)
#
#
# Indices 1 2 3 4 5 6 
#
# 1 52.6809 103.5651 37.0692 0.0000 0.0000 0.0000
# 2 103.5651 52.6809 37.0692 0.0000 0.0000 0.0000
# 3 37.0692 37.0692 85.8325 0.0000 0.0000 0.0000
# 4 0.0000 0.0000 0.0000 22.6110 0.0000 0.0000
# 5 0.0000 0.0000 0.0000 0.0000 22.6110 0.0000
# 6 0.0000 0.0000 0.0000 0.0000 0.0000 18.4395
#
#
#
# Elastic Compliance Matrix: (Units=1/GPa)
#
#
# Indices 1 2 3 4 5 6 
#
# 1 -0.005801 0.013851 -0.003477 0.000000 0.000000 0.000000
# 2 0.013851 -0.005801 -0.003477 0.000000 0.000000 0.000000
# 3 -0.003477 -0.003477 0.014653 0.000000 0.000000 0.000000
# 4 0.000000 0.000000 0.000000 0.044226 0.000000 0.000000
# 5 0.000000 0.000000 0.000000 0.000000 0.044226 0.000000
# 6 0.000000 0.000000 0.000000 0.000000 0.000000 0.054231
#
#
# Mechanical properties :
#
#
# Convention : Reuss Voigt Hill
#
# Bulk Modulus (GPa) = 59.35803 60.73347 60.04575
# Shear Modulus (GPa) = 36.34930 13.63168 24.99049
#
# Velocity S-wave (km/s) = 4.66964 2.85963 3.87189
# Velocity P-wave (km/s) = 8.04254 6.88017 7.48395
#
# Compressibility (1/GPa) = 0.01684692
#
# Stress axis : x y z
#
# Youngs Moduli (GPa) = -172.37410 -172.37410 68.24318
#
# Poissons Ratio (x) = 2.38757 0.23725
# Poissons Ratio (y) = 2.38757 0.23725
# Poissons Ratio (z) = -0.59926 -0.59926
#
# Static dielectric constant tensor:
#      x y z
#    x 3.272140 0.000000 0.000000 
#    y 0.000000 3.272140 0.000000 
#    z 0.000000 0.000000 3.258950 
# 
# 
# High freq. dielectric constant tensor:
#      x y z
#    x 1.621920 0.000000 0.000000 
#    y 0.000000 1.621920 0.000000 
#    z 0.000000 0.000000 1.662340 
# 
# From -- ./inp_files/1843.got.cif
#   From: 2010.03.12/outbox.cif.g09.slc.cpg/sg139_1_cif.got.tgz:1843.got - 2010.04.08 09:46:31.
