data_PCOD8319093
_publ_section_title
;
Structure prediction by ZEFSAII (Michael W. Deem and Ramdas Pophale) SiO2 
 PCOD8319093
Probable space group: P 42/N C M
;
_chemical_formula_sum "Si O2"
_cell_formula_units_Z 80
_cell_length_a 12.321897
_cell_length_b 12.321897
_cell_length_c 28.099212
_cell_angle_alpha 90.000000
_cell_angle_beta 90.000000
_cell_angle_gamma 90.000000
_cell_volume 4266.279352
_symmetry_space_group_name_H-M "P 42/N C M"
_symmetry_group_IT_number 138
_space_group.IT_coordinate_system_code '2'
_symmetry_cell_setting 'tetragonal'
loop_
_space_group_symop_operation_xyz
x,y,z
1/2-y,x,1/2+z
1/2-x,1/2-y,z
y,1/2-x,1/2+z
1/2+x,-y,1/2-z
-x,1/2+y,1/2-z
1/2+y,1/2+x,-z
-y,-x,-z
-x,-y,-z
1/2+y,-x,1/2-z
1/2+x,1/2+y,-z
-y,1/2+x,1/2-z
1/2-x,y,1/2+z
x,1/2-y,1/2+z
1/2-y,1/2-x,z
y,x,z
loop_
_atom_site_type_symbol
_atom_site_label
_atom_site_fract_x
_atom_site_fract_y
_atom_site_fract_z
Si Si1 0.842597 0.478685 0.706088
Si Si2 0.245646 0.423798 0.605546
Si Si3 0.643132 0.037124 0.146979
Si Si4 0.250621 0.555181 0.695754
Si Si5 0.432563 0.611644 0.449578
O O1 0.759615 0.508592 0.663322
O O2 0.784711 0.506692 0.756047
O O3 0.866803 0.350591 0.705997
O O4 0.950761 0.549240 0.699225
O O5 0.147486 0.352515 0.584337
O O6 0.353833 0.353833 0.613392
O O7 0.211807 0.467783 0.657029
O O8 0.272385 0.521358 0.568908
O O9 0.622146 0.147217 0.175965
O O10 0.647436 0.061402 0.090342
O O11 0.548678 0.951323 0.158973
O O12 0.370811 0.629190 0.500000
O O13 0.533931 0.533931 0.458681
#
# Coordination Sequence:
#
# PCOD8319093 Si02
#       5
#    16  16  16  16  16
#     4  12  24  36  55  81 111 149 186 225 278 335
#     4   9  17  30  51  79 107 137 181 236 281 320
#     4  10  21  37  57  82 112 146 186 231 276 326
#     4  11  21  36  54  75 106 148 190 224 265 328
#     4   8  15  31  55  80 107 141 181 227 280 335
#
# _framework density 18.751702000000002
#
# number of rings (size 3 to 8) (size 9 to 14) (size 15 to 20)
#    0.000    2.000    2.000    4.200    0.000    1.200 
#    0.000    1.000    0.000   13.200    0.000    7.000 
#    0.000    0.000    0.000    0.000    0.000    0.000 
#
# Total GULP energy -991781.154883 kJ/mol
# GULP energy per Si atom -12397.264436 kJ/mol
# Density = 1.870902 g / cm^3
# Si number density = 18.751702 Si / 1000 Ang^3
#
#
#
# Elastic Constant Matrix: (Units=GPa)
#
#
# Indices 1 2 3 4 5 6 
#
# 1 84.5990 32.9195 45.2001 0.0000 0.0000 0.0000
# 2 32.9195 84.5989 45.2000 0.0000 0.0000 0.0000
# 3 45.2001 45.2000 143.8032 0.0000 0.0000 0.0000
# 4 0.0000 0.0000 0.0000 19.4630 0.0000 0.0000
# 5 0.0000 0.0000 0.0000 0.0000 19.4629 0.0000
# 6 0.0000 0.0000 0.0000 0.0000 0.0000 18.9435
#
#
#
# Elastic Compliance Matrix: (Units=1/GPa)
#
#
# Indices 1 2 3 4 5 6 
#
# 1 0.015286 -0.004064 -0.003528 0.000000 0.000000 0.000000
# 2 -0.004064 0.015286 -0.003528 0.000000 0.000000 0.000000
# 3 -0.003528 -0.003528 0.009172 0.000000 0.000000 0.000000
# 4 0.000000 0.000000 0.000000 0.051380 0.000000 0.000000
# 5 0.000000 0.000000 0.000000 0.000000 0.051380 0.000000
# 6 0.000000 0.000000 0.000000 0.000000 0.000000 0.052789
#
#
# Mechanical properties :
#
#
# Convention : Reuss Voigt Hill
#
# Bulk Modulus (GPa) = 57.12008 62.18226 59.65117
# Shear Modulus (GPa) = 22.38484 24.21930 23.30207
#
# Velocity S-wave (km/s) = 3.45882 3.59775 3.52897
# Velocity P-wave (km/s) = 6.81752 7.10572 6.96311
#
# Compressibility (1/GPa) = 0.01750698
#
# Stress axis : x y z
#
# Youngs Moduli (GPa) = 65.41738 65.41738 109.03339
#
# Poissons Ratio (x) = 0.26583 0.38462
# Poissons Ratio (y) = 0.26583 0.38462
# Poissons Ratio (z) = 0.23076 0.23076
#
# Static dielectric constant tensor:
#      x y z
#    x 3.317340 0.000000 0.000000 
#    y 0.000000 3.317340 0.000000 
#    z 0.000000 0.000000 3.683900 
# 
# 
# High freq. dielectric constant tensor:
#      x y z
#    x 1.712300 0.000000 0.000000 
#    y 0.000000 1.712300 0.000000 
#    z 0.000000 0.000000 1.724650 
# 
# From -- ./inp_files/7862.got.cif
#   From: 2010.03.12/outbox.cif.g09.slc.cpg/sg138_4_cif.got.tgz:7862.got - 2010.04.08 09:41:05.
