data_PCOD8319833
_publ_section_title
;
Structure prediction by ZEFSAII (Michael W. Deem and Ramdas Pophale) SiO2 
 PCOD8319833
Probable space group: I 4/M M M
;
_chemical_formula_sum "Si O2"
_cell_formula_units_Z 160
_cell_length_a 20.246644
_cell_length_b 20.246644
_cell_length_c 20.521820
_cell_angle_alpha 90.000000
_cell_angle_beta 90.000000
_cell_angle_gamma 90.000000
_cell_volume 8412.439760
_symmetry_space_group_name_H-M "I 4/M M M"
_symmetry_group_IT_number 139
_symmetry_cell_setting 'tetragonal'
loop_
_space_group_symop_operation_xyz
x,y,z
-y,x,z
-x,-y,z
y,-x,z
x,-y,-z
-x,y,-z
y,x,-z
-y,-x,-z
-x,-y,-z
y,-x,-z
x,y,-z
-y,x,-z
-x,y,z
x,-y,z
-y,-x,z
y,x,z
1/2+x,1/2+y,1/2+z
1/2-y,1/2+x,1/2+z
1/2-x,1/2-y,1/2+z
1/2+y,1/2-x,1/2+z
1/2+x,1/2-y,1/2-z
1/2-x,1/2+y,1/2-z
1/2+y,1/2+x,1/2-z
1/2-y,1/2-x,1/2-z
1/2-x,1/2-y,1/2-z
1/2+y,1/2-x,1/2-z
1/2+x,1/2+y,1/2-z
1/2-y,1/2+x,1/2-z
1/2-x,1/2+y,1/2+z
1/2+x,1/2-y,1/2+z
1/2-y,1/2-x,1/2+z
1/2+y,1/2+x,1/2+z
loop_
_atom_site_type_symbol
_atom_site_label
_atom_site_fract_x
_atom_site_fract_y
_atom_site_fract_z
Si Si1 0.795236 0.423566 0.619739
Si Si2 0.575550 0.685577 0.134777
Si Si3 0.378930 0.268600 0.000000
Si Si4 0.748159 0.358416 0.255065
Si Si5 0.274060 0.163803 0.000000
Si Si6 0.427934 0.922089 0.178220
O O1 0.788535 0.500000 0.601314
O O2 0.757500 0.410984 0.687337
O O3 0.763046 0.380621 0.563361
O O4 0.872629 0.402218 0.625776
O O5 0.500000 0.666644 0.150905
O O6 0.618550 0.618550 0.135882
O O7 0.577469 0.720740 0.064426
O O8 0.602887 0.738603 0.187032
O O9 0.319476 0.319476 0.000000
O O10 0.347023 0.195670 0.000000
O O11 0.682790 0.317211 0.271656
O O12 0.810422 0.310422 0.250000
O O13 0.218725 0.218725 0.000000
O O14 0.500000 0.890011 0.161490
O O15 0.401132 0.901132 0.250000
O O16 0.436323 0.000000 0.180374
#
# Coordination Sequence:
#
# PCOD8319833 Si02
#       6
#    32  32  16  32  16  32
#     4  11  21  34  54  79 105 134 176 224 268 319
#     4  10  20  35  56  82 112 143 176 217 265 320
#     4   9  19  36  55  74 103 143 180 212 252 309
#     4  10  20  35  55  79 108 143 182 222 264 309
#     4  11  23  40  56  70  97 137 177 222 278 325
#     4   8  15  29  48  71 103 139 166 193 238 296
#
# _framework density 19.019452999999999
#
# number of rings (size 3 to 8) (size 9 to 14) (size 15 to 20)
#    0.000    2.200    0.000    4.200    0.000    3.400 
#    0.000    7.500    0.000    4.200    0.000    0.000 
#    0.000   15.200    0.000    0.000    0.000    0.000 
#
# Total GULP energy -991827.622988 kJ/mol
# GULP energy per Si atom -12397.845287 kJ/mol
# Density = 1.897616 g / cm^3
# Si number density = 19.019453 Si / 1000 Ang^3
#
#
#
# Elastic Constant Matrix: (Units=GPa)
#
#
# Indices 1 2 3 4 5 6 
#
# 1 88.9657 39.6611 50.2302 0.0000 0.0000 0.0000
# 2 39.6611 88.9657 50.2302 0.0000 0.0000 0.0000
# 3 50.2302 50.2302 126.6339 0.0000 0.0000 0.0000
# 4 0.0000 0.0000 0.0000 25.2002 0.0000 0.0000
# 5 0.0000 0.0000 0.0000 0.0000 25.2002 0.0000
# 6 0.0000 0.0000 0.0000 0.0000 0.0000 21.9431
#
#
#
# Elastic Compliance Matrix: (Units=1/GPa)
#
#
# Indices 1 2 3 4 5 6 
#
# 1 0.015773 -0.004509 -0.004468 0.000000 0.000000 0.000000
# 2 -0.004509 0.015773 -0.004468 0.000000 0.000000 0.000000
# 3 -0.004468 -0.004468 0.011441 0.000000 0.000000 0.000000
# 4 0.000000 0.000000 0.000000 0.039682 0.000000 0.000000
# 5 0.000000 0.000000 0.000000 0.000000 0.039682 0.000000
# 6 0.000000 0.000000 0.000000 0.000000 0.000000 0.045572
#
#
# Mechanical properties :
#
#
# Convention : Reuss Voigt Hill
#
# Bulk Modulus (GPa) = 62.12152 64.97869 63.55011
# Shear Modulus (GPa) = 24.97756 25.43164 25.20460
#
# Velocity S-wave (km/s) = 3.62783 3.66066 3.64428
# Velocity P-wave (km/s) = 7.09092 7.21843 7.15496
#
# Compressibility (1/GPa) = 0.01609748
#
# Stress axis : x y z
#
# Youngs Moduli (GPa) = 63.39940 63.39940 87.40298
#
# Poissons Ratio (x) = 0.28587 0.39051
# Poissons Ratio (y) = 0.28587 0.39051
# Poissons Ratio (z) = 0.28326 0.28326
#
# Static dielectric constant tensor:
#      x y z
#    x 3.477410 0.000000 0.000000 
#    y 0.000000 3.477410 0.000000 
#    z 0.000000 0.000000 3.502670 
# 
# 
# High freq. dielectric constant tensor:
#      x y z
#    x 1.733020 0.000000 0.000000 
#    y 0.000000 1.733020 0.000000 
#    z 0.000000 0.000000 1.735360 
# 
# From -- ./inp_files/8466.got.cif
#   From: 2010.03.12/outbox.cif.g09.slc.cpg/sg139_5_cif.got.tgz:8466.got - 2010.04.08 09:46:31.
