data_PCOD8319577
_publ_section_title
;
Structure prediction by ZEFSAII (Michael W. Deem and Ramdas Pophale) SiO2 
 PCOD8319577
Probable space group: I 4/M M M
;
_chemical_formula_sum "Si O2"
_cell_formula_units_Z 160
_cell_length_a 22.695279
_cell_length_b 22.695279
_cell_length_c 16.447892
_cell_angle_alpha 90.000000
_cell_angle_beta 90.000000
_cell_angle_gamma 90.000000
_cell_volume 8471.909303
_symmetry_space_group_name_H-M "I 4/M M M"
_symmetry_group_IT_number 139
_symmetry_cell_setting 'tetragonal'
loop_
_space_group_symop_operation_xyz
x,y,z
-y,x,z
-x,-y,z
y,-x,z
x,-y,-z
-x,y,-z
y,x,-z
-y,-x,-z
-x,-y,-z
y,-x,-z
x,y,-z
-y,x,-z
-x,y,z
x,-y,z
-y,-x,z
y,x,z
1/2+x,1/2+y,1/2+z
1/2-y,1/2+x,1/2+z
1/2-x,1/2-y,1/2+z
1/2+y,1/2-x,1/2+z
1/2+x,1/2-y,1/2-z
1/2-x,1/2+y,1/2-z
1/2+y,1/2+x,1/2-z
1/2-y,1/2-x,1/2-z
1/2-x,1/2-y,1/2-z
1/2+y,1/2-x,1/2-z
1/2+x,1/2+y,1/2-z
1/2-y,1/2+x,1/2-z
1/2-x,1/2+y,1/2+z
1/2+x,1/2-y,1/2+z
1/2-y,1/2-x,1/2+z
1/2+y,1/2+x,1/2+z
loop_
_atom_site_type_symbol
_atom_site_label
_atom_site_fract_x
_atom_site_fract_y
_atom_site_fract_z
Si Si1 0.279220 0.815376 0.660453
Si Si2 0.402983 0.066096 0.841567
Si Si3 0.434670 0.342615 0.596747
Si Si4 0.565400 0.811846 0.093590
Si Si5 0.102142 0.284241 0.906659
O O1 0.215976 0.784025 0.645586
O O2 0.302979 0.802979 0.750000
O O3 0.276193 0.886103 0.646698
O O4 0.326985 0.789361 0.597537
O O5 0.421723 0.078278 0.750000
O O6 0.430739 0.116953 0.897714
O O7 0.332348 0.069915 0.850513
O O8 0.424022 0.000000 0.866605
O O9 0.430147 0.342904 0.500000
O O10 0.500000 0.359061 0.626161
O O11 0.390528 0.390528 0.634982
O O12 0.417120 0.278481 0.629317
O O13 0.500000 0.791570 0.121025
O O14 0.576416 0.796221 0.000000
O O15 0.081947 0.292198 0.000000
#
# Coordination Sequence:
#
# PCOD8319577 Si02
#       5
#    32  32  32  32  32
#     4  10  20  34  53  76 101 129 164 207 253 301
#     4  11  22  34  49  69  95 130 169 206 247 295
#     4   9  17  28  43  65  92 121 153 190 234 285
#     4  10  21  35  51  73 101 133 169 209 251 297
#     4  10  19  32  51  72  95 124 162 209 252 289
#
# _framework density 18.885943999999999
#
# number of rings (size 3 to 8) (size 9 to 14) (size 15 to 20)
#    0.000    2.000    0.000    6.600    0.000    6.400 
#    0.000    3.000    0.000    0.000    0.000    0.000 
#    0.000    0.400    0.000    2.200    0.000    0.000 
#
# Total GULP energy -991659.006615 kJ/mol
# GULP energy per Si atom -12395.737583 kJ/mol
# Density = 1.884296 g / cm^3
# Si number density = 18.885944 Si / 1000 Ang^3
#
#
#
# Elastic Constant Matrix: (Units=GPa)
#
#
# Indices 1 2 3 4 5 6 
#
# 1 119.8147 61.4327 23.6836 0.0000 0.0000 0.0000
# 2 61.4327 119.8151 23.6841 0.0000 0.0000 0.0000
# 3 23.6836 23.6841 39.1711 0.0000 0.0000 0.0000
# 4 0.0000 0.0000 0.0000 21.0158 0.0000 0.0000
# 5 0.0000 0.0000 0.0000 0.0000 21.0156 0.0000
# 6 0.0000 0.0000 0.0000 0.0000 0.0000 12.8011
#
#
#
# Elastic Compliance Matrix: (Units=1/GPa)
#
#
# Indices 1 2 3 4 5 6 
#
# 1 0.011841 -0.005288 -0.003962 0.000000 0.000000 0.000000
# 2 -0.005288 0.011841 -0.003962 0.000000 0.000000 0.000000
# 3 -0.003962 -0.003962 0.030320 0.000000 0.000000 0.000000
# 4 0.000000 0.000000 0.000000 0.047583 0.000000 0.000000
# 5 0.000000 0.000000 0.000000 0.000000 0.047584 0.000000
# 6 0.000000 0.000000 0.000000 0.000000 0.000000 0.078118
#
#
# Mechanical properties :
#
#
# Convention : Reuss Voigt Hill
#
# Bulk Modulus (GPa) = 36.26122 55.15575 45.70848
# Shear Modulus (GPa) = 19.01846 22.29987 20.65916
#
# Velocity S-wave (km/s) = 3.17680 3.43995 3.31099
# Velocity P-wave (km/s) = 5.71820 6.71161 6.23473
#
# Compressibility (1/GPa) = 0.02757767
#
# Stress axis : x y z
#
# Youngs Moduli (GPa) = 84.45501 84.45492 32.98152
#
# Poissons Ratio (x) = 0.44659 0.13067
# Poissons Ratio (y) = 0.44659 0.13067
# Poissons Ratio (z) = 0.33460 0.33461
#
# Static dielectric constant tensor:
#      x y z
#    x 3.595450 0.000000 0.000000 
#    y 0.000000 3.595450 0.000000 
#    z 0.000000 0.000000 3.235780 
# 
# 
# High freq. dielectric constant tensor:
#      x y z
#    x 1.725350 0.000000 0.000000 
#    y 0.000000 1.725350 0.000000 
#    z 0.000000 0.000000 1.707090 
# 
# From -- ./inp_files/5895.got.cif
#   From: 2010.03.12/outbox.cif.g09.slc.cpg/sg139_3_cif.got.tgz:5895.got - 2010.04.08 09:46:31.
