data_PCOD8319497
_publ_section_title
;
Structure prediction by ZEFSAII (Michael W. Deem and Ramdas Pophale) SiO2 
 PCOD8319497
Probable space group: I 4/M M M
;
_chemical_formula_sum "Si O2"
_cell_formula_units_Z 176
_cell_length_a 19.554139
_cell_length_b 19.554139
_cell_length_c 26.509544
_cell_angle_alpha 90.000000
_cell_angle_beta 90.000000
_cell_angle_gamma 90.000000
_cell_volume 10136.304614
_symmetry_space_group_name_H-M "I 4/M M M"
_symmetry_group_IT_number 139
_symmetry_cell_setting 'tetragonal'
loop_
_space_group_symop_operation_xyz
x,y,z
-y,x,z
-x,-y,z
y,-x,z
x,-y,-z
-x,y,-z
y,x,-z
-y,-x,-z
-x,-y,-z
y,-x,-z
x,y,-z
-y,x,-z
-x,y,z
x,-y,z
-y,-x,z
y,x,z
1/2+x,1/2+y,1/2+z
1/2-y,1/2+x,1/2+z
1/2-x,1/2-y,1/2+z
1/2+y,1/2-x,1/2+z
1/2+x,1/2-y,1/2-z
1/2-x,1/2+y,1/2-z
1/2+y,1/2+x,1/2-z
1/2-y,1/2-x,1/2-z
1/2-x,1/2-y,1/2-z
1/2+y,1/2-x,1/2-z
1/2+x,1/2+y,1/2-z
1/2-y,1/2+x,1/2-z
1/2-x,1/2+y,1/2+z
1/2+x,1/2-y,1/2+z
1/2-y,1/2-x,1/2+z
1/2+y,1/2+x,1/2+z
loop_
_atom_site_type_symbol
_atom_site_label
_atom_site_fract_x
_atom_site_fract_y
_atom_site_fract_z
Si Si1 0.820610 0.709517 0.194438
Si Si2 0.313774 0.576617 0.345869
Si Si3 0.878575 0.669070 0.402108
Si Si4 0.422664 0.687268 0.058633
Si Si5 0.500000 0.081319 0.940869
Si Si6 0.628291 0.739779 0.444393
O O1 0.749293 0.749293 0.183146
O O2 0.821984 0.678017 0.250000
O O3 0.883016 0.762827 0.190922
O O4 0.831942 0.647959 0.155385
O O5 0.322682 0.500000 0.325563
O O6 0.387993 0.612008 0.346604
O O7 0.281754 0.573446 0.402328
O O8 0.909432 0.743414 0.411457
O O9 0.817669 0.651978 0.440361
O O10 0.934566 0.610867 0.411760
O O11 0.500000 0.662528 0.068951
O O12 0.372211 0.627790 0.078105
O O13 0.410729 0.702379 0.000000
O O14 0.500000 0.000000 0.935599
O O15 0.500000 0.103472 0.000000
O O16 0.596970 0.726911 0.500000
O O17 0.696515 0.696515 0.434677
#
# Coordination Sequence:
#
# PCOD8319497 Si02
#       6
#    32  32  32  32  16  32
#     4   9  19  37  59  81 102 129 174 229 277 317
#     4   9  18  32  50  76 106 137 171 210 257 313
#     4  11  19  33  54  75 102 135 177 220 270 321
#     4  10  19  30  47  72 103 139 175 213 258 311
#     4  11  24  38  52  74 111 151 183 217 264 330
#     4   9  17  29  49  76 102 131 174 224 262 299
#
# _framework density 17.363329
#
# number of rings (size 3 to 8) (size 9 to 14) (size 15 to 20)
#    0.000    2.273    0.909    4.364    0.000    5.091 
#    1.636    0.909    0.000    0.000    0.000    2.545 
#    0.000    4.364    0.000    0.000    0.000    0.000 
#
# Total GULP energy -1091139.913913 kJ/mol
# GULP energy per Si atom -12399.317204 kJ/mol
# Density = 1.732381 g / cm^3
# Si number density = 17.363329 Si / 1000 Ang^3
#
#
#
# Elastic Constant Matrix: (Units=GPa)
#
#
# Indices 1 2 3 4 5 6 
#
# 1 109.7059 41.7375 36.1521 0.0000 0.0000 0.0000
# 2 41.7375 109.7064 36.1524 0.0000 0.0000 0.0000
# 3 36.1521 36.1524 101.2875 0.0000 0.0000 0.0000
# 4 0.0000 0.0000 0.0000 17.0540 0.0000 0.0000
# 5 0.0000 0.0000 0.0000 0.0000 17.0538 0.0000
# 6 0.0000 0.0000 0.0000 0.0000 0.0000 17.4998
#
#
#
# Elastic Compliance Matrix: (Units=1/GPa)
#
#
# Indices 1 2 3 4 5 6 
#
# 1 0.011336 -0.003377 -0.002841 0.000000 0.000000 0.000000
# 2 -0.003377 0.011336 -0.002841 0.000000 0.000000 0.000000
# 3 -0.002841 -0.002841 0.011901 0.000000 0.000000 0.000000
# 4 0.000000 0.000000 0.000000 0.058637 0.000000 0.000000
# 5 0.000000 0.000000 0.000000 0.000000 0.058638 0.000000
# 6 0.000000 0.000000 0.000000 0.000000 0.000000 0.057144
#
#
# Mechanical properties :
#
#
# Convention : Reuss Voigt Hill
#
# Bulk Modulus (GPa) = 60.76790 60.97600 60.87195
# Shear Modulus (GPa) = 21.49666 24.09870 22.79768
#
# Velocity S-wave (km/s) = 3.52241 3.72951 3.62744
# Velocity P-wave (km/s) = 7.18450 7.33073 7.25798
#
# Compressibility (1/GPa) = 0.01645606
#
# Stress axis : x y z
#
# Youngs Moduli (GPa) = 88.21379 88.21407 84.02717
#
# Poissons Ratio (x) = 0.29786 0.23872
# Poissons Ratio (y) = 0.29786 0.23872
# Poissons Ratio (z) = 0.25061 0.25061
#
# Static dielectric constant tensor:
#      x y z
#    x 3.173370 0.000000 0.000000 
#    y 0.000000 3.173370 0.000000 
#    z 0.000000 0.000000 3.131890 
# 
# 
# High freq. dielectric constant tensor:
#      x y z
#    x 1.667310 0.000000 0.000000 
#    y 0.000000 1.667310 0.000000 
#    z 0.000000 0.000000 1.652010 
# 
# From -- ./inp_files/13082.got.cif
#   From: 2010.03.12/outbox.cif.g09.slc.cpg/sg139_7_cif.got.tgz:13082.got - 2010.04.08 09:46:31.
