data_PCOD8319928
_publ_section_title
;
Structure prediction by ZEFSAII (Michael W. Deem and Ramdas Pophale) SiO2 
 PCOD8319928
Probable space group: I 4/M M M
;
_chemical_formula_sum "Si O2"
_cell_formula_units_Z 160
_cell_length_a 20.519976
_cell_length_b 20.519976
_cell_length_c 17.845128
_cell_angle_alpha 90.000000
_cell_angle_beta 90.000000
_cell_angle_gamma 90.000000
_cell_volume 7514.037608
_symmetry_space_group_name_H-M "I 4/M M M"
_symmetry_group_IT_number 139
_symmetry_cell_setting 'tetragonal'
loop_
_space_group_symop_operation_xyz
x,y,z
-y,x,z
-x,-y,z
y,-x,z
x,-y,-z
-x,y,-z
y,x,-z
-y,-x,-z
-x,-y,-z
y,-x,-z
x,y,-z
-y,x,-z
-x,y,z
x,-y,z
-y,-x,z
y,x,z
1/2+x,1/2+y,1/2+z
1/2-y,1/2+x,1/2+z
1/2-x,1/2-y,1/2+z
1/2+y,1/2-x,1/2+z
1/2+x,1/2-y,1/2-z
1/2-x,1/2+y,1/2-z
1/2+y,1/2+x,1/2-z
1/2-y,1/2-x,1/2-z
1/2-x,1/2-y,1/2-z
1/2+y,1/2-x,1/2-z
1/2+x,1/2+y,1/2-z
1/2-y,1/2+x,1/2-z
1/2-x,1/2+y,1/2+z
1/2+x,1/2-y,1/2+z
1/2-y,1/2-x,1/2+z
1/2+y,1/2+x,1/2+z
loop_
_atom_site_type_symbol
_atom_site_label
_atom_site_fract_x
_atom_site_fract_y
_atom_site_fract_z
Si Si1 0.799833 0.620532 0.585458
Si Si2 0.753199 0.246802 0.161312
Si Si3 0.846500 0.153501 0.410789
Si Si4 0.076476 0.373394 0.325421
Si Si5 0.226377 0.925396 0.303764
Si Si6 0.823086 0.073000 0.145617
O O1 0.809103 0.641833 0.500000
O O2 0.766227 0.676295 0.633942
O O3 0.871634 0.597532 0.614385
O O4 0.743174 0.566272 0.595314
O O5 0.750000 0.250000 0.250000
O O6 0.703925 0.296076 0.123074
O O7 0.850219 0.149782 0.500000
O O8 0.821311 0.085450 0.375723
O O9 0.084947 0.415054 0.250000
O O10 0.102603 0.299212 0.315833
O O11 0.000000 0.378357 0.351523
O O12 0.194257 0.898234 0.228211
O O13 0.238507 0.000000 0.291565
O O14 0.878141 0.121860 0.111715
O O15 0.852883 0.000000 0.150442
#
# Coordination Sequence:
#
# PCOD8319928 Si02
#       6
#    32  16  16  32  32  32
#     4  12  24  39  63  96 132 168 209 263 327 388
#     4  12  22  36  60  90 125 168 213 263 316 379
#     4  12  22  34  58  93 127 162 207 265 326 379
#     4  11  23  40  64  93 129 172 217 263 312 377
#     4  10  21  37  59  88 123 169 215 258 314 378
#     4  11  23  41  67  95 127 168 217 267 319 381
#
# _framework density 21.293478
#
# number of rings (size 3 to 8) (size 9 to 14) (size 15 to 20)
#    0.000    0.800    6.000    2.700    0.000    1.600 
#    0.000    2.000    0.000    0.300    0.000    4.900 
#    0.000    0.000    0.000    0.000    0.000    0.000 
#
# Total GULP energy -991158.779715 kJ/mol
# GULP energy per Si atom -12389.484746 kJ/mol
# Density = 2.124501 g / cm^3
# Si number density = 21.293478 Si / 1000 Ang^3
#
#
#
# Elastic Constant Matrix: (Units=GPa)
#
#
# Indices 1 2 3 4 5 6 
#
# 1 124.1122 6.7850 29.0021 0.0000 0.0000 0.0000
# 2 6.7850 124.1141 29.0045 0.0000 0.0000 0.0000
# 3 29.0021 29.0045 132.6396 0.0000 0.0000 0.0000
# 4 0.0000 0.0000 0.0000 16.8194 0.0000 0.0000
# 5 0.0000 0.0000 0.0000 0.0000 16.8194 0.0000
# 6 0.0000 0.0000 0.0000 0.0000 0.0000 19.4301
#
#
#
# Elastic Compliance Matrix: (Units=1/GPa)
#
#
# Indices 1 2 3 4 5 6 
#
# 1 0.008491 -0.000032 -0.001850 0.000000 0.000000 0.000000
# 2 -0.000032 0.008491 -0.001850 0.000000 0.000000 0.000000
# 3 -0.001850 -0.001850 0.008348 0.000000 0.000000 0.000000
# 4 0.000000 0.000000 0.000000 0.059455 0.000000 0.000000
# 5 0.000000 0.000000 0.000000 0.000000 0.059455 0.000000
# 6 0.000000 0.000000 0.000000 0.000000 0.000000 0.051467
#
#
# Mechanical properties :
#
#
# Convention : Reuss Voigt Hill
#
# Bulk Modulus (GPa) = 55.96683 56.71658 56.34170
# Shear Modulus (GPa) = 23.90903 31.68540 27.79721
#
# Velocity S-wave (km/s) = 3.35451 3.86169 3.61700
# Velocity P-wave (km/s) = 6.42995 6.82473 6.63028
#
# Compressibility (1/GPa) = 0.01786773
#
# Stress axis : x y z
#
# Youngs Moduli (GPa) = 117.76916 117.77001 119.78700
#
# Poissons Ratio (x) = 0.00376 0.22156
# Poissons Ratio (y) = 0.00376 0.22158
# Poissons Ratio (z) = 0.21783 0.21785
#
# Static dielectric constant tensor:
#      x y z
#    x 2.570230 0.000000 0.000000 
#    y 0.000000 2.570200 0.000000 
#    z 0.000000 0.000000 3.605390 
# 
# 
# High freq. dielectric constant tensor:
#      x y z
#    x 1.834850 0.000000 0.000000 
#    y 0.000000 1.834850 0.000000 
#    z 0.000000 0.000000 1.815830 
# 
# From -- ./inp_files/8436.got.cif
#   From: 2010.03.12/outbox.cif.g09.slc.cpg/sg139_5_cif.got.tgz:8436.got - 2010.04.08 09:46:31.
