data_PCOD8319204
_publ_section_title
;
Structure prediction by ZEFSAII (Michael W. Deem and Ramdas Pophale) SiO2 
 PCOD8319204
Probable space group: P 42/N C M
;
_chemical_formula_sum "Si O2"
_cell_formula_units_Z 48
_cell_length_a 12.839265
_cell_length_b 12.839265
_cell_length_c 13.591680
_cell_angle_alpha 90.000000
_cell_angle_beta 90.000000
_cell_angle_gamma 90.000000
_cell_volume 2240.543945
_symmetry_space_group_name_H-M "P 42/N C M"
_symmetry_group_IT_number 138
_space_group.IT_coordinate_system_code '2'
_symmetry_cell_setting 'tetragonal'
loop_
_space_group_symop_operation_xyz
x,y,z
1/2-y,x,1/2+z
1/2-x,1/2-y,z
y,1/2-x,1/2+z
1/2+x,-y,1/2-z
-x,1/2+y,1/2-z
1/2+y,1/2+x,-z
-y,-x,-z
-x,-y,-z
1/2+y,-x,1/2-z
1/2+x,1/2+y,-z
-y,1/2+x,1/2-z
1/2-x,y,1/2+z
x,1/2-y,1/2+z
1/2-y,1/2-x,z
y,x,z
loop_
_atom_site_type_symbol
_atom_site_label
_atom_site_fract_x
_atom_site_fract_y
_atom_site_fract_z
Si Si1 0.334551 0.660069 0.388028
Si Si2 0.510413 0.211601 0.723527
Si Si3 0.493935 0.006066 0.382636
Si Si4 0.327900 0.327900 0.803249
O O1 0.250000 0.750000 0.376147
O O2 0.363212 0.636789 0.500000
O O3 0.294805 0.556104 0.334516
O O4 0.439115 0.694229 0.335301
O O5 0.391663 0.246793 0.734767
O O6 0.533875 0.105895 0.663246
O O7 0.405895 0.094106 0.360995
O O8 0.500000 0.000000 0.500000
O O9 0.250000 0.250000 0.866682
#
# Coordination Sequence:
#
# PCOD8319204 Si02
#       4
#    16  16   8   8
#     4  11  22  39  70 102 134 182 242 292 356 436
#     4  12  23  46  68 101 143 187 238 302 359 431
#     4  12  28  47  74 104 147 196 239 299 374 432
#     4  12  26  48  71 101 144 188 234 303 361 426
#
# _framework density 21.423369999999998
#
# number of rings (size 3 to 8) (size 9 to 14) (size 15 to 20)
#    0.000    0.333    8.333    0.000    9.333    0.000 
#    3.000    3.333    0.000    0.000    0.000    0.000 
#    0.000    0.000    0.000    0.000    0.000    0.000 
#
# Total GULP energy -594761.749731 kJ/mol
# GULP energy per Si atom -12390.869786 kJ/mol
# Density = 2.137461 g / cm^3
# Si number density = 21.423370 Si / 1000 Ang^3
#
#
#
# Elastic Constant Matrix: (Units=GPa)
#
#
# Indices 1 2 3 4 5 6 
#
# 1 41.9238 139.8803 53.8538 0.0000 0.0000 0.0000
# 2 139.8803 41.9234 53.8518 0.0000 0.0000 0.0000
# 3 53.8538 53.8518 167.7668 0.0000 0.0000 0.0000
# 4 0.0000 0.0000 0.0000 -28.8253 0.0000 0.0000
# 5 0.0000 0.0000 0.0000 0.0000 -28.8343 0.0000
# 6 0.0000 0.0000 0.0000 0.0000 0.0000 56.4061
#
#
#
# Elastic Compliance Matrix: (Units=1/GPa)
#
#
# Indices 1 2 3 4 5 6 
#
# 1 -0.001708 0.008500 -0.002180 0.000000 0.000000 0.000000
# 2 0.008500 -0.001708 -0.002180 0.000000 0.000000 0.000000
# 3 -0.002180 -0.002180 0.007360 0.000000 0.000000 0.000000
# 4 0.000000 0.000000 0.000000 -0.034692 0.000000 0.000000
# 5 0.000000 0.000000 0.000000 0.000000 -0.034681 0.000000
# 6 0.000000 0.000000 0.000000 0.000000 0.000000 0.017729
#
#
# Mechanical properties :
#
#
# Convention : Reuss Voigt Hill
#
# Bulk Modulus (GPa) = 81.80942 82.97621 82.39281
# Shear Modulus (GPa) = -96.32921 0.01782 -48.15570
#
# Velocity S-wave (km/s) = -6.71284 0.09131 -4.74625
# Velocity P-wave (km/s) = 4.67044 6.23112 2.91666
#
# Compressibility (1/GPa) = 0.01222353
#
# Stress axis : x y z
#
# Youngs Moduli (GPa) = -585.37796 -585.40054 135.86294
#
# Poissons Ratio (x) = 4.97610 0.29620
# Poissons Ratio (y) = 4.97590 0.29622
# Poissons Ratio (z) = -1.27622 -1.27636
#
# Static dielectric constant tensor:
#      x y z
#    x 4.052310 0.000000 0.000000 
#    y 0.000000 4.052310 0.000000 
#    z 0.000000 0.000000 3.811330 
# 
# 
# High freq. dielectric constant tensor:
#      x y z
#    x 1.854550 0.000000 0.000000 
#    y 0.000000 1.854550 0.000000 
#    z 0.000000 0.000000 1.820270 
# 
# From -- ./inp_files/2434.got.cif
#   From: 2010.03.12/outbox.cif.g09.slc.cpg/sg138_2_cif.got.tgz:2434.got - 2010.04.08 09:41:05.
