data_PCOD8319802
_publ_section_title
;
Structure prediction by ZEFSAII (Michael W. Deem and Ramdas Pophale) SiO2 
 PCOD8319802
Probable space group: I 4/M M M
;
_chemical_formula_sum "Si O2"
_cell_formula_units_Z 176
_cell_length_a 24.432708
_cell_length_b 24.432708
_cell_length_c 15.029298
_cell_angle_alpha 90.000000
_cell_angle_beta 90.000000
_cell_angle_gamma 90.000000
_cell_volume 8971.847956
_symmetry_space_group_name_H-M "I 4/M M M"
_symmetry_group_IT_number 139
_symmetry_cell_setting 'tetragonal'
loop_
_space_group_symop_operation_xyz
x,y,z
-y,x,z
-x,-y,z
y,-x,z
x,-y,-z
-x,y,-z
y,x,-z
-y,-x,-z
-x,-y,-z
y,-x,-z
x,y,-z
-y,x,-z
-x,y,z
x,-y,z
-y,-x,z
y,x,z
1/2+x,1/2+y,1/2+z
1/2-y,1/2+x,1/2+z
1/2-x,1/2-y,1/2+z
1/2+y,1/2-x,1/2+z
1/2+x,1/2-y,1/2-z
1/2-x,1/2+y,1/2-z
1/2+y,1/2+x,1/2-z
1/2-y,1/2-x,1/2-z
1/2-x,1/2-y,1/2-z
1/2+y,1/2-x,1/2-z
1/2+x,1/2+y,1/2-z
1/2-y,1/2+x,1/2-z
1/2-x,1/2+y,1/2+z
1/2+x,1/2-y,1/2+z
1/2-y,1/2-x,1/2+z
1/2+y,1/2+x,1/2+z
loop_
_atom_site_type_symbol
_atom_site_label
_atom_site_fract_x
_atom_site_fract_y
_atom_site_fract_z
Si Si1 0.254262 0.063260 0.398555
Si Si2 0.935484 0.500000 0.895127
Si Si3 0.798091 0.559628 0.598561
Si Si4 0.599175 0.684393 0.601859
Si Si5 0.350393 0.438280 0.784001
Si Si6 0.394868 0.871123 0.847364
O O1 0.235397 0.073963 0.500000
O O2 0.205819 0.081288 0.331958
O O3 0.309244 0.097655 0.380084
O O4 0.269384 0.000000 0.383358
O O5 0.906930 0.550845 0.848873
O O6 0.000000 0.500000 0.874891
O O7 0.923309 0.500000 0.000000
O O8 0.782663 0.543018 0.500000
O O9 0.804387 0.500000 0.649960
O O10 0.747582 0.596363 0.633645
O O11 0.852007 0.595890 0.593405
O O12 0.577449 0.674683 0.500000
O O13 0.661616 0.661616 0.608517
O O14 0.562923 0.653345 0.676071
O O15 0.364387 0.500000 0.813799
O O16 0.398802 0.398802 0.817639
O O17 0.369324 0.869324 0.750000
#
# Coordination Sequence:
#
# PCOD8319802 Si02
#       6
#    32  16  32  32  32  32
#     4  10  21  40  62  81 110 155 203 246 293 351
#     4  11  24  38  52  72 110 154 191 237 293 354
#     4  10  20  34  53  77 109 147 189 235 286 343
#     4   9  18  34  57  84 117 157 197 239 289 347
#     4  10  21  37  60  90 121 152 194 243 298 364
#     4  12  24  34  55  81 111 146 193 245 293 349
#
# _framework density 19.616917000000001
#
# number of rings (size 3 to 8) (size 9 to 14) (size 15 to 20)
#    0.000    1.727    0.909    3.818    2.545    4.545 
#    0.000    0.909    0.000    5.455    0.000    5.091 
#    0.000    0.000    0.000    0.000    0.000    0.000 
#
# Total GULP energy -1090276.056717 kJ/mol
# GULP energy per Si atom -12389.500645 kJ/mol
# Density = 1.957227 g / cm^3
# Si number density = 19.616917 Si / 1000 Ang^3
#
#
#
# Elastic Constant Matrix: (Units=GPa)
#
#
# Indices 1 2 3 4 5 6 
#
# 1 128.8660 83.8843 24.7167 0.0000 0.0000 0.0000
# 2 83.8843 128.8660 24.7167 0.0000 0.0000 0.0000
# 3 24.7167 24.7167 89.3342 0.0000 0.0000 0.0000
# 4 0.0000 0.0000 0.0000 19.3309 0.0000 0.0000
# 5 0.0000 0.0000 0.0000 0.0000 19.3309 0.0000
# 6 0.0000 0.0000 0.0000 0.0000 0.0000 29.9249
#
#
#
# Elastic Compliance Matrix: (Units=1/GPa)
#
#
# Indices 1 2 3 4 5 6 
#
# 1 0.013627 -0.008604 -0.001390 0.000000 0.000000 0.000000
# 2 -0.008604 0.013627 -0.001390 0.000000 0.000000 0.000000
# 3 -0.001390 -0.001390 0.011963 0.000000 0.000000 0.000000
# 4 0.000000 0.000000 0.000000 0.051731 0.000000 0.000000
# 5 0.000000 0.000000 0.000000 0.000000 0.051731 0.000000
# 6 0.000000 0.000000 0.000000 0.000000 0.000000 0.033417
#
#
# Mechanical properties :
#
#
# Convention : Reuss Voigt Hill
#
# Bulk Modulus (GPa) = 60.78938 68.18907 64.48923
# Shear Modulus (GPa) = 24.46821 27.96721 26.21771
#
# Velocity S-wave (km/s) = 3.53555 3.77990 3.65976
# Velocity P-wave (km/s) = 6.90813 7.34071 7.12770
#
# Compressibility (1/GPa) = 0.01645024
#
# Stress axis : x y z
#
# Youngs Moduli (GPa) = 73.38224 73.38224 83.59117
#
# Poissons Ratio (x) = 0.63138 0.11618
# Poissons Ratio (y) = 0.63138 0.11618
# Poissons Ratio (z) = 0.10199 0.10199
#
# Static dielectric constant tensor:
#      x y z
#    x 3.641160 0.000000 0.000000 
#    y 0.000000 3.641160 0.000000 
#    z 0.000000 0.000000 3.953050 
# 
# 
# High freq. dielectric constant tensor:
#      x y z
#    x 1.753400 0.000000 0.000000 
#    y 0.000000 1.753400 0.000000 
#    z 0.000000 0.000000 1.770840 
# 
# From -- ./inp_files/6104.got.cif
#   From: 2010.03.12/outbox.cif.g09.slc.cpg/sg139_4_cif.got.tgz:6104.got - 2010.04.08 09:46:31.
