data_PCOD8319113
_publ_section_title
;
Structure prediction by ZEFSAII (Michael W. Deem and Ramdas Pophale) SiO2 
 PCOD8319113
Probable space group: P 42/N C M
;
_chemical_formula_sum "Si O2"
_cell_formula_units_Z 88
_cell_length_a 11.323981
_cell_length_b 11.323981
_cell_length_c 32.394082
_cell_angle_alpha 90.000000
_cell_angle_beta 90.000000
_cell_angle_gamma 90.000000
_cell_volume 4153.975600
_symmetry_space_group_name_H-M "P 42/N C M"
_symmetry_group_IT_number 138
_space_group.IT_coordinate_system_code '2'
_symmetry_cell_setting 'tetragonal'
loop_
_space_group_symop_operation_xyz
x,y,z
1/2-y,x,1/2+z
1/2-x,1/2-y,z
y,1/2-x,1/2+z
1/2+x,-y,1/2-z
-x,1/2+y,1/2-z
1/2+y,1/2+x,-z
-y,-x,-z
-x,-y,-z
1/2+y,-x,1/2-z
1/2+x,1/2+y,-z
-y,1/2+x,1/2-z
1/2-x,y,1/2+z
x,1/2-y,1/2+z
1/2-y,1/2-x,z
y,x,z
loop_
_atom_site_type_symbol
_atom_site_label
_atom_site_fract_x
_atom_site_fract_y
_atom_site_fract_z
Si Si1 0.651681 0.848320 0.683833
Si Si2 0.570994 0.243307 0.017628
Si Si3 0.503421 0.187112 0.770502
Si Si4 0.944924 0.555077 0.604549
Si Si5 0.843537 0.843537 0.022254
Si Si6 0.218229 0.885833 0.110852
Si Si7 0.678856 0.480309 0.307535
O O1 0.750000 0.750000 0.690897
O O2 0.529732 0.808962 0.705922
O O3 0.632993 0.867008 0.635422
O O4 0.575584 0.231927 0.066751
O O5 0.617543 0.117543 0.000000
O O6 0.653187 0.346814 0.000000
O O7 0.437050 0.271176 0.005199
O O8 0.410480 0.089521 0.783899
O O9 0.497179 0.206930 0.721202
O O10 0.627513 0.140756 0.787832
O O11 0.911401 0.588600 0.558244
O O12 0.913458 0.419872 0.612511
O O13 0.750000 0.750000 0.040382
O O14 0.250000 0.750000 0.118834
O O15 0.283191 0.963774 0.145321
O O16 0.590587 0.590587 0.305165
#
# Coordination Sequence:
#
# PCOD8319113 Si02
#       7
#     8  16  16   8   8  16  16
#     4  10  21  41  61  83 126 171 210 262 332 391
#     4  11  21  45  72  95 134 188 231 282 348 412
#     4  10  23  42  63  87 124 175 214 267 338 398
#     4  12  24  40  67 103 134 176 230 283 342 409
#     4  12  25  42  70 109 143 182 235 290 354 431
#     4  12  25  42  69 101 132 176 231 285 341 413
#     4  11  26  42  63  97 133 168 222 283 331 407
#
# _framework density 21.184526000000002
#
# number of rings (size 3 to 8) (size 9 to 14) (size 15 to 20)
#    0.000    0.909    4.545    2.182    6.364    1.091 
#    0.000    4.545    0.000    0.000    0.000    0.000 
#    0.000    0.000    0.000    0.000    0.000    0.000 
#
# Total GULP energy -1091252.848688 kJ/mol
# GULP energy per Si atom -12400.600553 kJ/mol
# Density = 2.113631 g / cm^3
# Si number density = 21.184526 Si / 1000 Ang^3
#
#
#
# Elastic Constant Matrix: (Units=GPa)
#
#
# Indices 1 2 3 4 5 6 
#
# 1 73.4157 52.4930 23.1298 0.0000 0.0000 0.0000
# 2 52.4930 73.4155 23.1300 0.0000 0.0000 0.0000
# 3 23.1298 23.1300 154.7948 0.0000 0.0000 0.0000
# 4 0.0000 0.0000 0.0000 40.8195 0.0000 0.0000
# 5 0.0000 0.0000 0.0000 0.0000 40.8193 0.0000
# 6 0.0000 0.0000 0.0000 0.0000 0.0000 28.1096
#
#
#
# Elastic Compliance Matrix: (Units=1/GPa)
#
#
# Indices 1 2 3 4 5 6 
#
# 1 0.028099 -0.019696 -0.001256 0.000000 0.000000 0.000000
# 2 -0.019696 0.028099 -0.001256 0.000000 0.000000 0.000000
# 3 -0.001256 -0.001256 0.006835 0.000000 0.000000 0.000000
# 4 0.000000 0.000000 0.000000 0.024498 0.000000 0.000000
# 5 0.000000 0.000000 0.000000 0.000000 0.024498 0.000000
# 6 0.000000 0.000000 0.000000 0.000000 0.000000 0.035575
#
#
# Mechanical properties :
#
#
# Convention : Reuss Voigt Hill
#
# Bulk Modulus (GPa) = 53.70602 55.45908 54.58255
# Shear Modulus (GPa) = 25.22367 35.47456 30.34912
#
# Velocity S-wave (km/s) = 3.45434 4.09657 3.78909
# Velocity P-wave (km/s) = 6.42780 6.97221 6.70553
#
# Compressibility (1/GPa) = 0.01861989
#
# Stress axis : x y z
#
# Youngs Moduli (GPa) = 35.58805 35.58792 146.29674
#
# Poissons Ratio (x) = 0.70093 0.18370
# Poissons Ratio (y) = 0.70093 0.18371
# Poissons Ratio (z) = 0.04469 0.04469
#
# Static dielectric constant tensor:
#      x y z
#    x 3.879800 0.000000 0.000000 
#    y 0.000000 3.879810 0.000000 
#    z 0.000000 0.000000 3.894130 
# 
# 
# High freq. dielectric constant tensor:
#      x y z
#    x 1.829780 0.000000 0.000000 
#    y 0.000000 1.829780 0.000000 
#    z 0.000000 0.000000 1.840370 
# 
# From -- ./inp_files/8137.got.cif
#   From: 2010.03.12/outbox.cif.g09.slc.cpg/sg138_5_cif.got.tgz:8137.got - 2010.04.08 09:41:05.
