data_PCOD8319748
_publ_section_title
;
Structure prediction by ZEFSAII (Michael W. Deem and Ramdas Pophale) SiO2 
 PCOD8319748
Probable space group: I 4/M M M
;
_chemical_formula_sum "Si O2"
_cell_formula_units_Z 192
_cell_length_a 28.534170
_cell_length_b 28.534170
_cell_length_c 12.737400
_cell_angle_alpha 90.000000
_cell_angle_beta 90.000000
_cell_angle_gamma 90.000000
_cell_volume 10370.776529
_symmetry_space_group_name_H-M "I 4/M M M"
_symmetry_group_IT_number 139
_symmetry_cell_setting 'tetragonal'
loop_
_space_group_symop_operation_xyz
x,y,z
-y,x,z
-x,-y,z
y,-x,z
x,-y,-z
-x,y,-z
y,x,-z
-y,-x,-z
-x,-y,-z
y,-x,-z
x,y,-z
-y,x,-z
-x,y,z
x,-y,z
-y,-x,z
y,x,z
1/2+x,1/2+y,1/2+z
1/2-y,1/2+x,1/2+z
1/2-x,1/2-y,1/2+z
1/2+y,1/2-x,1/2+z
1/2+x,1/2-y,1/2-z
1/2-x,1/2+y,1/2-z
1/2+y,1/2+x,1/2-z
1/2-y,1/2-x,1/2-z
1/2-x,1/2-y,1/2-z
1/2+y,1/2-x,1/2-z
1/2+x,1/2+y,1/2-z
1/2-y,1/2+x,1/2-z
1/2-x,1/2+y,1/2+z
1/2+x,1/2-y,1/2+z
1/2-y,1/2-x,1/2+z
1/2+y,1/2+x,1/2+z
loop_
_atom_site_type_symbol
_atom_site_label
_atom_site_fract_x
_atom_site_fract_y
_atom_site_fract_z
Si Si1 0.248838 0.677352 0.797922
Si Si2 0.274346 0.555540 0.500000
Si Si3 0.947200 0.804584 0.617889
Si Si4 0.888935 0.184552 0.187479
Si Si5 0.555784 0.871827 0.721992
Si Si6 0.588872 0.794666 0.115879
Si Si7 0.668852 0.944826 0.000000
O O1 0.288852 0.711149 0.849848
O O2 0.207999 0.707999 0.750000
O O3 0.272501 0.646920 0.704982
O O4 0.225356 0.642089 0.880742
O O5 0.275215 0.500000 0.500000
O O6 0.301160 0.572703 0.397114
O O7 0.221445 0.575832 0.500000
O O8 0.929481 0.816725 0.500000
O O9 0.913942 0.829337 0.702713
O O10 0.946400 0.748419 0.635574
O O11 0.000000 0.822326 0.634075
O O12 0.860958 0.139043 0.147171
O O13 0.500000 0.874276 0.736440
O O14 0.577553 0.922448 0.750000
O O15 0.578568 0.833542 0.797884
O O16 0.571320 0.858977 0.603608
O O17 0.581221 0.816347 0.000000
O O18 0.673418 0.000000 0.000000
#
# Coordination Sequence:
#
# PCOD8319748 Si02
#       7
#    32  16  32  32  32  32  16
#     4   9  18  34  51  73 109 150 188 218 256 314
#     4  11  21  35  57  78 105 143 182 224 276 323
#     4   9  17  31  52  77 106 140 178 220 270 323
#     4  10  20  33  50  76 111 144 180 221 265 315
#     4  11  24  41  60  81 107 137 179 233 289 346
#     4  10  20  33  53  83 111 141 180 227 276 326
#     4   9  20  39  60  81 102 133 175 217 263 327
#
# _framework density 18.513559999999998
#
# number of rings (size 3 to 8) (size 9 to 14) (size 15 to 20)
#    0.000    2.167    0.000    3.750    1.167    3.167 
#    1.500    3.333    0.000    1.500    0.000    0.000 
#    0.000   13.667    0.000    7.333    0.000    0.333 
#
# Total GULP energy -1190122.177963 kJ/mol
# GULP energy per Si atom -12397.106020 kJ/mol
# Density = 1.847142 g / cm^3
# Si number density = 18.513560 Si / 1000 Ang^3
#
#
#
# Elastic Constant Matrix: (Units=GPa)
#
#
# Indices 1 2 3 4 5 6 
#
# 1 80.7891 46.1124 44.0595 0.0000 0.0000 0.0000
# 2 46.1124 80.7869 44.0586 0.0000 0.0000 0.0000
# 3 44.0595 44.0586 122.7281 0.0000 0.0000 0.0000
# 4 0.0000 0.0000 0.0000 22.3246 0.0000 0.0000
# 5 0.0000 0.0000 0.0000 0.0000 22.3246 0.0000
# 6 0.0000 0.0000 0.0000 0.0000 0.0000 26.4725
#
#
#
# Elastic Compliance Matrix: (Units=1/GPa)
#
#
# Indices 1 2 3 4 5 6 
#
# 1 0.019668 -0.009171 -0.003768 0.000000 0.000000 0.000000
# 2 -0.009171 0.019668 -0.003768 0.000000 0.000000 0.000000
# 3 -0.003768 -0.003768 0.010854 0.000000 0.000000 0.000000
# 4 0.000000 0.000000 0.000000 0.044794 0.000000 0.000000
# 5 0.000000 0.000000 0.000000 0.000000 0.044794 0.000000
# 6 0.000000 0.000000 0.000000 0.000000 0.000000 0.037775
#
#
# Mechanical properties :
#
#
# Convention : Reuss Voigt Hill
#
# Bulk Modulus (GPa) = 59.61563 61.41833 60.51698
# Shear Modulus (GPa) = 23.08847 24.22925 23.65886
#
# Velocity S-wave (km/s) = 3.53528 3.62156 3.57868
# Velocity P-wave (km/s) = 6.99537 7.12281 7.05938
#
# Compressibility (1/GPa) = 0.01677412
#
# Stress axis : x y z
#
# Youngs Moduli (GPa) = 50.84515 50.84385 92.13400
#
# Poissons Ratio (x) = 0.46628 0.34719
# Poissons Ratio (y) = 0.46630 0.34719
# Poissons Ratio (z) = 0.19160 0.19160
#
# Static dielectric constant tensor:
#      x y z
#    x 3.360020 0.000000 0.000000 
#    y 0.000000 3.360030 0.000000 
#    z 0.000000 0.000000 3.586200 
# 
# 
# High freq. dielectric constant tensor:
#      x y z
#    x 1.705230 0.000000 0.000000 
#    y 0.000000 1.705230 0.000000 
#    z 0.000000 0.000000 1.720690 
# 
# From -- ./inp_files/4302.got.cif
#   From: 2010.03.12/outbox.cif.g09.slc.cpg/sg139_3_cif.got.tgz:4302.got - 2010.04.08 09:46:31.
