data_PCOD8319864
_publ_section_title
;
Structure prediction by ZEFSAII (Michael W. Deem and Ramdas Pophale) SiO2 
 PCOD8319864
Probable space group: I 4/M M M
;
_chemical_formula_sum "Si O2"
_cell_formula_units_Z 160
_cell_length_a 32.288338
_cell_length_b 32.288338
_cell_length_c 7.989830
_cell_angle_alpha 90.000000
_cell_angle_beta 90.000000
_cell_angle_gamma 90.000000
_cell_volume 8329.691567
_symmetry_space_group_name_H-M "I 4/M M M"
_symmetry_group_IT_number 139
_symmetry_cell_setting 'tetragonal'
loop_
_space_group_symop_operation_xyz
x,y,z
-y,x,z
-x,-y,z
y,-x,z
x,-y,-z
-x,y,-z
y,x,-z
-y,-x,-z
-x,-y,-z
y,-x,-z
x,y,-z
-y,x,-z
-x,y,z
x,-y,z
-y,-x,z
y,x,z
1/2+x,1/2+y,1/2+z
1/2-y,1/2+x,1/2+z
1/2-x,1/2-y,1/2+z
1/2+y,1/2-x,1/2+z
1/2+x,1/2-y,1/2-z
1/2-x,1/2+y,1/2-z
1/2+y,1/2+x,1/2-z
1/2-y,1/2-x,1/2-z
1/2-x,1/2-y,1/2-z
1/2+y,1/2-x,1/2-z
1/2+x,1/2+y,1/2-z
1/2-y,1/2+x,1/2-z
1/2-x,1/2+y,1/2+z
1/2+x,1/2-y,1/2+z
1/2-y,1/2-x,1/2+z
1/2+y,1/2+x,1/2+z
loop_
_atom_site_type_symbol
_atom_site_label
_atom_site_fract_x
_atom_site_fract_y
_atom_site_fract_z
Si Si1 0.047409 0.388090 0.303146
Si Si2 0.283149 0.283149 0.803216
Si Si3 0.453025 0.384702 0.000000
Si Si4 0.765913 0.874333 0.692335
Si Si5 0.676895 0.111243 0.808153
Si Si6 0.654633 0.413079 0.311995
O O1 0.051476 0.382198 0.500000
O O2 0.069155 0.430846 0.250000
O O3 0.069181 0.348935 0.216741
O O4 0.000000 0.389974 0.243342
O O5 0.250000 0.250000 0.750000
O O6 0.327915 0.269435 0.732907
O O7 0.285011 0.285011 0.000000
O O8 0.445618 0.358296 0.830810
O O9 0.500000 0.399578 0.000000
O O10 0.425684 0.425684 0.000000
O O11 0.780092 0.875398 0.500000
O O12 0.719313 0.891254 0.705517
O O13 0.796662 0.903746 0.795683
O O14 0.650510 0.150510 0.750000
O O15 0.688563 0.116906 0.000000
O O16 0.646255 0.430744 0.500000
O O17 0.629462 0.370539 0.282459
#
# Coordination Sequence:
#
# PCOD8319864 Si02
#       6
#    32  16  16  32  32  32
#     4  10  21  38  60  84 109 140 179 226 286 352
#     4  10  22  32  48  76 114 154 198 253 294 337
#     4  10  22  41  66  94 128 158 196 246 297 359
#     4  11  20  35  56  80 114 157 203 248 296 346
#     4  11  22  36  54  79 111 151 195 239 293 352
#     4  10  20  36  61  90 120 161 205 245 296 351
#
# _framework density 19.208394999999999
#
# number of rings (size 3 to 8) (size 9 to 14) (size 15 to 20)
#    0.000    1.600    2.000    4.800    0.000    5.500 
#    0.000    2.000    0.000    2.400    0.000    2.800 
#    0.000    0.000    0.000    0.000    0.000    0.000 
#
# Total GULP energy -992225.505161 kJ/mol
# GULP energy per Si atom -12402.818815 kJ/mol
# Density = 1.916468 g / cm^3
# Si number density = 19.208395 Si / 1000 Ang^3
#
#
#
# Elastic Constant Matrix: (Units=GPa)
#
#
# Indices 1 2 3 4 5 6 
#
# 1 109.7842 47.9896 25.5408 0.0000 0.0000 0.0000
# 2 47.9896 109.7844 25.5490 0.0000 0.0000 0.0000
# 3 25.5408 25.5490 103.9715 0.0000 0.0000 0.0000
# 4 0.0000 0.0000 0.0000 23.6203 0.0000 0.0000
# 5 0.0000 0.0000 0.0000 0.0000 23.6207 0.0000
# 6 0.0000 0.0000 0.0000 0.0000 0.0000 14.9757
#
#
#
# Elastic Compliance Matrix: (Units=1/GPa)
#
#
# Indices 1 2 3 4 5 6 
#
# 1 0.011534 -0.004648 -0.001691 0.000000 0.000000 0.000000
# 2 -0.004648 0.011535 -0.001693 0.000000 0.000000 0.000000
# 3 -0.001691 -0.001693 0.010449 0.000000 0.000000 0.000000
# 4 0.000000 0.000000 0.000000 0.042336 0.000000 0.000000
# 5 0.000000 0.000000 0.000000 0.000000 0.042336 0.000000
# 6 0.000000 0.000000 0.000000 0.000000 0.000000 0.066775
#
#
# Mechanical properties :
#
#
# Convention : Reuss Voigt Hill
#
# Bulk Modulus (GPa) = 57.29325 57.96656 57.62991
# Shear Modulus (GPa) = 24.17245 27.40738 25.78991
#
# Velocity S-wave (km/s) = 3.55129 3.78146 3.66818
# Velocity P-wave (km/s) = 6.83429 7.02205 6.92880
#
# Compressibility (1/GPa) = 0.01745406
#
# Stress axis : x y z
#
# Youngs Moduli (GPa) = 86.69937 86.69611 95.69963
#
# Poissons Ratio (x) = 0.40299 0.16184
# Poissons Ratio (y) = 0.40300 0.16197
# Poissons Ratio (z) = 0.14662 0.14674
#
# Static dielectric constant tensor:
#      x y z
#    x 3.362360 0.000000 0.000000 
#    y 0.000000 3.362370 0.000000 
#    z 0.000000 0.000000 3.627610 
# 
# 
# High freq. dielectric constant tensor:
#      x y z
#    x 1.733740 0.000000 0.000000 
#    y 0.000000 1.733740 0.000000 
#    z 0.000000 0.000000 1.761780 
# 
# From -- ./inp_files/2194.got.cif
#   From: 2010.03.12/outbox.cif.g09.slc.cpg/sg139_2_cif.got.tgz:2194.got - 2010.04.08 09:46:31.
