data_PCOD8319550
_publ_section_title
;
Structure prediction by ZEFSAII (Michael W. Deem and Ramdas Pophale) SiO2 
 PCOD8319550
Probable space group: I 4/M M M
;
_chemical_formula_sum "Si O2"
_cell_formula_units_Z 136
_cell_length_a 17.649145
_cell_length_b 17.649145
_cell_length_c 25.454042
_cell_angle_alpha 90.000000
_cell_angle_beta 90.000000
_cell_angle_gamma 90.000000
_cell_volume 7928.738576
_symmetry_space_group_name_H-M "I 4/M M M"
_symmetry_group_IT_number 139
_symmetry_cell_setting 'tetragonal'
loop_
_space_group_symop_operation_xyz
x,y,z
-y,x,z
-x,-y,z
y,-x,z
x,-y,-z
-x,y,-z
y,x,-z
-y,-x,-z
-x,-y,-z
y,-x,-z
x,y,-z
-y,x,-z
-x,y,z
x,-y,z
-y,-x,z
y,x,z
1/2+x,1/2+y,1/2+z
1/2-y,1/2+x,1/2+z
1/2-x,1/2-y,1/2+z
1/2+y,1/2-x,1/2+z
1/2+x,1/2-y,1/2-z
1/2-x,1/2+y,1/2-z
1/2+y,1/2+x,1/2-z
1/2-y,1/2-x,1/2-z
1/2-x,1/2-y,1/2-z
1/2+y,1/2-x,1/2-z
1/2+x,1/2+y,1/2-z
1/2-y,1/2+x,1/2-z
1/2-x,1/2+y,1/2+z
1/2+x,1/2-y,1/2+z
1/2-y,1/2-x,1/2+z
1/2+y,1/2+x,1/2+z
loop_
_atom_site_type_symbol
_atom_site_label
_atom_site_fract_x
_atom_site_fract_y
_atom_site_fract_z
Si Si1 0.797699 0.202302 0.940593
Si Si2 0.701913 0.916638 0.352636
Si Si3 0.911293 0.088708 0.500000
Si Si4 0.128683 0.754433 0.753435
Si Si5 0.177978 0.177978 0.585691
Si Si6 0.286581 0.086782 0.133038
O O1 0.733430 0.266571 0.946209
O O2 0.765461 0.129668 0.909552
O O3 0.821251 0.178750 0.000000
O O4 0.725167 0.927744 0.291642
O O5 0.772989 0.876856 0.378728
O O6 0.625580 0.868993 0.362417
O O7 0.687691 0.000000 0.376576
O O8 0.874108 0.125893 0.550383
O O9 0.000000 0.106075 0.500000
O O10 0.159875 0.840126 0.744228
O O11 0.200617 0.700617 0.750000
O O12 0.088593 0.752676 0.810011
O O13 0.296734 0.000000 0.114730
#
# Coordination Sequence:
#
# PCOD8319550 Si02
#       6
#    16  32   8  32  16  32
#     4  10  20  36  57  75  96 133 182 226 262 305
#     4  10  19  31  52  79 109 140 169 207 253 308
#     4  11  22  34  50  72 100 132 168 215 264 300
#     4   9  15  29  50  75 103 134 173 209 247 302
#     4  10  19  35  52  74  98 134 181 211 247 300
#     4  10  20  33  53  79 106 135 171 214 263 320
#
# _framework density 17.152791000000001
#
# number of rings (size 3 to 8) (size 9 to 14) (size 15 to 20)
#    0.000    2.176    2.941    1.412    0.000    0.941 
#    0.000    0.000    0.000    4.588    0.000    5.765 
#    0.000    0.000    0.000    0.000    0.000    0.000 
#
# Total GULP energy -842774.584730 kJ/mol
# GULP energy per Si atom -12393.743893 kJ/mol
# Density = 1.711375 g / cm^3
# Si number density = 17.152791 Si / 1000 Ang^3
#
#
#
# Elastic Constant Matrix: (Units=GPa)
#
#
# Indices 1 2 3 4 5 6 
#
# 1 113.0220 63.2471 41.3262 0.0000 0.0000 0.0000
# 2 63.2471 113.0204 41.3260 0.0000 0.0000 0.0000
# 3 41.3262 41.3260 113.8844 0.0000 0.0000 0.0000
# 4 0.0000 0.0000 0.0000 967.4370 -0.0003 0.0000
# 5 0.0000 0.0000 0.0000 -0.0003 970.7311 0.0000
# 6 0.0000 0.0000 0.0000 0.0000 0.0000 17.1806
#
#
#
# Elastic Compliance Matrix: (Units=1/GPa)
#
#
# Indices 1 2 3 4 5 6 
#
# 1 0.013463 -0.006627 -0.002481 0.000000 0.000000 0.000000
# 2 -0.006627 0.013464 -0.002481 0.000000 0.000000 0.000000
# 3 -0.002481 -0.002481 0.010581 0.000000 0.000000 0.000000
# 4 0.000000 0.000000 0.000000 0.001034 0.000000 0.000000
# 5 0.000000 0.000000 0.000000 0.000000 0.001030 0.000000
# 6 0.000000 0.000000 0.000000 0.000000 0.000000 0.058205
#
#
# Mechanical properties :
#
#
# Convention : Reuss Voigt Hill
#
# Bulk Modulus (GPa) = 69.77894 70.19170 69.98532
# Shear Modulus (GPa) = 39.76719 404.00492 221.88605
#
# Velocity S-wave (km/s) = 4.82021 15.36374 11.38593
# Velocity P-wave (km/s) = 8.47044 18.86097 14.61993
#
# Compressibility (1/GPa) = 0.01433097
#
# Stress axis : x y z
#
# Youngs Moduli (GPa) = 74.27497 74.27390 94.50660
#
# Poissons Ratio (x) = 0.49223 0.23445
# Poissons Ratio (y) = 0.49223 0.23445
# Poissons Ratio (z) = 0.18426 0.18426
#
# Static dielectric constant tensor:
#      x y z
#    x 3.087570 0.000000 0.000000 
#    y 0.000000 3.087580 0.000000 
#    z 0.000000 0.000000 3.276850 
# 
# 
# High freq. dielectric constant tensor:
#      x y z
#    x 1.649400 0.000000 0.000000 
#    y 0.000000 1.649400 0.000000 
#    z 0.000000 0.000000 1.661990 
# 
# From -- ./inp_files/11546.got.cif
#   From: 2010.03.12/outbox.cif.g09.slc.cpg/sg139_6_cif.got.tgz:11546.got - 2010.04.08 09:46:31.
