data_PCOD8319766
_publ_section_title
;
Structure prediction by ZEFSAII (Michael W. Deem and Ramdas Pophale) SiO2 
 PCOD8319766
Probable space group: I 4/M M M
;
_chemical_formula_sum "Si O2"
_cell_formula_units_Z 144
_cell_length_a 17.773732
_cell_length_b 17.773732
_cell_length_c 24.134452
_cell_angle_alpha 90.000000
_cell_angle_beta 90.000000
_cell_angle_gamma 90.000000
_cell_volume 7624.207314
_symmetry_space_group_name_H-M "I 4/M M M"
_symmetry_group_IT_number 139
_symmetry_cell_setting 'tetragonal'
loop_
_space_group_symop_operation_xyz
x,y,z
-y,x,z
-x,-y,z
y,-x,z
x,-y,-z
-x,y,-z
y,x,-z
-y,-x,-z
-x,-y,-z
y,-x,-z
x,y,-z
-y,x,-z
-x,y,z
x,-y,z
-y,-x,z
y,x,z
1/2+x,1/2+y,1/2+z
1/2-y,1/2+x,1/2+z
1/2-x,1/2-y,1/2+z
1/2+y,1/2-x,1/2+z
1/2+x,1/2-y,1/2-z
1/2-x,1/2+y,1/2-z
1/2+y,1/2+x,1/2-z
1/2-y,1/2-x,1/2-z
1/2-x,1/2-y,1/2-z
1/2+y,1/2-x,1/2-z
1/2+x,1/2+y,1/2-z
1/2-y,1/2+x,1/2-z
1/2-x,1/2+y,1/2+z
1/2+x,1/2-y,1/2+z
1/2-y,1/2-x,1/2+z
1/2+y,1/2+x,1/2+z
loop_
_atom_site_type_symbol
_atom_site_label
_atom_site_fract_x
_atom_site_fract_y
_atom_site_fract_z
Si Si1 0.302466 0.417214 0.405141
Si Si2 0.707960 0.414674 0.278177
Si Si3 0.686954 0.805703 0.061513
Si Si4 0.367179 0.132822 0.750000
Si Si5 0.084724 0.412899 0.868206
O O1 0.302844 0.500000 0.429551
O O2 0.388252 0.388252 0.403900
O O3 0.268784 0.412249 0.342882
O O4 0.252764 0.366678 0.445161
O O5 0.690153 0.500000 0.259662
O O6 0.634561 0.365440 0.264791
O O7 0.778090 0.381760 0.244141
O O8 0.726991 0.726991 0.083229
O O9 0.625579 0.843298 0.101757
O O10 0.652780 0.791992 0.000000
O O11 0.401260 0.090794 0.802751
O O12 0.090771 0.500000 0.883253
O O13 0.000000 0.383802 0.886478
#
# Coordination Sequence:
#
# PCOD8319766 Si02
#       5
#    32  32  32  16  32
#     4   9  17  30  47  70  98 130 170 211 256 306
#     4  10  20  33  52  76 103 139 180 224 272 322
#     4  10  21  37  56  77 103 138 181 226 269 319
#     4  12  21  35  54  80 114 145 185 228 274 332
#     4  11  23  37  55  81 113 147 182 226 279 331
#
# _framework density 18.887211000000001
#
# number of rings (size 3 to 8) (size 9 to 14) (size 15 to 20)
#    0.000    1.778    2.222    3.000    0.000    4.444 
#    0.000    3.333    0.000    0.000    0.000    3.111 
#    0.000    0.444    0.000    2.444    0.000    0.000 
#
# Total GULP energy -892167.796588 kJ/mol
# GULP energy per Si atom -12391.219397 kJ/mol
# Density = 1.884422 g / cm^3
# Si number density = 18.887211 Si / 1000 Ang^3
#
#
#
# Elastic Constant Matrix: (Units=GPa)
#
#
# Indices 1 2 3 4 5 6 
#
# 1 93.7315 48.4562 25.8609 0.0000 0.0000 0.0000
# 2 48.4562 93.7326 25.8611 0.0000 0.0000 0.0000
# 3 25.8609 25.8611 60.8508 0.0000 0.0000 0.0000
# 4 0.0000 0.0000 0.0000 17.3041 0.0000 0.0000
# 5 0.0000 0.0000 0.0000 0.0000 17.3038 0.0000
# 6 0.0000 0.0000 0.0000 0.0000 0.0000 32.1323
#
#
#
# Elastic Compliance Matrix: (Units=1/GPa)
#
#
# Indices 1 2 3 4 5 6 
#
# 1 0.015203 -0.006884 -0.003535 0.000000 0.000000 0.000000
# 2 -0.006884 0.015203 -0.003535 0.000000 0.000000 0.000000
# 3 -0.003535 -0.003535 0.019439 0.000000 0.000000 0.000000
# 4 0.000000 0.000000 0.000000 0.057790 0.000000 0.000000
# 5 0.000000 0.000000 0.000000 0.000000 0.057791 0.000000
# 6 0.000000 0.000000 0.000000 0.000000 0.000000 0.031121
#
#
# Mechanical properties :
#
#
# Convention : Reuss Voigt Hill
#
# Bulk Modulus (GPa) = 45.58975 49.85236 47.72106
# Shear Modulus (GPa) = 21.57330 23.22381 22.39856
#
# Velocity S-wave (km/s) = 3.38334 3.51038 3.44744
# Velocity P-wave (km/s) = 6.28116 6.54847 6.41620
#
# Compressibility (1/GPa) = 0.02193476
#
# Stress axis : x y z
#
# Youngs Moduli (GPa) = 65.77649 65.77721 51.44368
#
# Poissons Ratio (x) = 0.45281 0.18188
# Poissons Ratio (y) = 0.45280 0.18188
# Poissons Ratio (z) = 0.23255 0.23256
#
# Static dielectric constant tensor:
#      x y z
#    x 3.490850 0.000000 0.000000 
#    y 0.000000 3.490830 0.000000 
#    z 0.000000 0.000000 3.176260 
# 
# 
# High freq. dielectric constant tensor:
#      x y z
#    x 1.728520 0.000000 0.000000 
#    y 0.000000 1.728520 0.000000 
#    z 0.000000 0.000000 1.707940 
# 
# From -- ./inp_files/12800.got.cif
#   From: 2010.03.12/outbox.cif.g09.slc.cpg/sg139_7_cif.got.tgz:12800.got - 2010.04.08 09:46:31.
