data_PCOD8319085
_publ_section_title
;
Structure prediction by ZEFSAII (Michael W. Deem and Ramdas Pophale) SiO2 
 PCOD8319085
Probable space group: P 42/N C M
;
_chemical_formula_sum "Si O2"
_cell_formula_units_Z 80
_cell_length_a 17.231499
_cell_length_b 17.231499
_cell_length_c 13.994880
_cell_angle_alpha 90.000000
_cell_angle_beta 90.000000
_cell_angle_gamma 90.000000
_cell_volume 4155.423555
_symmetry_space_group_name_H-M "P 42/N C M"
_symmetry_group_IT_number 138
_space_group.IT_coordinate_system_code '2'
_symmetry_cell_setting 'tetragonal'
loop_
_space_group_symop_operation_xyz
x,y,z
1/2-y,x,1/2+z
1/2-x,1/2-y,z
y,1/2-x,1/2+z
1/2+x,-y,1/2-z
-x,1/2+y,1/2-z
1/2+y,1/2+x,-z
-y,-x,-z
-x,-y,-z
1/2+y,-x,1/2-z
1/2+x,1/2+y,-z
-y,1/2+x,1/2-z
1/2-x,y,1/2+z
x,1/2-y,1/2+z
1/2-y,1/2-x,z
y,x,z
loop_
_atom_site_type_symbol
_atom_site_label
_atom_site_fract_x
_atom_site_fract_y
_atom_site_fract_z
Si Si1 0.163901 0.463730 0.398101
Si Si2 0.751171 0.626247 0.251310
Si Si3 0.003706 0.226568 0.102718
Si Si4 0.577685 0.047387 0.298993
Si Si5 0.094446 0.968707 0.597159
O O1 0.108567 0.391434 0.422188
O O2 0.233701 0.438572 0.328152
O O3 0.202657 0.495101 0.493231
O O4 0.117664 0.532440 0.348065
O O5 0.819438 0.680563 0.211109
O O6 0.673663 0.673663 0.273186
O O7 0.777122 0.589015 0.351175
O O8 0.951092 0.165011 0.160786
O O9 0.972029 0.313545 0.112108
O O10 0.580158 0.059129 0.185003
O O11 0.533857 0.966144 0.323624
O O12 0.076387 0.923614 0.500000
O O13 0.054669 0.054669 0.596154
#
# Coordination Sequence:
#
# PCOD8319085 Si02
#       5
#    16  16  16  16  16
#     4  10  21  38  57  86 125 161 199 251 309 370
#     4  10  21  36  55  88 130 163 194 246 316 379
#     4  12  22  36  64  90 116 155 216 256 305 370
#     4  10  21  40  62  87 121 162 208 254 304 371
#     4  10  23  41  62  91 126 163 204 258 320 375
#
# _framework density 19.251949
#
# number of rings (size 3 to 8) (size 9 to 14) (size 15 to 20)
#    0.000    1.600    2.000    3.000    2.800    3.200 
#    0.000    2.000    0.000    7.800    0.000    0.000 
#    0.000    0.000    0.000    0.000    0.000    0.000 
#
# Total GULP energy -992056.846682 kJ/mol
# GULP energy per Si atom -12400.710584 kJ/mol
# Density = 1.920813 g / cm^3
# Si number density = 19.251949 Si / 1000 Ang^3
#
#
#
# Elastic Constant Matrix: (Units=GPa)
#
#
# Indices 1 2 3 4 5 6 
#
# 1 111.2388 39.9746 47.8376 0.0000 0.0000 0.0000
# 2 39.9746 111.2397 47.8382 0.0000 0.0000 0.0000
# 3 47.8376 47.8382 136.5599 0.0000 0.0000 0.0000
# 4 0.0000 0.0000 0.0000 28.5057 0.0000 0.0000
# 5 0.0000 0.0000 0.0000 0.0000 28.5059 0.0000
# 6 0.0000 0.0000 0.0000 0.0000 0.0000 23.4073
#
#
#
# Elastic Compliance Matrix: (Units=1/GPa)
#
#
# Indices 1 2 3 4 5 6 
#
# 1 0.011264 -0.002768 -0.002976 0.000000 0.000000 0.000000
# 2 -0.002768 0.011264 -0.002976 0.000000 0.000000 0.000000
# 3 -0.002976 -0.002976 0.009408 0.000000 0.000000 0.000000
# 4 0.000000 0.000000 0.000000 0.035081 0.000000 0.000000
# 5 0.000000 0.000000 0.000000 0.000000 0.035080 0.000000
# 6 0.000000 0.000000 0.000000 0.000000 0.000000 0.042722
#
#
# Mechanical properties :
#
#
# Convention : Reuss Voigt Hill
#
# Bulk Modulus (GPa) = 68.98737 70.03768 69.51253
# Shear Modulus (GPa) = 29.92356 30.97632 30.44994
#
# Velocity S-wave (km/s) = 3.94675 4.01558 3.98132
# Velocity P-wave (km/s) = 7.52867 7.61304 7.57097
#
# Compressibility (1/GPa) = 0.01449541
#
# Stress axis : x y z
#
# Youngs Moduli (GPa) = 88.77615 88.77660 106.29205
#
# Poissons Ratio (x) = 0.24573 0.31636
# Poissons Ratio (y) = 0.24573 0.31636
# Poissons Ratio (z) = 0.26422 0.26423
#
# Static dielectric constant tensor:
#      x y z
#    x 3.458360 0.000000 0.000000 
#    y 0.000000 3.458360 0.000000 
#    z 0.000000 0.000000 3.664320 
# 
# 
# High freq. dielectric constant tensor:
#      x y z
#    x 1.738220 0.000000 0.000000 
#    y 0.000000 1.738220 0.000000 
#    z 0.000000 0.000000 1.763910 
# 
# From -- ./inp_files/4072.got.cif
#   From: 2010.03.12/outbox.cif.g09.slc.cpg/sg138_3_cif.got.tgz:4072.got - 2010.04.08 09:41:05.
