data_PCOD8319576
_publ_section_title
;
Structure prediction by ZEFSAII (Michael W. Deem and Ramdas Pophale) SiO2 
 PCOD8319576
Probable space group: I 4/M M M
;
_chemical_formula_sum "Si O2"
_cell_formula_units_Z 152
_cell_length_a 23.243469
_cell_length_b 23.243469
_cell_length_c 17.620973
_cell_angle_alpha 90.000000
_cell_angle_beta 90.000000
_cell_angle_gamma 90.000000
_cell_volume 9519.886629
_symmetry_space_group_name_H-M "I 4/M M M"
_symmetry_group_IT_number 139
_symmetry_cell_setting 'tetragonal'
loop_
_space_group_symop_operation_xyz
x,y,z
-y,x,z
-x,-y,z
y,-x,z
x,-y,-z
-x,y,-z
y,x,-z
-y,-x,-z
-x,-y,-z
y,-x,-z
x,y,-z
-y,x,-z
-x,y,z
x,-y,z
-y,-x,z
y,x,z
1/2+x,1/2+y,1/2+z
1/2-y,1/2+x,1/2+z
1/2-x,1/2-y,1/2+z
1/2+y,1/2-x,1/2+z
1/2+x,1/2-y,1/2-z
1/2-x,1/2+y,1/2-z
1/2+y,1/2+x,1/2-z
1/2-y,1/2-x,1/2-z
1/2-x,1/2-y,1/2-z
1/2+y,1/2-x,1/2-z
1/2+x,1/2+y,1/2-z
1/2-y,1/2+x,1/2-z
1/2-x,1/2+y,1/2+z
1/2+x,1/2-y,1/2+z
1/2-y,1/2-x,1/2+z
1/2+y,1/2+x,1/2+z
loop_
_atom_site_type_symbol
_atom_site_label
_atom_site_fract_x
_atom_site_fract_y
_atom_site_fract_z
Si Si1 0.594070 0.500000 0.000000
Si Si2 0.175642 0.000000 0.357995
Si Si3 0.380300 0.714262 0.352667
Si Si4 0.500000 0.673599 0.588507
Si Si5 0.784481 0.121159 0.326735
Si Si6 0.800841 0.704523 0.415242
Si Si7 0.000000 0.092933 0.779404
O O1 0.556966 0.556966 0.000000
O O2 0.629976 0.500000 0.924081
O O3 0.212598 0.941871 0.364738
O O4 0.146954 0.000000 0.275317
O O5 0.340956 0.659045 0.374748
O O6 0.443078 0.708956 0.389379
O O7 0.384494 0.720362 0.262886
O O8 0.354553 0.773670 0.384713
O O9 0.500000 0.659090 0.500000
O O10 0.500000 0.613341 0.633706
O O11 0.840403 0.159598 0.349008
O O12 0.726147 0.148915 0.359534
O O13 0.825592 0.695362 0.500000
O O14 0.751104 0.751104 0.415591
O O15 0.056924 0.056924 0.762583
#
# Coordination Sequence:
#
# PCOD8319576 Si02
#       7
#     8  16  32  16  32  32  16
#     4  11  24  36  48  68  96 136 182 221 256 292
#     4  12  22  35  52  72  98 131 172 219 257 295
#     4  10  19  34  51  70  96 129 165 204 252 302
#     4  12  23  33  49  72  98 129 169 214 253 295
#     4  10  19  32  51  71  94 127 168 206 249 303
#     4   9  18  31  49  72  96 122 155 202 255 305
#     4  11  22  36  50  64  92 134 174 210 248 289
#
# _framework density 15.966576999999999
#
# number of rings (size 3 to 8) (size 9 to 14) (size 15 to 20)
#    0.000    1.632    2.105    3.789    1.474    5.895 
#    0.000    0.526    0.000    0.000    0.000    0.000 
#    0.000    0.842    0.000    7.263    0.000    3.053 
#
# Total GULP energy -942416.238075 kJ/mol
# GULP energy per Si atom -12400.213659 kJ/mol
# Density = 1.593024 g / cm^3
# Si number density = 15.966577 Si / 1000 Ang^3
#
#
#
# Elastic Constant Matrix: (Units=GPa)
#
#
# Indices 1 2 3 4 5 6 
#
# 1 80.8120 48.9343 28.1218 0.0000 0.0000 0.0000
# 2 48.9343 80.8120 28.1218 0.0000 0.0000 0.0000
# 3 28.1218 28.1218 82.2389 0.0000 0.0000 0.0000
# 4 0.0000 0.0000 0.0000 25.5907 0.0000 0.0000
# 5 0.0000 0.0000 0.0000 0.0000 25.5907 0.0000
# 6 0.0000 0.0000 0.0000 0.0000 0.0000 84.1007
#
#
#
# Elastic Compliance Matrix: (Units=1/GPa)
#
#
# Indices 1 2 3 4 5 6 
#
# 1 0.020209 -0.011161 -0.003094 0.000000 0.000000 0.000000
# 2 -0.011161 0.020209 -0.003094 0.000000 0.000000 0.000000
# 3 -0.003094 -0.003094 0.014276 0.000000 0.000000 0.000000
# 4 0.000000 0.000000 0.000000 0.039077 0.000000 0.000000
# 5 0.000000 0.000000 0.000000 0.000000 0.039077 0.000000
# 6 0.000000 0.000000 0.000000 0.000000 0.000000 0.011891
#
#
# Mechanical properties :
#
#
# Convention : Reuss Voigt Hill
#
# Bulk Modulus (GPa) = 50.00922 50.46874 50.23898
# Shear Modulus (GPa) = 26.86704 36.30210 31.58457
#
# Velocity S-wave (km/s) = 4.10653 4.77343 4.45249
# Velocity P-wave (km/s) = 7.33989 7.87772 7.61356
#
# Compressibility (1/GPa) = 0.01999631
#
# Stress axis : x y z
#
# Youngs Moduli (GPa) = 49.48230 49.48230 70.04838
#
# Poissons Ratio (x) = 0.55225 0.21674
# Poissons Ratio (y) = 0.55225 0.21674
# Poissons Ratio (z) = 0.15311 0.15311
#
# Static dielectric constant tensor:
#      x y z
#    x 3.048100 0.000000 0.000000 
#    y 0.000000 3.048100 0.000000 
#    z 0.000000 0.000000 3.175980 
# 
# 
# High freq. dielectric constant tensor:
#      x y z
#    x 1.590490 0.000000 0.000000 
#    y 0.000000 1.590490 0.000000 
#    z 0.000000 0.000000 1.631290 
# 
# From -- ./inp_files/6036.got.cif
#   From: 2010.03.12/outbox.cif.g09.slc.cpg/sg139_4_cif.got.tgz:6036.got - 2010.04.08 09:46:31.
