data_PCOD8319750
_publ_section_title
;
Structure prediction by ZEFSAII (Michael W. Deem and Ramdas Pophale) SiO2 
 PCOD8319750
Probable space group: I 4/M M M
;
_chemical_formula_sum "Si O2"
_cell_formula_units_Z 192
_cell_length_a 17.004684
_cell_length_b 17.004684
_cell_length_c 37.044121
_cell_angle_alpha 90.000000
_cell_angle_beta 90.000000
_cell_angle_gamma 90.000000
_cell_volume 10711.651280
_symmetry_space_group_name_H-M "I 4/M M M"
_symmetry_group_IT_number 139
_symmetry_cell_setting 'tetragonal'
loop_
_space_group_symop_operation_xyz
x,y,z
-y,x,z
-x,-y,z
y,-x,z
x,-y,-z
-x,y,-z
y,x,-z
-y,-x,-z
-x,-y,-z
y,-x,-z
x,y,-z
-y,x,-z
-x,y,z
x,-y,z
-y,-x,z
y,x,z
1/2+x,1/2+y,1/2+z
1/2-y,1/2+x,1/2+z
1/2-x,1/2-y,1/2+z
1/2+y,1/2-x,1/2+z
1/2+x,1/2-y,1/2-z
1/2-x,1/2+y,1/2-z
1/2+y,1/2+x,1/2-z
1/2-y,1/2-x,1/2-z
1/2-x,1/2-y,1/2-z
1/2+y,1/2-x,1/2-z
1/2+x,1/2+y,1/2-z
1/2-y,1/2+x,1/2-z
1/2-x,1/2+y,1/2+z
1/2+x,1/2-y,1/2+z
1/2-y,1/2-x,1/2+z
1/2+y,1/2+x,1/2+z
loop_
_atom_site_type_symbol
_atom_site_label
_atom_site_fract_x
_atom_site_fract_y
_atom_site_fract_z
Si Si1 0.500000 0.627999 0.648739
Si Si2 0.674048 0.805099 0.589348
Si Si3 0.268989 0.000000 0.899199
Si Si4 0.409560 0.717308 0.957641
Si Si5 0.832932 0.584842 0.156450
Si Si6 0.500000 0.727703 0.279201
Si Si7 0.260532 0.134108 0.270861
Si Si8 0.000000 0.369412 0.827732
O O1 0.421633 0.578368 0.647608
O O2 0.500000 0.678093 0.612031
O O3 0.500000 0.673567 0.686137
O O4 0.723805 0.723805 0.588881
O O5 0.581666 0.788920 0.579359
O O6 0.708107 0.867291 0.560690
O O7 0.681428 0.843682 0.628932
O O8 0.313859 0.000000 0.862090
O O9 0.500000 0.709007 0.944516
O O10 0.363126 0.636875 0.947474
O O11 0.406091 0.733119 0.000000
O O12 0.812804 0.500000 0.138386
O O13 0.778411 0.593977 0.191159
O O14 0.922276 0.578406 0.170393
O O15 0.575969 0.711147 0.254709
O O16 0.500000 0.818640 0.291222
O O17 0.210241 0.210241 0.280048
O O18 0.339670 0.160331 0.250000
#
# Coordination Sequence:
#
# PCOD8319750 Si02
#       8
#    16  32  16  32  32  16  32  16
#     4  10  20  33  51  73  95 126 172 229 289 338
#     4  10  20  35  55  79 108 143 180 221 273 330
#     4   9  19  33  52  76 105 134 173 218 269 327
#     4   9  18  34  57  86 119 153 189 228 268 311
#     4  11  20  33  49  71  98 128 166 208 258 315
#     4  11  19  35  47  65  93 121 163 212 273 322
#     4  11  22  33  48  67  90 123 166 211 255 312
#     4   9  19  31  47  68  92 123 158 201 255 303
#
# _framework density 17.924408
#
# number of rings (size 3 to 8) (size 9 to 14) (size 15 to 20)
#    0.000    1.917    2.500    2.250    0.000    0.167 
#    0.000    2.500    0.000    1.000    0.000    0.000 
#    0.000    0.000    0.000   10.167    0.000    0.000 
#
# Total GULP energy -1189875.103372 kJ/mol
# GULP energy per Si atom -12394.532327 kJ/mol
# Density = 1.788361 g / cm^3
# Si number density = 17.924408 Si / 1000 Ang^3
#
#
#
# Elastic Constant Matrix: (Units=GPa)
#
#
# Indices 1 2 3 4 5 6 
#
# 1 120.5275 50.1594 33.9698 0.0000 0.0000 0.0000
# 2 50.1594 120.5278 33.9699 0.0000 0.0000 0.0000
# 3 33.9698 33.9699 47.1585 0.0000 0.0000 0.0000
# 4 0.0000 0.0000 0.0000 27.4276 0.0000 0.0000
# 5 0.0000 0.0000 0.0000 0.0000 27.4273 0.0000
# 6 0.0000 0.0000 0.0000 0.0000 0.0000 26.3362
#
#
#
# Elastic Compliance Matrix: (Units=1/GPa)
#
#
# Indices 1 2 3 4 5 6 
#
# 1 0.011212 -0.002999 -0.005917 0.000000 0.000000 0.000000
# 2 -0.002999 0.011212 -0.005917 0.000000 0.000000 0.000000
# 3 -0.005917 -0.005917 0.029729 0.000000 0.000000 0.000000
# 4 0.000000 0.000000 0.000000 0.036460 0.000000 0.000000
# 5 0.000000 0.000000 0.000000 0.000000 0.036460 0.000000
# 6 0.000000 0.000000 0.000000 0.000000 0.000000 0.037971
#
#
# Mechanical properties :
#
#
# Convention : Reuss Voigt Hill
#
# Bulk Modulus (GPa) = 44.46438 58.26800 51.36619
# Shear Modulus (GPa) = 24.97452 27.57920 26.27686
#
# Velocity S-wave (km/s) = 3.73678 3.92680 3.83297
# Velocity P-wave (km/s) = 6.59382 7.28958 6.95041
#
# Compressibility (1/GPa) = 0.02248991
#
# Stress axis : x y z
#
# Youngs Moduli (GPa) = 89.18752 89.18758 33.63730
#
# Poissons Ratio (x) = 0.26744 0.19902
# Poissons Ratio (y) = 0.26744 0.19902
# Poissons Ratio (z) = 0.52769 0.52769
#
# Static dielectric constant tensor:
#      x y z
#    x 3.425090 0.000000 0.000000 
#    y 0.000000 3.425090 0.000000 
#    z 0.000000 0.000000 3.063570 
# 
# 
# High freq. dielectric constant tensor:
#      x y z
#    x 1.698170 0.000000 0.000000 
#    y 0.000000 1.698170 0.000000 
#    z 0.000000 0.000000 1.668820 
# 
# From -- ./inp_files/14411.got.cif
#   From: 2010.03.12/outbox.cif.g09.slc.cpg/sg139_8_cif.got.tgz:14411.got - 2010.04.08 09:46:31.
