data_PCOD8319619
_publ_section_title
;
Structure prediction by ZEFSAII (Michael W. Deem and Ramdas Pophale) SiO2 
 PCOD8319619
Probable space group: I 4/M M M
;
_chemical_formula_sum "Si O2"
_cell_formula_units_Z 160
_cell_length_a 30.410153
_cell_length_b 30.410153
_cell_length_c 9.416427
_cell_angle_alpha 90.000000
_cell_angle_beta 90.000000
_cell_angle_gamma 90.000000
_cell_volume 8708.098930
_symmetry_space_group_name_H-M "I 4/M M M"
_symmetry_group_IT_number 139
_symmetry_cell_setting 'tetragonal'
loop_
_space_group_symop_operation_xyz
x,y,z
-y,x,z
-x,-y,z
y,-x,z
x,-y,-z
-x,y,-z
y,x,-z
-y,-x,-z
-x,-y,-z
y,-x,-z
x,y,-z
-y,x,-z
-x,y,z
x,-y,z
-y,-x,z
y,x,z
1/2+x,1/2+y,1/2+z
1/2-y,1/2+x,1/2+z
1/2-x,1/2-y,1/2+z
1/2+y,1/2-x,1/2+z
1/2+x,1/2-y,1/2-z
1/2-x,1/2+y,1/2-z
1/2+y,1/2+x,1/2-z
1/2-y,1/2-x,1/2-z
1/2-x,1/2-y,1/2-z
1/2+y,1/2-x,1/2-z
1/2+x,1/2+y,1/2-z
1/2-y,1/2+x,1/2-z
1/2-x,1/2+y,1/2+z
1/2+x,1/2-y,1/2+z
1/2-y,1/2-x,1/2+z
1/2+y,1/2+x,1/2+z
loop_
_atom_site_type_symbol
_atom_site_label
_atom_site_fract_x
_atom_site_fract_y
_atom_site_fract_z
Si Si1 0.214436 0.883867 0.666298
Si Si2 0.113367 0.113367 0.337349
Si Si3 0.949954 0.050047 0.833120
Si Si4 0.951744 0.287342 0.668174
Si Si5 0.758525 0.688442 0.655613
Si Si6 0.448595 0.114702 0.834710
O O1 0.221122 0.872738 0.500000
O O2 0.164278 0.897905 0.695531
O O3 0.248056 0.920953 0.721894
O O4 0.224745 0.841808 0.759821
O O5 0.102565 0.102565 0.500000
O O6 0.083034 0.083034 0.242164
O O7 0.000000 0.061249 0.788566
O O8 0.944034 0.055967 0.000000
O O9 0.955144 0.286313 0.500000
O O10 0.934655 0.335812 0.713886
O O11 0.000000 0.279005 0.733929
O O12 0.771428 0.668731 0.500000
O O13 0.734708 0.734708 0.629215
O O14 0.802528 0.697473 0.750000
O O15 0.500000 0.107264 0.802230
O O16 0.420619 0.079382 0.750000
O O17 0.438781 0.107881 0.000000
#
# Coordination Sequence:
#
# PCOD8319619 Si02
#       6
#    32  16  16  32  32  32
#     4  10  19  33  53  78 108 139 174 217 261 312
#     4  10  21  33  52  85 116 139 169 217 270 317
#     4   9  20  40  62  81 105 141 180 217 266 329
#     4   8  16  32  52  72  98 136 174 207 249 303
#     4  10  20  33  50  71  98 135 173 213 257 304
#     4   9  18  33  52  74 100 131 169 210 254 306
#
# _framework density 18.373698999999998
#
# number of rings (size 3 to 8) (size 9 to 14) (size 15 to 20)
#    0.000    2.700    1.000    2.100    0.000    4.200 
#    0.000    6.500    0.000    1.800    0.000    0.000 
#    0.000    0.000    0.000    0.000    0.000    0.000 
#
# Total GULP energy -991494.569381 kJ/mol
# GULP energy per Si atom -12393.682117 kJ/mol
# Density = 1.833188 g / cm^3
# Si number density = 18.373699 Si / 1000 Ang^3
#
#
#
# Elastic Constant Matrix: (Units=GPa)
#
#
# Indices 1 2 3 4 5 6 
#
# 1 104.3486 82.2971 52.4215 0.0000 0.0000 0.0000
# 2 82.2971 104.3592 52.4202 0.0000 0.0000 0.0000
# 3 52.4215 52.4202 83.4363 0.0000 0.0000 0.0000
# 4 0.0000 0.0000 0.0000 26.4316 0.0000 0.0000
# 5 0.0000 0.0000 0.0000 0.0000 26.4310 0.0000
# 6 0.0000 0.0000 0.0000 0.0000 0.0000 41.3606
#
#
#
# Elastic Compliance Matrix: (Units=1/GPa)
#
#
# Indices 1 2 3 4 5 6 
#
# 1 0.026811 -0.018529 -0.005204 0.000000 0.000000 0.000000
# 2 -0.018529 0.026806 -0.005200 0.000000 0.000000 0.000000
# 3 -0.005204 -0.005200 0.018521 0.000000 0.000000 0.000000
# 4 0.000000 0.000000 0.000000 0.037834 0.000000 0.000000
# 5 0.000000 0.000000 0.000000 0.000000 0.037834 0.000000
# 6 0.000000 0.000000 0.000000 0.000000 0.000000 0.024178
#
#
# Mechanical properties :
#
#
# Convention : Reuss Voigt Hill
#
# Bulk Modulus (GPa) = 70.06094 74.04686 72.05390
# Shear Modulus (GPa) = 21.31225 25.84499 23.57862
#
# Velocity S-wave (km/s) = 3.40947 3.75457 3.58618
# Velocity P-wave (km/s) = 7.32893 7.69310 7.51322
#
# Compressibility (1/GPa) = 0.01427329
#
# Stress axis : x y z
#
# Youngs Moduli (GPa) = 37.29840 37.30478 53.99162
#
# Poissons Ratio (x) = 0.69122 0.28095
# Poissons Ratio (y) = 0.69111 0.28075
# Poissons Ratio (z) = 0.19408 0.19398
#
# Static dielectric constant tensor:
#      x y z
#    x 3.506680 0.000000 0.000000 
#    y 0.000000 3.506670 0.000000 
#    z 0.000000 0.000000 3.289600 
# 
# 
# High freq. dielectric constant tensor:
#      x y z
#    x 1.709090 0.000000 0.000000 
#    y 0.000000 1.709090 0.000000 
#    z 0.000000 0.000000 1.693640 
# 
# From -- ./inp_files/2227.got.cif
#   From: 2010.03.12/outbox.cif.g09.slc.cpg/sg139_2_cif.got.tgz:2227.got - 2010.04.08 09:46:31.
