data_PCOD8319036
_publ_section_title
;
Structure prediction by ZEFSAII (Michael W. Deem and Ramdas Pophale) SiO2 
 PCOD8319036
Probable space group: P 42/N C M
;
_chemical_formula_sum "Si O2"
_cell_formula_units_Z 64
_cell_length_a 13.655766
_cell_length_b 13.655766
_cell_length_c 17.301787
_cell_angle_alpha 90.000000
_cell_angle_beta 90.000000
_cell_angle_gamma 90.000000
_cell_volume 3226.436289
_symmetry_space_group_name_H-M "P 42/N C M"
_symmetry_group_IT_number 138
_space_group.IT_coordinate_system_code '2'
_symmetry_cell_setting 'tetragonal'
loop_
_space_group_symop_operation_xyz
x,y,z
1/2-y,x,1/2+z
1/2-x,1/2-y,z
y,1/2-x,1/2+z
1/2+x,-y,1/2-z
-x,1/2+y,1/2-z
1/2+y,1/2+x,-z
-y,-x,-z
-x,-y,-z
1/2+y,-x,1/2-z
1/2+x,1/2+y,-z
-y,1/2+x,1/2-z
1/2-x,y,1/2+z
x,1/2-y,1/2+z
1/2-y,1/2-x,z
y,x,z
loop_
_atom_site_type_symbol
_atom_site_label
_atom_site_fract_x
_atom_site_fract_y
_atom_site_fract_z
Si Si1 0.280055 0.606351 0.775690
Si Si2 0.089695 0.253645 0.688718
Si Si3 0.965156 0.126708 0.925403
Si Si4 0.093309 0.243392 0.518247
O O1 0.172799 0.656592 0.784371
O O2 0.266513 0.495353 0.749374
O O3 0.342227 0.605481 0.855419
O O4 0.140721 0.359280 0.704393
O O5 0.169819 0.169819 0.698686
O O6 0.042481 0.248869 0.602736
O O7 0.903452 0.096549 0.000000
O O8 0.038738 0.038738 0.900967
O O9 0.022530 0.225485 0.949158
O O10 0.183201 0.316800 0.523977
O O11 0.134495 0.134495 0.500495
#
# Coordination Sequence:
#
# PCOD8319036 Si02
#       4
#    16  16  16  16
#     4  11  24  39  53  78 116 154 191 230 280 340
#     4   9  18  35  60  86 112 146 188 236 290 343
#     4  10  20  36  60  84 107 144 191 234 279 335
#     4   8  15  30  53  81 109 135 172 225 279 329
#
# _framework density 19.836124999999999
#
# number of rings (size 3 to 8) (size 9 to 14) (size 15 to 20)
#    0.000    2.500    0.000    3.750    0.000    5.000 
#    0.000   11.250    0.000    3.000    0.000    0.000 
#    0.000    0.000    0.000    0.000    0.000    0.000 
#
# Total GULP energy -793174.511227 kJ/mol
# GULP energy per Si atom -12393.351738 kJ/mol
# Density = 1.979098 g / cm^3
# Si number density = 19.836125 Si / 1000 Ang^3
#
#
#
# Elastic Constant Matrix: (Units=GPa)
#
#
# Indices 1 2 3 4 5 6 
#
# 1 81.7006 34.0865 45.6321 0.0000 0.0000 0.0000
# 2 34.0865 81.6996 45.6321 0.0000 0.0000 0.0000
# 3 45.6321 45.6321 88.4554 0.0000 0.0000 0.0000
# 4 0.0000 0.0000 0.0000 18.5982 0.0000 0.0000
# 5 0.0000 0.0000 0.0000 0.0000 18.5978 0.0000
# 6 0.0000 0.0000 0.0000 0.0000 0.0000 22.5208
#
#
#
# Elastic Compliance Matrix: (Units=1/GPa)
#
#
# Indices 1 2 3 4 5 6 
#
# 1 0.017778 -0.003224 -0.007508 0.000000 0.000000 0.000000
# 2 -0.003224 0.017779 -0.007509 0.000000 0.000000 0.000000
# 3 -0.007508 -0.007509 0.019052 0.000000 0.000000 0.000000
# 4 0.000000 0.000000 0.000000 0.053769 0.000000 0.000000
# 5 0.000000 0.000000 0.000000 0.000000 0.053770 0.000000
# 6 0.000000 0.000000 0.000000 0.000000 0.000000 0.044403
#
#
# Mechanical properties :
#
#
# Convention : Reuss Voigt Hill
#
# Bulk Modulus (GPa) = 55.16410 55.83967 55.50189
# Shear Modulus (GPa) = 20.07423 20.37701 20.22562
#
# Velocity S-wave (km/s) = 3.18465 3.20858 3.19664
# Velocity P-wave (km/s) = 6.43374 6.47597 6.45489
#
# Compressibility (1/GPa) = 0.01812773
#
# Stress axis : x y z
#
# Youngs Moduli (GPa) = 56.24772 56.24678 52.48764
#
# Poissons Ratio (x) = 0.18133 0.39410
# Poissons Ratio (y) = 0.18133 0.39411
# Poissons Ratio (z) = 0.42233 0.42234
#
# Static dielectric constant tensor:
#      x y z
#    x 4.465170 0.000000 0.000000 
#    y 0.000000 4.465160 0.000000 
#    z 0.000000 0.000000 3.585430 
# 
# 
# High freq. dielectric constant tensor:
#      x y z
#    x 1.764820 0.000000 0.000000 
#    y 0.000000 1.764820 0.000000 
#    z 0.000000 0.000000 1.759690 
# 
# From -- ./inp_files/3886.got.cif
#   From: 2010.03.12/outbox.cif.g09.slc.cpg/sg138_2_cif.got.tgz:3886.got - 2010.04.08 09:41:05.
