data_PCOD8319983
_publ_section_title
;
Structure prediction by ZEFSAII (Michael W. Deem and Ramdas Pophale) SiO2 
 PCOD8319983
Probable space group: I 4/M M M
;
_chemical_formula_sum "Si O2"
_cell_formula_units_Z 192
_cell_length_a 21.661423
_cell_length_b 21.661423
_cell_length_c 24.887409
_cell_angle_alpha 90.000000
_cell_angle_beta 90.000000
_cell_angle_gamma 90.000000
_cell_volume 11677.601521
_symmetry_space_group_name_H-M "I 4/M M M"
_symmetry_group_IT_number 139
_symmetry_cell_setting 'tetragonal'
loop_
_space_group_symop_operation_xyz
x,y,z
-y,x,z
-x,-y,z
y,-x,z
x,-y,-z
-x,y,-z
y,x,-z
-y,-x,-z
-x,-y,-z
y,-x,-z
x,y,-z
-y,x,-z
-x,y,z
x,-y,z
-y,-x,z
y,x,z
1/2+x,1/2+y,1/2+z
1/2-y,1/2+x,1/2+z
1/2-x,1/2-y,1/2+z
1/2+y,1/2-x,1/2+z
1/2+x,1/2-y,1/2-z
1/2-x,1/2+y,1/2-z
1/2+y,1/2+x,1/2-z
1/2-y,1/2-x,1/2-z
1/2-x,1/2-y,1/2-z
1/2+y,1/2-x,1/2-z
1/2+x,1/2+y,1/2-z
1/2-y,1/2+x,1/2-z
1/2-x,1/2+y,1/2+z
1/2+x,1/2-y,1/2+z
1/2-y,1/2-x,1/2+z
1/2+y,1/2+x,1/2+z
loop_
_atom_site_type_symbol
_atom_site_label
_atom_site_fract_x
_atom_site_fract_y
_atom_site_fract_z
Si Si1 0.650634 0.748135 0.239368
Si Si2 0.834935 0.262414 0.438365
Si Si3 0.302516 0.069992 0.352981
Si Si4 0.233524 0.865667 0.060233
Si Si5 0.399050 0.069271 0.188874
Si Si6 0.931773 0.745287 0.166703
O O1 0.692510 0.692510 0.216219
O O2 0.692551 0.807450 0.250000
O O3 0.598309 0.768483 0.198326
O O4 0.618602 0.723481 0.294195
O O5 0.855076 0.259354 0.500000
O O6 0.802132 0.197869 0.421300
O O7 0.895794 0.276868 0.405122
O O8 0.786629 0.316596 0.427931
O O9 0.377347 0.071774 0.348539
O O10 0.280814 0.000000 0.357942
O O11 0.167172 0.832829 0.065136
O O12 0.239690 0.918897 0.104386
O O13 0.240980 0.893591 0.000000
O O14 0.416620 0.083381 0.250000
O O15 0.326557 0.071542 0.180129
O O16 0.423403 0.000000 0.173680
O O17 0.000000 0.771007 0.179089
#
# Coordination Sequence:
#
# PCOD8319983 Si02
#       6
#    32  32  32  32  32  32
#     4  11  20  32  50  70  95 127 162 202 254 302
#     4   9  18  34  53  71  94 125 161 200 249 303
#     4  12  21  32  49  72 101 128 167 208 240 285
#     4   9  17  31  51  71  93 125 163 199 241 294
#     4  11  21  33  46  64  97 138 175 207 232 268
#     4  11  19  30  47  70 101 128 160 202 240 282
#
# _framework density 16.441731999999998
#
# number of rings (size 3 to 8) (size 9 to 14) (size 15 to 20)
#    0.000    1.500    5.000    3.000    0.000    4.500 
#    0.000    0.000    0.000    0.500    0.000    1.167 
#    0.000   27.333    0.000   14.667    0.000    0.000 
#
# Total GULP energy -1190026.460854 kJ/mol
# GULP energy per Si atom -12396.108967 kJ/mol
# Density = 1.640431 g / cm^3
# Si number density = 16.441732 Si / 1000 Ang^3
#
#
#
# Elastic Constant Matrix: (Units=GPa)
#
#
# Indices 1 2 3 4 5 6 
#
# 1 73.3151 50.0671 41.9005 0.0000 0.0000 0.0000
# 2 50.0671 73.3158 41.9019 0.0000 0.0000 0.0000
# 3 41.9005 41.9019 91.6677 0.0000 0.0000 0.0000
# 4 0.0000 0.0000 0.0000 19.2191 0.0000 0.0000
# 5 0.0000 0.0000 0.0000 0.0000 19.2196 0.0000
# 6 0.0000 0.0000 0.0000 0.0000 0.0000 14.4006
#
#
#
# Elastic Compliance Matrix: (Units=1/GPa)
#
#
# Indices 1 2 3 4 5 6 
#
# 1 0.027384 -0.015630 -0.005372 0.000000 0.000000 0.000000
# 2 -0.015630 0.027384 -0.005373 0.000000 0.000000 0.000000
# 3 -0.005372 -0.005373 0.015821 0.000000 0.000000 0.000000
# 4 0.000000 0.000000 0.000000 0.052032 0.000000 0.000000
# 5 0.000000 0.000000 0.000000 0.000000 0.052030 0.000000
# 6 0.000000 0.000000 0.000000 0.000000 0.000000 0.069441
#
#
# Mechanical properties :
#
#
# Convention : Reuss Voigt Hill
#
# Bulk Modulus (GPa) = 56.06065 56.22640 56.14352
# Shear Modulus (GPa) = 16.51318 17.52982 17.02150
#
# Velocity S-wave (km/s) = 3.17258 3.26878 3.22104
# Velocity P-wave (km/s) = 6.89862 6.96550 6.93214
#
# Compressibility (1/GPa) = 0.01783782
#
# Stress axis : x y z
#
# Youngs Moduli (GPa) = 36.51792 36.51758 63.20808
#
# Poissons Ratio (x) = 0.57076 0.33958
# Poissons Ratio (y) = 0.57077 0.33963
# Poissons Ratio (z) = 0.19619 0.19621
#
# Static dielectric constant tensor:
#      x y z
#    x 3.087730 0.000000 0.000000 
#    y 0.000000 3.087730 0.000000 
#    z 0.000000 0.000000 3.193270 
# 
# 
# High freq. dielectric constant tensor:
#      x y z
#    x 1.614300 0.000000 0.000000 
#    y 0.000000 1.614300 0.000000 
#    z 0.000000 0.000000 1.634930 
# 
# From -- ./inp_files/13302.got.cif
#   From: 2010.03.12/outbox.cif.g09.slc.cpg/sg139_7_cif.got.tgz:13302.got - 2010.04.08 09:46:31.
