data_PCOD8319417
_publ_section_title
;
Structure prediction by ZEFSAII (Michael W. Deem and Ramdas Pophale) SiO2 
 PCOD8319417
Probable space group: I 4/M M M
;
_chemical_formula_sum "Si O2"
_cell_formula_units_Z 208
_cell_length_a 19.541893
_cell_length_b 19.541893
_cell_length_c 32.400357
_cell_angle_alpha 90.000000
_cell_angle_beta 90.000000
_cell_angle_gamma 90.000000
_cell_volume 12373.229191
_symmetry_space_group_name_H-M "I 4/M M M"
_symmetry_group_IT_number 139
_symmetry_cell_setting 'tetragonal'
loop_
_space_group_symop_operation_xyz
x,y,z
-y,x,z
-x,-y,z
y,-x,z
x,-y,-z
-x,y,-z
y,x,-z
-y,-x,-z
-x,-y,-z
y,-x,-z
x,y,-z
-y,x,-z
-x,y,z
x,-y,z
-y,-x,z
y,x,z
1/2+x,1/2+y,1/2+z
1/2-y,1/2+x,1/2+z
1/2-x,1/2-y,1/2+z
1/2+y,1/2-x,1/2+z
1/2+x,1/2-y,1/2-z
1/2-x,1/2+y,1/2-z
1/2+y,1/2+x,1/2-z
1/2-y,1/2-x,1/2-z
1/2-x,1/2-y,1/2-z
1/2+y,1/2-x,1/2-z
1/2+x,1/2+y,1/2-z
1/2-y,1/2+x,1/2-z
1/2-x,1/2+y,1/2+z
1/2+x,1/2-y,1/2+z
1/2-y,1/2-x,1/2+z
1/2+y,1/2+x,1/2+z
loop_
_atom_site_type_symbol
_atom_site_label
_atom_site_fract_x
_atom_site_fract_y
_atom_site_fract_z
Si Si1 0.657335 0.233413 0.336267
Si Si2 0.081484 0.192220 0.000000
Si Si3 0.270940 0.157838 0.070285
Si Si4 0.375221 0.266132 0.186381
Si Si5 0.076347 0.312498 0.761400
Si Si6 0.681170 0.572311 0.103771
Si Si7 0.311373 0.076002 0.547998
O O1 0.699556 0.300445 0.322635
O O2 0.631079 0.240739 0.383153
O O3 0.704560 0.166627 0.334252
O O4 0.595159 0.224007 0.304500
O O5 0.104238 0.234354 0.959686
O O6 0.117835 0.117835 0.000000
O O7 0.000000 0.181852 0.000000
O O8 0.234072 0.234072 0.065320
O O9 0.352967 0.152214 0.061587
O O10 0.323865 0.323865 0.203081
O O11 0.420290 0.243113 0.225066
O O12 0.423928 0.293987 0.150855
O O13 0.125099 0.374902 0.750000
O O14 0.000000 0.341370 0.765231
O O15 0.642468 0.500000 0.099681
O O16 0.632450 0.632450 0.090678
O O17 0.741479 0.575439 0.071831
O O18 0.295994 0.082074 0.500000
O O19 0.348024 0.000000 0.556621
#
# Coordination Sequence:
#
# PCOD8319417 Si02
#       7
#    32  16  32  32  32  32  32
#     4   9  17  30  50  75  96 120 156 206 258 292
#     4  10  22  37  57  83 107 135 166 204 256 310
#     4  10  18  32  54  77 102 132 171 213 252 302
#     4   9  16  29  49  70  91 116 155 205 249 287
#     4  10  20  32  46  66  95 129 160 195 239 295
#     4  10  19  29  43  65  93 127 165 204 247 293
#     4  10  19  30  48  74 101 129 165 208 248 290
#
# _framework density 16.810486000000001
#
# number of rings (size 3 to 8) (size 9 to 14) (size 15 to 20)
#    0.000    2.308    2.308    1.385    0.000    3.769 
#    0.000    0.000    0.000    0.923    0.000    2.154 
#    0.000    2.769    0.000    0.615    0.000    0.000 
#
# Total GULP energy -1288383.787409 kJ/mol
# GULP energy per Si atom -12388.305648 kJ/mol
# Density = 1.677222 g / cm^3
# Si number density = 16.810486 Si / 1000 Ang^3
#
#
#
# Elastic Constant Matrix: (Units=GPa)
#
#
# Indices 1 2 3 4 5 6 
#
# 1 72.4799 42.6255 28.6051 0.0000 0.0000 0.0000
# 2 42.6255 72.4777 28.6052 0.0000 0.0000 0.0000
# 3 28.6051 28.6052 98.7705 0.0000 0.0000 0.0000
# 4 0.0000 0.0000 0.0000 9.2954 0.0000 0.0000
# 5 0.0000 0.0000 0.0000 0.0000 9.2958 0.0000
# 6 0.0000 0.0000 0.0000 0.0000 0.0000 -5.4207
#
#
#
# Elastic Compliance Matrix: (Units=1/GPa)
#
#
# Indices 1 2 3 4 5 6 
#
# 1 0.021822 -0.011674 -0.002939 0.000000 0.000000 0.000000
# 2 -0.011674 0.021823 -0.002939 0.000000 0.000000 0.000000
# 3 -0.002939 -0.002939 0.011827 0.000000 0.000000 0.000000
# 4 0.000000 0.000000 0.000000 0.107581 0.000000 0.000000
# 5 0.000000 0.000000 0.000000 0.000000 0.107576 0.000000
# 6 0.000000 0.000000 0.000000 0.000000 0.000000 -0.184479
#
#
# Mechanical properties :
#
#
# Convention : Reuss Voigt Hill
#
# Bulk Modulus (GPa) = 49.09780 49.26662 49.18221
# Shear Modulus (GPa) = 39.04905 12.22691 25.63798
#
# Velocity S-wave (km/s) = 4.82487 2.69985 3.90951
# Velocity P-wave (km/s) = 7.76590 6.25217 7.04978
#
# Compressibility (1/GPa) = 0.02036751
#
# Stress axis : x y z
#
# Youngs Moduli (GPa) = 45.82430 45.82264 84.55288
#
# Poissons Ratio (x) = 0.53494 0.24850
# Poissons Ratio (y) = 0.53496 0.24853
# Poissons Ratio (z) = 0.13468 0.13469
#
# Static dielectric constant tensor:
#      x y z
#    x 3.111090 0.000000 0.000000 
#    y 0.000000 3.111090 0.000000 
#    z 0.000000 0.000000 3.110650 
# 
# 
# High freq. dielectric constant tensor:
#      x y z
#    x 1.626180 0.000000 0.000000 
#    y 0.000000 1.626180 0.000000 
#    z 0.000000 0.000000 1.665770 
# 
# From -- ./inp_files/14531.got.cif
#   From: 2010.03.12/outbox.cif.g09.slc.cpg/sg139_8_cif.got.tgz:14531.got - 2010.04.08 09:46:31.
