data_PCOD8319523
_publ_section_title
;
Structure prediction by ZEFSAII (Michael W. Deem and Ramdas Pophale) SiO2 
 PCOD8319523
Probable space group: I 4/M M M
;
_chemical_formula_sum "Si O2"
_cell_formula_units_Z 192
_cell_length_a 26.065712
_cell_length_b 26.065712
_cell_length_c 15.167605
_cell_angle_alpha 90.000000
_cell_angle_beta 90.000000
_cell_angle_gamma 90.000000
_cell_volume 10305.194545
_symmetry_space_group_name_H-M "I 4/M M M"
_symmetry_group_IT_number 139
_symmetry_cell_setting 'tetragonal'
loop_
_space_group_symop_operation_xyz
x,y,z
-y,x,z
-x,-y,z
y,-x,z
x,-y,-z
-x,y,-z
y,x,-z
-y,-x,-z
-x,-y,-z
y,-x,-z
x,y,-z
-y,x,-z
-x,y,z
x,-y,z
-y,-x,z
y,x,z
1/2+x,1/2+y,1/2+z
1/2-y,1/2+x,1/2+z
1/2-x,1/2-y,1/2+z
1/2+y,1/2-x,1/2+z
1/2+x,1/2-y,1/2-z
1/2-x,1/2+y,1/2-z
1/2+y,1/2+x,1/2-z
1/2-y,1/2-x,1/2-z
1/2-x,1/2-y,1/2-z
1/2+y,1/2-x,1/2-z
1/2+x,1/2+y,1/2-z
1/2-y,1/2+x,1/2-z
1/2-x,1/2+y,1/2+z
1/2+x,1/2-y,1/2+z
1/2-y,1/2-x,1/2+z
1/2+y,1/2+x,1/2+z
loop_
_atom_site_type_symbol
_atom_site_label
_atom_site_fract_x
_atom_site_fract_y
_atom_site_fract_z
Si Si1 0.943262 0.137986 0.831791
Si Si2 0.790732 0.943997 0.000000
Si Si3 0.858191 0.440184 0.255216
Si Si4 0.441744 0.218695 0.899878
Si Si5 0.380346 0.700746 0.796173
Si Si6 0.855191 0.708045 0.820170
Si Si7 0.245921 0.666849 0.500000
O O1 0.910776 0.089225 0.860103
O O2 0.941030 0.176707 0.912095
O O3 0.923325 0.162762 0.741041
O O4 0.000000 0.118587 0.812319
O O5 0.755102 0.894346 0.000000
O O6 0.761778 0.000000 0.000000
O O7 0.862939 0.500000 0.282059
O O8 0.914855 0.414855 0.250000
O O9 0.831406 0.432795 0.159935
O O10 0.822605 0.409750 0.326310
O O11 0.500000 0.238485 0.888033
O O12 0.403384 0.264481 0.873822
O O13 0.430352 0.202375 0.000000
O O14 0.331648 0.668352 0.832499
O O15 0.363414 0.734181 0.711968
O O16 0.820205 0.679796 0.750000
O O17 0.824405 0.711162 0.912913
O O18 0.296697 0.703303 0.500000
#
# Coordination Sequence:
#
# PCOD8319523 Si02
#       7
#    32  16  32  32  32  32  16
#     4  10  19  31  48  72 103 138 176 220 269 318
#     4  10  20  32  51  77 103 135 182 227 266 315
#     4   9  19  38  61  85 114 145 177 223 276 330
#     4   9  18  34  56  77 102 141 182 216 266 332
#     4  10  19  32  52  75 104 134 175 231 270 310
#     4  10  22  39  55  79 112 146 183 226 275 330
#     4  12  22  36  60  80 109 155 196 231 280 333
#
# _framework density 18.631381000000001
#
# number of rings (size 3 to 8) (size 9 to 14) (size 15 to 20)
#    0.000    2.167    1.667    1.750    0.000    3.333 
#   13.500    0.000    0.000    1.500    0.000    2.333 
#    0.000    0.000    0.000   15.500    0.000    0.000 
#
# Total GULP energy -1189894.441524 kJ/mol
# GULP energy per Si atom -12394.733766 kJ/mol
# Density = 1.858897 g / cm^3
# Si number density = 18.631381 Si / 1000 Ang^3
#
#
#
# Elastic Constant Matrix: (Units=GPa)
#
#
# Indices 1 2 3 4 5 6 
#
# 1 87.0712 44.2831 33.6192 0.0000 0.0000 0.0000
# 2 44.2831 87.0701 33.6205 0.0000 0.0000 0.0000
# 3 33.6192 33.6205 96.2358 0.0000 0.0000 0.0000
# 4 0.0000 0.0000 0.0000 -190.1523 0.0000 0.0000
# 5 0.0000 0.0000 0.0000 0.0000 -190.6262 0.0000
# 6 0.0000 0.0000 0.0000 0.0000 0.0000 27.0551
#
#
#
# Elastic Compliance Matrix: (Units=1/GPa)
#
#
# Indices 1 2 3 4 5 6 
#
# 1 0.016321 -0.007050 -0.003239 0.000000 0.000000 0.000000
# 2 -0.007050 0.016321 -0.003239 0.000000 0.000000 0.000000
# 3 -0.003239 -0.003239 0.012654 0.000000 0.000000 0.000000
# 4 0.000000 0.000000 0.000000 -0.005259 0.000000 0.000000
# 5 0.000000 0.000000 0.000000 0.000000 -0.005246 0.000000
# 6 0.000000 0.000000 0.000000 0.000000 0.000000 0.036962
#
#
# Mechanical properties :
#
#
# Convention : Reuss Voigt Hill
#
# Bulk Modulus (GPa) = 54.82212 54.82475 54.82344
# Shear Modulus (GPa) = 47.66947 -60.15440 -6.24246
#
# Velocity S-wave (km/s) = 5.06371 -5.68829 -1.83243
# Velocity P-wave (km/s) = 7.97977 3.69491 5.00122
#
# Compressibility (1/GPa) = 0.01824081
#
# Stress axis : x y z
#
# Youngs Moduli (GPa) = 61.27111 61.26941 79.02583
#
# Poissons Ratio (x) = 0.43196 0.25593
# Poissons Ratio (y) = 0.43197 0.25597
# Poissons Ratio (z) = 0.19843 0.19845
#
# Static dielectric constant tensor:
#      x y z
#    x 3.554410 0.000000 0.000000 
#    y 0.000000 3.554420 0.000000 
#    z 0.000000 0.000000 3.471830 
# 
# 
# High freq. dielectric constant tensor:
#      x y z
#    x 1.719930 0.000000 0.000000 
#    y 0.000000 1.719930 0.000000 
#    z 0.000000 0.000000 1.709380 
# 
# From -- ./inp_files/6494.got.cif
#   From: 2010.03.12/outbox.cif.g09.slc.cpg/sg139_4_cif.got.tgz:6494.got - 2010.04.08 09:46:31.
