data_PCOD8319704
_publ_section_title
;
Structure prediction by ZEFSAII (Michael W. Deem and Ramdas Pophale) SiO2 
 PCOD8319704
Probable space group: I 4/M M M
;
_chemical_formula_sum "Si O2"
_cell_formula_units_Z 192
_cell_length_a 20.573356
_cell_length_b 20.573356
_cell_length_c 25.659945
_cell_angle_alpha 90.000000
_cell_angle_beta 90.000000
_cell_angle_gamma 90.000000
_cell_volume 10860.904713
_symmetry_space_group_name_H-M "I 4/M M M"
_symmetry_group_IT_number 139
_symmetry_cell_setting 'tetragonal'
loop_
_space_group_symop_operation_xyz
x,y,z
-y,x,z
-x,-y,z
y,-x,z
x,-y,-z
-x,y,-z
y,x,-z
-y,-x,-z
-x,-y,-z
y,-x,-z
x,y,-z
-y,x,-z
-x,y,z
x,-y,z
-y,-x,z
y,x,z
1/2+x,1/2+y,1/2+z
1/2-y,1/2+x,1/2+z
1/2-x,1/2-y,1/2+z
1/2+y,1/2-x,1/2+z
1/2+x,1/2-y,1/2-z
1/2-x,1/2+y,1/2-z
1/2+y,1/2+x,1/2-z
1/2-y,1/2-x,1/2-z
1/2-x,1/2-y,1/2-z
1/2+y,1/2-x,1/2-z
1/2+x,1/2+y,1/2-z
1/2-y,1/2+x,1/2-z
1/2-x,1/2+y,1/2+z
1/2+x,1/2-y,1/2+z
1/2-y,1/2-x,1/2+z
1/2+y,1/2+x,1/2+z
loop_
_atom_site_type_symbol
_atom_site_label
_atom_site_fract_x
_atom_site_fract_y
_atom_site_fract_z
Si Si1 0.305676 0.851793 0.197623
Si Si2 0.198093 0.300777 0.588098
Si Si3 0.842522 0.428974 0.941797
Si Si4 0.573277 0.924760 0.157329
Si Si5 0.425336 0.679036 0.332193
Si Si6 0.765765 0.927533 0.057865
O O1 0.308750 0.808750 0.250000
O O2 0.295882 0.801361 0.150405
O O3 0.374482 0.888692 0.193248
O O4 0.245071 0.901800 0.196545
O O5 0.247140 0.247140 0.564978
O O6 0.124300 0.286015 0.570156
O O7 0.211365 0.372344 0.564132
O O8 0.810234 0.500000 0.934133
O O9 0.902199 0.419328 0.902318
O O10 0.870376 0.421303 0.000000
O O11 0.500000 0.910445 0.178201
O O12 0.589508 0.000000 0.159266
O O13 0.500000 0.666230 0.316243
O O14 0.381335 0.618666 0.313098
O O15 0.417789 0.683004 0.395215
O O16 0.734623 0.000000 0.063501
O O17 0.798179 0.920601 0.000000
#
# Coordination Sequence:
#
# PCOD8319704 Si02
#       6
#    32  32  32  32  32  32
#     4  10  20  34  52  70  94 123 156 199 249 295
#     4  10  20  32  48  70  92 118 157 199 236 281
#     4   9  18  31  45  64  94 128 156 187 229 274
#     4   9  18  31  46  68  98 130 164 196 227 272
#     4  10  21  35  51  73  99 129 167 207 246 289
#     4   9  17  29  46  70 102 136 166 199 235 267
#
# _framework density 17.678086
#
# number of rings (size 3 to 8) (size 9 to 14) (size 15 to 20)
#    0.000    2.500    0.000    3.000    0.000    9.500 
#    0.000    2.500    0.000    0.000    0.000    2.333 
#    0.000    0.333    0.000    1.833    0.000    0.000 
#
# Total GULP energy -1189514.418514 kJ/mol
# GULP energy per Si atom -12390.775193 kJ/mol
# Density = 1.763785 g / cm^3
# Si number density = 17.678086 Si / 1000 Ang^3
#
#
#
# Elastic Constant Matrix: (Units=GPa)
#
#
# Indices 1 2 3 4 5 6 
#
# 1 87.8898 61.9091 19.6216 0.0000 0.0000 0.0000
# 2 61.9091 87.8898 19.6215 0.0000 0.0000 0.0000
# 3 19.6216 19.6215 75.6120 0.0000 0.0000 0.0000
# 4 0.0000 0.0000 0.0000 11.9909 0.0000 0.0000
# 5 0.0000 0.0000 0.0000 0.0000 11.9909 0.0000
# 6 0.0000 0.0000 0.0000 0.0000 0.0000 20.8686
#
#
#
# Elastic Compliance Matrix: (Units=1/GPa)
#
#
# Indices 1 2 3 4 5 6 
#
# 1 0.022826 -0.015664 -0.001859 0.000000 0.000000 0.000000
# 2 -0.015664 0.022826 -0.001859 0.000000 0.000000 0.000000
# 3 -0.001859 -0.001859 0.014190 0.000000 0.000000 0.000000
# 4 0.000000 0.000000 0.000000 0.083396 0.000000 0.000000
# 5 0.000000 0.000000 0.000000 0.000000 0.083396 0.000000
# 6 0.000000 0.000000 0.000000 0.000000 0.000000 0.047919
#
#
# Mechanical properties :
#
#
# Convention : Reuss Voigt Hill
#
# Bulk Modulus (GPa) = 47.43750 50.41067 48.92409
# Shear Modulus (GPa) = 15.60825 18.98606 17.29715
#
# Velocity S-wave (km/s) = 2.97461 3.28073 3.13141
# Velocity P-wave (km/s) = 6.22014 6.55200 6.38822
#
# Compressibility (1/GPa) = 0.02108037
#
# Stress axis : x y z
#
# Youngs Moduli (GPa) = 43.80908 43.80908 70.47175
#
# Poissons Ratio (x) = 0.68622 0.13099
# Poissons Ratio (y) = 0.68622 0.13099
# Poissons Ratio (z) = 0.08143 0.08143
#
# Static dielectric constant tensor:
#      x y z
#    x 3.219170 0.000000 0.000000 
#    y 0.000000 3.219170 0.000000 
#    z 0.000000 0.000000 3.235550 
# 
# 
# High freq. dielectric constant tensor:
#      x y z
#    x 1.664490 0.000000 0.000000 
#    y 0.000000 1.664490 0.000000 
#    z 0.000000 0.000000 1.677090 
# 
# From -- ./inp_files/11956.got.cif
#   From: 2010.03.12/outbox.cif.g09.slc.cpg/sg139_6_cif.got.tgz:11956.got - 2010.04.08 09:46:31.
