data_PCOD8319984
_publ_section_title
;
Structure prediction by ZEFSAII (Michael W. Deem and Ramdas Pophale) SiO2 
 PCOD8319984
Probable space group: I 4/M M M
;
_chemical_formula_sum "Si O2"
_cell_formula_units_Z 80
_cell_length_a 16.876484
_cell_length_b 16.876484
_cell_length_c 14.252737
_cell_angle_alpha 90.000000
_cell_angle_beta 90.000000
_cell_angle_gamma 90.000000
_cell_volume 4059.403439
_symmetry_space_group_name_H-M "I 4/M M M"
_symmetry_group_IT_number 139
_symmetry_cell_setting 'tetragonal'
loop_
_space_group_symop_operation_xyz
x,y,z
-y,x,z
-x,-y,z
y,-x,z
x,-y,-z
-x,y,-z
y,x,-z
-y,-x,-z
-x,-y,-z
y,-x,-z
x,y,-z
-y,x,-z
-x,y,z
x,-y,z
-y,-x,z
y,x,z
1/2+x,1/2+y,1/2+z
1/2-y,1/2+x,1/2+z
1/2-x,1/2-y,1/2+z
1/2+y,1/2-x,1/2+z
1/2+x,1/2-y,1/2-z
1/2-x,1/2+y,1/2-z
1/2+y,1/2+x,1/2-z
1/2-y,1/2-x,1/2-z
1/2-x,1/2-y,1/2-z
1/2+y,1/2-x,1/2-z
1/2+x,1/2+y,1/2-z
1/2-y,1/2+x,1/2-z
1/2-x,1/2+y,1/2+z
1/2+x,1/2-y,1/2+z
1/2-y,1/2-x,1/2+z
1/2+y,1/2+x,1/2+z
loop_
_atom_site_type_symbol
_atom_site_label
_atom_site_fract_x
_atom_site_fract_y
_atom_site_fract_z
Si Si1 0.285455 0.406020 0.000000
Si Si2 0.408456 0.000000 0.603841
Si Si3 0.833557 0.657299 0.853755
Si Si4 0.094186 0.224762 0.000000
O O1 0.245198 0.368012 0.908170
O O2 0.284844 0.500000 0.000000
O O3 0.376363 0.376363 0.000000
O O4 0.385964 0.078573 0.659595
O O5 0.500000 0.000000 0.586707
O O6 0.366062 0.000000 0.500000
O O7 0.811342 0.688659 0.750000
O O8 0.882264 0.725123 0.908007
O O9 0.141285 0.141285 0.000000
O O10 0.000000 0.207885 0.000000
#
# Coordination Sequence:
#
# PCOD8319984 Si02
#       4
#    16  16  32  16
#     4  11  23  42  61  87 122 157 204 251 295 351
#     4  11  20  32  54  87 127 161 188 234 292 365
#     4  11  22  38  62  90 122 157 194 243 301 360
#     4  11  25  43  62  88 121 158 205 254 295 351
#
# _framework density 19.707328
#
# number of rings (size 3 to 8) (size 9 to 14) (size 15 to 20)
#    0.000    1.000    6.000    3.600    5.600    3.600 
#    0.000    0.000    0.000    0.000    0.000    5.600 
#    0.000    0.000    0.000    0.000    0.000    0.000 
#
# Total GULP energy -495860.994938 kJ/mol
# GULP energy per Si atom -12396.524873 kJ/mol
# Density = 1.966247 g / cm^3
# Si number density = 19.707328 Si / 1000 Ang^3
#
#
#
# Elastic Constant Matrix: (Units=GPa)
#
#
# Indices 1 2 3 4 5 6 
#
# 1 106.2914 98.2816 40.7938 0.0000 0.0000 0.0000
# 2 98.2816 106.2913 40.7935 0.0000 0.0000 0.0000
# 3 40.7938 40.7935 162.1157 0.0000 0.0000 0.0000
# 4 0.0000 0.0000 0.0000 -3.7127 0.0000 0.0000
# 5 0.0000 0.0000 0.0000 0.0000 -3.7116 0.0000
# 6 0.0000 0.0000 0.0000 0.0000 0.0000 27.6936
#
#
#
# Elastic Compliance Matrix: (Units=1/GPa)
#
#
# Indices 1 2 3 4 5 6 
#
# 1 0.065140 -0.059707 -0.001367 0.000000 0.000000 0.000000
# 2 -0.059707 0.065140 -0.001367 0.000000 0.000000 0.000000
# 3 -0.001367 -0.001367 0.006857 0.000000 0.000000 0.000000
# 4 0.000000 0.000000 0.000000 -0.269349 0.000000 0.000000
# 5 0.000000 0.000000 0.000000 0.000000 -0.269423 0.000000
# 6 0.000000 0.000000 0.000000 0.000000 0.000000 0.036109
#
#
# Mechanical properties :
#
#
# Convention : Reuss Voigt Hill
#
# Bulk Modulus (GPa) = 81.60235 81.60404 81.60320
# Shear Modulus (GPa) = -21.13650 17.04251 -2.04700
#
# Velocity S-wave (km/s) = -3.27849 2.94390 -1.02027
# Velocity P-wave (km/s) = 5.21207 7.28377 6.33321
#
# Compressibility (1/GPa) = 0.01225455
#
# Stress axis : x y z
#
# Youngs Moduli (GPa) = 15.35145 15.35146 145.84646
#
# Poissons Ratio (x) = 0.91659 0.19943
# Poissons Ratio (y) = 0.91659 0.19939
# Poissons Ratio (z) = 0.02099 0.02099
#
# Static dielectric constant tensor:
#      x y z
#    x 3.235700 0.000000 0.000000 
#    y 0.000000 3.235710 0.000000 
#    z 0.000000 0.000000 3.673350 
# 
# 
# High freq. dielectric constant tensor:
#      x y z
#    x 1.762370 0.000000 0.000000 
#    y 0.000000 1.762370 0.000000 
#    z 0.000000 0.000000 1.768800 
# 
# From -- ./inp_files/4741.got.cif
#   From: 2010.03.12/outbox.cif.g09.slc.cpg/sg139_3_cif.got.tgz:4741.got - 2010.04.08 09:46:31.
