data_PCOD8319005
_publ_section_title
;
Structure prediction by ZEFSAII (Michael W. Deem and Ramdas Pophale) SiO2 
 PCOD8319005
Probable space group: P 42/N C M
;
_chemical_formula_sum "Si O2"
_cell_formula_units_Z 80
_cell_length_a 10.840341
_cell_length_b 10.840341
_cell_length_c 32.000931
_cell_angle_alpha 90.000000
_cell_angle_beta 90.000000
_cell_angle_gamma 90.000000
_cell_volume 3760.525180
_symmetry_space_group_name_H-M "P 42/N C M"
_symmetry_group_IT_number 138
_space_group.IT_coordinate_system_code '2'
_symmetry_cell_setting 'tetragonal'
loop_
_space_group_symop_operation_xyz
x,y,z
1/2-y,x,1/2+z
1/2-x,1/2-y,z
y,1/2-x,1/2+z
1/2+x,-y,1/2-z
-x,1/2+y,1/2-z
1/2+y,1/2+x,-z
-y,-x,-z
-x,-y,-z
1/2+y,-x,1/2-z
1/2+x,1/2+y,-z
-y,1/2+x,1/2-z
1/2-x,y,1/2+z
x,1/2-y,1/2+z
1/2-y,1/2-x,z
y,x,z
loop_
_atom_site_type_symbol
_atom_site_label
_atom_site_fract_x
_atom_site_fract_y
_atom_site_fract_z
Si Si1 0.684876 0.488119 0.974034
Si Si2 0.559456 0.747725 0.058796
Si Si3 0.588893 0.114357 0.188037
Si Si4 0.374797 0.584326 0.595173
Si Si5 0.952329 0.747987 0.740726
O O1 0.583216 0.583216 0.956746
O O2 0.759069 0.441864 0.934132
O O3 0.623463 0.376538 0.000000
O O4 0.772356 0.550947 0.008828
O O5 0.663425 0.836576 0.077370
O O6 0.604855 0.604855 0.066827
O O7 0.432922 0.783375 0.081762
O O8 0.606088 0.173985 0.142333
O O9 0.531277 0.217770 0.218052
O O10 0.497532 0.002469 0.182219
O O11 0.716021 0.053702 0.205629
O O12 0.472715 0.472715 0.590684
O O13 0.870697 0.629304 0.726262
O O14 0.863010 0.863010 0.751345
#
# Coordination Sequence:
#
# PCOD8319005 Si02
#       5
#    16  16  16  16  16
#     4  10  21  36  52  73 107 147 181 218 271 331
#     4   9  18  33  52  74 103 140 178 216 266 326
#     4   9  19  35  56  84 110 138 185 232 278 343
#     4  10  20  34  56  84 109 137 183 239 280 321
#     4   9  18  35  57  79 112 153 185 228 291 353
#
# _framework density 21.273624999999999
#
# number of rings (size 3 to 8) (size 9 to 14) (size 15 to 20)
#    0.000    2.600    0.000    1.200    0.000    6.400 
#    0.000   10.000    0.000    7.200    0.000    0.000 
#    0.000    0.000    0.000    0.000    0.000    0.000 
#
# Total GULP energy -991074.923629 kJ/mol
# GULP energy per Si atom -12388.436545 kJ/mol
# Density = 2.122521 g / cm^3
# Si number density = 21.273625 Si / 1000 Ang^3
#
#
#
# Elastic Constant Matrix: (Units=GPa)
#
#
# Indices 1 2 3 4 5 6 
#
# 1 82.5224 54.4098 64.2141 0.0000 0.0000 0.0000
# 2 54.4098 82.5232 64.2147 0.0000 0.0000 0.0000
# 3 64.2141 64.2147 167.6097 0.0000 0.0000 0.0000
# 4 0.0000 0.0000 0.0000 24.1593 0.0000 0.0000
# 5 0.0000 0.0000 0.0000 0.0000 24.1594 0.0000
# 6 0.0000 0.0000 0.0000 0.0000 0.0000 29.7746
#
#
#
# Elastic Compliance Matrix: (Units=1/GPa)
#
#
# Indices 1 2 3 4 5 6 
#
# 1 0.023485 -0.012086 -0.004367 0.000000 0.000000 0.000000
# 2 -0.012086 0.023485 -0.004367 0.000000 0.000000 0.000000
# 3 -0.004367 -0.004367 0.009312 0.000000 0.000000 0.000000
# 4 0.000000 0.000000 0.000000 0.041392 0.000000 0.000000
# 5 0.000000 0.000000 0.000000 0.000000 0.041392 0.000000
# 6 0.000000 0.000000 0.000000 0.000000 0.000000 0.033586
#
#
# Mechanical properties :
#
#
# Convention : Reuss Voigt Hill
#
# Bulk Modulus (GPa) = 68.29833 77.59249 72.94541
# Shear Modulus (GPa) = 22.81311 25.60643 24.20977
#
# Velocity S-wave (km/s) = 3.27825 3.47316 3.37711
# Velocity P-wave (km/s) = 6.81936 7.25510 7.04060
#
# Compressibility (1/GPa) = 0.01464165
#
# Stress axis : x y z
#
# Youngs Moduli (GPa) = 42.58070 42.58097 107.38309
#
# Poissons Ratio (x) = 0.51463 0.46895
# Poissons Ratio (y) = 0.51463 0.46895
# Poissons Ratio (z) = 0.18595 0.18596
#
# Static dielectric constant tensor:
#      x y z
#    x 3.912980 0.000000 0.000000 
#    y 0.000000 3.912980 0.000000 
#    z 0.000000 0.000000 3.953660 
# 
# 
# High freq. dielectric constant tensor:
#      x y z
#    x 1.833260 0.000000 0.000000 
#    y 0.000000 1.833260 0.000000 
#    z 0.000000 0.000000 1.815790 
# 
# From -- ./inp_files/7916.got.cif
#   From: 2010.03.12/outbox.cif.g09.slc.cpg/sg138_4_cif.got.tgz:7916.got - 2010.04.08 09:41:05.
