data_PCOD8319237
_publ_section_title
;
Structure prediction by ZEFSAII (Michael W. Deem and Ramdas Pophale) SiO2 
 PCOD8319237
Probable space group: P 42/N C M
;
_chemical_formula_sum "Si O2"
_cell_formula_units_Z 64
_cell_length_a 13.023844
_cell_length_b 13.023844
_cell_length_c 22.523810
_cell_angle_alpha 90.000000
_cell_angle_beta 90.000000
_cell_angle_gamma 90.000000
_cell_volume 3820.500196
_symmetry_space_group_name_H-M "P 42/N C M"
_symmetry_group_IT_number 138
_space_group.IT_coordinate_system_code '2'
_symmetry_cell_setting 'tetragonal'
loop_
_space_group_symop_operation_xyz
x,y,z
1/2-y,x,1/2+z
1/2-x,1/2-y,z
y,1/2-x,1/2+z
1/2+x,-y,1/2-z
-x,1/2+y,1/2-z
1/2+y,1/2+x,-z
-y,-x,-z
-x,-y,-z
1/2+y,-x,1/2-z
1/2+x,1/2+y,-z
-y,1/2+x,1/2-z
1/2-x,y,1/2+z
x,1/2-y,1/2+z
1/2-y,1/2-x,z
y,x,z
loop_
_atom_site_type_symbol
_atom_site_label
_atom_site_fract_x
_atom_site_fract_y
_atom_site_fract_z
Si Si1 0.181515 0.484739 0.243528
Si Si2 0.114389 0.558678 0.062300
Si Si3 0.083768 0.256334 0.622384
Si Si4 0.532764 0.365709 0.320108
O O1 0.258369 0.460145 0.189120
O O2 0.248773 0.515635 0.300386
O O3 0.114845 0.385156 0.260427
O O4 0.107709 0.578301 0.226245
O O5 0.225278 0.506334 0.076097
O O6 0.029764 0.470237 0.060063
O O7 0.084643 0.637180 0.114790
O O8 0.119503 0.619503 0.000000
O O9 0.132244 0.367757 0.606559
O O10 0.170304 0.170304 0.619327
O O11 0.424164 0.424164 0.322841
#
# Coordination Sequence:
#
# PCOD8319237 Si02
#       4
#    16  16  16  16
#     4   9  17  28  42  63  89 112 140 181 224 267
#     4   8  14  25  39  57  86 118 144 175 214 256
#     4   8  13  22  38  58  79 107 142 177 212 251
#     4   9  17  28  43  64  88 115 145 177 220 265
#
# _framework density 16.751733999999999
#
# number of rings (size 3 to 8) (size 9 to 14) (size 15 to 20)
#    0.000    3.500    0.000    3.750    0.000    2.000 
#    0.000    1.250    0.000    4.500    0.000   14.000 
#    0.000   18.000    0.000    0.000    0.000    0.000 
#
# Total GULP energy -793166.548287 kJ/mol
# GULP energy per Si atom -12393.227317 kJ/mol
# Density = 1.671361 g / cm^3
# Si number density = 16.751734 Si / 1000 Ang^3
#
#
#
# Elastic Constant Matrix: (Units=GPa)
#
#
# Indices 1 2 3 4 5 6 
#
# 1 65.9767 32.7483 50.1412 0.0000 0.0000 0.0000
# 2 32.7483 65.9767 50.1412 0.0000 0.0000 0.0000
# 3 50.1412 50.1412 113.1026 0.0000 0.0000 0.0000
# 4 0.0000 0.0000 0.0000 17.5664 0.0000 0.0000
# 5 0.0000 0.0000 0.0000 0.0000 17.5664 0.0000
# 6 0.0000 0.0000 0.0000 0.0000 0.0000 23.1383
#
#
#
# Elastic Compliance Matrix: (Units=1/GPa)
#
#
# Indices 1 2 3 4 5 6 
#
# 1 0.024261 -0.005834 -0.008169 0.000000 0.000000 0.000000
# 2 -0.005834 0.024261 -0.008169 0.000000 0.000000 0.000000
# 3 -0.008169 -0.008169 0.016085 0.000000 0.000000 0.000000
# 4 0.000000 0.000000 0.000000 0.056927 0.000000 0.000000
# 5 0.000000 0.000000 0.000000 0.000000 0.056927 0.000000
# 6 0.000000 0.000000 0.000000 0.000000 0.000000 0.043218
#
#
# Mechanical properties :
#
#
# Convention : Reuss Voigt Hill
#
# Bulk Modulus (GPa) = 49.35274 56.79084 53.07179
# Shear Modulus (GPa) = 18.32995 19.12258 18.72626
#
# Velocity S-wave (km/s) = 3.31148 3.38232 3.34708
# Velocity P-wave (km/s) = 6.64428 7.01630 6.83282
#
# Compressibility (1/GPa) = 0.02026230
#
# Stress axis : x y z
#
# Youngs Moduli (GPa) = 41.21831 41.21831 62.17035
#
# Poissons Ratio (x) = 0.24046 0.50789
# Poissons Ratio (y) = 0.24046 0.50789
# Poissons Ratio (z) = 0.33672 0.33672
#
# Static dielectric constant tensor:
#      x y z
#    x 2.997080 0.000000 0.000000 
#    y 0.000000 2.997080 0.000000 
#    z 0.000000 0.000000 3.177690 
# 
# 
# High freq. dielectric constant tensor:
#      x y z
#    x 1.621730 0.000000 0.000000 
#    y 0.000000 1.621730 0.000000 
#    z 0.000000 0.000000 1.627640 
# 
# From -- ./inp_files/4904.got.cif
#   From: 2010.03.12/outbox.cif.g09.slc.cpg/sg138_3_cif.got.tgz:4904.got - 2010.04.08 09:41:05.
