data_PCOD8319387
_publ_section_title
;
Structure prediction by ZEFSAII (Michael W. Deem and Ramdas Pophale) SiO2 
 PCOD8319387
Probable space group: I 4/M M M
;
_chemical_formula_sum "Si O2"
_cell_formula_units_Z 144
_cell_length_a 21.132352
_cell_length_b 21.132352
_cell_length_c 18.265943
_cell_angle_alpha 90.000000
_cell_angle_beta 90.000000
_cell_angle_gamma 90.000000
_cell_volume 8157.137260
_symmetry_space_group_name_H-M "I 4/M M M"
_symmetry_group_IT_number 139
_symmetry_cell_setting 'tetragonal'
loop_
_space_group_symop_operation_xyz
x,y,z
-y,x,z
-x,-y,z
y,-x,z
x,-y,-z
-x,y,-z
y,x,-z
-y,-x,-z
-x,-y,-z
y,-x,-z
x,y,-z
-y,x,-z
-x,y,z
x,-y,z
-y,-x,z
y,x,z
1/2+x,1/2+y,1/2+z
1/2-y,1/2+x,1/2+z
1/2-x,1/2-y,1/2+z
1/2+y,1/2-x,1/2+z
1/2+x,1/2-y,1/2-z
1/2-x,1/2+y,1/2-z
1/2+y,1/2+x,1/2-z
1/2-y,1/2-x,1/2-z
1/2-x,1/2-y,1/2-z
1/2+y,1/2-x,1/2-z
1/2+x,1/2+y,1/2-z
1/2-y,1/2+x,1/2-z
1/2-x,1/2+y,1/2+z
1/2+x,1/2-y,1/2+z
1/2-y,1/2-x,1/2+z
1/2+y,1/2+x,1/2+z
loop_
_atom_site_type_symbol
_atom_site_label
_atom_site_fract_x
_atom_site_fract_y
_atom_site_fract_z
Si Si1 0.161446 0.735936 0.811100
Si Si2 0.572258 0.670284 0.767381
Si Si3 0.224939 0.928817 0.420318
Si Si4 0.000000 0.426994 0.586774
Si Si5 0.373433 0.858728 0.916782
O O1 0.213500 0.786501 0.841964
O O2 0.192757 0.692757 0.750000
O O3 0.102638 0.770989 0.774256
O O4 0.129573 0.691580 0.872833
O O5 0.500000 0.666301 0.744236
O O6 0.605321 0.605321 0.742935
O O7 0.582841 0.676146 0.854918
O O8 0.191902 0.917592 0.500000
O O9 0.283670 0.882252 0.412563
O O10 0.252239 0.000000 0.416076
O O11 0.064811 0.394561 0.617212
O O12 0.000000 0.500000 0.611233
O O13 0.000000 0.418386 0.500000
O O14 0.362803 0.881958 0.000000
#
# Coordination Sequence:
#
# PCOD8319387 Si02
#       5
#    32  32  32  16  32
#     4  10  20  34  50  72 103 136 169 210 261 305
#     4  10  21  36  54  75 100 134 171 213 264 312
#     4   9  16  28  48  74 102 134 174 208 241 293
#     4   9  18  32  50  74 104 138 174 208 244 292
#     4  10  18  30  52  76 102 138 174 208 247 293
#
# _framework density 17.653251999999998
#
# number of rings (size 3 to 8) (size 9 to 14) (size 15 to 20)
#    0.000    2.333    3.333    0.000    0.000    2.000 
#    0.000    2.222    0.000    0.000    0.000    3.111 
#    0.000    0.000    0.000    4.889    0.000    0.000 
#
# Total GULP energy -892375.503354 kJ/mol
# GULP energy per Si atom -12394.104213 kJ/mol
# Density = 1.761307 g / cm^3
# Si number density = 17.653252 Si / 1000 Ang^3
#
#
#
# Elastic Constant Matrix: (Units=GPa)
#
#
# Indices 1 2 3 4 5 6 
#
# 1 110.8310 57.8723 42.5834 0.0000 0.0000 0.0000
# 2 57.8723 110.8310 42.5834 0.0000 0.0000 0.0000
# 3 42.5834 42.5834 65.7318 0.0000 0.0000 0.0000
# 4 0.0000 0.0000 0.0000 20.7776 0.0000 0.0000
# 5 0.0000 0.0000 0.0000 0.0000 20.7776 0.0000
# 6 0.0000 0.0000 0.0000 0.0000 0.0000 17.2771
#
#
#
# Elastic Compliance Matrix: (Units=1/GPa)
#
#
# Indices 1 2 3 4 5 6 
#
# 1 0.013845 -0.005037 -0.005706 0.000000 0.000000 0.000000
# 2 -0.005037 0.013845 -0.005706 0.000000 0.000000 0.000000
# 3 -0.005706 -0.005706 0.022607 0.000000 0.000000 0.000000
# 4 0.000000 0.000000 0.000000 0.048129 0.000000 0.000000
# 5 0.000000 0.000000 0.000000 0.000000 0.048129 0.000000
# 6 0.000000 0.000000 0.000000 0.000000 0.000000 0.057880
#
#
# Mechanical properties :
#
#
# Convention : Reuss Voigt Hill
#
# Bulk Modulus (GPa) = 57.47737 63.71910 60.59824
# Shear Modulus (GPa) = 20.56475 21.39011 20.97743
#
# Velocity S-wave (km/s) = 3.41681 3.48470 3.45092
# Velocity P-wave (km/s) = 6.94232 7.23630 7.09083
#
# Compressibility (1/GPa) = 0.01739815
#
# Stress axis : x y z
#
# Youngs Moduli (GPa) = 72.22576 72.22576 44.23435
#
# Poissons Ratio (x) = 0.36381 0.25242
# Poissons Ratio (y) = 0.36381 0.25242
# Poissons Ratio (z) = 0.41214 0.41214
#
# Static dielectric constant tensor:
#      x y z
#    x 3.195470 0.000000 0.000000 
#    y 0.000000 3.195470 0.000000 
#    z 0.000000 0.000000 3.169630 
# 
# 
# High freq. dielectric constant tensor:
#      x y z
#    x 1.674160 0.000000 0.000000 
#    y 0.000000 1.674160 0.000000 
#    z 0.000000 0.000000 1.656480 
# 
# From -- ./inp_files/8179.got.cif
#   From: 2010.03.12/outbox.cif.g09.slc.cpg/sg139_5_cif.got.tgz:8179.got - 2010.04.08 09:46:31.
