data_PCOD8319680
_publ_section_title
;
Structure prediction by ZEFSAII (Michael W. Deem and Ramdas Pophale) SiO2 
 PCOD8319680
Probable space group: I 4/M M M
;
_chemical_formula_sum "Si O2"
_cell_formula_units_Z 176
_cell_length_a 26.195659
_cell_length_b 26.195659
_cell_length_c 13.855355
_cell_angle_alpha 90.000000
_cell_angle_beta 90.000000
_cell_angle_gamma 90.000000
_cell_volume 9507.718492
_symmetry_space_group_name_H-M "I 4/M M M"
_symmetry_group_IT_number 139
_symmetry_cell_setting 'tetragonal'
loop_
_space_group_symop_operation_xyz
x,y,z
-y,x,z
-x,-y,z
y,-x,z
x,-y,-z
-x,y,-z
y,x,-z
-y,-x,-z
-x,-y,-z
y,-x,-z
x,y,-z
-y,x,-z
-x,y,z
x,-y,z
-y,-x,z
y,x,z
1/2+x,1/2+y,1/2+z
1/2-y,1/2+x,1/2+z
1/2-x,1/2-y,1/2+z
1/2+y,1/2-x,1/2+z
1/2+x,1/2-y,1/2-z
1/2-x,1/2+y,1/2-z
1/2+y,1/2+x,1/2-z
1/2-y,1/2-x,1/2-z
1/2-x,1/2-y,1/2-z
1/2+y,1/2-x,1/2-z
1/2+x,1/2+y,1/2-z
1/2-y,1/2+x,1/2-z
1/2-x,1/2+y,1/2+z
1/2+x,1/2-y,1/2+z
1/2-y,1/2-x,1/2+z
1/2+y,1/2+x,1/2+z
loop_
_atom_site_type_symbol
_atom_site_label
_atom_site_fract_x
_atom_site_fract_y
_atom_site_fract_z
Si Si1 0.306338 0.306338 0.116089
Si Si2 0.366599 0.116420 0.358534
Si Si3 0.307278 0.500000 0.111691
Si Si4 0.731408 0.881359 0.106758
Si Si5 0.226797 0.773204 0.887987
Si Si6 0.580353 0.500000 0.885005
Si Si7 0.748605 0.904692 0.314838
Si Si8 0.439561 0.059858 0.000000
O O1 0.266017 0.266017 0.160561
O O2 0.359346 0.287659 0.160831
O O3 0.310103 0.310103 0.000000
O O4 0.384372 0.115629 0.250000
O O5 0.370879 0.171750 0.406163
O O6 0.306862 0.101430 0.365376
O O7 0.407065 0.078801 0.408582
O O8 0.363160 0.500000 0.162173
O O9 0.273949 0.547434 0.138729
O O10 0.318630 0.500000 0.000000
O O11 0.760415 0.830554 0.140461
O O12 0.742567 0.917009 0.199220
O O13 0.750663 0.901220 0.000000
O O14 0.235314 0.764687 0.000000
O O15 0.550532 0.550532 0.848750
O O16 0.581828 0.500000 0.000000
O O17 0.500000 0.058232 0.000000
O O18 0.419359 0.000000 0.000000
#
# Coordination Sequence:
#
# PCOD8319680 Si02
#       8
#    16  32  16  32  16  16  32  16
#     4  11  21  33  56  88 126 158 193 230 287 346
#     4  10  22  39  60  85 114 145 188 235 296 351
#     4  11  25  38  54  85 123 156 196 232 299 351
#     4  10  19  37  57  83 116 154 194 235 279 346
#     4   9  17  29  55  84 115 151 189 223 274 344
#     4   8  16  35  60  81 109 156 202 236 272 327
#     4  11  24  36  56  88 120 159 194 236 292 355
#     4  11  26  44  64  83 102 142 194 243 298 344
#
# _framework density 18.511275000000001
#
# number of rings (size 3 to 8) (size 9 to 14) (size 15 to 20)
#    0.000    1.818    2.727    1.364    5.091    1.455 
#    4.909    1.364    0.000    0.000    0.000    0.000 
#    0.000    0.000    0.000    4.000    0.000    0.364 
#
# Total GULP energy -1090224.005684 kJ/mol
# GULP energy per Si atom -12388.909155 kJ/mol
# Density = 1.846914 g / cm^3
# Si number density = 18.511275 Si / 1000 Ang^3
#
#
#
# Elastic Constant Matrix: (Units=GPa)
#
#
# Indices 1 2 3 4 5 6 
#
# 1 105.9587 44.2079 26.3409 0.0000 0.0000 0.0000
# 2 44.2079 105.9561 26.3411 0.0000 0.0000 0.0000
# 3 26.3409 26.3411 96.0507 0.0000 0.0000 0.0000
# 4 0.0000 0.0000 0.0000 22.7778 0.0000 0.0000
# 5 0.0000 0.0000 0.0000 0.0000 22.7772 0.0000
# 6 0.0000 0.0000 0.0000 0.0000 0.0000 19.5438
#
#
#
# Elastic Compliance Matrix: (Units=1/GPa)
#
#
# Indices 1 2 3 4 5 6 
#
# 1 0.011781 -0.004413 -0.002021 0.000000 0.000000 0.000000
# 2 -0.004413 0.011782 -0.002021 0.000000 0.000000 0.000000
# 3 -0.002021 -0.002021 0.011519 0.000000 0.000000 0.000000
# 4 0.000000 0.000000 0.000000 0.043902 0.000000 0.000000
# 5 0.000000 0.000000 0.000000 0.000000 0.043904 0.000000
# 6 0.000000 0.000000 0.000000 0.000000 0.000000 0.051167
#
#
# Mechanical properties :
#
#
# Convention : Reuss Voigt Hill
#
# Bulk Modulus (GPa) = 55.02588 55.74946 55.38767
# Shear Modulus (GPa) = 25.37787 27.09145 26.23466
#
# Velocity S-wave (km/s) = 3.70664 3.82974 3.76869
# Velocity P-wave (km/s) = 6.93607 7.05250 6.99452
#
# Compressibility (1/GPa) = 0.01817327
#
# Stress axis : x y z
#
# Youngs Moduli (GPa) = 84.88113 84.87880 86.80955
#
# Poissons Ratio (x) = 0.37458 0.17541
# Poissons Ratio (y) = 0.37459 0.17542
# Poissons Ratio (z) = 0.17151 0.17152
#
# Static dielectric constant tensor:
#      x y z
#    x 3.253260 0.000000 0.000000 
#    y 0.000000 3.253250 0.000000 
#    z 0.000000 0.000000 3.557580 
# 
# 
# High freq. dielectric constant tensor:
#      x y z
#    x 1.708480 0.000000 0.000000 
#    y 0.000000 1.708480 0.000000 
#    z 0.000000 0.000000 1.722250 
# 
# From -- ./inp_files/6480.got.cif
#   From: 2010.03.12/outbox.cif.g09.slc.cpg/sg139_4_cif.got.tgz:6480.got - 2010.04.08 09:46:31.
