data_PCOD8319741
_publ_section_title
;
Structure prediction by ZEFSAII (Michael W. Deem and Ramdas Pophale) SiO2 
 PCOD8319741
Probable space group: I 4/M M M
;
_chemical_formula_sum "Si O2"
_cell_formula_units_Z 112
_cell_length_a 13.223326
_cell_length_b 13.223326
_cell_length_c 36.138264
_cell_angle_alpha 90.000000
_cell_angle_beta 90.000000
_cell_angle_gamma 90.000000
_cell_volume 6319.004957
_symmetry_space_group_name_H-M "I 4/M M M"
_symmetry_group_IT_number 139
_symmetry_cell_setting 'tetragonal'
loop_
_space_group_symop_operation_xyz
x,y,z
-y,x,z
-x,-y,z
y,-x,z
x,-y,-z
-x,y,-z
y,x,-z
-y,-x,-z
-x,-y,-z
y,-x,-z
x,y,-z
-y,x,-z
-x,y,z
x,-y,z
-y,-x,z
y,x,z
1/2+x,1/2+y,1/2+z
1/2-y,1/2+x,1/2+z
1/2-x,1/2-y,1/2+z
1/2+y,1/2-x,1/2+z
1/2+x,1/2-y,1/2-z
1/2-x,1/2+y,1/2-z
1/2+y,1/2+x,1/2-z
1/2-y,1/2-x,1/2-z
1/2-x,1/2-y,1/2-z
1/2+y,1/2-x,1/2-z
1/2+x,1/2+y,1/2-z
1/2-y,1/2+x,1/2-z
1/2-x,1/2+y,1/2+z
1/2+x,1/2-y,1/2+z
1/2-y,1/2-x,1/2+z
1/2+y,1/2+x,1/2+z
loop_
_atom_site_type_symbol
_atom_site_label
_atom_site_fract_x
_atom_site_fract_y
_atom_site_fract_z
Si Si1 0.887375 0.619845 0.357392
Si Si2 0.781051 0.381254 0.567733
Si Si3 0.617959 0.219083 0.717153
Si Si4 0.116939 0.715720 0.500000
O O1 0.895392 0.500000 0.357022
O O2 0.827553 0.656132 0.393544
O O3 0.829423 0.657650 0.320990
O O4 0.000000 0.667109 0.357841
O O5 0.759190 0.500000 0.567172
O O6 0.674431 0.325570 0.561171
O O7 0.859688 0.352196 0.535791
O O8 0.500000 0.244447 0.715651
O O9 0.676184 0.323817 0.724318
O O10 0.640054 0.140054 0.750000
O O11 0.181256 0.818745 0.500000
O O12 0.000000 0.746440 0.500000
#
# Coordination Sequence:
#
# PCOD8319741 Si02
#       4
#    32  32  32  16
#     4   9  17  30  49  71  95 126 164 205 247 289
#     4  10  20  33  50  74 103 135 171 208 248 296
#     4  10  20  33  50  73 100 131 168 208 251 301
#     4  10  21  36  54  76 100 128 165 208 254 304
#
# _framework density 17.724309000000002
#
# number of rings (size 3 to 8) (size 9 to 14) (size 15 to 20)
#    0.000    2.286    0.000    3.000    0.000    4.429 
#    0.000    0.000    0.000    7.714    0.000    0.000 
#    0.000   20.571    0.000    0.000    0.000    0.000 
#
# Total GULP energy -694525.213404 kJ/mol
# GULP energy per Si atom -12402.235954 kJ/mol
# Density = 1.768397 g / cm^3
# Si number density = 17.724309 Si / 1000 Ang^3
#
#
#
# Elastic Constant Matrix: (Units=GPa)
#
#
# Indices 1 2 3 4 5 6 
#
# 1 92.6418 38.2847 34.6454 0.0000 0.0000 0.0000
# 2 38.2847 92.6430 34.6458 0.0000 0.0000 0.0000
# 3 34.6454 34.6458 148.9250 0.0000 0.0000 0.0000
# 4 0.0000 0.0000 0.0000 26.9147 0.0000 0.0000
# 5 0.0000 0.0000 0.0000 0.0000 26.9149 0.0000
# 6 0.0000 0.0000 0.0000 0.0000 0.0000 14.6613
#
#
#
# Elastic Compliance Matrix: (Units=1/GPa)
#
#
# Indices 1 2 3 4 5 6 
#
# 1 0.013554 -0.004843 -0.002026 0.000000 0.000000 0.000000
# 2 -0.004843 0.013553 -0.002026 0.000000 0.000000 0.000000
# 3 -0.002026 -0.002026 0.007658 0.000000 0.000000 0.000000
# 4 0.000000 0.000000 0.000000 0.037154 0.000000 0.000000
# 5 0.000000 0.000000 0.000000 0.000000 0.037154 0.000000
# 6 0.000000 0.000000 0.000000 0.000000 0.000000 0.068207
#
#
# Mechanical properties :
#
#
# Convention : Reuss Voigt Hill
#
# Bulk Modulus (GPa) = 58.91797 61.04017 59.97907
# Shear Modulus (GPa) = 24.90918 28.80711 26.85814
#
# Velocity S-wave (km/s) = 3.75289 4.03586 3.89694
# Velocity P-wave (km/s) = 7.21751 7.49873 7.35946
#
# Compressibility (1/GPa) = 0.01697275
#
# Stress axis : x y z
#
# Youngs Moduli (GPa) = 73.78157 73.78242 130.58929
#
# Poissons Ratio (x) = 0.35734 0.26462
# Poissons Ratio (y) = 0.35734 0.26462
# Poissons Ratio (z) = 0.14951 0.14951
#
# Static dielectric constant tensor:
#      x y z
#    x 3.086700 0.000000 0.000000 
#    y 0.000000 3.086700 0.000000 
#    z 0.000000 0.000000 3.582390 
# 
# 
# High freq. dielectric constant tensor:
#      x y z
#    x 1.672280 0.000000 0.000000 
#    y 0.000000 1.672280 0.000000 
#    z 0.000000 0.000000 1.708230 
# 
# From -- ./inp_files/13742.got.cif
#   From: 2010.03.12/outbox.cif.g09.slc.cpg/sg139_7_cif.got.tgz:13742.got - 2010.04.08 09:46:31.
