data_PCOD8319414
_publ_section_title
;
Structure prediction by ZEFSAII (Michael W. Deem and Ramdas Pophale) SiO2 
 PCOD8319414
Probable space group: I 4/M M M
;
_chemical_formula_sum "Si O2"
_cell_formula_units_Z 128
_cell_length_a 20.253734
_cell_length_b 20.253734
_cell_length_c 18.358949
_cell_angle_alpha 90.000000
_cell_angle_beta 90.000000
_cell_angle_gamma 90.000000
_cell_volume 7531.093149
_symmetry_space_group_name_H-M "I 4/M M M"
_symmetry_group_IT_number 139
_symmetry_cell_setting 'tetragonal'
loop_
_space_group_symop_operation_xyz
x,y,z
-y,x,z
-x,-y,z
y,-x,z
x,-y,-z
-x,y,-z
y,x,-z
-y,-x,-z
-x,-y,-z
y,-x,-z
x,y,-z
-y,x,-z
-x,y,z
x,-y,z
-y,-x,z
y,x,z
1/2+x,1/2+y,1/2+z
1/2-y,1/2+x,1/2+z
1/2-x,1/2-y,1/2+z
1/2+y,1/2-x,1/2+z
1/2+x,1/2-y,1/2-z
1/2-x,1/2+y,1/2-z
1/2+y,1/2+x,1/2-z
1/2-y,1/2-x,1/2-z
1/2-x,1/2-y,1/2-z
1/2+y,1/2-x,1/2-z
1/2+x,1/2+y,1/2-z
1/2-y,1/2+x,1/2-z
1/2-x,1/2+y,1/2+z
1/2+x,1/2-y,1/2+z
1/2-y,1/2-x,1/2+z
1/2+y,1/2+x,1/2+z
loop_
_atom_site_type_symbol
_atom_site_label
_atom_site_fract_x
_atom_site_fract_y
_atom_site_fract_z
Si Si1 0.845585 0.154416 0.804572
Si Si2 0.422711 0.921701 0.500000
Si Si3 0.423457 0.423457 0.578883
Si Si4 0.657483 0.143219 0.629941
Si Si5 0.262402 0.737598 0.417349
Si Si6 0.423203 0.772804 0.742479
O O1 0.891934 0.108067 0.850997
O O2 0.804229 0.195772 0.861690
O O3 0.798639 0.111544 0.752274
O O4 0.500000 0.901011 0.500000
O O5 0.386213 0.892859 0.570024
O O6 0.415574 0.000000 0.500000
O O7 0.500000 0.407885 0.583122
O O8 0.396857 0.396857 0.500000
O O9 0.718589 0.185629 0.596477
O O10 0.607487 0.189192 0.674186
O O11 0.688484 0.088016 0.682412
O O12 0.280808 0.719192 0.500000
O O13 0.500000 0.763581 0.728200
#
# Coordination Sequence:
#
# PCOD8319414 Si02
#       6
#    16  16  16  32  16  32
#     4  10  19  30  49  73 100 129 171 203 247 297
#     4  11  22  35  52  74 100 131 168 207 246 298
#     4   9  17  29  44  65  99 139 173 207 248 295
#     4  10  20  35  53  74 100 132 167 205 252 299
#     4  10  18  32  52  74  98 127 158 206 250 294
#     4  10  20  34  52  74 102 133 166 207 250 295
#
# _framework density 16.996205
#
# number of rings (size 3 to 8) (size 9 to 14) (size 15 to 20)
#    0.000    2.000    1.250    3.750    0.000    3.000 
#    0.000    0.000    0.000    6.000    0.000    0.000 
#    0.000    0.000    0.000    1.125    0.000    0.000 
#
# Total GULP energy -793351.724331 kJ/mol
# GULP energy per Si atom -12396.120693 kJ/mol
# Density = 1.695752 g / cm^3
# Si number density = 16.996205 Si / 1000 Ang^3
#
#
#
# Elastic Constant Matrix: (Units=GPa)
#
#
# Indices 1 2 3 4 5 6 
#
# 1 100.3761 52.3882 47.9735 0.0000 0.0000 0.0000
# 2 52.3882 100.3761 47.9735 0.0000 0.0000 0.0000
# 3 47.9735 47.9735 96.8656 0.0000 0.0000 0.0000
# 4 0.0000 0.0000 0.0000 21.4476 0.0000 0.0000
# 5 0.0000 0.0000 0.0000 0.0000 21.4476 0.0000
# 6 0.0000 0.0000 0.0000 0.0000 0.0000 28.4498
#
#
#
# Elastic Compliance Matrix: (Units=1/GPa)
#
#
# Indices 1 2 3 4 5 6 
#
# 1 0.015170 -0.005669 -0.004706 0.000000 0.000000 0.000000
# 2 -0.005669 0.015170 -0.004706 0.000000 0.000000 0.000000
# 3 -0.004706 -0.004706 0.014985 0.000000 0.000000 0.000000
# 4 0.000000 0.000000 0.000000 0.046625 0.000000 0.000000
# 5 0.000000 0.000000 0.000000 0.000000 0.046625 0.000000
# 6 0.000000 0.000000 0.000000 0.000000 0.000000 0.035150
#
#
# Mechanical properties :
#
#
# Convention : Reuss Voigt Hill
#
# Bulk Modulus (GPa) = 65.94176 66.03204 65.98690
# Shear Modulus (GPa) = 23.93034 24.22118 24.07576
#
# Velocity S-wave (km/s) = 3.75638 3.77914 3.76777
# Velocity P-wave (km/s) = 7.59579 7.61432 7.60506
#
# Compressibility (1/GPa) = 0.01516490
#
# Stress axis : x y z
#
# Youngs Moduli (GPa) = 65.91925 65.91925 66.73478
#
# Poissons Ratio (x) = 0.37366 0.31404
# Poissons Ratio (y) = 0.37366 0.31404
# Poissons Ratio (z) = 0.31020 0.31020
#
# Static dielectric constant tensor:
#      x y z
#    x 3.254290 0.000000 0.000000 
#    y 0.000000 3.254290 0.000000 
#    z 0.000000 0.000000 2.742290 
# 
# 
# High freq. dielectric constant tensor:
#      x y z
#    x 1.654850 0.000000 0.000000 
#    y 0.000000 1.654850 0.000000 
#    z 0.000000 0.000000 1.656020 
# 
# From -- ./inp_files/8086.got.cif
#   From: 2010.03.12/outbox.cif.g09.slc.cpg/sg139_5_cif.got.tgz:8086.got - 2010.04.08 09:46:31.
