data_PCOD8319335
_publ_section_title
;
Structure prediction by ZEFSAII (Michael W. Deem and Ramdas Pophale) SiO2 
 PCOD8319335
Probable space group: I 4/M M M
;
_chemical_formula_sum "Si O2"
_cell_formula_units_Z 112
_cell_length_a 25.583835
_cell_length_b 25.583835
_cell_length_c 8.764510
_cell_angle_alpha 90.000000
_cell_angle_beta 90.000000
_cell_angle_gamma 90.000000
_cell_volume 5736.657635
_symmetry_space_group_name_H-M "I 4/M M M"
_symmetry_group_IT_number 139
_symmetry_cell_setting 'tetragonal'
loop_
_space_group_symop_operation_xyz
x,y,z
-y,x,z
-x,-y,z
y,-x,z
x,-y,-z
-x,y,-z
y,x,-z
-y,-x,-z
-x,-y,-z
y,-x,-z
x,y,-z
-y,x,-z
-x,y,z
x,-y,z
-y,-x,z
y,x,z
1/2+x,1/2+y,1/2+z
1/2-y,1/2+x,1/2+z
1/2-x,1/2-y,1/2+z
1/2+y,1/2-x,1/2+z
1/2+x,1/2-y,1/2-z
1/2-x,1/2+y,1/2-z
1/2+y,1/2+x,1/2-z
1/2-y,1/2-x,1/2-z
1/2-x,1/2-y,1/2-z
1/2+y,1/2-x,1/2-z
1/2+x,1/2+y,1/2-z
1/2-y,1/2+x,1/2-z
1/2-x,1/2+y,1/2+z
1/2+x,1/2-y,1/2+z
1/2-y,1/2-x,1/2+z
1/2+y,1/2+x,1/2+z
loop_
_atom_site_type_symbol
_atom_site_label
_atom_site_fract_x
_atom_site_fract_y
_atom_site_fract_z
Si Si1 0.560288 0.858725 0.681041
Si Si2 0.753516 0.901807 0.180843
Si Si3 0.361059 0.556903 0.681071
Si Si4 0.710637 0.289364 0.319164
O O1 0.566080 0.860198 0.500000
O O2 0.500000 0.867037 0.729864
O O3 0.594876 0.905125 0.750000
O O4 0.579827 0.802510 0.747535
O O5 0.800838 0.939049 0.236195
O O6 0.770948 0.845364 0.242779
O O7 0.748473 0.902296 0.000000
O O8 0.362012 0.563543 0.500000
O O9 0.382320 0.500000 0.730391
O O10 0.398561 0.601440 0.753768
O O11 0.710802 0.289199 0.500000
O O12 0.750000 0.250000 0.250000
#
# Coordination Sequence:
#
# PCOD8319335 Si02
#       4
#    32  32  32  16
#     4  10  21  36  54  75  99 130 167 206 249 297
#     4   9  16  29  46  67  94 125 162 200 240 289
#     4   9  15  23  37  59  90 128 166 200 235 279
#     4  10  18  28  46  70  97 127 157 193 238 286
#
# _framework density 19.523564
#
# number of rings (size 3 to 8) (size 9 to 14) (size 15 to 20)
#    0.000    2.571    1.429    1.714    0.000    4.571 
#    0.000    2.857    0.000    0.000    0.000    0.000 
#    0.000    0.000    0.000    0.000    0.000    2.571 
#
# Total GULP energy -693886.761307 kJ/mol
# GULP energy per Si atom -12390.835023 kJ/mol
# Density = 1.947913 g / cm^3
# Si number density = 19.523564 Si / 1000 Ang^3
#
#
#
# Elastic Constant Matrix: (Units=GPa)
#
#
# Indices 1 2 3 4 5 6 
#
# 1 173.3325 102.6214 15.5695 0.0000 0.0000 0.0000
# 2 102.6214 173.3283 15.5714 0.0000 0.0000 0.0000
# 3 15.5695 15.5714 4.9075 0.0000 0.0000 0.0000
# 4 0.0000 0.0000 0.0000 16.3592 0.0000 0.0000
# 5 0.0000 0.0000 0.0000 0.0000 16.3595 0.0000
# 6 0.0000 0.0000 0.0000 0.0000 0.0000 32.0588
#
#
#
# Elastic Compliance Matrix: (Units=1/GPa)
#
#
# Indices 1 2 3 4 5 6 
#
# 1 0.009893 -0.004249 -0.017905 0.000000 0.000000 0.000000
# 2 -0.004249 0.009894 -0.017915 0.000000 0.000000 0.000000
# 3 -0.017905 -0.017915 0.317419 0.000000 0.000000 0.000000
# 4 0.000000 0.000000 0.000000 0.061128 0.000000 0.000000
# 5 0.000000 0.000000 0.000000 0.000000 0.061126 0.000000
# 6 0.000000 0.000000 0.000000 0.000000 0.000000 0.031193
#
#
# Mechanical properties :
#
#
# Convention : Reuss Voigt Hill
#
# Bulk Modulus (GPa) = 3.89002 68.78813 36.33907
# Shear Modulus (GPa) = 7.61637 27.47592 17.54614
#
# Velocity S-wave (km/s) = 1.97727 3.75550 3.00111
# Velocity P-wave (km/s) = 2.68507 7.35628 5.53735
#
# Compressibility (1/GPa) = 0.25706797
#
# Stress axis : x y z
#
# Youngs Moduli (GPa) = 101.08073 101.06759 3.15041
#
# Poissons Ratio (x) = 0.42941 0.05641
# Poissons Ratio (y) = 0.42947 0.05644
# Poissons Ratio (z) = 1.80990 1.81063
#
# Static dielectric constant tensor:
#      x y z
#    x 3.748810 0.000000 0.000000 
#    y 0.000000 3.748810 0.000000 
#    z 0.000000 0.000000 2.861390 
# 
# 
# High freq. dielectric constant tensor:
#      x y z
#    x 1.776900 0.000000 0.000000 
#    y 0.000000 1.776900 0.000000 
#    z 0.000000 0.000000 1.679280 
# 
# From -- ./inp_files/3229.got.cif
#   From: 2010.03.12/outbox.cif.g09.slc.cpg/sg139_2_cif.got.tgz:3229.got - 2010.04.08 09:46:31.
