data_PCOD8319694
_publ_section_title
;
Structure prediction by ZEFSAII (Michael W. Deem and Ramdas Pophale) SiO2 
 PCOD8319694
Probable space group: I 4/M M M
;
_chemical_formula_sum "Si O2"
_cell_formula_units_Z 160
_cell_length_a 23.367637
_cell_length_b 23.367637
_cell_length_c 18.105541
_cell_angle_alpha 90.000000
_cell_angle_beta 90.000000
_cell_angle_gamma 90.000000
_cell_volume 9886.466551
_symmetry_space_group_name_H-M "I 4/M M M"
_symmetry_group_IT_number 139
_symmetry_cell_setting 'tetragonal'
loop_
_space_group_symop_operation_xyz
x,y,z
-y,x,z
-x,-y,z
y,-x,z
x,-y,-z
-x,y,-z
y,x,-z
-y,-x,-z
-x,-y,-z
y,-x,-z
x,y,-z
-y,x,-z
-x,y,z
x,-y,z
-y,-x,z
y,x,z
1/2+x,1/2+y,1/2+z
1/2-y,1/2+x,1/2+z
1/2-x,1/2-y,1/2+z
1/2+y,1/2-x,1/2+z
1/2+x,1/2-y,1/2-z
1/2-x,1/2+y,1/2-z
1/2+y,1/2+x,1/2-z
1/2-y,1/2-x,1/2-z
1/2-x,1/2-y,1/2-z
1/2+y,1/2-x,1/2-z
1/2+x,1/2+y,1/2-z
1/2-y,1/2+x,1/2-z
1/2-x,1/2+y,1/2+z
1/2+x,1/2-y,1/2+z
1/2-y,1/2-x,1/2+z
1/2+y,1/2+x,1/2+z
loop_
_atom_site_type_symbol
_atom_site_label
_atom_site_fract_x
_atom_site_fract_y
_atom_site_fract_z
Si Si1 0.903990 0.564256 0.086603
Si Si2 0.245751 0.664207 0.414925
Si Si3 0.437231 0.792325 0.174996
Si Si4 0.150046 0.758783 0.581924
Si Si5 0.819341 0.564552 0.338085
O O1 0.929137 0.500000 0.105155
O O2 0.838006 0.565145 0.108909
O O3 0.934404 0.616077 0.129708
O O4 0.910117 0.576805 0.000000
O O5 0.254977 0.648727 0.500000
O O6 0.304145 0.695856 0.385190
O O7 0.193633 0.707263 0.404390
O O8 0.228310 0.605846 0.374010
O O9 0.500000 0.765664 0.183572
O O10 0.396111 0.741673 0.147812
O O11 0.418344 0.821908 0.251612
O O12 0.122803 0.753070 0.500000
O O13 0.180783 0.819218 0.588864
O O14 0.796656 0.500000 0.348875
#
# Coordination Sequence:
#
# PCOD8319694 Si02
#       5
#    32  32  32  32  32
#     4  10  20  33  48  64  86 121 163 202 238 275
#     4   9  18  32  49  69  92 118 151 192 237 282
#     4  10  20  32  46  67  96 125 154 191 235 279
#     4   9  17  30  50  73  93 117 155 196 231 277
#     4  11  22  33  47  69  95 122 158 199 236 280
#
# _framework density 16.18374
#
# number of rings (size 3 to 8) (size 9 to 14) (size 15 to 20)
#    0.000    2.200    2.000    3.000    0.000    4.000 
#    0.000    3.000    0.000    3.600    0.000    0.000 
#    0.000    0.800    0.000    8.800    0.000    6.400 
#
# Total GULP energy -991184.030874 kJ/mol
# GULP energy per Si atom -12389.800386 kJ/mol
# Density = 1.614690 g / cm^3
# Si number density = 16.183740 Si / 1000 Ang^3
#
#
#
# Elastic Constant Matrix: (Units=GPa)
#
#
# Indices 1 2 3 4 5 6 
#
# 1 76.6949 51.2135 52.0643 0.0000 0.0000 0.0000
# 2 51.2135 76.6949 52.0643 0.0000 0.0000 0.0000
# 3 52.0643 52.0643 106.4102 0.0000 0.0000 0.0000
# 4 0.0000 0.0000 0.0000 25.1372 0.0000 0.0000
# 5 0.0000 0.0000 0.0000 0.0000 25.1372 0.0000
# 6 0.0000 0.0000 0.0000 0.0000 0.0000 18.4141
#
#
#
# Elastic Compliance Matrix: (Units=1/GPa)
#
#
# Indices 1 2 3 4 5 6 
#
# 1 0.026119 -0.013125 -0.006358 0.000000 0.000000 0.000000
# 2 -0.013125 0.026119 -0.006358 0.000000 0.000000 0.000000
# 3 -0.006358 -0.006358 0.015619 0.000000 0.000000 0.000000
# 4 0.000000 0.000000 0.000000 0.039782 0.000000 0.000000
# 5 0.000000 0.000000 0.000000 0.000000 0.039782 0.000000
# 6 0.000000 0.000000 0.000000 0.000000 0.000000 0.054306
#
#
# Mechanical properties :
#
#
# Convention : Reuss Voigt Hill
#
# Bulk Modulus (GPa) = 61.81985 63.38713 62.60349
# Shear Modulus (GPa) = 19.32000 20.70156 20.01078
#
# Velocity S-wave (km/s) = 3.45888 3.58041 3.52017
# Velocity P-wave (km/s) = 7.36434 7.50631 7.43566
#
# Compressibility (1/GPa) = 0.01617603
#
# Stress axis : x y z
#
# Youngs Moduli (GPa) = 38.28627 38.28627 64.02532
#
# Poissons Ratio (x) = 0.50252 0.40704
# Poissons Ratio (y) = 0.50252 0.40704
# Poissons Ratio (z) = 0.24341 0.24341
#
# Static dielectric constant tensor:
#      x y z
#    x 3.056600 0.000000 0.000000 
#    y 0.000000 3.056600 0.000000 
#    z 0.000000 0.000000 3.158540 
# 
# 
# High freq. dielectric constant tensor:
#      x y z
#    x 1.596710 0.000000 0.000000 
#    y 0.000000 1.596710 0.000000 
#    z 0.000000 0.000000 1.633090 
# 
# From -- ./inp_files/5891.got.cif
#   From: 2010.03.12/outbox.cif.g09.slc.cpg/sg139_3_cif.got.tgz:5891.got - 2010.04.08 09:46:31.
