data_PCOD8319034
_publ_section_title
;
Structure prediction by ZEFSAII (Michael W. Deem and Ramdas Pophale) SiO2 
 PCOD8319034
Probable space group: P 42/N C M
;
_chemical_formula_sum "Si O2"
_cell_formula_units_Z 96
_cell_length_a 14.331492
_cell_length_b 14.331492
_cell_length_c 22.521852
_cell_angle_alpha 90.000000
_cell_angle_beta 90.000000
_cell_angle_gamma 90.000000
_cell_volume 4625.800635
_symmetry_space_group_name_H-M "P 42/N C M"
_symmetry_group_IT_number 138
_space_group.IT_coordinate_system_code '2'
_symmetry_cell_setting 'tetragonal'
loop_
_space_group_symop_operation_xyz
x,y,z
1/2-y,x,1/2+z
1/2-x,1/2-y,z
y,1/2-x,1/2+z
1/2+x,-y,1/2-z
-x,1/2+y,1/2-z
1/2+y,1/2+x,-z
-y,-x,-z
-x,-y,-z
1/2+y,-x,1/2-z
1/2+x,1/2+y,-z
-y,1/2+x,1/2-z
1/2-x,y,1/2+z
x,1/2-y,1/2+z
1/2-y,1/2-x,z
y,x,z
loop_
_atom_site_type_symbol
_atom_site_label
_atom_site_fract_x
_atom_site_fract_y
_atom_site_fract_z
Si Si1 0.480473 0.865386 0.736818
Si Si2 0.122935 0.832894 0.356775
Si Si3 0.330345 0.876500 0.375123
Si Si4 0.011138 0.641182 0.966683
Si Si5 0.183664 0.028592 0.958605
Si Si6 0.756207 0.897349 0.663536
O O1 0.410825 0.839338 0.789428
O O2 0.419787 0.891060 0.678745
O O3 0.536466 0.771475 0.718518
O O4 0.548597 0.951404 0.752894
O O5 0.218689 0.891013 0.362670
O O6 0.143951 0.730116 0.380526
O O7 0.037390 0.867540 0.397406
O O8 0.359409 0.929053 0.436716
O O9 0.921235 0.578766 0.980401
O O10 0.103087 0.603087 0.000000
O O11 0.985745 0.746874 0.985981
O O12 0.102588 0.102588 0.975666
O O13 0.243810 0.058703 0.901351
O O14 0.690905 0.809096 0.666974
O O15 0.863779 0.863779 0.671167
#
# Coordination Sequence:
#
# PCOD8319034 Si02
#       6
#    16  16  16  16  16  16
#     4  10  20  36  58  86 120 154 197 250 307 364
#     4  11  22  39  60  85 121 161 200 247 311 367
#     4  10  21  39  61  87 114 157 207 252 298 367
#     4  11  23  40  61  90 123 156 205 253 304 372
#     4  10  20  39  63  89 120 156 204 257 308 359
#     4   8  15  30  54  81 110 149 195 240 290 354
#
# _framework density 20.753166
#
# number of rings (size 3 to 8) (size 9 to 14) (size 15 to 20)
#    0.000    2.000    1.667    3.500    0.000    3.000 
#    0.000    9.167    0.000    2.000    0.000    0.000 
#    0.000    0.000    0.000    0.000    0.000    0.000 
#
# Total GULP energy -1189665.022190 kJ/mol
# GULP energy per Si atom -12392.343981 kJ/mol
# Density = 2.070593 g / cm^3
# Si number density = 20.753166 Si / 1000 Ang^3
#
#
#
# Elastic Constant Matrix: (Units=GPa)
#
#
# Indices 1 2 3 4 5 6 
#
# 1 66.1520 23.0981 6.7849 0.0000 0.0000 0.0000
# 2 23.0981 66.1520 6.7849 0.0000 0.0000 0.0000
# 3 6.7849 6.7849 68.5016 0.0000 0.0000 0.0000
# 4 0.0000 0.0000 0.0000 29.5211 0.0000 0.0000
# 5 0.0000 0.0000 0.0000 0.0000 29.5211 0.0000
# 6 0.0000 0.0000 0.0000 0.0000 0.0000 27.7699
#
#
#
# Elastic Compliance Matrix: (Units=1/GPa)
#
#
# Indices 1 2 3 4 5 6 
#
# 1 0.017301 -0.005925 -0.001127 0.000000 0.000000 0.000000
# 2 -0.005925 0.017301 -0.001127 0.000000 0.000000 0.000000
# 3 -0.001127 -0.001127 0.014821 0.000000 0.000000 0.000000
# 4 0.000000 0.000000 0.000000 0.033874 0.000000 0.000000
# 5 0.000000 0.000000 0.000000 0.000000 0.033874 0.000000
# 6 0.000000 0.000000 0.000000 0.000000 0.000000 0.036010
#
#
# Mechanical properties :
#
#
# Convention : Reuss Voigt Hill
#
# Bulk Modulus (GPa) = 30.24257 30.46018 30.35137
# Shear Modulus (GPa) = 27.69129 28.30491 27.99810
#
# Velocity S-wave (km/s) = 3.65679 3.69709 3.67699
# Velocity P-wave (km/s) = 5.69505 5.73880 5.71697
#
# Compressibility (1/GPa) = 0.03306597
#
# Stress axis : x y z
#
# Youngs Moduli (GPa) = 57.79937 57.79937 67.47000
#
# Poissons Ratio (x) = 0.34249 0.07602
# Poissons Ratio (y) = 0.34249 0.07602
# Poissons Ratio (z) = 0.06513 0.06513
#
# Static dielectric constant tensor:
#      x y z
#    x 3.880880 0.000000 0.000000 
#    y 0.000000 3.880880 0.000000 
#    z 0.000000 0.000000 3.518040 
# 
# 
# High freq. dielectric constant tensor:
#      x y z
#    x 1.811740 0.000000 0.000000 
#    y 0.000000 1.811740 0.000000 
#    z 0.000000 0.000000 1.798360 
# 
# From -- ./inp_files/6238.got.cif
#   From: 2010.03.12/outbox.cif.g09.slc.cpg/sg138_4_cif.got.tgz:6238.got - 2010.04.08 09:41:05.
