data_PCOD8319817
_publ_section_title
;
Structure prediction by ZEFSAII (Michael W. Deem and Ramdas Pophale) SiO2 
 PCOD8319817
Probable space group: I 4/M M M
;
_chemical_formula_sum "Si O2"
_cell_formula_units_Z 160
_cell_length_a 21.900397
_cell_length_b 21.900397
_cell_length_c 18.429067
_cell_angle_alpha 90.000000
_cell_angle_beta 90.000000
_cell_angle_gamma 90.000000
_cell_volume 8839.085282
_symmetry_space_group_name_H-M "I 4/M M M"
_symmetry_group_IT_number 139
_symmetry_cell_setting 'tetragonal'
loop_
_space_group_symop_operation_xyz
x,y,z
-y,x,z
-x,-y,z
y,-x,z
x,-y,-z
-x,y,-z
y,x,-z
-y,-x,-z
-x,-y,-z
y,-x,-z
x,y,-z
-y,x,-z
-x,y,z
x,-y,z
-y,-x,z
y,x,z
1/2+x,1/2+y,1/2+z
1/2-y,1/2+x,1/2+z
1/2-x,1/2-y,1/2+z
1/2+y,1/2-x,1/2+z
1/2+x,1/2-y,1/2-z
1/2-x,1/2+y,1/2-z
1/2+y,1/2+x,1/2-z
1/2-y,1/2-x,1/2-z
1/2-x,1/2-y,1/2-z
1/2+y,1/2-x,1/2-z
1/2+x,1/2+y,1/2-z
1/2-y,1/2+x,1/2-z
1/2-x,1/2+y,1/2+z
1/2+x,1/2-y,1/2+z
1/2-y,1/2-x,1/2+z
1/2+y,1/2+x,1/2+z
loop_
_atom_site_type_symbol
_atom_site_label
_atom_site_fract_x
_atom_site_fract_y
_atom_site_fract_z
Si Si1 0.357395 0.880069 0.331832
Si Si2 0.212390 0.000000 0.418571
Si Si3 0.218108 0.569345 0.582969
Si Si4 0.069342 0.832503 0.825072
Si Si5 0.500000 0.857283 0.917412
Si Si6 0.286394 0.614809 0.825841
O O1 0.382463 0.882463 0.250000
O O2 0.385144 0.821581 0.370050
O O3 0.380177 0.940542 0.373871
O O4 0.284769 0.871820 0.336195
O O5 0.284943 0.000000 0.419602
O O6 0.189493 0.939320 0.377809
O O7 0.185684 0.000000 0.500000
O O8 0.212502 0.589184 0.500000
O O9 0.195299 0.500000 0.595438
O O10 0.288585 0.575187 0.605783
O O11 0.106086 0.893914 0.841089
O O12 0.095419 0.796142 0.756620
O O13 0.000000 0.851800 0.810066
O O14 0.500000 0.883529 0.000000
O O15 0.324286 0.675715 0.845195
#
# Coordination Sequence:
#
# PCOD8319817 Si02
#       6
#    32  16  32  32  16  32
#     4  11  21  34  59  85 111 147 189 233 279 335
#     4   9  18  34  54  76 106 147 185 222 274 330
#     4  10  22  39  59  82 113 151 187 228 286 345
#     4  10  20  36  59  84 114 150 190 233 280 334
#     4   9  20  36  55  78 109 145 184 229 276 329
#     4  10  20  34  54  83 113 146 186 231 280 332
#
# _framework density 18.101420000000001
#
# number of rings (size 3 to 8) (size 9 to 14) (size 15 to 20)
#    0.000    2.000    3.000    0.600    1.400    3.000 
#    0.000    0.500    0.000    2.100    0.000    3.500 
#    0.000    0.000    0.000    0.000    0.000    0.000 
#
# Total GULP energy -992145.566420 kJ/mol
# GULP energy per Si atom -12401.819580 kJ/mol
# Density = 1.806022 g / cm^3
# Si number density = 18.101420 Si / 1000 Ang^3
#
#
#
# Elastic Constant Matrix: (Units=GPa)
#
#
# Indices 1 2 3 4 5 6 
#
# 1 91.6692 47.7866 42.3570 0.0000 0.0000 0.0000
# 2 47.7866 91.6692 42.3570 0.0000 0.0000 0.0000
# 3 42.3570 42.3570 124.8537 0.0000 0.0000 0.0000
# 4 0.0000 0.0000 0.0000 22.1689 0.0000 0.0000
# 5 0.0000 0.0000 0.0000 0.0000 22.1689 0.0000
# 6 0.0000 0.0000 0.0000 0.0000 0.0000 15.7463
#
#
#
# Elastic Compliance Matrix: (Units=1/GPa)
#
#
# Indices 1 2 3 4 5 6 
#
# 1 0.015910 -0.006878 -0.003064 0.000000 0.000000 0.000000
# 2 -0.006878 0.015910 -0.003064 0.000000 0.000000 0.000000
# 3 -0.003064 -0.003064 0.010088 0.000000 0.000000 0.000000
# 4 0.000000 0.000000 0.000000 0.045108 0.000000 0.000000
# 5 0.000000 0.000000 0.000000 0.000000 0.045108 0.000000
# 6 0.000000 0.000000 0.000000 0.000000 0.000000 0.063507
#
#
# Mechanical properties :
#
#
# Convention : Reuss Voigt Hill
#
# Bulk Modulus (GPa) = 62.90909 63.68815 63.29862
# Shear Modulus (GPa) = 22.03191 23.72957 22.88074
#
# Velocity S-wave (km/s) = 3.49253 3.62460 3.55918
# Velocity P-wave (km/s) = 7.14793 7.26480 7.20660
#
# Compressibility (1/GPa) = 0.01589595
#
# Stress axis : x y z
#
# Youngs Moduli (GPa) = 62.85324 62.85324 99.12344
#
# Poissons Ratio (x) = 0.43230 0.30373
# Poissons Ratio (y) = 0.43230 0.30373
# Poissons Ratio (z) = 0.19259 0.19259
#
# Static dielectric constant tensor:
#      x y z
#    x 3.278710 0.000000 0.000000 
#    y 0.000000 3.278710 0.000000 
#    z 0.000000 0.000000 3.543170 
# 
# 
# High freq. dielectric constant tensor:
#      x y z
#    x 1.693490 0.000000 0.000000 
#    y 0.000000 1.693490 0.000000 
#    z 0.000000 0.000000 1.712570 
# 
# From -- ./inp_files/8421.got.cif
#   From: 2010.03.12/outbox.cif.g09.slc.cpg/sg139_5_cif.got.tgz:8421.got - 2010.04.08 09:46:31.
