data_PCOD8319542
_publ_section_title
;
Structure prediction by ZEFSAII (Michael W. Deem and Ramdas Pophale) SiO2 
 PCOD8319542
Probable space group: I 4/M M M
;
_chemical_formula_sum "Si O2"
_cell_formula_units_Z 160
_cell_length_a 24.755632
_cell_length_b 24.755632
_cell_length_c 15.677562
_cell_angle_alpha 90.000000
_cell_angle_beta 90.000000
_cell_angle_gamma 90.000000
_cell_volume 9607.857723
_symmetry_space_group_name_H-M "I 4/M M M"
_symmetry_group_IT_number 139
_symmetry_cell_setting 'tetragonal'
loop_
_space_group_symop_operation_xyz
x,y,z
-y,x,z
-x,-y,z
y,-x,z
x,-y,-z
-x,y,-z
y,x,-z
-y,-x,-z
-x,-y,-z
y,-x,-z
x,y,-z
-y,x,-z
-x,y,z
x,-y,z
-y,-x,z
y,x,z
1/2+x,1/2+y,1/2+z
1/2-y,1/2+x,1/2+z
1/2-x,1/2-y,1/2+z
1/2+y,1/2-x,1/2+z
1/2+x,1/2-y,1/2-z
1/2-x,1/2+y,1/2-z
1/2+y,1/2+x,1/2-z
1/2-y,1/2-x,1/2-z
1/2-x,1/2-y,1/2-z
1/2+y,1/2-x,1/2-z
1/2+x,1/2+y,1/2-z
1/2-y,1/2+x,1/2-z
1/2-x,1/2+y,1/2+z
1/2+x,1/2-y,1/2+z
1/2-y,1/2-x,1/2+z
1/2+y,1/2+x,1/2+z
loop_
_atom_site_type_symbol
_atom_site_label
_atom_site_fract_x
_atom_site_fract_y
_atom_site_fract_z
Si Si1 0.357549 0.062392 0.708450
Si Si2 0.439940 0.737890 0.263501
Si Si3 0.296582 0.384601 0.096351
Si Si4 0.356864 0.267440 0.598635
Si Si5 0.818711 0.654345 0.904695
O O1 0.410856 0.089145 0.750000
O O2 0.303320 0.065291 0.765576
O O3 0.344925 0.098641 0.626479
O O4 0.370515 0.000000 0.684164
O O5 0.500000 0.720714 0.287244
O O6 0.428732 0.711284 0.170476
O O7 0.403574 0.711813 0.338050
O O8 0.351062 0.351062 0.112460
O O9 0.245877 0.344363 0.103668
O O10 0.297626 0.410435 0.000000
O O11 0.376818 0.265706 0.500000
O O12 0.305813 0.305813 0.607045
O O13 0.340332 0.209118 0.638524
O O14 0.838591 0.658806 0.000000
#
# Coordination Sequence:
#
# PCOD8319542 Si02
#       5
#    32  32  32  32  32
#     4  10  19  32  47  65  90 125 172 214 252 289
#     4  10  20  32  47  68  98 135 169 199 242 296
#     4   9  17  29  47  72 100 127 157 196 242 294
#     4  10  19  31  50  74  98 125 159 200 247 299
#     4   9  17  30  47  70  97 122 154 199 253 306
#
# _framework density 16.653036
#
# number of rings (size 3 to 8) (size 9 to 14) (size 15 to 20)
#    0.000    2.400    2.000    1.200    0.000    3.800 
#    0.000    7.000    0.000    0.600    0.000    1.400 
#    0.000    6.400    0.000   17.600    0.000    0.400 
#
# Total GULP energy -991047.183844 kJ/mol
# GULP energy per Si atom -12388.089798 kJ/mol
# Density = 1.661513 g / cm^3
# Si number density = 16.653036 Si / 1000 Ang^3
#
#
#
# Elastic Constant Matrix: (Units=GPa)
#
#
# Indices 1 2 3 4 5 6 
#
# 1 70.3640 37.6964 30.7188 0.0000 0.0000 0.0000
# 2 37.6964 70.3642 30.7198 0.0000 0.0000 0.0000
# 3 30.7188 30.7198 65.7175 0.0000 0.0000 0.0000
# 4 0.0000 0.0000 0.0000 17.1839 0.0000 0.0000
# 5 0.0000 0.0000 0.0000 0.0000 17.1838 0.0000
# 6 0.0000 0.0000 0.0000 0.0000 0.0000 17.7472
#
#
#
# Elastic Compliance Matrix: (Units=1/GPa)
#
#
# Indices 1 2 3 4 5 6 
#
# 1 0.021607 -0.009004 -0.005891 0.000000 0.000000 0.000000
# 2 -0.009004 0.021608 -0.005892 0.000000 0.000000 0.000000
# 3 -0.005891 -0.005892 0.020725 0.000000 0.000000 0.000000
# 4 0.000000 0.000000 0.000000 0.058194 0.000000 0.000000
# 5 0.000000 0.000000 0.000000 0.000000 0.058194 0.000000
# 6 0.000000 0.000000 0.000000 0.000000 0.000000 0.056347
#
#
# Mechanical properties :
#
#
# Convention : Reuss Voigt Hill
#
# Bulk Modulus (GPa) = 44.71095 44.96841 44.83968
# Shear Modulus (GPa) = 17.50062 17.57701 17.53881
#
# Velocity S-wave (km/s) = 3.24527 3.25235 3.24881
# Velocity P-wave (km/s) = 6.39915 6.41603 6.40760
#
# Compressibility (1/GPa) = 0.02236589
#
# Stress axis : x y z
#
# Youngs Moduli (GPa) = 46.28050 46.27988 48.25174
#
# Poissons Ratio (x) = 0.41669 0.28426
# Poissons Ratio (y) = 0.41670 0.28429
# Poissons Ratio (z) = 0.27265 0.27268
#
# Static dielectric constant tensor:
#      x y z
#    x 2.989090 0.000000 0.000000 
#    y 0.000000 2.989090 0.000000 
#    z 0.000000 0.000000 3.246520 
# 
# 
# High freq. dielectric constant tensor:
#      x y z
#    x 1.619560 0.000000 0.000000 
#    y 0.000000 1.619560 0.000000 
#    z 0.000000 0.000000 1.642630 
# 
# From -- ./inp_files/5901.got.cif
#   From: 2010.03.12/outbox.cif.g09.slc.cpg/sg139_3_cif.got.tgz:5901.got - 2010.04.08 09:46:31.
