data_PCOD8319974
_publ_section_title
;
Structure prediction by ZEFSAII (Michael W. Deem and Ramdas Pophale) SiO2 
 PCOD8319974
Probable space group: I 4/M M M
;
_chemical_formula_sum "Si O2"
_cell_formula_units_Z 128
_cell_length_a 20.395367
_cell_length_b 20.395367
_cell_length_c 14.606738
_cell_angle_alpha 90.000000
_cell_angle_beta 90.000000
_cell_angle_gamma 90.000000
_cell_volume 6075.979341
_symmetry_space_group_name_H-M "I 4/M M M"
_symmetry_group_IT_number 139
_symmetry_cell_setting 'tetragonal'
loop_
_space_group_symop_operation_xyz
x,y,z
-y,x,z
-x,-y,z
y,-x,z
x,-y,-z
-x,y,-z
y,x,-z
-y,-x,-z
-x,-y,-z
y,-x,-z
x,y,-z
-y,x,-z
-x,y,z
x,-y,z
-y,-x,z
y,x,z
1/2+x,1/2+y,1/2+z
1/2-y,1/2+x,1/2+z
1/2-x,1/2-y,1/2+z
1/2+y,1/2-x,1/2+z
1/2+x,1/2-y,1/2-z
1/2-x,1/2+y,1/2-z
1/2+y,1/2+x,1/2-z
1/2-y,1/2-x,1/2-z
1/2-x,1/2-y,1/2-z
1/2+y,1/2-x,1/2-z
1/2+x,1/2+y,1/2-z
1/2-y,1/2+x,1/2-z
1/2-x,1/2+y,1/2+z
1/2+x,1/2-y,1/2+z
1/2-y,1/2-x,1/2+z
1/2+y,1/2+x,1/2+z
loop_
_atom_site_type_symbol
_atom_site_label
_atom_site_fract_x
_atom_site_fract_y
_atom_site_fract_z
Si Si1 0.627572 0.863654 0.400158
Si Si2 0.000000 0.108416 0.895167
Si Si3 0.000000 0.800440 0.282745
Si Si4 0.667025 0.000000 0.200093
Si Si5 0.500000 0.076010 0.857801
Si Si6 0.272137 0.378318 0.106034
O O1 0.635599 0.831823 0.500000
O O2 0.568518 0.823476 0.353304
O O3 0.699372 0.862952 0.351531
O O4 0.606221 0.938386 0.408688
O O5 0.935538 0.064463 0.881070
O O6 0.000000 0.164406 0.816870
O O7 0.000000 0.137265 0.000000
O O8 0.934058 0.814319 0.340497
O O9 0.000000 0.722268 0.275829
O O10 0.595339 0.000000 0.248701
O O11 0.500000 0.000000 0.874297
O O12 0.311067 0.311067 0.115571
O O13 0.265397 0.400553 0.000000
#
# Coordination Sequence:
#
# PCOD8319974 Si02
#       6
#    32  16  16  16  16  32
#     4  11  23  38  56  83 118 161 207 252 305 369
#     4   9  20  41  66  90 118 154 198 250 312 381
#     4  12  22  37  64  93 127 152 206 256 319 368
#     4  12  25  36  56  87 121 157 200 262 300 365
#     4  12  23  34  58  83 119 153 201 251 313 360
#     4  10  22  41  64  91 126 168 209 255 317 387
#
# _framework density 21.066562999999999
#
# number of rings (size 3 to 8) (size 9 to 14) (size 15 to 20)
#    0.000    1.125    3.750    3.000    1.750    3.500 
#    0.000    3.750    0.000    3.000    0.000    5.250 
#    0.000    0.000    0.000    0.000    0.000    0.000 
#
# Total GULP energy -793081.948709 kJ/mol
# GULP energy per Si atom -12391.905449 kJ/mol
# Density = 2.101861 g / cm^3
# Si number density = 21.066563 Si / 1000 Ang^3
#
#
#
# Elastic Constant Matrix: (Units=GPa)
#
#
# Indices 1 2 3 4 5 6 
#
# 1 109.6949 39.4805 32.9197 0.0000 0.0000 0.0000
# 2 39.4805 109.6949 32.9197 0.0000 0.0000 0.0000
# 3 32.9197 32.9197 97.5986 0.0000 0.0000 0.0000
# 4 0.0000 0.0000 0.0000 35.3567 0.0000 0.0000
# 5 0.0000 0.0000 0.0000 0.0000 35.3567 0.0000
# 6 0.0000 0.0000 0.0000 0.0000 0.0000 22.9039
#
#
#
# Elastic Compliance Matrix: (Units=1/GPa)
#
#
# Indices 1 2 3 4 5 6 
#
# 1 0.011059 -0.003183 -0.002657 0.000000 0.000000 0.000000
# 2 -0.003183 0.011059 -0.002657 0.000000 0.000000 0.000000
# 3 -0.002657 -0.002657 0.012038 0.000000 0.000000 0.000000
# 4 0.000000 0.000000 0.000000 0.028283 0.000000 0.000000
# 5 0.000000 0.000000 0.000000 0.000000 0.028283 0.000000
# 6 0.000000 0.000000 0.000000 0.000000 0.000000 0.043661
#
#
# Mechanical properties :
#
#
# Convention : Reuss Voigt Hill
#
# Bulk Modulus (GPa) = 58.26167 58.62535 58.44351
# Shear Modulus (GPa) = 31.82751 32.83472 32.33111
#
# Velocity S-wave (km/s) = 3.89113 3.95222 3.92179
# Velocity P-wave (km/s) = 6.92126 6.97967 6.95052
#
# Compressibility (1/GPa) = 0.01716394
#
# Stress axis : x y z
#
# Youngs Moduli (GPa) = 90.42370 90.42370 83.06936
#
# Poissons Ratio (x) = 0.28782 0.22068
# Poissons Ratio (y) = 0.28782 0.22068
# Poissons Ratio (z) = 0.24021 0.24021
#
# Static dielectric constant tensor:
#      x y z
#    x 3.702410 0.000000 0.000000 
#    y 0.000000 3.702410 0.000000 
#    z 0.000000 0.000000 3.786730 
# 
# 
# High freq. dielectric constant tensor:
#      x y z
#    x 1.818170 0.000000 0.000000 
#    y 0.000000 1.818170 0.000000 
#    z 0.000000 0.000000 1.827810 
# 
# From -- ./inp_files/5503.got.cif
#   From: 2010.03.12/outbox.cif.g09.slc.cpg/sg139_3_cif.got.tgz:5503.got - 2010.04.08 09:46:31.
