data_PCOD8319898
_publ_section_title
;
Structure prediction by ZEFSAII (Michael W. Deem and Ramdas Pophale) SiO2 
 PCOD8319898
Probable space group: I 4/M M M
;
_chemical_formula_sum "Si O2"
_cell_formula_units_Z 192
_cell_length_a 26.586586
_cell_length_b 26.586586
_cell_length_c 13.987082
_cell_angle_alpha 90.000000
_cell_angle_beta 90.000000
_cell_angle_gamma 90.000000
_cell_volume 9886.720728
_symmetry_space_group_name_H-M "I 4/M M M"
_symmetry_group_IT_number 139
_symmetry_cell_setting 'tetragonal'
loop_
_space_group_symop_operation_xyz
x,y,z
-y,x,z
-x,-y,z
y,-x,z
x,-y,-z
-x,y,-z
y,x,-z
-y,-x,-z
-x,-y,-z
y,-x,-z
x,y,-z
-y,x,-z
-x,y,z
x,-y,z
-y,-x,z
y,x,z
1/2+x,1/2+y,1/2+z
1/2-y,1/2+x,1/2+z
1/2-x,1/2-y,1/2+z
1/2+y,1/2-x,1/2+z
1/2+x,1/2-y,1/2-z
1/2-x,1/2+y,1/2-z
1/2+y,1/2+x,1/2-z
1/2-y,1/2-x,1/2-z
1/2-x,1/2-y,1/2-z
1/2+y,1/2-x,1/2-z
1/2+x,1/2+y,1/2-z
1/2-y,1/2+x,1/2-z
1/2-x,1/2+y,1/2+z
1/2+x,1/2-y,1/2+z
1/2-y,1/2-x,1/2+z
1/2+y,1/2+x,1/2+z
loop_
_atom_site_type_symbol
_atom_site_label
_atom_site_fract_x
_atom_site_fract_y
_atom_site_fract_z
Si Si1 0.788560 0.057901 0.500000
Si Si2 0.367002 0.942680 0.787382
Si Si3 0.362802 0.212811 0.787627
Si Si4 0.689759 0.609899 0.674881
Si Si5 0.145764 0.414760 0.500000
Si Si6 0.379721 0.197937 0.000000
Si Si7 0.058620 0.861864 0.339491
Si Si8 0.059920 0.242686 0.000000
O O1 0.728670 0.067814 0.500000
O O2 0.816221 0.078861 0.594198
O O3 0.797344 0.000000 0.500000
O O4 0.419140 0.919140 0.750000
O O5 0.320442 0.911552 0.742791
O O6 0.362310 0.000000 0.751368
O O7 0.368460 0.943636 0.903052
O O8 0.312277 0.187724 0.750000
O O9 0.367523 0.267461 0.743042
O O10 0.353351 0.215557 0.901938
O O11 0.656632 0.656632 0.635235
O O12 0.653914 0.572004 0.732177
O O13 0.711660 0.575686 0.591881
O O14 0.115605 0.362096 0.500000
O O15 0.205964 0.407890 0.500000
O O16 0.087201 0.912800 0.368944
O O17 0.000000 0.872915 0.350341
O O18 0.000000 0.253725 0.000000
#
# Coordination Sequence:
#
# PCOD8319898 Si02
#       8
#    16  32  32  32  16  16  32  16
#     4  10  21  35  59  88 117 156 202 245 297 365
#     4  11  23  40  62  88 122 160 206 262 317 375
#     4  11  22  39  61  90 122 164 211 253 307 378
#     4  11  23  39  60  91 128 159 203 259 313 374
#     4  12  22  39  62  94 120 154 211 266 301 369
#     4  12  20  39  60  90 126 156 195 254 304 363
#     4  10  21  38  59  87 123 160 205 256 304 365
#     4  12  23  39  66  90 120 166 212 257 314 366
#
# _framework density 19.419988
#
# number of rings (size 3 to 8) (size 9 to 14) (size 15 to 20)
#    0.000    1.000    6.667    1.750    0.000    2.000 
#    0.000    0.833    0.000    3.500    0.000    0.000 
#    0.000    6.000    0.000    0.000    0.000    0.000 
#
# Total GULP energy -1189900.289386 kJ/mol
# GULP energy per Si atom -12394.794681 kJ/mol
# Density = 1.937579 g / cm^3
# Si number density = 19.419988 Si / 1000 Ang^3
#
#
#
# Elastic Constant Matrix: (Units=GPa)
#
#
# Indices 1 2 3 4 5 6 
#
# 1 104.0259 43.9811 22.9149 0.0000 0.0000 0.0000
# 2 43.9811 104.0236 22.9153 0.0000 0.0000 0.0000
# 3 22.9149 22.9153 124.4578 0.0000 0.0000 0.0000
# 4 0.0000 0.0000 0.0000 51.6761 0.0000 0.0000
# 5 0.0000 0.0000 0.0000 0.0000 51.6712 0.0000
# 6 0.0000 0.0000 0.0000 0.0000 0.0000 26.7455
#
#
#
# Elastic Compliance Matrix: (Units=1/GPa)
#
#
# Indices 1 2 3 4 5 6 
#
# 1 0.011910 -0.004745 -0.001319 0.000000 0.000000 0.000000
# 2 -0.004745 0.011910 -0.001319 0.000000 0.000000 0.000000
# 3 -0.001319 -0.001319 0.008521 0.000000 0.000000 0.000000
# 4 0.000000 0.000000 0.000000 0.019351 0.000000 0.000000
# 5 0.000000 0.000000 0.000000 0.000000 0.019353 0.000000
# 6 0.000000 0.000000 0.000000 0.000000 0.000000 0.037389
#
#
# Mechanical properties :
#
#
# Convention : Reuss Voigt Hill
#
# Bulk Modulus (GPa) = 56.90301 56.90330 56.90316
# Shear Modulus (GPa) = 38.74216 42.19830 40.47023
#
# Velocity S-wave (km/s) = 4.47135 4.66653 4.56998
# Velocity P-wave (km/s) = 7.48479 7.64201 7.56381
#
# Compressibility (1/GPa) = 0.01757376
#
# Stress axis : x y z
#
# Youngs Moduli (GPa) = 83.96578 83.96365 117.36208
#
# Poissons Ratio (x) = 0.39839 0.15482
# Poissons Ratio (y) = 0.39840 0.15483
# Poissons Ratio (z) = 0.11076 0.11077
#
# Static dielectric constant tensor:
#      x y z
#    x 3.457640 0.000000 0.000000 
#    y 0.000000 3.457650 0.000000 
#    z 0.000000 0.000000 3.040600 
# 
# 
# High freq. dielectric constant tensor:
#      x y z
#    x 1.746220 0.000000 0.000000 
#    y 0.000000 1.746220 0.000000 
#    z 0.000000 0.000000 1.773740 
# 
# From -- ./inp_files/6565.got.cif
#   From: 2010.03.12/outbox.cif.g09.slc.cpg/sg139_4_cif.got.tgz:6565.got - 2010.04.08 09:46:31.
