data_PCOD8319176
_publ_section_title
;
Structure prediction by ZEFSAII (Michael W. Deem and Ramdas Pophale) SiO2 
 PCOD8319176
Probable space group: P 42/N C M
;
_chemical_formula_sum "Si O2"
_cell_formula_units_Z 96
_cell_length_a 15.805412
_cell_length_b 15.805412
_cell_length_c 19.493739
_cell_angle_alpha 90.000000
_cell_angle_beta 90.000000
_cell_angle_gamma 90.000000
_cell_volume 4869.751379
_symmetry_space_group_name_H-M "P 42/N C M"
_symmetry_group_IT_number 138
_space_group.IT_coordinate_system_code '2'
_symmetry_cell_setting 'tetragonal'
loop_
_space_group_symop_operation_xyz
x,y,z
1/2-y,x,1/2+z
1/2-x,1/2-y,z
y,1/2-x,1/2+z
1/2+x,-y,1/2-z
-x,1/2+y,1/2-z
1/2+y,1/2+x,-z
-y,-x,-z
-x,-y,-z
1/2+y,-x,1/2-z
1/2+x,1/2+y,-z
-y,1/2+x,1/2-z
1/2-x,y,1/2+z
x,1/2-y,1/2+z
1/2-y,1/2-x,z
y,x,z
loop_
_atom_site_type_symbol
_atom_site_label
_atom_site_fract_x
_atom_site_fract_y
_atom_site_fract_z
Si Si1 0.750879 0.608291 0.255709
Si Si2 0.864463 0.497640 0.502761
Si Si3 0.923747 0.923747 0.571582
Si Si4 0.497690 0.243722 0.878585
Si Si5 0.680915 0.321524 0.579569
Si Si6 0.764806 0.004689 0.381885
Si Si7 0.445589 0.445589 0.585882
O O1 0.831502 0.668499 0.241038
O O2 0.667310 0.667310 0.266705
O O3 0.735658 0.540355 0.195517
O O4 0.776198 0.545848 0.318425
O O5 0.936586 0.563415 0.483909
O O6 0.829811 0.512355 0.578795
O O7 0.789913 0.511065 0.449195
O O8 0.902487 0.402487 0.500000
O O9 0.939642 0.826663 0.587004
O O10 0.944976 0.944976 0.494790
O O11 0.986051 0.986051 0.614609
O O12 0.595579 0.213652 0.880154
O O13 0.750000 0.250000 0.576906
O O14 0.654498 0.345503 0.500000
O O15 0.605175 0.280731 0.624223
O O16 0.855405 0.964591 0.385379
#
# Coordination Sequence:
#
# PCOD8319176 Si02
#       7
#    16  16   8  16  16  16   8
#     4  11  26  46  65  90 132 180 219 264 322 383
#     4  11  24  42  65  94 128 168 216 271 328 385
#     4  11  20  36  64 100 128 159 206 271 326 380
#     4  12  22  42  66  95 129 169 217 263 324 389
#     4  11  22  41  71 101 133 167 208 271 332 386
#     4  12  22  42  66  95 129 169 217 263 324 389
#     4  11  20  36  64 100 128 159 206 271 326 380
#
# _framework density 19.713533000000002
#
# number of rings (size 3 to 8) (size 9 to 14) (size 15 to 20)
#    0.000    0.667    6.667    2.000    0.000    0.000 
#    6.000    0.833    0.000    0.000    0.000    0.000 
#    0.000    0.000    0.000    0.000    0.000    0.000 
#
# Total GULP energy -1189834.907453 kJ/mol
# GULP energy per Si atom -12394.113619 kJ/mol
# Density = 1.966866 g / cm^3
# Si number density = 19.713533 Si / 1000 Ang^3
#
#
#
# Elastic Constant Matrix: (Units=GPa)
#
#
# Indices 1 2 3 4 5 6 
#
# 1 99.7869 10.9781 20.7645 0.0000 0.0000 0.0000
# 2 10.9781 99.7858 20.7641 0.0000 0.0000 0.0000
# 3 20.7645 20.7641 83.5447 0.0000 0.0000 0.0000
# 4 0.0000 0.0000 0.0000 29.2000 0.0000 0.0000
# 5 0.0000 0.0000 0.0000 0.0000 29.1997 0.0000
# 6 0.0000 0.0000 0.0000 0.0000 0.0000 31.8480
#
#
#
# Elastic Compliance Matrix: (Units=1/GPa)
#
#
# Indices 1 2 3 4 5 6 
#
# 1 0.010608 -0.000652 -0.002474 0.000000 0.000000 0.000000
# 2 -0.000652 0.010608 -0.002474 0.000000 0.000000 0.000000
# 3 -0.002474 -0.002474 0.013200 0.000000 0.000000 0.000000
# 4 0.000000 0.000000 0.000000 0.034247 0.000000 0.000000
# 5 0.000000 0.000000 0.000000 0.000000 0.034247 0.000000
# 6 0.000000 0.000000 0.000000 0.000000 0.000000 0.031399
#
#
# Mechanical properties :
#
#
# Convention : Reuss Voigt Hill
#
# Bulk Modulus (GPa) = 43.07810 43.12564 43.10187
# Shear Modulus (GPa) = 32.62675 33.42357 33.02516
#
# Velocity S-wave (km/s) = 4.07264 4.12207 4.09743
# Velocity P-wave (km/s) = 6.63435 6.67674 6.65558
#
# Compressibility (1/GPa) = 0.02321365
#
# Stress axis : x y z
#
# Youngs Moduli (GPa) = 94.26832 94.26747 75.75953
#
# Poissons Ratio (x) = 0.06148 0.18747
# Poissons Ratio (y) = 0.06148 0.18746
# Poissons Ratio (z) = 0.23326 0.23326
#
# Static dielectric constant tensor:
#      x y z
#    x 3.778630 0.000000 0.000000 
#    y 0.000000 3.778630 0.000000 
#    z 0.000000 0.000000 3.585500 
# 
# 
# High freq. dielectric constant tensor:
#      x y z
#    x 1.783490 0.000000 0.000000 
#    y 0.000000 1.783490 0.000000 
#    z 0.000000 0.000000 1.744860 
# 
# From -- ./inp_files/6300.got.cif
#   From: 2010.03.12/outbox.cif.g09.slc.cpg/sg138_4_cif.got.tgz:6300.got - 2010.04.08 09:41:05.
