data_PCOD8319968
_publ_section_title
;
Structure prediction by ZEFSAII (Michael W. Deem and Ramdas Pophale) SiO2 
 PCOD8319968
Probable space group: I 4/M M M
;
_chemical_formula_sum "Si O2"
_cell_formula_units_Z 160
_cell_length_a 29.113383
_cell_length_b 29.113383
_cell_length_c 10.180598
_cell_angle_alpha 90.000000
_cell_angle_beta 90.000000
_cell_angle_gamma 90.000000
_cell_volume 8628.963588
_symmetry_space_group_name_H-M "I 4/M M M"
_symmetry_group_IT_number 139
_symmetry_cell_setting 'tetragonal'
loop_
_space_group_symop_operation_xyz
x,y,z
-y,x,z
-x,-y,z
y,-x,z
x,-y,-z
-x,y,-z
y,x,-z
-y,-x,-z
-x,-y,-z
y,-x,-z
x,y,-z
-y,x,-z
-x,y,z
x,-y,z
-y,-x,z
y,x,z
1/2+x,1/2+y,1/2+z
1/2-y,1/2+x,1/2+z
1/2-x,1/2-y,1/2+z
1/2+y,1/2-x,1/2+z
1/2+x,1/2-y,1/2-z
1/2-x,1/2+y,1/2-z
1/2+y,1/2+x,1/2-z
1/2-y,1/2-x,1/2-z
1/2-x,1/2-y,1/2-z
1/2+y,1/2-x,1/2-z
1/2+x,1/2+y,1/2-z
1/2-y,1/2+x,1/2-z
1/2-x,1/2+y,1/2+z
1/2+x,1/2-y,1/2+z
1/2-y,1/2-x,1/2+z
1/2+y,1/2+x,1/2+z
loop_
_atom_site_type_symbol
_atom_site_label
_atom_site_fract_x
_atom_site_fract_y
_atom_site_fract_z
Si Si1 0.682729 0.817272 0.750000
Si Si2 0.611824 0.311213 0.000000
Si Si3 0.391202 0.051387 0.851678
Si Si4 0.554064 0.630835 0.500000
Si Si5 0.206644 0.414756 0.650067
Si Si6 0.304507 0.447039 0.744085
Si Si7 0.240312 0.314691 0.000000
O O1 0.629372 0.807132 0.733820
O O2 0.699375 0.789436 0.875289
O O3 0.581710 0.318372 0.129238
O O4 0.632954 0.259370 0.000000
O O5 0.650288 0.349713 0.000000
O O6 0.414104 0.085897 0.750000
O O7 0.336104 0.050613 0.836291
O O8 0.409198 0.000000 0.824497
O O9 0.404279 0.067054 0.000000
O O10 0.500000 0.617441 0.500000
O O11 0.584351 0.584351 0.500000
O O12 0.566884 0.661385 0.373528
O O13 0.215037 0.400229 0.500000
O O14 0.251907 0.438608 0.704824
O O15 0.310422 0.500000 0.779916
O O16 0.285712 0.285712 0.000000
#
# Coordination Sequence:
#
# PCOD8319968 Si02
#       7
#    16  16  32  16  32  32  16
#     4  12  21  38  58  82 115 152 198 234 284 342
#     4  11  23  39  58  85 120 156 196 240 294 350
#     4  10  22  39  60  84 113 150 193 245 306 362
#     4  10  22  40  65  96 127 163 203 243 295 356
#     4  11  21  37  61  87 116 153 195 248 298 348
#     4  11  22  39  62  90 122 156 201 250 298 352
#     4  11  24  38  55  81 114 152 192 232 277 337
#
# _framework density 18.542204000000002
#
# number of rings (size 3 to 8) (size 9 to 14) (size 15 to 20)
#    0.000    1.200    5.000    1.800    0.000    1.500 
#    1.800    2.000    0.000    0.000    0.000    0.000 
#    0.000    7.200    0.000    0.000    0.000    0.000 
#
# Total GULP energy -992024.739677 kJ/mol
# GULP energy per Si atom -12400.309246 kJ/mol
# Density = 1.850000 g / cm^3
# Si number density = 18.542204 Si / 1000 Ang^3
#
#
#
# Elastic Constant Matrix: (Units=GPa)
#
#
# Indices 1 2 3 4 5 6 
#
# 1 87.4483 44.1202 52.9501 0.0000 0.0000 0.0000
# 2 44.1202 87.4483 52.9489 0.0000 0.0000 0.0000
# 3 52.9501 52.9489 144.6060 0.0000 0.0000 0.0000
# 4 0.0000 0.0000 0.0000 36.4341 0.0000 0.0000
# 5 0.0000 0.0000 0.0000 0.0000 36.4343 0.0000
# 6 0.0000 0.0000 0.0000 0.0000 0.0000 30.3049
#
#
#
# Elastic Compliance Matrix: (Units=1/GPa)
#
#
# Indices 1 2 3 4 5 6 
#
# 1 0.016928 -0.006151 -0.003946 0.000000 0.000000 0.000000
# 2 -0.006151 0.016928 -0.003946 0.000000 0.000000 0.000000
# 3 -0.003946 -0.003946 0.009805 0.000000 0.000000 0.000000
# 4 0.000000 0.000000 0.000000 0.027447 0.000000 0.000000
# 5 0.000000 0.000000 0.000000 0.000000 0.027447 0.000000
# 6 0.000000 0.000000 0.000000 0.000000 0.000000 0.032998
#
#
# Mechanical properties :
#
#
# Convention : Reuss Voigt Hill
#
# Bulk Modulus (GPa) = 64.20775 68.83788 66.52282
# Shear Modulus (GPa) = 30.33395 31.93354 31.13374
#
# Velocity S-wave (km/s) = 4.04906 4.15445 4.10210
# Velocity P-wave (km/s) = 7.52084 7.76004 7.64137
#
# Compressibility (1/GPa) = 0.01557444
#
# Stress axis : x y z
#
# Youngs Moduli (GPa) = 59.07245 59.07327 101.98715
#
# Poissons Ratio (x) = 0.36339 0.40246
# Poissons Ratio (y) = 0.36338 0.40243
# Poissons Ratio (z) = 0.23311 0.23310
#
# Static dielectric constant tensor:
#      x y z
#    x 3.363880 0.000000 0.000000 
#    y 0.000000 3.363860 0.000000 
#    z 0.000000 0.000000 3.536360 
# 
# 
# High freq. dielectric constant tensor:
#      x y z
#    x 1.718780 0.000000 0.000000 
#    y 0.000000 1.718780 0.000000 
#    z 0.000000 0.000000 1.730310 
# 
# From -- ./inp_files/2287.got.cif
#   From: 2010.03.12/outbox.cif.g09.slc.cpg/sg139_2_cif.got.tgz:2287.got - 2010.04.08 09:46:31.
