data_PCOD8319413
_publ_section_title
;
Structure prediction by ZEFSAII (Michael W. Deem and Ramdas Pophale) SiO2 
 PCOD8319413
Probable space group: I 4/M M M
;
_chemical_formula_sum "Si O2"
_cell_formula_units_Z 144
_cell_length_a 22.074037
_cell_length_b 22.074037
_cell_length_c 17.169782
_cell_angle_alpha 90.000000
_cell_angle_beta 90.000000
_cell_angle_gamma 90.000000
_cell_volume 8366.201366
_symmetry_space_group_name_H-M "I 4/M M M"
_symmetry_group_IT_number 139
_symmetry_cell_setting 'tetragonal'
loop_
_space_group_symop_operation_xyz
x,y,z
-y,x,z
-x,-y,z
y,-x,z
x,-y,-z
-x,y,-z
y,x,-z
-y,-x,-z
-x,-y,-z
y,-x,-z
x,y,-z
-y,x,-z
-x,y,z
x,-y,z
-y,-x,z
y,x,z
1/2+x,1/2+y,1/2+z
1/2-y,1/2+x,1/2+z
1/2-x,1/2-y,1/2+z
1/2+y,1/2-x,1/2+z
1/2+x,1/2-y,1/2-z
1/2-x,1/2+y,1/2-z
1/2+y,1/2+x,1/2-z
1/2-y,1/2-x,1/2-z
1/2-x,1/2-y,1/2-z
1/2+y,1/2-x,1/2-z
1/2+x,1/2+y,1/2-z
1/2-y,1/2+x,1/2-z
1/2-x,1/2+y,1/2+z
1/2+x,1/2-y,1/2+z
1/2-y,1/2-x,1/2+z
1/2+y,1/2+x,1/2+z
loop_
_atom_site_type_symbol
_atom_site_label
_atom_site_fract_x
_atom_site_fract_y
_atom_site_fract_z
Si Si1 0.428948 0.331443 0.000000
Si Si2 0.844592 0.746640 0.786742
Si Si3 0.371554 0.066470 0.589077
Si Si4 0.740950 0.430956 0.847814
Si Si5 0.311081 0.068603 0.909357
O O1 0.408671 0.293455 0.075248
O O2 0.500000 0.344490 0.000000
O O3 0.395736 0.395736 0.000000
O O4 0.795293 0.795293 0.815284
O O5 0.811712 0.688289 0.750000
O O6 0.888095 0.778121 0.723270
O O7 0.884071 0.728755 0.861500
O O8 0.349303 0.070804 0.500000
O O9 0.312891 0.075535 0.642193
O O10 0.421011 0.117596 0.607867
O O11 0.400518 0.000000 0.605167
O O12 0.723131 0.500000 0.828135
O O13 0.295826 0.000000 0.883624
O O14 0.296298 0.078665 0.000000
#
# Coordination Sequence:
#
# PCOD8319413 Si02
#       5
#    16  32  32  32  32
#     4  10  20  33  52  78 105 139 179 215 262 318
#     4  11  22  35  51  75 104 135 175 218 264 313
#     4   9  16  29  50  74 102 135 171 208 246 292
#     4  10  18  32  52  74 103 137 173 214 256 306
#     4  10  21  37  55  75 103 139 178 220 267 310
#
# _framework density 17.212112999999999
#
# number of rings (size 3 to 8) (size 9 to 14) (size 15 to 20)
#    0.000    2.000    3.333    1.333    0.000    1.000 
#    0.000    2.222    0.000    0.000    0.000    0.000 
#    0.000    4.000    0.000    9.778    0.000    0.000 
#
# Total GULP energy -892777.545290 kJ/mol
# GULP energy per Si atom -12399.688129 kJ/mol
# Density = 1.717294 g / cm^3
# Si number density = 17.212113 Si / 1000 Ang^3
#
#
#
# Elastic Constant Matrix: (Units=GPa)
#
#
# Indices 1 2 3 4 5 6 
#
# 1 84.8964 51.1553 49.5301 0.0000 0.0000 0.0000
# 2 51.1553 84.8969 49.5299 0.0000 0.0000 0.0000
# 3 49.5301 49.5299 79.8154 0.0000 0.0000 0.0000
# 4 0.0000 0.0000 0.0000 26.7437 0.0000 0.0000
# 5 0.0000 0.0000 0.0000 0.0000 26.7436 0.0000
# 6 0.0000 0.0000 0.0000 0.0000 0.0000 28.1956
#
#
#
# Elastic Compliance Matrix: (Units=1/GPa)
#
#
# Indices 1 2 3 4 5 6 
#
# 1 0.021523 -0.008114 -0.008321 0.000000 0.000000 0.000000
# 2 -0.008114 0.021523 -0.008321 0.000000 0.000000 0.000000
# 3 -0.008321 -0.008321 0.022856 0.000000 0.000000 0.000000
# 4 0.000000 0.000000 0.000000 0.037392 0.000000 0.000000
# 5 0.000000 0.000000 0.000000 0.000000 0.037392 0.000000
# 6 0.000000 0.000000 0.000000 0.000000 0.000000 0.035467
#
#
# Mechanical properties :
#
#
# Convention : Reuss Voigt Hill
#
# Bulk Modulus (GPa) = 61.01302 61.11547 61.06425
# Shear Modulus (GPa) = 21.63311 22.96281 22.29796
#
# Velocity S-wave (km/s) = 3.54906 3.65651 3.60318
# Velocity P-wave (km/s) = 7.23320 7.30829 7.27084
#
# Compressibility (1/GPa) = 0.01638994
#
# Stress axis : x y z
#
# Youngs Moduli (GPa) = 46.46194 46.46262 43.75238
#
# Poissons Ratio (x) = 0.37701 0.36406
# Poissons Ratio (y) = 0.37701 0.36405
# Poissons Ratio (z) = 0.38660 0.38660
#
# Static dielectric constant tensor:
#      x y z
#    x 3.091350 0.000000 0.000000 
#    y 0.000000 3.091350 0.000000 
#    z 0.000000 0.000000 3.122530 
# 
# 
# High freq. dielectric constant tensor:
#      x y z
#    x 1.652520 0.000000 0.000000 
#    y 0.000000 1.652520 0.000000 
#    z 0.000000 0.000000 1.660150 
# 
# From -- ./inp_files/8144.got.cif
#   From: 2010.03.12/outbox.cif.g09.slc.cpg/sg139_5_cif.got.tgz:8144.got - 2010.04.08 09:46:31.
