data_PCOD8319121
_publ_section_title
;
Structure prediction by ZEFSAII (Michael W. Deem and Ramdas Pophale) SiO2 
 PCOD8319121
Probable space group: P 42/N C M
;
_chemical_formula_sum "Si O2"
_cell_formula_units_Z 68
_cell_length_a 10.611040
_cell_length_b 10.611040
_cell_length_c 31.342515
_cell_angle_alpha 90.000000
_cell_angle_beta 90.000000
_cell_angle_gamma 90.000000
_cell_volume 3528.984458
_symmetry_space_group_name_H-M "P 42/N C M"
_symmetry_group_IT_number 138
_space_group.IT_coordinate_system_code '2'
_symmetry_cell_setting 'tetragonal'
loop_
_space_group_symop_operation_xyz
x,y,z
1/2-y,x,1/2+z
1/2-x,1/2-y,z
y,1/2-x,1/2+z
1/2+x,-y,1/2-z
-x,1/2+y,1/2-z
1/2+y,1/2+x,-z
-y,-x,-z
-x,-y,-z
1/2+y,-x,1/2-z
1/2+x,1/2+y,-z
-y,1/2+x,1/2-z
1/2-x,y,1/2+z
x,1/2-y,1/2+z
1/2-y,1/2-x,z
y,x,z
loop_
_atom_site_type_symbol
_atom_site_label
_atom_site_fract_x
_atom_site_fract_y
_atom_site_fract_z
Si Si1 0.749190 0.454618 0.112022
Si Si2 0.605039 0.894962 0.047111
Si Si3 0.397516 0.397516 0.180129
Si Si4 0.105039 0.394962 0.047110
Si Si5 0.545382 0.250809 0.112021
Si Si6 0.250000 0.250000 0.750000
Si Si7 0.397518 0.102483 0.319870
O O1 0.776461 0.547722 0.072624
O O2 0.633118 0.366882 0.097793
O O3 0.871821 0.371821 0.124048
O O4 0.713427 0.536772 0.153093
O O5 0.500000 1.000000 0.042111
O O6 0.649356 0.850645 0.000000
O O7 0.463227 0.286572 0.153092
O O8 0.338720 0.338720 0.222085
O O9 0.499999 0.499999 0.194600
O O10 0.223539 0.452280 0.072623
O O11 0.338720 0.338720 0.777914
#
# Coordination Sequence:
#
# PCOD8319121 Si02
#       7
#    16   8   8   8  16   4   8
#     4   9  18  34  54  73 100 138 171 204 249 298
#     4   9  17  29  49  78 106 135 175 215 249 289
#     4  10  22  38  55  78 103 130 169 207 249 311
#     4   9  17  29  49  78 106 135 175 215 249 289
#     4   9  18  34  54  73 100 138 171 204 249 298
#     4  12  24  36  56  80 102 128 156 208 268 300
#     4  10  22  38  55  78 103 130 169 207 249 311
#
# _framework density 19.268999000000001
#
# number of rings (size 3 to 8) (size 9 to 14) (size 15 to 20)
#    0.000    2.588    0.000    1.412    0.000    2.824 
#    0.000    7.059    0.000    4.235    0.000    0.000 
#    0.000    0.000    0.000    0.000    0.000    0.000 
#
# Total GULP energy -843200.175090 kJ/mol
# GULP energy per Si atom -12400.002575 kJ/mol
# Density = 1.922514 g / cm^3
# Si number density = 19.268999 Si / 1000 Ang^3
#
#
#
# Elastic Constant Matrix: (Units=GPa)
#
#
# Indices 1 2 3 4 5 6 
#
# 1 95.8781 62.4509 82.8657 0.0000 0.0000 0.0000
# 2 62.4509 95.8781 82.8657 0.0000 0.0000 0.0000
# 3 82.8657 82.8657 173.5024 0.0000 0.0000 0.0000
# 4 0.0000 0.0000 0.0000 4.5595 0.0000 0.0000
# 5 0.0000 0.0000 0.0000 0.0000 4.5595 0.0000
# 6 0.0000 0.0000 0.0000 0.0000 0.0000 30.7762
#
#
#
# Elastic Compliance Matrix: (Units=1/GPa)
#
#
# Indices 1 2 3 4 5 6 
#
# 1 0.021273 -0.008643 -0.006032 0.000000 0.000000 0.000000
# 2 -0.008643 0.021273 -0.006032 0.000000 0.000000 0.000000
# 3 -0.006032 -0.006032 0.011526 0.000000 0.000000 0.000000
# 4 0.000000 0.000000 0.000000 0.219324 0.000000 0.000000
# 5 0.000000 0.000000 0.000000 0.000000 0.219324 0.000000
# 6 0.000000 0.000000 0.000000 0.000000 0.000000 0.032493
#
#
# Mechanical properties :
#
#
# Convention : Reuss Voigt Hill
#
# Bulk Modulus (GPa) = 79.00694 91.29145 85.14920
# Shear Modulus (GPa) = 8.75893 17.11745 12.93819
#
# Velocity S-wave (km/s) = 2.13436 2.98374 2.59405
# Velocity P-wave (km/s) = 6.86768 7.70393 7.29779
#
# Compressibility (1/GPa) = 0.01265712
#
# Stress axis : x y z
#
# Youngs Moduli (GPa) = 47.00785 47.00785 86.76251
#
# Poissons Ratio (x) = 0.40628 0.52338
# Poissons Ratio (y) = 0.40628 0.52338
# Poissons Ratio (z) = 0.28356 0.28356
#
# Static dielectric constant tensor:
#      x y z
#    x 3.626990 0.000000 0.000000 
#    y 0.000000 3.626990 0.000000 
#    z 0.000000 0.000000 3.444070 
# 
# 
# High freq. dielectric constant tensor:
#      x y z
#    x 1.758390 0.000000 0.000000 
#    y 0.000000 1.758390 0.000000 
#    z 0.000000 0.000000 1.730240 
# 
# From -- ./inp_files/7826.got.cif
#   From: 2010.03.12/outbox.cif.g09.slc.cpg/sg138_4_cif.got.tgz:7826.got - 2010.04.08 09:41:05.
