data_PCOD8319713
_publ_section_title
;
Structure prediction by ZEFSAII (Michael W. Deem and Ramdas Pophale) SiO2 
 PCOD8319713
Probable space group: I 4/M M M
;
_chemical_formula_sum "Si O2"
_cell_formula_units_Z 240
_cell_length_a 22.094687
_cell_length_b 22.094687
_cell_length_c 28.012718
_cell_angle_alpha 90.000000
_cell_angle_beta 90.000000
_cell_angle_gamma 90.000000
_cell_volume 13675.114034
_symmetry_space_group_name_H-M "I 4/M M M"
_symmetry_group_IT_number 139
_symmetry_cell_setting 'tetragonal'
loop_
_space_group_symop_operation_xyz
x,y,z
-y,x,z
-x,-y,z
y,-x,z
x,-y,-z
-x,y,-z
y,x,-z
-y,-x,-z
-x,-y,-z
y,-x,-z
x,y,-z
-y,x,-z
-x,y,z
x,-y,z
-y,-x,z
y,x,z
1/2+x,1/2+y,1/2+z
1/2-y,1/2+x,1/2+z
1/2-x,1/2-y,1/2+z
1/2+y,1/2-x,1/2+z
1/2+x,1/2-y,1/2-z
1/2-x,1/2+y,1/2-z
1/2+y,1/2+x,1/2-z
1/2-y,1/2-x,1/2-z
1/2-x,1/2-y,1/2-z
1/2+y,1/2-x,1/2-z
1/2+x,1/2+y,1/2-z
1/2-y,1/2+x,1/2-z
1/2-x,1/2+y,1/2+z
1/2+x,1/2-y,1/2+z
1/2-y,1/2-x,1/2+z
1/2+y,1/2+x,1/2+z
loop_
_atom_site_type_symbol
_atom_site_label
_atom_site_fract_x
_atom_site_fract_y
_atom_site_fract_z
Si Si1 0.000000 0.568880 0.057063
Si Si2 0.241536 0.429909 0.948330
Si Si3 0.653545 0.247735 0.389425
Si Si4 0.130439 0.621361 0.554652
Si Si5 0.431057 0.664347 0.125509
Si Si6 0.341488 0.758823 0.278508
Si Si7 0.333423 0.569642 0.554221
Si Si8 0.830573 0.070319 0.735809
O O1 0.941520 0.605450 0.076507
O O2 0.000000 0.500000 0.076973
O O3 0.000000 0.566332 0.000000
O O4 0.255684 0.500000 0.949542
O O5 0.170247 0.422474 0.939101
O O6 0.282142 0.401265 0.906313
O O7 0.258546 0.400752 0.000000
O O8 0.715840 0.284161 0.399692
O O9 0.651105 0.186801 0.418972
O O10 0.649285 0.228590 0.334328
O O11 0.596950 0.288029 0.406617
O O12 0.149080 0.610339 0.500000
O O13 0.500000 0.652003 0.112239
O O14 0.397575 0.602425 0.113523
O O15 0.423064 0.683038 0.180061
O O16 0.291606 0.708395 0.268801
O O17 0.319862 0.819862 0.250000
O O18 0.404944 0.730972 0.260067
O O19 0.307801 0.577736 0.500000
O O20 0.342901 0.500000 0.567076
O O21 0.398385 0.601615 0.558623
O O22 0.890290 0.109711 0.750411
O O23 0.841585 0.000000 0.750317
#
# Coordination Sequence:
#
# PCOD8319713 Si02
#       8
#    16  32  32  32  32  32  32  32
#     4   9  18  34  54  76 104 134 169 213 255 299
#     4   9  18  32  48  69  98 129 162 201 246 294
#     4  10  21  34  49  73 104 135 166 208 259 306
#     4  10  20  32  51  77 102 133 167 204 252 306
#     4   9  18  31  49  72  99 133 169 208 251 298
#     4   9  19  35  54  73  97 132 171 214 258 304
#     4   9  18  32  50  72 103 142 178 214 253 299
#     4   9  18  33  53  77 103 130 164 207 256 307
#
# _framework density 17.550128000000001
#
# number of rings (size 3 to 8) (size 9 to 14) (size 15 to 20)
#    0.000    2.733    0.000    0.800    2.800    4.133 
#    0.000    3.333    0.000    0.000    0.000    5.600 
#    0.000    0.000    0.000    0.000    0.000    0.000 
#
# Total GULP energy -1487218.508716 kJ/mol
# GULP energy per Si atom -12393.487573 kJ/mol
# Density = 1.751018 g / cm^3
# Si number density = 17.550128 Si / 1000 Ang^3
#
#
#
# Elastic Constant Matrix: (Units=GPa)
#
#
# Indices 1 2 3 4 5 6 
#
# 1 85.5517 37.0527 44.0623 0.0000 0.0000 0.0000
# 2 37.0527 85.5517 44.0623 0.0000 0.0000 0.0000
# 3 44.0623 44.0623 72.7698 0.0000 0.0000 0.0000
# 4 0.0000 0.0000 0.0000 19.6132 0.0000 0.0000
# 5 0.0000 0.0000 0.0000 0.0000 19.6132 0.0000
# 6 0.0000 0.0000 0.0000 0.0000 0.0000 21.4820
#
#
#
# Elastic Compliance Matrix: (Units=1/GPa)
#
#
# Indices 1 2 3 4 5 6 
#
# 1 0.017530 -0.003089 -0.008744 0.000000 0.000000 0.000000
# 2 -0.003089 0.017530 -0.008744 0.000000 0.000000 0.000000
# 3 -0.008744 -0.008744 0.024331 0.000000 0.000000 0.000000
# 4 0.000000 0.000000 0.000000 0.050986 0.000000 0.000000
# 5 0.000000 0.000000 0.000000 0.000000 0.050986 0.000000
# 6 0.000000 0.000000 0.000000 0.000000 0.000000 0.046551
#
#
# Mechanical properties :
#
#
# Convention : Reuss Voigt Hill
#
# Bulk Modulus (GPa) = 54.83362 54.91420 54.87391
# Shear Modulus (GPa) = 19.59640 20.05472 19.82556
#
# Velocity S-wave (km/s) = 3.34518 3.38407 3.36468
# Velocity P-wave (km/s) = 6.79942 6.82840 6.81393
#
# Compressibility (1/GPa) = 0.01823699
#
# Stress axis : x y z
#
# Youngs Moduli (GPa) = 57.04424 57.04424 41.09905
#
# Poissons Ratio (x) = 0.17619 0.35939
# Poissons Ratio (y) = 0.17619 0.35939
# Poissons Ratio (z) = 0.49882 0.49882
#
# Static dielectric constant tensor:
#      x y z
#    x 3.268380 0.000000 0.000000 
#    y 0.000000 3.268380 0.000000 
#    z 0.000000 0.000000 3.320590 
# 
# 
# High freq. dielectric constant tensor:
#      x y z
#    x 1.671580 0.000000 0.000000 
#    y 0.000000 1.671580 0.000000 
#    z 0.000000 0.000000 1.665910 
# 
# From -- ./inp_files/14654.got.cif
#   From: 2010.03.12/outbox.cif.g09.slc.cpg/sg139_8_cif.got.tgz:14654.got - 2010.04.08 09:46:31.
