data_PCOD8319082
_publ_section_title
;
Structure prediction by ZEFSAII (Michael W. Deem and Ramdas Pophale) SiO2 
 PCOD8319082
Probable space group: P 42/N C M
;
_chemical_formula_sum "Si O2"
_cell_formula_units_Z 80
_cell_length_a 12.755671
_cell_length_b 12.755671
_cell_length_c 27.783059
_cell_angle_alpha 90.000000
_cell_angle_beta 90.000000
_cell_angle_gamma 90.000000
_cell_volume 4520.502144
_symmetry_space_group_name_H-M "P 42/N C M"
_symmetry_group_IT_number 138
_space_group.IT_coordinate_system_code '2'
_symmetry_cell_setting 'tetragonal'
loop_
_space_group_symop_operation_xyz
x,y,z
1/2-y,x,1/2+z
1/2-x,1/2-y,z
y,1/2-x,1/2+z
1/2+x,-y,1/2-z
-x,1/2+y,1/2-z
1/2+y,1/2+x,-z
-y,-x,-z
-x,-y,-z
1/2+y,-x,1/2-z
1/2+x,1/2+y,-z
-y,1/2+x,1/2-z
1/2-x,y,1/2+z
x,1/2-y,1/2+z
1/2-y,1/2-x,z
y,x,z
loop_
_atom_site_type_symbol
_atom_site_label
_atom_site_fract_x
_atom_site_fract_y
_atom_site_fract_z
Si Si1 0.783008 0.945008 0.181778
Si Si2 0.220576 0.584348 0.738843
Si Si3 0.917397 0.745096 0.077786
Si Si4 0.356357 0.816328 0.552937
Si Si5 0.113101 0.552633 0.644335
O O1 0.841692 0.841692 0.201038
O O2 0.716334 0.919171 0.134410
O O3 0.710548 0.985487 0.225260
O O4 0.866561 0.031090 0.165622
O O5 0.133306 0.664634 0.757348
O O6 0.206293 0.547110 0.683630
O O7 0.849562 0.650439 0.053264
O O8 0.857340 0.857340 0.070022
O O9 0.036559 0.748602 0.058442
O O10 0.250000 0.750000 0.558397
O O11 0.365309 0.865309 0.500000
O O12 0.346962 0.908106 0.592478
O O13 0.061662 0.438339 0.637610
#
# Coordination Sequence:
#
# PCOD8319082 Si02
#       5
#    16  16  16  16  16
#     4   8  15  28  45  70 102 132 168 209 253 306
#     4   9  17  26  45  71  97 136 167 208 253 309
#     4   9  18  33  55  81 106 136 175 221 268 314
#     4  10  21  35  55  79 102 134 176 224 273 316
#     4   9  18  30  47  71 101 130 166 211 255 315
#
# _framework density 17.697147999999999
#
# number of rings (size 3 to 8) (size 9 to 14) (size 15 to 20)
#    0.000    3.000    0.000    1.800    8.400    2.400 
#    0.000    2.000    0.000    1.200    0.000    0.000 
#    0.000    0.000    0.000    0.000    0.000    0.000 
#
# Total GULP energy -991147.803407 kJ/mol
# GULP energy per Si atom -12389.347543 kJ/mol
# Density = 1.765687 g / cm^3
# Si number density = 17.697148 Si / 1000 Ang^3
#
#
#
# Elastic Constant Matrix: (Units=GPa)
#
#
# Indices 1 2 3 4 5 6 
#
# 1 79.4046 46.1906 46.5253 0.0000 0.0000 0.0000
# 2 46.1906 79.4046 46.5253 0.0000 0.0000 0.0000
# 3 46.5253 46.5253 142.6883 0.0000 0.0000 0.0000
# 4 0.0000 0.0000 0.0000 12.6124 0.0000 0.0000
# 5 0.0000 0.0000 0.0000 0.0000 12.6124 0.0000
# 6 0.0000 0.0000 0.0000 0.0000 0.0000 13.8000
#
#
#
# Elastic Compliance Matrix: (Units=1/GPa)
#
#
# Indices 1 2 3 4 5 6 
#
# 1 0.020303 -0.009805 -0.003423 0.000000 0.000000 0.000000
# 2 -0.009805 0.020303 -0.003423 0.000000 0.000000 0.000000
# 3 -0.003423 -0.003423 0.009241 0.000000 0.000000 0.000000
# 4 0.000000 0.000000 0.000000 0.079287 0.000000 0.000000
# 5 0.000000 0.000000 0.000000 0.000000 0.079287 0.000000
# 6 0.000000 0.000000 0.000000 0.000000 0.000000 0.072464
#
#
# Mechanical properties :
#
#
# Convention : Reuss Voigt Hill
#
# Bulk Modulus (GPa) = 60.44257 64.44222 62.44240
# Shear Modulus (GPa) = 15.63959 18.62203 17.13081
#
# Velocity S-wave (km/s) = 2.97599 3.24738 3.11464
# Velocity P-wave (km/s) = 6.78504 7.11010 6.94947
#
# Compressibility (1/GPa) = 0.01654463
#
# Stress axis : x y z
#
# Youngs Moduli (GPa) = 49.25386 49.25386 108.21870
#
# Poissons Ratio (x) = 0.48293 0.37044
# Poissons Ratio (y) = 0.48293 0.37044
# Poissons Ratio (z) = 0.16860 0.16860
#
# Static dielectric constant tensor:
#      x y z
#    x 3.334980 0.000000 0.000000 
#    y 0.000000 3.334980 0.000000 
#    z 0.000000 0.000000 3.494900 
# 
# 
# High freq. dielectric constant tensor:
#      x y z
#    x 1.668270 0.000000 0.000000 
#    y 0.000000 1.668270 0.000000 
#    z 0.000000 0.000000 1.677280 
# 
# From -- ./inp_files/7856.got.cif
#   From: 2010.03.12/outbox.cif.g09.slc.cpg/sg138_4_cif.got.tgz:7856.got - 2010.04.08 09:41:05.
