data_PCOD8319637
_publ_section_title
;
Structure prediction by ZEFSAII (Michael W. Deem and Ramdas Pophale) SiO2 
 PCOD8319637
Probable space group: I 4/M M M
;
_chemical_formula_sum "Si O2"
_cell_formula_units_Z 144
_cell_length_a 19.217913
_cell_length_b 19.217913
_cell_length_c 22.236189
_cell_angle_alpha 90.000000
_cell_angle_beta 90.000000
_cell_angle_gamma 90.000000
_cell_volume 8212.451215
_symmetry_space_group_name_H-M "I 4/M M M"
_symmetry_group_IT_number 139
_symmetry_cell_setting 'tetragonal'
loop_
_space_group_symop_operation_xyz
x,y,z
-y,x,z
-x,-y,z
y,-x,z
x,-y,-z
-x,y,-z
y,x,-z
-y,-x,-z
-x,-y,-z
y,-x,-z
x,y,-z
-y,x,-z
-x,y,z
x,-y,z
-y,-x,z
y,x,z
1/2+x,1/2+y,1/2+z
1/2-y,1/2+x,1/2+z
1/2-x,1/2-y,1/2+z
1/2+y,1/2-x,1/2+z
1/2+x,1/2-y,1/2-z
1/2-x,1/2+y,1/2-z
1/2+y,1/2+x,1/2-z
1/2-y,1/2-x,1/2-z
1/2-x,1/2-y,1/2-z
1/2+y,1/2-x,1/2-z
1/2+x,1/2+y,1/2-z
1/2-y,1/2+x,1/2-z
1/2-x,1/2+y,1/2+z
1/2+x,1/2-y,1/2+z
1/2-y,1/2-x,1/2+z
1/2+y,1/2+x,1/2+z
loop_
_atom_site_type_symbol
_atom_site_label
_atom_site_fract_x
_atom_site_fract_y
_atom_site_fract_z
Si Si1 0.580089 0.800508 0.896353
Si Si2 0.807352 0.920265 0.843886
Si Si3 0.581530 0.304462 0.000000
Si Si4 0.579961 0.182691 0.430262
Si Si5 0.359269 0.245896 0.226087
O O1 0.500000 0.819005 0.905776
O O2 0.619819 0.871877 0.909293
O O3 0.592252 0.772260 0.829703
O O4 0.603282 0.740125 0.941907
O O5 0.875593 0.875593 0.856668
O O6 0.750379 0.897994 0.892854
O O7 0.778419 0.907641 0.777244
O O8 0.828985 0.000000 0.850901
O O9 0.500000 0.323552 0.000000
O O10 0.623622 0.376379 0.000000
O O11 0.591377 0.199948 0.500000
O O12 0.500000 0.161895 0.416820
O O13 0.299345 0.299345 0.205536
O O14 0.324748 0.175253 0.250000
#
# Coordination Sequence:
#
# PCOD8319637 Si02
#       5
#    32  32  16  32  32
#     4  11  21  35  55  81 109 140 180 224 266 314
#     4  10  21  37  57  82 111 144 182 222 268 320
#     4  10  22  37  55  81 109 139 176 218 268 320
#     4  10  21  37  55  78 110 145 180 221 269 321
#     4  10  19  33  55  81 107 140 179 222 271 315
#
# _framework density 17.534351000000001
#
# number of rings (size 3 to 8) (size 9 to 14) (size 15 to 20)
#    0.000    1.778    3.333    1.333    0.000    2.111 
#    0.000    1.111    0.000    0.000    0.000    6.222 
#    0.000    0.000    0.000    0.000    0.000    0.000 
#
# Total GULP energy -893110.642069 kJ/mol
# GULP energy per Si atom -12404.314473 kJ/mol
# Density = 1.749444 g / cm^3
# Si number density = 17.534351 Si / 1000 Ang^3
#
#
#
# Elastic Constant Matrix: (Units=GPa)
#
#
# Indices 1 2 3 4 5 6 
#
# 1 97.5227 69.3643 44.8836 0.0000 0.0000 0.0000
# 2 69.3643 97.5206 44.8828 0.0000 0.0000 0.0000
# 3 44.8836 44.8828 112.7779 0.0000 0.0000 0.0000
# 4 0.0000 0.0000 0.0000 25.0777 0.0000 0.0000
# 5 0.0000 0.0000 0.0000 0.0000 25.0767 0.0000
# 6 0.0000 0.0000 0.0000 0.0000 0.0000 32.7664
#
#
#
# Elastic Compliance Matrix: (Units=1/GPa)
#
#
# Indices 1 2 3 4 5 6 
#
# 1 0.021569 -0.013945 -0.003034 0.000000 0.000000 0.000000
# 2 -0.013945 0.021570 -0.003034 0.000000 0.000000 0.000000
# 3 -0.003034 -0.003034 0.011282 0.000000 0.000000 0.000000
# 4 0.000000 0.000000 0.000000 0.039876 0.000000 0.000000
# 5 0.000000 0.000000 0.000000 0.000000 0.039878 0.000000
# 6 0.000000 0.000000 0.000000 0.000000 0.000000 0.030519
#
#
# Mechanical properties :
#
#
# Convention : Reuss Voigt Hill
#
# Bulk Modulus (GPa) = 69.47593 69.56475 69.52034
# Shear Modulus (GPa) = 23.86414 26.49685 25.18050
#
# Velocity S-wave (km/s) = 3.69317 3.89155 3.79366
# Velocity P-wave (km/s) = 7.60886 7.74285 7.67615
#
# Compressibility (1/GPa) = 0.01439347
#
# Stress axis : x y z
#
# Youngs Moduli (GPa) = 46.36226 46.36141 88.63566
#
# Poissons Ratio (x) = 0.64652 0.26895
# Poissons Ratio (y) = 0.64653 0.26894
# Poissons Ratio (z) = 0.14068 0.14067
#
# Static dielectric constant tensor:
#      x y z
#    x 3.176700 0.000000 0.000000 
#    y 0.000000 3.176700 0.000000 
#    z 0.000000 0.000000 3.471280 
# 
# 
# High freq. dielectric constant tensor:
#      x y z
#    x 1.675780 0.000000 0.000000 
#    y 0.000000 1.675780 0.000000 
#    z 0.000000 0.000000 1.692860 
# 
# From -- ./inp_files/11471.got.cif
#   From: 2010.03.12/outbox.cif.g09.slc.cpg/sg139_6_cif.got.tgz:11471.got - 2010.04.08 09:46:31.
