data_PCOD8319744
_publ_section_title
;
Structure prediction by ZEFSAII (Michael W. Deem and Ramdas Pophale) SiO2 
 PCOD8319744
Probable space group: I 4/M M M
;
_chemical_formula_sum "Si O2"
_cell_formula_units_Z 160
_cell_length_a 30.736705
_cell_length_b 30.736705
_cell_length_c 9.476291
_cell_angle_alpha 90.000000
_cell_angle_beta 90.000000
_cell_angle_gamma 90.000000
_cell_volume 8952.678865
_symmetry_space_group_name_H-M "I 4/M M M"
_symmetry_group_IT_number 139
_symmetry_cell_setting 'tetragonal'
loop_
_space_group_symop_operation_xyz
x,y,z
-y,x,z
-x,-y,z
y,-x,z
x,-y,-z
-x,y,-z
y,x,-z
-y,-x,-z
-x,-y,-z
y,-x,-z
x,y,-z
-y,x,-z
-x,y,z
x,-y,z
-y,-x,z
y,x,z
1/2+x,1/2+y,1/2+z
1/2-y,1/2+x,1/2+z
1/2-x,1/2-y,1/2+z
1/2+y,1/2-x,1/2+z
1/2+x,1/2-y,1/2-z
1/2-x,1/2+y,1/2-z
1/2+y,1/2+x,1/2-z
1/2-y,1/2-x,1/2-z
1/2-x,1/2-y,1/2-z
1/2+y,1/2-x,1/2-z
1/2+x,1/2+y,1/2-z
1/2-y,1/2+x,1/2-z
1/2-x,1/2+y,1/2+z
1/2+x,1/2-y,1/2+z
1/2-y,1/2-x,1/2+z
1/2+y,1/2+x,1/2+z
loop_
_atom_site_type_symbol
_atom_site_label
_atom_site_fract_x
_atom_site_fract_y
_atom_site_fract_z
Si Si1 0.000000 0.123887 0.667009
Si Si2 0.146506 0.146506 0.842020
Si Si3 0.762603 0.901794 0.158601
Si Si4 0.500000 0.293370 0.342156
Si Si5 0.608852 0.950416 0.336917
Si Si6 0.380396 0.819570 0.165808
Si Si7 0.912190 0.087811 0.332899
O O1 0.000000 0.172392 0.718788
O O2 0.040991 0.098779 0.729129
O O3 0.000000 0.124956 0.500000
O O4 0.131362 0.196551 0.820651
O O5 0.122056 0.122056 0.719725
O O6 0.132245 0.132245 0.000000
O O7 0.768696 0.954025 0.179601
O O8 0.728589 0.887265 0.276153
O O9 0.744545 0.894779 0.000000
O O10 0.500000 0.313695 0.500000
O O11 0.596018 0.946788 0.500000
O O12 0.568387 0.931614 0.250000
O O13 0.652721 0.923908 0.304116
O O14 0.617354 0.000000 0.290958
O O15 0.340252 0.840252 0.250000
O O16 0.369384 0.817632 0.000000
O O17 0.911196 0.088805 0.500000
#
# Coordination Sequence:
#
# PCOD8319744 Si02
#       7
#    16  16  32  16  32  32  16
#     4  10  20  33  50  74 106 144 186 231 277 330
#     4  10  20  36  58  80 109 144 178 224 277 334
#     4  10  21  36  56  85 113 142 181 225 275 329
#     4  10  20  34  55  83 113 144 181 227 276 328
#     4   9  19  35  53  77 109 144 182 220 262 311
#     4  10  21  38  60  82 111 148 182 226 273 323
#     4  10  20  33  50  73 105 144 185 230 278 330
#
# _framework density 17.871746000000002
#
# number of rings (size 3 to 8) (size 9 to 14) (size 15 to 20)
#    0.000    2.200    2.000    0.600    1.400    3.200 
#    0.000    2.500    0.000    0.000    0.000    1.400 
#    0.000    0.000    0.000    0.000    0.000    0.000 
#
# Total GULP energy -991303.823905 kJ/mol
# GULP energy per Si atom -12391.297799 kJ/mol
# Density = 1.783107 g / cm^3
# Si number density = 17.871746 Si / 1000 Ang^3
#
#
#
# Elastic Constant Matrix: (Units=GPa)
#
#
# Indices 1 2 3 4 5 6 
#
# 1 111.9101 51.3281 48.1327 0.0000 0.0000 0.0000
# 2 51.3281 111.9068 48.1318 0.0000 0.0000 0.0000
# 3 48.1327 48.1318 60.0869 0.0000 0.0000 0.0000
# 4 0.0000 0.0000 0.0000 27.2776 0.0000 0.0000
# 5 0.0000 0.0000 0.0000 0.0000 27.2779 0.0000
# 6 0.0000 0.0000 0.0000 0.0000 0.0000 22.0506
#
#
#
# Elastic Compliance Matrix: (Units=1/GPa)
#
#
# Indices 1 2 3 4 5 6 
#
# 1 0.014059 -0.002448 -0.009301 0.000000 0.000000 0.000000
# 2 -0.002448 0.014059 -0.009301 0.000000 0.000000 0.000000
# 3 -0.009301 -0.009301 0.031544 0.000000 0.000000 0.000000
# 4 0.000000 0.000000 0.000000 0.036660 0.000000 0.000000
# 5 0.000000 0.000000 0.000000 0.000000 0.036660 0.000000
# 6 0.000000 0.000000 0.000000 0.000000 0.000000 0.045350
#
#
# Mechanical properties :
#
#
# Convention : Reuss Voigt Hill
#
# Bulk Modulus (GPa) = 56.94181 64.34322 60.64251
# Shear Modulus (GPa) = 22.09597 24.40865 23.25231
#
# Velocity S-wave (km/s) = 3.52001 3.69964 3.61094
# Velocity P-wave (km/s) = 6.96069 7.37094 7.16875
#
# Compressibility (1/GPa) = 0.01756179
#
# Stress axis : x y z
#
# Youngs Moduli (GPa) = 71.12955 71.12764 31.70213
#
# Poissons Ratio (x) = 0.17412 0.29486
# Poissons Ratio (y) = 0.17412 0.29486
# Poissons Ratio (z) = 0.66157 0.66156
#
# Static dielectric constant tensor:
#      x y z
#    x 3.388050 0.000000 0.000000 
#    y 0.000000 3.388050 0.000000 
#    z 0.000000 0.000000 3.334130 
# 
# 
# High freq. dielectric constant tensor:
#      x y z
#    x 1.688920 0.000000 0.000000 
#    y 0.000000 1.688920 0.000000 
#    z 0.000000 0.000000 1.697570 
# 
# From -- ./inp_files/2309.got.cif
#   From: 2010.03.12/outbox.cif.g09.slc.cpg/sg139_2_cif.got.tgz:2309.got - 2010.04.08 09:46:31.
