data_PCOD8319762
_publ_section_title
;
Structure prediction by ZEFSAII (Michael W. Deem and Ramdas Pophale) SiO2 
 PCOD8319762
Probable space group: I 4/M M M
;
_chemical_formula_sum "Si O2"
_cell_formula_units_Z 112
_cell_length_a 18.619611
_cell_length_b 18.619611
_cell_length_c 17.275121
_cell_angle_alpha 90.000000
_cell_angle_beta 90.000000
_cell_angle_gamma 90.000000
_cell_volume 5989.110210
_symmetry_space_group_name_H-M "I 4/M M M"
_symmetry_group_IT_number 139
_symmetry_cell_setting 'tetragonal'
loop_
_space_group_symop_operation_xyz
x,y,z
-y,x,z
-x,-y,z
y,-x,z
x,-y,-z
-x,y,-z
y,x,-z
-y,-x,-z
-x,-y,-z
y,-x,-z
x,y,-z
-y,x,-z
-x,y,z
x,-y,z
-y,-x,z
y,x,z
1/2+x,1/2+y,1/2+z
1/2-y,1/2+x,1/2+z
1/2-x,1/2-y,1/2+z
1/2+y,1/2-x,1/2+z
1/2+x,1/2-y,1/2-z
1/2-x,1/2+y,1/2-z
1/2+y,1/2+x,1/2-z
1/2-y,1/2-x,1/2-z
1/2-x,1/2-y,1/2-z
1/2+y,1/2-x,1/2-z
1/2+x,1/2+y,1/2-z
1/2-y,1/2+x,1/2-z
1/2-x,1/2+y,1/2+z
1/2+x,1/2-y,1/2+z
1/2-y,1/2-x,1/2+z
1/2+y,1/2+x,1/2+z
loop_
_atom_site_type_symbol
_atom_site_label
_atom_site_fract_x
_atom_site_fract_y
_atom_site_fract_z
Si Si1 0.916486 0.296795 0.643451
Si Si2 0.198980 0.083314 0.500000
Si Si3 0.815441 0.582456 0.589138
Si Si4 0.700781 0.417799 0.711965
O O1 0.894036 0.243536 0.575073
O O2 0.874002 0.370867 0.634371
O O3 0.895381 0.259092 0.723684
O O4 0.000000 0.316602 0.639586
O O5 0.123821 0.123821 0.500000
O O6 0.179732 0.000000 0.500000
O O7 0.808789 0.606144 0.500000
O O8 0.840440 0.500000 0.596831
O O9 0.737567 0.593051 0.628400
O O10 0.676304 0.500000 0.724907
O O11 0.630301 0.369700 0.718294
#
# Coordination Sequence:
#
# PCOD8319762 Si02
#       4
#    32  16  32  32
#     4  10  20  36  56  81 111 144 184 226 269 326
#     4  10  20  33  51  77 107 141 182 226 272 324
#     4  10  21  37  56  82 115 148 184 226 272 325
#     4  10  22  39  58  81 110 143 183 232 280 330
#
# _framework density 18.700607000000002
#
# number of rings (size 3 to 8) (size 9 to 14) (size 15 to 20)
#    0.000    2.000    1.429    1.714    0.000    5.000 
#    0.000    1.429    0.000   10.286    0.000    4.000 
#    0.000    0.000    0.000    0.000    0.000    0.000 
#
# Total GULP energy -694586.809961 kJ/mol
# GULP energy per Si atom -12403.335892 kJ/mol
# Density = 1.865804 g / cm^3
# Si number density = 18.700607 Si / 1000 Ang^3
#
#
#
# Elastic Constant Matrix: (Units=GPa)
#
#
# Indices 1 2 3 4 5 6 
#
# 1 100.3148 77.7516 49.0262 0.0000 0.0000 0.0000
# 2 77.7516 100.3148 49.0262 0.0000 0.0000 0.0000
# 3 49.0262 49.0262 98.4137 0.0000 0.0000 0.0000
# 4 0.0000 0.0000 0.0000 20.7460 0.0000 0.0000
# 5 0.0000 0.0000 0.0000 0.0000 20.7460 0.0000
# 6 0.0000 0.0000 0.0000 0.0000 0.0000 38.2139
#
#
#
# Elastic Compliance Matrix: (Units=1/GPa)
#
#
# Indices 1 2 3 4 5 6 
#
# 1 0.026029 -0.018291 -0.003855 0.000000 0.000000 0.000000
# 2 -0.018291 0.026029 -0.003855 0.000000 0.000000 0.000000
# 3 -0.003855 -0.003855 0.014002 0.000000 0.000000 0.000000
# 4 0.000000 0.000000 0.000000 0.048202 0.000000 0.000000
# 5 0.000000 0.000000 0.000000 0.000000 0.048202 0.000000
# 6 0.000000 0.000000 0.000000 0.000000 0.000000 0.026169
#
#
# Mechanical properties :
#
#
# Convention : Reuss Voigt Hill
#
# Bulk Modulus (GPa) = 71.12871 72.29456 71.71164
# Shear Modulus (GPa) = 20.38139 24.15711 22.26925
#
# Velocity S-wave (km/s) = 3.30491 3.59804 3.45458
# Velocity P-wave (km/s) = 7.25819 7.48358 7.37175
#
# Compressibility (1/GPa) = 0.01405902
#
# Stress axis : x y z
#
# Youngs Moduli (GPa) = 38.41819 38.41819 71.41737
#
# Poissons Ratio (x) = 0.70269 0.27533
# Poissons Ratio (y) = 0.70269 0.27533
# Poissons Ratio (z) = 0.14811 0.14811
#
# Static dielectric constant tensor:
#      x y z
#    x 3.264500 0.000000 0.000000 
#    y 0.000000 3.264500 0.000000 
#    z 0.000000 0.000000 3.738200 
# 
# 
# High freq. dielectric constant tensor:
#      x y z
#    x 1.718740 0.000000 0.000000 
#    y 0.000000 1.718740 0.000000 
#    z 0.000000 0.000000 1.744200 
# 
# From -- ./inp_files/7547.got.cif
#   From: 2010.03.12/outbox.cif.g09.slc.cpg/sg139_4_cif.got.tgz:7547.got - 2010.04.08 09:46:31.
