data_PCOD8319840
_publ_section_title
;
Structure prediction by ZEFSAII (Michael W. Deem and Ramdas Pophale) SiO2 
 PCOD8319840
Probable space group: I 4/M M M
;
_chemical_formula_sum "Si O2"
_cell_formula_units_Z 192
_cell_length_a 19.684210
_cell_length_b 19.684210
_cell_length_c 27.902606
_cell_angle_alpha 90.000000
_cell_angle_beta 90.000000
_cell_angle_gamma 90.000000
_cell_volume 10811.370383
_symmetry_space_group_name_H-M "I 4/M M M"
_symmetry_group_IT_number 139
_symmetry_cell_setting 'tetragonal'
loop_
_space_group_symop_operation_xyz
x,y,z
-y,x,z
-x,-y,z
y,-x,z
x,-y,-z
-x,y,-z
y,x,-z
-y,-x,-z
-x,-y,-z
y,-x,-z
x,y,-z
-y,x,-z
-x,y,z
x,-y,z
-y,-x,z
y,x,z
1/2+x,1/2+y,1/2+z
1/2-y,1/2+x,1/2+z
1/2-x,1/2-y,1/2+z
1/2+y,1/2-x,1/2+z
1/2+x,1/2-y,1/2-z
1/2-x,1/2+y,1/2-z
1/2+y,1/2+x,1/2-z
1/2-y,1/2-x,1/2-z
1/2-x,1/2-y,1/2-z
1/2+y,1/2-x,1/2-z
1/2+x,1/2+y,1/2-z
1/2-y,1/2+x,1/2-z
1/2-x,1/2+y,1/2+z
1/2+x,1/2-y,1/2+z
1/2-y,1/2-x,1/2+z
1/2+y,1/2+x,1/2+z
loop_
_atom_site_type_symbol
_atom_site_label
_atom_site_fract_x
_atom_site_fract_y
_atom_site_fract_z
Si Si1 0.755049 0.132497 0.706980
Si Si2 0.147154 0.260989 0.811321
Si Si3 0.678304 0.426222 0.444947
Si Si4 0.077716 0.314854 0.098143
Si Si5 0.579298 0.820421 0.944083
Si Si6 0.189882 0.923851 0.384735
O O1 0.807509 0.192492 0.701569
O O2 0.756029 0.106017 0.762009
O O3 0.682982 0.165994 0.694859
O O4 0.775065 0.075665 0.668058
O O5 0.200704 0.200704 0.823591
O O6 0.093471 0.273494 0.853116
O O7 0.658636 0.430021 0.500000
O O8 0.664605 0.500000 0.420552
O O9 0.630817 0.369184 0.419660
O O10 0.758095 0.408534 0.442187
O O11 0.124455 0.379215 0.086557
O O12 0.000000 0.340476 0.099116
O O13 0.500000 0.836413 0.936181
O O14 0.597457 0.745642 0.924304
O O15 0.598911 0.823735 0.000000
O O16 0.126582 0.873419 0.389162
O O17 0.163258 0.000000 0.394443
#
# Coordination Sequence:
#
# PCOD8319840 Si02
#       6
#    32  32  32  32  32  32
#     4   8  15  29  51  76 102 135 172 211 249 293
#     4   9  16  29  50  76 106 136 170 211 255 300
#     4   9  18  31  46  67  96 129 164 202 245 293
#     4  11  21  32  50  77 105 131 166 216 265 306
#     4  10  22  39  56  73  96 133 178 218 261 320
#     4  10  20  35  56  82 110 139 174 215 260 314
#
# _framework density 17.759080999999998
#
# number of rings (size 3 to 8) (size 9 to 14) (size 15 to 20)
#    0.000    2.500    1.667    2.000    0.000    3.333 
#    0.000    1.667    0.000    0.000    0.000    2.333 
#    0.000    4.000    0.000    0.000    0.000    0.000 
#
# Total GULP energy -1189521.463602 kJ/mol
# GULP energy per Si atom -12390.848579 kJ/mol
# Density = 1.771866 g / cm^3
# Si number density = 17.759081 Si / 1000 Ang^3
#
#
#
# Elastic Constant Matrix: (Units=GPa)
#
#
# Indices 1 2 3 4 5 6 
#
# 1 83.7010 56.1511 29.3845 0.0000 0.0000 0.0000
# 2 56.1511 83.7010 29.3845 0.0000 0.0000 0.0000
# 3 29.3845 29.3845 83.8518 0.0000 0.0000 0.0000
# 4 0.0000 0.0000 0.0000 20.9546 0.0000 0.0000
# 5 0.0000 0.0000 0.0000 0.0000 20.9546 0.0000
# 6 0.0000 0.0000 0.0000 0.0000 0.0000 25.9880
#
#
#
# Elastic Compliance Matrix: (Units=1/GPa)
#
#
# Indices 1 2 3 4 5 6 
#
# 1 0.022342 -0.013956 -0.002938 0.000000 0.000000 0.000000
# 2 -0.013956 0.022342 -0.002938 0.000000 0.000000 0.000000
# 3 -0.002938 -0.002938 0.013985 0.000000 0.000000 0.000000
# 4 0.000000 0.000000 0.000000 0.047722 0.000000 0.000000
# 5 0.000000 0.000000 0.000000 0.000000 0.047722 0.000000
# 6 0.000000 0.000000 0.000000 0.000000 0.000000 0.038479
#
#
# Mechanical properties :
#
#
# Convention : Reuss Voigt Hill
#
# Bulk Modulus (GPa) = 52.62643 53.45489 53.04066
# Shear Modulus (GPa) = 20.95625 22.66836 21.81230
#
# Velocity S-wave (km/s) = 3.43888 3.57660 3.50842
# Velocity P-wave (km/s) = 6.74283 6.87179 6.80762
#
# Compressibility (1/GPa) = 0.01900186
#
# Stress axis : x y z
#
# Youngs Moduli (GPa) = 44.75971 44.75971 71.50377
#
# Poissons Ratio (x) = 0.62468 0.21011
# Poissons Ratio (y) = 0.62468 0.21011
# Poissons Ratio (z) = 0.13152 0.13152
#
# Static dielectric constant tensor:
#      x y z
#    x 3.317170 0.000000 0.000000 
#    y 0.000000 3.317170 0.000000 
#    z 0.000000 0.000000 3.558880 
# 
# 
# High freq. dielectric constant tensor:
#      x y z
#    x 1.672970 0.000000 0.000000 
#    y 0.000000 1.672970 0.000000 
#    z 0.000000 0.000000 1.689270 
# 
# From -- ./inp_files/13268.got.cif
#   From: 2010.03.12/outbox.cif.g09.slc.cpg/sg139_7_cif.got.tgz:13268.got - 2010.04.08 09:46:31.
