data_PCOD8319156
_publ_section_title
;
Structure prediction by ZEFSAII (Michael W. Deem and Ramdas Pophale) SiO2 
 PCOD8319156
Probable space group: P 42/N C M
;
_chemical_formula_sum "Si O2"
_cell_formula_units_Z 92
_cell_length_a 16.140615
_cell_length_b 16.140615
_cell_length_c 17.728306
_cell_angle_alpha 90.000000
_cell_angle_beta 90.000000
_cell_angle_gamma 90.000000
_cell_volume 4618.568574
_symmetry_space_group_name_H-M "P 42/N C M"
_symmetry_group_IT_number 138
_space_group.IT_coordinate_system_code '2'
_symmetry_cell_setting 'tetragonal'
loop_
_space_group_symop_operation_xyz
x,y,z
1/2-y,x,1/2+z
1/2-x,1/2-y,z
y,1/2-x,1/2+z
1/2+x,-y,1/2-z
-x,1/2+y,1/2-z
1/2+y,1/2+x,-z
-y,-x,-z
-x,-y,-z
1/2+y,-x,1/2-z
1/2+x,1/2+y,-z
-y,1/2+x,1/2-z
1/2-x,y,1/2+z
x,1/2-y,1/2+z
1/2-y,1/2-x,z
y,x,z
loop_
_atom_site_type_symbol
_atom_site_label
_atom_site_fract_x
_atom_site_fract_y
_atom_site_fract_z
Si Si1 0.920621 0.579380 0.782110
Si Si2 0.629762 0.870239 0.949934
Si Si3 0.373009 0.373009 0.883600
Si Si4 0.820414 0.047850 0.473499
Si Si5 0.264757 0.653608 0.828644
Si Si6 0.847104 0.054102 0.054389
Si Si7 0.407576 0.648140 0.314296
Si Si8 0.750000 0.750000 0.032597
O O1 0.881215 0.618786 0.858469
O O2 0.878404 0.621597 0.708130
O O3 0.909088 0.479260 0.777798
O O4 0.546165 0.843679 0.991902
O O5 0.697516 0.802485 0.972394
O O6 0.460800 0.349048 0.918196
O O7 0.305785 0.305785 0.910857
O O8 0.895621 0.104380 0.500000
O O9 0.735889 0.075715 0.510199
O O10 0.804556 0.051428 0.383887
O O11 0.250000 0.750000 0.849296
O O12 0.342237 0.616210 0.874659
O O13 0.284085 0.633923 0.741226
O O14 0.177248 0.602460 0.844115
O O15 0.925003 0.074997 0.000000
#
# Coordination Sequence:
#
# PCOD8319156 Si02
#       8
#     8   8   8  16  16  16  16   4
#     4  10  24  41  66  90 134 166 208 266 335 384
#     4  10  23  43  65  94 121 168 213 278 325 379
#     4  12  25  49  67  94 129 181 214 277 324 391
#     4  11  22  38  62  95 128 162 211 273 326 379
#     4  12  22  37  63  93 130 170 212 256 316 387
#     4  12  26  40  64  96 134 170 216 262 324 396
#     4  11  21  37  60  91 126 171 205 256 324 381
#     4  12  24  46  76  92 120 166 238 266 320 378
#
# _framework density 19.919592999999999
#
# number of rings (size 3 to 8) (size 9 to 14) (size 15 to 20)
#    0.000    0.696    6.957    1.565    0.000    0.348 
#    0.000    0.870    0.000    0.000    0.000    0.000 
#    0.000    0.000    0.000    0.000    0.000    0.000 
#
# Total GULP energy -1139800.190915 kJ/mol
# GULP energy per Si atom -12389.132510 kJ/mol
# Density = 1.987426 g / cm^3
# Si number density = 19.919593 Si / 1000 Ang^3
#
#
#
# Elastic Constant Matrix: (Units=GPa)
#
#
# Indices 1 2 3 4 5 6 
#
# 1 202.5120 -52.0048 31.5773 0.0000 0.0000 0.0000
# 2 -52.0048 202.4803 31.5648 0.0000 0.0000 0.0000
# 3 31.5773 31.5648 80.5182 0.0000 0.0000 0.0000
# 4 0.0000 0.0000 0.0000 24.0149 0.0000 0.0000
# 5 0.0000 0.0000 0.0000 0.0000 24.0166 0.0000
# 6 0.0000 0.0000 0.0000 0.0000 0.0000 30.2021
#
#
#
# Elastic Compliance Matrix: (Units=1/GPa)
#
#
# Indices 1 2 3 4 5 6 
#
# 1 0.005941 0.002012 -0.003119 0.000000 0.000000 0.000000
# 2 0.002012 0.005942 -0.003118 0.000000 0.000000 0.000000
# 3 -0.003119 -0.003118 0.014865 0.000000 0.000000 0.000000
# 4 0.000000 0.000000 0.000000 0.041641 0.000000 0.000000
# 5 0.000000 0.000000 0.000000 0.000000 0.041638 0.000000
# 6 0.000000 0.000000 0.000000 0.000000 0.000000 0.033110
#
#
# Mechanical properties :
#
#
# Convention : Reuss Voigt Hill
#
# Bulk Modulus (GPa) = 54.65146 56.42057 55.53601
# Shear Modulus (GPa) = 31.70865 47.27160 39.49013
#
# Velocity S-wave (km/s) = 3.99411 4.87675 4.45733
# Velocity P-wave (km/s) = 6.98327 7.75216 7.37774
#
# Compressibility (1/GPa) = 0.01829777
#
# Stress axis : x y z
#
# Youngs Moduli (GPa) = 168.32304 168.30372 67.27185
#
# Poissons Ratio (x) = -0.33863 0.20980
# Poissons Ratio (y) = -0.33867 0.20978
# Poissons Ratio (z) = 0.52494 0.52482
#
# Static dielectric constant tensor:
#      x y z
#    x 3.713410 0.000000 0.000000 
#    y 0.000000 3.713410 0.000000 
#    z 0.000000 0.000000 3.888150 
# 
# 
# High freq. dielectric constant tensor:
#      x y z
#    x 1.771300 0.000000 0.000000 
#    y 0.000000 1.771300 0.000000 
#    z 0.000000 0.000000 1.794070 
# 
# From -- ./inp_files/6323.got.cif
#   From: 2010.03.12/outbox.cif.g09.slc.cpg/sg138_4_cif.got.tgz:6323.got - 2010.04.08 09:41:05.
