data_PCOD8319934
_publ_section_title
;
Structure prediction by ZEFSAII (Michael W. Deem and Ramdas Pophale) SiO2 
 PCOD8319934
Probable space group: I 4/M M M
;
_chemical_formula_sum "Si O2"
_cell_formula_units_Z 88
_cell_length_a 16.725900
_cell_length_b 16.725900
_cell_length_c 15.651580
_cell_angle_alpha 90.000000
_cell_angle_beta 90.000000
_cell_angle_gamma 90.000000
_cell_volume 4378.619201
_symmetry_space_group_name_H-M "I 4/M M M"
_symmetry_group_IT_number 139
_symmetry_cell_setting 'tetragonal'
loop_
_space_group_symop_operation_xyz
x,y,z
-y,x,z
-x,-y,z
y,-x,z
x,-y,-z
-x,y,-z
y,x,-z
-y,-x,-z
-x,-y,-z
y,-x,-z
x,y,-z
-y,x,-z
-x,y,z
x,-y,z
-y,-x,z
y,x,z
1/2+x,1/2+y,1/2+z
1/2-y,1/2+x,1/2+z
1/2-x,1/2-y,1/2+z
1/2+y,1/2-x,1/2+z
1/2+x,1/2-y,1/2-z
1/2-x,1/2+y,1/2-z
1/2+y,1/2+x,1/2-z
1/2-y,1/2-x,1/2-z
1/2-x,1/2-y,1/2-z
1/2+y,1/2-x,1/2-z
1/2+x,1/2+y,1/2-z
1/2-y,1/2+x,1/2-z
1/2-x,1/2+y,1/2+z
1/2+x,1/2-y,1/2+z
1/2-y,1/2-x,1/2+z
1/2+y,1/2+x,1/2+z
loop_
_atom_site_type_symbol
_atom_site_label
_atom_site_fract_x
_atom_site_fract_y
_atom_site_fract_z
Si Si1 0.339055 0.339055 0.000000
Si Si2 0.907363 0.092638 0.327857
Si Si3 0.336621 0.094078 0.161984
Si Si4 0.693309 0.306692 0.303412
Si Si5 0.091093 0.332308 0.500000
O O1 0.379495 0.379495 0.080346
O O2 0.351697 0.244324 0.000000
O O3 0.860387 0.139614 0.256719
O O4 0.000000 0.112023 0.316831
O O5 0.373643 0.126358 0.250000
O O6 0.250381 0.134934 0.141596
O O7 0.394920 0.114292 0.083878
O O8 0.324529 0.000000 0.169435
O O9 0.750000 0.250000 0.250000
O O10 0.000000 0.302442 0.500000
#
# Coordination Sequence:
#
# PCOD8319934 Si02
#       5
#     8  16  32  16  16
#     4  12  22  37  58  84 122 161 198 240 298 362
#     4  11  22  36  58  89 122 155 195 245 298 353
#     4  11  23  40  62  87 119 159 201 249 303 358
#     4  10  21  38  59  82 112 152 197 239 288 350
#     4  12  25  40  61  89 121 157 200 249 298 357
#
# _framework density 20.097660000000001
#
# number of rings (size 3 to 8) (size 9 to 14) (size 15 to 20)
#    0.000    0.909    0.000    9.818    0.000    4.000 
#    0.000    0.000    0.000    0.000    0.000    0.000 
#    0.000   10.182    0.000    0.000    0.000    0.000 
#
# Total GULP energy -545696.434121 kJ/mol
# GULP energy per Si atom -12402.191685 kJ/mol
# Density = 2.005192 g / cm^3
# Si number density = 20.097660 Si / 1000 Ang^3
#
#
#
# Elastic Constant Matrix: (Units=GPa)
#
#
# Indices 1 2 3 4 5 6 
#
# 1 104.9895 79.0541 29.9207 0.0000 0.0000 0.0000
# 2 79.0541 104.9852 29.9206 0.0000 0.0000 0.0000
# 3 29.9207 29.9206 108.7784 0.0000 0.0000 0.0000
# 4 0.0000 0.0000 0.0000 25.5274 0.0000 0.0000
# 5 0.0000 0.0000 0.0000 0.0000 25.5280 0.0000
# 6 0.0000 0.0000 0.0000 0.0000 0.0000 37.8726
#
#
#
# Elastic Compliance Matrix: (Units=1/GPa)
#
#
# Indices 1 2 3 4 5 6 
#
# 1 0.022263 -0.016297 -0.001641 0.000000 0.000000 0.000000
# 2 -0.016297 0.022264 -0.001641 0.000000 0.000000 0.000000
# 3 -0.001641 -0.001641 0.010096 0.000000 0.000000 0.000000
# 4 0.000000 0.000000 0.000000 0.039174 0.000000 0.000000
# 5 0.000000 0.000000 0.000000 0.000000 0.039173 0.000000
# 6 0.000000 0.000000 0.000000 0.000000 0.000000 0.026404
#
#
# Mechanical properties :
#
#
# Convention : Reuss Voigt Hill
#
# Bulk Modulus (GPa) = 64.66205 66.28266 65.47235
# Shear Modulus (GPa) = 24.54736 29.77612 27.16174
#
# Velocity S-wave (km/s) = 3.49865 3.85329 3.68025
# Velocity P-wave (km/s) = 6.96882 7.26974 7.12087
#
# Compressibility (1/GPa) = 0.01546502
#
# Stress axis : x y z
#
# Youngs Moduli (GPa) = 44.91686 44.91487 99.04967
#
# Poissons Ratio (x) = 0.73196 0.16256
# Poissons Ratio (y) = 0.73199 0.16259
# Poissons Ratio (z) = 0.07372 0.07373
#
# Static dielectric constant tensor:
#      x y z
#    x 1.053180 0.000000 0.000000 
#    y 0.000000 1.089830 0.000000 
#    z 0.000000 0.000000 3.619120 
# 
# 
# High freq. dielectric constant tensor:
#      x y z
#    x 1.799860 0.000000 0.000000 
#    y 0.000000 1.799860 0.000000 
#    z 0.000000 0.000000 1.774620 
# 
# From -- ./inp_files/4900.got.cif
#   From: 2010.03.12/outbox.cif.g09.slc.cpg/sg139_3_cif.got.tgz:4900.got - 2010.04.08 09:46:31.
