data_PCOD8319638
_publ_section_title
;
Structure prediction by ZEFSAII (Michael W. Deem and Ramdas Pophale) SiO2 
 PCOD8319638
Probable space group: I 4/M M M
;
_chemical_formula_sum "Si O2"
_cell_formula_units_Z 176
_cell_length_a 19.137042
_cell_length_b 19.137042
_cell_length_c 26.167798
_cell_angle_alpha 90.000000
_cell_angle_beta 90.000000
_cell_angle_gamma 90.000000
_cell_volume 9583.337843
_symmetry_space_group_name_H-M "I 4/M M M"
_symmetry_group_IT_number 139
_symmetry_cell_setting 'tetragonal'
loop_
_space_group_symop_operation_xyz
x,y,z
-y,x,z
-x,-y,z
y,-x,z
x,-y,-z
-x,y,-z
y,x,-z
-y,-x,-z
-x,-y,-z
y,-x,-z
x,y,-z
-y,x,-z
-x,y,z
x,-y,z
-y,-x,z
y,x,z
1/2+x,1/2+y,1/2+z
1/2-y,1/2+x,1/2+z
1/2-x,1/2-y,1/2+z
1/2+y,1/2-x,1/2+z
1/2+x,1/2-y,1/2-z
1/2-x,1/2+y,1/2-z
1/2+y,1/2+x,1/2-z
1/2-y,1/2-x,1/2-z
1/2-x,1/2-y,1/2-z
1/2+y,1/2-x,1/2-z
1/2+x,1/2+y,1/2-z
1/2-y,1/2+x,1/2-z
1/2-x,1/2+y,1/2+z
1/2+x,1/2-y,1/2+z
1/2-y,1/2-x,1/2+z
1/2+y,1/2+x,1/2+z
loop_
_atom_site_type_symbol
_atom_site_label
_atom_site_fract_x
_atom_site_fract_y
_atom_site_fract_z
Si Si1 0.684853 0.423421 0.560290
Si Si2 0.692190 0.580231 0.187748
Si Si3 0.416892 0.700344 0.000000
Si Si4 0.918552 0.706941 0.402288
Si Si5 0.677774 0.080664 0.118074
Si Si6 0.645947 0.241390 0.282173
O O1 0.680511 0.419399 0.500000
O O2 0.662364 0.500000 0.580195
O O3 0.632075 0.367926 0.585704
O O4 0.763268 0.407033 0.575960
O O5 0.673078 0.500000 0.179394
O O6 0.622943 0.622943 0.174255
O O7 0.752809 0.604381 0.148963
O O8 0.716111 0.593632 0.245594
O O9 0.396048 0.746743 0.049088
O O10 0.500000 0.681089 0.000000
O O11 0.371215 0.628786 0.000000
O O12 0.884275 0.630528 0.400391
O O13 0.000000 0.692197 0.404147
O O14 0.709254 0.100601 0.172780
O O15 0.651989 0.000000 0.119590
O O16 0.707398 0.292603 0.302879
O O17 0.678623 0.178623 0.250000
#
# Coordination Sequence:
#
# PCOD8319638 Si02
#       6
#    32  32  16  32  32  32
#     4   9  19  34  52  78 109 140 177 220 266 317
#     4  10  20  35  56  81 112 146 181 225 273 328
#     4  10  22  39  61  89 117 147 184 226 276 336
#     4  10  22  39  56  79 111 145 185 227 273 329
#     4  11  22  36  56  80 110 144 185 233 277 322
#     4  10  19  33  55  82 109 141 184 229 278 331
#
# _framework density 18.365209
#
# number of rings (size 3 to 8) (size 9 to 14) (size 15 to 20)
#    0.000    2.000    1.818    1.636    1.273    3.000 
#    0.000    0.909    0.000    4.909    0.000    2.545 
#    0.000    0.000    0.000    0.000    0.000    0.000 
#
# Total GULP energy -1091155.181181 kJ/mol
# GULP energy per Si atom -12399.490695 kJ/mol
# Density = 1.832341 g / cm^3
# Si number density = 18.365209 Si / 1000 Ang^3
#
#
#
# Elastic Constant Matrix: (Units=GPa)
#
#
# Indices 1 2 3 4 5 6 
#
# 1 101.2221 74.5530 29.7397 0.0000 0.0000 0.0000
# 2 74.5530 101.2241 29.7404 0.0000 0.0000 0.0000
# 3 29.7397 29.7404 52.3439 0.0000 0.0000 0.0000
# 4 0.0000 0.0000 0.0000 24.8031 0.0000 0.0000
# 5 0.0000 0.0000 0.0000 0.0000 24.8028 0.0000
# 6 0.0000 0.0000 0.0000 0.0000 0.0000 36.1653
#
#
#
# Elastic Compliance Matrix: (Units=1/GPa)
#
#
# Indices 1 2 3 4 5 6 
#
# 1 0.022269 -0.015226 -0.004002 0.000000 0.000000 0.000000
# 2 -0.015226 0.022269 -0.004002 0.000000 0.000000 0.000000
# 3 -0.004002 -0.004002 0.023652 0.000000 0.000000 0.000000
# 4 0.000000 0.000000 0.000000 0.040318 0.000000 0.000000
# 5 0.000000 0.000000 0.000000 0.000000 0.040318 0.000000
# 6 0.000000 0.000000 0.000000 0.000000 0.000000 0.027651
#
#
# Mechanical properties :
#
#
# Convention : Reuss Voigt Hill
#
# Bulk Modulus (GPa) = 46.01670 58.09514 52.05592
# Shear Modulus (GPa) = 21.72223 25.20471 23.46347
#
# Velocity S-wave (km/s) = 3.44291 3.70863 3.57824
# Velocity P-wave (km/s) = 6.39653 7.07393 6.74374
#
# Compressibility (1/GPa) = 0.02173124
#
# Stress axis : x y z
#
# Youngs Moduli (GPa) = 44.90472 44.90543 42.28033
#
# Poissons Ratio (x) = 0.68373 0.16919
# Poissons Ratio (y) = 0.68372 0.16920
# Poissons Ratio (z) = 0.17969 0.17970
#
# Static dielectric constant tensor:
#      x y z
#    x 3.408270 0.000000 0.000000 
#    y 0.000000 3.408270 0.000000 
#    z 0.000000 0.000000 3.507620 
# 
# 
# High freq. dielectric constant tensor:
#      x y z
#    x 1.711190 0.000000 0.000000 
#    y 0.000000 1.711190 0.000000 
#    z 0.000000 0.000000 1.717530 
# 
# From -- ./inp_files/13118.got.cif
#   From: 2010.03.12/outbox.cif.g09.slc.cpg/sg139_7_cif.got.tgz:13118.got - 2010.04.08 09:46:31.
