data_PCOD8319597
_publ_section_title
;
Structure prediction by ZEFSAII (Michael W. Deem and Ramdas Pophale) SiO2 
 PCOD8319597
Probable space group: I 4/M M M
;
_chemical_formula_sum "Si O2"
_cell_formula_units_Z 176
_cell_length_a 27.170855
_cell_length_b 27.170855
_cell_length_c 13.982079
_cell_angle_alpha 90.000000
_cell_angle_beta 90.000000
_cell_angle_gamma 90.000000
_cell_volume 10322.344786
_symmetry_space_group_name_H-M "I 4/M M M"
_symmetry_group_IT_number 139
_symmetry_cell_setting 'tetragonal'
loop_
_space_group_symop_operation_xyz
x,y,z
-y,x,z
-x,-y,z
y,-x,z
x,-y,-z
-x,y,-z
y,x,-z
-y,-x,-z
-x,-y,-z
y,-x,-z
x,y,-z
-y,x,-z
-x,y,z
x,-y,z
-y,-x,z
y,x,z
1/2+x,1/2+y,1/2+z
1/2-y,1/2+x,1/2+z
1/2-x,1/2-y,1/2+z
1/2+y,1/2-x,1/2+z
1/2+x,1/2-y,1/2-z
1/2-x,1/2+y,1/2-z
1/2+y,1/2+x,1/2-z
1/2-y,1/2-x,1/2-z
1/2-x,1/2-y,1/2-z
1/2+y,1/2-x,1/2-z
1/2+x,1/2+y,1/2-z
1/2-y,1/2+x,1/2-z
1/2-x,1/2+y,1/2+z
1/2+x,1/2-y,1/2+z
1/2-y,1/2-x,1/2+z
1/2+y,1/2+x,1/2+z
loop_
_atom_site_type_symbol
_atom_site_label
_atom_site_fract_x
_atom_site_fract_y
_atom_site_fract_z
Si Si1 0.204197 0.279492 0.387369
Si Si2 0.000000 0.555009 0.113787
Si Si3 0.374964 0.914817 0.110263
Si Si4 0.859470 0.219367 0.886793
Si Si5 0.696147 0.097110 0.610175
Si Si6 0.556304 0.773535 0.295639
O O1 0.206230 0.285833 0.500000
O O2 0.227503 0.227503 0.354634
O O3 0.237165 0.324066 0.346506
O O4 0.148471 0.280931 0.353361
O O5 0.047424 0.584679 0.150746
O O6 0.000000 0.500000 0.157970
O O7 0.000000 0.551332 0.000000
O O8 0.399663 0.862093 0.125610
O O9 0.323387 0.920182 0.163280
O O10 0.363098 0.924909 0.000000
O O11 0.833597 0.166404 0.864279
O O12 0.911876 0.226660 0.833069
O O13 0.868331 0.224266 0.000000
O O14 0.709045 0.084319 0.500000
O O15 0.721036 0.057107 0.679855
O O16 0.500000 0.766108 0.328690
#
# Coordination Sequence:
#
# PCOD8319597 Si02
#       6
#    32  16  32  32  32  32
#     4   8  14  27  49  74  96 121 156 195 238 294
#     4   9  18  32  50  66  81 113 159 209 265 311
#     4  10  19  33  50  68  92 119 158 212 263 312
#     4   9  18  33  53  79 107 130 156 197 253 316
#     4  10  21  35  49  65  95 134 169 207 248 292
#     4  12  23  33  50  74 101 130 169 209 257 306
#
# _framework density 17.050388999999999
#
# number of rings (size 3 to 8) (size 9 to 14) (size 15 to 20)
#    0.000    2.273    2.727    2.182    0.000    2.909 
#    0.000    3.636    0.000    0.000    0.000    0.000 
#    0.000    0.364    0.000    2.000    0.000    0.000 
#
# Total GULP energy -1090724.251199 kJ/mol
# GULP energy per Si atom -12394.593764 kJ/mol
# Density = 1.701158 g / cm^3
# Si number density = 17.050389 Si / 1000 Ang^3
#
#
#
# Elastic Constant Matrix: (Units=GPa)
#
#
# Indices 1 2 3 4 5 6 
#
# 1 56.7554 33.4966 20.8079 0.0000 0.0000 0.0000
# 2 33.4966 56.7554 20.8079 0.0000 0.0000 0.0000
# 3 20.8079 20.8079 58.1136 0.0000 0.0000 0.0000
# 4 0.0000 0.0000 0.0000 15.6248 0.0000 0.0000
# 5 0.0000 0.0000 0.0000 0.0000 15.6248 0.0000
# 6 0.0000 0.0000 0.0000 0.0000 0.0000 23.8337
#
#
#
# Elastic Compliance Matrix: (Units=1/GPa)
#
#
# Indices 1 2 3 4 5 6 
#
# 1 0.028133 -0.014862 -0.004752 0.000000 0.000000 0.000000
# 2 -0.014862 0.028133 -0.004752 0.000000 0.000000 0.000000
# 3 -0.004752 -0.004752 0.020610 0.000000 0.000000 0.000000
# 4 0.000000 0.000000 0.000000 0.064001 0.000000 0.000000
# 5 0.000000 0.000000 0.000000 0.000000 0.064001 0.000000
# 6 0.000000 0.000000 0.000000 0.000000 0.000000 0.041957
#
#
# Mechanical properties :
#
#
# Convention : Reuss Voigt Hill
#
# Bulk Modulus (GPa) = 35.52954 35.76102 35.64528
# Shear Modulus (GPa) = 16.39624 17.45078 16.92351
#
# Velocity S-wave (km/s) = 3.10439 3.20266 3.15391
# Velocity P-wave (km/s) = 5.80800 5.89027 5.84928
#
# Compressibility (1/GPa) = 0.02814560
#
# Stress axis : x y z
#
# Youngs Moduli (GPa) = 35.54570 35.54570 48.51901
#
# Poissons Ratio (x) = 0.52827 0.23055
# Poissons Ratio (y) = 0.52827 0.23055
# Poissons Ratio (z) = 0.16891 0.16891
#
# Static dielectric constant tensor:
#      x y z
#    x 3.471690 0.000000 0.000000 
#    y 0.000000 3.471690 0.000000 
#    z 0.000000 0.000000 3.216120 
# 
# 
# High freq. dielectric constant tensor:
#      x y z
#    x 1.626360 0.000000 0.000000 
#    y 0.000000 1.626360 0.000000 
#    z 0.000000 0.000000 1.670060 
# 
# From -- ./inp_files/6416.got.cif
#   From: 2010.03.12/outbox.cif.g09.slc.cpg/sg139_4_cif.got.tgz:6416.got - 2010.04.08 09:46:31.
