data_PCOD8319566
_publ_section_title
;
Structure prediction by ZEFSAII (Michael W. Deem and Ramdas Pophale) SiO2 
 PCOD8319566
Probable space group: I 4/M M M
;
_chemical_formula_sum "Si O2"
_cell_formula_units_Z 112
_cell_length_a 27.121447
_cell_length_b 27.121447
_cell_length_c 9.136331
_cell_angle_alpha 90.000000
_cell_angle_beta 90.000000
_cell_angle_gamma 90.000000
_cell_volume 6720.437374
_symmetry_space_group_name_H-M "I 4/M M M"
_symmetry_group_IT_number 139
_symmetry_cell_setting 'tetragonal'
loop_
_space_group_symop_operation_xyz
x,y,z
-y,x,z
-x,-y,z
y,-x,z
x,-y,-z
-x,y,-z
y,x,-z
-y,-x,-z
-x,-y,-z
y,-x,-z
x,y,-z
-y,x,-z
-x,y,z
x,-y,z
-y,-x,z
y,x,z
1/2+x,1/2+y,1/2+z
1/2-y,1/2+x,1/2+z
1/2-x,1/2-y,1/2+z
1/2+y,1/2-x,1/2+z
1/2+x,1/2-y,1/2-z
1/2-x,1/2+y,1/2-z
1/2+y,1/2+x,1/2-z
1/2-y,1/2-x,1/2-z
1/2-x,1/2-y,1/2-z
1/2+y,1/2-x,1/2-z
1/2+x,1/2+y,1/2-z
1/2-y,1/2+x,1/2-z
1/2-x,1/2+y,1/2+z
1/2+x,1/2-y,1/2+z
1/2-y,1/2-x,1/2+z
1/2+y,1/2+x,1/2+z
loop_
_atom_site_type_symbol
_atom_site_label
_atom_site_fract_x
_atom_site_fract_y
_atom_site_fract_z
Si Si1 0.262968 0.442740 0.167966
Si Si2 0.784537 0.784537 0.836281
Si Si3 0.943693 0.136466 0.169378
Si Si4 0.788566 0.636954 0.328824
O O1 0.251010 0.500000 0.184000
O O2 0.315875 0.430018 0.236500
O O3 0.217621 0.415846 0.251813
O O4 0.263747 0.425590 0.000000
O O5 0.750000 0.750000 0.750000
O O6 0.767212 0.840385 0.805105
O O7 0.771127 0.771127 0.000000
O O8 0.908558 0.091443 0.217094
O O9 0.000000 0.119743 0.198149
O O10 0.935542 0.150408 0.000000
O O11 0.802141 0.631580 0.500000
O O12 0.830752 0.669249 0.250000
#
# Coordination Sequence:
#
# PCOD8319566 Si02
#       4
#    32  16  32  32
#     4  10  21  35  49  68  96 129 164 200 240 287
#     4   8  16  28  42  64  92 120 149 186 227 274
#     4   9  18  32  49  68  90 119 158 204 253 301
#     4  10  19  32  50  72  98 126 159 196 238 286
#
# _framework density 16.665582000000001
#
# number of rings (size 3 to 8) (size 9 to 14) (size 15 to 20)
#    0.000    2.571    0.000    1.714    2.000    3.714 
#    0.000    1.429    0.000    0.000    0.000    4.000 
#    0.000    0.571    0.000    6.000    0.000    2.571 
#
# Total GULP energy -693864.017100 kJ/mol
# GULP energy per Si atom -12390.428877 kJ/mol
# Density = 1.662765 g / cm^3
# Si number density = 16.665582 Si / 1000 Ang^3
#
#
#
# Elastic Constant Matrix: (Units=GPa)
#
#
# Indices 1 2 3 4 5 6 
#
# 1 75.2703 54.8389 54.6445 0.0000 0.0000 0.0000
# 2 54.8389 75.2698 54.6445 0.0000 0.0000 0.0000
# 3 54.6445 54.6445 110.8714 0.0000 0.0000 0.0000
# 4 0.0000 0.0000 0.0000 24.5428 0.0000 0.0000
# 5 0.0000 0.0000 0.0000 0.0000 24.5430 0.0000
# 6 0.0000 0.0000 0.0000 0.0000 0.0000 31.9874
#
#
#
# Elastic Compliance Matrix: (Units=1/GPa)
#
#
# Indices 1 2 3 4 5 6 
#
# 1 0.031030 -0.017915 -0.006464 0.000000 0.000000 0.000000
# 2 -0.017915 0.031030 -0.006464 0.000000 0.000000 0.000000
# 3 -0.006464 -0.006464 0.015391 0.000000 0.000000 0.000000
# 4 0.000000 0.000000 0.000000 0.040745 0.000000 0.000000
# 5 0.000000 0.000000 0.000000 0.000000 0.040745 0.000000
# 6 0.000000 0.000000 0.000000 0.000000 0.000000 0.031262
#
#
# Mechanical properties :
#
#
# Convention : Reuss Voigt Hill
#
# Bulk Modulus (GPa) = 63.42821 65.51857 64.47339
# Shear Modulus (GPa) = 19.44423 22.70021 21.07222
#
# Velocity S-wave (km/s) = 3.41945 3.69467 3.55972
# Velocity P-wave (km/s) = 7.33022 7.58945 7.46097
#
# Compressibility (1/GPa) = 0.01576586
#
# Stress axis : x y z
#
# Youngs Moduli (GPa) = 32.22676 32.22648 64.97114
#
# Poissons Ratio (x) = 0.57732 0.41999
# Poissons Ratio (y) = 0.57733 0.41999
# Poissons Ratio (z) = 0.20832 0.20832
#
# Static dielectric constant tensor:
#      x y z
#    x 2.996900 0.000000 0.000000 
#    y 0.000000 2.996900 0.000000 
#    z 0.000000 0.000000 3.251450 
# 
# 
# High freq. dielectric constant tensor:
#      x y z
#    x 1.623180 0.000000 0.000000 
#    y 0.000000 1.623180 0.000000 
#    z 0.000000 0.000000 1.655300 
# 
# From -- ./inp_files/1684.got.cif
#   From: 2010.03.12/outbox.cif.g09.slc.cpg/sg139_1_cif.got.tgz:1684.got - 2010.04.08 09:46:31.
