data_PCOD8319000
_publ_section_title
;
Structure prediction by ZEFSAII (Michael W. Deem and Ramdas Pophale) SiO2 
 PCOD8319000
Probable space group: P 42/N C M
;
_chemical_formula_sum "Si O2"
_cell_formula_units_Z 120
_cell_length_a 17.271285
_cell_length_b 17.271285
_cell_length_c 20.116829
_cell_angle_alpha 90.000000
_cell_angle_beta 90.000000
_cell_angle_gamma 90.000000
_cell_volume 6000.795485
_symmetry_space_group_name_H-M "P 42/N C M"
_symmetry_group_IT_number 138
_space_group.IT_coordinate_system_code '2'
_symmetry_cell_setting 'tetragonal'
loop_
_space_group_symop_operation_xyz
x,y,z
1/2-y,x,1/2+z
1/2-x,1/2-y,z
y,1/2-x,1/2+z
1/2+x,-y,1/2-z
-x,1/2+y,1/2-z
1/2+y,1/2+x,-z
-y,-x,-z
-x,-y,-z
1/2+y,-x,1/2-z
1/2+x,1/2+y,-z
-y,1/2+x,1/2-z
1/2-x,y,1/2+z
x,1/2-y,1/2+z
1/2-y,1/2-x,z
y,x,z
loop_
_atom_site_type_symbol
_atom_site_label
_atom_site_fract_x
_atom_site_fract_y
_atom_site_fract_z
Si Si1 0.244504 0.518053 0.569290
Si Si2 0.418645 0.205347 0.806058
Si Si3 0.366647 0.630086 0.604480
Si Si4 0.750000 0.250000 0.847323
Si Si5 0.045315 0.920634 0.726628
Si Si6 0.255344 0.518076 0.921187
Si Si7 0.866266 0.369669 0.350613
Si Si8 0.750238 0.624498 0.332500
O O1 0.327286 0.562362 0.561216
O O2 0.220798 0.490821 0.495131
O O3 0.180499 0.574500 0.600299
O O4 0.253123 0.444511 0.615800
O O5 0.341268 0.158733 0.825640
O O6 0.485849 0.148904 0.781489
O O7 0.444997 0.253415 0.870929
O O8 0.403574 0.262383 0.743708
O O9 0.305195 0.699351 0.606529
O O10 0.384567 0.589779 0.675256
O O11 0.444660 0.668448 0.575357
O O12 0.693530 0.311748 0.809057
O O13 0.080879 0.916974 0.800025
O O14 0.003237 0.003237 0.716705
O O15 0.319269 0.577551 0.895805
O O16 0.833917 0.666084 0.337176
O O17 0.682367 0.682367 0.352376
#
# Coordination Sequence:
#
# PCOD8319000 Si02
#       8
#    16  16  16   8  16  16  16  16
#     4  11  21  36  59  87 120 157 192 239 299 355
#     4   9  19  39  60  78 109 152 194 242 298 349
#     4   9  20  34  55  84 119 154 193 240 288 347
#     4   8  18  31  51  80 108 152 198 234 276 338
#     4  10  20  34  54  80 112 152 194 239 295 349
#     4  10  21  36  57  88 122 157 195 233 294 361
#     4  10  20  34  55  83 122 157 194 241 290 349
#     4  10  22  41  64  85 107 146 203 256 300 350
#
# _framework density 19.997350000000001
#
# number of rings (size 3 to 8) (size 9 to 14) (size 15 to 20)
#    0.000    2.267    1.333    0.800    1.867    4.800 
#    0.000    5.333    0.000    7.200    0.000    0.000 
#    0.000    0.000    0.000    0.000    0.000    0.000 
#
# Total GULP energy -1487047.911165 kJ/mol
# GULP energy per Si atom -12392.065926 kJ/mol
# Density = 1.995183 g / cm^3
# Si number density = 19.997350 Si / 1000 Ang^3
#
#
#
# Elastic Constant Matrix: (Units=GPa)
#
#
# Indices 1 2 3 4 5 6 
#
# 1 76.8896 32.3174 47.3114 0.0000 0.0000 0.0000
# 2 32.3174 76.8896 47.3114 0.0000 0.0000 0.0000
# 3 47.3114 47.3114 139.3850 0.0000 0.0000 0.0000
# 4 0.0000 0.0000 0.0000 11.9156 0.0000 0.0000
# 5 0.0000 0.0000 0.0000 0.0000 11.9156 0.0000
# 6 0.0000 0.0000 0.0000 0.0000 0.0000 28.3834
#
#
#
# Elastic Compliance Matrix: (Units=1/GPa)
#
#
# Indices 1 2 3 4 5 6 
#
# 1 0.017704 -0.004732 -0.004403 0.000000 0.000000 0.000000
# 2 -0.004732 0.017704 -0.004403 0.000000 0.000000 0.000000
# 3 -0.004403 -0.004403 0.010163 0.000000 0.000000 0.000000
# 4 0.000000 0.000000 0.000000 0.083924 0.000000 0.000000
# 5 0.000000 0.000000 0.000000 0.000000 0.083924 0.000000
# 6 0.000000 0.000000 0.000000 0.000000 0.000000 0.035232
#
#
# Mechanical properties :
#
#
# Convention : Reuss Voigt Hill
#
# Bulk Modulus (GPa) = 54.06834 60.78274 57.42554
# Shear Modulus (GPa) = 17.73733 21.52451 19.63092
#
# Velocity S-wave (km/s) = 2.98146 3.28436 3.13657
# Velocity P-wave (km/s) = 6.24088 6.69657 6.47274
#
# Compressibility (1/GPa) = 0.01849511
#
# Stress axis : x y z
#
# Youngs Moduli (GPa) = 56.48521 56.48521 98.39176
#
# Poissons Ratio (x) = 0.26727 0.43323
# Poissons Ratio (y) = 0.26727 0.43323
# Poissons Ratio (z) = 0.24871 0.24871
#
# Static dielectric constant tensor:
#      x y z
#    x 3.705710 0.000000 0.000000 
#    y 0.000000 3.705710 0.000000 
#    z 0.000000 0.000000 3.472560 
# 
# 
# High freq. dielectric constant tensor:
#      x y z
#    x 1.772550 0.000000 0.000000 
#    y 0.000000 1.772550 0.000000 
#    z 0.000000 0.000000 1.766420 
# 
# From -- ./inp_files/6528.got.cif
#   From: 2010.03.12/outbox.cif.g09.slc.cpg/sg138_4_cif.got.tgz:6528.got - 2010.04.08 09:41:05.
