data_PCOD8319109
_publ_section_title
;
Structure prediction by ZEFSAII (Michael W. Deem and Ramdas Pophale) SiO2 
 PCOD8319109
Probable space group: P 42/N C M
;
_chemical_formula_sum "Si O2"
_cell_formula_units_Z 96
_cell_length_a 14.012275
_cell_length_b 14.012275
_cell_length_c 24.702050
_cell_angle_alpha 90.000000
_cell_angle_beta 90.000000
_cell_angle_gamma 90.000000
_cell_volume 4850.095617
_symmetry_space_group_name_H-M "P 42/N C M"
_symmetry_group_IT_number 138
_space_group.IT_coordinate_system_code '2'
_symmetry_cell_setting 'tetragonal'
loop_
_space_group_symop_operation_xyz
x,y,z
1/2-y,x,1/2+z
1/2-x,1/2-y,z
y,1/2-x,1/2+z
1/2+x,-y,1/2-z
-x,1/2+y,1/2-z
1/2+y,1/2+x,-z
-y,-x,-z
-x,-y,-z
1/2+y,-x,1/2-z
1/2+x,1/2+y,-z
-y,1/2+x,1/2-z
1/2-x,y,1/2+z
x,1/2-y,1/2+z
1/2-y,1/2-x,z
y,x,z
loop_
_atom_site_type_symbol
_atom_site_label
_atom_site_fract_x
_atom_site_fract_y
_atom_site_fract_z
Si Si1 0.765539 0.016236 0.201696
Si Si2 0.895416 0.273964 0.908889
Si Si3 0.805928 0.969012 0.498067
Si Si4 0.877652 0.462644 0.296748
Si Si5 0.674638 0.825363 0.672054
Si Si6 0.829206 0.670795 0.554585
Si Si7 0.776585 0.093996 0.903256
O O1 0.727724 0.032715 0.141180
O O2 0.693297 0.050620 0.246819
O O3 0.869521 0.059238 0.208029
O O4 0.775531 0.903673 0.209155
O O5 0.858116 0.167300 0.926458
O O6 0.809716 0.337939 0.886116
O O7 0.945879 0.328734 0.959276
O O8 0.898251 0.898251 0.489831
O O9 0.713560 0.917193 0.521989
O O10 0.766287 0.014580 0.443178
O O11 0.817625 0.464061 0.352231
O O12 0.942640 0.557361 0.293132
O O13 0.750000 0.750000 0.653134
O O14 0.634611 0.865390 0.613976
O O15 0.750000 0.750000 0.560085
#
# Coordination Sequence:
#
# PCOD8319109 Si02
#       7
#    16  16  16  16   8   8  16
#     4  11  22  41  66  92 121 160 209 263 305 370
#     4  10  21  40  63  89 121 160 207 258 309 357
#     4  11  22  38  61  90 124 163 208 255 306 370
#     4  11  24  42  64  94 126 164 209 252 317 382
#     4  11  20  38  63  91 123 158 204 263 315 356
#     4   9  20  36  58  88 120 158 200 248 306 354
#     4  10  23  40  60  89 127 165 198 249 315 377
#
# _framework density 19.793423000000001
#
# number of rings (size 3 to 8) (size 9 to 14) (size 15 to 20)
#    0.000    1.500    2.500    2.500    1.167    5.000 
#    1.500    0.833    0.000    0.000    0.000    0.000 
#    0.000    0.000    0.000    0.000    0.000    0.000 
#
# Total GULP energy -1189695.096443 kJ/mol
# GULP energy per Si atom -12392.657255 kJ/mol
# Density = 1.974837 g / cm^3
# Si number density = 19.793423 Si / 1000 Ang^3
#
#
#
# Elastic Constant Matrix: (Units=GPa)
#
#
# Indices 1 2 3 4 5 6 
#
# 1 84.2511 24.8595 41.4932 0.0000 0.0000 0.0000
# 2 24.8595 84.2511 41.4932 0.0000 0.0000 0.0000
# 3 41.4932 41.4932 105.4392 0.0000 0.0000 0.0000
# 4 0.0000 0.0000 0.0000 27.8626 0.0000 0.0000
# 5 0.0000 0.0000 0.0000 0.0000 27.8626 0.0000
# 6 0.0000 0.0000 0.0000 0.0000 0.0000 18.8246
#
#
#
# Elastic Compliance Matrix: (Units=1/GPa)
#
#
# Indices 1 2 3 4 5 6 
#
# 1 0.014959 -0.001879 -0.005147 0.000000 0.000000 0.000000
# 2 -0.001879 0.014959 -0.005147 0.000000 0.000000 0.000000
# 3 -0.005147 -0.005147 0.013535 0.000000 0.000000 0.000000
# 4 0.000000 0.000000 0.000000 0.035890 0.000000 0.000000
# 5 0.000000 0.000000 0.000000 0.000000 0.035890 0.000000
# 6 0.000000 0.000000 0.000000 0.000000 0.000000 0.053122
#
#
# Mechanical properties :
#
#
# Convention : Reuss Voigt Hill
#
# Bulk Modulus (GPa) = 52.33970 54.40368 53.37169
# Shear Modulus (GPa) = 25.11669 25.98299 25.54984
#
# Velocity S-wave (km/s) = 3.56608 3.62706 3.59670
# Velocity P-wave (km/s) = 6.59214 6.71462 6.65366
#
# Compressibility (1/GPa) = 0.01910595
#
# Stress axis : x y z
#
# Youngs Moduli (GPa) = 66.85099 66.85099 73.88076
#
# Poissons Ratio (x) = 0.12560 0.38029
# Poissons Ratio (y) = 0.12560 0.38029
# Poissons Ratio (z) = 0.34410 0.34410
#
# Static dielectric constant tensor:
#      x y z
#    x 3.763240 0.000000 0.000000 
#    y 0.000000 3.763240 0.000000 
#    z 0.000000 0.000000 3.507770 
# 
# 
# High freq. dielectric constant tensor:
#      x y z
#    x 1.777350 0.000000 0.000000 
#    y 0.000000 1.777350 0.000000 
#    z 0.000000 0.000000 1.766510 
# 
# From -- ./inp_files/6279.got.cif
#   From: 2010.03.12/outbox.cif.g09.slc.cpg/sg138_4_cif.got.tgz:6279.got - 2010.04.08 09:41:05.
