data_PCOD8319614
_publ_section_title
;
Structure prediction by ZEFSAII (Michael W. Deem and Ramdas Pophale) SiO2 
 PCOD8319614
Probable space group: I 4/M M M
;
_chemical_formula_sum "Si O2"
_cell_formula_units_Z 112
_cell_length_a 17.045924
_cell_length_b 17.045924
_cell_length_c 20.581621
_cell_angle_alpha 90.000000
_cell_angle_beta 90.000000
_cell_angle_gamma 90.000000
_cell_volume 5980.268348
_symmetry_space_group_name_H-M "I 4/M M M"
_symmetry_group_IT_number 139
_symmetry_cell_setting 'tetragonal'
loop_
_space_group_symop_operation_xyz
x,y,z
-y,x,z
-x,-y,z
y,-x,z
x,-y,-z
-x,y,-z
y,x,-z
-y,-x,-z
-x,-y,-z
y,-x,-z
x,y,-z
-y,x,-z
-x,y,z
x,-y,z
-y,-x,z
y,x,z
1/2+x,1/2+y,1/2+z
1/2-y,1/2+x,1/2+z
1/2-x,1/2-y,1/2+z
1/2+y,1/2-x,1/2+z
1/2+x,1/2-y,1/2-z
1/2-x,1/2+y,1/2-z
1/2+y,1/2+x,1/2-z
1/2-y,1/2-x,1/2-z
1/2-x,1/2-y,1/2-z
1/2+y,1/2-x,1/2-z
1/2+x,1/2+y,1/2-z
1/2-y,1/2+x,1/2-z
1/2-x,1/2+y,1/2+z
1/2+x,1/2-y,1/2+z
1/2-y,1/2-x,1/2+z
1/2+y,1/2+x,1/2+z
loop_
_atom_site_type_symbol
_atom_site_label
_atom_site_fract_x
_atom_site_fract_y
_atom_site_fract_z
Si Si1 0.807776 0.192224 0.785415
Si Si2 0.830479 0.407986 0.313419
Si Si3 0.411099 0.588902 0.193357
Si Si4 0.342123 0.342123 0.074093
Si Si5 0.174496 0.409141 0.926289
O O1 0.750000 0.250000 0.750000
O O2 0.755498 0.130665 0.826696
O O3 0.854222 0.145779 0.730941
O O4 0.820327 0.500000 0.302311
O O5 0.871120 0.371120 0.250000
O O6 0.883716 0.393695 0.376911
O O7 0.390911 0.500000 0.211734
O O8 0.397635 0.602366 0.116792
O O9 0.358291 0.251320 0.089989
O O10 0.362530 0.362530 0.000000
O O11 0.195437 0.500000 0.915776
O O12 0.145600 0.393927 0.000000
#
# Coordination Sequence:
#
# PCOD8319614 Si02
#       5
#    16  32  16  16  32
#     4  10  21  37  55  75 100 134 175 219 261 309
#     4  11  22  36  57  81 106 139 180 224 267 318
#     4  11  22  34  51  77 110 142 172 216 273 323
#     4  10  19  33  53  75 104 144 188 223 253 307
#     4  10  21  36  54  78 110 145 178 218 269 320
#
# _framework density 18.728256999999999
#
# number of rings (size 3 to 8) (size 9 to 14) (size 15 to 20)
#    0.000    1.571    0.000    6.857    0.000    4.286 
#    0.000    2.143    0.000    0.000    0.000    0.000 
#    0.000    0.000    0.000   13.714    0.000    0.000 
#
# Total GULP energy -694450.659631 kJ/mol
# GULP energy per Si atom -12400.904636 kJ/mol
# Density = 1.868563 g / cm^3
# Si number density = 18.728257 Si / 1000 Ang^3
#
#
#
# Elastic Constant Matrix: (Units=GPa)
#
#
# Indices 1 2 3 4 5 6 
#
# 1 88.4984 76.4426 40.8135 0.0000 0.0000 0.0000
# 2 76.4426 88.4984 40.8135 0.0000 0.0000 0.0000
# 3 40.8135 40.8135 93.3110 0.0000 0.0000 0.0000
# 4 0.0000 0.0000 0.0000 28.6539 0.0000 0.0000
# 5 0.0000 0.0000 0.0000 0.0000 28.6539 0.0000
# 6 0.0000 0.0000 0.0000 0.0000 0.0000 29.8799
#
#
#
# Elastic Compliance Matrix: (Units=1/GPa)
#
#
# Indices 1 2 3 4 5 6 
#
# 1 0.045343 -0.037605 -0.003384 0.000000 0.000000 0.000000
# 2 -0.037605 0.045343 -0.003384 0.000000 0.000000 0.000000
# 3 -0.003384 -0.003384 0.013677 0.000000 0.000000 0.000000
# 4 0.000000 0.000000 0.000000 0.034899 0.000000 0.000000
# 5 0.000000 0.000000 0.000000 0.000000 0.034899 0.000000
# 6 0.000000 0.000000 0.000000 0.000000 0.000000 0.033467
#
#
# Mechanical properties :
#
#
# Convention : Reuss Voigt Hill
#
# Bulk Modulus (GPa) = 64.04010 65.16078 64.60044
# Shear Modulus (GPa) = 16.57929 24.92007 20.74968
#
# Velocity S-wave (km/s) = 2.97855 3.65171 3.33218
# Velocity P-wave (km/s) = 6.78952 7.25592 7.02659
#
# Compressibility (1/GPa) = 0.01561522
#
# Stress axis : x y z
#
# Youngs Moduli (GPa) = 22.05433 22.05433 73.11296
#
# Poissons Ratio (x) = 0.82935 0.24744
# Poissons Ratio (y) = 0.82935 0.24744
# Poissons Ratio (z) = 0.07464 0.07464
#
# Static dielectric constant tensor:
#      x y z
#    x 3.531990 0.000000 0.000000 
#    y 0.000000 3.531990 0.000000 
#    z 0.000000 0.000000 3.383210 
# 
# 
# High freq. dielectric constant tensor:
#      x y z
#    x 1.728970 0.000000 0.000000 
#    y 0.000000 1.728970 0.000000 
#    z 0.000000 0.000000 1.717070 
# 
# From -- ./inp_files/7597.got.cif
#   From: 2010.03.12/outbox.cif.g09.slc.cpg/sg139_4_cif.got.tgz:7597.got - 2010.04.08 09:46:31.
