data_PCOD8319976
_publ_section_title
;
Structure prediction by ZEFSAII (Michael W. Deem and Ramdas Pophale) SiO2 
 PCOD8319976
Probable space group: I 4/M M M
;
_chemical_formula_sum "Si O2"
_cell_formula_units_Z 128
_cell_length_a 20.132978
_cell_length_b 20.132978
_cell_length_c 14.708165
_cell_angle_alpha 90.000000
_cell_angle_beta 90.000000
_cell_angle_gamma 90.000000
_cell_volume 5961.760581
_symmetry_space_group_name_H-M "I 4/M M M"
_symmetry_group_IT_number 139
_symmetry_cell_setting 'tetragonal'
loop_
_space_group_symop_operation_xyz
x,y,z
-y,x,z
-x,-y,z
y,-x,z
x,-y,-z
-x,y,-z
y,x,-z
-y,-x,-z
-x,-y,-z
y,-x,-z
x,y,-z
-y,x,-z
-x,y,z
x,-y,z
-y,-x,z
y,x,z
1/2+x,1/2+y,1/2+z
1/2-y,1/2+x,1/2+z
1/2-x,1/2-y,1/2+z
1/2+y,1/2-x,1/2+z
1/2+x,1/2-y,1/2-z
1/2-x,1/2+y,1/2-z
1/2+y,1/2+x,1/2-z
1/2-y,1/2-x,1/2-z
1/2-x,1/2-y,1/2-z
1/2+y,1/2-x,1/2-z
1/2+x,1/2+y,1/2-z
1/2-y,1/2+x,1/2-z
1/2-x,1/2+y,1/2+z
1/2+x,1/2-y,1/2+z
1/2-y,1/2-x,1/2+z
1/2+y,1/2+x,1/2+z
loop_
_atom_site_type_symbol
_atom_site_label
_atom_site_fract_x
_atom_site_fract_y
_atom_site_fract_z
Si Si1 0.240530 0.759471 0.892929
Si Si2 0.245713 0.000000 0.703793
Si Si3 0.671622 0.875132 0.342819
Si Si4 0.500000 0.698552 0.394102
Si Si5 0.578479 0.078979 0.500000
Si Si6 0.000000 0.109107 0.604112
Si Si7 0.137757 0.137757 0.104204
O O1 0.313060 0.780482 0.860941
O O2 0.188480 0.811521 0.846529
O O3 0.239052 0.760949 0.000000
O O4 0.279725 0.062983 0.659001
O O5 0.254749 0.000000 0.815070
O O6 0.168803 0.000000 0.675788
O O7 0.632315 0.867686 0.250000
O O8 0.613032 0.885820 0.414784
O O9 0.500000 0.725823 0.500000
O O10 0.437771 0.652282 0.372036
O O11 0.500000 0.095347 0.500000
O O12 0.590435 0.000000 0.500000
O O13 0.934501 0.065500 0.621525
O O14 0.000000 0.135598 0.500000
O O15 0.151298 0.151298 0.000000
#
# Coordination Sequence:
#
# PCOD8319976 Si02
#       7
#    16  16  32  16  16  16  16
#     4  11  23  45  72 101 145 183 225 292 358 416
#     4  12  27  42  74 105 138 185 240 289 351 434
#     4  12  27  47  71 108 143 185 238 293 356 427
#     4  10  22  42  66  97 140 183 231 283 345 416
#     4  11  26  51  78 104 142 184 235 304 363 420
#     4   9  22  44  70 104 146 191 237 286 347 423
#     4   9  20  40  65  97 131 180 225 277 341 418
#
# _framework density 21.470168000000001
#
# number of rings (size 3 to 8) (size 9 to 14) (size 15 to 20)
#    0.000    1.250    2.500    2.250    7.000    0.250 
#    4.500    2.500    0.000    0.000    0.000    0.000 
#    0.000    0.000    0.000    0.000    0.000    0.000 
#
# Total GULP energy -793439.480655 kJ/mol
# GULP energy per Si atom -12397.491885 kJ/mol
# Density = 2.142130 g / cm^3
# Si number density = 21.470168 Si / 1000 Ang^3
#
#
#
# Elastic Constant Matrix: (Units=GPa)
#
#
# Indices 1 2 3 4 5 6 
#
# 1 -4411.1816 4657.7226 55.0792 0.0000 0.0000 0.0000
# 2 4657.7226-4411.8894 54.7813 0.0000 0.0000 0.0000
# 3 55.0792 54.7813 137.8837 0.0000 0.0000 0.0000
# 4 0.0000 0.0000 0.0000 570.7849 0.0000 0.0000
# 5 0.0000 0.0000 0.0000 0.0000 572.7376 0.0000
# 6 0.0000 0.0000 0.0000 0.0000 0.0000 34.2033
#
#
#
# Elastic Compliance Matrix: (Units=1/GPa)
#
#
# Indices 1 2 3 4 5 6 
#
# 1 0.002415 0.002525 -0.001968 0.000000 0.000000 0.000000
# 2 0.002525 0.002415 -0.001968 0.000000 0.000000 0.000000
# 3 -0.001968 -0.001968 0.008821 0.000000 0.000000 0.000000
# 4 0.000000 0.000000 0.000000 0.001752 0.000000 0.000000
# 5 0.000000 0.000000 0.000000 0.000000 0.001746 0.000000
# 6 0.000000 0.000000 0.000000 0.000000 0.000000 0.029237
#
#
# Mechanical properties :
#
#
# Convention : Reuss Voigt Hill
#
# Bulk Modulus (GPa) = 92.34753 94.44207 93.39480
# Shear Modulus (GPa) = 94.66674 -661.30620 -283.31973
#
# Velocity S-wave (km/s) = 6.64740 -17.56930 -11.49983
# Velocity P-wave (km/s) = 10.10063 19.17005 11.52103
#
# Compressibility (1/GPa) = 0.01082866
#
# Stress axis : x y z
#
# Youngs Moduli (GPa) = 414.06164 414.10558 113.37116
#
# Poissons Ratio (x) = -1.04571 0.22312
# Poissons Ratio (y) = -1.04560 0.22313
# Poissons Ratio (z) = 0.81488 0.81502
#
# Static dielectric constant tensor:
#      x y z
#    x 4.023630 0.000000 0.000000 
#    y 0.000000 4.023630 0.000000 
#    z 0.000000 0.000000 4.270880 
# 
# 
# High freq. dielectric constant tensor:
#      x y z
#    x 1.850020 0.000000 0.000000 
#    y 0.000000 1.850020 0.000000 
#    z 0.000000 0.000000 1.851960 
# 
# From -- ./inp_files/5549.got.cif
#   From: 2010.03.12/outbox.cif.g09.slc.cpg/sg139_3_cif.got.tgz:5549.got - 2010.04.08 09:46:31.
