data_PCOD8319514
_publ_section_title
;
Structure prediction by ZEFSAII (Michael W. Deem and Ramdas Pophale) SiO2 
 PCOD8319514
Probable space group: I 4/M M M
;
_chemical_formula_sum "Si O2"
_cell_formula_units_Z 208
_cell_length_a 28.487416
_cell_length_b 28.487416
_cell_length_c 17.443635
_cell_angle_alpha 90.000000
_cell_angle_beta 90.000000
_cell_angle_gamma 90.000000
_cell_volume 14156.083181
_symmetry_space_group_name_H-M "I 4/M M M"
_symmetry_group_IT_number 139
_symmetry_cell_setting 'tetragonal'
loop_
_space_group_symop_operation_xyz
x,y,z
-y,x,z
-x,-y,z
y,-x,z
x,-y,-z
-x,y,-z
y,x,-z
-y,-x,-z
-x,-y,-z
y,-x,-z
x,y,-z
-y,x,-z
-x,y,z
x,-y,z
-y,-x,z
y,x,z
1/2+x,1/2+y,1/2+z
1/2-y,1/2+x,1/2+z
1/2-x,1/2-y,1/2+z
1/2+y,1/2-x,1/2+z
1/2+x,1/2-y,1/2-z
1/2-x,1/2+y,1/2-z
1/2+y,1/2+x,1/2-z
1/2-y,1/2-x,1/2-z
1/2-x,1/2-y,1/2-z
1/2+y,1/2-x,1/2-z
1/2+x,1/2+y,1/2-z
1/2-y,1/2+x,1/2-z
1/2-x,1/2+y,1/2+z
1/2+x,1/2-y,1/2+z
1/2-y,1/2-x,1/2+z
1/2+y,1/2+x,1/2+z
loop_
_atom_site_type_symbol
_atom_site_label
_atom_site_fract_x
_atom_site_fract_y
_atom_site_fract_z
Si Si1 0.210019 0.789982 0.914174
Si Si2 0.644198 0.780784 0.841216
Si Si3 0.446890 0.181957 0.089903
Si Si4 0.411904 0.912337 0.840151
Si Si5 0.778722 0.642361 0.339574
Si Si6 0.448526 0.000000 0.082945
Si Si7 0.445751 0.184250 0.590668
Si Si8 0.211461 0.788540 0.414586
O O1 0.165683 0.769381 0.868736
O O2 0.249289 0.750711 0.918094
O O3 0.194986 0.805015 0.000000
O O4 0.592282 0.782771 0.877505
O O5 0.639231 0.778016 0.750979
O O6 0.675696 0.826351 0.865331
O O7 0.666803 0.732283 0.870176
O O8 0.500000 0.199510 0.109061
O O9 0.439307 0.131934 0.128205
O O10 0.439719 0.176649 0.000000
O O11 0.404960 0.904960 0.750000
O O12 0.442568 0.956715 0.860857
O O13 0.362873 0.921279 0.881086
O O14 0.777135 0.589508 0.374121
O O15 0.500000 0.000000 0.051229
O O16 0.418752 0.000000 0.000000
O O17 0.444770 0.187933 0.500000
O O18 0.500000 0.188759 0.620315
O O19 0.196248 0.803753 0.500000
#
# Coordination Sequence:
#
# PCOD8319514 Si02
#       8
#    16  32  32  32  32  16  32  16
#     4   9  17  29  47  69  91 115 141 172 218 271
#     4  10  19  31  48  69  91 113 143 184 226 268
#     4  11  23  36  49  64  86 116 150 185 228 276
#     4  12  24  34  49  63  81 105 142 187 231 273
#     4  10  19  31  48  69  91 113 143 184 226 268
#     4  11  24  38  50  60  76 100 134 180 232 280
#     4  11  22  35  50  65  86 116 150 185 228 276
#     4   9  17  29  47  69  91 115 141 172 218 271
#
# _framework density 14.69333
#
# number of rings (size 3 to 8) (size 9 to 14) (size 15 to 20)
#    0.000    1.462    2.308    4.154    2.154    6.154 
#    0.000    0.000    0.000    0.000    0.000    0.000 
#    0.000    0.000    0.000    0.000    0.000    0.769 
#
# Total GULP energy -1288908.003146 kJ/mol
# GULP energy per Si atom -12393.346184 kJ/mol
# Density = 1.465989 g / cm^3
# Si number density = 14.693330 Si / 1000 Ang^3
#
#
#
# Elastic Constant Matrix: (Units=GPa)
#
#
# Indices 1 2 3 4 5 6 
#
# 1 71.3105 45.2671 32.8567 0.0000 0.0000 0.0000
# 2 45.2671 71.3104 32.8568 0.0000 0.0000 0.0000
# 3 32.8567 32.8568 78.8605 0.0000 0.0000 0.0000
# 4 0.0000 0.0000 0.0000 90.9965 0.0000 0.0000
# 5 0.0000 0.0000 0.0000 0.0000 90.9851 0.0000
# 6 0.0000 0.0000 0.0000 0.0000 0.0000 23.5953
#
#
#
# Elastic Compliance Matrix: (Units=1/GPa)
#
#
# Indices 1 2 3 4 5 6 
#
# 1 0.024804 -0.013593 -0.004671 0.000000 0.000000 0.000000
# 2 -0.013593 0.024804 -0.004671 0.000000 0.000000 0.000000
# 3 -0.004671 -0.004671 0.016573 0.000000 0.000000 0.000000
# 4 0.000000 0.000000 0.000000 0.010989 0.000000 0.000000
# 5 0.000000 0.000000 0.000000 0.000000 0.010991 0.000000
# 6 0.000000 0.000000 0.000000 0.000000 0.000000 0.042381
#
#
# Mechanical properties :
#
#
# Convention : Reuss Voigt Hill
#
# Bulk Modulus (GPa) = 49.23467 49.27141 49.25304
# Shear Modulus (GPa) = 27.29501 48.48211 37.88856
#
# Velocity S-wave (km/s) = 4.31472 5.75045 5.08352
# Velocity P-wave (km/s) = 7.64221 8.81454 8.24923
#
# Compressibility (1/GPa) = 0.02031089
#
# Stress axis : x y z
#
# Youngs Moduli (GPa) = 40.31580 40.31562 60.33950
#
# Poissons Ratio (x) = 0.54802 0.28184
# Poissons Ratio (y) = 0.54802 0.28185
# Poissons Ratio (z) = 0.18831 0.18832
#
# Static dielectric constant tensor:
#      x y z
#    x 2.908230 0.000000 0.000000 
#    y 0.000000 2.908230 0.000000 
#    z 0.000000 0.000000 2.986220 
# 
# 
# High freq. dielectric constant tensor:
#      x y z
#    x 1.532980 0.000000 0.000000 
#    y 0.000000 1.532980 0.000000 
#    z 0.000000 0.000000 1.585440 
# 
# From -- ./inp_files/9018.got.cif
#   From: 2010.03.12/outbox.cif.g09.slc.cpg/sg139_5_cif.got.tgz:9018.got - 2010.04.08 09:46:31.
