data_PCOD8319548
_publ_section_title
;
Structure prediction by ZEFSAII (Michael W. Deem and Ramdas Pophale) SiO2 
 PCOD8319548
Probable space group: I 4/M M M
;
_chemical_formula_sum "Si O2"
_cell_formula_units_Z 160
_cell_length_a 18.163901
_cell_length_b 18.163901
_cell_length_c 27.383873
_cell_angle_alpha 90.000000
_cell_angle_beta 90.000000
_cell_angle_gamma 90.000000
_cell_volume 9034.687270
_symmetry_space_group_name_H-M "I 4/M M M"
_symmetry_group_IT_number 139
_symmetry_cell_setting 'tetragonal'
loop_
_space_group_symop_operation_xyz
x,y,z
-y,x,z
-x,-y,z
y,-x,z
x,-y,-z
-x,y,-z
y,x,-z
-y,-x,-z
-x,-y,-z
y,-x,-z
x,y,-z
-y,x,-z
-x,y,z
x,-y,z
-y,-x,z
y,x,z
1/2+x,1/2+y,1/2+z
1/2-y,1/2+x,1/2+z
1/2-x,1/2-y,1/2+z
1/2+y,1/2-x,1/2+z
1/2+x,1/2-y,1/2-z
1/2-x,1/2+y,1/2-z
1/2+y,1/2+x,1/2-z
1/2-y,1/2-x,1/2-z
1/2-x,1/2-y,1/2-z
1/2+y,1/2-x,1/2-z
1/2+x,1/2+y,1/2-z
1/2-y,1/2+x,1/2-z
1/2-x,1/2+y,1/2+z
1/2+x,1/2-y,1/2+z
1/2-y,1/2-x,1/2+z
1/2+y,1/2+x,1/2+z
loop_
_atom_site_type_symbol
_atom_site_label
_atom_site_fract_x
_atom_site_fract_y
_atom_site_fract_z
Si Si1 0.415832 0.702661 0.556927
Si Si2 0.196734 0.081379 0.270433
Si Si3 0.415685 0.299311 0.114464
Si Si4 0.160587 0.416083 0.289369
Si Si5 0.303505 0.183115 0.878688
O O1 0.413372 0.721492 0.500000
O O2 0.500000 0.695155 0.575488
O O3 0.374301 0.625700 0.567968
O O4 0.375588 0.769773 0.583894
O O5 0.131680 0.131680 0.251482
O O6 0.211371 0.088313 0.327658
O O7 0.267611 0.105207 0.240914
O O8 0.171954 0.000000 0.256497
O O9 0.500000 0.298853 0.095022
O O10 0.376883 0.376883 0.099449
O O11 0.368053 0.230253 0.093889
O O12 0.159235 0.500000 0.308163
O O13 0.094850 0.405151 0.250000
O O14 0.157748 0.361395 0.335058
O O15 0.240238 0.240238 0.860125
#
# Coordination Sequence:
#
# PCOD8319548 Si02
#       5
#    32  32  32  32  32
#     4   9  18  33  53  78 106 134 167 207 250 296
#     4   9  17  28  42  61  86 116 149 189 232 277
#     4   9  17  29  46  69  95 124 159 197 241 291
#     4  11  21  31  44  63  90 124 164 204 241 285
#     4  10  19  31  51  73  96 129 166 204 247 295
#
# _framework density 17.709523000000001
#
# number of rings (size 3 to 8) (size 9 to 14) (size 15 to 20)
#    0.000    2.400    2.000    1.200    0.000    1.600 
#    0.000    3.000    0.000    2.400    0.000    4.200 
#    0.000    0.000    0.000    7.800    0.000    0.200 
#
# Total GULP energy -991507.097114 kJ/mol
# GULP energy per Si atom -12393.838714 kJ/mol
# Density = 1.766922 g / cm^3
# Si number density = 17.709523 Si / 1000 Ang^3
#
#
#
# Elastic Constant Matrix: (Units=GPa)
#
#
# Indices 1 2 3 4 5 6 
#
# 1 101.2413 75.3235 24.6183 0.0000 0.0000 0.0000
# 2 75.3235 101.2355 24.6188 0.0000 0.0000 0.0000
# 3 24.6183 24.6188 28.5113 0.0000 0.0000 0.0000
# 4 0.0000 0.0000 0.0000 20.9085 0.0000 0.0000
# 5 0.0000 0.0000 0.0000 0.0000 20.9088 0.0000
# 6 0.0000 0.0000 0.0000 0.0000 0.0000 24.0125
#
#
#
# Elastic Compliance Matrix: (Units=1/GPa)
#
#
# Indices 1 2 3 4 5 6 
#
# 1 0.023023 -0.015564 -0.006440 0.000000 0.000000 0.000000
# 2 -0.015564 0.023025 -0.006443 0.000000 0.000000 0.000000
# 3 -0.006440 -0.006443 0.046198 0.000000 0.000000 0.000000
# 4 0.000000 0.000000 0.000000 0.047827 0.000000 0.000000
# 5 0.000000 0.000000 0.000000 0.000000 0.047827 0.000000
# 6 0.000000 0.000000 0.000000 0.000000 0.000000 0.041645
#
#
# Mechanical properties :
#
#
# Convention : Reuss Voigt Hill
#
# Bulk Modulus (GPa) = 28.28701 53.34548 40.81625
# Shear Modulus (GPa) = 16.76601 20.26114 18.51357
#
# Velocity S-wave (km/s) = 3.08022 3.38610 3.23678
# Velocity P-wave (km/s) = 5.35330 6.74355 6.08824
#
# Compressibility (1/GPa) = 0.03535191
#
# Stress axis : x y z
#
# Youngs Moduli (GPa) = 43.43485 43.43123 21.64608
#
# Poissons Ratio (x) = 0.67596 0.13941
# Poissons Ratio (y) = 0.67602 0.13946
# Poissons Ratio (z) = 0.27973 0.27981
#
# Static dielectric constant tensor:
#      x y z
#    x 3.502070 0.000000 0.000000 
#    y 0.000000 3.502070 0.000000 
#    z 0.000000 0.000000 2.961780 
# 
# 
# High freq. dielectric constant tensor:
#      x y z
#    x 1.689990 0.000000 0.000000 
#    y 0.000000 1.689990 0.000000 
#    z 0.000000 0.000000 1.642150 
# 
# From -- ./inp_files/12923.got.cif
#   From: 2010.03.12/outbox.cif.g09.slc.cpg/sg139_7_cif.got.tgz:12923.got - 2010.04.08 09:46:31.
