data_PCOD8319683
_publ_section_title
;
Structure prediction by ZEFSAII (Michael W. Deem and Ramdas Pophale) SiO2 
 PCOD8319683
Probable space group: I 4/M M M
;
_chemical_formula_sum "Si O2"
_cell_formula_units_Z 128
_cell_length_a 23.336118
_cell_length_b 23.336118
_cell_length_c 14.615064
_cell_angle_alpha 90.000000
_cell_angle_beta 90.000000
_cell_angle_gamma 90.000000
_cell_volume 7958.989757
_symmetry_space_group_name_H-M "I 4/M M M"
_symmetry_group_IT_number 139
_symmetry_cell_setting 'tetragonal'
loop_
_space_group_symop_operation_xyz
x,y,z
-y,x,z
-x,-y,z
y,-x,z
x,-y,-z
-x,y,-z
y,x,-z
-y,-x,-z
-x,-y,-z
y,-x,-z
x,y,-z
-y,x,-z
-x,y,z
x,-y,z
-y,-x,z
y,x,z
1/2+x,1/2+y,1/2+z
1/2-y,1/2+x,1/2+z
1/2-x,1/2-y,1/2+z
1/2+y,1/2-x,1/2+z
1/2+x,1/2-y,1/2-z
1/2-x,1/2+y,1/2-z
1/2+y,1/2+x,1/2-z
1/2-y,1/2-x,1/2-z
1/2-x,1/2-y,1/2-z
1/2+y,1/2-x,1/2-z
1/2+x,1/2+y,1/2-z
1/2-y,1/2+x,1/2-z
1/2-x,1/2+y,1/2+z
1/2+x,1/2-y,1/2+z
1/2-y,1/2-x,1/2+z
1/2+y,1/2+x,1/2+z
loop_
_atom_site_type_symbol
_atom_site_label
_atom_site_fract_x
_atom_site_fract_y
_atom_site_fract_z
Si Si1 0.182453 0.272669 0.392108
Si Si2 0.636292 0.732481 0.398084
Si Si3 0.657170 0.435749 0.276496
Si Si4 0.436607 0.273028 0.895577
O O1 0.192132 0.274620 0.500000
O O2 0.216047 0.216047 0.353316
O O3 0.211420 0.331554 0.354618
O O4 0.114833 0.270327 0.367598
O O5 0.611730 0.744771 0.500000
O O6 0.682395 0.682395 0.403423
O O7 0.584756 0.713507 0.332100
O O8 0.642523 0.500000 0.307397
O O9 0.602028 0.397973 0.299538
O O10 0.671217 0.432844 0.168573
O O11 0.500000 0.243936 0.883898
O O12 0.427681 0.293868 0.000000
#
# Coordination Sequence:
#
# PCOD8319683 Si02
#       4
#    32  32  32  32
#     4   8  13  23  41  62  82 105 132 163 203 249
#     4   8  15  28  44  62  82 101 126 166 213 256
#     4  10  20  31  43  59  79 108 144 177 210 244
#     4   9  17  28  41  59  85 113 139 168 200 237
#
# _framework density 16.082442
#
# number of rings (size 3 to 8) (size 9 to 14) (size 15 to 20)
#    0.000    3.250    0.000    2.250    0.000    3.250 
#    0.000    3.750    0.000    0.000    0.000    7.000 
#    0.000    1.000    0.000   15.250    0.000   25.500 
#
# Total GULP energy -792884.544809 kJ/mol
# GULP energy per Si atom -12388.821013 kJ/mol
# Density = 1.604584 g / cm^3
# Si number density = 16.082442 Si / 1000 Ang^3
#
#
#
# Elastic Constant Matrix: (Units=GPa)
#
#
# Indices 1 2 3 4 5 6 
#
# 1 95.3770 71.0183 29.2030 0.0000 0.0000 0.0000
# 2 71.0183 95.3770 29.2030 0.0000 0.0000 0.0000
# 3 29.2030 29.2030 43.7017 0.0000 0.0000 0.0000
# 4 0.0000 0.0000 0.0000 17.4287 0.0000 0.0000
# 5 0.0000 0.0000 0.0000 0.0000 17.4287 0.0000
# 6 0.0000 0.0000 0.0000 0.0000 0.0000 17.5963
#
#
#
# Elastic Compliance Matrix: (Units=1/GPa)
#
#
# Indices 1 2 3 4 5 6 
#
# 1 0.024452 -0.016601 -0.005247 0.000000 0.000000 0.000000
# 2 -0.016601 0.024452 -0.005247 0.000000 0.000000 0.000000
# 3 -0.005247 -0.005247 0.029894 0.000000 0.000000 0.000000
# 4 0.000000 0.000000 0.000000 0.057377 0.000000 0.000000
# 5 0.000000 0.000000 0.000000 0.000000 0.057377 0.000000
# 6 0.000000 0.000000 0.000000 0.000000 0.000000 0.056830
#
#
# Mechanical properties :
#
#
# Convention : Reuss Voigt Hill
#
# Bulk Modulus (GPa) = 40.63261 54.81157 47.72209
# Shear Modulus (GPa) = 15.98600 17.49283 16.73942
#
# Velocity S-wave (km/s) = 3.15620 3.30160 3.22972
# Velocity P-wave (km/s) = 6.21307 6.97780 6.60651
#
# Compressibility (1/GPa) = 0.02461078
#
# Stress axis : x y z
#
# Youngs Moduli (GPa) = 40.89613 40.89613 33.45125
#
# Poissons Ratio (x) = 0.67891 0.17550
# Poissons Ratio (y) = 0.67891 0.17550
# Poissons Ratio (z) = 0.21456 0.21456
#
# Static dielectric constant tensor:
#      x y z
#    x 3.037550 0.000000 0.000000 
#    y 0.000000 3.037550 0.000000 
#    z 0.000000 0.000000 3.174910 
# 
# 
# High freq. dielectric constant tensor:
#      x y z
#    x 1.588440 0.000000 0.000000 
#    y 0.000000 1.588440 0.000000 
#    z 0.000000 0.000000 1.625020 
# 
# From -- ./inp_files/7976.got.cif
#   From: 2010.03.12/outbox.cif.g09.slc.cpg/sg139_4_cif.got.tgz:7976.got - 2010.04.08 09:46:31.
