data_PCOD8319939
_publ_section_title
;
Structure prediction by ZEFSAII (Michael W. Deem and Ramdas Pophale) SiO2 
 PCOD8319939
Probable space group: I 4/M M M
;
_chemical_formula_sum "Si O2"
_cell_formula_units_Z 176
_cell_length_a 23.664541
_cell_length_b 23.664541
_cell_length_c 15.491059
_cell_angle_alpha 90.000000
_cell_angle_beta 90.000000
_cell_angle_gamma 90.000000
_cell_volume 8675.155708
_symmetry_space_group_name_H-M "I 4/M M M"
_symmetry_group_IT_number 139
_symmetry_cell_setting 'tetragonal'
loop_
_space_group_symop_operation_xyz
x,y,z
-y,x,z
-x,-y,z
y,-x,z
x,-y,-z
-x,y,-z
y,x,-z
-y,-x,-z
-x,-y,-z
y,-x,-z
x,y,-z
-y,x,-z
-x,y,z
x,-y,z
-y,-x,z
y,x,z
1/2+x,1/2+y,1/2+z
1/2-y,1/2+x,1/2+z
1/2-x,1/2-y,1/2+z
1/2+y,1/2-x,1/2+z
1/2+x,1/2-y,1/2-z
1/2-x,1/2+y,1/2-z
1/2+y,1/2+x,1/2-z
1/2-y,1/2-x,1/2-z
1/2-x,1/2-y,1/2-z
1/2+y,1/2-x,1/2-z
1/2+x,1/2+y,1/2-z
1/2-y,1/2+x,1/2-z
1/2-x,1/2+y,1/2+z
1/2+x,1/2-y,1/2+z
1/2-y,1/2-x,1/2+z
1/2+y,1/2+x,1/2+z
loop_
_atom_site_type_symbol
_atom_site_label
_atom_site_fract_x
_atom_site_fract_y
_atom_site_fract_z
Si Si1 0.629857 0.721503 0.596571
Si Si2 0.500000 0.933564 0.593316
Si Si3 0.686803 0.169439 0.346690
Si Si4 0.435881 0.120866 0.103401
Si Si5 0.384703 0.705275 0.906481
Si Si6 0.565070 0.660515 0.258715
O O1 0.607293 0.709538 0.500000
O O2 0.686580 0.686580 0.616976
O O3 0.646255 0.787575 0.602231
O O4 0.581348 0.702558 0.662984
O O5 0.500000 0.903055 0.500000
O O6 0.441409 0.918357 0.641165
O O7 0.500000 0.000000 0.576872
O O8 0.691817 0.191817 0.250000
O O9 0.664028 0.105440 0.350259
O O10 0.749094 0.164326 0.386105
O O11 0.500000 0.136756 0.129135
O O12 0.428979 0.122118 0.000000
O O13 0.354449 0.645552 0.915834
O O14 0.429547 0.697616 0.829087
O O15 0.413765 0.719770 0.000000
O O16 0.500000 0.641354 0.269188
O O17 0.604720 0.604720 0.259523
#
# Coordination Sequence:
#
# PCOD8319939 Si02
#       6
#    32  16  32  32  32  32
#     4  10  21  39  63  88 119 158 196 243 303 363
#     4   7  12  28  52  68  84 124 179 227 270 316
#     4  12  22  35  54  85 120 154 196 245 295 359
#     4   9  18  34  53  72 100 141 189 237 282 333
#     4  10  21  38  61  87 118 156 195 239 295 359
#     4  10  22  41  64  92 126 161 203 254 308 371
#
# _framework density 20.287818999999999
#
# number of rings (size 3 to 8) (size 9 to 14) (size 15 to 20)
#    0.000    2.091    1.818    3.273    0.000    3.818 
#    3.273    0.000    0.000    0.000    0.000    5.091 
#    0.000    0.000    0.000    0.000    0.000    0.000 
#
# Total GULP energy -1090478.501180 kJ/mol
# GULP energy per Si atom -12391.801150 kJ/mol
# Density = 2.024164 g / cm^3
# Si number density = 20.287819 Si / 1000 Ang^3
#
#
#
# Elastic Constant Matrix: (Units=GPa)
#
#
# Indices 1 2 3 4 5 6 
#
# 1 90.2412 25.3417 31.5701 0.0000 0.0000 0.0000
# 2 25.3417 90.2412 31.5701 0.0000 0.0000 0.0000
# 3 31.5701 31.5701 124.5173 0.0000 0.0000 0.0000
# 4 0.0000 0.0000 0.0000 13.8685 0.0000 0.0000
# 5 0.0000 0.0000 0.0000 0.0000 13.8685 0.0000
# 6 0.0000 0.0000 0.0000 0.0000 0.0000 21.3147
#
#
#
# Elastic Compliance Matrix: (Units=1/GPa)
#
#
# Indices 1 2 3 4 5 6 
#
# 1 0.012726 -0.002683 -0.002546 0.000000 0.000000 0.000000
# 2 -0.002683 0.012726 -0.002546 0.000000 0.000000 0.000000
# 3 -0.002546 -0.002546 0.009322 0.000000 0.000000 0.000000
# 4 0.000000 0.000000 0.000000 0.072106 0.000000 0.000000
# 5 0.000000 0.000000 0.000000 0.000000 0.072106 0.000000
# 6 0.000000 0.000000 0.000000 0.000000 0.000000 0.046916
#
#
# Mechanical properties :
#
#
# Convention : Reuss Voigt Hill
#
# Bulk Modulus (GPa) = 52.02180 53.55148 52.78664
# Shear Modulus (GPa) = 20.17275 24.24486 22.20880
#
# Velocity S-wave (km/s) = 3.15672 3.46069 3.31219
# Velocity P-wave (km/s) = 6.24372 6.51319 6.37988
#
# Compressibility (1/GPa) = 0.01922271
#
# Stress axis : x y z
#
# Youngs Moduli (GPa) = 78.58177 78.58177 107.27129
#
# Poissons Ratio (x) = 0.21082 0.27314
# Poissons Ratio (y) = 0.21082 0.27314
# Poissons Ratio (z) = 0.20009 0.20009
#
# Static dielectric constant tensor:
#      x y z
#    x 3.559400 0.000000 0.000000 
#    y 0.000000 3.559400 0.000000 
#    z 0.000000 0.000000 3.805510 
# 
# 
# High freq. dielectric constant tensor:
#      x y z
#    x 1.773980 0.000000 0.000000 
#    y 0.000000 1.773980 0.000000 
#    z 0.000000 0.000000 1.795150 
# 
# From -- ./inp_files/6080.got.cif
#   From: 2010.03.12/outbox.cif.g09.slc.cpg/sg139_4_cif.got.tgz:6080.got - 2010.04.08 09:46:31.
