data_PCOD8319950
_publ_section_title
;
Structure prediction by ZEFSAII (Michael W. Deem and Ramdas Pophale) SiO2 
 PCOD8319950
Probable space group: I 4/M M M
;
_chemical_formula_sum "Si O2"
_cell_formula_units_Z 160
_cell_length_a 21.626787
_cell_length_b 21.626787
_cell_length_c 17.387390
_cell_angle_alpha 90.000000
_cell_angle_beta 90.000000
_cell_angle_gamma 90.000000
_cell_volume 8132.393814
_symmetry_space_group_name_H-M "I 4/M M M"
_symmetry_group_IT_number 139
_symmetry_cell_setting 'tetragonal'
loop_
_space_group_symop_operation_xyz
x,y,z
-y,x,z
-x,-y,z
y,-x,z
x,-y,-z
-x,y,-z
y,x,-z
-y,-x,-z
-x,-y,-z
y,-x,-z
x,y,-z
-y,x,-z
-x,y,z
x,-y,z
-y,-x,z
y,x,z
1/2+x,1/2+y,1/2+z
1/2-y,1/2+x,1/2+z
1/2-x,1/2-y,1/2+z
1/2+y,1/2-x,1/2+z
1/2+x,1/2-y,1/2-z
1/2-x,1/2+y,1/2-z
1/2+y,1/2+x,1/2-z
1/2-y,1/2-x,1/2-z
1/2-x,1/2-y,1/2-z
1/2+y,1/2-x,1/2-z
1/2+x,1/2+y,1/2-z
1/2-y,1/2+x,1/2-z
1/2-x,1/2+y,1/2+z
1/2+x,1/2-y,1/2+z
1/2-y,1/2-x,1/2+z
1/2+y,1/2+x,1/2+z
loop_
_atom_site_type_symbol
_atom_site_label
_atom_site_fract_x
_atom_site_fract_y
_atom_site_fract_z
Si Si1 0.427742 0.671169 0.288695
Si Si2 0.746616 0.571800 0.856518
Si Si3 0.670723 0.573499 0.000000
Si Si4 0.126475 0.375032 0.659250
Si Si5 0.928694 0.500000 0.591109
Si Si6 0.358986 0.741033 0.411341
O O1 0.500000 0.657885 0.283408
O O2 0.393724 0.606277 0.274274
O O3 0.403675 0.720676 0.225087
O O4 0.411292 0.698289 0.372398
O O5 0.735184 0.500000 0.858893
O O6 0.707844 0.600171 0.926703
O O7 0.819088 0.583726 0.868940
O O8 0.663313 0.500000 0.000000
O O9 0.602314 0.602314 0.000000
O O10 0.120015 0.379986 0.750000
O O11 0.105191 0.439433 0.622774
O O12 0.194857 0.357046 0.633359
O O13 0.923219 0.500000 0.500000
O O14 0.000000 0.500000 0.618088
O O15 0.377528 0.750921 0.500000
O O16 0.292127 0.707874 0.403722
#
# Coordination Sequence:
#
# PCOD8319950 Si02
#       6
#    32  32  16  32  16  32
#     4  10  21  39  63  91 124 163 206 259 317 382
#     4  10  22  40  60  88 123 163 206 251 313 379
#     4  10  22  39  64  93 127 167 207 257 312 378
#     4  12  25  41  67  93 123 168 211 266 321 378
#     4  11  28  46  66  96 132 170 217 269 322 389
#     4  10  23  41  61  91 127 165 212 265 322 384
#
# _framework density 19.674403999999999
#
# number of rings (size 3 to 8) (size 9 to 14) (size 15 to 20)
#    0.000    1.500    2.000    1.800    7.000    2.700 
#    0.000    0.000    0.000    3.600    0.000    2.800 
#    0.000    0.000    0.000    0.000    0.000    0.000 
#
# Total GULP energy -992015.214785 kJ/mol
# GULP energy per Si atom -12400.190185 kJ/mol
# Density = 1.962962 g / cm^3
# Si number density = 19.674404 Si / 1000 Ang^3
#
#
#
# Elastic Constant Matrix: (Units=GPa)
#
#
# Indices 1 2 3 4 5 6 
#
# 1 92.2501 23.9472 46.9952 0.0000 0.0000 0.0000
# 2 23.9472 92.2497 46.9944 0.0000 0.0000 0.0000
# 3 46.9952 46.9944 119.8190 0.0000 0.0000 0.0000
# 4 0.0000 0.0000 0.0000 28.2719 0.0000 0.0000
# 5 0.0000 0.0000 0.0000 0.0000 28.2719 0.0000
# 6 0.0000 0.0000 0.0000 0.0000 0.0000 30.3145
#
#
#
# Elastic Compliance Matrix: (Units=1/GPa)
#
#
# Indices 1 2 3 4 5 6 
#
# 1 0.013623 -0.001018 -0.004944 0.000000 0.000000 0.000000
# 2 -0.001018 0.013623 -0.004944 0.000000 0.000000 0.000000
# 3 -0.004944 -0.004944 0.012224 0.000000 0.000000 0.000000
# 4 0.000000 0.000000 0.000000 0.035371 0.000000 0.000000
# 5 0.000000 0.000000 0.000000 0.000000 0.035371 0.000000
# 6 0.000000 0.000000 0.000000 0.000000 0.000000 0.032988
#
#
# Mechanical properties :
#
#
# Convention : Reuss Voigt Hill
#
# Bulk Modulus (GPa) = 56.62953 60.02137 58.32545
# Shear Modulus (GPa) = 29.25749 29.79713 29.52731
#
# Velocity S-wave (km/s) = 3.86046 3.89590 3.87822
# Velocity P-wave (km/s) = 6.97973 7.12818 7.05435
#
# Compressibility (1/GPa) = 0.01765863
#
# Stress axis : x y z
#
# Youngs Moduli (GPa) = 73.40574 73.40595 81.80594
#
# Poissons Ratio (x) = 0.07471 0.40444
# Poissons Ratio (y) = 0.07471 0.40444
# Poissons Ratio (z) = 0.36291 0.36291
#
# Static dielectric constant tensor:
#      x y z
#    x 3.524160 0.000000 0.000000 
#    y 0.000000 3.524150 0.000000 
#    z 0.000000 0.000000 4.012500 
# 
# 
# High freq. dielectric constant tensor:
#      x y z
#    x 1.766280 0.000000 0.000000 
#    y 0.000000 1.766280 0.000000 
#    z 0.000000 0.000000 1.784790 
# 
# From -- ./inp_files/8440.got.cif
#   From: 2010.03.12/outbox.cif.g09.slc.cpg/sg139_5_cif.got.tgz:8440.got - 2010.04.08 09:46:31.
