data_PCOD8319220
_publ_section_title
;
Structure prediction by ZEFSAII (Michael W. Deem and Ramdas Pophale) SiO2 
 PCOD8319220
Probable space group: P 42/N C M
;
_chemical_formula_sum "Si O2"
_cell_formula_units_Z 60
_cell_length_a 11.487010
_cell_length_b 11.487010
_cell_length_c 21.950134
_cell_angle_alpha 90.000000
_cell_angle_beta 90.000000
_cell_angle_gamma 90.000000
_cell_volume 2896.350884
_symmetry_space_group_name_H-M "P 42/N C M"
_symmetry_group_IT_number 138
_space_group.IT_coordinate_system_code '2'
_symmetry_cell_setting 'tetragonal'
loop_
_space_group_symop_operation_xyz
x,y,z
1/2-y,x,1/2+z
1/2-x,1/2-y,z
y,1/2-x,1/2+z
1/2+x,-y,1/2-z
-x,1/2+y,1/2-z
1/2+y,1/2+x,-z
-y,-x,-z
-x,-y,-z
1/2+y,-x,1/2-z
1/2+x,1/2+y,-z
-y,1/2+x,1/2-z
1/2-x,y,1/2+z
x,1/2-y,1/2+z
1/2-y,1/2-x,z
y,x,z
loop_
_atom_site_type_symbol
_atom_site_label
_atom_site_fract_x
_atom_site_fract_y
_atom_site_fract_z
Si Si1 0.743533 0.430144 0.022047
Si Si2 0.550416 0.228931 0.838609
Si Si3 0.750000 0.250000 0.750000
Si Si4 0.456526 0.456526 0.659645
Si Si5 0.660496 0.660496 0.226269
Si Si6 0.155946 0.155946 0.540632
O O1 0.725546 0.429126 0.094006
O O2 0.845442 0.345442 0.000000
O O3 0.617827 0.382174 0.000000
O O4 0.776857 0.558946 0.999269
O O5 0.642952 0.287285 0.792920
O O6 0.423856 0.266244 0.817024
O O7 0.569536 0.091798 0.839576
O O8 0.404593 0.404593 0.720547
O O9 0.400976 0.400976 0.599743
O O10 0.750000 0.750000 0.257337
O O11 0.250000 0.250000 0.562418
#
# Coordination Sequence:
#
# PCOD8319220 Si02
#       6
#    16  16   4   8   8   8
#     4  11  24  45  72 103 135 183 237 286 350 422
#     4  12  25  43  71  99 139 185 234 285 348 419
#     4  12  24  44  66 100 136 188 236 274 348 416
#     4  12  24  49  68  98 143 184 231 287 356 418
#     4  12  27  43  69 108 135 179 234 293 343 417
#     4  12  27  46  71 105 145 184 232 296 355 421
#
# _framework density 20.715723000000001
#
# number of rings (size 3 to 8) (size 9 to 14) (size 15 to 20)
#    0.000    0.267    6.667    3.200    1.867    0.533 
#    0.000    0.000    0.000    0.000    0.000    0.000 
#    0.000    0.000    0.000    0.000    0.000    0.000 
#
# Total GULP energy -744144.411132 kJ/mol
# GULP energy per Si atom -12402.406852 kJ/mol
# Density = 2.066857 g / cm^3
# Si number density = 20.715723 Si / 1000 Ang^3
#
#
#
# Elastic Constant Matrix: (Units=GPa)
#
#
# Indices 1 2 3 4 5 6 
#
# 1 224.4095 -43.0692 58.2699 0.0000 0.0000 0.0000
# 2 -43.0692 224.4100 58.2704 0.0000 0.0000 0.0000
# 3 58.2699 58.2704 174.2072 0.0000 0.0000 0.0000
# 4 0.0000 0.0000 0.0000 8.9878 0.0000 0.0000
# 5 0.0000 0.0000 0.0000 0.0000 8.9849 0.0000
# 6 0.0000 0.0000 0.0000 0.0000 0.0000 45.8575
#
#
#
# Elastic Compliance Matrix: (Units=1/GPa)
#
#
# Indices 1 2 3 4 5 6 
#
# 1 0.005382 0.001643 -0.002350 0.000000 0.000000 0.000000
# 2 0.001643 0.005382 -0.002350 0.000000 0.000000 0.000000
# 3 -0.002350 -0.002350 0.007312 0.000000 0.000000 0.000000
# 4 0.000000 0.000000 0.000000 0.111262 0.000000 0.000000
# 5 0.000000 0.000000 0.000000 0.000000 0.111298 0.000000
# 6 0.000000 0.000000 0.000000 0.000000 0.000000 0.021807
#
#
# Mechanical properties :
#
#
# Convention : Reuss Voigt Hill
#
# Bulk Modulus (GPa) = 83.59337 85.55211 84.57274
# Shear Modulus (GPa) = 18.34586 49.40311 33.87449
#
# Velocity S-wave (km/s) = 2.97913 4.88875 4.04816
# Velocity P-wave (km/s) = 7.23007 8.55887 7.92238
#
# Compressibility (1/GPa) = 0.01196267
#
# Stress axis : x y z
#
# Youngs Moduli (GPa) = 185.82014 185.82024 136.75932
#
# Poissons Ratio (x) = -0.30529 0.32133
# Poissons Ratio (y) = -0.30529 0.32133
# Poissons Ratio (z) = 0.43660 0.43660
#
# Static dielectric constant tensor:
#      x y z
#    x 3.939510 0.000000 0.000000 
#    y 0.000000 3.939550 0.000000 
#    z 0.000000 0.000000 3.846260 
# 
# 
# High freq. dielectric constant tensor:
#      x y z
#    x 1.817190 0.000000 0.000000 
#    y 0.000000 1.817190 0.000000 
#    z 0.000000 0.000000 1.827520 
# 
# From -- ./inp_files/5914.got.cif
#   From: 2010.03.12/outbox.cif.g09.slc.cpg/sg138_3_cif.got.tgz:5914.got - 2010.04.08 09:41:05.
