data_PCOD8319026
_publ_section_title
;
Structure prediction by ZEFSAII (Michael W. Deem and Ramdas Pophale) SiO2 
 PCOD8319026
Probable space group: P 42/N C M
;
_chemical_formula_sum "Si O2"
_cell_formula_units_Z 96
_cell_length_a 14.411693
_cell_length_b 14.411693
_cell_length_c 24.064899
_cell_angle_alpha 90.000000
_cell_angle_beta 90.000000
_cell_angle_gamma 90.000000
_cell_volume 4998.204804
_symmetry_space_group_name_H-M "P 42/N C M"
_symmetry_group_IT_number 138
_space_group.IT_coordinate_system_code '2'
_symmetry_cell_setting 'tetragonal'
loop_
_space_group_symop_operation_xyz
x,y,z
1/2-y,x,1/2+z
1/2-x,1/2-y,z
y,1/2-x,1/2+z
1/2+x,-y,1/2-z
-x,1/2+y,1/2-z
1/2+y,1/2+x,-z
-y,-x,-z
-x,-y,-z
1/2+y,-x,1/2-z
1/2+x,1/2+y,-z
-y,1/2+x,1/2-z
1/2-x,y,1/2+z
x,1/2-y,1/2+z
1/2-y,1/2-x,z
y,x,z
loop_
_atom_site_type_symbol
_atom_site_label
_atom_site_fract_x
_atom_site_fract_y
_atom_site_fract_z
Si Si1 0.568434 0.082944 0.830134
Si Si2 0.826285 0.673716 0.433649
Si Si3 0.485960 0.719561 0.124424
Si Si4 0.672202 0.827799 0.561330
Si Si5 0.744674 0.491608 0.875189
Si Si6 0.172024 0.688585 0.437062
Si Si7 0.070977 0.581952 0.296101
O O1 0.547293 0.175554 0.864925
O O2 0.649782 0.017776 0.854632
O O3 0.594249 0.109042 0.767038
O O4 0.474355 0.025646 0.832048
O O5 0.750000 0.750000 0.442675
O O6 0.855993 0.644008 0.497118
O O7 0.781791 0.593518 0.395681
O O8 0.586482 0.714115 0.096208
O O9 0.417567 0.671239 0.081066
O O10 0.477172 0.658445 0.180542
O O11 0.750000 0.750000 0.560039
O O12 0.734283 0.427945 0.929206
O O13 0.677069 0.449510 0.828280
O O14 0.250000 0.750000 0.404187
O O15 0.195910 0.695910 0.500000
O O16 0.979551 0.520450 0.300862
#
# Coordination Sequence:
#
# PCOD8319026 Si02
#       7
#    16   8  16   8  16  16  16
#     4  11  23  38  60  87 121 161 201 251 304 366
#     4  11  24  41  63  89 125 168 209 253 303 368
#     4  11  21  40  60  89 119 159 201 252 312 363
#     4  11  24  41  63  89 125 168 209 253 303 368
#     4  11  21  40  60  89 119 159 201 252 312 363
#     4  10  20  35  59  87 117 149 194 251 305 363
#     4  10  21  38  62  87 118 155 201 256 309 365
#
# _framework density 19.206894999999999
#
# number of rings (size 3 to 8) (size 9 to 14) (size 15 to 20)
#    0.000    1.333    3.333    3.000    0.000    0.000 
#    0.000    4.167    0.000    4.000    0.000    0.000 
#    0.000    0.000    0.000    0.000    0.000    0.000 
#
# Total GULP energy -1189855.341876 kJ/mol
# GULP energy per Si atom -12394.326478 kJ/mol
# Density = 1.916318 g / cm^3
# Si number density = 19.206895 Si / 1000 Ang^3
#
#
#
# Elastic Constant Matrix: (Units=GPa)
#
#
# Indices 1 2 3 4 5 6 
#
# 1 93.9935 13.3561 31.4757 0.0000 0.0000 0.0000
# 2 13.3561 93.9935 31.4757 0.0000 0.0000 0.0000
# 3 31.4757 31.4757 94.6371 0.0000 0.0000 0.0000
# 4 0.0000 0.0000 0.0000 26.6610 0.0000 0.0000
# 5 0.0000 0.0000 0.0000 0.0000 26.6610 0.0000
# 6 0.0000 0.0000 0.0000 0.0000 0.0000 34.4278
#
#
#
# Elastic Compliance Matrix: (Units=1/GPa)
#
#
# Indices 1 2 3 4 5 6 
#
# 1 0.011987 -0.000414 -0.003849 0.000000 0.000000 0.000000
# 2 -0.000414 0.011987 -0.003849 0.000000 0.000000 0.000000
# 3 -0.003849 -0.003849 0.013127 0.000000 0.000000 0.000000
# 4 0.000000 0.000000 0.000000 0.037508 0.000000 0.000000
# 5 0.000000 0.000000 0.000000 0.000000 0.037508 0.000000
# 6 0.000000 0.000000 0.000000 0.000000 0.000000 0.029046
#
#
# Mechanical properties :
#
#
# Convention : Reuss Voigt Hill
#
# Bulk Modulus (GPa) = 47.90166 48.35992 48.13079
# Shear Modulus (GPa) = 30.42362 31.30439 30.86401
#
# Velocity S-wave (km/s) = 3.98426 4.04152 4.01299
# Velocity P-wave (km/s) = 6.79410 6.85650 6.82537
#
# Compressibility (1/GPa) = 0.02087610
#
# Stress axis : x y z
#
# Youngs Moduli (GPa) = 83.42509 83.42509 76.17927
#
# Poissons Ratio (x) = 0.03457 0.29321
# Poissons Ratio (y) = 0.03457 0.29321
# Poissons Ratio (z) = 0.32110 0.32110
#
# Static dielectric constant tensor:
#      x y z
#    x 3.748870 0.000000 0.000000 
#    y 0.000000 3.748870 0.000000 
#    z 0.000000 0.000000 3.367260 
# 
# 
# High freq. dielectric constant tensor:
#      x y z
#    x 1.753510 0.000000 0.000000 
#    y 0.000000 1.753510 0.000000 
#    z 0.000000 0.000000 1.748400 
# 
# From -- ./inp_files/7019.got.cif
#   From: 2010.03.12/outbox.cif.g09.slc.cpg/sg138_4_cif.got.tgz:7019.got - 2010.04.08 09:41:05.
