data_PCOD8319811
_publ_section_title
;
Structure prediction by ZEFSAII (Michael W. Deem and Ramdas Pophale) SiO2 
 PCOD8319811
Probable space group: I 4/M M M
;
_chemical_formula_sum "Si O2"
_cell_formula_units_Z 160
_cell_length_a 30.208378
_cell_length_b 30.208378
_cell_length_c 9.258385
_cell_angle_alpha 90.000000
_cell_angle_beta 90.000000
_cell_angle_gamma 90.000000
_cell_volume 8448.703137
_symmetry_space_group_name_H-M "I 4/M M M"
_symmetry_group_IT_number 139
_symmetry_cell_setting 'tetragonal'
loop_
_space_group_symop_operation_xyz
x,y,z
-y,x,z
-x,-y,z
y,-x,z
x,-y,-z
-x,y,-z
y,x,-z
-y,-x,-z
-x,-y,-z
y,-x,-z
x,y,-z
-y,x,-z
-x,y,z
x,-y,z
-y,-x,z
y,x,z
1/2+x,1/2+y,1/2+z
1/2-y,1/2+x,1/2+z
1/2-x,1/2-y,1/2+z
1/2+y,1/2-x,1/2+z
1/2+x,1/2-y,1/2-z
1/2-x,1/2+y,1/2-z
1/2+y,1/2+x,1/2-z
1/2-y,1/2-x,1/2-z
1/2-x,1/2-y,1/2-z
1/2+y,1/2-x,1/2-z
1/2+x,1/2+y,1/2-z
1/2-y,1/2+x,1/2-z
1/2-x,1/2+y,1/2+z
1/2+x,1/2-y,1/2+z
1/2-y,1/2-x,1/2+z
1/2+y,1/2+x,1/2+z
loop_
_atom_site_type_symbol
_atom_site_label
_atom_site_fract_x
_atom_site_fract_y
_atom_site_fract_z
Si Si1 0.216149 0.889831 0.669111
Si Si2 0.113979 0.113979 0.334570
Si Si3 0.950219 0.049782 0.829634
Si Si4 0.947945 0.282932 0.837521
Si Si5 0.758412 0.686958 0.657971
Si Si6 0.449168 0.116740 0.669966
O O1 0.224681 0.882685 0.500000
O O2 0.164653 0.898704 0.700547
O O3 0.247029 0.929157 0.726348
O O4 0.227887 0.845847 0.753880
O O5 0.103464 0.103464 0.500000
O O6 0.083687 0.083687 0.237496
O O7 0.000000 0.061655 0.779516
O O8 0.946430 0.053571 0.000000
O O9 0.934572 0.332914 0.791258
O O10 0.000000 0.278185 0.833255
O O11 0.930652 0.273211 0.000000
O O12 0.771474 0.667456 0.500000
O O13 0.732306 0.732306 0.633658
O O14 0.802915 0.697086 0.750000
O O15 0.444762 0.108979 0.500000
O O16 0.500000 0.108637 0.718746
O O17 0.417521 0.082480 0.750000
#
# Coordination Sequence:
#
# PCOD8319811 Si02
#       6
#    32  16  16  32  32  32
#     4  11  22  37  56  80 114 149 186 232 280 333
#     4  10  23  39  56  83 118 151 183 225 278 337
#     4   9  20  40  64  89 115 143 180 227 278 337
#     4   9  20  39  58  77 107 147 190 234 280 332
#     4  10  20  34  54  78 105 140 181 223 269 320
#     4   9  19  36  57  82 113 147 184 230 281 333
#
# _framework density 18.937816999999999
#
# number of rings (size 3 to 8) (size 9 to 14) (size 15 to 20)
#    0.000    2.300    1.000    2.700    0.000    6.200 
#    0.000    9.500    0.000    0.000    0.000    0.000 
#    0.000    0.000    0.000    0.000    0.000    0.000 
#
# Total GULP energy -991705.542596 kJ/mol
# GULP energy per Si atom -12396.319282 kJ/mol
# Density = 1.889471 g / cm^3
# Si number density = 18.937817 Si / 1000 Ang^3
#
#
#
# Elastic Constant Matrix: (Units=GPa)
#
#
# Indices 1 2 3 4 5 6 
#
# 1 65.0868 91.3516 60.5860 0.0000 0.0000 0.0000
# 2 91.3516 65.1051 60.5863 0.0000 0.0000 0.0000
# 3 60.5860 60.5863 116.9264 0.0000 0.0000 0.0000
# 4 0.0000 0.0000 0.0000 30.9726 0.0000 0.0000
# 5 0.0000 0.0000 0.0000 0.0000 30.9714 0.0000
# 6 0.0000 0.0000 0.0000 0.0000 0.0000 38.1229
#
#
#
# Elastic Compliance Matrix: (Units=1/GPa)
#
#
# Indices 1 2 3 4 5 6 
#
# 1 -0.013709 0.024382 -0.005530 0.000000 0.000000 0.000000
# 2 0.024382 -0.013702 -0.005534 0.000000 0.000000 0.000000
# 3 -0.005530 -0.005534 0.014286 0.000000 0.000000 0.000000
# 4 0.000000 0.000000 0.000000 0.032287 0.000000 0.000000
# 5 0.000000 0.000000 0.000000 0.000000 0.032288 0.000000
# 6 0.000000 0.000000 0.000000 0.000000 0.000000 0.026231
#
#
# Mechanical properties :
#
#
# Convention : Reuss Voigt Hill
#
# Bulk Modulus (GPa) = 74.01866 74.68513 74.35190
# Shear Modulus (GPa) = 90.01061 22.31967 56.16514
#
# Velocity S-wave (km/s) = 6.90165 3.43677 5.45179
# Velocity P-wave (km/s) = 10.13313 7.43445 8.88683
#
# Compressibility (1/GPa) = 0.01351011
#
# Stress axis : x y z
#
# Youngs Moduli (GPa) = -72.94557 -72.98466 70.00102
#
# Poissons Ratio (x) = 1.77951 0.38713
# Poissons Ratio (y) = 1.77855 0.38739
# Poissons Ratio (z) = -0.40342 -0.40390
#
# Static dielectric constant tensor:
#      x y z
#    x 3.468180 0.000000 0.000000 
#    y 0.000000 3.468170 0.000000 
#    z 0.000000 0.000000 3.767470 
# 
# 
# High freq. dielectric constant tensor:
#      x y z
#    x 1.734690 0.000000 0.000000 
#    y 0.000000 1.734690 0.000000 
#    z 0.000000 0.000000 1.740970 
# 
# From -- ./inp_files/2229.got.cif
#   From: 2010.03.12/outbox.cif.g09.slc.cpg/sg139_2_cif.got.tgz:2229.got - 2010.04.08 09:46:31.
