data_PCOD8319839
_publ_section_title
;
Structure prediction by ZEFSAII (Michael W. Deem and Ramdas Pophale) SiO2 
 PCOD8319839
Probable space group: I 4/M M M
;
_chemical_formula_sum "Si O2"
_cell_formula_units_Z 160
_cell_length_a 30.260943
_cell_length_b 30.260943
_cell_length_c 8.856148
_cell_angle_alpha 90.000000
_cell_angle_beta 90.000000
_cell_angle_gamma 90.000000
_cell_volume 8109.793216
_symmetry_space_group_name_H-M "I 4/M M M"
_symmetry_group_IT_number 139
_symmetry_cell_setting 'tetragonal'
loop_
_space_group_symop_operation_xyz
x,y,z
-y,x,z
-x,-y,z
y,-x,z
x,-y,-z
-x,y,-z
y,x,-z
-y,-x,-z
-x,-y,-z
y,-x,-z
x,y,-z
-y,x,-z
-x,y,z
x,-y,z
-y,-x,z
y,x,z
1/2+x,1/2+y,1/2+z
1/2-y,1/2+x,1/2+z
1/2-x,1/2-y,1/2+z
1/2+y,1/2-x,1/2+z
1/2+x,1/2-y,1/2-z
1/2-x,1/2+y,1/2-z
1/2+y,1/2+x,1/2-z
1/2-y,1/2-x,1/2-z
1/2-x,1/2-y,1/2-z
1/2+y,1/2-x,1/2-z
1/2+x,1/2+y,1/2-z
1/2-y,1/2+x,1/2-z
1/2-x,1/2+y,1/2+z
1/2+x,1/2-y,1/2+z
1/2-y,1/2-x,1/2+z
1/2+y,1/2+x,1/2+z
loop_
_atom_site_type_symbol
_atom_site_label
_atom_site_fract_x
_atom_site_fract_y
_atom_site_fract_z
Si Si1 0.209741 0.892555 0.677331
Si Si2 0.116431 0.116431 0.177616
Si Si3 0.948867 0.051134 0.672824
Si Si4 0.948016 0.282570 0.830729
Si Si5 0.756788 0.685447 0.665003
Si Si6 0.449816 0.118289 0.678731
O O1 0.201933 0.892412 0.500000
O O2 0.162690 0.900631 0.755238
O O3 0.245302 0.929721 0.719634
O O4 0.228343 0.845937 0.729833
O O5 0.079832 0.079832 0.212733
O O6 0.122344 0.122344 0.000000
O O7 0.936893 0.063108 0.500000
O O8 0.000000 0.061460 0.704341
O O9 0.934775 0.331941 0.774881
O O10 0.000000 0.278330 0.830548
O O11 0.929723 0.274446 0.000000
O O12 0.767076 0.664061 0.500000
O O13 0.730164 0.730164 0.637735
O O14 0.802717 0.697284 0.750000
O O15 0.448120 0.113733 0.500000
O O16 0.500000 0.109312 0.735562
O O17 0.417174 0.082827 0.750000
#
# Coordination Sequence:
#
# PCOD8319839 Si02
#       6
#    32  16  16  32  32  32
#     4  12  24  38  59  86 118 153 194 244 295 348
#     4  12  25  41  62  89 122 159 198 241 289 345
#     4   9  20  42  70  97 125 155 188 233 291 353
#     4   9  20  40  61  80 110 153 198 243 291 347
#     4  10  20  35  56  80 110 147 187 230 277 333
#     4   9  19  36  58  85 117 154 196 243 295 350
#
# _framework density 19.729233000000001
#
# number of rings (size 3 to 8) (size 9 to 14) (size 15 to 20)
#    0.000    1.900    1.000    4.800    0.000    4.600 
#    0.000    5.500    0.000    0.000    0.000    0.000 
#    0.000    0.000    0.000    0.000    0.000    0.000 
#
# Total GULP energy -991815.431895 kJ/mol
# GULP energy per Si atom -12397.692899 kJ/mol
# Density = 1.968433 g / cm^3
# Si number density = 19.729233 Si / 1000 Ang^3
#
#
#
# Elastic Constant Matrix: (Units=GPa)
#
#
# Indices 1 2 3 4 5 6 
#
# 1 156.3848 5.8124 51.4560 0.0000 0.0000 0.0000
# 2 5.8124 156.3871 51.4678 0.0000 0.0000 0.0000
# 3 51.4560 51.4678 135.2850 0.0000 0.0000 0.0000
# 4 0.0000 0.0000 0.0000 29.0664 0.0000 0.0000
# 5 0.0000 0.0000 0.0000 0.0000 29.0652 0.0000
# 6 0.0000 0.0000 0.0000 0.0000 0.0000 37.2502
#
#
#
# Elastic Compliance Matrix: (Units=1/GPa)
#
#
# Indices 1 2 3 4 5 6 
#
# 1 0.007384 0.000743 -0.003091 0.000000 0.000000 0.000000
# 2 0.000743 0.007384 -0.003092 0.000000 0.000000 0.000000
# 3 -0.003091 -0.003092 0.009744 0.000000 0.000000 0.000000
# 4 0.000000 0.000000 0.000000 0.034404 0.000000 0.000000
# 5 0.000000 0.000000 0.000000 0.000000 0.034405 0.000000
# 6 0.000000 0.000000 0.000000 0.000000 0.000000 0.026845
#
#
# Mechanical properties :
#
#
# Convention : Reuss Voigt Hill
#
# Bulk Modulus (GPa) = 73.35752 73.94768 73.65260
# Shear Modulus (GPa) = 36.87558 41.69775 39.28666
#
# Velocity S-wave (km/s) = 4.32798 4.60227 4.46723
# Velocity P-wave (km/s) = 7.88911 8.11196 8.00131
#
# Compressibility (1/GPa) = 0.01363187
#
# Stress axis : x y z
#
# Youngs Moduli (GPa) = 135.42874 135.42208 102.62962
#
# Poissons Ratio (x) = -0.10060 0.31724
# Poissons Ratio (y) = -0.10061 0.31731
# Poissons Ratio (z) = 0.41863 0.41870
#
# Static dielectric constant tensor:
#      x y z
#    x 3.675290 0.000000 0.000000 
#    y 0.000000 3.675280 0.000000 
#    z 0.000000 0.000000 3.862320 
# 
# 
# High freq. dielectric constant tensor:
#      x y z
#    x 1.769500 0.000000 0.000000 
#    y 0.000000 1.769500 0.000000 
#    z 0.000000 0.000000 1.769870 
# 
# From -- ./inp_files/2231.got.cif
#   From: 2010.03.12/outbox.cif.g09.slc.cpg/sg139_2_cif.got.tgz:2231.got - 2010.04.08 09:46:31.
