data_PCOD8319855
_publ_section_title
;
Structure prediction by ZEFSAII (Michael W. Deem and Ramdas Pophale) SiO2 
 PCOD8319855
Probable space group: I 4/M M M
;
_chemical_formula_sum "Si O2"
_cell_formula_units_Z 112
_cell_length_a 19.526353
_cell_length_b 19.526353
_cell_length_c 15.239080
_cell_angle_alpha 90.000000
_cell_angle_beta 90.000000
_cell_angle_gamma 90.000000
_cell_volume 5810.332977
_symmetry_space_group_name_H-M "I 4/M M M"
_symmetry_group_IT_number 139
_symmetry_cell_setting 'tetragonal'
loop_
_space_group_symop_operation_xyz
x,y,z
-y,x,z
-x,-y,z
y,-x,z
x,-y,-z
-x,y,-z
y,x,-z
-y,-x,-z
-x,-y,-z
y,-x,-z
x,y,-z
-y,x,-z
-x,y,z
x,-y,z
-y,-x,z
y,x,z
1/2+x,1/2+y,1/2+z
1/2-y,1/2+x,1/2+z
1/2-x,1/2-y,1/2+z
1/2+y,1/2-x,1/2+z
1/2+x,1/2-y,1/2-z
1/2-x,1/2+y,1/2-z
1/2+y,1/2+x,1/2-z
1/2-y,1/2-x,1/2-z
1/2-x,1/2-y,1/2-z
1/2+y,1/2-x,1/2-z
1/2+x,1/2+y,1/2-z
1/2-y,1/2+x,1/2-z
1/2-x,1/2+y,1/2+z
1/2+x,1/2-y,1/2+z
1/2-y,1/2-x,1/2+z
1/2+y,1/2+x,1/2+z
loop_
_atom_site_type_symbol
_atom_site_label
_atom_site_fract_x
_atom_site_fract_y
_atom_site_fract_z
Si Si1 0.423596 0.923596 0.250000
Si Si2 0.712261 0.077650 0.159306
Si Si3 0.671661 0.783688 0.500000
Si Si4 0.257872 0.922132 0.500000
Si Si5 0.422367 0.311415 0.184208
O O1 0.500000 0.914127 0.209572
O O2 0.369249 0.912372 0.172231
O O3 0.748711 0.095635 0.251215
O O4 0.728719 0.000000 0.130008
O O5 0.738769 0.128709 0.084978
O O6 0.743813 0.743813 0.500000
O O7 0.682442 0.865563 0.500000
O O8 0.211458 0.909577 0.584944
O O9 0.288037 0.000000 0.500000
O O10 0.500000 0.335874 0.197847
O O11 0.375188 0.375188 0.208363
#
# Coordination Sequence:
#
# PCOD8319855 Si02
#       5
#    16  32  16  16  32
#     4   9  18  34  55  78 104 136 173 210 254 311
#     4  10  21  36  54  77 107 140 172 215 264 303
#     4  12  23  35  54  78 104 138 184 221 249 302
#     4  10  22  37  53  77 109 139 168 211 264 312
#     4  10  20  36  56  78 106 137 171 213 263 314
#
# _framework density 19.276002999999999
#
# number of rings (size 3 to 8) (size 9 to 14) (size 15 to 20)
#    0.000    1.857    0.000    4.286    0.000    3.714 
#    0.000    4.286    0.000    6.857    0.000    0.000 
#    0.000   10.286    0.000    0.000    0.000    0.000 
#
# Total GULP energy -694450.966703 kJ/mol
# GULP energy per Si atom -12400.910120 kJ/mol
# Density = 1.923213 g / cm^3
# Si number density = 19.276003 Si / 1000 Ang^3
#
#
#
# Elastic Constant Matrix: (Units=GPa)
#
#
# Indices 1 2 3 4 5 6 
#
# 1 96.9473 58.5360 54.4182 0.0000 0.0000 0.0000
# 2 58.5360 96.9473 54.4182 0.0000 0.0000 0.0000
# 3 54.4182 54.4182 109.6765 0.0000 0.0000 0.0000
# 4 0.0000 0.0000 0.0000 23.2739 0.0000 0.0000
# 5 0.0000 0.0000 0.0000 0.0000 23.2739 0.0000
# 6 0.0000 0.0000 0.0000 0.0000 0.0000 34.2806
#
#
#
# Elastic Compliance Matrix: (Units=1/GPa)
#
#
# Indices 1 2 3 4 5 6 
#
# 1 0.017944 -0.008090 -0.004889 0.000000 0.000000 0.000000
# 2 -0.008090 0.017944 -0.004889 0.000000 0.000000 0.000000
# 3 -0.004889 -0.004889 0.013970 0.000000 0.000000 0.000000
# 4 0.000000 0.000000 0.000000 0.042967 0.000000 0.000000
# 5 0.000000 0.000000 0.000000 0.000000 0.042967 0.000000
# 6 0.000000 0.000000 0.000000 0.000000 0.000000 0.029171
#
#
# Mechanical properties :
#
#
# Convention : Reuss Voigt Hill
#
# Bulk Modulus (GPa) = 70.81914 70.92400 70.87157
# Shear Modulus (GPa) = 24.34210 25.24561 24.79386
#
# Velocity S-wave (km/s) = 3.55747 3.62289 3.59033
# Velocity P-wave (km/s) = 7.32758 7.37389 7.35077
#
# Compressibility (1/GPa) = 0.01412048
#
# Stress axis : x y z
#
# Youngs Moduli (GPa) = 55.72893 55.72893 71.58449
#
# Poissons Ratio (x) = 0.45085 0.34999
# Poissons Ratio (y) = 0.45085 0.34999
# Poissons Ratio (z) = 0.27247 0.27247
#
# Static dielectric constant tensor:
#      x y z
#    x 3.489130 0.000000 0.000000 
#    y 0.000000 3.489130 0.000000 
#    z 0.000000 0.000000 3.406850 
# 
# 
# High freq. dielectric constant tensor:
#      x y z
#    x 1.748940 0.000000 0.000000 
#    y 0.000000 1.748940 0.000000 
#    z 0.000000 0.000000 1.743130 
# 
# From -- ./inp_files/7629.got.cif
#   From: 2010.03.12/outbox.cif.g09.slc.cpg/sg139_4_cif.got.tgz:7629.got - 2010.04.08 09:46:31.
