data_PCOD8319246
_publ_section_title
;
Structure prediction by ZEFSAII (Michael W. Deem and Ramdas Pophale) SiO2 
 PCOD8319246
Probable space group: P 42/N C M
;
_chemical_formula_sum "Si O2"
_cell_formula_units_Z 128
_cell_length_a 20.818440
_cell_length_b 20.818440
_cell_length_c 19.554116
_cell_angle_alpha 90.000000
_cell_angle_beta 90.000000
_cell_angle_gamma 90.000000
_cell_volume 8474.899436
_symmetry_space_group_name_H-M "P 42/N C M"
_symmetry_group_IT_number 138
_space_group.IT_coordinate_system_code '2'
_symmetry_cell_setting 'tetragonal'
loop_
_space_group_symop_operation_xyz
x,y,z
1/2-y,x,1/2+z
1/2-x,1/2-y,z
y,1/2-x,1/2+z
1/2+x,-y,1/2-z
-x,1/2+y,1/2-z
1/2+y,1/2+x,-z
-y,-x,-z
-x,-y,-z
1/2+y,-x,1/2-z
1/2+x,1/2+y,-z
-y,1/2+x,1/2-z
1/2-x,y,1/2+z
x,1/2-y,1/2+z
1/2-y,1/2-x,z
y,x,z
loop_
_atom_site_type_symbol
_atom_site_label
_atom_site_fract_x
_atom_site_fract_y
_atom_site_fract_z
Si Si1 0.572718 0.463950 0.290518
Si Si2 0.428402 0.177924 0.427727
Si Si3 0.507535 0.399383 0.030082
Si Si4 0.105257 0.000034 0.181093
Si Si5 0.194665 0.094114 0.255544
Si Si6 0.925782 0.823775 0.587395
Si Si7 0.470011 0.578252 0.568281
Si Si8 0.441204 0.163934 0.271478
O O1 0.517310 0.517310 0.289807
O O2 0.557689 0.408938 0.234018
O O3 0.575727 0.430392 0.365168
O O4 0.641694 0.495439 0.270558
O O5 0.362354 0.137646 0.435837
O O6 0.482033 0.157850 0.482368
O O7 0.413871 0.252643 0.441809
O O8 0.457750 0.168082 0.352007
O O9 0.453769 0.453769 0.031720
O O10 0.524830 0.374776 0.106025
O O11 0.573547 0.426454 0.000000
O O12 0.040153 0.040153 0.174975
O O13 0.163871 0.043319 0.204845
O O14 0.165890 0.165890 0.240887
O O15 0.175311 0.073665 0.331148
O O16 0.270437 0.089751 0.243441
O O17 0.867877 0.867877 0.558688
O O18 0.994993 0.852441 0.565714
O O19 0.427379 0.572622 0.500000
O O20 0.524349 0.524349 0.571027
O O21 0.387638 0.112362 0.256987
#
# Coordination Sequence:
#
# PCOD8319246 Si02
#       8
#    16  16  16  16  16  16  16  16
#     4   9  15  26  43  62  81 104 139 181 225 262
#     4   9  17  28  41  62  92 120 147 180 213 251
#     4   9  16  26  41  61  83 109 139 174 221 264
#     4   9  15  25  43  60  78 108 141 174 212 258
#     4   9  16  27  42  59  83 117 151 175 203 250
#     4   9  16  28  44  61  84 118 154 182 210 251
#     4   9  16  27  43  61  80 106 142 184 227 262
#     4   9  17  27  41  62  87 115 146 182 216 247
#
# _framework density 15.103424
#
# number of rings (size 3 to 8) (size 9 to 14) (size 15 to 20)
#    0.000    3.000    1.250    0.750    0.000    3.500 
#    2.250    2.500    0.000    0.000    0.000    3.500 
#    0.000    1.000    1.000    0.000    0.000    0.000 
#
# Total GULP energy -1586346.821826 kJ/mol
# GULP energy per Si atom -12393.334546 kJ/mol
# Density = 1.506905 g / cm^3
# Si number density = 15.103424 Si / 1000 Ang^3
#
#
#
# Elastic Constant Matrix: (Units=GPa)
#
#
# Indices 1 2 3 4 5 6 
#
# 1 52.3960 49.4226 45.4038 0.0000 0.0000 0.0000
# 2 49.4226 52.3964 45.4041 0.0000 0.0000 0.0000
# 3 45.4038 45.4041 101.5488 0.0000 0.0000 0.0000
# 4 0.0000 0.0000 0.0000 14.5580 0.0000 0.0000
# 5 0.0000 0.0000 0.0000 0.0000 14.5578 0.0000
# 6 0.0000 0.0000 0.0000 0.0000 0.0000 13.4294
#
#
#
# Elastic Compliance Matrix: (Units=1/GPa)
#
#
# Indices 1 2 3 4 5 6 
#
# 1 0.176311 -0.159975 -0.007303 0.000000 0.000000 0.000000
# 2 -0.159975 0.176310 -0.007304 0.000000 0.000000 0.000000
# 3 -0.007303 -0.007304 0.016379 0.000000 0.000000 0.000000
# 4 0.000000 0.000000 0.000000 0.068691 0.000000 0.000000
# 5 0.000000 0.000000 0.000000 0.000000 0.068692 0.000000
# 6 0.000000 0.000000 0.000000 0.000000 0.000000 0.074464
#
#
# Mechanical properties :
#
#
# Convention : Reuss Voigt Hill
#
# Bulk Modulus (GPa) = 50.41776 54.08914 52.25345
# Shear Modulus (GPa) = 5.33833 12.91642 9.12737
#
# Velocity S-wave (km/s) = 1.88207 2.92755 2.46097
# Velocity P-wave (km/s) = 6.17876 6.87878 6.53815
#
# Compressibility (1/GPa) = 0.01983428
#
# Stress axis : x y z
#
# Youngs Moduli (GPa) = 5.67180 5.67182 61.05487
#
# Poissons Ratio (x) = 0.90735 0.44591
# Poissons Ratio (y) = 0.90735 0.44595
# Poissons Ratio (z) = 0.04142 0.04143
#
# Static dielectric constant tensor:
#      x y z
#    x 2.759610 0.000000 0.000000 
#    y 0.000000 2.759610 0.000000 
#    z 0.000000 0.000000 3.059450 
# 
# 
# High freq. dielectric constant tensor:
#      x y z
#    x 1.547850 0.000000 0.000000 
#    y 0.000000 1.547850 0.000000 
#    z 0.000000 0.000000 1.582040 
# 
# From -- ./inp_files/5481.got.cif
#   From: 2010.03.12/outbox.cif.g09.slc.cpg/sg138_3_cif.got.tgz:5481.got - 2010.04.08 09:41:05.
