data_PCOD8319666
_publ_section_title
;
Structure prediction by ZEFSAII (Michael W. Deem and Ramdas Pophale) SiO2 
 PCOD8319666
Probable space group: I 4/M M M
;
_chemical_formula_sum "Si O2"
_cell_formula_units_Z 192
_cell_length_a 30.835460
_cell_length_b 30.835460
_cell_length_c 12.534327
_cell_angle_alpha 90.000000
_cell_angle_beta 90.000000
_cell_angle_gamma 90.000000
_cell_volume 11917.958908
_symmetry_space_group_name_H-M "I 4/M M M"
_symmetry_group_IT_number 139
_symmetry_cell_setting 'tetragonal'
loop_
_space_group_symop_operation_xyz
x,y,z
-y,x,z
-x,-y,z
y,-x,z
x,-y,-z
-x,y,-z
y,x,-z
-y,-x,-z
-x,-y,-z
y,-x,-z
x,y,-z
-y,x,-z
-x,y,z
x,-y,z
-y,-x,z
y,x,z
1/2+x,1/2+y,1/2+z
1/2-y,1/2+x,1/2+z
1/2-x,1/2-y,1/2+z
1/2+y,1/2-x,1/2+z
1/2+x,1/2-y,1/2-z
1/2-x,1/2+y,1/2-z
1/2+y,1/2+x,1/2-z
1/2-y,1/2-x,1/2-z
1/2-x,1/2-y,1/2-z
1/2+y,1/2-x,1/2-z
1/2+x,1/2+y,1/2-z
1/2-y,1/2+x,1/2-z
1/2-x,1/2+y,1/2+z
1/2+x,1/2-y,1/2+z
1/2-y,1/2-x,1/2+z
1/2+y,1/2+x,1/2+z
loop_
_atom_site_type_symbol
_atom_site_label
_atom_site_fract_x
_atom_site_fract_y
_atom_site_fract_z
Si Si1 0.653758 0.414592 0.383487
Si Si2 0.820656 0.110288 0.500000
Si Si3 0.141002 0.703481 0.700856
Si Si4 0.684649 0.546637 0.819838
Si Si5 0.342042 0.273526 0.379991
Si Si6 0.281008 0.951864 0.625545
Si Si7 0.824203 0.250816 0.500000
O O1 0.655347 0.436845 0.500000
O O2 0.606687 0.393313 0.364386
O O3 0.662805 0.450787 0.295606
O O4 0.689425 0.377566 0.375924
O O5 0.845979 0.154022 0.500000
O O6 0.833523 0.083816 0.604392
O O7 0.771679 0.127982 0.500000
O O8 0.158636 0.658636 0.750000
O O9 0.143518 0.738764 0.793762
O O10 0.091086 0.692877 0.664285
O O11 0.173625 0.719188 0.605812
O O12 0.672360 0.500000 0.868971
O O13 0.736267 0.550563 0.810281
O O14 0.339584 0.253289 0.500000
O O15 0.295322 0.295322 0.351904
O O16 0.271172 0.948574 0.500000
O O17 0.302858 0.000000 0.649146
O O18 0.782132 0.217869 0.500000
#
# Coordination Sequence:
#
# PCOD8319666 Si02
#       7
#    32  16  32  32  32  32  16
#     4   9  17  30  45  60  86 123 161 194 233 285
#     4  11  19  31  51  69  97 125 158 204 246 288
#     4  12  22  33  50  71  98 130 172 221 248 284
#     4  11  18  28  47  69  93 118 157 201 247 296
#     4   9  18  31  44  61  91 135 174 199 236 284
#     4  10  19  35  54  71  96 126 164 209 251 294
#     4  11  22  35  47  69 102 138 183 214 244 277
#
# _framework density 16.110140999999999
#
# number of rings (size 3 to 8) (size 9 to 14) (size 15 to 20)
#    0.000    1.667    5.000    2.250    1.167    4.333 
#    0.000    0.000    0.000    0.500    0.000    0.000 
#    0.000   14.000    0.000    9.167    0.000    0.000 
#
# Total GULP energy -1189324.426453 kJ/mol
# GULP energy per Si atom -12388.796109 kJ/mol
# Density = 1.607347 g / cm^3
# Si number density = 16.110141 Si / 1000 Ang^3
#
#
#
# Elastic Constant Matrix: (Units=GPa)
#
#
# Indices 1 2 3 4 5 6 
#
# 1 59.1013 24.4178 24.3215 0.0000 0.0000 0.0000
# 2 24.4178 59.0992 24.3214 0.0000 0.0000 0.0000
# 3 24.3215 24.3214 84.8532 0.0000 0.0000 0.0000
# 4 0.0000 0.0000 0.0000 109.4150 0.0000 0.0000
# 5 0.0000 0.0000 0.0000 0.0000 108.4586 0.0000
# 6 0.0000 0.0000 0.0000 0.0000 0.0000 10.9043
#
#
#
# Elastic Compliance Matrix: (Units=1/GPa)
#
#
# Indices 1 2 3 4 5 6 
#
# 1 0.021603 -0.007230 -0.004120 0.000000 0.000000 0.000000
# 2 -0.007230 0.021603 -0.004120 0.000000 0.000000 0.000000
# 3 -0.004120 -0.004120 0.014147 0.000000 0.000000 0.000000
# 4 0.000000 0.000000 0.000000 0.009140 0.000000 0.000000
# 5 0.000000 0.000000 0.000000 0.000000 0.009220 0.000000
# 6 0.000000 0.000000 0.000000 0.000000 0.000000 0.091707
#
#
# Mechanical properties :
#
#
# Convention : Reuss Voigt Hill
#
# Bulk Modulus (GPa) = 37.85918 38.79724 38.32821
# Shear Modulus (GPa) = 24.13565 54.42179 39.27872
#
# Velocity S-wave (km/s) = 3.87481 5.81845 4.94311
# Velocity P-wave (km/s) = 6.60077 8.32310 7.51146
#
# Compressibility (1/GPa) = 0.02641368
#
# Stress axis : x y z
#
# Youngs Moduli (GPa) = 46.29090 46.28911 70.68781
#
# Poissons Ratio (x) = 0.33467 0.29120
# Poissons Ratio (y) = 0.33469 0.29122
# Poissons Ratio (z) = 0.19070 0.19070
#
# Static dielectric constant tensor:
#      x y z
#    x 2.962570 0.000000 0.000000 
#    y 0.000000 2.962580 0.000000 
#    z 0.000000 0.000000 3.322960 
# 
# 
# High freq. dielectric constant tensor:
#      x y z
#    x 1.587550 0.000000 0.000000 
#    y 0.000000 1.587550 0.000000 
#    z 0.000000 0.000000 1.633840 
# 
# From -- ./inp_files/4315.got.cif
#   From: 2010.03.12/outbox.cif.g09.slc.cpg/sg139_3_cif.got.tgz:4315.got - 2010.04.08 09:46:31.
