data_PCOD8319410
_publ_section_title
;
Structure prediction by ZEFSAII (Michael W. Deem and Ramdas Pophale) SiO2 
 PCOD8319410
Probable space group: I 4/M M M
;
_chemical_formula_sum "Si O2"
_cell_formula_units_Z 192
_cell_length_a 29.575016
_cell_length_b 29.575016
_cell_length_c 13.433497
_cell_angle_alpha 90.000000
_cell_angle_beta 90.000000
_cell_angle_gamma 90.000000
_cell_volume 11750.032265
_symmetry_space_group_name_H-M "I 4/M M M"
_symmetry_group_IT_number 139
_symmetry_cell_setting 'tetragonal'
loop_
_space_group_symop_operation_xyz
x,y,z
-y,x,z
-x,-y,z
y,-x,z
x,-y,-z
-x,y,-z
y,x,-z
-y,-x,-z
-x,-y,-z
y,-x,-z
x,y,-z
-y,x,-z
-x,y,z
x,-y,z
-y,-x,z
y,x,z
1/2+x,1/2+y,1/2+z
1/2-y,1/2+x,1/2+z
1/2-x,1/2-y,1/2+z
1/2+y,1/2-x,1/2+z
1/2+x,1/2-y,1/2-z
1/2-x,1/2+y,1/2-z
1/2+y,1/2+x,1/2-z
1/2-y,1/2-x,1/2-z
1/2-x,1/2-y,1/2-z
1/2+y,1/2-x,1/2-z
1/2+x,1/2+y,1/2-z
1/2-y,1/2+x,1/2-z
1/2-x,1/2+y,1/2+z
1/2+x,1/2-y,1/2+z
1/2-y,1/2-x,1/2+z
1/2+y,1/2+x,1/2+z
loop_
_atom_site_type_symbol
_atom_site_label
_atom_site_fract_x
_atom_site_fract_y
_atom_site_fract_z
Si Si1 0.289575 0.175546 0.112667
Si Si2 0.072169 0.000000 0.618412
Si Si3 0.738582 0.332982 0.196387
Si Si4 0.393927 0.868450 0.611093
Si Si5 0.429126 0.747176 0.884672
Si Si6 0.448439 0.156455 0.796243
Si Si7 0.825923 0.000000 0.382586
O O1 0.298460 0.227093 0.143148
O O2 0.253363 0.155027 0.190116
O O3 0.336727 0.149583 0.124480
O O4 0.270570 0.172197 0.000000
O O5 0.044892 0.044892 0.654276
O O6 0.074413 0.000000 0.500000
O O7 0.123277 0.000000 0.664288
O O8 0.689469 0.310532 0.199099
O O9 0.735094 0.377192 0.129780
O O10 0.413583 0.866701 0.500000
O O11 0.433862 0.851779 0.682253
O O12 0.375989 0.918687 0.633734
O O13 0.443217 0.790855 0.821578
O O14 0.456549 0.703079 0.847981
O O15 0.439270 0.757922 0.000000
O O16 0.500000 0.141291 0.809709
O O17 0.831774 0.000000 0.500000
#
# Coordination Sequence:
#
# PCOD8319410 Si02
#       7
#    32  16  32  32  32  32  16
#     4  10  18  32  51  67  92 130 170 206 237 279
#     4   8  14  27  46  64  86 123 171 215 251 292
#     4  11  21  31  44  67  99 131 167 205 246 291
#     4  10  20  35  55  78 102 127 163 207 245 291
#     4  11  20  31  46  69  98 130 167 205 248 298
#     4  11  20  34  56  77 100 129 163 202 248 296
#     4   9  19  30  45  68  95 125 162 207 249 291
#
# _framework density 16.34038
#
# number of rings (size 3 to 8) (size 9 to 14) (size 15 to 20)
#    0.000    1.750    4.167    3.250    0.000    4.333 
#    0.000    1.667    0.000    4.000    0.000    4.667 
#    0.000    0.000    0.000    0.000    0.000    0.500 
#
# Total GULP energy -1190289.756830 kJ/mol
# GULP energy per Si atom -12398.851634 kJ/mol
# Density = 1.630319 g / cm^3
# Si number density = 16.340380 Si / 1000 Ang^3
#
#
#
# Elastic Constant Matrix: (Units=GPa)
#
#
# Indices 1 2 3 4 5 6 
#
# 1 95.5586 42.3123 22.6309 0.0000 0.0000 0.0000
# 2 42.3123 95.5586 22.6309 0.0000 0.0000 0.0000
# 3 22.6309 22.6309 69.1478 0.0000 0.0000 0.0000
# 4 0.0000 0.0000 0.0000 13.0987 0.0000 0.0000
# 5 0.0000 0.0000 0.0000 0.0000 13.0987 0.0000
# 6 0.0000 0.0000 0.0000 0.0000 0.0000 21.3457
#
#
#
# Elastic Compliance Matrix: (Units=1/GPa)
#
#
# Indices 1 2 3 4 5 6 
#
# 1 0.013453 -0.005327 -0.002660 0.000000 0.000000 0.000000
# 2 -0.005327 0.013453 -0.002660 0.000000 0.000000 0.000000
# 3 -0.002660 -0.002660 0.016203 0.000000 0.000000 0.000000
# 4 0.000000 0.000000 0.000000 0.076343 0.000000 0.000000
# 5 0.000000 0.000000 0.000000 0.000000 0.076343 0.000000
# 6 0.000000 0.000000 0.000000 0.000000 0.000000 0.046848
#
#
# Mechanical properties :
#
#
# Convention : Reuss Voigt Hill
#
# Bulk Modulus (GPa) = 45.83612 48.37921 47.10766
# Shear Modulus (GPa) = 18.43594 21.02135 19.72865
#
# Velocity S-wave (km/s) = 3.36258 3.59063 3.47847
# Velocity P-wave (km/s) = 6.57173 6.84555 6.71004
#
# Compressibility (1/GPa) = 0.02181686
#
# Stress axis : x y z
#
# Youngs Moduli (GPa) = 74.33031 74.33031 61.71832
#
# Poissons Ratio (x) = 0.39597 0.16415
# Poissons Ratio (y) = 0.39597 0.16415
# Poissons Ratio (z) = 0.19769 0.19769
#
# Static dielectric constant tensor:
#      x y z
#    x 3.077700 0.000000 0.000000 
#    y 0.000000 3.077700 0.000000 
#    z 0.000000 0.000000 3.093110 
# 
# 
# High freq. dielectric constant tensor:
#      x y z
#    x 1.618620 0.000000 0.000000 
#    y 0.000000 1.618620 0.000000 
#    z 0.000000 0.000000 1.612210 
# 
# From -- ./inp_files/6489.got.cif
#   From: 2010.03.12/outbox.cif.g09.slc.cpg/sg139_4_cif.got.tgz:6489.got - 2010.04.08 09:46:31.
