data_PCOD8319292
_publ_section_title
;
Structure prediction by ZEFSAII (Michael W. Deem and Ramdas Pophale) SiO2 
 PCOD8319292
Probable space group: I 4/M M M
;
_chemical_formula_sum "Si O2"
_cell_formula_units_Z 104
_cell_length_a 17.061905
_cell_length_b 17.061905
_cell_length_c 19.236740
_cell_angle_alpha 90.000000
_cell_angle_beta 90.000000
_cell_angle_gamma 90.000000
_cell_volume 5599.980493
_symmetry_space_group_name_H-M "I 4/M M M"
_symmetry_group_IT_number 139
_symmetry_cell_setting 'tetragonal'
loop_
_space_group_symop_operation_xyz
x,y,z
-y,x,z
-x,-y,z
y,-x,z
x,-y,-z
-x,y,-z
y,x,-z
-y,-x,-z
-x,-y,-z
y,-x,-z
x,y,-z
-y,x,-z
-x,y,z
x,-y,z
-y,-x,z
y,x,z
1/2+x,1/2+y,1/2+z
1/2-y,1/2+x,1/2+z
1/2-x,1/2-y,1/2+z
1/2+y,1/2-x,1/2+z
1/2+x,1/2-y,1/2-z
1/2-x,1/2+y,1/2-z
1/2+y,1/2+x,1/2-z
1/2-y,1/2-x,1/2-z
1/2-x,1/2-y,1/2-z
1/2+y,1/2-x,1/2-z
1/2+x,1/2+y,1/2-z
1/2-y,1/2+x,1/2-z
1/2-x,1/2+y,1/2+z
1/2+x,1/2-y,1/2+z
1/2-y,1/2-x,1/2+z
1/2+y,1/2+x,1/2+z
loop_
_atom_site_type_symbol
_atom_site_label
_atom_site_fract_x
_atom_site_fract_y
_atom_site_fract_z
Si Si1 0.704121 0.000000 0.000000
Si Si2 0.844200 0.650074 0.849116
Si Si3 0.085718 0.500000 0.624890
Si Si4 0.165945 0.705341 0.000000
Si Si5 0.280781 0.593453 0.256558
O O1 0.650531 0.000000 0.933222
O O2 0.751778 0.918449 0.000000
O O3 0.768952 0.611748 0.812859
O O4 0.864545 0.737183 0.821307
O O5 0.920600 0.597289 0.830409
O O6 0.826428 0.651291 0.931623
O O7 0.000000 0.500000 0.591463
O O8 0.232084 0.767917 0.000000
O O9 0.290478 0.500000 0.267654
O O10 0.366685 0.633316 0.249792
#
# Coordination Sequence:
#
# PCOD8319292 Si02
#       5
#     8  32  16  16  32
#     4   8  19  28  44  73 108 134 170 212 261 326
#     4  10  20  36  55  83 110 140 182 226 275 336
#     4  10  17  30  50  78 110 137 166 209 272 333
#     4  10  18  33  55  77 104 143 179 220 277 331
#     4  11  22  38  56  79 110 146 188 231 273 320
#
# _framework density 18.571494000000001
#
# number of rings (size 3 to 8) (size 9 to 14) (size 15 to 20)
#    0.000    1.846    1.538    4.846    0.000    0.308 
#    0.000    2.308    0.000    0.231    0.000    0.000 
#    0.000    3.692    0.000    0.000    0.000    0.000 
#
# Total GULP energy -644277.869368 kJ/mol
# GULP energy per Si atom -12389.959026 kJ/mol
# Density = 1.852922 g / cm^3
# Si number density = 18.571494 Si / 1000 Ang^3
#
#
#
# Elastic Constant Matrix: (Units=GPa)
#
#
# Indices 1 2 3 4 5 6 
#
# 1 80.9566 43.7093 13.5781 0.0000 0.0000 0.0000
# 2 43.7093 80.9599 13.5782 0.0000 0.0000 0.0000
# 3 13.5781 13.5782 108.7315 0.0000 0.0000 0.0000
# 4 0.0000 0.0000 0.0000 20.0371 0.0000 0.0000
# 5 0.0000 0.0000 0.0000 0.0000 20.0396 0.0000
# 6 0.0000 0.0000 0.0000 0.0000 0.0000 18.2262
#
#
#
# Elastic Compliance Matrix: (Units=1/GPa)
#
#
# Indices 1 2 3 4 5 6 
#
# 1 0.017546 -0.009300 -0.001030 0.000000 0.000000 0.000000
# 2 -0.009300 0.017546 -0.001030 0.000000 0.000000 0.000000
# 3 -0.001030 -0.001030 0.009454 0.000000 0.000000 0.000000
# 4 0.000000 0.000000 0.000000 0.049908 0.000000 0.000000
# 5 0.000000 0.000000 0.000000 0.000000 0.049901 0.000000
# 6 0.000000 0.000000 0.000000 0.000000 0.000000 0.054866
#
#
# Mechanical properties :
#
#
# Convention : Reuss Voigt Hill
#
# Bulk Modulus (GPa) = 45.81563 45.81992 45.81778
# Shear Modulus (GPa) = 21.81347 24.97939 23.39643
#
# Velocity S-wave (km/s) = 3.43091 3.67146 3.55322
# Velocity P-wave (km/s) = 6.35754 6.53441 6.44658
#
# Compressibility (1/GPa) = 0.02182661
#
# Stress axis : x y z
#
# Youngs Moduli (GPa) = 56.99175 56.99412 105.77379
#
# Poissons Ratio (x) = 0.53007 0.10892
# Poissons Ratio (y) = 0.53005 0.10891
# Poissons Ratio (z) = 0.05869 0.05868
#
# Static dielectric constant tensor:
#      x y z
#    x 3.490270 0.000000 0.000000 
#    y 0.000000 3.490270 0.000000 
#    z 0.000000 0.000000 2.897880 
# 
# 
# High freq. dielectric constant tensor:
#      x y z
#    x 1.706680 0.000000 0.000000 
#    y 0.000000 1.706680 0.000000 
#    z 0.000000 0.000000 1.726360 
# 
# From -- ./inp_files/9749.got.cif
#   From: 2010.03.12/outbox.cif.g09.slc.cpg/sg139_5_cif.got.tgz:9749.got - 2010.04.08 09:46:31.
