data_PCOD8319149
_publ_section_title
;
Structure prediction by ZEFSAII (Michael W. Deem and Ramdas Pophale) SiO2 
 PCOD8319149
Probable space group: P 42/N C M
;
_chemical_formula_sum "Si O2"
_cell_formula_units_Z 96
_cell_length_a 14.330397
_cell_length_b 14.330397
_cell_length_c 23.202517
_cell_angle_alpha 90.000000
_cell_angle_beta 90.000000
_cell_angle_gamma 90.000000
_cell_volume 4764.875346
_symmetry_space_group_name_H-M "P 42/N C M"
_symmetry_group_IT_number 138
_space_group.IT_coordinate_system_code '2'
_symmetry_cell_setting 'tetragonal'
loop_
_space_group_symop_operation_xyz
x,y,z
1/2-y,x,1/2+z
1/2-x,1/2-y,z
y,1/2-x,1/2+z
1/2+x,-y,1/2-z
-x,1/2+y,1/2-z
1/2+y,1/2+x,-z
-y,-x,-z
-x,-y,-z
1/2+y,-x,1/2-z
1/2+x,1/2+y,-z
-y,1/2+x,1/2-z
1/2-x,y,1/2+z
x,1/2-y,1/2+z
1/2-y,1/2-x,z
y,x,z
loop_
_atom_site_type_symbol
_atom_site_label
_atom_site_fract_x
_atom_site_fract_y
_atom_site_fract_z
Si Si1 0.830520 0.981907 0.896011
Si Si2 0.036568 0.309405 0.470586
Si Si3 0.327556 0.172445 0.915408
Si Si4 0.329055 0.170946 0.788107
Si Si5 0.292071 0.617759 0.772367
Si Si6 0.789014 0.557858 0.789774
Si Si7 0.197608 0.650690 0.399094
O O1 0.927490 0.927490 0.882297
O O2 0.747891 0.949102 0.854609
O O3 0.836398 0.090444 0.884314
O O4 0.800970 0.962627 0.961186
O O5 0.095083 0.404918 0.452116
O O6 0.084620 0.215308 0.448426
O O7 0.928931 0.303021 0.448925
O O8 0.250000 0.250000 0.909753
O O9 0.359597 0.140404 0.852046
O O10 0.250000 0.250000 0.789973
O O11 0.294448 0.080220 0.754379
O O12 0.202160 0.635784 0.732416
O O13 0.339436 0.529574 0.741087
O O14 0.260598 0.608396 0.839524
O O15 0.860589 0.639412 0.792932
O O16 0.250000 0.750000 0.416181
#
# Coordination Sequence:
#
# PCOD8319149 Si02
#       7
#    16  16   8   8  16  16  16
#     4  11  23  40  63  94 130 168 218 267 324 387
#     4  10  23  40  64  96 127 169 221 270 321 393
#     4   9  18  38  62  91 127 168 205 266 338 389
#     4   9  18  34  56  88 122 150 196 250 310 376
#     4  11  21  42  62  87 125 161 206 257 319 385
#     4  11  22  37  62  96 126 162 203 263 321 388
#     4  12  23  41  69  91 126 174 219 274 326 383
#
# _framework density 20.147431999999998
#
# number of rings (size 3 to 8) (size 9 to 14) (size 15 to 20)
#    0.000    1.333    4.167    2.000    1.167    5.333 
#    1.500    0.000    5.500    1.000    0.000    0.000 
#    0.000    0.000    0.000    0.000    0.000    0.000 
#
# Total GULP energy -1189355.754697 kJ/mol
# GULP energy per Si atom -12389.122445 kJ/mol
# Density = 2.010158 g / cm^3
# Si number density = 20.147432 Si / 1000 Ang^3
#
#
#
# Elastic Constant Matrix: (Units=GPa)
#
#
# Indices 1 2 3 4 5 6 
#
# 1 88.3738 40.6524 36.9197 0.0000 0.0000 0.0000
# 2 40.6524 88.3738 36.9197 0.0000 0.0000 0.0000
# 3 36.9197 36.9197 125.0430 0.0000 0.0000 0.0000
# 4 0.0000 0.0000 0.0000 19.1511 0.0000 0.0000
# 5 0.0000 0.0000 0.0000 0.0000 19.1511 0.0000
# 6 0.0000 0.0000 0.0000 0.0000 0.0000 10.0281
#
#
#
# Elastic Compliance Matrix: (Units=1/GPa)
#
#
# Indices 1 2 3 4 5 6 
#
# 1 0.015141 -0.005814 -0.002754 0.000000 0.000000 0.000000
# 2 -0.005814 0.015141 -0.002754 0.000000 0.000000 0.000000
# 3 -0.002754 -0.002754 0.009623 0.000000 0.000000 0.000000
# 4 0.000000 0.000000 0.000000 0.052216 0.000000 0.000000
# 5 0.000000 0.000000 0.000000 0.000000 0.052216 0.000000
# 6 0.000000 0.000000 0.000000 0.000000 0.000000 0.099720
#
#
# Mechanical properties :
#
#
# Convention : Reuss Voigt Hill
#
# Bulk Modulus (GPa) = 57.93326 58.97489 58.45408
# Shear Modulus (GPa) = 18.35170 22.15264 20.25217
#
# Velocity S-wave (km/s) = 3.02134 3.31951 3.17393
# Velocity P-wave (km/s) = 6.40222 6.63531 6.51981
#
# Compressibility (1/GPa) = 0.01726124
#
# Stress axis : x y z
#
# Youngs Moduli (GPa) = 66.04758 66.04758 103.91455
#
# Poissons Ratio (x) = 0.38403 0.28614
# Poissons Ratio (y) = 0.38403 0.28614
# Poissons Ratio (z) = 0.18187 0.18187
#
# Static dielectric constant tensor:
#      x y z
#    x 3.843610 0.000000 0.000000 
#    y 0.000000 3.843610 0.000000 
#    z 0.000000 0.000000 3.843160 
# 
# 
# High freq. dielectric constant tensor:
#      x y z
#    x 1.775990 0.000000 0.000000 
#    y 0.000000 1.775990 0.000000 
#    z 0.000000 0.000000 1.805660 
# 
# From -- ./inp_files/6275.got.cif
#   From: 2010.03.12/outbox.cif.g09.slc.cpg/sg138_4_cif.got.tgz:6275.got - 2010.04.08 09:41:05.
