data_PCOD8319491
_publ_section_title
;
Structure prediction by ZEFSAII (Michael W. Deem and Ramdas Pophale) SiO2 
 PCOD8319491
Probable space group: I 4/M M M
;
_chemical_formula_sum "Si O2"
_cell_formula_units_Z 224
_cell_length_a 22.175493
_cell_length_b 22.175493
_cell_length_c 26.853196
_cell_angle_alpha 90.000000
_cell_angle_beta 90.000000
_cell_angle_gamma 90.000000
_cell_volume 13205.125992
_symmetry_space_group_name_H-M "I 4/M M M"
_symmetry_group_IT_number 139
_symmetry_cell_setting 'tetragonal'
loop_
_space_group_symop_operation_xyz
x,y,z
-y,x,z
-x,-y,z
y,-x,z
x,-y,-z
-x,y,-z
y,x,-z
-y,-x,-z
-x,-y,-z
y,-x,-z
x,y,-z
-y,x,-z
-x,y,z
x,-y,z
-y,-x,z
y,x,z
1/2+x,1/2+y,1/2+z
1/2-y,1/2+x,1/2+z
1/2-x,1/2-y,1/2+z
1/2+y,1/2-x,1/2+z
1/2+x,1/2-y,1/2-z
1/2-x,1/2+y,1/2-z
1/2+y,1/2+x,1/2-z
1/2-y,1/2-x,1/2-z
1/2-x,1/2-y,1/2-z
1/2+y,1/2-x,1/2-z
1/2+x,1/2+y,1/2-z
1/2-y,1/2+x,1/2-z
1/2-x,1/2+y,1/2+z
1/2+x,1/2-y,1/2+z
1/2-y,1/2-x,1/2+z
1/2+y,1/2+x,1/2+z
loop_
_atom_site_type_symbol
_atom_site_label
_atom_site_fract_x
_atom_site_fract_y
_atom_site_fract_z
Si Si1 0.836342 0.738384 0.557643
Si Si2 0.066312 0.428472 0.055866
Si Si3 0.429834 0.167338 0.767002
Si Si4 0.165682 0.931719 0.942115
Si Si5 0.249973 0.651915 0.605191
Si Si6 0.930706 0.679508 0.383341
Si Si7 0.659194 0.246446 0.280269
O O1 0.854232 0.741820 0.500000
O O2 0.795786 0.795786 0.573488
O O3 0.802094 0.675699 0.568810
O O4 0.896204 0.736550 0.591852
O O5 0.063964 0.500000 0.057889
O O6 0.116908 0.404646 0.093807
O O7 0.000000 0.403162 0.071251
O O8 0.082811 0.407085 0.000000
O O9 0.500000 0.156515 0.753429
O O10 0.390956 0.109045 0.750000
O O11 0.420218 0.176845 0.825105
O O12 0.406918 0.230418 0.741686
O O13 0.107347 0.892654 0.926848
O O14 0.226347 0.914032 0.911042
O O15 0.149456 0.000000 0.928526
O O16 0.181209 0.923434 0.000000
O O17 0.307620 0.692381 0.595431
O O18 0.227467 0.656772 0.661995
O O19 0.000000 0.688646 0.397477
O O20 0.683858 0.316143 0.274761
O O21 0.704536 0.204536 0.250000
#
# Coordination Sequence:
#
# PCOD8319491 Si02
#       7
#    32  32  32  32  32  32  32
#     4  10  19  30  47  70  93 118 149 185 228 280
#     4   8  14  26  44  63  82 108 144 180 211 251
#     4  10  21  34  47  66  92 123 159 196 234 279
#     4   9  17  29  45  66  94 127 161 195 229 267
#     4   9  17  30  47  66  90 119 148 184 234 281
#     4  10  20  33  48  66  92 125 155 186 230 278
#     4   9  17  31  51  70  88 114 150 195 242 280
#
# _framework density 16.96311
#
# number of rings (size 3 to 8) (size 9 to 14) (size 15 to 20)
#    0.000    2.714    0.000    3.000    0.000    5.714 
#    0.000    2.857    0.000    2.571    0.000    0.000 
#    0.000    0.571    0.000    4.714    0.000    2.286 
#
# Total GULP energy -1387658.156296 kJ/mol
# GULP energy per Si atom -12389.804967 kJ/mol
# Density = 1.692450 g / cm^3
# Si number density = 16.963110 Si / 1000 Ang^3
#
#
#
# Elastic Constant Matrix: (Units=GPa)
#
#
# Indices 1 2 3 4 5 6 
#
# 1 72.8236 43.7638 31.2114 0.0000 0.0000 0.0000
# 2 43.7638 72.8239 31.2108 0.0000 0.0000 0.0000
# 3 31.2114 31.2108 69.3777 0.0000 0.0000 0.0000
# 4 0.0000 0.0000 0.0000 24.9752 0.0000 0.0000
# 5 0.0000 0.0000 0.0000 0.0000 24.9750 0.0000
# 6 0.0000 0.0000 0.0000 0.0000 0.0000 24.2458
#
#
#
# Elastic Compliance Matrix: (Units=1/GPa)
#
#
# Indices 1 2 3 4 5 6 
#
# 1 0.022855 -0.011556 -0.005083 0.000000 0.000000 0.000000
# 2 -0.011556 0.022855 -0.005083 0.000000 0.000000 0.000000
# 3 -0.005083 -0.005083 0.018987 0.000000 0.000000 0.000000
# 4 0.000000 0.000000 0.000000 0.040040 0.000000 0.000000
# 5 0.000000 0.000000 0.000000 0.000000 0.040040 0.000000
# 6 0.000000 0.000000 0.000000 0.000000 0.000000 0.041244
#
#
# Mechanical properties :
#
#
# Convention : Reuss Voigt Hill
#
# Bulk Modulus (GPa) = 47.05271 47.48858 47.27065
# Shear Modulus (GPa) = 21.13713 22.09515 21.61614
#
# Velocity S-wave (km/s) = 3.53379 3.61299 3.57361
# Velocity P-wave (km/s) = 6.66699 6.74247 6.70484
#
# Compressibility (1/GPa) = 0.02125276
#
# Stress axis : x y z
#
# Youngs Moduli (GPa) = 43.75350 43.75415 52.66694
#
# Poissons Ratio (x) = 0.50564 0.26772
# Poissons Ratio (y) = 0.50563 0.26769
# Poissons Ratio (z) = 0.22241 0.22239
#
# Static dielectric constant tensor:
#      x y z
#    x 3.298760 0.000000 0.000000 
#    y 0.000000 3.298750 0.000000 
#    z 0.000000 0.000000 3.230380 
# 
# 
# High freq. dielectric constant tensor:
#      x y z
#    x 1.636010 0.000000 0.000000 
#    y 0.000000 1.636010 0.000000 
#    z 0.000000 0.000000 1.660280 
# 
# From -- ./inp_files/12210.got.cif
#   From: 2010.03.12/outbox.cif.g09.slc.cpg/sg139_7_cif.got.tgz:12210.got - 2010.04.08 09:46:31.
