data_PCOD8319143
_publ_section_title
;
Structure prediction by ZEFSAII (Michael W. Deem and Ramdas Pophale) SiO2 
 PCOD8319143
Probable space group: P 42/N C M
;
_chemical_formula_sum "Si O2"
_cell_formula_units_Z 64
_cell_length_a 12.059130
_cell_length_b 12.059130
_cell_length_c 19.652830
_cell_angle_alpha 90.000000
_cell_angle_beta 90.000000
_cell_angle_gamma 90.000000
_cell_volume 2857.965957
_symmetry_space_group_name_H-M "P 42/N C M"
_symmetry_group_IT_number 138
_space_group.IT_coordinate_system_code '2'
_symmetry_cell_setting 'tetragonal'
loop_
_space_group_symop_operation_xyz
x,y,z
1/2-y,x,1/2+z
1/2-x,1/2-y,z
y,1/2-x,1/2+z
1/2+x,-y,1/2-z
-x,1/2+y,1/2-z
1/2+y,1/2+x,-z
-y,-x,-z
-x,-y,-z
1/2+y,-x,1/2-z
1/2+x,1/2+y,-z
-y,1/2+x,1/2-z
1/2-x,y,1/2+z
x,1/2-y,1/2+z
1/2-y,1/2-x,z
y,x,z
loop_
_atom_site_type_symbol
_atom_site_label
_atom_site_fract_x
_atom_site_fract_y
_atom_site_fract_z
Si Si1 0.662029 0.021700 0.398579
Si Si2 0.928378 0.255932 0.344484
Si Si3 0.427828 0.252376 0.469007
Si Si4 0.975924 0.155070 0.702255
O O1 0.643145 0.150681 0.383017
O O2 0.746894 0.971515 0.343075
O O3 0.548165 0.951836 0.395510
O O4 0.718299 0.014984 0.472758
O O5 0.855851 0.153777 0.316932
O O6 0.989906 0.312416 0.280905
O O7 0.014057 0.208605 0.399711
O O8 0.353153 0.146848 0.451015
O O9 0.353893 0.353893 0.496693
O O10 0.040755 0.040755 0.689060
#
# Coordination Sequence:
#
# PCOD8319143 Si02
#       4
#    16  16  16  16
#     4  11  24  44  71 101 137 182 227 282 345 411
#     4  12  24  43  68  97 137 182 229 281 344 409
#     4  10  22  42  69 102 139 180 231 286 344 413
#     4  12  26  43  68 101 139 180 230 285 341 410
#
# _framework density 22.393547999999999
#
# number of rings (size 3 to 8) (size 9 to 14) (size 15 to 20)
#    0.000    0.750    2.500    5.250    0.000    5.500 
#    0.000    5.000    0.000    0.000    0.000    0.000 
#    0.000    0.000    0.000    0.000    0.000    0.000 
#
# Total GULP energy -793770.114272 kJ/mol
# GULP energy per Si atom -12402.658035 kJ/mol
# Density = 2.234258 g / cm^3
# Si number density = 22.393548 Si / 1000 Ang^3
#
#
#
# Elastic Constant Matrix: (Units=GPa)
#
#
# Indices 1 2 3 4 5 6 
#
# 1 99.1267 28.4585 36.8823 0.0000 0.0000 0.0000
# 2 28.4585 99.1267 36.8823 0.0000 0.0000 0.0000
# 3 36.8823 36.8823 141.4602 0.0000 0.0000 0.0000
# 4 0.0000 0.0000 0.0000 37.1331 0.0000 0.0000
# 5 0.0000 0.0000 0.0000 0.0000 37.1331 0.0000
# 6 0.0000 0.0000 0.0000 0.0000 0.0000 25.1901
#
#
#
# Elastic Compliance Matrix: (Units=1/GPa)
#
#
# Indices 1 2 3 4 5 6 
#
# 1 0.011690 -0.002461 -0.002406 0.000000 0.000000 0.000000
# 2 -0.002461 0.011690 -0.002406 0.000000 0.000000 0.000000
# 3 -0.002406 -0.002406 0.008324 0.000000 0.000000 0.000000
# 4 0.000000 0.000000 0.000000 0.026930 0.000000 0.000000
# 5 0.000000 0.000000 0.000000 0.000000 0.026930 0.000000
# 6 0.000000 0.000000 0.000000 0.000000 0.000000 0.039698
#
#
# Mechanical properties :
#
#
# Convention : Reuss Voigt Hill
#
# Bulk Modulus (GPa) = 58.28515 60.46220 59.37368
# Shear Modulus (GPa) = 34.35777 35.72399 35.04088
#
# Velocity S-wave (km/s) = 3.92123 3.99843 3.96002
# Velocity P-wave (km/s) = 6.82536 6.95522 6.89059
#
# Compressibility (1/GPa) = 0.01715703
#
# Stress axis : x y z
#
# Youngs Moduli (GPa) = 85.54418 85.54418 120.13638
#
# Poissons Ratio (x) = 0.21050 0.28908
# Poissons Ratio (y) = 0.21050 0.28908
# Poissons Ratio (z) = 0.20584 0.20584
#
# Static dielectric constant tensor:
#      x y z
#    x 3.950340 0.000000 0.000000 
#    y 0.000000 3.950340 0.000000 
#    z 0.000000 0.000000 4.279000 
# 
# 
# High freq. dielectric constant tensor:
#      x y z
#    x 1.878140 0.000000 0.000000 
#    y 0.000000 1.878140 0.000000 
#    z 0.000000 0.000000 1.898560 
# 
# From -- ./inp_files/5844.got.cif
#   From: 2010.03.12/outbox.cif.g09.slc.cpg/sg138_3_cif.got.tgz:5844.got - 2010.04.08 09:41:05.
