data_PCOD8319623
_publ_section_title
;
Structure prediction by ZEFSAII (Michael W. Deem and Ramdas Pophale) SiO2 
 PCOD8319623
Probable space group: I 4/M M M
;
_chemical_formula_sum "Si O2"
_cell_formula_units_Z 192
_cell_length_a 19.399941
_cell_length_b 19.399941
_cell_length_c 29.974822
_cell_angle_alpha 90.000000
_cell_angle_beta 90.000000
_cell_angle_gamma 90.000000
_cell_volume 11281.255390
_symmetry_space_group_name_H-M "I 4/M M M"
_symmetry_group_IT_number 139
_symmetry_cell_setting 'tetragonal'
loop_
_space_group_symop_operation_xyz
x,y,z
-y,x,z
-x,-y,z
y,-x,z
x,-y,-z
-x,y,-z
y,x,-z
-y,-x,-z
-x,-y,-z
y,-x,-z
x,y,-z
-y,x,-z
-x,y,z
x,-y,z
-y,-x,z
y,x,z
1/2+x,1/2+y,1/2+z
1/2-y,1/2+x,1/2+z
1/2-x,1/2-y,1/2+z
1/2+y,1/2-x,1/2+z
1/2+x,1/2-y,1/2-z
1/2-x,1/2+y,1/2-z
1/2+y,1/2+x,1/2-z
1/2-y,1/2-x,1/2-z
1/2-x,1/2-y,1/2-z
1/2+y,1/2-x,1/2-z
1/2+x,1/2+y,1/2-z
1/2-y,1/2+x,1/2-z
1/2-x,1/2+y,1/2+z
1/2+x,1/2-y,1/2+z
1/2-y,1/2-x,1/2+z
1/2+y,1/2+x,1/2+z
loop_
_atom_site_type_symbol
_atom_site_label
_atom_site_fract_x
_atom_site_fract_y
_atom_site_fract_z
Si Si1 0.748230 0.639214 0.049602
Si Si2 0.579459 0.812053 0.133157
Si Si3 0.244779 0.136424 0.950844
Si Si4 0.422816 0.193473 0.369385
Si Si5 0.648746 0.759766 0.221918
Si Si6 0.919266 0.191777 0.801311
O O1 0.672447 0.672447 0.056218
O O2 0.762719 0.585378 0.089537
O O3 0.803654 0.699365 0.052941
O O4 0.752540 0.604375 0.000000
O O5 0.500000 0.831932 0.139963
O O6 0.622692 0.881482 0.126251
O O7 0.607946 0.775554 0.177072
O O8 0.169851 0.169851 0.941092
O O9 0.262983 0.077796 0.915308
O O10 0.245763 0.102838 0.000000
O O11 0.500000 0.171846 0.357538
O O12 0.392907 0.244235 0.331504
O O13 0.717424 0.717424 0.209002
O O14 0.672206 0.827795 0.250000
O O15 0.596521 0.713200 0.250692
O O16 0.876664 0.123336 0.814479
O O17 0.000000 0.176374 0.808306
#
# Coordination Sequence:
#
# PCOD8319623 Si02
#       6
#    32  32  32  32  32  32
#     4   8  15  29  49  72  96 123 157 200 253 308
#     4  11  21  32  49  72 101 133 169 216 259 298
#     4   8  14  26  46  69  89 112 151 205 256 294
#     4  10  20  32  46  65  94 134 174 206 242 297
#     4  10  19  33  54  76  96 125 166 210 255 307
#     4  10  20  34  53  76 101 128 161 204 254 310
#
# _framework density 17.019383000000001
#
# number of rings (size 3 to 8) (size 9 to 14) (size 15 to 20)
#    0.000    2.500    1.667    2.500    0.000    2.500 
#    0.000    0.000    0.000    0.000    0.000    4.667 
#    0.000    3.000    0.000   22.833    0.000    1.500 
#
# Total GULP energy -1189892.976104 kJ/mol
# GULP energy per Si atom -12394.718501 kJ/mol
# Density = 1.698065 g / cm^3
# Si number density = 17.019383 Si / 1000 Ang^3
#
#
#
# Elastic Constant Matrix: (Units=GPa)
#
#
# Indices 1 2 3 4 5 6 
#
# 1 72.3202 40.1267 40.0333 0.0000 0.0000 0.0000
# 2 40.1267 72.3199 40.0332 0.0000 0.0000 0.0000
# 3 40.0333 40.0332 121.0851 0.0000 0.0000 0.0000
# 4 0.0000 0.0000 0.0000 20.5250 0.0000 0.0000
# 5 0.0000 0.0000 0.0000 0.0000 20.5252 0.0000
# 6 0.0000 0.0000 0.0000 0.0000 0.0000 17.4207
#
#
#
# Elastic Compliance Matrix: (Units=1/GPa)
#
#
# Indices 1 2 3 4 5 6 
#
# 1 0.021347 -0.009716 -0.003846 0.000000 0.000000 0.000000
# 2 -0.009716 0.021347 -0.003846 0.000000 0.000000 0.000000
# 3 -0.003846 -0.003846 0.010801 0.000000 0.000000 0.000000
# 4 0.000000 0.000000 0.000000 0.048721 0.000000 0.000000
# 5 0.000000 0.000000 0.000000 0.000000 0.048721 0.000000
# 6 0.000000 0.000000 0.000000 0.000000 0.000000 0.057403
#
#
# Mechanical properties :
#
#
# Convention : Reuss Voigt Hill
#
# Bulk Modulus (GPa) = 53.52782 56.23462 54.88122
# Shear Modulus (GPa) = 20.04971 21.39632 20.72302
#
# Velocity S-wave (km/s) = 3.43600 3.54951 3.49322
# Velocity P-wave (km/s) = 6.87465 7.06484 6.97039
#
# Compressibility (1/GPa) = 0.01868187
#
# Stress axis : x y z
#
# Youngs Moduli (GPa) = 46.84547 46.84526 92.57986
#
# Poissons Ratio (x) = 0.45513 0.35602
# Poissons Ratio (y) = 0.45513 0.35602
# Poissons Ratio (z) = 0.18015 0.18015
#
# Static dielectric constant tensor:
#      x y z
#    x 2.946600 0.000000 0.000000 
#    y 0.000000 2.946600 0.000000 
#    z 0.000000 0.000000 3.467340 
# 
# 
# High freq. dielectric constant tensor:
#      x y z
#    x 1.630110 0.000000 0.000000 
#    y 0.000000 1.630110 0.000000 
#    z 0.000000 0.000000 1.674390 
# 
# From -- ./inp_files/13270.got.cif
#   From: 2010.03.12/outbox.cif.g09.slc.cpg/sg139_7_cif.got.tgz:13270.got - 2010.04.08 09:46:31.
