data_PCOD8319677
_publ_section_title
;
Structure prediction by ZEFSAII (Michael W. Deem and Ramdas Pophale) SiO2 
 PCOD8319677
Probable space group: I 4/M M M
;
_chemical_formula_sum "Si O2"
_cell_formula_units_Z 160
_cell_length_a 29.099149
_cell_length_b 29.099149
_cell_length_c 10.143093
_cell_angle_alpha 90.000000
_cell_angle_beta 90.000000
_cell_angle_gamma 90.000000
_cell_volume 8588.770222
_symmetry_space_group_name_H-M "I 4/M M M"
_symmetry_group_IT_number 139
_symmetry_cell_setting 'tetragonal'
loop_
_space_group_symop_operation_xyz
x,y,z
-y,x,z
-x,-y,z
y,-x,z
x,-y,-z
-x,y,-z
y,x,-z
-y,-x,-z
-x,-y,-z
y,-x,-z
x,y,-z
-y,x,-z
-x,y,z
x,-y,z
-y,-x,z
y,x,z
1/2+x,1/2+y,1/2+z
1/2-y,1/2+x,1/2+z
1/2-x,1/2-y,1/2+z
1/2+y,1/2-x,1/2+z
1/2+x,1/2-y,1/2-z
1/2-x,1/2+y,1/2-z
1/2+y,1/2+x,1/2-z
1/2-y,1/2-x,1/2-z
1/2-x,1/2-y,1/2-z
1/2+y,1/2-x,1/2-z
1/2+x,1/2+y,1/2-z
1/2-y,1/2+x,1/2-z
1/2-x,1/2+y,1/2+z
1/2+x,1/2-y,1/2+z
1/2-y,1/2-x,1/2+z
1/2+y,1/2+x,1/2+z
loop_
_atom_site_type_symbol
_atom_site_label
_atom_site_fract_x
_atom_site_fract_y
_atom_site_fract_z
Si Si1 0.761524 0.833647 0.000000
Si Si2 0.948171 0.650862 0.000000
Si Si3 0.448219 0.448219 0.156533
Si Si4 0.052206 0.305136 0.721427
Si Si5 0.874080 0.874080 0.656783
Si Si6 0.356619 0.900051 0.500000
Si Si7 0.122650 0.229785 0.275637
Si Si8 0.722306 0.826810 0.500000
O O1 0.755906 0.864845 0.871975
O O2 0.812377 0.812377 0.000000
O O3 0.726023 0.791505 0.000000
O O4 0.940520 0.682718 0.873551
O O5 0.910825 0.610430 0.000000
O O6 0.000000 0.629794 0.000000
O O7 0.500000 0.435489 0.205202
O O8 0.411217 0.411217 0.211370
O O9 0.447141 0.447141 0.000000
O O10 0.071314 0.346461 0.631965
O O11 0.077056 0.257508 0.684803
O O12 0.000000 0.296856 0.684096
O O13 0.873442 0.873442 0.500000
O O14 0.824061 0.887800 0.710975
O O15 0.325804 0.854223 0.500000
O O16 0.163419 0.246201 0.372237
#
# Coordination Sequence:
#
# PCOD8319677 Si02
#       8
#    16  16  16  32  16  16  32  16
#     4  12  24  34  52  75 105 148 190 222 258 312
#     4  10  20  35  57  82 108 144 183 223 274 321
#     4   8  16  33  57  84 108 135 176 221 273 339
#     4  10  21  36  57  81 108 143 184 226 267 323
#     4  11  21  35  53  77 114 148 174 223 284 326
#     4  10  19  36  56  81 111 136 181 228 271 320
#     4  11  22  37  52  78 112 144 186 226 269 321
#     4  10  22  35  54  75 105 149 186 226 269 315
#
# _framework density 18.628976000000002
#
# number of rings (size 3 to 8) (size 9 to 14) (size 15 to 20)
#    0.000    1.700    2.000    3.600    1.400    4.800 
#    0.000    0.000    0.000    1.200    0.000    6.300 
#    0.000    3.200    0.000    0.000    0.000    0.000 
#
# Total GULP energy -992099.471557 kJ/mol
# GULP energy per Si atom -12401.243394 kJ/mol
# Density = 1.858658 g / cm^3
# Si number density = 18.628976 Si / 1000 Ang^3
#
#
#
# Elastic Constant Matrix: (Units=GPa)
#
#
# Indices 1 2 3 4 5 6 
#
# 1 116.7173 77.4497 25.2452 0.0000 0.0000 0.0000
# 2 77.4497 116.7173 25.2452 0.0000 0.0000 0.0000
# 3 25.2452 25.2452 94.3054 0.0000 0.0000 0.0000
# 4 0.0000 0.0000 0.0000 20.0813 0.0000 0.0000
# 5 0.0000 0.0000 0.0000 0.0000 20.0813 0.0000
# 6 0.0000 0.0000 0.0000 0.0000 0.0000 31.8968
#
#
#
# Elastic Compliance Matrix: (Units=1/GPa)
#
#
# Indices 1 2 3 4 5 6 
#
# 1 0.015501 -0.009965 -0.001482 0.000000 0.000000 0.000000
# 2 -0.009965 0.015501 -0.001482 0.000000 0.000000 0.000000
# 3 -0.001482 -0.001482 0.011397 0.000000 0.000000 0.000000
# 4 0.000000 0.000000 0.000000 0.049798 0.000000 0.000000
# 5 0.000000 0.000000 0.000000 0.000000 0.049798 0.000000
# 6 0.000000 0.000000 0.000000 0.000000 0.000000 0.031351
#
#
# Mechanical properties :
#
#
# Convention : Reuss Voigt Hill
#
# Bulk Modulus (GPa) = 60.45611 64.84668 62.65139
# Shear Modulus (GPa) = 24.42392 27.73185 26.07788
#
# Velocity S-wave (km/s) = 3.62480 3.86248 3.74552
# Velocity P-wave (km/s) = 7.07404 7.40113 7.23944
#
# Compressibility (1/GPa) = 0.01654092
#
# Stress axis : x y z
#
# Youngs Moduli (GPa) = 64.51227 64.51227 87.74075
#
# Poissons Ratio (x) = 0.64289 0.13002
# Poissons Ratio (y) = 0.64289 0.13002
# Poissons Ratio (z) = 0.09560 0.09560
#
# Static dielectric constant tensor:
#      x y z
#    x 3.415480 0.000000 0.000000 
#    y 0.000000 3.415480 0.000000 
#    z 0.000000 0.000000 3.277660 
# 
# 
# High freq. dielectric constant tensor:
#      x y z
#    x 1.717010 0.000000 0.000000 
#    y 0.000000 1.717010 0.000000 
#    z 0.000000 0.000000 1.724470 
# 
# From -- ./inp_files/2355.got.cif
#   From: 2010.03.12/outbox.cif.g09.slc.cpg/sg139_2_cif.got.tgz:2355.got - 2010.04.08 09:46:31.
