data_PCOD8319331
_publ_section_title
;
Structure prediction by ZEFSAII (Michael W. Deem and Ramdas Pophale) SiO2 
 PCOD8319331
Probable space group: I 4/M M M
;
_chemical_formula_sum "Si O2"
_cell_formula_units_Z 224
_cell_length_a 22.336885
_cell_length_b 22.336885
_cell_length_c 26.219727
_cell_angle_alpha 90.000000
_cell_angle_beta 90.000000
_cell_angle_gamma 90.000000
_cell_volume 13081.977024
_symmetry_space_group_name_H-M "I 4/M M M"
_symmetry_group_IT_number 139
_symmetry_cell_setting 'tetragonal'
loop_
_space_group_symop_operation_xyz
x,y,z
-y,x,z
-x,-y,z
y,-x,z
x,-y,-z
-x,y,-z
y,x,-z
-y,-x,-z
-x,-y,-z
y,-x,-z
x,y,-z
-y,x,-z
-x,y,z
x,-y,z
-y,-x,z
y,x,z
1/2+x,1/2+y,1/2+z
1/2-y,1/2+x,1/2+z
1/2-x,1/2-y,1/2+z
1/2+y,1/2-x,1/2+z
1/2+x,1/2-y,1/2-z
1/2-x,1/2+y,1/2-z
1/2+y,1/2+x,1/2-z
1/2-y,1/2-x,1/2-z
1/2-x,1/2-y,1/2-z
1/2+y,1/2-x,1/2-z
1/2+x,1/2+y,1/2-z
1/2-y,1/2+x,1/2-z
1/2-x,1/2+y,1/2+z
1/2+x,1/2-y,1/2+z
1/2-y,1/2-x,1/2+z
1/2+y,1/2+x,1/2+z
loop_
_atom_site_type_symbol
_atom_site_label
_atom_site_fract_x
_atom_site_fract_y
_atom_site_fract_z
Si Si1 0.569856 0.335688 0.000000
Si Si2 0.434929 0.895511 0.305456
Si Si3 0.142865 0.237734 0.302464
Si Si4 0.363228 0.111725 0.403597
Si Si5 0.175101 0.271866 0.855885
Si Si6 0.931801 0.429441 0.500000
Si Si7 0.433630 0.242754 0.706024
Si Si8 0.735318 0.568177 0.099067
O O1 0.590899 0.299828 0.049684
O O2 0.500000 0.346573 0.000000
O O3 0.599582 0.400419 0.000000
O O4 0.500000 0.925704 0.314112
O O5 0.411662 0.911662 0.250000
O O6 0.390788 0.914994 0.350920
O O7 0.442328 0.825185 0.308927
O O8 0.182759 0.182759 0.281903
O O9 0.185837 0.295594 0.311420
O O10 0.089468 0.251213 0.263642
O O11 0.112198 0.218119 0.355132
O O12 0.346634 0.182844 0.400210
O O13 0.408426 0.103668 0.450022
O O14 0.305234 0.072063 0.414307
O O15 0.224492 0.224492 0.876571
O O16 0.118806 0.234161 0.832427
O O17 0.930895 0.500000 0.500000
O O18 0.000000 0.405239 0.500000
O O19 0.500000 0.274065 0.700260
O O20 0.718498 0.500000 0.113041
#
# Coordination Sequence:
#
# PCOD8319331 Si02
#       8
#    16  32  32  32  32  16  32  32
#     4  10  21  36  52  70  90 112 142 183 232 285
#     4  10  20  32  46  66  93 126 165 208 249 284
#     4  10  18  28  45  68  94 124 158 197 240 288
#     4  10  20  35  52  71  97 131 170 210 252 293
#     4   9  18  32  50  72  96 125 162 207 257 302
#     4  11  23  37  53  72  99 141 186 216 239 283
#     4  10  18  28  44  66  94 126 157 192 239 296
#     4  10  19  31  48  67  90 119 152 194 239 284
#
# _framework density 17.122793999999999
#
# number of rings (size 3 to 8) (size 9 to 14) (size 15 to 20)
#    0.000    2.071    0.000    5.571    0.000    5.357 
#    0.000    0.357    0.000    0.000    0.000    0.000 
#    0.000   12.571    0.000    0.000    0.000    0.714 
#
# Total GULP energy -1388183.790269 kJ/mol
# GULP energy per Si atom -12394.498127 kJ/mol
# Density = 1.708382 g / cm^3
# Si number density = 17.122794 Si / 1000 Ang^3
#
#
#
# Elastic Constant Matrix: (Units=GPa)
#
#
# Indices 1 2 3 4 5 6 
#
# 1 69.6332 34.3179 33.5283 0.0000 0.0000 0.0000
# 2 34.3179 69.6283 33.5267 0.0000 0.0000 0.0000
# 3 33.5283 33.5267 92.4581 0.0000 0.0000 0.0000
# 4 0.0000 0.0000 0.0000 15.6003 0.0000 0.0000
# 5 0.0000 0.0000 0.0000 0.0000 15.6011 0.0000
# 6 0.0000 0.0000 0.0000 0.0000 0.0000 13.3272
#
#
#
# Elastic Compliance Matrix: (Units=1/GPa)
#
#
# Indices 1 2 3 4 5 6 
#
# 1 0.020437 -0.007880 -0.004554 0.000000 0.000000 0.000000
# 2 -0.007880 0.020439 -0.004554 0.000000 0.000000 0.000000
# 3 -0.004554 -0.004554 0.014118 0.000000 0.000000 0.000000
# 4 0.000000 0.000000 0.000000 0.064101 0.000000 0.000000
# 5 0.000000 0.000000 0.000000 0.000000 0.064098 0.000000
# 6 0.000000 0.000000 0.000000 0.000000 0.000000 0.075034
#
#
# Mechanical properties :
#
#
# Convention : Reuss Voigt Hill
#
# Bulk Modulus (GPa) = 47.57658 48.27393 47.92525
# Shear Modulus (GPa) = 16.71068 17.59550 17.15309
#
# Velocity S-wave (km/s) = 3.12738 3.20911 3.16851
# Velocity P-wave (km/s) = 6.39426 6.47960 6.43707
#
# Compressibility (1/GPa) = 0.02101874
#
# Stress axis : x y z
#
# Youngs Moduli (GPa) = 48.93011 48.92699 70.83023
#
# Poissons Ratio (x) = 0.38556 0.32254
# Poissons Ratio (y) = 0.38559 0.32254
# Poissons Ratio (z) = 0.22281 0.22280
#
# Static dielectric constant tensor:
#      x y z
#    x 3.390850 0.000000 0.000000 
#    y 0.000000 3.390850 0.000000 
#    z 0.000000 0.000000 3.087860 
# 
# 
# High freq. dielectric constant tensor:
#      x y z
#    x 1.649400 0.000000 0.000000 
#    y 0.000000 1.649400 0.000000 
#    z 0.000000 0.000000 1.649270 
# 
# From -- ./inp_files/12255.got.cif
#   From: 2010.03.12/outbox.cif.g09.slc.cpg/sg139_7_cif.got.tgz:12255.got - 2010.04.08 09:46:31.
