data_PCOD8319403
_publ_section_title
;
Structure prediction by ZEFSAII (Michael W. Deem and Ramdas Pophale) SiO2 
 PCOD8319403
Probable space group: I 4/M M M
;
_chemical_formula_sum "Si O2"
_cell_formula_units_Z 96
_cell_length_a 22.121231
_cell_length_b 22.121231
_cell_length_c 10.464800
_cell_angle_alpha 90.000000
_cell_angle_beta 90.000000
_cell_angle_gamma 90.000000
_cell_volume 5120.937960
_symmetry_space_group_name_H-M "I 4/M M M"
_symmetry_group_IT_number 139
_symmetry_cell_setting 'tetragonal'
loop_
_space_group_symop_operation_xyz
x,y,z
-y,x,z
-x,-y,z
y,-x,z
x,-y,-z
-x,y,-z
y,x,-z
-y,-x,-z
-x,-y,-z
y,-x,-z
x,y,-z
-y,x,-z
-x,y,z
x,-y,z
-y,-x,z
y,x,z
1/2+x,1/2+y,1/2+z
1/2-y,1/2+x,1/2+z
1/2-x,1/2-y,1/2+z
1/2+y,1/2-x,1/2+z
1/2+x,1/2-y,1/2-z
1/2-x,1/2+y,1/2-z
1/2+y,1/2+x,1/2-z
1/2-y,1/2-x,1/2-z
1/2-x,1/2-y,1/2-z
1/2+y,1/2-x,1/2-z
1/2+x,1/2+y,1/2-z
1/2-y,1/2+x,1/2-z
1/2-x,1/2+y,1/2+z
1/2+x,1/2-y,1/2+z
1/2-y,1/2-x,1/2+z
1/2+y,1/2+x,1/2+z
loop_
_atom_site_type_symbol
_atom_site_label
_atom_site_fract_x
_atom_site_fract_y
_atom_site_fract_z
Si Si1 0.623436 0.219602 0.241780
Si Si2 0.570074 0.174661 0.500000
Si Si3 0.431035 0.336392 0.148568
Si Si4 0.569744 0.846840 0.000000
O O1 0.692525 0.192525 0.250000
O O2 0.593228 0.209100 0.376792
O O3 0.616546 0.291040 0.217253
O O4 0.586235 0.188674 0.128204
O O5 0.500000 0.175671 0.500000
O O6 0.590177 0.105054 0.500000
O O7 0.500000 0.333685 0.203357
O O8 0.403741 0.403741 0.168954
O O9 0.432646 0.319239 0.000000
O O10 0.500000 0.862499 0.000000
#
# Coordination Sequence:
#
# PCOD8319403 Si02
#       4
#    32  16  32  16
#     4  10  20  34  54  78 106 142 183 225 270 327
#     4  10  20  31  47  75 106 138 180 230 275 320
#     4  10  20  35  58  84 111 146 185 228 278 331
#     4  10  18  31  51  71 100 144 186 226 275 328
#
# _framework density 18.746563999999999
#
# number of rings (size 3 to 8) (size 9 to 14) (size 15 to 20)
#    0.000    2.000    1.667    3.000    0.000    1.333 
#    0.000    2.500    0.000    6.000    0.000    0.000 
#    0.000    4.000    0.000    0.000    0.000    0.000 
#
# Total GULP energy -594749.792239 kJ/mol
# GULP energy per Si atom -12390.620672 kJ/mol
# Density = 1.870390 g / cm^3
# Si number density = 18.746564 Si / 1000 Ang^3
#
#
#
# Elastic Constant Matrix: (Units=GPa)
#
#
# Indices 1 2 3 4 5 6 
#
# 1 94.1143 64.5019 24.6643 0.0000 0.0000 0.0000
# 2 64.5019 94.1143 24.6643 0.0000 0.0000 0.0000
# 3 24.6643 24.6643 112.7486 0.0000 0.0000 0.0000
# 4 0.0000 0.0000 0.0000 22.6023 0.0000 0.0000
# 5 0.0000 0.0000 0.0000 0.0000 22.6023 0.0000
# 6 0.0000 0.0000 0.0000 0.0000 0.0000 19.6463
#
#
#
# Elastic Compliance Matrix: (Units=1/GPa)
#
#
# Indices 1 2 3 4 5 6 
#
# 1 0.020267 -0.013502 -0.001480 0.000000 0.000000 0.000000
# 2 -0.013502 0.020267 -0.001480 0.000000 0.000000 0.000000
# 3 -0.001480 -0.001480 0.009517 0.000000 0.000000 0.000000
# 4 0.000000 0.000000 0.000000 0.044243 0.000000 0.000000
# 5 0.000000 0.000000 0.000000 0.000000 0.044243 0.000000
# 6 0.000000 0.000000 0.000000 0.000000 0.000000 0.050900
#
#
# Mechanical properties :
#
#
# Convention : Reuss Voigt Hill
#
# Bulk Modulus (GPa) = 58.38760 58.73759 58.56259
# Shear Modulus (GPa) = 21.92302 25.44664 23.68483
#
# Velocity S-wave (km/s) = 3.42342 3.68829 3.55832
# Velocity P-wave (km/s) = 6.84396 7.03836 6.94184
#
# Compressibility (1/GPa) = 0.01712693
#
# Stress axis : x y z
#
# Youngs Moduli (GPa) = 49.34090 49.34090 105.07815
#
# Poissons Ratio (x) = 0.66622 0.15550
# Poissons Ratio (y) = 0.66622 0.15550
# Poissons Ratio (z) = 0.07302 0.07302
#
# Static dielectric constant tensor:
#      x y z
#    x 3.450950 0.000000 0.000000 
#    y 0.000000 3.450950 0.000000 
#    z 0.000000 0.000000 3.596990 
# 
# 
# High freq. dielectric constant tensor:
#      x y z
#    x 1.720850 0.000000 0.000000 
#    y 0.000000 1.720850 0.000000 
#    z 0.000000 0.000000 1.726160 
# 
# From -- ./inp_files/1159.got.cif
#   From: 2010.03.12/outbox.cif.g09.slc.cpg/sg139_1_cif.got.tgz:1159.got - 2010.04.08 09:46:31.
