data_PCOD8319164
_publ_section_title
;
Structure prediction by ZEFSAII (Michael W. Deem and Ramdas Pophale) SiO2 
 PCOD8319164
Probable space group: P 42/N C M
;
_chemical_formula_sum "Si O2"
_cell_formula_units_Z 64
_cell_length_a 11.943228
_cell_length_b 11.943228
_cell_length_c 20.069198
_cell_angle_alpha 90.000000
_cell_angle_beta 90.000000
_cell_angle_gamma 90.000000
_cell_volume 2862.684352
_symmetry_space_group_name_H-M "P 42/N C M"
_symmetry_group_IT_number 138
_space_group.IT_coordinate_system_code '2'
_symmetry_cell_setting 'tetragonal'
loop_
_space_group_symop_operation_xyz
x,y,z
1/2-y,x,1/2+z
1/2-x,1/2-y,z
y,1/2-x,1/2+z
1/2+x,-y,1/2-z
-x,1/2+y,1/2-z
1/2+y,1/2+x,-z
-y,-x,-z
-x,-y,-z
1/2+y,-x,1/2-z
1/2+x,1/2+y,-z
-y,1/2+x,1/2-z
1/2-x,y,1/2+z
x,1/2-y,1/2+z
1/2-y,1/2-x,z
y,x,z
loop_
_atom_site_type_symbol
_atom_site_label
_atom_site_fract_x
_atom_site_fract_y
_atom_site_fract_z
Si Si1 0.119328 0.789813 0.877421
Si Si2 0.796408 0.975539 0.131169
Si Si3 0.505989 0.675957 0.493745
Si Si4 0.252294 0.066995 0.724420
O O1 0.250000 0.750000 0.878934
O O2 0.116753 0.921985 0.866337
O O3 0.050968 0.766537 0.945472
O O4 0.046467 0.735204 0.818220
O O5 0.725674 0.970825 0.199472
O O6 0.860681 0.860681 0.122050
O O7 0.717355 0.986752 0.068652
O O8 0.428639 0.571362 0.500000
O O9 0.628849 0.628849 0.469418
O O10 0.357571 0.142430 0.700097
O O11 0.137347 0.137347 0.719197
#
# Coordination Sequence:
#
# PCOD8319164 Si02
#       4
#    16  16  16  16
#     4  12  25  42  68 104 138 180 222 283 341 405
#     4  11  25  43  70 104 137 176 224 283 343 403
#     4  11  24  44  68  94 131 180 229 276 334 401
#     4  10  24  47  71  99 137 182 231 279 335 406
#
# _framework density 22.356638
#
# number of rings (size 3 to 8) (size 9 to 14) (size 15 to 20)
#    0.000    1.000    2.500    3.000    3.500    4.500 
#    0.000    0.000    0.000    0.000    0.000    0.000 
#    0.000    0.000    0.000    0.000    0.000    0.000 
#
# Total GULP energy -793218.164627 kJ/mol
# GULP energy per Si atom -12394.033822 kJ/mol
# Density = 2.230575 g / cm^3
# Si number density = 22.356638 Si / 1000 Ang^3
#
#
#
# Elastic Constant Matrix: (Units=GPa)
#
#
# Indices 1 2 3 4 5 6 
#
# 1 82.1330 6.1548 31.2199 0.0000 0.0000 0.0000
# 2 6.1548 82.1400 31.2227 0.0000 0.0000 0.0000
# 3 31.2199 31.2227 128.5730 0.0000 0.0000 0.0000
# 4 0.0000 0.0000 0.0000 43.5077 0.0000 0.0000
# 5 0.0000 0.0000 0.0000 0.0000 43.5085 0.0000
# 6 0.0000 0.0000 0.0000 0.0000 0.0000 31.9027
#
#
#
# Elastic Compliance Matrix: (Units=1/GPa)
#
#
# Indices 1 2 3 4 5 6 
#
# 1 0.013418 0.000257 -0.003321 0.000000 0.000000 0.000000
# 2 0.000257 0.013417 -0.003321 0.000000 0.000000 0.000000
# 3 -0.003321 -0.003321 0.009390 0.000000 0.000000 0.000000
# 4 0.000000 0.000000 0.000000 0.022984 0.000000 0.000000
# 5 0.000000 0.000000 0.000000 0.000000 0.022984 0.000000
# 6 0.000000 0.000000 0.000000 0.000000 0.000000 0.031345
#
#
# Mechanical properties :
#
#
# Convention : Reuss Voigt Hill
#
# Bulk Modulus (GPa) = 42.63090 47.78230 45.20660
# Shear Modulus (GPa) = 37.27795 38.73371 38.00583
#
# Velocity S-wave (km/s) = 4.08784 4.16689 4.12755
# Velocity P-wave (km/s) = 6.43355 6.67606 6.55593
#
# Compressibility (1/GPa) = 0.02345717
#
# Stress axis : x y z
#
# Youngs Moduli (GPa) = 74.52489 74.53055 106.49230
#
# Poissons Ratio (x) = -0.01914 0.35362
# Poissons Ratio (y) = -0.01913 0.35362
# Poissons Ratio (z) = 0.24747 0.24749
#
# Static dielectric constant tensor:
#      x y z
#    x 4.239490 0.000000 0.000000 
#    y 0.000000 4.239490 0.000000 
#    z 0.000000 0.000000 3.324300 
# 
# 
# High freq. dielectric constant tensor:
#      x y z
#    x 1.885230 0.000000 0.000000 
#    y 0.000000 1.885230 0.000000 
#    z 0.000000 0.000000 1.888480 
# 
# From -- ./inp_files/5817.got.cif
#   From: 2010.03.12/outbox.cif.g09.slc.cpg/sg138_3_cif.got.tgz:5817.got - 2010.04.08 09:41:05.
