data_PCOD8319243
_publ_section_title
;
Structure prediction by ZEFSAII (Michael W. Deem and Ramdas Pophale) SiO2 
 PCOD8319243
Probable space group: P 42/N C M
;
_chemical_formula_sum "Si O2"
_cell_formula_units_Z 112
_cell_length_a 13.625003
_cell_length_b 13.625003
_cell_length_c 34.704611
_cell_angle_alpha 90.000000
_cell_angle_beta 90.000000
_cell_angle_gamma 90.000000
_cell_volume 6442.588514
_symmetry_space_group_name_H-M "P 42/N C M"
_symmetry_group_IT_number 138
_space_group.IT_coordinate_system_code '2'
_symmetry_cell_setting 'tetragonal'
loop_
_space_group_symop_operation_xyz
x,y,z
1/2-y,x,1/2+z
1/2-x,1/2-y,z
y,1/2-x,1/2+z
1/2+x,-y,1/2-z
-x,1/2+y,1/2-z
1/2+y,1/2+x,-z
-y,-x,-z
-x,-y,-z
1/2+y,-x,1/2-z
1/2+x,1/2+y,-z
-y,1/2+x,1/2-z
1/2-x,y,1/2+z
x,1/2-y,1/2+z
1/2-y,1/2-x,z
y,x,z
loop_
_atom_site_type_symbol
_atom_site_label
_atom_site_fract_x
_atom_site_fract_y
_atom_site_fract_z
Si Si1 0.243843 0.408270 0.883304
Si Si2 0.355349 0.519273 0.082148
Si Si3 0.337055 0.502607 0.950653
Si Si4 0.534744 0.808943 0.693455
Si Si5 0.762535 0.093074 0.758347
Si Si6 0.088952 0.246349 0.521420
Si Si7 0.124195 0.534138 0.668807
O O1 0.145742 0.354259 0.897327
O O2 0.335533 0.335533 0.882296
O O3 0.266892 0.493334 0.913546
O O4 0.229014 0.448010 0.840086
O O5 0.446283 0.446283 0.085046
O O6 0.391699 0.609851 0.054751
O O7 0.261456 0.467580 0.062144
O O8 0.329370 0.549399 0.126069
O O9 0.417682 0.417682 0.953057
O O10 0.266759 0.491856 0.988010
O O11 0.633541 0.866460 0.705128
O O12 0.499735 0.750107 0.730665
O O13 0.455849 0.883262 0.676050
O O14 0.660882 0.152801 0.760191
O O15 0.788889 0.050029 0.800301
O O16 0.175804 0.324197 0.517401
O O17 0.136888 0.136888 0.519345
O O18 0.073242 0.426759 0.673373
#
# Coordination Sequence:
#
# PCOD8319243 Si02
#       7
#    16  16  16  16  16  16  16
#     4   9  15  22  35  57  85 113 140 176 221 264
#     4   9  15  24  38  54  75 110 152 184 216 268
#     4   9  14  22  35  53  77 111 150 182 217 268
#     4   9  16  28  43  60  84 112 143 175 216 268
#     4   9  18  31  47  66  87 113 146 183 225 264
#     4   9  16  23  32  51  81 114 147 186 229 268
#     4   9  16  28  45  62  82 113 149 181 217 265
#
# _framework density 17.384315999999998
#
# number of rings (size 3 to 8) (size 9 to 14) (size 15 to 20)
#    0.000    3.000    1.429    0.857    0.000    4.000 
#    0.000    0.714    0.000    0.857    0.000    0.000 
#    0.000    1.143    1.143    2.714    0.857    2.857 
#
# Total GULP energy -1387755.771323 kJ/mol
# GULP energy per Si atom -12390.676530 kJ/mol
# Density = 1.734475 g / cm^3
# Si number density = 17.384316 Si / 1000 Ang^3
#
#
#
# Elastic Constant Matrix: (Units=GPa)
#
#
# Indices 1 2 3 4 5 6 
#
# 1 39.6873 25.2970 40.8209 0.0000 0.0000 0.0000
# 2 25.2970 39.6873 40.8209 0.0000 0.0000 0.0000
# 3 40.8209 40.8209 134.7649 0.0000 0.0000 0.0000
# 4 0.0000 0.0000 0.0000 19.3774 0.0000 0.0000
# 5 0.0000 0.0000 0.0000 0.0000 19.3774 0.0000
# 6 0.0000 0.0000 0.0000 0.0000 0.0000 20.4635
#
#
#
# Elastic Compliance Matrix: (Units=1/GPa)
#
#
# Indices 1 2 3 4 5 6 
#
# 1 0.047166 -0.022325 -0.007525 0.000000 0.000000 0.000000
# 2 -0.022325 0.047166 -0.007525 0.000000 0.000000 0.000000
# 3 -0.007525 -0.007525 0.011979 0.000000 0.000000 0.000000
# 4 0.000000 0.000000 0.000000 0.051607 0.000000 0.000000
# 5 0.000000 0.000000 0.000000 0.000000 0.051607 0.000000
# 6 0.000000 0.000000 0.000000 0.000000 0.000000 0.048867
#
#
# Mechanical properties :
#
#
# Convention : Reuss Voigt Hill
#
# Bulk Modulus (GPa) = 31.68192 47.55747 39.61969
# Shear Modulus (GPa) = 14.54919 18.99037 16.76978
#
# Velocity S-wave (km/s) = 2.89609 3.30871 3.10925
# Velocity P-wave (km/s) = 5.42652 6.48172 5.97745
#
# Compressibility (1/GPa) = 0.03156375
#
# Stress axis : x y z
#
# Youngs Moduli (GPa) = 21.20149 21.20149 83.48027
#
# Poissons Ratio (x) = 0.47331 0.62817
# Poissons Ratio (y) = 0.47331 0.62817
# Poissons Ratio (z) = 0.15954 0.15954
#
# Static dielectric constant tensor:
#      x y z
#    x 2.985110 0.000000 0.000000 
#    y 0.000000 2.985110 0.000000 
#    z 0.000000 0.000000 3.440030 
# 
# 
# High freq. dielectric constant tensor:
#      x y z
#    x 1.629850 0.000000 0.000000 
#    y 0.000000 1.629850 0.000000 
#    z 0.000000 0.000000 1.683140 
# 
# From -- ./inp_files/8239.got.cif
#   From: 2010.03.12/outbox.cif.g09.slc.cpg/sg138_5_cif.got.tgz:8239.got - 2010.04.08 09:41:05.
