data_PCOD8319914
_publ_section_title
;
Structure prediction by ZEFSAII (Michael W. Deem and Ramdas Pophale) SiO2 
 PCOD8319914
Probable space group: I 4/M M M
;
_chemical_formula_sum "Si O2"
_cell_formula_units_Z 176
_cell_length_a 23.616325
_cell_length_b 23.616325
_cell_length_c 16.582746
_cell_angle_alpha 90.000000
_cell_angle_beta 90.000000
_cell_angle_gamma 90.000000
_cell_volume 9248.708301
_symmetry_space_group_name_H-M "I 4/M M M"
_symmetry_group_IT_number 139
_symmetry_cell_setting 'tetragonal'
loop_
_space_group_symop_operation_xyz
x,y,z
-y,x,z
-x,-y,z
y,-x,z
x,-y,-z
-x,y,-z
y,x,-z
-y,-x,-z
-x,-y,-z
y,-x,-z
x,y,-z
-y,x,-z
-x,y,z
x,-y,z
-y,-x,z
y,x,z
1/2+x,1/2+y,1/2+z
1/2-y,1/2+x,1/2+z
1/2-x,1/2-y,1/2+z
1/2+y,1/2-x,1/2+z
1/2+x,1/2-y,1/2-z
1/2-x,1/2+y,1/2-z
1/2+y,1/2+x,1/2-z
1/2-y,1/2-x,1/2-z
1/2-x,1/2-y,1/2-z
1/2+y,1/2-x,1/2-z
1/2+x,1/2+y,1/2-z
1/2-y,1/2+x,1/2-z
1/2-x,1/2+y,1/2+z
1/2+x,1/2-y,1/2+z
1/2-y,1/2-x,1/2+z
1/2+y,1/2+x,1/2+z
loop_
_atom_site_type_symbol
_atom_site_label
_atom_site_fract_x
_atom_site_fract_y
_atom_site_fract_z
Si Si1 0.435096 0.935059 0.344350
Si Si2 0.936531 0.846378 0.594019
Si Si3 0.657117 0.433581 0.500000
Si Si4 0.767704 0.860529 0.311024
Si Si5 0.656874 0.850840 0.589292
Si Si6 0.725690 0.634151 0.623833
O O1 0.500000 0.920878 0.367609
O O2 0.425445 0.925445 0.250000
O O3 0.393743 0.894072 0.392845
O O4 0.421211 0.000000 0.367393
O O5 0.931973 0.833476 0.500000
O O6 0.901991 0.901991 0.618984
O O7 0.912933 0.792025 0.639370
O O8 0.000000 0.857748 0.622148
O O9 0.647658 0.500000 0.500000
O O10 0.595675 0.404326 0.500000
O O11 0.690784 0.415595 0.419287
O O12 0.802926 0.802926 0.327295
O O13 0.703947 0.852227 0.340924
O O14 0.769537 0.878452 0.218432
O O15 0.681238 0.865510 0.500000
O O16 0.633453 0.787449 0.585462
O O17 0.694324 0.694324 0.608310
#
# Coordination Sequence:
#
# PCOD8319914 Si02
#       6
#    32  32  16  32  32  32
#     4   9  20  40  61  79 105 144 190 240 288 333
#     4   9  18  33  52  77 110 146 186 231 279 334
#     4  10  22  41  64  90 121 155 193 243 298 350
#     4  10  21  36  57  82 112 151 189 230 285 341
#     4  12  23  35  57  87 116 150 190 235 282 344
#     4  10  21  39  59  83 116 149 185 234 288 341
#
# _framework density 19.029685000000001
#
# number of rings (size 3 to 8) (size 9 to 14) (size 15 to 20)
#    0.000    2.000    0.909    3.273    0.000    6.455 
#    0.000    1.818    0.000    0.000    0.000    5.091 
#    0.000    0.000    0.000    0.000    0.000    0.000 
#
# Total GULP energy -1091289.705545 kJ/mol
# GULP energy per Si atom -12401.019381 kJ/mol
# Density = 1.898637 g / cm^3
# Si number density = 19.029685 Si / 1000 Ang^3
#
#
#
# Elastic Constant Matrix: (Units=GPa)
#
#
# Indices 1 2 3 4 5 6 
#
# 1 71.3270 108.2768 49.8897 0.0000 0.0000 0.0000
# 2 108.2768 71.3292 49.8905 0.0000 0.0000 0.0000
# 3 49.8897 49.8905 75.3513 0.0000 0.0000 0.0000
# 4 0.0000 0.0000 0.0000 23.1158 0.0000 0.0000
# 5 0.0000 0.0000 0.0000 0.0000 23.1159 0.0000
# 6 0.0000 0.0000 0.0000 0.0000 0.0000 22.9980
#
#
#
# Elastic Compliance Matrix: (Units=1/GPa)
#
#
# Indices 1 2 3 4 5 6 
#
# 1 -0.009129 0.017936 -0.005831 0.000000 0.000000 0.000000
# 2 0.017936 -0.009128 -0.005831 0.000000 0.000000 0.000000
# 3 -0.005831 -0.005831 0.020993 0.000000 0.000000 0.000000
# 4 0.000000 0.000000 0.000000 0.043260 0.000000 0.000000
# 5 0.000000 0.000000 0.000000 0.000000 0.043260 0.000000
# 6 0.000000 0.000000 0.000000 0.000000 0.000000 0.043482
#
#
# Mechanical properties :
#
#
# Convention : Reuss Voigt Hill
#
# Bulk Modulus (GPa) = 65.43486 70.45795 67.94640
# Shear Modulus (GPa) = 39.90855 14.50932 27.20893
#
# Velocity S-wave (km/s) = 4.58446 2.76426 3.78539
# Velocity P-wave (km/s) = 7.90464 6.87705 7.40868
#
# Compressibility (1/GPa) = 0.01528237
#
# Stress axis : x y z
#
# Youngs Moduli (GPa) = -109.54455 -109.54828 47.63468
#
# Poissons Ratio (x) = 1.96486 0.27778
# Poissons Ratio (y) = 1.96479 0.27778
# Poissons Ratio (z) = -0.63880 -0.63882
#
# Static dielectric constant tensor:
#      x y z
#    x 3.481430 0.000000 0.000000 
#    y 0.000000 3.481430 0.000000 
#    z 0.000000 0.000000 3.595930 
# 
# 
# High freq. dielectric constant tensor:
#      x y z
#    x 1.734920 0.000000 0.000000 
#    y 0.000000 1.734920 0.000000 
#    z 0.000000 0.000000 1.749160 
# 
# From -- ./inp_files/6141.got.cif
#   From: 2010.03.12/outbox.cif.g09.slc.cpg/sg139_4_cif.got.tgz:6141.got - 2010.04.08 09:46:31.
