data_PCOD8319931
_publ_section_title
;
Structure prediction by ZEFSAII (Michael W. Deem and Ramdas Pophale) SiO2 
 PCOD8319931
Probable space group: I 4/M M M
;
_chemical_formula_sum "Si O2"
_cell_formula_units_Z 160
_cell_length_a 21.570575
_cell_length_b 21.570575
_cell_length_c 18.163710
_cell_angle_alpha 90.000000
_cell_angle_beta 90.000000
_cell_angle_gamma 90.000000
_cell_volume 8451.387283
_symmetry_space_group_name_H-M "I 4/M M M"
_symmetry_group_IT_number 139
_symmetry_cell_setting 'tetragonal'
loop_
_space_group_symop_operation_xyz
x,y,z
-y,x,z
-x,-y,z
y,-x,z
x,-y,-z
-x,y,-z
y,x,-z
-y,-x,-z
-x,-y,-z
y,-x,-z
x,y,-z
-y,x,-z
-x,y,z
x,-y,z
-y,-x,z
y,x,z
1/2+x,1/2+y,1/2+z
1/2-y,1/2+x,1/2+z
1/2-x,1/2-y,1/2+z
1/2+y,1/2-x,1/2+z
1/2+x,1/2-y,1/2-z
1/2-x,1/2+y,1/2-z
1/2+y,1/2+x,1/2-z
1/2-y,1/2-x,1/2-z
1/2-x,1/2-y,1/2-z
1/2+y,1/2-x,1/2-z
1/2+x,1/2+y,1/2-z
1/2-y,1/2+x,1/2-z
1/2-x,1/2+y,1/2+z
1/2+x,1/2-y,1/2+z
1/2-y,1/2-x,1/2+z
1/2+y,1/2+x,1/2+z
loop_
_atom_site_type_symbol
_atom_site_label
_atom_site_fract_x
_atom_site_fract_y
_atom_site_fract_z
Si Si1 0.727944 0.727944 0.414592
Si Si2 0.330559 0.330559 0.085014
Si Si3 0.747568 0.571847 0.830699
Si Si4 0.000000 0.626522 0.914013
Si Si5 0.788321 0.884634 0.825013
Si Si6 0.427866 0.113265 0.826764
Si Si7 0.771035 0.000000 0.085911
O O1 0.714194 0.714194 0.500000
O O2 0.779039 0.779039 0.403482
O O3 0.751457 0.665196 0.373416
O O4 0.392879 0.304444 0.121900
O O5 0.344513 0.344513 0.000000
O O6 0.728803 0.500000 0.833871
O O7 0.749065 0.594646 0.746467
O O8 0.817626 0.582434 0.860632
O O9 0.937491 0.596016 0.883815
O O10 0.000000 0.698600 0.893427
O O11 0.000000 0.614880 0.000000
O O12 0.853517 0.853517 0.800551
O O13 0.803972 0.941110 0.878403
O O14 0.500000 0.101704 0.810464
O O15 0.391899 0.108102 0.750000
O O16 0.783620 0.000000 0.000000
#
# Coordination Sequence:
#
# PCOD8319931 Si02
#       7
#    16  16  32  16  32  32  16
#     4   9  21  37  57  91 130 163 200 249 310 368
#     4  11  25  43  65  92 120 161 208 262 328 382
#     4  11  24  42  64  93 126 159 207 265 314 372
#     4  11  25  40  59  86 121 166 213 258 305 360
#     4  10  21  37  61  91 122 162 206 248 308 368
#     4  11  23  38  59  85 121 166 211 253 300 358
#     4  11  22  37  58  92 131 165 203 252 306 374
#
# _framework density 18.931802999999999
#
# number of rings (size 3 to 8) (size 9 to 14) (size 15 to 20)
#    0.600    0.800    3.000    2.100    5.600    2.800 
#    0.000    2.000    0.000    0.600    0.000    1.400 
#    0.000    0.000    0.000    0.000    0.000    0.000 
#
# Total GULP energy -991905.399236 kJ/mol
# GULP energy per Si atom -12398.817490 kJ/mol
# Density = 1.888871 g / cm^3
# Si number density = 18.931803 Si / 1000 Ang^3
#
#
#
# Elastic Constant Matrix: (Units=GPa)
#
#
# Indices 1 2 3 4 5 6 
#
# 1 102.5356 52.3578 47.6662 0.0000 0.0000 0.0000
# 2 52.3578 102.5351 47.6663 0.0000 0.0000 0.0000
# 3 47.6662 47.6663 108.8257 0.0000 0.0000 0.0000
# 4 0.0000 0.0000 0.0000 29.6832 0.0000 0.0000
# 5 0.0000 0.0000 0.0000 0.0000 29.6833 0.0000
# 6 0.0000 0.0000 0.0000 0.0000 0.0000 28.5611
#
#
#
# Elastic Compliance Matrix: (Units=1/GPa)
#
#
# Indices 1 2 3 4 5 6 
#
# 1 0.014384 -0.005545 -0.003871 0.000000 0.000000 0.000000
# 2 -0.005545 0.014384 -0.003872 0.000000 0.000000 0.000000
# 3 -0.003871 -0.003872 0.012580 0.000000 0.000000 0.000000
# 4 0.000000 0.000000 0.000000 0.033689 0.000000 0.000000
# 5 0.000000 0.000000 0.000000 0.000000 0.033689 0.000000
# 6 0.000000 0.000000 0.000000 0.000000 0.000000 0.035013
#
#
# Mechanical properties :
#
#
# Convention : Reuss Voigt Hill
#
# Bulk Modulus (GPa) = 67.69433 67.69745 67.69589
# Shear Modulus (GPa) = 28.53236 28.66592 28.59914
#
# Velocity S-wave (km/s) = 3.88637 3.89545 3.89091
# Velocity P-wave (km/s) = 7.48151 7.48792 7.48472
#
# Compressibility (1/GPa) = 0.01477229
#
# Stress axis : x y z
#
# Youngs Moduli (GPa) = 69.52177 69.52120 79.48841
#
# Poissons Ratio (x) = 0.38551 0.30773
# Poissons Ratio (y) = 0.38551 0.30774
# Poissons Ratio (z) = 0.26915 0.26915
#
# Static dielectric constant tensor:
#      x y z
#    x 3.499400 0.000000 0.000000 
#    y 0.000000 3.499410 0.000000 
#    z 0.000000 0.000000 3.450360 
# 
# 
# High freq. dielectric constant tensor:
#      x y z
#    x 1.730730 0.000000 0.000000 
#    y 0.000000 1.730730 0.000000 
#    z 0.000000 0.000000 1.738260 
# 
# From -- ./inp_files/8525.got.cif
#   From: 2010.03.12/outbox.cif.g09.slc.cpg/sg139_5_cif.got.tgz:8525.got - 2010.04.08 09:46:31.
