data_PCOD8319496
_publ_section_title
;
Structure prediction by ZEFSAII (Michael W. Deem and Ramdas Pophale) SiO2 
 PCOD8319496
Probable space group: I 4/M M M
;
_chemical_formula_sum "Si O2"
_cell_formula_units_Z 144
_cell_length_a 17.087348
_cell_length_b 17.087348
_cell_length_c 27.768013
_cell_angle_alpha 90.000000
_cell_angle_beta 90.000000
_cell_angle_gamma 90.000000
_cell_volume 8107.633951
_symmetry_space_group_name_H-M "I 4/M M M"
_symmetry_group_IT_number 139
_symmetry_cell_setting 'tetragonal'
loop_
_space_group_symop_operation_xyz
x,y,z
-y,x,z
-x,-y,z
y,-x,z
x,-y,-z
-x,y,-z
y,x,-z
-y,-x,-z
-x,-y,-z
y,-x,-z
x,y,-z
-y,x,-z
-x,y,z
x,-y,z
-y,-x,z
y,x,z
1/2+x,1/2+y,1/2+z
1/2-y,1/2+x,1/2+z
1/2-x,1/2-y,1/2+z
1/2+y,1/2-x,1/2+z
1/2+x,1/2-y,1/2-z
1/2-x,1/2+y,1/2-z
1/2+y,1/2+x,1/2-z
1/2-y,1/2-x,1/2-z
1/2-x,1/2-y,1/2-z
1/2+y,1/2-x,1/2-z
1/2+x,1/2+y,1/2-z
1/2-y,1/2+x,1/2-z
1/2-x,1/2+y,1/2+z
1/2+x,1/2-y,1/2+z
1/2-y,1/2-x,1/2+z
1/2+y,1/2+x,1/2+z
loop_
_atom_site_type_symbol
_atom_site_label
_atom_site_fract_x
_atom_site_fract_y
_atom_site_fract_z
Si Si1 0.086910 0.210758 0.168637
Si Si2 0.202965 0.333582 0.590944
Si Si3 0.711769 0.088076 0.733180
Si Si4 0.726031 0.407291 0.500000
Si Si5 0.407997 0.280584 0.130312
O O1 0.136825 0.136825 0.151978
O O2 0.115048 0.287532 0.139455
O O3 0.093679 0.222628 0.225637
O O4 0.000000 0.190572 0.152492
O O5 0.265463 0.265463 0.590434
O O6 0.217077 0.388540 0.544942
O O7 0.118701 0.289295 0.593617
O O8 0.639893 0.139893 0.750000
O O9 0.752149 0.115187 0.683900
O O10 0.679801 0.000000 0.727804
O O11 0.703358 0.500000 0.500000
O O12 0.646513 0.353488 0.500000
O O13 0.500000 0.296788 0.123764
O O14 0.361293 0.361293 0.119963
#
# Coordination Sequence:
#
# PCOD8319496 Si02
#       5
#    32  32  32  16  32
#     4  10  19  30  47  71 100 135 172 210 251 297
#     4   9  18  33  53  74 100 136 176 210 247 303
#     4  10  19  31  49  73 103 138 175 213 255 306
#     4  10  20  35  57  83 110 140 174 214 258 304
#     4  10  20  34  54  79 105 135 171 213 261 311
#
# _framework density 17.761039
#
# number of rings (size 3 to 8) (size 9 to 14) (size 15 to 20)
#    0.000    2.222    2.222    1.333    0.000    1.667 
#    0.000    0.556    0.000   11.333    0.000    0.000 
#    0.000    4.444    0.000    0.000    0.000    0.000 
#
# Total GULP energy -892232.986099 kJ/mol
# GULP energy per Si atom -12392.124807 kJ/mol
# Density = 1.772061 g / cm^3
# Si number density = 17.761039 Si / 1000 Ang^3
#
#
#
# Elastic Constant Matrix: (Units=GPa)
#
#
# Indices 1 2 3 4 5 6 
#
# 1 99.3372 64.7252 26.7715 0.0000 0.0000 0.0000
# 2 64.7252 99.3369 26.7714 0.0000 0.0000 0.0000
# 3 26.7715 26.7714 70.9167 0.0000 0.0000 0.0000
# 4 0.0000 0.0000 0.0000 21.2514 0.0000 0.0000
# 5 0.0000 0.0000 0.0000 0.0000 21.2515 0.0000
# 6 0.0000 0.0000 0.0000 0.0000 0.0000 20.9171
#
#
#
# Elastic Compliance Matrix: (Units=1/GPa)
#
#
# Indices 1 2 3 4 5 6 
#
# 1 0.017922 -0.010970 -0.002624 0.000000 0.000000 0.000000
# 2 -0.010970 0.017922 -0.002624 0.000000 0.000000 0.000000
# 3 -0.002624 -0.002624 0.016082 0.000000 0.000000 0.000000
# 4 0.000000 0.000000 0.000000 0.047056 0.000000 0.000000
# 5 0.000000 0.000000 0.000000 0.000000 0.047055 0.000000
# 6 0.000000 0.000000 0.000000 0.000000 0.000000 0.047808
#
#
# Mechanical properties :
#
#
# Convention : Reuss Voigt Hill
#
# Bulk Modulus (GPa) = 51.31199 56.23632 53.77416
# Shear Modulus (GPa) = 21.47966 22.77220 22.12593
#
# Velocity S-wave (km/s) = 3.48137 3.58459 3.53336
# Velocity P-wave (km/s) = 6.71661 6.99027 6.85480
#
# Compressibility (1/GPa) = 0.01948862
#
# Stress axis : x y z
#
# Youngs Moduli (GPa) = 55.79813 55.79801 62.17966
#
# Poissons Ratio (x) = 0.61211 0.16318
# Poissons Ratio (y) = 0.61211 0.16318
# Poissons Ratio (z) = 0.14643 0.14643
#
# Static dielectric constant tensor:
#      x y z
#    x 3.243040 0.000000 0.000000 
#    y 0.000000 3.243040 0.000000 
#    z 0.000000 0.000000 3.527060 
# 
# 
# High freq. dielectric constant tensor:
#      x y z
#    x 1.676040 0.000000 0.000000 
#    y 0.000000 1.676040 0.000000 
#    z 0.000000 0.000000 1.682390 
# 
# From -- ./inp_files/11447.got.cif
#   From: 2010.03.12/outbox.cif.g09.slc.cpg/sg139_6_cif.got.tgz:11447.got - 2010.04.08 09:46:31.
