data_PCOD8319426
_publ_section_title
;
Structure prediction by ZEFSAII (Michael W. Deem and Ramdas Pophale) SiO2 
 PCOD8319426
Probable space group: I 4/M M M
;
_chemical_formula_sum "Si O2"
_cell_formula_units_Z 128
_cell_length_a 19.576701
_cell_length_b 19.576701
_cell_length_c 17.805960
_cell_angle_alpha 90.000000
_cell_angle_beta 90.000000
_cell_angle_gamma 90.000000
_cell_volume 6824.084706
_symmetry_space_group_name_H-M "I 4/M M M"
_symmetry_group_IT_number 139
_symmetry_cell_setting 'tetragonal'
loop_
_space_group_symop_operation_xyz
x,y,z
-y,x,z
-x,-y,z
y,-x,z
x,-y,-z
-x,y,-z
y,x,-z
-y,-x,-z
-x,-y,-z
y,-x,-z
x,y,-z
-y,x,-z
-x,y,z
x,-y,z
-y,-x,z
y,x,z
1/2+x,1/2+y,1/2+z
1/2-y,1/2+x,1/2+z
1/2-x,1/2-y,1/2+z
1/2+y,1/2-x,1/2+z
1/2+x,1/2-y,1/2-z
1/2-x,1/2+y,1/2-z
1/2+y,1/2+x,1/2-z
1/2-y,1/2-x,1/2-z
1/2-x,1/2-y,1/2-z
1/2+y,1/2-x,1/2-z
1/2+x,1/2+y,1/2-z
1/2-y,1/2+x,1/2-z
1/2-x,1/2+y,1/2+z
1/2+x,1/2-y,1/2+z
1/2-y,1/2-x,1/2+z
1/2+y,1/2+x,1/2+z
loop_
_atom_site_type_symbol
_atom_site_label
_atom_site_fract_x
_atom_site_fract_y
_atom_site_fract_z
Si Si1 0.889541 0.000000 0.088280
Si Si2 0.239780 0.000000 0.349309
Si Si3 0.500000 0.106862 0.088972
Si Si4 0.247906 0.864214 0.413898
Si Si5 0.500000 0.246623 0.673355
Si Si6 0.366010 0.890624 0.836305
O O1 0.932624 0.067377 0.111332
O O2 0.817027 0.000000 0.128706
O O3 0.876064 0.000000 0.000000
O O4 0.206755 0.930614 0.382295
O O5 0.316834 0.000000 0.379424
O O6 0.234908 0.000000 0.260468
O O7 0.429970 0.073446 0.120347
O O8 0.500000 0.101992 0.000000
O O9 0.268244 0.877102 0.500000
O O10 0.200770 0.799231 0.403960
O O11 0.315680 0.849579 0.366964
O O12 0.566186 0.202514 0.651730
O O13 0.386804 0.886804 0.750000
#
# Coordination Sequence:
#
# PCOD8319426 Si02
#       6
#    16  16  16  32  16  32
#     4   9  22  46  67  82 111 157 202 250 313 371
#     4  10  18  37  56  84 115 152 188 235 288 357
#     4  10  20  37  60  79 113 165 201 229 280 351
#     4  10  21  37  60  86 115 156 198 239 293 356
#     4  12  23  35  62  94 117 150 204 246 303 350
#     4  11  20  38  55  85 123 159 194 240 289 349
#
# _framework density 18.757096000000001
#
# number of rings (size 3 to 8) (size 9 to 14) (size 15 to 20)
#    0.000    1.625    5.000    3.750    0.000    5.000 
#    0.000    4.375    0.000    0.375    0.000    1.750 
#    0.000    0.000    0.000    0.000    0.000    0.000 
#
# Total GULP energy -793334.439632 kJ/mol
# GULP energy per Si atom -12395.850619 kJ/mol
# Density = 1.871440 g / cm^3
# Si number density = 18.757096 Si / 1000 Ang^3
#
#
#
# Elastic Constant Matrix: (Units=GPa)
#
#
# Indices 1 2 3 4 5 6 
#
# 1 107.1497 53.2654 55.1723 0.0000 0.0000 0.0000
# 2 53.2654 107.1497 55.1723 0.0000 0.0000 0.0000
# 3 55.1723 55.1723 130.0864 0.0000 0.0000 0.0000
# 4 0.0000 0.0000 0.0000 24.1449 0.0000 0.0000
# 5 0.0000 0.0000 0.0000 0.0000 24.1449 0.0000
# 6 0.0000 0.0000 0.0000 0.0000 0.0000 11.9617
#
#
#
# Elastic Compliance Matrix: (Units=1/GPa)
#
#
# Indices 1 2 3 4 5 6 
#
# 1 0.013680 -0.004878 -0.003733 0.000000 0.000000 0.000000
# 2 -0.004878 0.013680 -0.003733 0.000000 0.000000 0.000000
# 3 -0.003733 -0.003733 0.010854 0.000000 0.000000 0.000000
# 4 0.000000 0.000000 0.000000 0.041417 0.000000 0.000000
# 5 0.000000 0.000000 0.000000 0.000000 0.041417 0.000000
# 6 0.000000 0.000000 0.000000 0.000000 0.000000 0.083600
#
#
# Mechanical properties :
#
#
# Convention : Reuss Voigt Hill
#
# Bulk Modulus (GPa) = 73.93675 74.62288 74.27981
# Shear Modulus (GPa) = 21.38178 24.10200 22.74189
#
# Velocity S-wave (km/s) = 3.37995 3.58851 3.48579
# Velocity P-wave (km/s) = 7.39835 7.55249 7.47582
#
# Compressibility (1/GPa) = 0.01352507
#
# Stress axis : x y z
#
# Youngs Moduli (GPa) = 73.09971 73.09971 92.13498
#
# Poissons Ratio (x) = 0.35660 0.34393
# Poissons Ratio (y) = 0.35660 0.34393
# Poissons Ratio (z) = 0.27288 0.27288
#
# Static dielectric constant tensor:
#      x y z
#    x 3.794000 0.000000 0.000000 
#    y 0.000000 3.794000 0.000000 
#    z 0.000000 0.000000 3.593220 
# 
# 
# High freq. dielectric constant tensor:
#      x y z
#    x 1.722900 0.000000 0.000000 
#    y 0.000000 1.722900 0.000000 
#    z 0.000000 0.000000 1.742200 
# 
# From -- ./inp_files/5522.got.cif
#   From: 2010.03.12/outbox.cif.g09.slc.cpg/sg139_3_cif.got.tgz:5522.got - 2010.04.08 09:46:31.
