data_PCOD8319137
_publ_section_title
;
Structure prediction by ZEFSAII (Michael W. Deem and Ramdas Pophale) SiO2 
 PCOD8319137
Probable space group: P 42/N C M
;
_chemical_formula_sum "Si O2"
_cell_formula_units_Z 64
_cell_length_a 18.527025
_cell_length_b 18.527025
_cell_length_c 8.538860
_cell_angle_alpha 90.000000
_cell_angle_beta 90.000000
_cell_angle_gamma 90.000000
_cell_volume 2930.969291
_symmetry_space_group_name_H-M "P 42/N C M"
_symmetry_group_IT_number 138
_space_group.IT_coordinate_system_code '2'
_symmetry_cell_setting 'tetragonal'
loop_
_space_group_symop_operation_xyz
x,y,z
1/2-y,x,1/2+z
1/2-x,1/2-y,z
y,1/2-x,1/2+z
1/2+x,-y,1/2-z
-x,1/2+y,1/2-z
1/2+y,1/2+x,-z
-y,-x,-z
-x,-y,-z
1/2+y,-x,1/2-z
1/2+x,1/2+y,-z
-y,1/2+x,1/2-z
1/2-x,y,1/2+z
x,1/2-y,1/2+z
1/2-y,1/2-x,z
y,x,z
loop_
_atom_site_type_symbol
_atom_site_label
_atom_site_fract_x
_atom_site_fract_y
_atom_site_fract_z
Si Si1 0.845208 0.537066 0.828304
Si Si2 0.991781 0.287374 0.846880
Si Si3 0.429335 0.952498 0.675835
Si Si4 0.262526 0.837993 0.353978
O O1 0.890977 0.609024 0.796649
O O2 0.771054 0.545175 0.731235
O O3 0.891791 0.466478 0.783537
O O4 0.825564 0.531207 0.009971
O O5 0.968813 0.347903 0.723729
O O6 0.921771 0.240792 0.896757
O O7 0.423477 0.923477 0.500000
O O8 0.473256 0.026745 0.684107
O O9 0.295069 0.795069 0.500000
O O10 0.310453 0.818618 0.197154
#
# Coordination Sequence:
#
# PCOD8319137 Si02
#       4
#    16  16  16  16
#     4  11  25  43  66  98 130 167 220 278 336 399
#     4  12  23  40  66  90 125 172 221 270 327 396
#     4  10  22  41  65  95 130 166 208 261 321 388
#     4  11  23  36  52  83 127 168 203 245 304 380
#
# _framework density 21.835778999999999
#
# number of rings (size 3 to 8) (size 9 to 14) (size 15 to 20)
#    0.000    1.000    0.000    7.500    0.000   11.000 
#    0.000    1.250    0.000    6.000    0.000    0.000 
#    0.000    0.000    0.000    0.000    0.000    0.000 
#
# Total GULP energy -793303.770250 kJ/mol
# GULP energy per Si atom -12395.371410 kJ/mol
# Density = 2.178608 g / cm^3
# Si number density = 21.835779 Si / 1000 Ang^3
#
#
#
# Elastic Constant Matrix: (Units=GPa)
#
#
# Indices 1 2 3 4 5 6 
#
# 1 109.1562 73.7884 56.7918 0.0000 0.0000 0.0000
# 2 73.7884 109.1562 56.7918 0.0000 0.0000 0.0000
# 3 56.7918 56.7918 128.1750 0.0000 0.0000 0.0000
# 4 0.0000 0.0000 0.0000 31.8732 0.0000 0.0000
# 5 0.0000 0.0000 0.0000 0.0000 31.8732 0.0000
# 6 0.0000 0.0000 0.0000 0.0000 0.0000 24.5126
#
#
#
# Elastic Compliance Matrix: (Units=1/GPa)
#
#
# Indices 1 2 3 4 5 6 
#
# 1 0.017907 -0.010367 -0.003341 0.000000 0.000000 0.000000
# 2 -0.010367 0.017907 -0.003341 0.000000 0.000000 0.000000
# 3 -0.003341 -0.003341 0.010763 0.000000 0.000000 0.000000
# 4 0.000000 0.000000 0.000000 0.031374 0.000000 0.000000
# 5 0.000000 0.000000 0.000000 0.000000 0.031374 0.000000
# 6 0.000000 0.000000 0.000000 0.000000 0.000000 0.040795
#
#
# Mechanical properties :
#
#
# Convention : Reuss Voigt Hill
#
# Bulk Modulus (GPa) = 80.13251 80.13680 80.13465
# Shear Modulus (GPa) = 26.54221 28.25948 27.40085
#
# Velocity S-wave (km/s) = 3.49024 3.60138 3.54624
# Velocity P-wave (km/s) = 7.28147 7.35341 7.31753
#
# Compressibility (1/GPa) = 0.01247933
#
# Stress axis : x y z
#
# Youngs Moduli (GPa) = 55.84281 55.84281 92.91507
#
# Poissons Ratio (x) = 0.57892 0.31043
# Poissons Ratio (y) = 0.57892 0.31043
# Poissons Ratio (z) = 0.18657 0.18657
#
# Static dielectric constant tensor:
#      x y z
#    x 4.004000 0.000000 0.000000 
#    y 0.000000 4.004000 0.000000 
#    z 0.000000 0.000000 4.614310 
# 
# 
# High freq. dielectric constant tensor:
#      x y z
#    x 1.847900 0.000000 0.000000 
#    y 0.000000 1.847900 0.000000 
#    z 0.000000 0.000000 1.874230 
# 
# From -- ./inp_files/1398.got.cif
#   From: 2010.03.12/outbox.cif.g09.slc.cpg/sg138_1_cif.got.tgz:1398.got - 2010.04.08 09:41:05.
