data_PCOD8319947
_publ_section_title
;
Structure prediction by ZEFSAII (Michael W. Deem and Ramdas Pophale) SiO2 
 PCOD8319947
Probable space group: I 4/M M M
;
_chemical_formula_sum "Si O2"
_cell_formula_units_Z 160
_cell_length_a 21.473095
_cell_length_b 21.473095
_cell_length_c 17.231616
_cell_angle_alpha 90.000000
_cell_angle_beta 90.000000
_cell_angle_gamma 90.000000
_cell_volume 7945.391455
_symmetry_space_group_name_H-M "I 4/M M M"
_symmetry_group_IT_number 139
_symmetry_cell_setting 'tetragonal'
loop_
_space_group_symop_operation_xyz
x,y,z
-y,x,z
-x,-y,z
y,-x,z
x,-y,-z
-x,y,-z
y,x,-z
-y,-x,-z
-x,-y,-z
y,-x,-z
x,y,-z
-y,x,-z
-x,y,z
x,-y,z
-y,-x,z
y,x,z
1/2+x,1/2+y,1/2+z
1/2-y,1/2+x,1/2+z
1/2-x,1/2-y,1/2+z
1/2+y,1/2-x,1/2+z
1/2+x,1/2-y,1/2-z
1/2-x,1/2+y,1/2-z
1/2+y,1/2+x,1/2-z
1/2-y,1/2-x,1/2-z
1/2-x,1/2-y,1/2-z
1/2+y,1/2-x,1/2-z
1/2+x,1/2+y,1/2-z
1/2-y,1/2+x,1/2-z
1/2-x,1/2+y,1/2+z
1/2+x,1/2-y,1/2+z
1/2-y,1/2-x,1/2+z
1/2+y,1/2+x,1/2+z
loop_
_atom_site_type_symbol
_atom_site_label
_atom_site_fract_x
_atom_site_fract_y
_atom_site_fract_z
Si Si1 0.363949 0.263425 0.361260
Si Si2 0.000000 0.573508 0.410975
Si Si3 0.571954 0.669851 0.500000
Si Si4 0.570663 0.259083 0.913056
Si Si5 0.929507 0.832641 0.731585
Si Si6 0.620961 0.860967 0.159404
O O1 0.293539 0.293539 0.368241
O O2 0.408602 0.293064 0.424164
O O3 0.391475 0.278958 0.276492
O O4 0.369942 0.189689 0.376617
O O5 0.064910 0.596812 0.373646
O O6 0.000000 0.500000 0.401975
O O7 0.000000 0.595345 0.500000
O O8 0.500000 0.658585 0.500000
O O9 0.602061 0.602061 0.500000
O O10 0.500000 0.235184 0.920096
O O11 0.574388 0.321487 0.861479
O O12 0.607874 0.209598 0.862725
O O13 0.598141 0.269878 0.000000
O O14 0.899752 0.899752 0.749556
O O15 0.000000 0.833119 0.761490
O O16 0.625366 0.874635 0.250000
#
# Coordination Sequence:
#
# PCOD8319947 Si02
#       6
#    32  16  16  32  32  32
#     4  10  23  41  61  93 129 162 210 266 320 380
#     4  11  28  46  62  92 132 170 215 265 312 383
#     4  10  22  41  64  91 127 165 207 259 314 378
#     4  10  21  39  62  87 124 167 210 256 305 363
#     4  10  21  39  62  92 126 162 207 257 314 381
#     4  12  24  40  67  91 123 167 210 260 315 368
#
# _framework density 20.137460000000001
#
# number of rings (size 3 to 8) (size 9 to 14) (size 15 to 20)
#    0.000    1.500    3.000    1.200    4.200    3.500 
#    0.000    0.000    0.000    3.600    0.000    2.800 
#    0.000    0.000    0.000    0.000    0.000    0.000 
#
# Total GULP energy -991313.457593 kJ/mol
# GULP energy per Si atom -12391.418220 kJ/mol
# Density = 2.009163 g / cm^3
# Si number density = 20.137460 Si / 1000 Ang^3
#
#
#
# Elastic Constant Matrix: (Units=GPa)
#
#
# Indices 1 2 3 4 5 6 
#
# 1 126.1965 55.9095 31.5839 0.0000 0.0000 0.0000
# 2 55.9095 126.1966 31.5840 0.0000 0.0000 0.0000
# 3 31.5839 31.5840 117.1613 0.0000 0.0000 0.0000
# 4 0.0000 0.0000 0.0000 21.7126 0.0000 0.0000
# 5 0.0000 0.0000 0.0000 0.0000 21.7115 0.0000
# 6 0.0000 0.0000 0.0000 0.0000 0.0000 14.6087
#
#
#
# Elastic Compliance Matrix: (Units=1/GPa)
#
#
# Indices 1 2 3 4 5 6 
#
# 1 0.010143 -0.004085 -0.001633 0.000000 0.000000 0.000000
# 2 -0.004085 0.010143 -0.001633 0.000000 0.000000 0.000000
# 3 -0.001633 -0.001633 0.009416 0.000000 0.000000 0.000000
# 4 0.000000 0.000000 0.000000 0.046056 0.000000 0.000000
# 5 0.000000 0.000000 0.000000 0.000000 0.046059 0.000000
# 6 0.000000 0.000000 0.000000 0.000000 0.000000 0.068452
#
#
# Mechanical properties :
#
#
# Convention : Reuss Voigt Hill
#
# Bulk Modulus (GPa) = 66.67067 67.52323 67.09695
# Shear Modulus (GPa) = 23.81300 28.30503 26.05901
#
# Velocity S-wave (km/s) = 3.44251 3.75319 3.60120
# Velocity P-wave (km/s) = 6.99863 7.23781 7.11922
#
# Compressibility (1/GPa) = 0.01499910
#
# Stress axis : x y z
#
# Youngs Moduli (GPa) = 98.59431 98.59443 106.20562
#
# Poissons Ratio (x) = 0.40274 0.17344
# Poissons Ratio (y) = 0.40274 0.17344
# Poissons Ratio (z) = 0.16101 0.16101
#
# Static dielectric constant tensor:
#      x y z
#    x 3.624680 0.000000 0.000000 
#    y 0.000000 3.624670 0.000000 
#    z 0.000000 0.000000 3.926390 
# 
# 
# High freq. dielectric constant tensor:
#      x y z
#    x 1.781270 0.000000 0.000000 
#    y 0.000000 1.781270 0.000000 
#    z 0.000000 0.000000 1.802690 
# 
# From -- ./inp_files/8491.got.cif
#   From: 2010.03.12/outbox.cif.g09.slc.cpg/sg139_5_cif.got.tgz:8491.got - 2010.04.08 09:46:31.
