data_PCOD8319122
_publ_section_title
;
Structure prediction by ZEFSAII (Michael W. Deem and Ramdas Pophale) SiO2 
 PCOD8319122
Probable space group: P 42/N C M
;
_chemical_formula_sum "Si O2"
_cell_formula_units_Z 80
_cell_length_a 27.558760
_cell_length_b 27.558760
_cell_length_c 4.975377
_cell_angle_alpha 90.000000
_cell_angle_beta 90.000000
_cell_angle_gamma 90.000000
_cell_volume 3778.725458
_symmetry_space_group_name_H-M "P 42/N C M"
_symmetry_group_IT_number 138
_space_group.IT_coordinate_system_code '2'
_symmetry_cell_setting 'tetragonal'
loop_
_space_group_symop_operation_xyz
x,y,z
1/2-y,x,1/2+z
1/2-x,1/2-y,z
y,1/2-x,1/2+z
1/2+x,-y,1/2-z
-x,1/2+y,1/2-z
1/2+y,1/2+x,-z
-y,-x,-z
-x,-y,-z
1/2+y,-x,1/2-z
1/2+x,1/2+y,-z
-y,1/2+x,1/2-z
1/2-x,y,1/2+z
x,1/2-y,1/2+z
1/2-y,1/2-x,z
y,x,z
loop_
_atom_site_type_symbol
_atom_site_label
_atom_site_fract_x
_atom_site_fract_y
_atom_site_fract_z
Si Si1 0.500923 0.282425 0.931993
Si Si2 0.861083 0.782845 0.539888
Si Si3 0.977288 0.094146 0.566852
Si Si4 0.068343 0.639082 0.436717
Si Si5 0.355673 0.430946 0.716384
O O1 0.493723 0.261075 0.636298
O O2 0.554358 0.305621 0.983722
O O3 0.460379 0.325327 0.944775
O O4 0.864575 0.763273 0.842717
O O5 0.810061 0.810061 0.495957
O O6 0.905989 0.818998 0.493857
O O7 0.962081 0.037920 0.500000
O O8 0.962458 0.102956 0.874348
O O9 0.033850 0.108192 0.544390
O O10 0.946084 0.129804 0.372676
O O11 0.125219 0.625219 0.500000
O O12 0.389341 0.389341 0.855304
#
# Coordination Sequence:
#
# PCOD8319122 Si02
#       5
#    16  16  16  16  16
#     4  11  21  36  57  81 109 143 184 225 269 324
#     4  11  24  41  60  81 105 137 181 235 294 346
#     4   9  18  34  55  79 108 144 183 220 263 320
#     4   9  18  34  55  80 111 143 177 223 272 320
#     4  10  22  38  56  80 112 148 186 230 277 326
#
# _framework density 21.17116
#
# number of rings (size 3 to 8) (size 9 to 14) (size 15 to 20)
#    0.000    2.000    0.000    4.200    0.000    4.800 
#    0.000   15.000    0.000   16.200    0.000    0.000 
#    0.000    2.400    0.000    0.000    0.000    0.000 
#
# Total GULP energy -991077.294851 kJ/mol
# GULP energy per Si atom -12388.466186 kJ/mol
# Density = 2.112297 g / cm^3
# Si number density = 21.171160 Si / 1000 Ang^3
#
#
#
# Elastic Constant Matrix: (Units=GPa)
#
#
# Indices 1 2 3 4 5 6 
#
# 1 72.6817 86.7122 10.1289 0.0000 0.0000 0.0000
# 2 86.7122 72.6837 10.1291 0.0000 0.0000 0.0000
# 3 10.1289 10.1291 55.9717 0.0000 0.0000 0.0000
# 4 0.0000 0.0000 0.0000 21.0244 0.0000 0.0000
# 5 0.0000 0.0000 0.0000 0.0000 21.0243 0.0000
# 6 0.0000 0.0000 0.0000 0.0000 0.0000 46.7281
#
#
#
# Elastic Compliance Matrix: (Units=1/GPa)
#
#
# Indices 1 2 3 4 5 6 
#
# 1 -0.032429 0.038850 -0.001162 0.000000 0.000000 0.000000
# 2 0.038850 -0.032428 -0.001162 0.000000 0.000000 0.000000
# 3 -0.001162 -0.001162 0.018287 0.000000 0.000000 0.000000
# 4 0.000000 0.000000 0.000000 0.047564 0.000000 0.000000
# 5 0.000000 0.000000 0.000000 0.000000 0.047564 0.000000
# 6 0.000000 0.000000 0.000000 0.000000 0.000000 0.021400
#
#
# Mechanical properties :
#
#
# Convention : Reuss Voigt Hill
#
# Bulk Modulus (GPa) = 37.76244 46.14196 41.95220
# Shear Modulus (GPa) = 871.93482 24.04648 447.99065
#
# Velocity S-wave (km/s) = 20.31611 3.37384 14.56240
# Velocity P-wave (km/s) = 23.83697 6.08433 17.39569
#
# Compressibility (1/GPa) = 0.02648134
#
# Stress axis : x y z
#
# Youngs Moduli (GPa) = -30.83686 -30.83769 54.68439
#
# Poissons Ratio (x) = 1.19804 0.06355
# Poissons Ratio (y) = 1.19800 0.06354
# Poissons Ratio (z) = -0.03584 -0.03583
#
# Static dielectric constant tensor:
#      x y z
#    x 4.097030 0.000000 0.000000 
#    y 0.000000 4.097020 0.000000 
#    z 0.000000 0.000000 3.597940 
# 
# 
# High freq. dielectric constant tensor:
#      x y z
#    x 1.813890 0.000000 0.000000 
#    y 0.000000 1.813890 0.000000 
#    z 0.000000 0.000000 1.828900 
# 
# From -- ./inp_files/461.got.cif
#   From: 2010.03.12/outbox.cif.g09.slc.cpg/sg138_1_cif.got.tgz:461.got - 2010.04.08 09:41:05.
