data_PCOD8319532
_publ_section_title
;
Structure prediction by ZEFSAII (Michael W. Deem and Ramdas Pophale) SiO2 
 PCOD8319532
Probable space group: I 4/M M M
;
_chemical_formula_sum "Si O2"
_cell_formula_units_Z 128
_cell_length_a 20.989892
_cell_length_b 20.989892
_cell_length_c 15.850880
_cell_angle_alpha 90.000000
_cell_angle_beta 90.000000
_cell_angle_gamma 90.000000
_cell_volume 6983.510430
_symmetry_space_group_name_H-M "I 4/M M M"
_symmetry_group_IT_number 139
_symmetry_cell_setting 'tetragonal'
loop_
_space_group_symop_operation_xyz
x,y,z
-y,x,z
-x,-y,z
y,-x,z
x,-y,-z
-x,y,-z
y,x,-z
-y,-x,-z
-x,-y,-z
y,-x,-z
x,y,-z
-y,x,-z
-x,y,z
x,-y,z
-y,-x,z
y,x,z
1/2+x,1/2+y,1/2+z
1/2-y,1/2+x,1/2+z
1/2-x,1/2-y,1/2+z
1/2+y,1/2-x,1/2+z
1/2+x,1/2-y,1/2-z
1/2-x,1/2+y,1/2-z
1/2+y,1/2+x,1/2-z
1/2-y,1/2-x,1/2-z
1/2-x,1/2-y,1/2-z
1/2+y,1/2-x,1/2-z
1/2+x,1/2+y,1/2-z
1/2-y,1/2+x,1/2-z
1/2-x,1/2+y,1/2+z
1/2+x,1/2-y,1/2+z
1/2-y,1/2-x,1/2+z
1/2+y,1/2+x,1/2+z
loop_
_atom_site_type_symbol
_atom_site_label
_atom_site_fract_x
_atom_site_fract_y
_atom_site_fract_z
Si Si1 0.574550 0.114462 0.500000
Si Si2 0.424670 0.324606 0.669184
Si Si3 0.256062 0.424811 0.500000
Si Si4 0.155126 0.252860 0.699621
Si Si5 0.073283 0.363749 0.333128
O O1 0.500000 0.121262 0.500000
O O2 0.605486 0.185225 0.500000
O O3 0.592599 0.076337 0.415620
O O4 0.500000 0.330088 0.679079
O O5 0.395471 0.395471 0.675029
O O6 0.401892 0.293873 0.581673
O O7 0.396487 0.279709 0.740446
O O8 0.250567 0.500000 0.500000
O O9 0.197247 0.197247 0.652416
O O10 0.204571 0.295430 0.750000
O O11 0.112449 0.299346 0.641634
O O12 0.102878 0.397123 0.250000
O O13 0.000000 0.347697 0.312737
#
# Coordination Sequence:
#
# PCOD8319532 Si02
#       5
#    16  32  16  32  32
#     4  11  23  37  54  78 108 140 177 218 258 314
#     4  10  19  31  49  73 103 138 175 217 263 314
#     4   9  17  30  46  66  95 133 176 215 253 298
#     4   9  18  33  52  73  96 127 171 217 259 304
#     4  11  22  36  55  78 107 142 176 216 266 319
#
# _framework density 18.328890000000001
#
# number of rings (size 3 to 8) (size 9 to 14) (size 15 to 20)
#    0.000    2.000    0.000    5.250    0.000    4.500 
#    0.000    1.875    0.000    2.250    0.000    0.000 
#    0.000    0.000    0.000    0.000    0.000   42.250 
#
# Total GULP energy -793022.004693 kJ/mol
# GULP energy per Si atom -12390.968823 kJ/mol
# Density = 1.828717 g / cm^3
# Si number density = 18.328890 Si / 1000 Ang^3
#
#
#
# Elastic Constant Matrix: (Units=GPa)
#
#
# Indices 1 2 3 4 5 6 
#
# 1 109.5591 51.6803 20.8790 0.0000 0.0000 0.0000
# 2 51.6803 109.5596 20.8778 0.0000 0.0000 0.0000
# 3 20.8790 20.8778 67.0832 0.0000 0.0000 0.0000
# 4 0.0000 0.0000 0.0000 13.5100 0.0000 0.0000
# 5 0.0000 0.0000 0.0000 0.0000 13.5141 0.0000
# 6 0.0000 0.0000 0.0000 0.0000 0.0000 28.8719
#
#
#
# Elastic Compliance Matrix: (Units=1/GPa)
#
#
# Indices 1 2 3 4 5 6 
#
# 1 0.012012 -0.005266 -0.002100 0.000000 0.000000 0.000000
# 2 -0.005266 0.012011 -0.002099 0.000000 0.000000 0.000000
# 3 -0.002100 -0.002099 0.016214 0.000000 0.000000 0.000000
# 4 0.000000 0.000000 0.000000 0.074019 0.000000 0.000000
# 5 0.000000 0.000000 0.000000 0.000000 0.073997 0.000000
# 6 0.000000 0.000000 0.000000 0.000000 0.000000 0.034636
#
#
# Mechanical properties :
#
#
# Convention : Reuss Voigt Hill
#
# Bulk Modulus (GPa) = 46.93259 52.56402 49.74830
# Shear Modulus (GPa) = 20.08672 24.03019 22.05845
#
# Velocity S-wave (km/s) = 3.31404 3.62478 3.47288
# Velocity P-wave (km/s) = 6.34864 6.80141 6.57892
#
# Compressibility (1/GPa) = 0.02130716
#
# Stress axis : x y z
#
# Youngs Moduli (GPa) = 83.25283 83.25386 61.67628
#
# Poissons Ratio (x) = 0.43840 0.12950
# Poissons Ratio (y) = 0.43840 0.12948
# Poissons Ratio (z) = 0.17480 0.17477
#
# Static dielectric constant tensor:
#      x y z
#    x 3.786800 0.000000 0.000000 
#    y 0.000000 3.787050 0.000000 
#    z 0.000000 0.000000 3.096160 
# 
# 
# High freq. dielectric constant tensor:
#      x y z
#    x 1.719750 0.000000 0.000000 
#    y 0.000000 1.719750 0.000000 
#    z 0.000000 0.000000 1.676160 
# 
# From -- ./inp_files/5429.got.cif
#   From: 2010.03.12/outbox.cif.g09.slc.cpg/sg139_3_cif.got.tgz:5429.got - 2010.04.08 09:46:31.
