data_PCOD8319582
_publ_section_title
;
Structure prediction by ZEFSAII (Michael W. Deem and Ramdas Pophale) SiO2 
 PCOD8319582
Probable space group: I 4/M M M
;
_chemical_formula_sum "Si O2"
_cell_formula_units_Z 176
_cell_length_a 26.286967
_cell_length_b 26.286967
_cell_length_c 14.575715
_cell_angle_alpha 90.000000
_cell_angle_beta 90.000000
_cell_angle_gamma 90.000000
_cell_volume 10071.886610
_symmetry_space_group_name_H-M "I 4/M M M"
_symmetry_group_IT_number 139
_symmetry_cell_setting 'tetragonal'
loop_
_space_group_symop_operation_xyz
x,y,z
-y,x,z
-x,-y,z
y,-x,z
x,-y,-z
-x,y,-z
y,x,-z
-y,-x,-z
-x,-y,-z
y,-x,-z
x,y,-z
-y,x,-z
-x,y,z
x,-y,z
-y,-x,z
y,x,z
1/2+x,1/2+y,1/2+z
1/2-y,1/2+x,1/2+z
1/2-x,1/2-y,1/2+z
1/2+y,1/2-x,1/2+z
1/2+x,1/2-y,1/2-z
1/2-x,1/2+y,1/2-z
1/2+y,1/2+x,1/2-z
1/2-y,1/2-x,1/2-z
1/2-x,1/2-y,1/2-z
1/2+y,1/2-x,1/2-z
1/2+x,1/2+y,1/2-z
1/2-y,1/2+x,1/2-z
1/2-x,1/2+y,1/2+z
1/2+x,1/2-y,1/2+z
1/2-y,1/2-x,1/2+z
1/2+y,1/2+x,1/2+z
loop_
_atom_site_type_symbol
_atom_site_label
_atom_site_fract_x
_atom_site_fract_y
_atom_site_fract_z
Si Si1 0.117021 0.439592 0.173791
Si Si2 0.806848 0.639024 0.106689
Si Si3 0.944848 0.440318 0.000000
Si Si4 0.124183 0.791858 0.714083
Si Si5 0.640660 0.442286 0.104740
Si Si6 0.745836 0.662496 0.603652
O O1 0.129679 0.500000 0.180273
O O2 0.077176 0.422825 0.250000
O O3 0.167617 0.405307 0.169627
O O4 0.087171 0.422198 0.084843
O O5 0.751012 0.644588 0.146215
O O6 0.832644 0.693935 0.119706
O O7 0.805904 0.622863 0.000000
O O8 0.952714 0.500000 0.000000
O O9 0.000000 0.413315 0.000000
O O10 0.163084 0.836917 0.702294
O O11 0.070726 0.813350 0.675606
O O12 0.121692 0.774130 0.821017
O O13 0.624663 0.500000 0.122323
O O14 0.590771 0.409230 0.124956
O O15 0.659852 0.433963 0.000000
O O16 0.735362 0.642229 0.500000
O O17 0.716640 0.716640 0.617797
#
# Coordination Sequence:
#
# PCOD8319582 Si02
#       6
#    32  32  16  32  32  32
#     4  11  22  36  53  74  96 123 162 207 259 312
#     4  11  21  33  50  73 104 135 163 206 255 302
#     4   9  18  34  52  68  87 112 150 200 246 293
#     4  10  19  32  51  75 105 139 172 205 243 293
#     4   9  18  32  50  75 105 136 171 207 246 295
#     4   9  18  32  51  75 102 137 175 205 240 291
#
# _framework density 17.474383
#
# number of rings (size 3 to 8) (size 9 to 14) (size 15 to 20)
#    0.000    2.091    0.909    3.273    0.000    5.091 
#    0.000    0.909    0.000    0.545    0.000    0.000 
#    0.000    0.000    0.000    7.091    0.000    0.182 
#
# Total GULP energy -1090547.003400 kJ/mol
# GULP energy per Si atom -12392.579584 kJ/mol
# Density = 1.743461 g / cm^3
# Si number density = 17.474383 Si / 1000 Ang^3
#
#
#
# Elastic Constant Matrix: (Units=GPa)
#
#
# Indices 1 2 3 4 5 6 
#
# 1 56.3298 27.3019 51.5466 0.0000 0.0000 0.0000
# 2 27.3019 56.3296 51.5460 0.0000 0.0000 0.0000
# 3 51.5466 51.5460 111.7896 0.0000 0.0000 0.0000
# 4 0.0000 0.0000 0.0000 27.4443 0.0000 0.0000
# 5 0.0000 0.0000 0.0000 0.0000 27.4445 0.0000
# 6 0.0000 0.0000 0.0000 0.0000 0.0000 13.0391
#
#
#
# Elastic Compliance Matrix: (Units=1/GPa)
#
#
# Indices 1 2 3 4 5 6 
#
# 1 0.031077 -0.003373 -0.012775 0.000000 0.000000 0.000000
# 2 -0.003373 0.031077 -0.012774 0.000000 0.000000 0.000000
# 3 -0.012775 -0.012774 0.020726 0.000000 0.000000 0.000000
# 4 0.000000 0.000000 0.000000 0.036437 0.000000 0.000000
# 5 0.000000 0.000000 0.000000 0.000000 0.036437 0.000000
# 6 0.000000 0.000000 0.000000 0.000000 0.000000 0.076692
#
#
# Mechanical properties :
#
#
# Convention : Reuss Voigt Hill
#
# Bulk Modulus (GPa) = 39.94135 53.91533 46.92834
# Shear Modulus (GPa) = 16.74280 19.85590 18.29935
#
# Velocity S-wave (km/s) = 3.09873 3.37454 3.23957
# Velocity P-wave (km/s) = 5.97575 6.79001 6.39585
#
# Compressibility (1/GPa) = 0.02503671
#
# Stress axis : x y z
#
# Youngs Moduli (GPa) = 32.17793 32.17830 48.24843
#
# Poissons Ratio (x) = 0.10853 0.61636
# Poissons Ratio (y) = 0.10853 0.61634
# Poissons Ratio (z) = 0.41106 0.41106
#
# Static dielectric constant tensor:
#      x y z
#    x 3.197910 0.000000 0.000000 
#    y 0.000000 3.197910 0.000000 
#    z 0.000000 0.000000 3.418720 
# 
# 
# High freq. dielectric constant tensor:
#      x y z
#    x 1.661780 0.000000 0.000000 
#    y 0.000000 1.661780 0.000000 
#    z 0.000000 0.000000 1.684320 
# 
# From -- ./inp_files/6357.got.cif
#   From: 2010.03.12/outbox.cif.g09.slc.cpg/sg139_4_cif.got.tgz:6357.got - 2010.04.08 09:46:31.
