data_PCOD8319378
_publ_section_title
;
Structure prediction by ZEFSAII (Michael W. Deem and Ramdas Pophale) SiO2 
 PCOD8319378
Probable space group: I 4/M M M
;
_chemical_formula_sum "Si O2"
_cell_formula_units_Z 128
_cell_length_a 21.778796
_cell_length_b 21.778796
_cell_length_c 15.241851
_cell_angle_alpha 90.000000
_cell_angle_beta 90.000000
_cell_angle_gamma 90.000000
_cell_volume 7229.453116
_symmetry_space_group_name_H-M "I 4/M M M"
_symmetry_group_IT_number 139
_symmetry_cell_setting 'tetragonal'
loop_
_space_group_symop_operation_xyz
x,y,z
-y,x,z
-x,-y,z
y,-x,z
x,-y,-z
-x,y,-z
y,x,-z
-y,-x,-z
-x,-y,-z
y,-x,-z
x,y,-z
-y,x,-z
-x,y,z
x,-y,z
-y,-x,z
y,x,z
1/2+x,1/2+y,1/2+z
1/2-y,1/2+x,1/2+z
1/2-x,1/2-y,1/2+z
1/2+y,1/2-x,1/2+z
1/2+x,1/2-y,1/2-z
1/2-x,1/2+y,1/2-z
1/2+y,1/2+x,1/2-z
1/2-y,1/2-x,1/2-z
1/2-x,1/2-y,1/2-z
1/2+y,1/2-x,1/2-z
1/2+x,1/2+y,1/2-z
1/2-y,1/2+x,1/2-z
1/2-x,1/2+y,1/2+z
1/2+x,1/2-y,1/2+z
1/2-y,1/2-x,1/2+z
1/2+y,1/2+x,1/2+z
loop_
_atom_site_type_symbol
_atom_site_label
_atom_site_fract_x
_atom_site_fract_y
_atom_site_fract_z
Si Si1 0.255831 0.645428 0.000000
Si Si2 0.594158 0.067327 0.400353
Si Si3 0.344887 0.239712 0.500000
Si Si4 0.432600 0.769100 0.847162
Si Si5 0.201443 0.570143 0.345559
O O1 0.187145 0.673111 0.000000
O O2 0.272542 0.608808 0.089167
O O3 0.294787 0.705214 0.000000
O O4 0.571990 0.076671 0.500000
O O5 0.667009 0.064068 0.397839
O O6 0.570836 0.126711 0.346759
O O7 0.569282 0.000000 0.365786
O O8 0.299379 0.299379 0.500000
O O9 0.387871 0.238334 0.414125
O O10 0.500000 0.739134 0.840583
O O11 0.404990 0.777602 0.749870
O O12 0.222372 0.500000 0.359941
#
# Coordination Sequence:
#
# PCOD8319378 Si02
#       5
#    16  32  16  32  32
#     4  11  21  34  54  75  99 133 176 221 259 304
#     4  10  18  30  49  71 101 137 174 217 257 291
#     4  11  23  36  50  70 102 136 173 221 255 294
#     4  10  19  33  53  73 101 137 169 213 258 300
#     4  11  21  34  53  74 101 137 176 214 259 308
#
# _framework density 17.705351
#
# number of rings (size 3 to 8) (size 9 to 14) (size 15 to 20)
#    0.000    1.500    5.000    1.500    0.000    1.500 
#    0.000    3.750    0.000    4.500    0.000    0.000 
#    0.000    8.000    0.000   22.000    0.000    0.000 
#
# Total GULP energy -792867.745734 kJ/mol
# GULP energy per Si atom -12388.558527 kJ/mol
# Density = 1.766505 g / cm^3
# Si number density = 17.705351 Si / 1000 Ang^3
#
#
#
# Elastic Constant Matrix: (Units=GPa)
#
#
# Indices 1 2 3 4 5 6 
#
# 1 51.6927 24.3554 38.3544 0.0000 0.0000 0.0000
# 2 24.3554 51.6859 38.3514 0.0000 0.0000 0.0000
# 3 38.3544 38.3514 147.9808 0.0000 0.0000 0.0000
# 4 0.0000 0.0000 0.0000 18.0003 0.0000 0.0000
# 5 0.0000 0.0000 0.0000 0.0000 18.0003 0.0000
# 6 0.0000 0.0000 0.0000 0.0000 0.0000 14.0832
#
#
#
# Elastic Compliance Matrix: (Units=1/GPa)
#
#
# Indices 1 2 3 4 5 6 
#
# 1 0.027193 -0.009390 -0.004615 0.000000 0.000000 0.000000
# 2 -0.009390 0.027196 -0.004615 0.000000 0.000000 0.000000
# 3 -0.004615 -0.004615 0.009150 0.000000 0.000000 0.000000
# 4 0.000000 0.000000 0.000000 0.055555 0.000000 0.000000
# 5 0.000000 0.000000 0.000000 0.000000 0.055555 0.000000
# 6 0.000000 0.000000 0.000000 0.000000 0.000000 0.071006
#
#
# Mechanical properties :
#
#
# Convention : Reuss Voigt Hill
#
# Bulk Modulus (GPa) = 38.02135 50.38688 44.20412
# Shear Modulus (GPa) = 17.14325 20.03663 18.58994
#
# Velocity S-wave (km/s) = 3.11505 3.36768 3.24383
# Velocity P-wave (km/s) = 5.87019 6.60621 6.24905
#
# Compressibility (1/GPa) = 0.02630101
#
# Stress axis : x y z
#
# Youngs Moduli (GPa) = 36.77409 36.76948 109.29437
#
# Poissons Ratio (x) = 0.34526 0.50434
# Poissons Ratio (y) = 0.34531 0.50436
# Poissons Ratio (z) = 0.16969 0.16968
#
# Static dielectric constant tensor:
#      x y z
#    x 3.074290 0.000000 0.000000 
#    y 0.000000 3.074290 0.000000 
#    z 0.000000 0.000000 3.386200 
# 
# 
# High freq. dielectric constant tensor:
#      x y z
#    x 1.650940 0.000000 0.000000 
#    y 0.000000 1.650940 0.000000 
#    z 0.000000 0.000000 1.701060 
# 
# From -- ./inp_files/5436.got.cif
#   From: 2010.03.12/outbox.cif.g09.slc.cpg/sg139_3_cif.got.tgz:5436.got - 2010.04.08 09:46:31.
