data_PCOD8319205
_publ_section_title
;
Structure prediction by ZEFSAII (Michael W. Deem and Ramdas Pophale) SiO2 
 PCOD8319205
Probable space group: P 42/N C M
;
_chemical_formula_sum "Si O2"
_cell_formula_units_Z 52
_cell_length_a 14.652921
_cell_length_b 14.652921
_cell_length_c 12.005693
_cell_angle_alpha 90.000000
_cell_angle_beta 90.000000
_cell_angle_gamma 90.000000
_cell_volume 2577.719459
_symmetry_space_group_name_H-M "P 42/N C M"
_symmetry_group_IT_number 138
_space_group.IT_coordinate_system_code '2'
_symmetry_cell_setting 'tetragonal'
loop_
_space_group_symop_operation_xyz
x,y,z
1/2-y,x,1/2+z
1/2-x,1/2-y,z
y,1/2-x,1/2+z
1/2+x,-y,1/2-z
-x,1/2+y,1/2-z
1/2+y,1/2+x,-z
-y,-x,-z
-x,-y,-z
1/2+y,-x,1/2-z
1/2+x,1/2+y,-z
-y,1/2+x,1/2-z
1/2-x,y,1/2+z
x,1/2-y,1/2+z
1/2-y,1/2-x,z
y,x,z
loop_
_atom_site_type_symbol
_atom_site_label
_atom_site_fract_x
_atom_site_fract_y
_atom_site_fract_z
Si Si1 0.750000 0.250000 0.750000
Si Si2 0.326170 0.472699 0.471656
Si Si3 0.593494 0.370356 0.668730
Si Si4 0.022005 0.873351 0.084252
O O1 0.684494 0.308212 0.668874
O O2 0.371549 0.371549 0.474089
O O3 0.385071 0.533022 0.386677
O O4 0.323708 0.514292 0.596112
O O5 0.223203 0.472075 0.429358
O O6 0.559289 0.385722 0.792402
O O7 0.107128 0.892873 0.000000
O O8 0.944744 0.944744 0.056523
#
# Coordination Sequence:
#
# PCOD8319205 Si02
#       4
#     4  16  16  16
#     4  12  20  34  68 100 122 152 210 264 312 382
#     4  11  24  40  64  90 126 169 209 256 317 385
#     4  11  22  41  62  94 127 161 203 264 322 376
#     4  11  24  42  64  91 128 167 209 263 316 370
#
# _framework density 20.172871000000001
#
# number of rings (size 3 to 8) (size 9 to 14) (size 15 to 20)
#    0.000    0.923    3.077    5.538    0.000    1.846 
#    0.000    0.000    0.000    3.692    0.000    0.000 
#    0.000    0.000    0.000    0.000    0.000    0.000 
#
# Total GULP energy -644822.878329 kJ/mol
# GULP energy per Si atom -12400.439968 kJ/mol
# Density = 2.012696 g / cm^3
# Si number density = 20.172871 Si / 1000 Ang^3
#
#
#
# Elastic Constant Matrix: (Units=GPa)
#
#
# Indices 1 2 3 4 5 6 
#
# 1 76.3442 38.3749 28.2438 0.0000 0.0000 0.0000
# 2 38.3749 76.3445 28.2449 0.0000 0.0000 0.0000
# 3 28.2438 28.2449 145.6698 0.0000 0.0000 0.0000
# 4 0.0000 0.0000 0.0000 20.0456 0.0000 0.0000
# 5 0.0000 0.0000 0.0000 0.0000 20.0454 0.0000
# 6 0.0000 0.0000 0.0000 0.0000 0.0000 37.6476
#
#
#
# Elastic Compliance Matrix: (Units=1/GPa)
#
#
# Indices 1 2 3 4 5 6 
#
# 1 0.017987 -0.008350 -0.001868 0.000000 0.000000 0.000000
# 2 -0.008350 0.017987 -0.001869 0.000000 0.000000 0.000000
# 3 -0.001868 -0.001869 0.007589 0.000000 0.000000 0.000000
# 4 0.000000 0.000000 0.000000 0.049886 0.000000 0.000000
# 5 0.000000 0.000000 0.000000 0.000000 0.049887 0.000000
# 6 0.000000 0.000000 0.000000 0.000000 0.000000 0.026562
#
#
# Mechanical properties :
#
#
# Convention : Reuss Voigt Hill
#
# Bulk Modulus (GPa) = 51.57489 54.23174 52.90331
# Shear Modulus (GPa) = 24.93319 29.11404 27.02362
#
# Velocity S-wave (km/s) = 3.51946 3.80310 3.66403
# Velocity P-wave (km/s) = 6.49133 6.79902 6.64696
#
# Compressibility (1/GPa) = 0.01938928
#
# Stress axis : x y z
#
# Youngs Moduli (GPa) = 55.59576 55.59567 131.76212
#
# Poissons Ratio (x) = 0.46422 0.24619
# Poissons Ratio (y) = 0.46422 0.24622
# Poissons Ratio (z) = 0.10388 0.10389
#
# Static dielectric constant tensor:
#      x y z
#    x 3.807320 0.000000 0.000000 
#    y 0.000000 3.807320 0.000000 
#    z 0.000000 0.000000 3.779580 
# 
# 
# High freq. dielectric constant tensor:
#      x y z
#    x 1.783550 0.000000 0.000000 
#    y 0.000000 1.783550 0.000000 
#    z 0.000000 0.000000 1.799650 
# 
# From -- ./inp_files/2485.got.cif
#   From: 2010.03.12/outbox.cif.g09.slc.cpg/sg138_2_cif.got.tgz:2485.got - 2010.04.08 09:41:05.
