data_PCOD8319328
_publ_section_title
;
Structure prediction by ZEFSAII (Michael W. Deem and Ramdas Pophale) SiO2 
 PCOD8319328
Probable space group: I 4/M M M
;
_chemical_formula_sum "Si O2"
_cell_formula_units_Z 208
_cell_length_a 27.682774
_cell_length_b 27.682774
_cell_length_c 16.708295
_cell_angle_alpha 90.000000
_cell_angle_beta 90.000000
_cell_angle_gamma 90.000000
_cell_volume 12804.167562
_symmetry_space_group_name_H-M "I 4/M M M"
_symmetry_group_IT_number 139
_symmetry_cell_setting 'tetragonal'
loop_
_space_group_symop_operation_xyz
x,y,z
-y,x,z
-x,-y,z
y,-x,z
x,-y,-z
-x,y,-z
y,x,-z
-y,-x,-z
-x,-y,-z
y,-x,-z
x,y,-z
-y,x,-z
-x,y,z
x,-y,z
-y,-x,z
y,x,z
1/2+x,1/2+y,1/2+z
1/2-y,1/2+x,1/2+z
1/2-x,1/2-y,1/2+z
1/2+y,1/2-x,1/2+z
1/2+x,1/2-y,1/2-z
1/2-x,1/2+y,1/2-z
1/2+y,1/2+x,1/2-z
1/2-y,1/2-x,1/2-z
1/2-x,1/2-y,1/2-z
1/2+y,1/2-x,1/2-z
1/2+x,1/2+y,1/2-z
1/2-y,1/2+x,1/2-z
1/2-x,1/2+y,1/2+z
1/2+x,1/2-y,1/2+z
1/2-y,1/2-x,1/2+z
1/2+y,1/2+x,1/2+z
loop_
_atom_site_type_symbol
_atom_site_label
_atom_site_fract_x
_atom_site_fract_y
_atom_site_fract_z
Si Si1 0.555244 0.634588 0.000000
Si Si2 0.314066 0.392556 0.135874
Si Si3 0.810454 0.552442 0.752805
Si Si4 0.314335 0.851176 0.829102
Si Si5 0.295646 0.105571 0.591794
Si Si6 0.053552 0.800253 0.208630
Si Si7 0.213556 0.867204 0.091404
O O1 0.566203 0.667411 0.923475
O O2 0.500000 0.618958 0.000000
O O3 0.585620 0.585620 0.000000
O O4 0.342803 0.342803 0.123346
O O5 0.258507 0.380227 0.117674
O O6 0.324939 0.413515 0.223648
O O7 0.835721 0.500000 0.737625
O O8 0.832340 0.594570 0.696194
O O9 0.815779 0.564998 0.847336
O O10 0.754832 0.547208 0.732376
O O11 0.317746 0.817746 0.750000
O O12 0.347420 0.829828 0.899578
O O13 0.259281 0.850335 0.857044
O O14 0.297858 0.087324 0.500000
O O15 0.081668 0.806154 0.124640
O O16 0.000000 0.824031 0.201374
O O17 0.172869 0.827131 0.100154
O O18 0.229062 0.875110 0.000000
#
# Coordination Sequence:
#
# PCOD8319328 Si02
#       7
#    16  32  32  32  32  32  32
#     4  10  20  33  48  68  96 130 171 213 249 289
#     4  10  19  31  46  68  97 129 163 196 237 294
#     4   8  16  30  45  63  86 119 160 193 227 276
#     4   9  18  31  47  65  93 127 159 193 232 277
#     4  10  18  28  43  69  98 126 155 191 236 281
#     4   9  17  30  47  64  84 115 155 200 244 282
#     4  10  20  32  45  65  91 122 159 196 237 288
#
# _framework density 16.244710000000001
#
# number of rings (size 3 to 8) (size 9 to 14) (size 15 to 20)
#    0.000    2.615    0.769    2.308    0.000    2.231 
#    0.000    0.000    0.000    1.385    0.000    0.000 
#    0.000   27.692    0.000   19.231    0.000    0.000 
#
# Total GULP energy -1289014.553247 kJ/mol
# GULP energy per Si atom -12394.370704 kJ/mol
# Density = 1.620774 g / cm^3
# Si number density = 16.244710 Si / 1000 Ang^3
#
#
#
# Elastic Constant Matrix: (Units=GPa)
#
#
# Indices 1 2 3 4 5 6 
#
# 1 79.7206 31.6848 34.3765 0.0000 0.0000 0.0000
# 2 31.6848 79.7206 34.3765 0.0000 0.0000 0.0000
# 3 34.3765 34.3765 99.3445 0.0000 0.0000 0.0000
# 4 0.0000 0.0000 0.0000 17.8345 0.0000 0.0000
# 5 0.0000 0.0000 0.0000 0.0000 17.8345 0.0000
# 6 0.0000 0.0000 0.0000 0.0000 0.0000 6.8049
#
#
#
# Elastic Compliance Matrix: (Units=1/GPa)
#
#
# Indices 1 2 3 4 5 6 
#
# 1 0.016116 -0.004702 -0.003949 0.000000 0.000000 0.000000
# 2 -0.004702 0.016116 -0.003949 0.000000 0.000000 0.000000
# 3 -0.003949 -0.003949 0.012799 0.000000 0.000000 0.000000
# 4 0.000000 0.000000 0.000000 0.056071 0.000000 0.000000
# 5 0.000000 0.000000 0.000000 0.000000 0.056071 0.000000
# 6 0.000000 0.000000 0.000000 0.000000 0.000000 0.146953
#
#
# Mechanical properties :
#
#
# Convention : Reuss Voigt Hill
#
# Bulk Modulus (GPa) = 50.43229 51.07349 50.75289
# Shear Modulus (GPa) = 14.88370 19.05130 16.96750
#
# Velocity S-wave (km/s) = 3.03019 3.42829 3.23537
# Velocity P-wave (km/s) = 6.58449 6.86871 6.72810
#
# Compressibility (1/GPa) = 0.01982856
#
# Stress axis : x y z
#
# Youngs Moduli (GPa) = 62.05125 62.05125 78.12926
#
# Poissons Ratio (x) = 0.29177 0.30857
# Poissons Ratio (y) = 0.29177 0.30857
# Poissons Ratio (z) = 0.24507 0.24507
#
# Static dielectric constant tensor:
#      x y z
#    x 3.068420 0.000000 0.000000 
#    y 0.000000 3.068420 0.000000 
#    z 0.000000 0.000000 3.214960 
# 
# 
# High freq. dielectric constant tensor:
#      x y z
#    x 1.604640 0.000000 0.000000 
#    y 0.000000 1.604640 0.000000 
#    z 0.000000 0.000000 1.631420 
# 
# From -- ./inp_files/8954.got.cif
#   From: 2010.03.12/outbox.cif.g09.slc.cpg/sg139_5_cif.got.tgz:8954.got - 2010.04.08 09:46:31.
