data_PCOD8319079
_publ_section_title
;
Structure prediction by ZEFSAII (Michael W. Deem and Ramdas Pophale) SiO2 
 PCOD8319079
Probable space group: P 42/N C M
;
_chemical_formula_sum "Si O2"
_cell_formula_units_Z 64
_cell_length_a 10.559007
_cell_length_b 10.559007
_cell_length_c 28.053038
_cell_angle_alpha 90.000000
_cell_angle_beta 90.000000
_cell_angle_gamma 90.000000
_cell_volume 3127.706953
_symmetry_space_group_name_H-M "P 42/N C M"
_symmetry_group_IT_number 138
_space_group.IT_coordinate_system_code '2'
_symmetry_cell_setting 'tetragonal'
loop_
_space_group_symop_operation_xyz
x,y,z
1/2-y,x,1/2+z
1/2-x,1/2-y,z
y,1/2-x,1/2+z
1/2+x,-y,1/2-z
-x,1/2+y,1/2-z
1/2+y,1/2+x,-z
-y,-x,-z
-x,-y,-z
1/2+y,-x,1/2-z
1/2+x,1/2+y,-z
-y,1/2+x,1/2-z
1/2-x,y,1/2+z
x,1/2-y,1/2+z
1/2-y,1/2-x,z
y,x,z
loop_
_atom_site_type_symbol
_atom_site_label
_atom_site_fract_x
_atom_site_fract_y
_atom_site_fract_z
Si Si1 0.897283 0.104581 0.324405
Si Si2 0.206738 0.494247 0.499977
Si Si3 0.649630 0.149625 0.068346
Si Si4 0.455875 0.249541 0.250435
O O1 0.848232 0.150746 0.374840
O O2 0.947980 0.223478 0.293710
O O3 0.783627 0.035458 0.296573
O O4 0.011034 0.011034 0.335130
O O5 0.088218 0.588218 0.500000
O O6 0.299659 0.516406 0.546148
O O7 0.299342 0.516389 0.453724
O O8 0.149260 0.350741 0.500006
O O9 0.750000 0.250000 0.049309
O O10 0.367818 0.132183 0.266000
O O11 0.373818 0.373818 0.238151
#
# Coordination Sequence:
#
# PCOD8319079 Si02
#       4
#    16  16  16  16
#     4  10  21  35  53  76 104 140 176 218 271 319
#     4   8  15  31  50  72 106 138 168 212 265 315
#     4   9  18  30  50  78 100 130 174 220 261 306
#     4   9  20  37  52  72 106 141 176 221 270 322
#
# _framework density 20.462274000000001
#
# number of rings (size 3 to 8) (size 9 to 14) (size 15 to 20)
#    0.000    3.000    0.000    1.500    3.500    2.000 
#    0.000    2.500    0.000    1.500    0.000    0.000 
#    0.000    0.000    0.000    0.000    0.000    0.000 
#
# Total GULP energy -792894.386940 kJ/mol
# GULP energy per Si atom -12388.974796 kJ/mol
# Density = 2.041570 g / cm^3
# Si number density = 20.462274 Si / 1000 Ang^3
#
#
#
# Elastic Constant Matrix: (Units=GPa)
#
#
# Indices 1 2 3 4 5 6 
#
# 1 71.0467 52.6885 46.7868 0.0000 0.0000 0.0000
# 2 52.6885 71.0467 46.7868 0.0000 0.0000 0.0000
# 3 46.7868 46.7868 164.4779 0.0000 0.0000 0.0000
# 4 0.0000 0.0000 0.0000 203.8744 0.0000 0.0000
# 5 0.0000 0.0000 0.0000 0.0000 203.8744 0.0000
# 6 0.0000 0.0000 0.0000 0.0000 0.0000 42.3925
#
#
#
# Elastic Compliance Matrix: (Units=1/GPa)
#
#
# Indices 1 2 3 4 5 6 
#
# 1 0.032384 -0.022087 -0.002929 0.000000 0.000000 0.000000
# 2 -0.022087 0.032384 -0.002929 0.000000 0.000000 0.000000
# 3 -0.002929 -0.002929 0.007746 0.000000 0.000000 0.000000
# 4 0.000000 0.000000 0.000000 0.004905 0.000000 0.000000
# 5 0.000000 0.000000 0.000000 0.000000 0.004905 0.000000
# 6 0.000000 0.000000 0.000000 0.000000 0.000000 0.023589
#
#
# Mechanical properties :
#
#
# Convention : Reuss Voigt Hill
#
# Bulk Modulus (GPa) = 60.15465 66.56617 63.36041
# Shear Modulus (GPa) = 29.87833 100.71555 65.29694
#
# Velocity S-wave (km/s) = 3.82536 7.02332 5.65510
# Velocity P-wave (km/s) = 6.99806 9.91822 8.58324
#
# Compressibility (1/GPa) = 0.01662382
#
# Stress axis : x y z
#
# Youngs Moduli (GPa) = 30.87933 30.87933 129.09571
#
# Poissons Ratio (x) = 0.68204 0.37812
# Poissons Ratio (y) = 0.68204 0.37812
# Poissons Ratio (z) = 0.09045 0.09045
#
# Static dielectric constant tensor:
#      x y z
#    x 3.751570 0.000000 0.000000 
#    y 0.000000 3.751570 0.000000 
#    z 0.000000 0.000000 3.492790 
# 
# 
# High freq. dielectric constant tensor:
#      x y z
#    x 1.796360 0.000000 0.000000 
#    y 0.000000 1.796360 0.000000 
#    z 0.000000 0.000000 1.786870 
# 
# From -- ./inp_files/6727.got.cif
#   From: 2010.03.12/outbox.cif.g09.slc.cpg/sg138_4_cif.got.tgz:6727.got - 2010.04.08 09:41:05.
