data_PCOD8319991
_publ_section_title
;
Structure prediction by ZEFSAII (Michael W. Deem and Ramdas Pophale) SiO2 
 PCOD8319991
Probable space group: I 4/M M M
;
_chemical_formula_sum "Si O2"
_cell_formula_units_Z 128
_cell_length_a 25.384638
_cell_length_b 25.384638
_cell_length_c 10.383149
_cell_angle_alpha 90.000000
_cell_angle_beta 90.000000
_cell_angle_gamma 90.000000
_cell_volume 6690.691958
_symmetry_space_group_name_H-M "I 4/M M M"
_symmetry_group_IT_number 139
_symmetry_cell_setting 'tetragonal'
loop_
_space_group_symop_operation_xyz
x,y,z
-y,x,z
-x,-y,z
y,-x,z
x,-y,-z
-x,y,-z
y,x,-z
-y,-x,-z
-x,-y,-z
y,-x,-z
x,y,-z
-y,x,-z
-x,y,z
x,-y,z
-y,-x,z
y,x,z
1/2+x,1/2+y,1/2+z
1/2-y,1/2+x,1/2+z
1/2-x,1/2-y,1/2+z
1/2+y,1/2-x,1/2+z
1/2+x,1/2-y,1/2-z
1/2-x,1/2+y,1/2-z
1/2+y,1/2+x,1/2-z
1/2-y,1/2-x,1/2-z
1/2-x,1/2-y,1/2-z
1/2+y,1/2-x,1/2-z
1/2+x,1/2+y,1/2-z
1/2-y,1/2+x,1/2-z
1/2-x,1/2+y,1/2+z
1/2+x,1/2-y,1/2+z
1/2-y,1/2-x,1/2+z
1/2+y,1/2+x,1/2+z
loop_
_atom_site_type_symbol
_atom_site_label
_atom_site_fract_x
_atom_site_fract_y
_atom_site_fract_z
Si Si1 0.760797 0.325699 0.000000
Si Si2 0.939352 0.562316 0.000000
Si Si3 0.897613 0.264104 0.741265
Si Si4 0.155581 0.756219 0.000000
Si Si5 0.916054 0.000000 0.347105
Si Si6 0.000000 0.204464 0.653337
Si Si7 0.388108 0.888108 0.250000
O O1 0.749691 0.357795 0.871895
O O2 0.820071 0.302940 0.000000
O O3 0.723318 0.276683 0.000000
O O4 0.911440 0.584720 0.124980
O O5 0.933395 0.500000 0.000000
O O6 0.000000 0.579861 0.000000
O O7 0.879318 0.237379 0.873298
O O8 0.951716 0.236897 0.707519
O O9 0.901976 0.326638 0.755534
O O10 0.199496 0.800505 0.000000
O O11 0.947623 0.947623 0.299484
O O12 0.914672 0.000000 0.500000
O O13 0.856037 0.000000 0.294409
O O14 0.000000 0.205041 0.500000
#
# Coordination Sequence:
#
# PCOD8319991 Si02
#       7
#    16  16  32  16  16  16  16
#     4  11  21  40  67  91 121 166 219 262 308 384
#     4  11  26  44  64  90 113 156 224 278 321 384
#     4  12  24  41  61  94 129 170 213 263 328 396
#     4  11  23  42  63  91 129 170 213 260 318 394
#     4   8  16  35  61  89 124 163 203 256 321 373
#     4  11  25  39  62  97 131 165 221 274 318 382
#     4  12  24  41  65  86 126 170 204 262 340 392
#
# _framework density 19.131055
#
# number of rings (size 3 to 8) (size 9 to 14) (size 15 to 20)
#    0.000    1.000    3.750    3.375    3.500    5.500 
#    0.000    0.000    0.000    0.000    0.000    0.000 
#    0.000    3.000    0.000    0.000    0.000    0.000 
#
# Total GULP energy -793657.139990 kJ/mol
# GULP energy per Si atom -12400.892812 kJ/mol
# Density = 1.908751 g / cm^3
# Si number density = 19.131055 Si / 1000 Ang^3
#
#
#
# Elastic Constant Matrix: (Units=GPa)
#
#
# Indices 1 2 3 4 5 6 
#
# 1 111.3946 83.3878 42.2647 0.0000 0.0000 0.0000
# 2 83.3878 111.4048 42.2692 0.0000 0.0000 0.0000
# 3 42.2647 42.2692 149.3648 0.0000 0.0000 0.0000
# 4 0.0000 0.0000 0.0000 43.4212 0.0000 0.0000
# 5 0.0000 0.0000 0.0000 0.0000 43.4227 0.0000
# 6 0.0000 0.0000 0.0000 0.0000 0.0000 26.5297
#
#
#
# Elastic Compliance Matrix: (Units=1/GPa)
#
#
# Indices 1 2 3 4 5 6 
#
# 1 0.020777 -0.014923 -0.001656 0.000000 0.000000 0.000000
# 2 -0.014923 0.020775 -0.001656 0.000000 0.000000 0.000000
# 3 -0.001656 -0.001656 0.007632 0.000000 0.000000 0.000000
# 4 0.000000 0.000000 0.000000 0.023030 0.000000 0.000000
# 5 0.000000 0.000000 0.000000 0.000000 0.023029 0.000000
# 6 0.000000 0.000000 0.000000 0.000000 0.000000 0.037694
#
#
# Mechanical properties :
#
#
# Convention : Reuss Voigt Hill
#
# Bulk Modulus (GPa) = 78.66069 78.66751 78.66410
# Shear Modulus (GPa) = 28.79422 36.29089 32.54255
#
# Velocity S-wave (km/s) = 3.88378 4.36014 4.12883
# Velocity P-wave (km/s) = 7.83056 8.15827 7.99609
#
# Compressibility (1/GPa) = 0.01271283
#
# Stress axis : x y z
#
# Youngs Moduli (GPa) = 48.13104 48.13471 131.02180
#
# Poissons Ratio (x) = 0.71833 0.21695
# Poissons Ratio (y) = 0.71827 0.21703
# Poissons Ratio (z) = 0.07970 0.07973
#
# Static dielectric constant tensor:
#      x y z
#    x 3.629710 0.000000 0.000000 
#    y 0.000000 3.629710 0.000000 
#    z 0.000000 0.000000 3.383590 
# 
# 
# High freq. dielectric constant tensor:
#      x y z
#    x 1.753270 0.000000 0.000000 
#    y 0.000000 1.753270 0.000000 
#    z 0.000000 0.000000 1.744490 
# 
# From -- ./inp_files/3528.got.cif
#   From: 2010.03.12/outbox.cif.g09.slc.cpg/sg139_2_cif.got.tgz:3528.got - 2010.04.08 09:46:31.
