data_PCOD8319543
_publ_section_title
;
Structure prediction by ZEFSAII (Michael W. Deem and Ramdas Pophale) SiO2 
 PCOD8319543
Probable space group: I 4/M M M
;
_chemical_formula_sum "Si O2"
_cell_formula_units_Z 160
_cell_length_a 29.459457
_cell_length_b 29.459457
_cell_length_c 10.013532
_cell_angle_alpha 90.000000
_cell_angle_beta 90.000000
_cell_angle_gamma 90.000000
_cell_volume 8690.339944
_symmetry_space_group_name_H-M "I 4/M M M"
_symmetry_group_IT_number 139
_symmetry_cell_setting 'tetragonal'
loop_
_space_group_symop_operation_xyz
x,y,z
-y,x,z
-x,-y,z
y,-x,z
x,-y,-z
-x,y,-z
y,x,-z
-y,-x,-z
-x,-y,-z
y,-x,-z
x,y,-z
-y,x,-z
-x,y,z
x,-y,z
-y,-x,z
y,x,z
1/2+x,1/2+y,1/2+z
1/2-y,1/2+x,1/2+z
1/2-x,1/2-y,1/2+z
1/2+y,1/2-x,1/2+z
1/2+x,1/2-y,1/2-z
1/2-x,1/2+y,1/2-z
1/2+y,1/2+x,1/2-z
1/2-y,1/2-x,1/2-z
1/2-x,1/2-y,1/2-z
1/2+y,1/2-x,1/2-z
1/2+x,1/2+y,1/2-z
1/2-y,1/2+x,1/2-z
1/2-x,1/2+y,1/2+z
1/2+x,1/2-y,1/2+z
1/2-y,1/2-x,1/2+z
1/2+y,1/2+x,1/2+z
loop_
_atom_site_type_symbol
_atom_site_label
_atom_site_fract_x
_atom_site_fract_y
_atom_site_fract_z
Si Si1 0.623273 0.448503 0.158487
Si Si2 0.781426 0.907127 0.343463
Si Si3 0.238254 0.313104 0.852842
Si Si4 0.888373 0.447229 0.653086
Si Si5 0.053003 0.712080 0.855011
O O1 0.623060 0.500000 0.217246
O O2 0.579170 0.420831 0.211464
O O3 0.667999 0.420716 0.203760
O O4 0.621905 0.450924 0.000000
O O5 0.775530 0.917159 0.500000
O O6 0.770052 0.854974 0.307438
O O7 0.746659 0.937837 0.263321
O O8 0.268976 0.268976 0.860624
O O9 0.196792 0.303209 0.750000
O O10 0.217419 0.322976 0.000000
O O11 0.902456 0.438233 0.500000
O O12 0.891072 0.500000 0.687957
O O13 0.922471 0.422471 0.750000
O O14 0.837702 0.427447 0.679502
O O15 0.000000 0.706138 0.870904
O O16 0.072504 0.728692 0.000000
#
# Coordination Sequence:
#
# PCOD8319543 Si02
#       5
#    32  32  32  32  32
#     4   9  17  29  47  73 104 136 170 210 257 310
#     4  10  19  31  50  75 100 128 166 209 250 296
#     4   9  18  32  48  67  95 130 164 199 241 287
#     4   9  19  35  52  71  97 129 165 206 253 304
#     4   9  19  35  51  68  95 128 158 194 242 292
#
# _framework density 18.411248000000001
#
# number of rings (size 3 to 8) (size 9 to 14) (size 15 to 20)
#    0.000    2.800    0.000    2.400    0.000    6.800 
#    0.000    8.000    0.000    1.800    0.000    0.000 
#    0.000    0.000    0.000    4.200    0.000    4.000 
#
# Total GULP energy -991434.801734 kJ/mol
# GULP energy per Si atom -12392.935022 kJ/mol
# Density = 1.836934 g / cm^3
# Si number density = 18.411248 Si / 1000 Ang^3
#
#
#
# Elastic Constant Matrix: (Units=GPa)
#
#
# Indices 1 2 3 4 5 6 
#
# 1 101.8195 55.2167 44.2663 0.0000 0.0000 0.0000
# 2 55.2167 101.8189 44.2660 0.0000 0.0000 0.0000
# 3 44.2663 44.2660 57.2907 0.0000 0.0000 0.0000
# 4 0.0000 0.0000 0.0000 21.5769 0.0000 0.0000
# 5 0.0000 0.0000 0.0000 0.0000 21.5769 0.0000
# 6 0.0000 0.0000 0.0000 0.0000 0.0000 34.6839
#
#
#
# Elastic Compliance Matrix: (Units=1/GPa)
#
#
# Indices 1 2 3 4 5 6 
#
# 1 0.016370 -0.005088 -0.008718 0.000000 0.000000 0.000000
# 2 -0.005088 0.016370 -0.008718 0.000000 0.000000 0.000000
# 3 -0.008718 -0.008718 0.030926 0.000000 0.000000 0.000000
# 4 0.000000 0.000000 0.000000 0.046346 0.000000 0.000000
# 5 0.000000 0.000000 0.000000 0.000000 0.046346 0.000000
# 6 0.000000 0.000000 0.000000 0.000000 0.000000 0.028832
#
#
# Mechanical properties :
#
#
# Convention : Reuss Voigt Hill
#
# Bulk Modulus (GPa) = 53.70248 60.93634 57.31941
# Shear Modulus (GPa) = 21.14664 23.37954 22.26309
#
# Velocity S-wave (km/s) = 3.39274 3.56736 3.48114
# Velocity P-wave (km/s) = 6.67676 7.08077 6.88173
#
# Compressibility (1/GPa) = 0.01862111
#
# Stress axis : x y z
#
# Youngs Moduli (GPa) = 61.08588 61.08568 32.33476
#
# Poissons Ratio (x) = 0.31078 0.28189
# Poissons Ratio (y) = 0.31078 0.28188
# Poissons Ratio (z) = 0.53253 0.53253
#
# Static dielectric constant tensor:
#      x y z
#    x 3.430360 0.000000 0.000000 
#    y 0.000000 3.430360 0.000000 
#    z 0.000000 0.000000 3.569190 
# 
# 
# High freq. dielectric constant tensor:
#      x y z
#    x 1.711070 0.000000 0.000000 
#    y 0.000000 1.711070 0.000000 
#    z 0.000000 0.000000 1.690520 
# 
# From -- ./inp_files/3889.got.cif
#   From: 2010.03.12/outbox.cif.g09.slc.cpg/sg139_2_cif.got.tgz:3889.got - 2010.04.08 09:46:31.
