data_PCOD8319697
_publ_section_title
;
Structure prediction by ZEFSAII (Michael W. Deem and Ramdas Pophale) SiO2 
 PCOD8319697
Probable space group: I 4/M M M
;
_chemical_formula_sum "Si O2"
_cell_formula_units_Z 208
_cell_length_a 20.250679
_cell_length_b 20.250679
_cell_length_c 30.077694
_cell_angle_alpha 90.000000
_cell_angle_beta 90.000000
_cell_angle_gamma 90.000000
_cell_volume 12334.561531
_symmetry_space_group_name_H-M "I 4/M M M"
_symmetry_group_IT_number 139
_symmetry_cell_setting 'tetragonal'
loop_
_space_group_symop_operation_xyz
x,y,z
-y,x,z
-x,-y,z
y,-x,z
x,-y,-z
-x,y,-z
y,x,-z
-y,-x,-z
-x,-y,-z
y,-x,-z
x,y,-z
-y,x,-z
-x,y,z
x,-y,z
-y,-x,z
y,x,z
1/2+x,1/2+y,1/2+z
1/2-y,1/2+x,1/2+z
1/2-x,1/2-y,1/2+z
1/2+y,1/2-x,1/2+z
1/2+x,1/2-y,1/2-z
1/2-x,1/2+y,1/2-z
1/2+y,1/2+x,1/2-z
1/2-y,1/2-x,1/2-z
1/2-x,1/2-y,1/2-z
1/2+y,1/2-x,1/2-z
1/2+x,1/2+y,1/2-z
1/2-y,1/2+x,1/2-z
1/2-x,1/2+y,1/2+z
1/2+x,1/2-y,1/2+z
1/2-y,1/2-x,1/2+z
1/2+y,1/2+x,1/2+z
loop_
_atom_site_type_symbol
_atom_site_label
_atom_site_fract_x
_atom_site_fract_y
_atom_site_fract_z
Si Si1 0.678476 0.426358 0.293426
Si Si2 0.425918 0.928996 0.410324
Si Si3 0.643684 0.246862 0.636732
Si Si4 0.423307 0.206724 0.450775
Si Si5 0.315167 0.575333 0.192142
Si Si6 0.395774 0.168806 0.166603
Si Si7 0.923704 0.576296 0.750000
O O1 0.653105 0.500000 0.297318
O O2 0.616765 0.383236 0.308186
O O3 0.737840 0.414356 0.328009
O O4 0.701746 0.409900 0.243567
O O5 0.500000 0.917311 0.390402
O O6 0.410113 0.871504 0.445283
O O7 0.372884 0.932760 0.370993
O O8 0.422941 0.000000 0.435044
O O9 0.699901 0.300100 0.639512
O O10 0.616051 0.246387 0.586686
O O11 0.675417 0.179725 0.652974
O O12 0.398021 0.226923 0.500000
O O13 0.500000 0.224013 0.445836
O O14 0.342402 0.500000 0.185659
O O15 0.371551 0.628450 0.175776
O O16 0.244807 0.579937 0.167261
O O17 0.408102 0.129320 0.211898
O O18 0.913669 0.500000 0.734187
#
# Coordination Sequence:
#
# PCOD8319697 Si02
#       7
#    32  32  32  32  32  32  16
#     4   9  18  31  46  65  87 114 149 187 229 271
#     4   9  17  29  45  65  90 119 150 183 217 256
#     4  10  20  32  47  66  89 117 148 185 228 275
#     4   9  18  31  47  67  88 112 143 179 221 269
#     4  10  20  33  49  68  91 120 156 198 240 282
#     4  11  20  31  46  65  92 124 159 193 226 268
#     4  11  22  32  45  68  98 132 167 198 228 265
#
# _framework density 16.863185000000001
#
# number of rings (size 3 to 8) (size 9 to 14) (size 15 to 20)
#    0.000    2.231    0.000    3.692    0.000    5.231 
#    0.000    6.154    0.000    0.000    0.000    0.000 
#    0.000    0.000    0.000   14.308    0.000    2.923 
#
# Total GULP energy -1288703.093083 kJ/mol
# GULP energy per Si atom -12391.375895 kJ/mol
# Density = 1.682480 g / cm^3
# Si number density = 16.863185 Si / 1000 Ang^3
#
#
#
# Elastic Constant Matrix: (Units=GPa)
#
#
# Indices 1 2 3 4 5 6 
#
# 1 77.4356 24.1439 20.4148 0.0000 0.0000 0.0000
# 2 24.1439 77.4349 20.4151 0.0000 0.0000 0.0000
# 3 20.4148 20.4151 47.7896 0.0000 0.0000 0.0000
# 4 0.0000 0.0000 0.0000 12.2292 0.0000 0.0000
# 5 0.0000 0.0000 0.0000 0.0000 12.2288 0.0000
# 6 0.0000 0.0000 0.0000 0.0000 0.0000 18.8423
#
#
#
# Elastic Compliance Matrix: (Units=1/GPa)
#
#
# Indices 1 2 3 4 5 6 
#
# 1 0.015325 -0.003440 -0.005077 0.000000 0.000000 0.000000
# 2 -0.003440 0.015325 -0.005077 0.000000 0.000000 0.000000
# 3 -0.005077 -0.005077 0.025263 0.000000 0.000000 0.000000
# 4 0.000000 0.000000 0.000000 0.081772 0.000000 0.000000
# 5 0.000000 0.000000 0.000000 0.000000 0.081774 0.000000
# 6 0.000000 0.000000 0.000000 0.000000 0.000000 0.053072
#
#
# Mechanical properties :
#
#
# Convention : Reuss Voigt Hill
#
# Bulk Modulus (GPa) = 34.81331 36.95641 35.88486
# Shear Modulus (GPa) = 16.16586 17.83916 17.00251
#
# Velocity S-wave (km/s) = 3.09956 3.25603 3.17876
# Velocity P-wave (km/s) = 5.78784 6.00822 5.89906
#
# Compressibility (1/GPa) = 0.02872465
#
# Stress axis : x y z
#
# Youngs Moduli (GPa) = 65.25310 65.25221 39.58379
#
# Poissons Ratio (x) = 0.22445 0.20097
# Poissons Ratio (y) = 0.22445 0.20098
# Poissons Ratio (z) = 0.33130 0.33131
#
# Static dielectric constant tensor:
#      x y z
#    x 3.205200 0.000000 0.000000 
#    y 0.000000 3.205210 0.000000 
#    z 0.000000 0.000000 3.073270 
# 
# 
# High freq. dielectric constant tensor:
#      x y z
#    x 1.651350 0.000000 0.000000 
#    y 0.000000 1.651350 0.000000 
#    z 0.000000 0.000000 1.625220 
# 
# From -- ./inp_files/14497.got.cif
#   From: 2010.03.12/outbox.cif.g09.slc.cpg/sg139_8_cif.got.tgz:14497.got - 2010.04.08 09:46:31.
