data_PCOD8319921
_publ_section_title
;
Structure prediction by ZEFSAII (Michael W. Deem and Ramdas Pophale) SiO2 
 PCOD8319921
Probable space group: I 4/M M M
;
_chemical_formula_sum "Si O2"
_cell_formula_units_Z 96
_cell_length_a 21.811117
_cell_length_b 21.811117
_cell_length_c 10.293327
_cell_angle_alpha 90.000000
_cell_angle_beta 90.000000
_cell_angle_gamma 90.000000
_cell_volume 4896.791184
_symmetry_space_group_name_H-M "I 4/M M M"
_symmetry_group_IT_number 139
_symmetry_cell_setting 'tetragonal'
loop_
_space_group_symop_operation_xyz
x,y,z
-y,x,z
-x,-y,z
y,-x,z
x,-y,-z
-x,y,-z
y,x,-z
-y,-x,-z
-x,-y,-z
y,-x,-z
x,y,-z
-y,x,-z
-x,y,z
x,-y,z
-y,-x,z
y,x,z
1/2+x,1/2+y,1/2+z
1/2-y,1/2+x,1/2+z
1/2-x,1/2-y,1/2+z
1/2+y,1/2-x,1/2+z
1/2+x,1/2-y,1/2-z
1/2-x,1/2+y,1/2-z
1/2+y,1/2+x,1/2-z
1/2-y,1/2-x,1/2-z
1/2-x,1/2-y,1/2-z
1/2+y,1/2-x,1/2-z
1/2+x,1/2+y,1/2-z
1/2-y,1/2+x,1/2-z
1/2-x,1/2+y,1/2+z
1/2+x,1/2-y,1/2+z
1/2-y,1/2-x,1/2+z
1/2+y,1/2+x,1/2+z
loop_
_atom_site_type_symbol
_atom_site_label
_atom_site_fract_x
_atom_site_fract_y
_atom_site_fract_z
Si Si1 0.427597 0.742034 0.500000
Si Si2 0.374177 0.869801 0.000000
Si Si3 0.070737 0.570737 0.750000
Si Si4 0.874385 0.226976 0.500000
Si Si5 0.071341 0.829825 0.748482
O O1 0.500000 0.744905 0.500000
O O2 0.404305 0.810505 0.500000
O O3 0.403652 0.706600 0.373312
O O4 0.412755 0.887397 0.872834
O O5 0.358789 0.798211 0.000000
O O6 0.082417 0.500000 0.712948
O O7 0.810734 0.189266 0.500000
O O8 0.915413 0.211956 0.624482
O O9 0.105402 0.894599 0.736849
O O10 0.000000 0.844995 0.759327
#
# Coordination Sequence:
#
# PCOD8319921 Si02
#       5
#    16  16  16  16  32
#     4  10  21  37  57  84 115 147 187 231 276 332
#     4  12  23  39  63  83 111 157 195 224 280 348
#     4  11  24  40  59  88 120 146 185 240 284 327
#     4  10  23  39  56  83 115 147 189 240 281 324
#     4  10  21  38  59  84 115 148 185 233 284 334
#
# _framework density 19.604673999999999
#
# number of rings (size 3 to 8) (size 9 to 14) (size 15 to 20)
#    0.000    1.500    0.000    5.000    0.000    8.333 
#    0.000    4.167    0.000    6.000    0.000    0.000 
#    0.000    0.000    0.000    0.000    0.000    0.000 
#
# Total GULP energy -595487.321355 kJ/mol
# GULP energy per Si atom -12405.985862 kJ/mol
# Density = 1.956005 g / cm^3
# Si number density = 19.604674 Si / 1000 Ang^3
#
#
#
# Elastic Constant Matrix: (Units=GPa)
#
#
# Indices 1 2 3 4 5 6 
#
# 1 65.5201 21.3444 27.3634 0.0000 0.0000 0.0000
# 2 21.3444 65.5186 27.3632 0.0000 0.0000 0.0000
# 3 27.3634 27.3632 155.3949 0.0000 0.0000 0.0000
# 4 0.0000 0.0000 0.0000 -0.9372 0.0000 0.0000
# 5 0.0000 0.0000 0.0000 0.0000 -0.8808 0.0000
# 6 0.0000 0.0000 0.0000 0.0000 0.0000 22.0170
#
#
#
# Elastic Compliance Matrix: (Units=1/GPa)
#
#
# Indices 1 2 3 4 5 6 
#
# 1 0.017793 -0.004844 -0.002280 0.000000 0.000000 0.000000
# 2 -0.004844 0.017793 -0.002280 0.000000 0.000000 0.000000
# 3 -0.002280 -0.002280 0.007238 0.000000 0.000000 0.000000
# 4 0.000000 0.000000 0.000000 -1.067038 0.000000 0.000000
# 5 0.000000 0.000000 0.000000 0.000000 -1.135301 0.000000
# 6 0.000000 0.000000 0.000000 0.000000 0.000000 0.045419
#
#
# Mechanical properties :
#
#
# Convention : Reuss Voigt Hill
#
# Bulk Modulus (GPa) = 41.64008 48.73063 45.18536
# Shear Modulus (GPa) = -2.39546 18.06398 7.83426
#
# Velocity S-wave (km/s) = -1.10659 3.03877 2.00120
# Velocity P-wave (km/s) = 4.43320 6.10105 5.33273
#
# Compressibility (1/GPa) = 0.02401532
#
# Stress axis : x y z
#
# Youngs Moduli (GPa) = 56.20239 56.20104 138.15530
#
# Poissons Ratio (x) = 0.27225 0.31501
# Poissons Ratio (y) = 0.27226 0.31502
# Poissons Ratio (z) = 0.12815 0.12815
#
# Static dielectric constant tensor:
#      x y z
#    x 3.574820 0.000000 0.000000 
#    y 0.000000 3.574820 0.000000 
#    z 0.000000 0.000000 4.773130 
# 
# 
# High freq. dielectric constant tensor:
#      x y z
#    x 1.766510 0.000000 0.000000 
#    y 0.000000 1.766510 0.000000 
#    z 0.000000 0.000000 1.785960 
# 
# From -- ./inp_files/1214.got.cif
#   From: 2010.03.12/outbox.cif.g09.slc.cpg/sg139_1_cif.got.tgz:1214.got - 2010.04.08 09:46:31.
