data_PCOD8319030
_publ_section_title
;
Structure prediction by ZEFSAII (Michael W. Deem and Ramdas Pophale) SiO2 
 PCOD8319030
Probable space group: P 42/N C M
;
_chemical_formula_sum "Si O2"
_cell_formula_units_Z 112
_cell_length_a 14.846705
_cell_length_b 14.846705
_cell_length_c 26.329699
_cell_angle_alpha 90.000000
_cell_angle_beta 90.000000
_cell_angle_gamma 90.000000
_cell_volume 5803.714670
_symmetry_space_group_name_H-M "P 42/N C M"
_symmetry_group_IT_number 138
_space_group.IT_coordinate_system_code '2'
_symmetry_cell_setting 'tetragonal'
loop_
_space_group_symop_operation_xyz
x,y,z
1/2-y,x,1/2+z
1/2-x,1/2-y,z
y,1/2-x,1/2+z
1/2+x,-y,1/2-z
-x,1/2+y,1/2-z
1/2+y,1/2+x,-z
-y,-x,-z
-x,-y,-z
1/2+y,-x,1/2-z
1/2+x,1/2+y,-z
-y,1/2+x,1/2-z
1/2-x,y,1/2+z
x,1/2-y,1/2+z
1/2-y,1/2-x,z
y,x,z
loop_
_atom_site_type_symbol
_atom_site_label
_atom_site_fract_x
_atom_site_fract_y
_atom_site_fract_z
Si Si1 0.130253 0.518476 0.253330
Si Si2 0.103929 0.251487 0.997547
Si Si3 0.255868 0.393563 0.200749
Si Si4 0.316526 0.035741 0.102495
Si Si5 0.875404 0.169643 0.851228
Si Si6 0.367066 0.831753 0.841225
Si Si7 0.469626 0.617699 0.047981
O O1 0.221834 0.460366 0.244849
O O2 0.129237 0.557263 0.309661
O O3 0.127537 0.597109 0.211628
O O4 0.043011 0.456990 0.245301
O O5 0.159606 0.340395 0.976969
O O6 0.175823 0.175823 0.013022
O O7 0.030651 0.208875 0.958990
O O8 0.047626 0.274708 0.047475
O O9 0.189986 0.310015 0.195695
O O10 0.356283 0.356283 0.213336
O O11 0.257701 0.444123 0.146271
O O12 0.402259 0.097742 0.110825
O O13 0.349915 0.933736 0.111277
O O14 0.774851 0.145992 0.834950
O O15 0.885162 0.276954 0.854249
O O16 0.901404 0.129709 0.905663
O O17 0.534964 0.534964 0.060325
O O18 0.406766 0.593235 0.000000
#
# Coordination Sequence:
#
# PCOD8319030 Si02
#       7
#    16  16  16  16  16  16  16
#     4  10  20  36  57  80 108 137 172 220 268 320
#     4   9  17  31  53  80 110 145 181 223 283 342
#     4   8  14  26  46  74 105 133 163 206 261 317
#     4   9  16  30  53  79 107 136 174 225 275 319
#     4  11  22  38  57  76 105 147 186 216 263 323
#     4  10  21  37  55  78 107 141 178 217 261 320
#     4  10  21  38  59  83 110 139 183 238 277 315
#
# _framework density 19.297985000000001
#
# number of rings (size 3 to 8) (size 9 to 14) (size 15 to 20)
#    0.000    2.429    0.000    3.857    0.000    2.857 
#    0.000   17.857    0.000    5.143    0.000    0.000 
#    0.000    0.000    0.000    0.000    0.000    0.000 
#
# Total GULP energy -1388233.313995 kJ/mol
# GULP energy per Si atom -12394.940304 kJ/mol
# Density = 1.925406 g / cm^3
# Si number density = 19.297985 Si / 1000 Ang^3
#
#
#
# Elastic Constant Matrix: (Units=GPa)
#
#
# Indices 1 2 3 4 5 6 
#
# 1 74.7019 23.9458 36.4897 0.0000 0.0000 0.0000
# 2 23.9458 74.7013 36.4897 0.0000 0.0000 0.0000
# 3 36.4897 36.4897 92.4533 0.0000 0.0000 0.0000
# 4 0.0000 0.0000 0.0000 25.4143 0.0000 0.0000
# 5 0.0000 0.0000 0.0000 0.0000 25.4144 0.0000
# 6 0.0000 0.0000 0.0000 0.0000 0.0000 26.4222
#
#
#
# Elastic Compliance Matrix: (Units=1/GPa)
#
#
# Indices 1 2 3 4 5 6 
#
# 1 0.017010 -0.002692 -0.005651 0.000000 0.000000 0.000000
# 2 -0.002692 0.017010 -0.005651 0.000000 0.000000 0.000000
# 3 -0.005651 -0.005651 0.015277 0.000000 0.000000 0.000000
# 4 0.000000 0.000000 0.000000 0.039348 0.000000 0.000000
# 5 0.000000 0.000000 0.000000 0.000000 0.039348 0.000000
# 6 0.000000 0.000000 0.000000 0.000000 0.000000 0.037847
#
#
# Mechanical properties :
#
#
# Convention : Reuss Voigt Hill
#
# Bulk Modulus (GPa) = 46.92956 48.41189 47.67073
# Shear Modulus (GPa) = 24.88421 25.11225 24.99823
#
# Velocity S-wave (km/s) = 3.59482 3.61125 3.60304
# Velocity P-wave (km/s) = 6.44992 6.52144 6.48578
#
# Compressibility (1/GPa) = 0.02130853
#
# Stress axis : x y z
#
# Youngs Moduli (GPa) = 58.78946 58.78887 65.45818
#
# Poissons Ratio (x) = 0.15827 0.36990
# Poissons Ratio (y) = 0.15828 0.36990
# Poissons Ratio (z) = 0.33221 0.33221
#
# Static dielectric constant tensor:
#      x y z
#    x 3.683520 0.000000 0.000000 
#    y 0.000000 3.683520 0.000000 
#    z 0.000000 0.000000 3.280260 
# 
# 
# High freq. dielectric constant tensor:
#      x y z
#    x 1.751580 0.000000 0.000000 
#    y 0.000000 1.751580 0.000000 
#    z 0.000000 0.000000 1.729390 
# 
# From -- ./inp_files/7095.got.cif
#   From: 2010.03.12/outbox.cif.g09.slc.cpg/sg138_4_cif.got.tgz:7095.got - 2010.04.08 09:41:05.
