data_PCOD8319116
_publ_section_title
;
Structure prediction by ZEFSAII (Michael W. Deem and Ramdas Pophale) SiO2 
 PCOD8319116
Probable space group: P 42/N C M
;
_chemical_formula_sum "Si O2"
_cell_formula_units_Z 64
_cell_length_a 11.567686
_cell_length_b 11.567686
_cell_length_c 20.349645
_cell_angle_alpha 90.000000
_cell_angle_beta 90.000000
_cell_angle_gamma 90.000000
_cell_volume 2723.013661
_symmetry_space_group_name_H-M "P 42/N C M"
_symmetry_group_IT_number 138
_space_group.IT_coordinate_system_code '2'
_symmetry_cell_setting 'tetragonal'
loop_
_space_group_symop_operation_xyz
x,y,z
1/2-y,x,1/2+z
1/2-x,1/2-y,z
y,1/2-x,1/2+z
1/2+x,-y,1/2-z
-x,1/2+y,1/2-z
1/2+y,1/2+x,-z
-y,-x,-z
-x,-y,-z
1/2+y,-x,1/2-z
1/2+x,1/2+y,-z
-y,1/2+x,1/2-z
1/2-x,y,1/2+z
x,1/2-y,1/2+z
1/2-y,1/2-x,z
y,x,z
loop_
_atom_site_type_symbol
_atom_site_label
_atom_site_fract_x
_atom_site_fract_y
_atom_site_fract_z
Si Si1 0.789848 0.526878 0.128752
Si Si2 0.752594 0.937509 0.269781
Si Si3 0.437472 0.253343 0.012542
Si Si4 0.711058 0.383270 0.377866
O O1 0.848452 0.651549 0.129305
O O2 0.715398 0.518707 0.195904
O O3 0.886260 0.427027 0.127620
O O4 0.714703 0.521580 0.061804
O O5 0.631360 0.868641 0.269232
O O6 0.855318 0.855318 0.296537
O O7 0.736655 0.048726 0.315774
O O8 0.369466 0.130535 0.014549
O O9 0.354339 0.354339 0.039506
O O10 0.552671 0.249235 0.055777
O O11 0.750000 0.250000 0.378216
#
# Coordination Sequence:
#
# PCOD8319116 Si02
#       4
#    16  16  16  16
#     4  10  22  40  67 100 133 172 222 282 340 396
#     4  10  22  43  70  98 129 175 233 282 328 393
#     4  10  21  43  73 100 129 174 231 281 328 393
#     4  12  26  40  61  97 140 181 221 272 338 406
#
# _framework density 23.50337
#
# number of rings (size 3 to 8) (size 9 to 14) (size 15 to 20)
#    0.000    1.500    0.000    4.500    3.500    9.000 
#    0.000    5.000    0.000    0.000    0.000    0.000 
#    0.000    0.000    0.000    0.000    0.000    0.000 
#
# Total GULP energy -793454.301492 kJ/mol
# GULP energy per Si atom -12397.723461 kJ/mol
# Density = 2.344987 g / cm^3
# Si number density = 23.503370 Si / 1000 Ang^3
#
#
#
# Elastic Constant Matrix: (Units=GPa)
#
#
# Indices 1 2 3 4 5 6 
#
# 1 115.8556 33.6978 58.4960 0.0000 0.0000 0.0000
# 2 33.6978 115.8556 58.4960 0.0000 0.0000 0.0000
# 3 58.4960 58.4960 187.1453 0.0000 0.0000 0.0000
# 4 0.0000 0.0000 0.0000 15.5610 0.0000 0.0000
# 5 0.0000 0.0000 0.0000 0.0000 15.5610 0.0000
# 6 0.0000 0.0000 0.0000 0.0000 0.0000 30.1244
#
#
#
# Elastic Compliance Matrix: (Units=1/GPa)
#
#
# Indices 1 2 3 4 5 6 
#
# 1 0.010511 -0.001660 -0.002766 0.000000 0.000000 0.000000
# 2 -0.001660 0.010511 -0.002766 0.000000 0.000000 0.000000
# 3 -0.002766 -0.002766 0.007073 0.000000 0.000000 0.000000
# 4 0.000000 0.000000 0.000000 0.064263 0.000000 0.000000
# 5 0.000000 0.000000 0.000000 0.000000 0.064263 0.000000
# 6 0.000000 0.000000 0.000000 0.000000 0.000000 0.033196
#
#
# Mechanical properties :
#
#
# Convention : Reuss Voigt Hill
#
# Bulk Modulus (GPa) = 72.94778 80.02622 76.48700
# Shear Modulus (GPa) = 23.94933 30.12704 27.03818
#
# Velocity S-wave (km/s) = 3.19560 3.58413 3.39543
# Velocity P-wave (km/s) = 6.68733 7.15896 6.92716
#
# Compressibility (1/GPa) = 0.01370844
#
# Stress axis : x y z
#
# Youngs Moduli (GPa) = 95.13652 95.13652 141.38530
#
# Poissons Ratio (x) = 0.15797 0.39114
# Poissons Ratio (y) = 0.15797 0.39114
# Poissons Ratio (z) = 0.26319 0.26319
#
# Static dielectric constant tensor:
#      x y z
#    x 4.059480 0.000000 0.000000 
#    y 0.000000 4.059480 0.000000 
#    z 0.000000 0.000000 4.525500 
# 
# 
# High freq. dielectric constant tensor:
#      x y z
#    x 1.916020 0.000000 0.000000 
#    y 0.000000 1.916020 0.000000 
#    z 0.000000 0.000000 1.948890 
# 
# From -- ./inp_files/5821.got.cif
#   From: 2010.03.12/outbox.cif.g09.slc.cpg/sg138_3_cif.got.tgz:5821.got - 2010.04.08 09:41:05.
