data_PCOD8319738
_publ_section_title
;
Structure prediction by ZEFSAII (Michael W. Deem and Ramdas Pophale) SiO2 
 PCOD8319738
Probable space group: I 4/M M M
;
_chemical_formula_sum "Si O2"
_cell_formula_units_Z 96
_cell_length_a 13.399012
_cell_length_b 13.399012
_cell_length_c 30.714545
_cell_angle_alpha 90.000000
_cell_angle_beta 90.000000
_cell_angle_gamma 90.000000
_cell_volume 5514.290458
_symmetry_space_group_name_H-M "I 4/M M M"
_symmetry_group_IT_number 139
_symmetry_cell_setting 'tetragonal'
loop_
_space_group_symop_operation_xyz
x,y,z
-y,x,z
-x,-y,z
y,-x,z
x,-y,-z
-x,y,-z
y,x,-z
-y,-x,-z
-x,-y,-z
y,-x,-z
x,y,-z
-y,x,-z
-x,y,z
x,-y,z
-y,-x,z
y,x,z
1/2+x,1/2+y,1/2+z
1/2-y,1/2+x,1/2+z
1/2-x,1/2-y,1/2+z
1/2+y,1/2-x,1/2+z
1/2+x,1/2-y,1/2-z
1/2-x,1/2+y,1/2-z
1/2+y,1/2+x,1/2-z
1/2-y,1/2-x,1/2-z
1/2-x,1/2-y,1/2-z
1/2+y,1/2-x,1/2-z
1/2+x,1/2+y,1/2-z
1/2-y,1/2+x,1/2-z
1/2-x,1/2+y,1/2+z
1/2+x,1/2-y,1/2+z
1/2-y,1/2-x,1/2+z
1/2+y,1/2+x,1/2+z
loop_
_atom_site_type_symbol
_atom_site_label
_atom_site_fract_x
_atom_site_fract_y
_atom_site_fract_z
Si Si1 0.883457 0.277574 0.338169
Si Si2 0.611436 0.881712 0.000000
Si Si3 0.614518 0.885482 0.250000
Si Si4 0.883253 0.278222 0.913247
O O1 0.825348 0.174653 0.346782
O O2 0.854277 0.318439 0.290782
O O3 0.852762 0.360265 0.373568
O O4 0.000000 0.255143 0.342175
O O5 0.669810 0.844971 0.957388
O O6 0.500000 0.835382 0.000000
O O7 0.603761 0.000000 0.000000
O O8 0.500000 0.867374 0.263028
O O9 0.826212 0.173789 0.906979
O O10 0.000000 0.253956 0.914634
#
# Coordination Sequence:
#
# PCOD8319738 Si02
#       4
#    32  16  16  32
#     4  10  20  33  50  72  98 129 165 204 245 290
#     4   9  17  30  49  71  95 125 161 199 236 277
#     4   9  17  30  50  74  97 123 158 200 245 293
#     4  10  20  33  50  73 100 130 165 204 247 295
#
# _framework density 17.409313000000001
#
# number of rings (size 3 to 8) (size 9 to 14) (size 15 to 20)
#    0.000    2.333    0.000    3.000    0.000    4.000 
#    0.000    0.000    0.000    3.000    0.000    4.667 
#    0.000   12.000    0.000    0.000    0.000    0.000 
#
# Total GULP energy -595317.548843 kJ/mol
# GULP energy per Si atom -12402.448934 kJ/mol
# Density = 1.736969 g / cm^3
# Si number density = 17.409313 Si / 1000 Ang^3
#
#
#
# Elastic Constant Matrix: (Units=GPa)
#
#
# Indices 1 2 3 4 5 6 
#
# 1 83.9766 37.4811 42.7314 0.0000 0.0000 0.0000
# 2 37.4811 83.9770 42.7317 0.0000 0.0000 0.0000
# 3 42.7314 42.7317 116.8707 0.0000 0.0000 0.0000
# 4 0.0000 0.0000 0.0000 27.1321 0.0000 0.0000
# 5 0.0000 0.0000 0.0000 0.0000 27.1321 0.0000
# 6 0.0000 0.0000 0.0000 0.0000 0.0000 16.4819
#
#
#
# Elastic Compliance Matrix: (Units=1/GPa)
#
#
# Indices 1 2 3 4 5 6 
#
# 1 0.016296 -0.005211 -0.004053 0.000000 0.000000 0.000000
# 2 -0.005211 0.016296 -0.004053 0.000000 0.000000 0.000000
# 3 -0.004053 -0.004053 0.011520 0.000000 0.000000 0.000000
# 4 0.000000 0.000000 0.000000 0.036857 0.000000 0.000000
# 5 0.000000 0.000000 0.000000 0.000000 0.036857 0.000000
# 6 0.000000 0.000000 0.000000 0.000000 0.000000 0.060673
#
#
# Mechanical properties :
#
#
# Convention : Reuss Voigt Hill
#
# Bulk Modulus (GPa) = 57.21343 58.96806 58.09074
# Shear Modulus (GPa) = 23.70119 24.94121 24.32120
#
# Velocity S-wave (km/s) = 3.69373 3.78912 3.74173
# Velocity P-wave (km/s) = 7.15028 7.28618 7.21855
#
# Compressibility (1/GPa) = 0.01747842
#
# Stress axis : x y z
#
# Youngs Moduli (GPa) = 61.36350 61.36369 86.80286
#
# Poissons Ratio (x) = 0.31977 0.35182
# Poissons Ratio (y) = 0.31977 0.35182
# Poissons Ratio (z) = 0.24871 0.24872
#
# Static dielectric constant tensor:
#      x y z
#    x 3.058160 0.000000 0.000000 
#    y 0.000000 3.058140 0.000000 
#    z 0.000000 0.000000 3.430270 
# 
# 
# High freq. dielectric constant tensor:
#      x y z
#    x 1.662680 0.000000 0.000000 
#    y 0.000000 1.662680 0.000000 
#    z 0.000000 0.000000 1.690600 
# 
# From -- ./inp_files/12533.got.cif
#   From: 2010.03.12/outbox.cif.g09.slc.cpg/sg139_7_cif.got.tgz:12533.got - 2010.04.08 09:46:31.
