data_PCOD8319027
_publ_section_title
;
Structure prediction by ZEFSAII (Michael W. Deem and Ramdas Pophale) SiO2 
 PCOD8319027
Probable space group: P 42/N C M
;
_chemical_formula_sum "Si O2"
_cell_formula_units_Z 80
_cell_length_a 13.051430
_cell_length_b 13.051430
_cell_length_c 24.664388
_cell_angle_alpha 90.000000
_cell_angle_beta 90.000000
_cell_angle_gamma 90.000000
_cell_volume 4201.327537
_symmetry_space_group_name_H-M "P 42/N C M"
_symmetry_group_IT_number 138
_space_group.IT_coordinate_system_code '2'
_symmetry_cell_setting 'tetragonal'
loop_
_space_group_symop_operation_xyz
x,y,z
1/2-y,x,1/2+z
1/2-x,1/2-y,z
y,1/2-x,1/2+z
1/2+x,-y,1/2-z
-x,1/2+y,1/2-z
1/2+y,1/2+x,-z
-y,-x,-z
-x,-y,-z
1/2+y,-x,1/2-z
1/2+x,1/2+y,-z
-y,1/2+x,1/2-z
1/2-x,y,1/2+z
x,1/2-y,1/2+z
1/2-y,1/2-x,z
y,x,z
loop_
_atom_site_type_symbol
_atom_site_label
_atom_site_fract_x
_atom_site_fract_y
_atom_site_fract_z
Si Si1 0.340892 0.989896 0.127800
Si Si2 0.916850 0.753377 0.269679
Si Si3 0.250066 0.082527 0.934431
Si Si4 0.001854 0.667376 0.168190
Si Si5 0.411965 0.756118 0.982377
O O1 0.397679 0.900608 0.161175
O O2 0.270170 0.940484 0.080871
O O3 0.424320 0.075681 0.107031
O O4 0.261886 0.036681 0.170482
O O5 0.840105 0.659896 0.272772
O O6 0.858239 0.858239 0.253556
O O7 0.004387 0.732084 0.224245
O O8 0.353690 0.146311 0.942628
O O9 0.153897 0.153897 0.924174
O O10 0.257061 0.006200 0.883281
O O11 0.232542 0.018041 0.988405
O O12 0.899275 0.600726 0.169164
O O13 0.365175 0.865175 0.000000
O O14 0.333578 0.666423 0.000000
#
# Coordination Sequence:
#
# PCOD8319027 Si02
#       5
#    16  16  16  16  16
#     4  10  20  36  60  84 109 151 196 233 284 349
#     4   9  18  34  56  83 115 147 184 235 286 335
#     4  10  20  35  60  88 109 142 193 241 285 336
#     4   9  17  33  56  83 113 143 183 230 278 334
#     4  11  23  39  56  79 117 155 190 235 291 344
#
# _framework density 19.041601
#
# number of rings (size 3 to 8) (size 9 to 14) (size 15 to 20)
#    0.000    2.200    2.000    1.200    0.000    4.400 
#    3.600    2.000    0.000    0.000    0.000    0.000 
#    0.000    0.000    0.000    0.000    0.000    0.000 
#
# Total GULP energy -991635.242693 kJ/mol
# GULP energy per Si atom -12395.440534 kJ/mol
# Density = 1.899826 g / cm^3
# Si number density = 19.041601 Si / 1000 Ang^3
#
#
#
# Elastic Constant Matrix: (Units=GPa)
#
#
# Indices 1 2 3 4 5 6 
#
# 1 49.2548 11.8258 36.9190 0.0000 0.0000 0.0000
# 2 11.8258 49.2541 36.9189 0.0000 0.0000 0.0000
# 3 36.9190 36.9189 135.4808 0.0000 0.0000 0.0000
# 4 0.0000 0.0000 0.0000 34.9554 0.0000 0.0000
# 5 0.0000 0.0000 0.0000 0.0000 34.9555 0.0000
# 6 0.0000 0.0000 0.0000 0.0000 0.0000 6.3590
#
#
#
# Elastic Compliance Matrix: (Units=1/GPa)
#
#
# Indices 1 2 3 4 5 6 
#
# 1 0.025566 -0.001151 -0.006653 0.000000 0.000000 0.000000
# 2 -0.001151 0.025566 -0.006653 0.000000 0.000000 0.000000
# 3 -0.006653 -0.006653 0.011007 0.000000 0.000000 0.000000
# 4 0.000000 0.000000 0.000000 0.028608 0.000000 0.000000
# 5 0.000000 0.000000 0.000000 0.000000 0.028608 0.000000
# 6 0.000000 0.000000 0.000000 0.000000 0.000000 0.157257
#
#
# Mechanical properties :
#
#
# Convention : Reuss Voigt Hill
#
# Bulk Modulus (GPa) = 30.09871 45.03524 37.56698
# Shear Modulus (GPa) = 15.79274 25.14238 20.46756
#
# Velocity S-wave (km/s) = 2.88302 3.63766 3.28210
# Velocity P-wave (km/s) = 5.18879 6.43007 5.84249
#
# Compressibility (1/GPa) = 0.03322401
#
# Stress axis : x y z
#
# Youngs Moduli (GPa) = 39.11470 39.11405 90.85069
#
# Poissons Ratio (x) = 0.04504 0.60443
# Poissons Ratio (y) = 0.04504 0.60444
# Poissons Ratio (z) = 0.26023 0.26023
#
# Static dielectric constant tensor:
#      x y z
#    x 3.353830 0.000000 0.000000 
#    y 0.000000 3.353830 0.000000 
#    z 0.000000 0.000000 3.676910 
# 
# 
# High freq. dielectric constant tensor:
#      x y z
#    x 1.724630 0.000000 0.000000 
#    y 0.000000 1.724630 0.000000 
#    z 0.000000 0.000000 1.748200 
# 
# From -- ./inp_files/6023.got.cif
#   From: 2010.03.12/outbox.cif.g09.slc.cpg/sg138_4_cif.got.tgz:6023.got - 2010.04.08 09:41:05.
