data_PCOD8319178
_publ_section_title
;
Structure prediction by ZEFSAII (Michael W. Deem and Ramdas Pophale) SiO2 
 PCOD8319178
Probable space group: P 42/N C M
;
_chemical_formula_sum "Si O2"
_cell_formula_units_Z 60
_cell_length_a 12.911731
_cell_length_b 12.911731
_cell_length_c 16.220276
_cell_angle_alpha 90.000000
_cell_angle_beta 90.000000
_cell_angle_gamma 90.000000
_cell_volume 2704.127587
_symmetry_space_group_name_H-M "P 42/N C M"
_symmetry_group_IT_number 138
_space_group.IT_coordinate_system_code '2'
_symmetry_cell_setting 'tetragonal'
loop_
_space_group_symop_operation_xyz
x,y,z
1/2-y,x,1/2+z
1/2-x,1/2-y,z
y,1/2-x,1/2+z
1/2+x,-y,1/2-z
-x,1/2+y,1/2-z
1/2+y,1/2+x,-z
-y,-x,-z
-x,-y,-z
1/2+y,-x,1/2-z
1/2+x,1/2+y,-z
-y,1/2+x,1/2-z
1/2-x,y,1/2+z
x,1/2-y,1/2+z
1/2-y,1/2-x,z
y,x,z
loop_
_atom_site_type_symbol
_atom_site_label
_atom_site_fract_x
_atom_site_fract_y
_atom_site_fract_z
Si Si1 0.250000 0.250000 0.638705
Si Si2 0.976166 0.523835 0.321498
Si Si3 0.888894 0.611107 0.476233
Si Si4 0.681653 0.099926 0.227693
Si Si5 0.548602 0.788095 0.093873
Si Si6 0.646461 0.646461 0.216917
O O1 0.178668 0.321333 0.584187
O O2 0.174222 0.174222 0.689697
O O3 0.963914 0.536087 0.421539
O O4 0.866791 0.490452 0.283446
O O5 0.059662 0.440339 0.293776
O O6 0.808436 0.542656 0.530443
O O7 0.615091 0.203892 0.235745
O O8 0.682364 0.065607 0.130155
O O9 0.611610 0.888391 0.057691
O O10 0.609339 0.751589 0.174688
#
# Coordination Sequence:
#
# PCOD8319178 Si02
#       6
#     4   8   8  16  16   8
#     4  12  20  40  70 106 132 174 244 286 350 390
#     4  12  24  42  70 100 131 182 241 275 351 416
#     4  11  25  38  68 107 142 179 224 299 348 425
#     4  11  24  43  68  99 135 181 239 291 341 418
#     4  11  20  42  64 100 141 172 225 292 353 399
#     4  11  21  36  69  97 129 184 232 295 317 407
#
# _framework density 22.188300000000002
#
# number of rings (size 3 to 8) (size 9 to 14) (size 15 to 20)
#    0.000    0.800    6.667    2.400    0.000    2.133 
#    0.000    1.333    0.000    6.400    0.000    0.000 
#    0.000    0.000    0.000    0.000    0.000    0.000 
#
# Total GULP energy -743556.013747 kJ/mol
# GULP energy per Si atom -12392.600229 kJ/mol
# Density = 2.213780 g / cm^3
# Si number density = 22.188300 Si / 1000 Ang^3
#
#
#
# Elastic Constant Matrix: (Units=GPa)
#
#
# Indices 1 2 3 4 5 6 
#
# 1 86.9974 69.5884 47.5788 0.0000 0.0000 0.0000
# 2 69.5884 86.9974 47.5788 0.0000 0.0000 0.0000
# 3 47.5788 47.5788 126.0503 0.0000 0.0000 0.0000
# 4 0.0000 0.0000 0.0000 35.1573 0.0000 0.0000
# 5 0.0000 0.0000 0.0000 0.0000 35.1573 0.0000
# 6 0.0000 0.0000 0.0000 0.0000 0.0000 51.7396
#
#
#
# Elastic Compliance Matrix: (Units=1/GPa)
#
#
# Indices 1 2 3 4 5 6 
#
# 1 0.032864 -0.024577 -0.003128 0.000000 0.000000 0.000000
# 2 -0.024577 0.032864 -0.003128 0.000000 0.000000 0.000000
# 3 -0.003128 -0.003128 0.010295 0.000000 0.000000 0.000000
# 4 0.000000 0.000000 0.000000 0.028444 0.000000 0.000000
# 5 0.000000 0.000000 0.000000 0.000000 0.028444 0.000000
# 6 0.000000 0.000000 0.000000 0.000000 0.000000 0.019328
#
#
# Mechanical properties :
#
#
# Convention : Reuss Voigt Hill
#
# Bulk Modulus (GPa) = 69.65297 69.94857 69.80077
# Shear Modulus (GPa) = 22.86338 33.43080 28.14709
#
# Velocity S-wave (km/s) = 3.21351 3.88582 3.56554
# Velocity P-wave (km/s) = 6.72523 7.19209 6.96258
#
# Compressibility (1/GPa) = 0.01435689
#
# Stress axis : x y z
#
# Youngs Moduli (GPa) = 30.42813 30.42813 97.13647
#
# Poissons Ratio (x) = 0.74784 0.30385
# Poissons Ratio (y) = 0.74784 0.30385
# Poissons Ratio (z) = 0.09518 0.09518
#
# Static dielectric constant tensor:
#      x y z
#    x 3.927520 0.000000 0.000000 
#    y 0.000000 3.927520 0.000000 
#    z 0.000000 0.000000 3.980910 
# 
# 
# High freq. dielectric constant tensor:
#      x y z
#    x 1.878440 0.000000 0.000000 
#    y 0.000000 1.878440 0.000000 
#    z 0.000000 0.000000 1.853150 
# 
# From -- ./inp_files/3968.got.cif
#   From: 2010.03.12/outbox.cif.g09.slc.cpg/sg138_2_cif.got.tgz:3968.got - 2010.04.08 09:41:05.
