data_PCOD8319714
_publ_section_title
;
Structure prediction by ZEFSAII (Michael W. Deem and Ramdas Pophale) SiO2 
 PCOD8319714
Probable space group: I 4/M M M
;
_chemical_formula_sum "Si O2"
_cell_formula_units_Z 176
_cell_length_a 18.118940
_cell_length_b 18.118940
_cell_length_c 27.758489
_cell_angle_alpha 90.000000
_cell_angle_beta 90.000000
_cell_angle_gamma 90.000000
_cell_volume 9113.000536
_symmetry_space_group_name_H-M "I 4/M M M"
_symmetry_group_IT_number 139
_symmetry_cell_setting 'tetragonal'
loop_
_space_group_symop_operation_xyz
x,y,z
-y,x,z
-x,-y,z
y,-x,z
x,-y,-z
-x,y,-z
y,x,-z
-y,-x,-z
-x,-y,-z
y,-x,-z
x,y,-z
-y,x,-z
-x,y,z
x,-y,z
-y,-x,z
y,x,z
1/2+x,1/2+y,1/2+z
1/2-y,1/2+x,1/2+z
1/2-x,1/2-y,1/2+z
1/2+y,1/2-x,1/2+z
1/2+x,1/2-y,1/2-z
1/2-x,1/2+y,1/2-z
1/2+y,1/2+x,1/2-z
1/2-y,1/2-x,1/2-z
1/2-x,1/2-y,1/2-z
1/2+y,1/2-x,1/2-z
1/2+x,1/2+y,1/2-z
1/2-y,1/2+x,1/2-z
1/2-x,1/2+y,1/2+z
1/2+x,1/2-y,1/2+z
1/2-y,1/2-x,1/2+z
1/2+y,1/2+x,1/2+z
loop_
_atom_site_type_symbol
_atom_site_label
_atom_site_fract_x
_atom_site_fract_y
_atom_site_fract_z
Si Si1 0.415632 0.799659 0.142224
Si Si2 0.700911 0.585788 0.600760
Si Si3 0.919062 0.500000 0.556999
Si Si4 0.272613 0.846095 0.188958
Si Si5 0.339454 0.852715 0.055680
Si Si6 0.800895 0.917660 0.726023
O O1 0.500000 0.831750 0.140131
O O2 0.358455 0.849999 0.173189
O O3 0.379609 0.790285 0.088661
O O4 0.417603 0.721258 0.169631
O O5 0.701050 0.500000 0.585776
O O6 0.618425 0.618425 0.594214
O O7 0.727321 0.596542 0.655596
O O8 0.753186 0.635484 0.565796
O O9 0.923297 0.500000 0.500000
O O10 0.877026 0.427870 0.574434
O O11 0.000000 0.500000 0.580264
O O12 0.236387 0.763614 0.182947
O O13 0.262298 0.873523 0.243945
O O14 0.353540 0.832885 0.000000
O O15 0.879851 0.879851 0.732687
O O16 0.807793 0.000000 0.746243
#
# Coordination Sequence:
#
# PCOD8319714 Si02
#       6
#    32  32  16  32  32  32
#     4  10  20  32  51  80 109 139 176 216 260 314
#     4  10  20  34  53  78 106 139 179 222 270 320
#     4   9  16  28  50  74  95 125 163 205 260 310
#     4   9  18  34  56  78 105 144 183 217 259 313
#     4  10  20  35  53  74 104 138 176 222 267 315
#     4  10  20  35  57  82 108 139 175 217 265 316
#
# _framework density 19.313067
#
# number of rings (size 3 to 8) (size 9 to 14) (size 15 to 20)
#    0.000    2.273    0.909    2.182    0.000    4.000 
#    0.000    0.000    2.000    3.273    0.000    1.273 
#    0.000    0.000    0.000    4.000    0.000    0.000 
#
# Total GULP energy -1090445.404351 kJ/mol
# GULP energy per Si atom -12391.425049 kJ/mol
# Density = 1.926911 g / cm^3
# Si number density = 19.313067 Si / 1000 Ang^3
#
#
#
# Elastic Constant Matrix: (Units=GPa)
#
#
# Indices 1 2 3 4 5 6 
#
# 1 94.3245 43.2783 29.7534 0.0000 0.0000 0.0000
# 2 43.2783 94.3245 29.7534 0.0000 0.0000 0.0000
# 3 29.7534 29.7534 112.2964 0.0000 0.0000 0.0000
# 4 0.0000 0.0000 0.0000 18.8052 0.0000 0.0000
# 5 0.0000 0.0000 0.0000 0.0000 18.8052 0.0000
# 6 0.0000 0.0000 0.0000 0.0000 0.0000 22.7251
#
#
#
# Elastic Compliance Matrix: (Units=1/GPa)
#
#
# Indices 1 2 3 4 5 6 
#
# 1 0.013899 -0.005691 -0.002175 0.000000 0.000000 0.000000
# 2 -0.005691 0.013899 -0.002175 0.000000 0.000000 0.000000
# 3 -0.002175 -0.002175 0.010057 0.000000 0.000000 0.000000
# 4 0.000000 0.000000 0.000000 0.053177 0.000000 0.000000
# 5 0.000000 0.000000 0.000000 0.000000 0.053177 0.000000
# 6 0.000000 0.000000 0.000000 0.000000 0.000000 0.044004
#
#
# Mechanical properties :
#
#
# Convention : Reuss Voigt Hill
#
# Bulk Modulus (GPa) = 56.26146 56.27953 56.27050
# Shear Modulus (GPa) = 23.34065 25.27780 24.30922
#
# Velocity S-wave (km/s) = 3.48018 3.62172 3.55166
# Velocity P-wave (km/s) = 6.73375 6.83323 6.78367
#
# Compressibility (1/GPa) = 0.01777416
#
# Stress axis : x y z
#
# Youngs Moduli (GPa) = 71.94805 71.94805 99.42938
#
# Poissons Ratio (x) = 0.40947 0.21623
# Poissons Ratio (y) = 0.40947 0.21623
# Poissons Ratio (z) = 0.15646 0.15646
#
# Static dielectric constant tensor:
#      x y z
#    x 3.462060 0.000000 0.000000 
#    y 0.000000 3.462060 0.000000 
#    z 0.000000 0.000000 3.553020 
# 
# 
# High freq. dielectric constant tensor:
#      x y z
#    x 1.734310 0.000000 0.000000 
#    y 0.000000 1.734310 0.000000 
#    z 0.000000 0.000000 1.750910 
# 
# From -- ./inp_files/14243.got.cif
#   From: 2010.03.12/outbox.cif.g09.slc.cpg/sg139_8_cif.got.tgz:14243.got - 2010.04.08 09:46:31.
