data_PCOD8319249
_publ_section_title
;
Structure prediction by ZEFSAII (Michael W. Deem and Ramdas Pophale) SiO2 
 PCOD8319249
Probable space group: I 4/M M M
;
_chemical_formula_sum "Si O2"
_cell_formula_units_Z 144
_cell_length_a 23.352310
_cell_length_b 23.352310
_cell_length_c 17.092957
_cell_angle_alpha 90.000000
_cell_angle_beta 90.000000
_cell_angle_gamma 90.000000
_cell_volume 9321.308776
_symmetry_space_group_name_H-M "I 4/M M M"
_symmetry_group_IT_number 139
_symmetry_cell_setting 'tetragonal'
loop_
_space_group_symop_operation_xyz
x,y,z
-y,x,z
-x,-y,z
y,-x,z
x,-y,-z
-x,y,-z
y,x,-z
-y,-x,-z
-x,-y,-z
y,-x,-z
x,y,-z
-y,x,-z
-x,y,z
x,-y,z
-y,-x,z
y,x,z
1/2+x,1/2+y,1/2+z
1/2-y,1/2+x,1/2+z
1/2-x,1/2-y,1/2+z
1/2+y,1/2-x,1/2+z
1/2+x,1/2-y,1/2-z
1/2-x,1/2+y,1/2-z
1/2+y,1/2+x,1/2-z
1/2-y,1/2-x,1/2-z
1/2-x,1/2-y,1/2-z
1/2+y,1/2-x,1/2-z
1/2+x,1/2+y,1/2-z
1/2-y,1/2+x,1/2-z
1/2-x,1/2+y,1/2+z
1/2+x,1/2-y,1/2+z
1/2-y,1/2-x,1/2+z
1/2+y,1/2+x,1/2+z
loop_
_atom_site_type_symbol
_atom_site_label
_atom_site_fract_x
_atom_site_fract_y
_atom_site_fract_z
Si Si1 0.839009 0.933173 0.500000
Si Si2 0.436799 0.935845 0.092932
Si Si3 0.163009 0.356052 0.588281
Si Si4 0.249745 0.660929 0.713055
Si Si5 0.633668 0.728120 0.123238
O O1 0.898651 0.898651 0.500000
O O2 0.802049 0.918134 0.422743
O O3 0.853514 0.000000 0.500000
O O4 0.500000 0.918818 0.124967
O O5 0.389614 0.891902 0.125496
O O6 0.421182 0.000000 0.120795
O O7 0.437921 0.932786 0.000000
O O8 0.176804 0.376076 0.500000
O O9 0.219133 0.370352 0.640468
O O10 0.145896 0.289800 0.586657
O O11 0.305774 0.694227 0.681481
O O12 0.205503 0.705503 0.750000
O O13 0.267380 0.617934 0.784001
O O14 0.691794 0.691794 0.112258
#
# Coordination Sequence:
#
# PCOD8319249 Si02
#       5
#    16  32  32  32  32
#     4  10  20  33  50  70  93 119 147 181 221 269
#     4   8  15  27  39  52  75 108 144 181 220 256
#     4  10  16  23  41  67  84 109 150 190 218 262
#     4   8  15  26  40  58  85 115 137 167 217 267
#     4   9  17  30  44  62  89 116 142 176 220 267
#
# _framework density 15.448475
#
# number of rings (size 3 to 8) (size 9 to 14) (size 15 to 20)
#    0.000    3.111    1.111    2.667    0.000    2.333 
#    0.000    1.111    0.000    8.000    0.000   14.000 
#    0.000    0.000    0.000    0.000    0.000    0.222 
#
# Total GULP energy -892204.639045 kJ/mol
# GULP energy per Si atom -12391.731098 kJ/mol
# Density = 1.541331 g / cm^3
# Si number density = 15.448475 Si / 1000 Ang^3
#
#
#
# Elastic Constant Matrix: (Units=GPa)
#
#
# Indices 1 2 3 4 5 6 
#
# 1 78.5096 43.6304 41.6682 0.0000 0.0000 0.0000
# 2 43.6304 78.5096 41.6682 0.0000 0.0000 0.0000
# 3 41.6682 41.6682 81.9703 0.0000 0.0000 0.0000
# 4 0.0000 0.0000 0.0000 8.7076 0.0000 0.0000
# 5 0.0000 0.0000 0.0000 0.0000 8.7076 0.0000
# 6 0.0000 0.0000 0.0000 0.0000 0.0000 22.5952
#
#
#
# Elastic Compliance Matrix: (Units=1/GPa)
#
#
# Indices 1 2 3 4 5 6 
#
# 1 0.020603 -0.008068 -0.006372 0.000000 0.000000 0.000000
# 2 -0.008068 0.020603 -0.006372 0.000000 0.000000 0.000000
# 3 -0.006372 -0.006372 0.018678 0.000000 0.000000 0.000000
# 4 0.000000 0.000000 0.000000 0.114843 0.000000 0.000000
# 5 0.000000 0.000000 0.000000 0.000000 0.114843 0.000000
# 6 0.000000 0.000000 0.000000 0.000000 0.000000 0.044257
#
#
# Mechanical properties :
#
#
# Convention : Reuss Voigt Hill
#
# Bulk Modulus (GPa) = 54.76506 54.76924 54.76715
# Shear Modulus (GPa) = 13.10495 15.47025 14.28760
#
# Velocity S-wave (km/s) = 2.91572 3.16794 3.04444
# Velocity P-wave (km/s) = 6.84561 6.99363 6.92002
#
# Compressibility (1/GPa) = 0.01825982
#
# Stress axis : x y z
#
# Youngs Moduli (GPa) = 48.53753 48.53753 53.53993
#
# Poissons Ratio (x) = 0.39159 0.34115
# Poissons Ratio (y) = 0.39159 0.34115
# Poissons Ratio (z) = 0.30928 0.30928
#
# Static dielectric constant tensor:
#      x y z
#    x 2.900660 0.000000 0.000000 
#    y 0.000000 2.900660 0.000000 
#    z 0.000000 0.000000 3.180330 
# 
# 
# High freq. dielectric constant tensor:
#      x y z
#    x 1.567750 0.000000 0.000000 
#    y 0.000000 1.567750 0.000000 
#    z 0.000000 0.000000 1.584920 
# 
# From -- ./inp_files/8562.got.cif
#   From: 2010.03.12/outbox.cif.g09.slc.cpg/sg139_5_cif.got.tgz:8562.got - 2010.04.08 09:46:31.
