data_PCOD8319168
_publ_section_title
;
Structure prediction by ZEFSAII (Michael W. Deem and Ramdas Pophale) SiO2 
 PCOD8319168
Probable space group: P 42/N C M
;
_chemical_formula_sum "Si O2"
_cell_formula_units_Z 80
_cell_length_a 12.003669
_cell_length_b 12.003669
_cell_length_c 26.537670
_cell_angle_alpha 90.000000
_cell_angle_beta 90.000000
_cell_angle_gamma 90.000000
_cell_volume 3823.761638
_symmetry_space_group_name_H-M "P 42/N C M"
_symmetry_group_IT_number 138
_space_group.IT_coordinate_system_code '2'
_symmetry_cell_setting 'tetragonal'
loop_
_space_group_symop_operation_xyz
x,y,z
1/2-y,x,1/2+z
1/2-x,1/2-y,z
y,1/2-x,1/2+z
1/2+x,-y,1/2-z
-x,1/2+y,1/2-z
1/2+y,1/2+x,-z
-y,-x,-z
-x,-y,-z
1/2+y,-x,1/2-z
1/2+x,1/2+y,-z
-y,1/2+x,1/2-z
1/2-x,y,1/2+z
x,1/2-y,1/2+z
1/2-y,1/2-x,z
y,x,z
loop_
_atom_site_type_symbol
_atom_site_label
_atom_site_fract_x
_atom_site_fract_y
_atom_site_fract_z
Si Si1 0.673106 0.485216 0.968814
Si Si2 0.885411 0.438495 0.708166
Si Si3 0.262375 0.924956 0.138137
Si Si4 0.664238 0.664238 0.481006
Si Si5 0.854864 0.466535 0.186823
Si Si6 0.335739 0.164262 0.138957
O O1 0.585704 0.585704 0.957840
O O2 0.711281 0.426984 0.917517
O O3 0.786147 0.540054 0.995507
O O4 0.613276 0.386725 0.000000
O O5 0.875625 0.326861 0.676153
O O6 0.903518 0.411568 0.766363
O O7 0.769364 0.504655 0.701229
O O8 0.984375 0.515626 0.686754
O O9 0.376031 0.851652 0.140902
O O10 0.300293 0.044754 0.158914
O O11 0.750000 0.750000 0.506156
O O12 0.667473 0.667473 0.421058
O O13 0.924206 0.575795 0.170688
O O14 0.250000 0.250000 0.163306
#
# Coordination Sequence:
#
# PCOD8319168 Si02
#       6
#    16  16  16   8  16   8
#     4   9  17  30  53  88 125 161 204 250 304 368
#     4  11  23  39  59  85 120 163 206 252 303 364
#     4  11  19  34  58  89 122 160 200 253 309 365
#     4   7  12  24  44  74 117 156 188 246 299 341
#     4  11  23  39  59  87 120 162 206 251 308 368
#     4   9  16  28  50  86 122 152 196 250 303 351
#
# _framework density 20.921804000000002
#
# number of rings (size 3 to 8) (size 9 to 14) (size 15 to 20)
#    0.000    2.000    3.000    3.600    0.000    0.400 
#    0.000    0.000    2.200    2.400    0.000    1.400 
#    0.000    0.000    0.000    0.000    0.000    0.000 
#
# Total GULP energy -991072.476571 kJ/mol
# GULP energy per Si atom -12388.405957 kJ/mol
# Density = 2.087419 g / cm^3
# Si number density = 20.921804 Si / 1000 Ang^3
#
#
#
# Elastic Constant Matrix: (Units=GPa)
#
#
# Indices 1 2 3 4 5 6 
#
# 1 86.5489 34.4743 17.6324 0.0000 0.0000 0.0000
# 2 34.4743 86.5502 17.6318 0.0000 0.0000 0.0000
# 3 17.6324 17.6318 54.4335 0.0000 0.0000 0.0000
# 4 0.0000 0.0000 0.0000 22.8048 0.0000 0.0000
# 5 0.0000 0.0000 0.0000 0.0000 22.8048 0.0000
# 6 0.0000 0.0000 0.0000 0.0000 0.0000 36.3987
#
#
#
# Elastic Compliance Matrix: (Units=1/GPa)
#
#
# Indices 1 2 3 4 5 6 
#
# 1 0.014164 -0.005039 -0.002956 0.000000 0.000000 0.000000
# 2 -0.005039 0.014163 -0.002955 0.000000 0.000000 0.000000
# 3 -0.002956 -0.002955 0.020286 0.000000 0.000000 0.000000
# 4 0.000000 0.000000 0.000000 0.043851 0.000000 0.000000
# 5 0.000000 0.000000 0.000000 0.000000 0.043850 0.000000
# 6 0.000000 0.000000 0.000000 0.000000 0.000000 0.027474
#
#
# Mechanical properties :
#
#
# Convention : Reuss Voigt Hill
#
# Bulk Modulus (GPa) = 37.43646 40.77882 39.10764
# Shear Modulus (GPa) = 25.69480 26.92125 26.30802
#
# Velocity S-wave (km/s) = 3.50828 3.59103 3.54989
# Velocity P-wave (km/s) = 5.86029 6.06031 5.96114
#
# Compressibility (1/GPa) = 0.02671193
#
# Stress axis : x y z
#
# Youngs Moduli (GPa) = 70.60339 70.60479 49.29583
#
# Poissons Ratio (x) = 0.35581 0.14570
# Poissons Ratio (y) = 0.35581 0.14568
# Poissons Ratio (z) = 0.20867 0.20866
#
# Static dielectric constant tensor:
#      x y z
#    x 4.036760 0.000000 0.000000 
#    y 0.000000 4.036760 0.000000 
#    z 0.000000 0.000000 3.321460 
# 
# 
# High freq. dielectric constant tensor:
#      x y z
#    x 1.822820 0.000000 0.000000 
#    y 0.000000 1.822820 0.000000 
#    z 0.000000 0.000000 1.774700 
# 
# From -- ./inp_files/7935.got.cif
#   From: 2010.03.12/outbox.cif.g09.slc.cpg/sg138_4_cif.got.tgz:7935.got - 2010.04.08 09:41:05.
