data_PCOD8319558
_publ_section_title
;
Structure prediction by ZEFSAII (Michael W. Deem and Ramdas Pophale) SiO2 
 PCOD8319558
Probable space group: I 4/M M M
;
_chemical_formula_sum "Si O2"
_cell_formula_units_Z 160
_cell_length_a 32.385512
_cell_length_b 32.385512
_cell_length_c 9.087173
_cell_angle_alpha 90.000000
_cell_angle_beta 90.000000
_cell_angle_gamma 90.000000
_cell_volume 9530.821394
_symmetry_space_group_name_H-M "I 4/M M M"
_symmetry_group_IT_number 139
_symmetry_cell_setting 'tetragonal'
loop_
_space_group_symop_operation_xyz
x,y,z
-y,x,z
-x,-y,z
y,-x,z
x,-y,-z
-x,y,-z
y,x,-z
-y,-x,-z
-x,-y,-z
y,-x,-z
x,y,-z
-y,x,-z
-x,y,z
x,-y,z
-y,-x,z
y,x,z
1/2+x,1/2+y,1/2+z
1/2-y,1/2+x,1/2+z
1/2-x,1/2-y,1/2+z
1/2+y,1/2-x,1/2+z
1/2+x,1/2-y,1/2-z
1/2-x,1/2+y,1/2-z
1/2+y,1/2+x,1/2-z
1/2-y,1/2-x,1/2-z
1/2-x,1/2-y,1/2-z
1/2+y,1/2-x,1/2-z
1/2+x,1/2+y,1/2-z
1/2-y,1/2+x,1/2-z
1/2-x,1/2+y,1/2+z
1/2+x,1/2-y,1/2+z
1/2-y,1/2-x,1/2+z
1/2+y,1/2+x,1/2+z
loop_
_atom_site_type_symbol
_atom_site_label
_atom_site_fract_x
_atom_site_fract_y
_atom_site_fract_z
Si Si1 0.810191 0.371185 0.827463
Si Si2 0.564112 0.500000 0.175064
Si Si3 0.500000 0.344946 0.174216
Si Si4 0.300033 0.428551 0.665674
Si Si5 0.848285 0.781909 0.670417
Si Si6 0.294139 0.046884 0.833905
O O1 0.846028 0.346028 0.750000
O O2 0.766726 0.348538 0.788554
O O3 0.813717 0.418524 0.771966
O O4 0.818106 0.371451 0.000000
O O5 0.540661 0.540661 0.232376
O O6 0.609394 0.500000 0.240405
O O7 0.565279 0.500000 0.000000
O O8 0.458193 0.325519 0.231072
O O9 0.500000 0.342202 0.000000
O O10 0.317563 0.428066 0.500000
O O11 0.304039 0.382633 0.730781
O O12 0.254372 0.446381 0.667053
O O13 0.860437 0.787323 0.500000
O O14 0.803743 0.803743 0.702570
O O15 0.304055 0.000000 0.778428
O O16 0.311155 0.052671 0.000000
#
# Coordination Sequence:
#
# PCOD8319558 Si02
#       6
#    32  16  16  32  32  32
#     4  10  20  33  50  74 102 135 171 212 252 293
#     4   8  16  32  49  62  78 104 142 186 232 287
#     4  11  20  29  48  74  94 118 150 192 249 305
#     4  10  19  32  48  70  98 125 156 197 246 300
#     4   9  19  35  51  69  96 131 172 214 252 295
#     4   9  17  32  52  72  97 131 164 200 245 291
#
# _framework density 16.78764
#
# number of rings (size 3 to 8) (size 9 to 14) (size 15 to 20)
#    0.000    2.500    1.000    1.800    0.000    3.600 
#    0.000    2.000    0.000    1.800    0.000    2.800 
#    0.000    0.400    0.000    4.200    0.000    1.800 
#
# Total GULP energy -991606.719720 kJ/mol
# GULP energy per Si atom -12395.083997 kJ/mol
# Density = 1.674943 g / cm^3
# Si number density = 16.787640 Si / 1000 Ang^3
#
#
#
# Elastic Constant Matrix: (Units=GPa)
#
#
# Indices 1 2 3 4 5 6 
#
# 1 90.6184 56.0175 44.7703 0.0000 0.0000 0.0000
# 2 56.0175 90.6184 44.7703 0.0000 0.0000 0.0000
# 3 44.7703 44.7703 82.2796 0.0000 0.0000 0.0000
# 4 0.0000 0.0000 0.0000 22.4458 0.0000 0.0000
# 5 0.0000 0.0000 0.0000 0.0000 22.4458 0.0000
# 6 0.0000 0.0000 0.0000 0.0000 0.0000 13.3005
#
#
#
# Elastic Compliance Matrix: (Units=1/GPa)
#
#
# Indices 1 2 3 4 5 6 
#
# 1 0.019557 -0.009344 -0.005557 0.000000 0.000000 0.000000
# 2 -0.009344 0.019557 -0.005557 0.000000 0.000000 0.000000
# 3 -0.005557 -0.005557 0.018201 0.000000 0.000000 0.000000
# 4 0.000000 0.000000 0.000000 0.044552 0.000000 0.000000
# 5 0.000000 0.000000 0.000000 0.000000 0.044552 0.000000
# 6 0.000000 0.000000 0.000000 0.000000 0.000000 0.075185
#
#
# Mechanical properties :
#
#
# Convention : Reuss Voigt Hill
#
# Bulk Modulus (GPa) = 60.98061 61.62587 61.30324
# Shear Modulus (GPa) = 18.65766 19.50231 19.07998
#
# Velocity S-wave (km/s) = 3.33737 3.41208 3.37493
# Velocity P-wave (km/s) = 7.15921 7.23269 7.19604
#
# Compressibility (1/GPa) = 0.01639866
#
# Stress axis : x y z
#
# Youngs Moduli (GPa) = 51.13266 51.13266 54.94145
#
# Poissons Ratio (x) = 0.47778 0.30532
# Poissons Ratio (y) = 0.47778 0.30532
# Poissons Ratio (z) = 0.28415 0.28415
#
# Static dielectric constant tensor:
#      x y z
#    x 3.201560 0.000000 0.000000 
#    y 0.000000 3.201560 0.000000 
#    z 0.000000 0.000000 3.213390 
# 
# 
# High freq. dielectric constant tensor:
#      x y z
#    x 1.631650 0.000000 0.000000 
#    y 0.000000 1.631650 0.000000 
#    z 0.000000 0.000000 1.648760 
# 
# From -- ./inp_files/2179.got.cif
#   From: 2010.03.12/outbox.cif.g09.slc.cpg/sg139_2_cif.got.tgz:2179.got - 2010.04.08 09:46:31.
