data_PCOD8319035
_publ_section_title
;
Structure prediction by ZEFSAII (Michael W. Deem and Ramdas Pophale) SiO2 
 PCOD8319035
Probable space group: P 42/N C M
;
_chemical_formula_sum "Si O2"
_cell_formula_units_Z 96
_cell_length_a 14.469854
_cell_length_b 14.469854
_cell_length_c 24.353506
_cell_angle_alpha 90.000000
_cell_angle_beta 90.000000
_cell_angle_gamma 90.000000
_cell_volume 5099.056106
_symmetry_space_group_name_H-M "P 42/N C M"
_symmetry_group_IT_number 138
_space_group.IT_coordinate_system_code '2'
_symmetry_cell_setting 'tetragonal'
loop_
_space_group_symop_operation_xyz
x,y,z
1/2-y,x,1/2+z
1/2-x,1/2-y,z
y,1/2-x,1/2+z
1/2+x,-y,1/2-z
-x,1/2+y,1/2-z
1/2+y,1/2+x,-z
-y,-x,-z
-x,-y,-z
1/2+y,-x,1/2-z
1/2+x,1/2+y,-z
-y,1/2+x,1/2-z
1/2-x,y,1/2+z
x,1/2-y,1/2+z
1/2-y,1/2-x,z
y,x,z
loop_
_atom_site_type_symbol
_atom_site_label
_atom_site_fract_x
_atom_site_fract_y
_atom_site_fract_z
Si Si1 0.828168 0.828168 0.911715
Si Si2 0.324854 0.324854 0.964931
Si Si3 0.888191 0.306535 0.743831
Si Si4 0.021386 0.746300 0.366204
Si Si5 0.757486 0.389075 0.478163
Si Si6 0.466449 0.186142 0.944012
Si Si7 0.056472 0.906887 0.651662
O O1 0.750000 0.750000 0.907424
O O2 0.857380 0.857380 0.973922
O O3 0.919755 0.789243 0.881539
O O4 0.250000 0.250000 0.981654
O O5 0.404165 0.275955 0.928009
O O6 0.865079 0.204305 0.764767
O O7 0.945809 0.308909 0.687631
O O8 0.947556 0.351775 0.791821
O O9 0.099174 0.731171 0.412940
O O10 0.025308 0.856040 0.354021
O O11 0.859555 0.359555 0.500000
O O12 0.688073 0.311928 0.500000
O O13 0.717552 0.486140 0.499508
O O14 0.403353 0.096648 0.956712
O O15 0.545498 0.165866 0.898835
O O16 0.964170 0.964170 0.650299
#
# Coordination Sequence:
#
# PCOD8319035 Si02
#       7
#     8   8  16  16  16  16  16
#     4  11  22  36  58  86 122 154 186 236 298 359
#     4   9  18  34  56  84 118 154 188 225 289 349
#     4   9  21  38  62  84 111 151 194 239 292 350
#     4  11  22  38  59  86 116 155 193 241 298 350
#     4  11  23  35  57  89 122 149 190 248 297 345
#     4  10  20  36  59  85 114 152 191 234 284 348
#     4  10  21  37  62  87 114 149 202 247 280 342
#
# _framework density 18.827014999999999
#
# number of rings (size 3 to 8) (size 9 to 14) (size 15 to 20)
#    0.000    1.833    3.333    0.500    3.500    2.333 
#    0.000    1.667    9.167    0.000    0.000    0.000 
#    0.000    0.000    0.000    0.000    0.000    0.000 
#
# Total GULP energy -1189591.012509 kJ/mol
# GULP energy per Si atom -12391.573047 kJ/mol
# Density = 1.878416 g / cm^3
# Si number density = 18.827015 Si / 1000 Ang^3
#
#
#
# Elastic Constant Matrix: (Units=GPa)
#
#
# Indices 1 2 3 4 5 6 
#
# 1 73.6824 44.3188 44.4276 0.0000 0.0000 0.0000
# 2 44.3188 73.6823 44.4275 0.0000 0.0000 0.0000
# 3 44.4276 44.4275 120.0057 0.0000 0.0000 0.0000
# 4 0.0000 0.0000 0.0000 29.9875 0.0000 0.0000
# 5 0.0000 0.0000 0.0000 0.0000 29.9875 0.0000
# 6 0.0000 0.0000 0.0000 0.0000 0.0000 35.4025
#
#
#
# Elastic Compliance Matrix: (Units=1/GPa)
#
#
# Indices 1 2 3 4 5 6 
#
# 1 0.022903 -0.011153 -0.004350 0.000000 0.000000 0.000000
# 2 -0.011153 0.022903 -0.004350 0.000000 0.000000 0.000000
# 3 -0.004350 -0.004350 0.011554 0.000000 0.000000 0.000000
# 4 0.000000 0.000000 0.000000 0.033347 0.000000 0.000000
# 5 0.000000 0.000000 0.000000 0.000000 0.033347 0.000000
# 6 0.000000 0.000000 0.000000 0.000000 0.000000 0.028247
#
#
# Mechanical properties :
#
#
# Convention : Reuss Voigt Hill
#
# Bulk Modulus (GPa) = 56.64482 59.30202 57.97342
# Shear Modulus (GPa) = 25.26643 28.02193 26.64418
#
# Velocity S-wave (km/s) = 3.66735 3.86215 3.76601
# Velocity P-wave (km/s) = 6.93433 7.17322 7.05478
#
# Compressibility (1/GPa) = 0.01765386
#
# Stress axis : x y z
#
# Youngs Moduli (GPa) = 43.66258 43.66258 86.55171
#
# Poissons Ratio (x) = 0.48696 0.37650
# Poissons Ratio (y) = 0.48696 0.37650
# Poissons Ratio (z) = 0.18993 0.18993
#
# Static dielectric constant tensor:
#      x y z
#    x 3.608500 0.000000 0.000000 
#    y 0.000000 3.608510 0.000000 
#    z 0.000000 0.000000 3.475620 
# 
# 
# High freq. dielectric constant tensor:
#      x y z
#    x 1.728960 0.000000 0.000000 
#    y 0.000000 1.728960 0.000000 
#    z 0.000000 0.000000 1.725840 
# 
# From -- ./inp_files/6306.got.cif
#   From: 2010.03.12/outbox.cif.g09.slc.cpg/sg138_4_cif.got.tgz:6306.got - 2010.04.08 09:41:05.
