data_PCOD8319184
_publ_section_title
;
Structure prediction by ZEFSAII (Michael W. Deem and Ramdas Pophale) SiO2 
 PCOD8319184
Probable space group: P 42/N C M
;
_chemical_formula_sum "Si O2"
_cell_formula_units_Z 64
_cell_length_a 21.504754
_cell_length_b 21.504754
_cell_length_c 7.352774
_cell_angle_alpha 90.000000
_cell_angle_beta 90.000000
_cell_angle_gamma 90.000000
_cell_volume 3400.323016
_symmetry_space_group_name_H-M "P 42/N C M"
_symmetry_group_IT_number 138
_space_group.IT_coordinate_system_code '2'
_symmetry_cell_setting 'tetragonal'
loop_
_space_group_symop_operation_xyz
x,y,z
1/2-y,x,1/2+z
1/2-x,1/2-y,z
y,1/2-x,1/2+z
1/2+x,-y,1/2-z
-x,1/2+y,1/2-z
1/2+y,1/2+x,-z
-y,-x,-z
-x,-y,-z
1/2+y,-x,1/2-z
1/2+x,1/2+y,-z
-y,1/2+x,1/2-z
1/2-x,y,1/2+z
x,1/2-y,1/2+z
1/2-y,1/2-x,z
y,x,z
loop_
_atom_site_type_symbol
_atom_site_label
_atom_site_fract_x
_atom_site_fract_y
_atom_site_fract_z
Si Si1 0.820528 0.184458 0.254370
Si Si2 0.053150 0.826110 0.401982
Si Si3 0.190185 0.544335 0.686648
Si Si4 0.001611 0.596598 0.588081
O O1 0.753750 0.178082 0.147545
O O2 0.823924 0.128196 0.398567
O O3 0.882560 0.180155 0.127114
O O4 0.025795 0.762470 0.319194
O O5 0.033260 0.835520 0.610451
O O6 0.026163 0.883446 0.286510
O O7 0.155410 0.499215 0.546599
O O8 0.933027 0.566974 0.608986
O O9 0.047248 0.547248 0.500000
#
# Coordination Sequence:
#
# PCOD8319184 Si02
#       4
#    16  16  16  16
#     4   9  19  33  48  74 108 149 195 241 279 313
#     4  11  21  37  57  81 111 147 189 237 281 325
#     4  11  21  37  57  81 111 147 189 237 281 325
#     4  11  24  40  56  80 115 154 193 229 274 335
#
# _framework density 18.821740999999999
#
# number of rings (size 3 to 8) (size 9 to 14) (size 15 to 20)
#    0.000    1.500    5.000    0.750    0.000    1.000 
#    4.500   10.000    0.000    0.000    0.000    0.000 
#    0.000    3.000    0.000    0.000    0.000    0.000 
#
# Total GULP energy -792936.981381 kJ/mol
# GULP energy per Si atom -12389.640334 kJ/mol
# Density = 1.877890 g / cm^3
# Si number density = 18.821741 Si / 1000 Ang^3
#
#
#
# Elastic Constant Matrix: (Units=GPa)
#
#
# Indices 1 2 3 4 5 6 
#
# 1 78.5940 60.4983 40.6680 0.0000 0.0000 0.0000
# 2 60.4983 78.5940 40.6680 0.0000 0.0000 0.0000
# 3 40.6680 40.6680 102.6359 0.0000 0.0000 0.0000
# 4 0.0000 0.0000 0.0000 13.1806 0.0000 0.0000
# 5 0.0000 0.0000 0.0000 0.0000 13.1806 0.0000
# 6 0.0000 0.0000 0.0000 0.0000 0.0000 35.2589
#
#
#
# Elastic Compliance Matrix: (Units=1/GPa)
#
#
# Indices 1 2 3 4 5 6 
#
# 1 0.032310 -0.022952 -0.003708 0.000000 0.000000 0.000000
# 2 -0.022952 0.032310 -0.003708 0.000000 0.000000 0.000000
# 3 -0.003708 -0.003708 0.012682 0.000000 0.000000 0.000000
# 4 0.000000 0.000000 0.000000 0.075869 0.000000 0.000000
# 5 0.000000 0.000000 0.000000 0.000000 0.075869 0.000000
# 6 0.000000 0.000000 0.000000 0.000000 0.000000 0.028362
#
#
# Mechanical properties :
#
#
# Convention : Reuss Voigt Hill
#
# Bulk Modulus (GPa) = 60.36639 60.38808 60.37723
# Shear Modulus (GPa) = 15.44842 20.19000 17.81921
#
# Velocity S-wave (km/s) = 2.86803 3.27876 3.08024
# Velocity P-wave (km/s) = 6.56580 6.81818 6.69318
#
# Compressibility (1/GPa) = 0.01656551
#
# Stress axis : x y z
#
# Youngs Moduli (GPa) = 30.95056 30.95056 78.85476
#
# Poissons Ratio (x) = 0.71037 0.29238
# Poissons Ratio (y) = 0.71037 0.29238
# Poissons Ratio (z) = 0.11476 0.11476
#
# Static dielectric constant tensor:
#      x y z
#    x 3.469220 0.000000 0.000000 
#    y 0.000000 3.469220 0.000000 
#    z 0.000000 0.000000 3.313490 
# 
# 
# High freq. dielectric constant tensor:
#      x y z
#    x 1.692770 0.000000 0.000000 
#    y 0.000000 1.692770 0.000000 
#    z 0.000000 0.000000 1.742290 
# 
# From -- ./inp_files/1373.got.cif
#   From: 2010.03.12/outbox.cif.g09.slc.cpg/sg138_1_cif.got.tgz:1373.got - 2010.04.08 09:41:05.
