data_PCOD8319303
_publ_section_title
;
Structure prediction by ZEFSAII (Michael W. Deem and Ramdas Pophale) SiO2 
 PCOD8319303
Probable space group: I 4/M M M
;
_chemical_formula_sum "Si O2"
_cell_formula_units_Z 144
_cell_length_a 21.253547
_cell_length_b 21.253547
_cell_length_c 21.515502
_cell_angle_alpha 90.000000
_cell_angle_beta 90.000000
_cell_angle_gamma 90.000000
_cell_volume 9718.837551
_symmetry_space_group_name_H-M "I 4/M M M"
_symmetry_group_IT_number 139
_symmetry_cell_setting 'tetragonal'
loop_
_space_group_symop_operation_xyz
x,y,z
-y,x,z
-x,-y,z
y,-x,z
x,-y,-z
-x,y,-z
y,x,-z
-y,-x,-z
-x,-y,-z
y,-x,-z
x,y,-z
-y,x,-z
-x,y,z
x,-y,z
-y,-x,z
y,x,z
1/2+x,1/2+y,1/2+z
1/2-y,1/2+x,1/2+z
1/2-x,1/2-y,1/2+z
1/2+y,1/2-x,1/2+z
1/2+x,1/2-y,1/2-z
1/2-x,1/2+y,1/2-z
1/2+y,1/2+x,1/2-z
1/2-y,1/2-x,1/2-z
1/2-x,1/2-y,1/2-z
1/2+y,1/2-x,1/2-z
1/2+x,1/2+y,1/2-z
1/2-y,1/2+x,1/2-z
1/2-x,1/2+y,1/2+z
1/2+x,1/2-y,1/2+z
1/2-y,1/2-x,1/2+z
1/2+y,1/2+x,1/2+z
loop_
_atom_site_type_symbol
_atom_site_label
_atom_site_fract_x
_atom_site_fract_y
_atom_site_fract_z
Si Si1 0.174439 0.929355 0.500000
Si Si2 0.071068 0.325647 0.692003
Si Si3 0.339149 0.237743 0.570530
Si Si4 0.361401 0.261490 0.894818
Si Si5 0.832218 0.572527 0.663609
O O1 0.113507 0.886494 0.500000
O O2 0.217158 0.916634 0.440278
O O3 0.150272 0.000000 0.500000
O O4 0.106810 0.265459 0.666239
O O5 0.102146 0.389266 0.663888
O O6 0.075170 0.311774 0.764960
O O7 0.000000 0.329650 0.668687
O O8 0.366179 0.243547 0.500000
O O9 0.303113 0.303113 0.589285
O O10 0.289110 0.181539 0.569940
O O11 0.395122 0.220811 0.619247
O O12 0.320318 0.320318 0.872503
O O13 0.842608 0.500000 0.642040
#
# Coordination Sequence:
#
# PCOD8319303 Si02
#       5
#    16  32  32  32  32
#     4  10  18  27  40  58  79 105 135 165 202 244
#     4   9  17  29  43  60  83 113 146 176 208 248
#     4   9  16  28  45  63  84 108 136 171 214 258
#     4   9  16  27  43  62  80 102 136 176 213 247
#     4   9  18  29  42  62  86 112 142 175 210 249
#
# _framework density 14.816587
#
# number of rings (size 3 to 8) (size 9 to 14) (size 15 to 20)
#    0.000    2.889    1.111    0.667    0.000    1.889 
#    0.000    6.667    0.000    0.000    0.000    3.111 
#    0.000    0.444    0.000    7.333    0.000    5.778 
#
# Total GULP energy -892134.364431 kJ/mol
# GULP energy per Si atom -12390.755062 kJ/mol
# Density = 1.478286 g / cm^3
# Si number density = 14.816587 Si / 1000 Ang^3
#
#
#
# Elastic Constant Matrix: (Units=GPa)
#
#
# Indices 1 2 3 4 5 6 
#
# 1 81.6209 40.0354 42.7763 0.0000 0.0000 0.0000
# 2 40.0354 81.6229 42.7764 0.0000 0.0000 0.0000
# 3 42.7763 42.7764 64.0029 0.0000 0.0000 0.0000
# 4 0.0000 0.0000 0.0000 19.0691 0.0000 0.0000
# 5 0.0000 0.0000 0.0000 0.0000 19.0690 0.0000
# 6 0.0000 0.0000 0.0000 0.0000 0.0000 8.9871
#
#
#
# Elastic Compliance Matrix: (Units=1/GPa)
#
#
# Indices 1 2 3 4 5 6 
#
# 1 0.019778 -0.004269 -0.010366 0.000000 0.000000 0.000000
# 2 -0.004269 0.019777 -0.010365 0.000000 0.000000 0.000000
# 3 -0.010366 -0.010365 0.029480 0.000000 0.000000 0.000000
# 4 0.000000 0.000000 0.000000 0.052441 0.000000 0.000000
# 5 0.000000 0.000000 0.000000 0.000000 0.052441 0.000000
# 6 0.000000 0.000000 0.000000 0.000000 0.000000 0.111270
#
#
# Mechanical properties :
#
#
# Convention : Reuss Voigt Hill
#
# Bulk Modulus (GPa) = 52.53193 53.15810 52.84501
# Shear Modulus (GPa) = 14.63992 16.20230 15.42111
#
# Velocity S-wave (km/s) = 3.14678 3.31044 3.22964
# Velocity P-wave (km/s) = 6.98103 7.11107 7.04635
#
# Compressibility (1/GPa) = 0.01903604
#
# Stress axis : x y z
#
# Youngs Moduli (GPa) = 50.56119 50.56294 33.92147
#
# Poissons Ratio (x) = 0.21583 0.35162
# Poissons Ratio (y) = 0.21582 0.35161
# Poissons Ratio (z) = 0.52410 0.52410
#
# Static dielectric constant tensor:
#      x y z
#    x 2.848080 0.000000 0.000000 
#    y 0.000000 2.848080 0.000000 
#    z 0.000000 0.000000 2.911300 
# 
# 
# High freq. dielectric constant tensor:
#      x y z
#    x 1.553960 0.000000 0.000000 
#    y 0.000000 1.553960 0.000000 
#    z 0.000000 0.000000 1.566950 
# 
# From -- ./inp_files/10269.got.cif
#   From: 2010.03.12/outbox.cif.g09.slc.cpg/sg139_6_cif.got.tgz:10269.got - 2010.04.08 09:46:31.
