data_PCOD8319100
_publ_section_title
;
Structure prediction by ZEFSAII (Michael W. Deem and Ramdas Pophale) SiO2 
 PCOD8319100
Probable space group: P 42/N C M
;
_chemical_formula_sum "Si O2"
_cell_formula_units_Z 48
_cell_length_a 15.399746
_cell_length_b 15.399746
_cell_length_c 8.491322
_cell_angle_alpha 90.000000
_cell_angle_beta 90.000000
_cell_angle_gamma 90.000000
_cell_volume 2013.735497
_symmetry_space_group_name_H-M "P 42/N C M"
_symmetry_group_IT_number 138
_space_group.IT_coordinate_system_code '2'
_symmetry_cell_setting 'tetragonal'
loop_
_space_group_symop_operation_xyz
x,y,z
1/2-y,x,1/2+z
1/2-x,1/2-y,z
y,1/2-x,1/2+z
1/2+x,-y,1/2-z
-x,1/2+y,1/2-z
1/2+y,1/2+x,-z
-y,-x,-z
-x,-y,-z
1/2+y,-x,1/2-z
1/2+x,1/2+y,-z
-y,1/2+x,1/2-z
1/2-x,y,1/2+z
x,1/2-y,1/2+z
1/2-y,1/2-x,z
y,x,z
loop_
_atom_site_type_symbol
_atom_site_label
_atom_site_fract_x
_atom_site_fract_y
_atom_site_fract_z
Si Si1 0.520605 0.842599 0.327390
Si Si2 0.649405 0.341972 0.747008
Si Si3 0.479432 0.160185 0.047429
O O1 0.580996 0.919005 0.394099
O O2 0.419653 0.859894 0.376560
O O3 0.557551 0.752668 0.395057
O O4 0.519842 0.839597 0.139260
O O5 0.747073 0.355207 0.670727
O O6 0.575798 0.354929 0.615145
O O7 0.416387 0.083613 0.110569
#
# Coordination Sequence:
#
# PCOD8319100 Si02
#       3
#    16  16  16
#     4  10  21  38  60  84 113 151 192 234 282 337
#     4   9  18  35  59  85 112 144 185 228 276 335
#     4  10  21  38  60  84 113 151 192 234 282 337
#
# _framework density 23.836297999999999
#
# number of rings (size 3 to 8) (size 9 to 14) (size 15 to 20)
#    0.000    2.333    0.000    2.000    0.000    4.667 
#    0.000   71.667    0.000   16.000    0.000    0.000 
#    0.000    0.000    0.000    0.000    0.000    0.000 
#
# Total GULP energy -594654.911349 kJ/mol
# GULP energy per Si atom -12388.643986 kJ/mol
# Density = 2.378205 g / cm^3
# Si number density = 23.836298 Si / 1000 Ang^3
#
#
#
# Elastic Constant Matrix: (Units=GPa)
#
#
# Indices 1 2 3 4 5 6 
#
# 1 167.2204 109.1266 14.1872 0.0000 0.0000 0.0000
# 2 109.1266 167.2204 14.1872 0.0000 0.0000 0.0000
# 3 14.1872 14.1872 19.0448 0.0000 0.0000 0.0000
# 4 0.0000 0.0000 0.0000 23.7374 0.0000 0.0000
# 5 0.0000 0.0000 0.0000 0.0000 23.7374 0.0000
# 6 0.0000 0.0000 0.0000 0.0000 0.0000 51.0227
#
#
#
# Elastic Compliance Matrix: (Units=1/GPa)
#
#
# Indices 1 2 3 4 5 6 
#
# 1 0.010566 -0.006648 -0.002919 0.000000 0.000000 0.000000
# 2 -0.006648 0.010566 -0.002919 0.000000 0.000000 0.000000
# 3 -0.002919 -0.002919 0.056856 0.000000 0.000000 0.000000
# 4 0.000000 0.000000 0.000000 0.042128 0.000000 0.000000
# 5 0.000000 0.000000 0.000000 0.000000 0.042128 0.000000
# 6 0.000000 0.000000 0.000000 0.000000 0.000000 0.019599
#
#
# Mechanical properties :
#
#
# Convention : Reuss Voigt Hill
#
# Bulk Modulus (GPa) = 18.86170 69.83195 44.34683
# Shear Modulus (GPa) = 22.27310 34.09849 28.18580
#
# Velocity S-wave (km/s) = 3.06014 3.78634 3.44244
# Velocity P-wave (km/s) = 4.51843 6.96241 5.86904
#
# Compressibility (1/GPa) = 0.05301749
#
# Stress axis : x y z
#
# Youngs Moduli (GPa) = 94.64381 94.64381 17.58815
#
# Poissons Ratio (x) = 0.62915 0.05134
# Poissons Ratio (y) = 0.62915 0.05134
# Poissons Ratio (z) = 0.27626 0.27626
#
# Static dielectric constant tensor:
#      x y z
#    x 4.970120 0.000000 0.000000 
#    y 0.000000 4.970120 0.000000 
#    z 0.000000 0.000000 3.611520 
# 
# 
# High freq. dielectric constant tensor:
#      x y z
#    x 1.960950 0.000000 0.000000 
#    y 0.000000 1.960950 0.000000 
#    z 0.000000 0.000000 1.908440 
# 
# From -- ./inp_files/2288.got.cif
#   From: 2010.03.12/outbox.cif.g09.slc.cpg/sg138_2_cif.got.tgz:2288.got - 2010.04.08 09:41:05.
