data_PCOD8319019
_publ_section_title
;
Structure prediction by ZEFSAII (Michael W. Deem and Ramdas Pophale) SiO2 
 PCOD8319019
Probable space group: P 42/N C M
;
_chemical_formula_sum "Si O2"
_cell_formula_units_Z 96
_cell_length_a 18.289825
_cell_length_b 18.289825
_cell_length_c 15.677300
_cell_angle_alpha 90.000000
_cell_angle_beta 90.000000
_cell_angle_gamma 90.000000
_cell_volume 5244.334315
_symmetry_space_group_name_H-M "P 42/N C M"
_symmetry_group_IT_number 138
_space_group.IT_coordinate_system_code '2'
_symmetry_cell_setting 'tetragonal'
loop_
_space_group_symop_operation_xyz
x,y,z
1/2-y,x,1/2+z
1/2-x,1/2-y,z
y,1/2-x,1/2+z
1/2+x,-y,1/2-z
-x,1/2+y,1/2-z
1/2+y,1/2+x,-z
-y,-x,-z
-x,-y,-z
1/2+y,-x,1/2-z
1/2+x,1/2+y,-z
-y,1/2+x,1/2-z
1/2-x,y,1/2+z
x,1/2-y,1/2+z
1/2-y,1/2-x,z
y,x,z
loop_
_atom_site_type_symbol
_atom_site_label
_atom_site_fract_x
_atom_site_fract_y
_atom_site_fract_z
Si Si1 0.821072 0.939605 0.683225
Si Si2 0.138949 0.571058 0.923687
Si Si3 0.850619 0.417717 0.758384
Si Si4 0.942620 0.303229 0.680581
Si Si5 0.797704 0.080587 0.010373
Si Si6 0.840574 0.541060 0.641774
O O1 0.863789 0.863789 0.691156
O O2 0.737326 0.921310 0.660842
O O3 0.854740 0.987039 0.605233
O O4 0.829453 0.982803 0.773094
O O5 0.103503 0.616034 0.847667
O O6 0.219041 0.602353 0.949576
O O7 0.081114 0.581114 0.000000
O O8 0.880258 0.365113 0.683905
O O9 0.763393 0.410744 0.763583
O O10 0.868636 0.500648 0.728220
O O11 0.956496 0.283328 0.582289
O O12 0.836674 0.019049 0.067079
O O13 0.847058 0.152943 0.000000
O O14 0.896869 0.603132 0.613558
#
# Coordination Sequence:
#
# PCOD8319019 Si02
#       6
#    16  16  16  16  16  16
#     4   9  21  39  59  83 109 146 193 239 289 342
#     4  10  20  36  57  81 116 153 192 228 270 332
#     4  10  20  36  52  81 115 151 191 228 271 332
#     4  10  20  35  56  79 118 152 187 232 275 334
#     4  11  21  37  54  86 121 154 189 229 276 337
#     4  10  22  39  60  84 113 146 188 246 297 341
#
# _framework density 18.305468999999999
#
# number of rings (size 3 to 8) (size 9 to 14) (size 15 to 20)
#    0.000    2.000    3.333    1.000    0.000    5.000 
#    0.000    0.000    0.000    0.000    0.000    4.667 
#    0.000    0.000    0.000    0.000    0.000    0.000 
#
# Total GULP energy -1189962.627925 kJ/mol
# GULP energy per Si atom -12395.444041 kJ/mol
# Density = 1.826380 g / cm^3
# Si number density = 18.305469 Si / 1000 Ang^3
#
#
#
# Elastic Constant Matrix: (Units=GPa)
#
#
# Indices 1 2 3 4 5 6 
#
# 1 73.1685 48.1618 31.0436 0.0000 0.0000 0.0000
# 2 48.1618 73.1664 31.0433 0.0000 0.0000 0.0000
# 3 31.0436 31.0433 113.4928 0.0000 0.0000 0.0000
# 4 0.0000 0.0000 0.0000 20.9207 0.0000 0.0000
# 5 0.0000 0.0000 0.0000 0.0000 20.9208 0.0000
# 6 0.0000 0.0000 0.0000 0.0000 0.0000 35.1605
#
#
#
# Elastic Compliance Matrix: (Units=1/GPa)
#
#
# Indices 1 2 3 4 5 6 
#
# 1 0.024787 -0.015204 -0.002621 0.000000 0.000000 0.000000
# 2 -0.015204 0.024788 -0.002621 0.000000 0.000000 0.000000
# 3 -0.002621 -0.002621 0.010245 0.000000 0.000000 0.000000
# 4 0.000000 0.000000 0.000000 0.047800 0.000000 0.000000
# 5 0.000000 0.000000 0.000000 0.000000 0.047799 0.000000
# 6 0.000000 0.000000 0.000000 0.000000 0.000000 0.028441
#
#
# Mechanical properties :
#
#
# Convention : Reuss Voigt Hill
#
# Bulk Modulus (GPa) = 52.83551 53.36946 53.10249
# Shear Modulus (GPa) = 21.63929 25.37233 23.50581
#
# Velocity S-wave (km/s) = 3.44193 3.72701 3.58730
# Velocity P-wave (km/s) = 6.68743 6.90934 6.79929
#
# Compressibility (1/GPa) = 0.01892667
#
# Stress axis : x y z
#
# Youngs Moduli (GPa) = 40.34408 40.34285 97.60722
#
# Poissons Ratio (x) = 0.61336 0.25586
# Poissons Ratio (y) = 0.61338 0.25587
# Poissons Ratio (z) = 0.10575 0.10575
#
# Static dielectric constant tensor:
#      x y z
#    x 3.231050 0.000000 0.000000 
#    y 0.000000 3.231050 0.000000 
#    z 0.000000 0.000000 3.646780 
# 
# 
# High freq. dielectric constant tensor:
#      x y z
#    x 1.693600 0.000000 0.000000 
#    y 0.000000 1.693600 0.000000 
#    z 0.000000 0.000000 1.723380 
# 
# From -- ./inp_files/5228.got.cif
#   From: 2010.03.12/outbox.cif.g09.slc.cpg/sg138_3_cif.got.tgz:5228.got - 2010.04.08 09:41:05.
