data_PCOD8319311
_publ_section_title
;
Structure prediction by ZEFSAII (Michael W. Deem and Ramdas Pophale) SiO2 
 PCOD8319311
Probable space group: I 4/M M M
;
_chemical_formula_sum "Si O2"
_cell_formula_units_Z 160
_cell_length_a 19.574721
_cell_length_b 19.574721
_cell_length_c 26.560291
_cell_angle_alpha 90.000000
_cell_angle_beta 90.000000
_cell_angle_gamma 90.000000
_cell_volume 10177.098794
_symmetry_space_group_name_H-M "I 4/M M M"
_symmetry_group_IT_number 139
_symmetry_cell_setting 'tetragonal'
loop_
_space_group_symop_operation_xyz
x,y,z
-y,x,z
-x,-y,z
y,-x,z
x,-y,-z
-x,y,-z
y,x,-z
-y,-x,-z
-x,-y,-z
y,-x,-z
x,y,-z
-y,x,-z
-x,y,z
x,-y,z
-y,-x,z
y,x,z
1/2+x,1/2+y,1/2+z
1/2-y,1/2+x,1/2+z
1/2-x,1/2-y,1/2+z
1/2+y,1/2-x,1/2+z
1/2+x,1/2-y,1/2-z
1/2-x,1/2+y,1/2-z
1/2+y,1/2+x,1/2-z
1/2-y,1/2-x,1/2-z
1/2-x,1/2-y,1/2-z
1/2+y,1/2-x,1/2-z
1/2+x,1/2+y,1/2-z
1/2-y,1/2+x,1/2-z
1/2-x,1/2+y,1/2+z
1/2+x,1/2-y,1/2+z
1/2-y,1/2-x,1/2+z
1/2+y,1/2+x,1/2+z
loop_
_atom_site_type_symbol
_atom_site_label
_atom_site_fract_x
_atom_site_fract_y
_atom_site_fract_z
Si Si1 0.689553 0.422225 0.248026
Si Si2 0.077620 0.336139 0.712367
Si Si3 0.921308 0.187773 0.863112
Si Si4 0.422129 0.923214 0.385661
Si Si5 0.419851 0.206486 0.555203
O O1 0.663060 0.500000 0.241241
O O2 0.628439 0.371562 0.232331
O O3 0.754747 0.408054 0.212326
O O4 0.713285 0.410239 0.305858
O O5 0.129054 0.370947 0.750000
O O6 0.090546 0.367357 0.657760
O O7 0.000000 0.350460 0.730107
O O8 0.883253 0.116748 0.872424
O O9 0.890151 0.244079 0.901371
O O10 0.000000 0.173345 0.874581
O O11 0.500000 0.910289 0.365744
O O12 0.404061 0.871999 0.430790
O O13 0.415113 0.000000 0.406641
O O14 0.387330 0.221608 0.500000
O O15 0.500000 0.218642 0.552278
#
# Coordination Sequence:
#
# PCOD8319311 Si02
#       5
#    32  32  32  32  32
#     4   9  18  31  46  64  85 110 140 174 212 252
#     4  10  18  27  41  61  87 116 143 171 203 243
#     4   9  17  29  44  61  81 105 134 168 205 244
#     4   9  17  28  42  61  84 110 140 171 202 238
#     4   9  17  29  44  60  79 105 137 173 210 243
#
# _framework density 15.721572999999999
#
# number of rings (size 3 to 8) (size 9 to 14) (size 15 to 20)
#    0.000    2.800    0.000    1.800    0.000    5.800 
#    0.000    5.000    0.000    0.000    0.000    2.800 
#    0.000    0.000    0.000    0.000    0.000    0.200 
#
# Total GULP energy -991624.170794 kJ/mol
# GULP energy per Si atom -12395.302135 kJ/mol
# Density = 1.568579 g / cm^3
# Si number density = 15.721573 Si / 1000 Ang^3
#
#
#
# Elastic Constant Matrix: (Units=GPa)
#
#
# Indices 1 2 3 4 5 6 
#
# 1 66.2929 36.0919 28.3569 0.0000 0.0000 0.0000
# 2 36.0919 66.2908 28.3580 0.0000 0.0000 0.0000
# 3 28.3569 28.3580 53.6340 0.0000 0.0000 0.0000
# 4 0.0000 0.0000 0.0000 16.1061 0.0000 0.0000
# 5 0.0000 0.0000 0.0000 0.0000 16.1058 0.0000
# 6 0.0000 0.0000 0.0000 0.0000 0.0000 19.6705
#
#
#
# Elastic Compliance Matrix: (Units=1/GPa)
#
#
# Indices 1 2 3 4 5 6 
#
# 1 0.023462 -0.009650 -0.007302 0.000000 0.000000 0.000000
# 2 -0.009650 0.023463 -0.007304 0.000000 0.000000 0.000000
# 3 -0.007302 -0.007304 0.026367 0.000000 0.000000 0.000000
# 4 0.000000 0.000000 0.000000 0.062088 0.000000 0.000000
# 5 0.000000 0.000000 0.000000 0.000000 0.062089 0.000000
# 6 0.000000 0.000000 0.000000 0.000000 0.000000 0.050838
#
#
# Mechanical properties :
#
#
# Convention : Reuss Voigt Hill
#
# Bulk Modulus (GPa) = 40.35419 41.31457 40.83438
# Shear Modulus (GPa) = 16.38913 16.60388 16.49650
#
# Velocity S-wave (km/s) = 3.23222 3.25333 3.24279
# Velocity P-wave (km/s) = 6.29710 6.35988 6.32857
#
# Compressibility (1/GPa) = 0.02478057
#
# Stress axis : x y z
#
# Youngs Moduli (GPa) = 42.62223 42.61957 37.92557
#
# Poissons Ratio (x) = 0.41128 0.27694
# Poissons Ratio (y) = 0.41130 0.27700
# Poissons Ratio (z) = 0.31124 0.31128
#
# Static dielectric constant tensor:
#      x y z
#    x 2.940260 0.000000 0.000000 
#    y 0.000000 2.940260 0.000000 
#    z 0.000000 0.000000 3.036970 
# 
# 
# High freq. dielectric constant tensor:
#      x y z
#    x 1.592200 0.000000 0.000000 
#    y 0.000000 1.592200 0.000000 
#    z 0.000000 0.000000 1.582360 
# 
# From -- ./inp_files/12929.got.cif
#   From: 2010.03.12/outbox.cif.g09.slc.cpg/sg139_7_cif.got.tgz:12929.got - 2010.04.08 09:46:31.
