data_PCOD8319375
_publ_section_title
;
Structure prediction by ZEFSAII (Michael W. Deem and Ramdas Pophale) SiO2 
 PCOD8319375
Probable space group: I 4/M M M
;
_chemical_formula_sum "Si O2"
_cell_formula_units_Z 240
_cell_length_a 21.708100
_cell_length_b 21.708100
_cell_length_c 30.867244
_cell_angle_alpha 90.000000
_cell_angle_beta 90.000000
_cell_angle_gamma 90.000000
_cell_volume 14545.929623
_symmetry_space_group_name_H-M "I 4/M M M"
_symmetry_group_IT_number 139
_symmetry_cell_setting 'tetragonal'
loop_
_space_group_symop_operation_xyz
x,y,z
-y,x,z
-x,-y,z
y,-x,z
x,-y,-z
-x,y,-z
y,x,-z
-y,-x,-z
-x,-y,-z
y,-x,-z
x,y,-z
-y,x,-z
-x,y,z
x,-y,z
-y,-x,z
y,x,z
1/2+x,1/2+y,1/2+z
1/2-y,1/2+x,1/2+z
1/2-x,1/2-y,1/2+z
1/2+y,1/2-x,1/2+z
1/2+x,1/2-y,1/2-z
1/2-x,1/2+y,1/2-z
1/2+y,1/2+x,1/2-z
1/2-y,1/2-x,1/2-z
1/2-x,1/2-y,1/2-z
1/2+y,1/2-x,1/2-z
1/2+x,1/2+y,1/2-z
1/2-y,1/2+x,1/2-z
1/2-x,1/2+y,1/2+z
1/2+x,1/2-y,1/2+z
1/2-y,1/2-x,1/2+z
1/2+y,1/2+x,1/2+z
loop_
_atom_site_type_symbol
_atom_site_label
_atom_site_fract_x
_atom_site_fract_y
_atom_site_fract_z
Si Si1 0.824873 0.073349 0.500000
Si Si2 0.786489 0.427196 0.747484
Si Si3 0.168923 0.928766 0.197661
Si Si4 0.072495 0.691556 0.343650
Si Si5 0.364266 0.069116 0.831922
Si Si6 0.238793 0.863668 0.419389
Si Si7 0.240321 0.932544 0.886050
Si Si8 0.668708 0.229293 0.547199
O O1 0.890048 0.109953 0.500000
O O2 0.786122 0.091573 0.457232
O O3 0.837586 0.000000 0.500000
O O4 0.780530 0.500000 0.748383
O O5 0.723711 0.400506 0.726976
O O6 0.792975 0.401114 0.795930
O O7 0.845303 0.411044 0.717124
O O8 0.106717 0.893284 0.209105
O O9 0.185341 0.918321 0.147246
O O10 0.157406 0.000000 0.208100
O O11 0.090210 0.620003 0.352574
O O12 0.099084 0.742550 0.376479
O O13 0.000000 0.697033 0.346515
O O14 0.303597 0.068117 0.860389
O O15 0.394346 0.000000 0.832347
O O16 0.187147 0.812854 0.407550
O O17 0.303149 0.833553 0.434152
O O18 0.240124 0.883087 0.923684
O O19 0.230504 0.000000 0.906978
O O20 0.639906 0.215623 0.500000
O O21 0.724443 0.275558 0.542566
#
# Coordination Sequence:
#
# PCOD8319375 Si02
#       8
#    16  32  32  32  32  32  32  32
#     4  10  20  37  58  78 101 127 159 199 248 302
#     4   8  17  31  45  64  92 125 161 199 237 279
#     4   9  17  30  48  69  95 127 161 200 247 293
#     4  11  20  31  49  72  97 126 161 201 247 294
#     4   9  17  31  48  66  94 130 163 198 238 279
#     4  10  20  34  50  72  99 126 157 197 244 293
#     4   9  17  30  48  68  94 127 159 194 236 281
#     4  10  18  30  49  70  94 123 158 199 239 282
#
# _framework density 16.499461
#
# number of rings (size 3 to 8) (size 9 to 14) (size 15 to 20)
#    0.000    2.533    2.000    2.800    0.000    1.267 
#    0.000    0.000    0.000    4.800    0.000    0.000 
#    0.000    7.467    0.000   12.400    0.000    0.000 
#
# Total GULP energy -1487151.331605 kJ/mol
# GULP energy per Si atom -12392.927763 kJ/mol
# Density = 1.646191 g / cm^3
# Si number density = 16.499461 Si / 1000 Ang^3
#
#
#
# Elastic Constant Matrix: (Units=GPa)
#
#
# Indices 1 2 3 4 5 6 
#
# 1 71.1802 28.4543 26.2665 0.0000 0.0000 0.0000
# 2 28.4543 71.1802 26.2666 0.0000 0.0000 0.0000
# 3 26.2665 26.2666 77.1520 0.0000 0.0000 0.0000
# 4 0.0000 0.0000 0.0000 21.0548 0.0000 0.0000
# 5 0.0000 0.0000 0.0000 0.0000 21.0547 0.0000
# 6 0.0000 0.0000 0.0000 0.0000 0.0000 18.9931
#
#
#
# Elastic Compliance Matrix: (Units=1/GPa)
#
#
# Indices 1 2 3 4 5 6 
#
# 1 0.017819 -0.005586 -0.004165 0.000000 0.000000 0.000000
# 2 -0.005586 0.017819 -0.004165 0.000000 0.000000 0.000000
# 3 -0.004165 -0.004165 0.015797 0.000000 0.000000 0.000000
# 4 0.000000 0.000000 0.000000 0.047495 0.000000 0.000000
# 5 0.000000 0.000000 0.000000 0.000000 0.047495 0.000000
# 6 0.000000 0.000000 0.000000 0.000000 0.000000 0.052651
#
#
# Mechanical properties :
#
#
# Convention : Reuss Voigt Hill
#
# Bulk Modulus (GPa) = 42.36609 42.38747 42.37678
# Shear Modulus (GPa) = 21.29704 21.45553 21.37628
#
# Velocity S-wave (km/s) = 3.59663 3.60999 3.60331
# Velocity P-wave (km/s) = 6.55596 6.56673 6.56135
#
# Compressibility (1/GPa) = 0.02360378
#
# Stress axis : x y z
#
# Youngs Moduli (GPa) = 56.12063 56.12065 63.30271
#
# Poissons Ratio (x) = 0.31351 0.26363
# Poissons Ratio (y) = 0.31351 0.26363
# Poissons Ratio (z) = 0.23372 0.23372
#
# Static dielectric constant tensor:
#      x y z
#    x 3.109750 0.000000 0.000000 
#    y 0.000000 3.109750 0.000000 
#    z 0.000000 0.000000 3.313360 
# 
# 
# High freq. dielectric constant tensor:
#      x y z
#    x 1.624350 0.000000 0.000000 
#    y 0.000000 1.624350 0.000000 
#    z 0.000000 0.000000 1.633600 
# 
# From -- ./inp_files/14686.got.cif
#   From: 2010.03.12/outbox.cif.g09.slc.cpg/sg139_8_cif.got.tgz:14686.got - 2010.04.08 09:46:31.
