data_PCOD8319459
_publ_section_title
;
Structure prediction by ZEFSAII (Michael W. Deem and Ramdas Pophale) SiO2 
 PCOD8319459
Probable space group: I 4/M M M
;
_chemical_formula_sum "Si O2"
_cell_formula_units_Z 192
_cell_length_a 22.732220
_cell_length_b 22.732220
_cell_length_c 23.919012
_cell_angle_alpha 90.000000
_cell_angle_beta 90.000000
_cell_angle_gamma 90.000000
_cell_volume 12360.240968
_symmetry_space_group_name_H-M "I 4/M M M"
_symmetry_group_IT_number 139
_symmetry_cell_setting 'tetragonal'
loop_
_space_group_symop_operation_xyz
x,y,z
-y,x,z
-x,-y,z
y,-x,z
x,-y,-z
-x,y,-z
y,x,-z
-y,-x,-z
-x,-y,-z
y,-x,-z
x,y,-z
-y,x,-z
-x,y,z
x,-y,z
-y,-x,z
y,x,z
1/2+x,1/2+y,1/2+z
1/2-y,1/2+x,1/2+z
1/2-x,1/2-y,1/2+z
1/2+y,1/2-x,1/2+z
1/2+x,1/2-y,1/2-z
1/2-x,1/2+y,1/2-z
1/2+y,1/2+x,1/2-z
1/2-y,1/2-x,1/2-z
1/2-x,1/2-y,1/2-z
1/2+y,1/2-x,1/2-z
1/2+x,1/2+y,1/2-z
1/2-y,1/2+x,1/2-z
1/2-x,1/2+y,1/2+z
1/2+x,1/2-y,1/2+z
1/2-y,1/2-x,1/2+z
1/2+y,1/2+x,1/2+z
loop_
_atom_site_type_symbol
_atom_site_label
_atom_site_fract_x
_atom_site_fract_y
_atom_site_fract_z
Si Si1 0.817875 0.278436 0.000000
Si Si2 0.431810 0.851341 0.713291
Si Si3 0.747926 0.252075 0.834585
Si Si4 0.768701 0.064921 0.275457
Si Si5 0.655506 0.171108 0.388756
Si Si6 0.321181 0.678820 0.740044
Si Si7 0.433253 0.232406 0.897817
Si Si8 0.216892 0.875955 0.500000
O O1 0.859324 0.290639 0.055034
O O2 0.766534 0.326177 0.000000
O O3 0.787106 0.212895 0.000000
O O4 0.500000 0.865841 0.697948
O O5 0.404749 0.904749 0.750000
O O6 0.426694 0.797491 0.755120
O O7 0.396983 0.832083 0.656664
O O8 0.782470 0.301599 0.868338
O O9 0.715242 0.284759 0.785107
O O10 0.796745 0.203256 0.818201
O O11 0.811647 0.109389 0.243961
O O12 0.768391 0.077677 0.341050
O O13 0.792364 0.000000 0.261367
O O14 0.671996 0.103895 0.402911
O O15 0.500000 0.210979 0.902683
O O16 0.417144 0.278052 0.946126
O O17 0.152654 0.847347 0.500000
#
# Coordination Sequence:
#
# PCOD8319459 Si02
#       8
#    16  32  16  32  32  16  32  16
#     4   9  18  29  46  72 101 125 154 195 249 309
#     4  11  21  35  50  70  98 131 170 213 256 298
#     4  11  18  25  48  74  94 125 161 189 253 303
#     4  10  20  30  46  71  96 121 154 198 248 298
#     4  11  19  32  48  73  99 128 162 205 248 299
#     4  11  18  28  46  69  98 126 154 196 241 309
#     4  10  19  30  44  62  95 128 154 191 241 291
#     4   9  19  29  43  66  91 120 156 197 234 284
#
# _framework density 15.533678
#
# number of rings (size 3 to 8) (size 9 to 14) (size 15 to 20)
#    0.000    1.667    5.833    0.250    2.333    0.167 
#    0.000    0.417    0.000    0.250    0.000    0.000 
#    0.000    8.000    0.000    0.000    0.000    0.000 
#
# Total GULP energy -1189694.582479 kJ/mol
# GULP energy per Si atom -12392.651901 kJ/mol
# Density = 1.549832 g / cm^3
# Si number density = 15.533678 Si / 1000 Ang^3
#
#
#
# Elastic Constant Matrix: (Units=GPa)
#
#
# Indices 1 2 3 4 5 6 
#
# 1 64.2264 40.7989 27.4686 0.0000 0.0000 0.0000
# 2 40.7989 64.2265 27.4687 0.0000 0.0000 0.0000
# 3 27.4686 27.4687 86.4546 0.0000 0.0000 0.0000
# 4 0.0000 0.0000 0.0000 15.4812 0.0000 0.0000
# 5 0.0000 0.0000 0.0000 0.0000 15.4809 0.0000
# 6 0.0000 0.0000 0.0000 0.0000 0.0000 17.0918
#
#
#
# Elastic Compliance Matrix: (Units=1/GPa)
#
#
# Indices 1 2 3 4 5 6 
#
# 1 0.027052 -0.015633 -0.003628 0.000000 0.000000 0.000000
# 2 -0.015633 0.027052 -0.003628 0.000000 0.000000 0.000000
# 3 -0.003628 -0.003628 0.013872 0.000000 0.000000 0.000000
# 4 0.000000 0.000000 0.000000 0.064595 0.000000 0.000000
# 5 0.000000 0.000000 0.000000 0.000000 0.064596 0.000000
# 6 0.000000 0.000000 0.000000 0.000000 0.000000 0.058508
#
#
# Mechanical properties :
#
#
# Convention : Reuss Voigt Hill
#
# Bulk Modulus (GPa) = 45.04863 45.15332 45.10097
# Shear Modulus (GPa) = 16.18897 17.55551 16.87224
#
# Velocity S-wave (km/s) = 3.23179 3.36543 3.29929
# Velocity P-wave (km/s) = 6.55664 6.65076 6.60387
#
# Compressibility (1/GPa) = 0.02219823
#
# Stress axis : x y z
#
# Youngs Moduli (GPa) = 36.96569 36.96574 72.08611
#
# Poissons Ratio (x) = 0.57787 0.26154
# Poissons Ratio (y) = 0.57787 0.26154
# Poissons Ratio (z) = 0.13412 0.13412
#
# Static dielectric constant tensor:
#      x y z
#    x 2.912190 0.000000 0.000000 
#    y 0.000000 2.912190 0.000000 
#    z 0.000000 0.000000 3.255520 
# 
# 
# High freq. dielectric constant tensor:
#      x y z
#    x 1.571700 0.000000 0.000000 
#    y 0.000000 1.571700 0.000000 
#    z 0.000000 0.000000 1.604840 
# 
# From -- ./inp_files/12151.got.cif
#   From: 2010.03.12/outbox.cif.g09.slc.cpg/sg139_7_cif.got.tgz:12151.got - 2010.04.08 09:46:31.
