data_PCOD8319488
_publ_section_title
;
Structure prediction by ZEFSAII (Michael W. Deem and Ramdas Pophale) SiO2 
 PCOD8319488
Probable space group: I 4/M M M
;
_chemical_formula_sum "Si O2"
_cell_formula_units_Z 160
_cell_length_a 18.242539
_cell_length_b 18.242539
_cell_length_c 27.023477
_cell_angle_alpha 90.000000
_cell_angle_beta 90.000000
_cell_angle_gamma 90.000000
_cell_volume 8993.149104
_symmetry_space_group_name_H-M "I 4/M M M"
_symmetry_group_IT_number 139
_symmetry_cell_setting 'tetragonal'
loop_
_space_group_symop_operation_xyz
x,y,z
-y,x,z
-x,-y,z
y,-x,z
x,-y,-z
-x,y,-z
y,x,-z
-y,-x,-z
-x,-y,-z
y,-x,-z
x,y,-z
-y,x,-z
-x,y,z
x,-y,z
-y,-x,z
y,x,z
1/2+x,1/2+y,1/2+z
1/2-y,1/2+x,1/2+z
1/2-x,1/2-y,1/2+z
1/2+y,1/2-x,1/2+z
1/2+x,1/2-y,1/2-z
1/2-x,1/2+y,1/2-z
1/2+y,1/2+x,1/2-z
1/2-y,1/2-x,1/2-z
1/2-x,1/2-y,1/2-z
1/2+y,1/2-x,1/2-z
1/2+x,1/2+y,1/2-z
1/2-y,1/2+x,1/2-z
1/2-x,1/2+y,1/2+z
1/2+x,1/2-y,1/2+z
1/2-y,1/2-x,1/2+z
1/2+y,1/2+x,1/2+z
loop_
_atom_site_type_symbol
_atom_site_label
_atom_site_fract_x
_atom_site_fract_y
_atom_site_fract_z
Si Si1 0.798069 0.915231 0.348544
Si Si2 0.085412 0.278584 0.446336
Si Si3 0.916940 0.798760 0.943110
Si Si4 0.583460 0.144902 0.600796
Si Si5 0.355554 0.085391 0.300451
O O1 0.866669 0.866669 0.330424
O O2 0.772787 0.884425 0.402419
O O3 0.731017 0.905930 0.310536
O O4 0.822924 0.000000 0.351077
O O5 0.121075 0.259051 0.500000
O O6 0.097747 0.363912 0.434209
O O7 0.000000 0.265163 0.449278
O O8 0.865060 0.865060 0.926709
O O9 0.899205 0.730529 0.907678
O O10 0.000000 0.825966 0.935861
O O11 0.902921 0.775383 0.000000
O O12 0.500000 0.126990 0.585791
O O13 0.596540 0.125106 0.657782
O O14 0.373982 0.126019 0.250000
O O15 0.377623 0.000000 0.298402
#
# Coordination Sequence:
#
# PCOD8319488 Si02
#       5
#    32  32  32  32  32
#     4   9  19  35  53  75 101 127 161 203 243 287
#     4   9  18  31  46  67  98 135 169 199 235 281
#     4   9  18  32  49  70  97 129 166 207 248 291
#     4  10  19  30  46  71 100 127 160 201 243 292
#     4  10  21  36  54  76 100 128 163 201 241 287
#
# _framework density 17.791322000000001
#
# number of rings (size 3 to 8) (size 9 to 14) (size 15 to 20)
#    0.000    2.600    0.000    3.000    0.000    8.200 
#    0.000    2.000    0.000    0.000    0.000    2.800 
#    0.000    6.400    0.000    0.000    0.000    0.000 
#
# Total GULP energy -991754.478212 kJ/mol
# GULP energy per Si atom -12396.930978 kJ/mol
# Density = 1.775083 g / cm^3
# Si number density = 17.791322 Si / 1000 Ang^3
#
#
#
# Elastic Constant Matrix: (Units=GPa)
#
#
# Indices 1 2 3 4 5 6 
#
# 1 77.1767 49.8320 40.5155 0.0000 0.0000 0.0000
# 2 49.8320 77.1754 40.5152 0.0000 0.0000 0.0000
# 3 40.5155 40.5152 105.2638 0.0000 0.0000 0.0000
# 4 0.0000 0.0000 0.0000 18.3682 0.0000 0.0000
# 5 0.0000 0.0000 0.0000 0.0000 18.3690 0.0000
# 6 0.0000 0.0000 0.0000 0.0000 0.0000 35.2430
#
#
#
# Elastic Compliance Matrix: (Units=1/GPa)
#
#
# Indices 1 2 3 4 5 6 
#
# 1 0.023503 -0.013067 -0.004017 0.000000 0.000000 0.000000
# 2 -0.013067 0.023504 -0.004017 0.000000 0.000000 0.000000
# 3 -0.004017 -0.004017 0.012592 0.000000 0.000000 0.000000
# 4 0.000000 0.000000 0.000000 0.054442 0.000000 0.000000
# 5 0.000000 0.000000 0.000000 0.000000 0.054440 0.000000
# 6 0.000000 0.000000 0.000000 0.000000 0.000000 0.028374
#
#
# Mechanical properties :
#
#
# Convention : Reuss Voigt Hill
#
# Bulk Modulus (GPa) = 57.48059 57.92682 57.70371
# Shear Modulus (GPa) = 20.42012 22.97958 21.69985
#
# Velocity S-wave (km/s) = 3.39153 3.59781 3.49619
# Velocity P-wave (km/s) = 6.90761 7.06319 6.98583
#
# Compressibility (1/GPa) = 0.01739718
#
# Stress axis : x y z
#
# Youngs Moduli (GPa) = 42.54700 42.54621 79.41512
#
# Poissons Ratio (x) = 0.55597 0.31900
# Poissons Ratio (y) = 0.55598 0.31900
# Poissons Ratio (z) = 0.17090 0.17090
#
# Static dielectric constant tensor:
#      x y z
#    x 3.196040 0.000000 0.000000 
#    y 0.000000 3.196040 0.000000 
#    z 0.000000 0.000000 3.415890 
# 
# 
# High freq. dielectric constant tensor:
#      x y z
#    x 1.682650 0.000000 0.000000 
#    y 0.000000 1.682650 0.000000 
#    z 0.000000 0.000000 1.677900 
# 
# From -- ./inp_files/12903.got.cif
#   From: 2010.03.12/outbox.cif.g09.slc.cpg/sg139_7_cif.got.tgz:12903.got - 2010.04.08 09:46:31.
