data_PCOD8319071
_publ_section_title
;
Structure prediction by ZEFSAII (Michael W. Deem and Ramdas Pophale) SiO2 
 PCOD8319071
Probable space group: P 42/N C M
;
_chemical_formula_sum "Si O2"
_cell_formula_units_Z 80
_cell_length_a 12.749471
_cell_length_b 12.749471
_cell_length_c 28.380498
_cell_angle_alpha 90.000000
_cell_angle_beta 90.000000
_cell_angle_gamma 90.000000
_cell_volume 4613.221875
_symmetry_space_group_name_H-M "P 42/N C M"
_symmetry_group_IT_number 138
_space_group.IT_coordinate_system_code '2'
_symmetry_cell_setting 'tetragonal'
loop_
_space_group_symop_operation_xyz
x,y,z
1/2-y,x,1/2+z
1/2-x,1/2-y,z
y,1/2-x,1/2+z
1/2+x,-y,1/2-z
-x,1/2+y,1/2-z
1/2+y,1/2+x,-z
-y,-x,-z
-x,-y,-z
1/2+y,-x,1/2-z
1/2+x,1/2+y,-z
-y,1/2+x,1/2-z
1/2-x,y,1/2+z
x,1/2-y,1/2+z
1/2-y,1/2-x,z
y,x,z
loop_
_atom_site_type_symbol
_atom_site_label
_atom_site_fract_x
_atom_site_fract_y
_atom_site_fract_z
Si Si1 0.357957 0.814111 0.450420
Si Si2 0.626582 0.252549 0.366225
Si Si3 0.850073 0.476163 0.898190
Si Si4 0.917793 0.749053 0.310467
Si Si5 0.745029 0.413241 0.736281
O O1 0.250000 0.750000 0.453296
O O2 0.375522 0.875522 0.500000
O O3 0.337727 0.894171 0.406291
O O4 0.454354 0.733371 0.440704
O O5 0.750000 0.250000 0.352948
O O6 0.591729 0.367197 0.385491
O O7 0.562866 0.226649 0.318481
O O8 0.781161 0.509163 0.853609
O O9 0.935080 0.564921 0.913025
O O10 0.850927 0.649074 0.326997
O O11 0.844854 0.844854 0.295580
O O12 0.980904 0.718872 0.263631
O O13 0.841365 0.358369 0.762984
#
# Coordination Sequence:
#
# PCOD8319071 Si02
#       5
#    16  16  16  16  16
#     4   8  15  28  44  65  92 120 144 187 244 282
#     4   9  15  26  43  65  92 120 151 186 226 276
#     4   9  16  28  45  64  86 117 155 191 227 275
#     4  10  21  33  44  65  97 127 157 194 234 276
#     4  11  17  28  47  69  92 125 159 192 227 274
#
# _framework density 17.341459
#
# number of rings (size 3 to 8) (size 9 to 14) (size 15 to 20)
#    0.000    3.000    4.000    1.200    0.000    1.600 
#    0.000    8.000    0.000    0.600    0.000    0.000 
#    0.000    3.200    0.000    0.000    0.000    0.000 
#
# Total GULP energy -991174.392033 kJ/mol
# GULP energy per Si atom -12389.679900 kJ/mol
# Density = 1.730199 g / cm^3
# Si number density = 17.341459 Si / 1000 Ang^3
#
#
#
# Elastic Constant Matrix: (Units=GPa)
#
#
# Indices 1 2 3 4 5 6 
#
# 1 56.8071 27.7889 33.6046 0.0000 0.0000 0.0000
# 2 27.7889 56.8071 33.6046 0.0000 0.0000 0.0000
# 3 33.6046 33.6046 132.4537 0.0000 0.0000 0.0000
# 4 0.0000 0.0000 0.0000 13.0273 0.0000 0.0000
# 5 0.0000 0.0000 0.0000 0.0000 13.0273 0.0000
# 6 0.0000 0.0000 0.0000 0.0000 0.0000 16.7239
#
#
#
# Elastic Compliance Matrix: (Units=1/GPa)
#
#
# Indices 1 2 3 4 5 6 
#
# 1 0.024633 -0.009828 -0.003756 0.000000 0.000000 0.000000
# 2 -0.009828 0.024633 -0.003756 0.000000 0.000000 0.000000
# 3 -0.003756 -0.003756 0.009456 0.000000 0.000000 0.000000
# 4 0.000000 0.000000 0.000000 0.076762 0.000000 0.000000
# 5 0.000000 0.000000 0.000000 0.000000 0.076762 0.000000
# 6 0.000000 0.000000 0.000000 0.000000 0.000000 0.059795
#
#
# Mechanical properties :
#
#
# Convention : Reuss Voigt Hill
#
# Bulk Modulus (GPa) = 41.59526 48.45156 45.02341
# Shear Modulus (GPa) = 15.88642 18.62705 17.25674
#
# Velocity S-wave (km/s) = 3.02999 3.28095 3.15797
# Velocity P-wave (km/s) = 6.02322 6.50794 6.27027
#
# Compressibility (1/GPa) = 0.02404120
#
# Stress axis : x y z
#
# Youngs Moduli (GPa) = 40.59576 40.59576 105.75589
#
# Poissons Ratio (x) = 0.39898 0.39724
# Poissons Ratio (y) = 0.39898 0.39724
# Poissons Ratio (z) = 0.15248 0.15248
#
# Static dielectric constant tensor:
#      x y z
#    x 2.990980 0.000000 0.000000 
#    y 0.000000 2.990980 0.000000 
#    z 0.000000 0.000000 4.014720 
# 
# 
# High freq. dielectric constant tensor:
#      x y z
#    x 1.634090 0.000000 0.000000 
#    y 0.000000 1.634090 0.000000 
#    z 0.000000 0.000000 1.676280 
# 
# From -- ./inp_files/7877.got.cif
#   From: 2010.03.12/outbox.cif.g09.slc.cpg/sg138_4_cif.got.tgz:7877.got - 2010.04.08 09:41:05.
