data_PCOD8319786
_publ_section_title
;
Structure prediction by ZEFSAII (Michael W. Deem and Ramdas Pophale) SiO2 
 PCOD8319786
Probable space group: I 4/M M M
;
_chemical_formula_sum "Si O2"
_cell_formula_units_Z 160
_cell_length_a 32.401262
_cell_length_b 32.401262
_cell_length_c 7.936891
_cell_angle_alpha 90.000000
_cell_angle_beta 90.000000
_cell_angle_gamma 90.000000
_cell_volume 8332.479769
_symmetry_space_group_name_H-M "I 4/M M M"
_symmetry_group_IT_number 139
_symmetry_cell_setting 'tetragonal'
loop_
_space_group_symop_operation_xyz
x,y,z
-y,x,z
-x,-y,z
y,-x,z
x,-y,-z
-x,y,-z
y,x,-z
-y,-x,-z
-x,-y,-z
y,-x,-z
x,y,-z
-y,x,-z
-x,y,z
x,-y,z
-y,-x,z
y,x,z
1/2+x,1/2+y,1/2+z
1/2-y,1/2+x,1/2+z
1/2-x,1/2-y,1/2+z
1/2+y,1/2-x,1/2+z
1/2+x,1/2-y,1/2-z
1/2-x,1/2+y,1/2-z
1/2+y,1/2+x,1/2-z
1/2-y,1/2-x,1/2-z
1/2-x,1/2-y,1/2-z
1/2+y,1/2-x,1/2-z
1/2+x,1/2+y,1/2-z
1/2-y,1/2+x,1/2-z
1/2-x,1/2+y,1/2+z
1/2+x,1/2-y,1/2+z
1/2-y,1/2-x,1/2+z
1/2+y,1/2+x,1/2+z
loop_
_atom_site_type_symbol
_atom_site_label
_atom_site_fract_x
_atom_site_fract_y
_atom_site_fract_z
Si Si1 0.046101 0.390078 0.198778
Si Si2 0.283159 0.283159 0.801914
Si Si3 0.453208 0.385064 0.000000
Si Si4 0.765969 0.874062 0.694451
Si Si5 0.675865 0.111720 0.801430
Si Si6 0.654441 0.412920 0.311047
O O1 0.066454 0.433547 0.250000
O O2 0.073923 0.352214 0.267894
O O3 0.000000 0.387388 0.276507
O O4 0.043894 0.387305 0.000000
O O5 0.250000 0.250000 0.750000
O O6 0.327756 0.269514 0.730307
O O7 0.285385 0.285385 0.000000
O O8 0.445807 0.358462 0.830662
O O9 0.500000 0.399995 0.000000
O O10 0.425866 0.425866 0.000000
O O11 0.779116 0.874847 0.500000
O O12 0.720090 0.891636 0.714431
O O13 0.797101 0.903403 0.795560
O O14 0.654860 0.154860 0.750000
O O15 0.681554 0.109632 0.000000
O O16 0.645834 0.430339 0.500000
O O17 0.629380 0.370621 0.279201
#
# Coordination Sequence:
#
# PCOD8319786 Si02
#       6
#    32  16  16  32  32  32
#     4   9  19  36  56  77 103 134 170 219 279 342
#     4  10  22  32  46  72 110 150 192 249 292 331
#     4  10  22  41  66  94 128 156 194 244 291 355
#     4  11  20  34  54  77 111 154 198 243 290 340
#     4  10  20  34  51  74 105 145 190 234 287 349
#     4  10  20  36  61  89 118 160 203 241 292 344
#
# _framework density 19.201967
#
# number of rings (size 3 to 8) (size 9 to 14) (size 15 to 20)
#    0.000    2.000    2.000    1.800    0.000    5.100 
#    0.000    2.000    0.000    2.400    0.000    2.800 
#    0.000    0.000    0.000    0.000    0.000    0.000 
#
# Total GULP energy -992104.559343 kJ/mol
# GULP energy per Si atom -12401.306992 kJ/mol
# Density = 1.915826 g / cm^3
# Si number density = 19.201967 Si / 1000 Ang^3
#
#
#
# Elastic Constant Matrix: (Units=GPa)
#
#
# Indices 1 2 3 4 5 6 
#
# 1 72.4703 91.3796 25.6717 0.0000 0.0000 0.0000
# 2 91.3796 72.5059 25.6582 0.0000 0.0000 0.0000
# 3 25.6717 25.6582 82.7523 0.0000 0.0000 0.0000
# 4 0.0000 0.0000 0.0000 20.5302 0.0000 0.0000
# 5 0.0000 0.0000 0.0000 0.0000 20.5308 0.0000
# 6 0.0000 0.0000 0.0000 0.0000 0.0000 17.2911
#
#
#
# Elastic Compliance Matrix: (Units=1/GPa)
#
#
# Indices 1 2 3 4 5 6 
#
# 1 -0.023095 0.029846 -0.002090 0.000000 0.000000 0.000000
# 2 0.029846 -0.023080 -0.002103 0.000000 0.000000 0.000000
# 3 -0.002090 -0.002103 0.013385 0.000000 0.000000 0.000000
# 4 0.000000 0.000000 0.000000 0.048709 0.000000 0.000000
# 5 0.000000 0.000000 0.000000 0.000000 0.048707 0.000000
# 6 0.000000 0.000000 0.000000 0.000000 0.000000 0.057833
#
#
# Mechanical properties :
#
#
# Convention : Reuss Voigt Hill
#
# Bulk Modulus (GPa) = 54.00254 57.01639 55.50946
# Shear Modulus (GPa) = 64.66326 17.33836 41.00081
#
# Velocity S-wave (km/s) = 5.80934 3.00817 4.62588
# Velocity P-wave (km/s) = 8.55467 6.46706 7.58305
#
# Compressibility (1/GPa) = 0.01851765
#
# Stress axis : x y z
#
# Youngs Moduli (GPa) = -43.29899 -43.32845 74.71306
#
# Poissons Ratio (x) = 1.29320 0.15612
# Poissons Ratio (y) = 1.29232 0.15712
# Poissons Ratio (z) = -0.09047 -0.09112
#
# Static dielectric constant tensor:
#      x y z
#    x 3.480430 0.000000 0.000000 
#    y 0.000000 3.480450 0.000000 
#    z 0.000000 0.000000 3.510460 
# 
# 
# High freq. dielectric constant tensor:
#      x y z
#    x 1.733850 0.000000 0.000000 
#    y 0.000000 1.733850 0.000000 
#    z 0.000000 0.000000 1.751780 
# 
# From -- ./inp_files/2192.got.cif
#   From: 2010.03.12/outbox.cif.g09.slc.cpg/sg139_2_cif.got.tgz:2192.got - 2010.04.08 09:46:31.
