data_PCOD8319584
_publ_section_title
;
Structure prediction by ZEFSAII (Michael W. Deem and Ramdas Pophale) SiO2 
 PCOD8319584
Probable space group: I 4/M M M
;
_chemical_formula_sum "Si O2"
_cell_formula_units_Z 144
_cell_length_a 20.117647
_cell_length_b 20.117647
_cell_length_c 20.601702
_cell_angle_alpha 90.000000
_cell_angle_beta 90.000000
_cell_angle_gamma 90.000000
_cell_volume 8337.915082
_symmetry_space_group_name_H-M "I 4/M M M"
_symmetry_group_IT_number 139
_symmetry_cell_setting 'tetragonal'
loop_
_space_group_symop_operation_xyz
x,y,z
-y,x,z
-x,-y,z
y,-x,z
x,-y,-z
-x,y,-z
y,x,-z
-y,-x,-z
-x,-y,-z
y,-x,-z
x,y,-z
-y,x,-z
-x,y,z
x,-y,z
-y,-x,z
y,x,z
1/2+x,1/2+y,1/2+z
1/2-y,1/2+x,1/2+z
1/2-x,1/2-y,1/2+z
1/2+y,1/2-x,1/2+z
1/2+x,1/2-y,1/2-z
1/2-x,1/2+y,1/2-z
1/2+y,1/2+x,1/2-z
1/2-y,1/2-x,1/2-z
1/2-x,1/2-y,1/2-z
1/2+y,1/2-x,1/2-z
1/2+x,1/2+y,1/2-z
1/2-y,1/2+x,1/2-z
1/2-x,1/2+y,1/2+z
1/2+x,1/2-y,1/2+z
1/2-y,1/2-x,1/2+z
1/2+y,1/2+x,1/2+z
loop_
_atom_site_type_symbol
_atom_site_label
_atom_site_fract_x
_atom_site_fract_y
_atom_site_fract_z
Si Si1 0.321017 0.424828 0.735078
Si Si2 0.575210 0.684467 0.884765
Si Si3 0.000000 0.575441 0.576761
Si Si4 0.218979 0.326502 0.314951
Si Si5 0.115770 0.327307 0.574170
O O1 0.323984 0.500000 0.711869
O O2 0.394594 0.394594 0.727445
O O3 0.297469 0.416050 0.809216
O O4 0.270098 0.387167 0.688544
O O5 0.500000 0.658883 0.898494
O O6 0.626933 0.626933 0.906778
O O7 0.587144 0.752509 0.923402
O O8 0.063658 0.617641 0.599704
O O9 0.000000 0.500000 0.606162
O O10 0.000000 0.570995 0.500000
O O11 0.255621 0.255621 0.319700
O O12 0.173469 0.326532 0.250000
O O13 0.179091 0.336321 0.380694
O O14 0.136405 0.341833 0.500000
#
# Coordination Sequence:
#
# PCOD8319584 Si02
#       5
#    32  32  16  32  32
#     4   9  18  32  52  77 105 139 175 214 263 315
#     4  10  19  32  51  77 109 145 184 221 259 306
#     4   9  20  38  56  74 101 137 174 214 265 319
#     4  10  19  33  52  74 103 139 173 211 264 311
#     4  11  21  34  55  79 103 136 179 221 260 312
#
# _framework density 17.270505
#
# number of rings (size 3 to 8) (size 9 to 14) (size 15 to 20)
#    0.000    2.111    3.333    0.667    0.000    3.111 
#    0.000    2.222    0.000    0.000    0.000    1.556 
#    0.000    0.000    0.000    4.889    0.000    0.222 
#
# Total GULP energy -892723.331063 kJ/mol
# GULP energy per Si atom -12398.935154 kJ/mol
# Density = 1.723120 g / cm^3
# Si number density = 17.270505 Si / 1000 Ang^3
#
#
#
# Elastic Constant Matrix: (Units=GPa)
#
#
# Indices 1 2 3 4 5 6 
#
# 1 111.5365 42.1263 39.2250 0.0000 0.0000 0.0000
# 2 42.1263 111.5354 39.2249 0.0000 0.0000 0.0000
# 3 39.2250 39.2249 76.4954 0.0000 0.0000 0.0000
# 4 0.0000 0.0000 0.0000 22.7894 0.0000 0.0000
# 5 0.0000 0.0000 0.0000 0.0000 22.7894 0.0000
# 6 0.0000 0.0000 0.0000 0.0000 0.0000 21.6539
#
#
#
# Elastic Compliance Matrix: (Units=1/GPa)
#
#
# Indices 1 2 3 4 5 6 
#
# 1 0.011611 -0.002796 -0.004520 0.000000 0.000000 0.000000
# 2 -0.002796 0.011611 -0.004520 0.000000 0.000000 0.000000
# 3 -0.004520 -0.004520 0.017709 0.000000 0.000000 0.000000
# 4 0.000000 0.000000 0.000000 0.043880 0.000000 0.000000
# 5 0.000000 0.000000 0.000000 0.000000 0.043880 0.000000
# 6 0.000000 0.000000 0.000000 0.000000 0.000000 0.046181
#
#
# Mechanical properties :
#
#
# Convention : Reuss Voigt Hill
#
# Bulk Modulus (GPa) = 57.94372 60.07996 59.01184
# Shear Modulus (GPa) = 24.47398 25.37929 24.92663
#
# Velocity S-wave (km/s) = 3.76852 3.83759 3.80321
# Velocity P-wave (km/s) = 7.24977 7.38236 7.31636
#
# Compressibility (1/GPa) = 0.01725813
#
# Stress axis : x y z
#
# Youngs Moduli (GPa) = 86.12260 86.12172 56.46969
#
# Poissons Ratio (x) = 0.24078 0.25527
# Poissons Ratio (y) = 0.24078 0.25527
# Poissons Ratio (z) = 0.38931 0.38931
#
# Static dielectric constant tensor:
#      x y z
#    x 3.281690 0.000000 0.000000 
#    y 0.000000 3.281690 0.000000 
#    z 0.000000 0.000000 2.944700 
# 
# 
# High freq. dielectric constant tensor:
#      x y z
#    x 1.666850 0.000000 0.000000 
#    y 0.000000 1.666850 0.000000 
#    z 0.000000 0.000000 1.639910 
# 
# From -- ./inp_files/8203.got.cif
#   From: 2010.03.12/outbox.cif.g09.slc.cpg/sg139_5_cif.got.tgz:8203.got - 2010.04.08 09:46:31.
