data_PCOD8319573
_publ_section_title
;
Structure prediction by ZEFSAII (Michael W. Deem and Ramdas Pophale) SiO2 
 PCOD8319573
Probable space group: I 4/M M M
;
_chemical_formula_sum "Si O2"
_cell_formula_units_Z 192
_cell_length_a 21.383019
_cell_length_b 21.383019
_cell_length_c 22.251565
_cell_angle_alpha 90.000000
_cell_angle_beta 90.000000
_cell_angle_gamma 90.000000
_cell_volume 10174.160980
_symmetry_space_group_name_H-M "I 4/M M M"
_symmetry_group_IT_number 139
_symmetry_cell_setting 'tetragonal'
loop_
_space_group_symop_operation_xyz
x,y,z
-y,x,z
-x,-y,z
y,-x,z
x,-y,-z
-x,y,-z
y,x,-z
-y,-x,-z
-x,-y,-z
y,-x,-z
x,y,-z
-y,x,-z
-x,y,z
x,-y,z
-y,-x,z
y,x,z
1/2+x,1/2+y,1/2+z
1/2-y,1/2+x,1/2+z
1/2-x,1/2-y,1/2+z
1/2+y,1/2-x,1/2+z
1/2+x,1/2-y,1/2-z
1/2-x,1/2+y,1/2-z
1/2+y,1/2+x,1/2-z
1/2-y,1/2-x,1/2-z
1/2-x,1/2-y,1/2-z
1/2+y,1/2-x,1/2-z
1/2+x,1/2+y,1/2-z
1/2-y,1/2+x,1/2-z
1/2-x,1/2+y,1/2+z
1/2+x,1/2-y,1/2+z
1/2-y,1/2-x,1/2+z
1/2+y,1/2+x,1/2+z
loop_
_atom_site_type_symbol
_atom_site_label
_atom_site_fract_x
_atom_site_fract_y
_atom_site_fract_z
Si Si1 0.868249 0.767987 0.068190
Si Si2 0.674294 0.426921 0.000000
Si Si3 0.373060 0.873406 0.070919
Si Si4 0.069994 0.500000 0.428424
Si Si5 0.071618 0.746203 0.616774
Si Si6 0.747207 0.850801 0.736374
Si Si7 0.325339 0.572404 0.676774
O O1 0.800602 0.800602 0.074172
O O2 0.858277 0.697541 0.091545
O O3 0.919068 0.805523 0.107279
O O4 0.893495 0.769010 0.000000
O O5 0.712164 0.407623 0.940230
O O6 0.659283 0.500000 0.000000
O O7 0.608728 0.391273 0.000000
O O8 0.422750 0.825724 0.098222
O O9 0.392166 0.940798 0.096262
O O10 0.379185 0.870585 0.000000
O O11 0.067750 0.500000 0.500000
O O12 0.000000 0.500000 0.402084
O O13 0.118643 0.757050 0.671384
O O14 0.000000 0.760476 0.635487
O O15 0.794100 0.794100 0.743398
O O16 0.677098 0.822903 0.750000
O O17 0.766013 0.903593 0.784725
O O18 0.339435 0.500000 0.690373
O O19 0.388120 0.611881 0.691874
#
# Coordination Sequence:
#
# PCOD8319573 Si02
#       7
#    32  16  32  16  32  32  32
#     4   9  19  34  53  81 113 143 180 231 287 336
#     4  10  22  37  56  85 119 155 195 239 290 350
#     4  10  19  32  50  78 109 147 183 224 274 326
#     4   9  18  30  46  68 104 146 183 221 266 324
#     4  11  21  35  56  83 114 146 187 235 285 337
#     4  10  21  38  59  81 109 144 186 232 287 345
#     4  10  21  37  57  81 111 147 186 232 281 337
#
# _framework density 18.871334999999998
#
# number of rings (size 3 to 8) (size 9 to 14) (size 15 to 20)
#    0.000    2.083    0.833    2.500    1.167    3.917 
#    0.000    0.000    0.000    0.000    0.000    4.667 
#    0.000    0.000    0.000    0.000    0.000    0.000 
#
# Total GULP energy -1190223.036504 kJ/mol
# GULP energy per Si atom -12398.156630 kJ/mol
# Density = 1.882838 g / cm^3
# Si number density = 18.871335 Si / 1000 Ang^3
#
#
#
# Elastic Constant Matrix: (Units=GPa)
#
#
# Indices 1 2 3 4 5 6 
#
# 1 97.1509 37.6640 33.8417 0.0000 0.0000 0.0000
# 2 37.6640 97.1480 33.8418 0.0000 0.0000 0.0000
# 3 33.8417 33.8418 85.4937 0.0000 0.0000 0.0000
# 4 0.0000 0.0000 0.0000 23.0590 0.0000 0.0000
# 5 0.0000 0.0000 0.0000 0.0000 23.0583 0.0000
# 6 0.0000 0.0000 0.0000 0.0000 0.0000 24.6582
#
#
#
# Elastic Compliance Matrix: (Units=1/GPa)
#
#
# Indices 1 2 3 4 5 6 
#
# 1 0.013034 -0.003777 -0.003664 0.000000 0.000000 0.000000
# 2 -0.003777 0.013034 -0.003665 0.000000 0.000000 0.000000
# 3 -0.003664 -0.003665 0.014598 0.000000 0.000000 0.000000
# 4 0.000000 0.000000 0.000000 0.043367 0.000000 0.000000
# 5 0.000000 0.000000 0.000000 0.000000 0.043368 0.000000
# 6 0.000000 0.000000 0.000000 0.000000 0.000000 0.040554
#
#
# Mechanical properties :
#
#
# Convention : Reuss Voigt Hill
#
# Bulk Modulus (GPa) = 54.18624 54.49861 54.34243
# Shear Modulus (GPa) = 25.46878 25.78476 25.62677
#
# Velocity S-wave (km/s) = 3.67768 3.70042 3.68907
# Velocity P-wave (km/s) = 6.84175 6.87017 6.85598
#
# Compressibility (1/GPa) = 0.01845487
#
# Stress axis : x y z
#
# Youngs Moduli (GPa) = 76.72305 76.72032 68.50332
#
# Poissons Ratio (x) = 0.28975 0.25102
# Poissons Ratio (y) = 0.28976 0.25103
# Poissons Ratio (z) = 0.28114 0.28115
#
# Static dielectric constant tensor:
#      x y z
#    x 3.445110 0.000000 0.000000 
#    y 0.000000 3.445110 0.000000 
#    z 0.000000 0.000000 3.527260 
# 
# 
# High freq. dielectric constant tensor:
#      x y z
#    x 1.728810 0.000000 0.000000 
#    y 0.000000 1.728810 0.000000 
#    z 0.000000 0.000000 1.724140 
# 
# From -- ./inp_files/12019.got.cif
#   From: 2010.03.12/outbox.cif.g09.slc.cpg/sg139_7_cif.got.tgz:12019.got - 2010.04.08 09:46:31.
