data_PCOD8319398
_publ_section_title
;
Structure prediction by ZEFSAII (Michael W. Deem and Ramdas Pophale) SiO2 
 PCOD8319398
Probable space group: I 4/M M M
;
_chemical_formula_sum "Si O2"
_cell_formula_units_Z 160
_cell_length_a 32.689802
_cell_length_b 32.689802
_cell_length_c 7.821562
_cell_angle_alpha 90.000000
_cell_angle_beta 90.000000
_cell_angle_gamma 90.000000
_cell_volume 8358.302260
_symmetry_space_group_name_H-M "I 4/M M M"
_symmetry_group_IT_number 139
_symmetry_cell_setting 'tetragonal'
loop_
_space_group_symop_operation_xyz
x,y,z
-y,x,z
-x,-y,z
y,-x,z
x,-y,-z
-x,y,-z
y,x,-z
-y,-x,-z
-x,-y,-z
y,-x,-z
x,y,-z
-y,x,-z
-x,y,z
x,-y,z
-y,-x,z
y,x,z
1/2+x,1/2+y,1/2+z
1/2-y,1/2+x,1/2+z
1/2-x,1/2-y,1/2+z
1/2+y,1/2-x,1/2+z
1/2+x,1/2-y,1/2-z
1/2-x,1/2+y,1/2-z
1/2+y,1/2+x,1/2-z
1/2-y,1/2-x,1/2-z
1/2-x,1/2-y,1/2-z
1/2+y,1/2-x,1/2-z
1/2+x,1/2+y,1/2-z
1/2-y,1/2+x,1/2-z
1/2-x,1/2+y,1/2+z
1/2+x,1/2-y,1/2+z
1/2-y,1/2-x,1/2+z
1/2+y,1/2+x,1/2+z
loop_
_atom_site_type_symbol
_atom_site_label
_atom_site_fract_x
_atom_site_fract_y
_atom_site_fract_z
Si Si1 0.045631 0.390518 0.298169
Si Si2 0.283189 0.283189 0.799264
Si Si3 0.453329 0.385846 0.000000
Si Si4 0.763572 0.873282 0.703990
Si Si5 0.673665 0.110145 0.701118
Si Si6 0.654921 0.411546 0.307140
O O1 0.043254 0.386545 0.500000
O O2 0.066476 0.433525 0.250000
O O3 0.072504 0.352892 0.220957
O O4 0.000000 0.388994 0.218782
O O5 0.250000 0.250000 0.750000
O O6 0.327312 0.270113 0.725275
O O7 0.286483 0.286483 0.000000
O O8 0.445197 0.359278 0.170353
O O9 0.500000 0.399735 0.000000
O O10 0.426836 0.426836 0.000000
O O11 0.766673 0.874508 0.500000
O O12 0.719874 0.889817 0.771863
O O13 0.797229 0.903053 0.784151
O O14 0.674829 0.105770 0.500000
O O15 0.653097 0.153097 0.750000
O O16 0.646671 0.427656 0.500000
O O17 0.630498 0.369503 0.271002
#
# Coordination Sequence:
#
# PCOD8319398 Si02
#       6
#    32  16  16  32  32  32
#     4   9  18  33  51  71  95 123 160 209 265 330
#     4  10  20  28  42  68 106 148 188 245 282 321
#     4  10  22  41  66  92 124 152 186 236 285 343
#     4  10  18  31  50  72 107 151 192 235 280 327
#     4   9  18  31  48  69  99 140 182 223 277 334
#     4  10  20  35  59  87 115 156 198 233 281 334
#
# _framework density 19.142645000000002
#
# number of rings (size 3 to 8) (size 9 to 14) (size 15 to 20)
#    0.000    2.400    2.000    0.600    0.000    2.700 
#    0.000    2.000    0.000    0.000    0.000    2.800 
#    0.000    0.000    0.000    0.000    0.000    0.000 
#
# Total GULP energy -991880.087859 kJ/mol
# GULP energy per Si atom -12398.501098 kJ/mol
# Density = 1.909908 g / cm^3
# Si number density = 19.142645 Si / 1000 Ang^3
#
#
#
# Elastic Constant Matrix: (Units=GPa)
#
#
# Indices 1 2 3 4 5 6 
#
# 1 136.9017 57.2118 30.0319 0.0000 0.0000 0.0000
# 2 57.2118 136.9015 30.0338 0.0000 0.0000 0.0000
# 3 30.0319 30.0338 58.2478 0.0000 0.0000 0.0000
# 4 0.0000 0.0000 0.0000 17.8912 0.0000 0.0000
# 5 0.0000 0.0000 0.0000 0.0000 17.8914 0.0000
# 6 0.0000 0.0000 0.0000 0.0000 0.0000 18.6113
#
#
#
# Elastic Compliance Matrix: (Units=1/GPa)
#
#
# Indices 1 2 3 4 5 6 
#
# 1 0.009339 -0.003210 -0.003160 0.000000 0.000000 0.000000
# 2 -0.003210 0.009339 -0.003161 0.000000 0.000000 0.000000
# 3 -0.003160 -0.003161 0.020427 0.000000 0.000000 0.000000
# 4 0.000000 0.000000 0.000000 0.055893 0.000000 0.000000
# 5 0.000000 0.000000 0.000000 0.000000 0.055893 0.000000
# 6 0.000000 0.000000 0.000000 0.000000 0.000000 0.053731
#
#
# Mechanical properties :
#
#
# Convention : Reuss Voigt Hill
#
# Bulk Modulus (GPa) = 49.88896 62.95622 56.42259
# Shear Modulus (GPa) = 21.70472 25.19702 23.45087
#
# Velocity S-wave (km/s) = 3.37091 3.63199 3.50388
# Velocity P-wave (km/s) = 6.42409 7.10970 6.77557
#
# Compressibility (1/GPa) = 0.02004452
#
# Stress axis : x y z
#
# Youngs Moduli (GPa) = 107.07741 107.07556 48.95452
#
# Poissons Ratio (x) = 0.34366 0.15471
# Poissons Ratio (y) = 0.34367 0.15473
# Poissons Ratio (z) = 0.33839 0.33843
#
# Static dielectric constant tensor:
#      x y z
#    x 3.577980 0.000000 0.000000 
#    y 0.000000 3.577990 0.000000 
#    z 0.000000 0.000000 3.400790 
# 
# 
# High freq. dielectric constant tensor:
#      x y z
#    x 1.732990 0.000000 0.000000 
#    y 0.000000 1.732990 0.000000 
#    z 0.000000 0.000000 1.737720 
# 
# From -- ./inp_files/2195.got.cif
#   From: 2010.03.12/outbox.cif.g09.slc.cpg/sg139_2_cif.got.tgz:2195.got - 2010.04.08 09:46:31.
