data_PCOD8319354
_publ_section_title
;
Structure prediction by ZEFSAII (Michael W. Deem and Ramdas Pophale) SiO2 
 PCOD8319354
Probable space group: I 4/M M M
;
_chemical_formula_sum "Si O2"
_cell_formula_units_Z 160
_cell_length_a 31.354030
_cell_length_b 31.354030
_cell_length_c 9.038475
_cell_angle_alpha 90.000000
_cell_angle_beta 90.000000
_cell_angle_gamma 90.000000
_cell_volume 8885.500593
_symmetry_space_group_name_H-M "I 4/M M M"
_symmetry_group_IT_number 139
_symmetry_cell_setting 'tetragonal'
loop_
_space_group_symop_operation_xyz
x,y,z
-y,x,z
-x,-y,z
y,-x,z
x,-y,-z
-x,y,-z
y,x,-z
-y,-x,-z
-x,-y,-z
y,-x,-z
x,y,-z
-y,x,-z
-x,y,z
x,-y,z
-y,-x,z
y,x,z
1/2+x,1/2+y,1/2+z
1/2-y,1/2+x,1/2+z
1/2-x,1/2-y,1/2+z
1/2+y,1/2-x,1/2+z
1/2+x,1/2-y,1/2-z
1/2-x,1/2+y,1/2-z
1/2+y,1/2+x,1/2-z
1/2-y,1/2-x,1/2-z
1/2-x,1/2-y,1/2-z
1/2+y,1/2-x,1/2-z
1/2+x,1/2+y,1/2-z
1/2-y,1/2+x,1/2-z
1/2-x,1/2+y,1/2+z
1/2+x,1/2-y,1/2+z
1/2-y,1/2-x,1/2+z
1/2+y,1/2+x,1/2+z
loop_
_atom_site_type_symbol
_atom_site_label
_atom_site_fract_x
_atom_site_fract_y
_atom_site_fract_z
Si Si1 0.451155 0.798521 0.175719
Si Si2 0.397530 0.397530 0.162929
Si Si3 0.825572 0.174429 0.669592
Si Si4 0.953926 0.157750 0.835497
Si Si5 0.450944 0.888184 0.670005
Si Si6 0.611736 0.266740 0.670168
O O1 0.500000 0.783323 0.216342
O O2 0.443265 0.844924 0.241136
O O3 0.412759 0.770628 0.243624
O O4 0.445509 0.799134 0.000000
O O5 0.361469 0.361469 0.174044
O O6 0.381897 0.440922 0.235921
O O7 0.409819 0.409819 0.000000
O O8 0.813835 0.186166 0.500000
O O9 0.782864 0.155808 0.751262
O O10 0.920877 0.195136 0.823178
O O11 0.000000 0.174953 0.783424
O O12 0.955661 0.139695 0.000000
O O13 0.436064 0.882247 0.500000
O O14 0.500000 0.901982 0.676569
O O15 0.425026 0.925026 0.750000
O O16 0.621747 0.253449 0.500000
#
# Coordination Sequence:
#
# PCOD8319354 Si02
#       6
#    32  16  16  32  32  32
#     4  10  20  33  50  74 105 139 174 214 261 312
#     4   9  17  27  39  56  78 104 136 179 228 277
#     4   9  17  29  43  63  93 127 163 201 245 299
#     4   9  17  28  42  59  80 109 143 179 224 282
#     4  10  21  37  57  81 110 144 181 220 260 303
#     4  10  18  29  46  69  97 128 163 203 249 301
#
# _framework density 18.006864
#
# number of rings (size 3 to 8) (size 9 to 14) (size 15 to 20)
#    0.000    2.400    0.000    3.000    0.000    7.000 
#    0.000    1.000    0.000    0.300    0.000    2.800 
#    0.000    0.000    0.000    0.000    0.000    0.000 
#
# Total GULP energy -991286.929952 kJ/mol
# GULP energy per Si atom -12391.086624 kJ/mol
# Density = 1.796588 g / cm^3
# Si number density = 18.006864 Si / 1000 Ang^3
#
#
#
# Elastic Constant Matrix: (Units=GPa)
#
#
# Indices 1 2 3 4 5 6 
#
# 1 64.6807 44.0194 52.5414 0.0000 0.0000 0.0000
# 2 44.0194 64.6806 52.5416 0.0000 0.0000 0.0000
# 3 52.5414 52.5416 126.8475 0.0000 0.0000 0.0000
# 4 0.0000 0.0000 0.0000 45.0701 0.0000 0.0000
# 5 0.0000 0.0000 0.0000 0.0000 45.0688 0.0000
# 6 0.0000 0.0000 0.0000 0.0000 0.0000 33.2016
#
#
#
# Elastic Compliance Matrix: (Units=1/GPa)
#
#
# Indices 1 2 3 4 5 6 
#
# 1 0.031872 -0.016528 -0.006355 0.000000 0.000000 0.000000
# 2 -0.016528 0.031872 -0.006356 0.000000 0.000000 0.000000
# 3 -0.006355 -0.006356 0.013148 0.000000 0.000000 0.000000
# 4 0.000000 0.000000 0.000000 0.022188 0.000000 0.000000
# 5 0.000000 0.000000 0.000000 0.000000 0.022188 0.000000
# 6 0.000000 0.000000 0.000000 0.000000 0.000000 0.030119
#
#
# Mechanical properties :
#
#
# Convention : Reuss Voigt Hill
#
# Bulk Modulus (GPa) = 54.30707 61.60151 57.95429
# Shear Modulus (GPa) = 23.14784 31.80854 27.47819
#
# Velocity S-wave (km/s) = 3.58928 4.20750 3.91062
# Velocity P-wave (km/s) = 6.88490 7.60844 7.25569
#
# Compressibility (1/GPa) = 0.01841381
#
# Stress axis : x y z
#
# Youngs Moduli (GPa) = 31.37590 31.37568 76.05444
#
# Poissons Ratio (x) = 0.51858 0.48336
# Poissons Ratio (y) = 0.51858 0.48337
# Poissons Ratio (z) = 0.19941 0.19941
#
# Static dielectric constant tensor:
#      x y z
#    x 3.266190 0.000000 0.000000 
#    y 0.000000 3.266190 0.000000 
#    z 0.000000 0.000000 3.641000 
# 
# 
# High freq. dielectric constant tensor:
#      x y z
#    x 1.676040 0.000000 0.000000 
#    y 0.000000 1.676040 0.000000 
#    z 0.000000 0.000000 1.715460 
# 
# From -- ./inp_files/2201.got.cif
#   From: 2010.03.12/outbox.cif.g09.slc.cpg/sg139_2_cif.got.tgz:2201.got - 2010.04.08 09:46:31.
