data_PCOD8319900
_publ_section_title
;
Structure prediction by ZEFSAII (Michael W. Deem and Ramdas Pophale) SiO2 
 PCOD8319900
Probable space group: I 4/M M M
;
_chemical_formula_sum "Si O2"
_cell_formula_units_Z 144
_cell_length_a 29.017273
_cell_length_b 29.017273
_cell_length_c 8.057685
_cell_angle_alpha 90.000000
_cell_angle_beta 90.000000
_cell_angle_gamma 90.000000
_cell_volume 6784.587952
_symmetry_space_group_name_H-M "I 4/M M M"
_symmetry_group_IT_number 139
_symmetry_cell_setting 'tetragonal'
loop_
_space_group_symop_operation_xyz
x,y,z
-y,x,z
-x,-y,z
y,-x,z
x,-y,-z
-x,y,-z
y,x,-z
-y,-x,-z
-x,-y,-z
y,-x,-z
x,y,-z
-y,x,-z
-x,y,z
x,-y,z
-y,-x,z
y,x,z
1/2+x,1/2+y,1/2+z
1/2-y,1/2+x,1/2+z
1/2-x,1/2-y,1/2+z
1/2+y,1/2-x,1/2+z
1/2+x,1/2-y,1/2-z
1/2-x,1/2+y,1/2-z
1/2+y,1/2+x,1/2-z
1/2-y,1/2-x,1/2-z
1/2-x,1/2-y,1/2-z
1/2+y,1/2-x,1/2-z
1/2+x,1/2+y,1/2-z
1/2-y,1/2+x,1/2-z
1/2-x,1/2+y,1/2+z
1/2+x,1/2-y,1/2+z
1/2-y,1/2-x,1/2+z
1/2+y,1/2+x,1/2+z
loop_
_atom_site_type_symbol
_atom_site_label
_atom_site_fract_x
_atom_site_fract_y
_atom_site_fract_z
Si Si1 0.249634 0.177349 0.690836
Si Si2 0.552105 0.126266 0.695884
Si Si3 0.448142 0.318762 0.179923
Si Si4 0.627903 0.444888 0.500000
Si Si5 0.273556 0.080132 0.189447
O O1 0.258585 0.164233 0.500000
O O2 0.197949 0.197949 0.714428
O O3 0.284952 0.215049 0.750000
O O4 0.257738 0.133027 0.802888
O O5 0.551887 0.127902 0.500000
O O6 0.500000 0.118518 0.763696
O O7 0.584240 0.084240 0.750000
O O8 0.571841 0.175161 0.764171
O O9 0.500000 0.336345 0.166002
O O10 0.425704 0.345249 0.336615
O O11 0.448939 0.263757 0.208516
O O12 0.423669 0.329190 0.000000
O O13 0.623868 0.500000 0.500000
O O14 0.576922 0.423078 0.500000
O O15 0.272519 0.063213 0.000000
#
# Coordination Sequence:
#
# PCOD8319900 Si02
#       5
#    32  32  32  16  32
#     4  10  21  36  52  74 109 151 194 242 296 355
#     4  10  23  41  61  87 119 157 203 261 324 386
#     4  10  21  38  61  89 122 160 201 251 313 371
#     4  10  22  41  64  92 128 168 211 263 317 373
#     4  11  21  36  60  87 118 157 202 254 309 375
#
# _framework density 21.224577
#
# number of rings (size 3 to 8) (size 9 to 14) (size 15 to 20)
#    0.000    1.778    1.111    2.667    0.000    7.889 
#    0.000    1.111    0.000    0.000    0.000    3.111 
#    0.000    0.000    0.000    0.000    0.000    0.000 
#
# Total GULP energy -892362.907252 kJ/mol
# GULP energy per Si atom -12393.929267 kJ/mol
# Density = 2.117627 g / cm^3
# Si number density = 21.224577 Si / 1000 Ang^3
#
#
#
# Elastic Constant Matrix: (Units=GPa)
#
#
# Indices 1 2 3 4 5 6 
#
# 1 105.0032 52.6063 34.7302 0.0000 0.0000 0.0000
# 2 52.6063 104.9963 34.7271 0.0000 0.0000 0.0000
# 3 34.7302 34.7271 122.2625 0.0000 0.0000 0.0000
# 4 0.0000 0.0000 0.0000 20.3426 0.0000 0.0000
# 5 0.0000 0.0000 0.0000 0.0000 20.3434 0.0000
# 6 0.0000 0.0000 0.0000 0.0000 0.0000 36.2137
#
#
#
# Elastic Compliance Matrix: (Units=1/GPa)
#
#
# Indices 1 2 3 4 5 6 
#
# 1 0.013169 -0.005917 -0.002060 0.000000 0.000000 0.000000
# 2 -0.005917 0.013170 -0.002060 0.000000 0.000000 0.000000
# 3 -0.002060 -0.002060 0.009350 0.000000 0.000000 0.000000
# 4 0.000000 0.000000 0.000000 0.049158 0.000000 0.000000
# 5 0.000000 0.000000 0.000000 0.000000 0.049156 0.000000
# 6 0.000000 0.000000 0.000000 0.000000 0.000000 0.027614
#
#
# Mechanical properties :
#
#
# Convention : Reuss Voigt Hill
#
# Bulk Modulus (GPa) = 64.04294 64.04326 64.04310
# Shear Modulus (GPa) = 26.75290 29.39315 28.07303
#
# Velocity S-wave (km/s) = 3.55416 3.72541 3.64079
# Velocity P-wave (km/s) = 6.86165 6.98173 6.92195
#
# Compressibility (1/GPa) = 0.01561452
#
# Stress axis : x y z
#
# Youngs Moduli (GPa) = 75.93446 75.93032 106.95745
#
# Poissons Ratio (x) = 0.44926 0.22037
# Poissons Ratio (y) = 0.44929 0.22034
# Poissons Ratio (z) = 0.15645 0.15642
#
# Static dielectric constant tensor:
#      x y z
#    x 3.942600 0.000000 0.000000 
#    y 0.000000 3.942600 0.000000 
#    z 0.000000 0.000000 5.258540 
# 
# 
# High freq. dielectric constant tensor:
#      x y z
#    x 1.823570 0.000000 0.000000 
#    y 0.000000 1.823570 0.000000 
#    z 0.000000 0.000000 1.838550 
# 
# From -- ./inp_files/1979.got.cif
#   From: 2010.03.12/outbox.cif.g09.slc.cpg/sg139_1_cif.got.tgz:1979.got - 2010.04.08 09:46:31.
