data_PCOD8319684
_publ_section_title
;
Structure prediction by ZEFSAII (Michael W. Deem and Ramdas Pophale) SiO2 
 PCOD8319684
Probable space group: I 4/M M M
;
_chemical_formula_sum "Si O2"
_cell_formula_units_Z 192
_cell_length_a 21.833225
_cell_length_b 21.833225
_cell_length_c 23.748263
_cell_angle_alpha 90.000000
_cell_angle_beta 90.000000
_cell_angle_gamma 90.000000
_cell_volume 11320.552695
_symmetry_space_group_name_H-M "I 4/M M M"
_symmetry_group_IT_number 139
_symmetry_cell_setting 'tetragonal'
loop_
_space_group_symop_operation_xyz
x,y,z
-y,x,z
-x,-y,z
y,-x,z
x,-y,-z
-x,y,-z
y,x,-z
-y,-x,-z
-x,-y,-z
y,-x,-z
x,y,-z
-y,x,-z
-x,y,z
x,-y,z
-y,-x,z
y,x,z
1/2+x,1/2+y,1/2+z
1/2-y,1/2+x,1/2+z
1/2-x,1/2-y,1/2+z
1/2+y,1/2-x,1/2+z
1/2+x,1/2-y,1/2-z
1/2-x,1/2+y,1/2-z
1/2+y,1/2+x,1/2-z
1/2-y,1/2-x,1/2-z
1/2-x,1/2-y,1/2-z
1/2+y,1/2-x,1/2-z
1/2+x,1/2+y,1/2-z
1/2-y,1/2+x,1/2-z
1/2-x,1/2+y,1/2+z
1/2+x,1/2-y,1/2+z
1/2-y,1/2-x,1/2+z
1/2+y,1/2+x,1/2+z
loop_
_atom_site_type_symbol
_atom_site_label
_atom_site_fract_x
_atom_site_fract_y
_atom_site_fract_z
Si Si1 0.264919 0.735082 0.173051
Si Si2 0.677837 0.153194 0.117662
Si Si3 0.296904 0.190142 0.500000
Si Si4 0.166398 0.931511 0.620951
Si Si5 0.201456 0.568971 0.173986
Si Si6 0.825998 0.174003 0.765450
Si Si7 0.071624 0.255990 0.795317
Si Si8 0.716558 0.569569 0.000000
O O1 0.305317 0.778335 0.135138
O O2 0.222912 0.777089 0.211757
O O3 0.313343 0.686658 0.199756
O O4 0.692544 0.154323 0.051479
O O5 0.607199 0.150888 0.138412
O O6 0.713795 0.098040 0.147824
O O7 0.245844 0.245844 0.500000
O O8 0.267438 0.122721 0.500000
O O9 0.115353 0.884648 0.644039
O O10 0.230074 0.920764 0.652336
O O11 0.174521 0.921734 0.554361
O O12 0.142595 0.000000 0.633680
O O13 0.179742 0.500000 0.165083
O O14 0.201018 0.585507 0.241031
O O15 0.809445 0.105498 0.785674
O O16 0.000000 0.242921 0.803067
O O17 0.745808 0.500000 0.000000
#
# Coordination Sequence:
#
# PCOD8319684 Si02
#       8
#    16  32  16  32  32  16  32  16
#     4   9  16  27  46  78 106 129 162 206 254 306
#     4  11  20  33  51  75 106 136 169 215 262 311
#     4  12  22  30  49  77 104 136 174 219 271 320
#     4  10  20  31  44  65  96 137 183 222 256 296
#     4  10  20  31  49  76 103 137 177 215 259 312
#     4   9  16  28  52  77 104 136 164 201 254 316
#     4  10  21  35  53  78 105 135 171 213 260 312
#     4  10  20  32  45  66 101 142 180 215 256 301
#
# _framework density 16.960303
#
# number of rings (size 3 to 8) (size 9 to 14) (size 15 to 20)
#    0.000    1.833    4.167    1.250    2.333    0.167 
#    0.000    0.417    0.000    2.250    0.000    2.333 
#    0.000    2.000    0.000    0.750    0.000    0.000 
#
# Total GULP energy -1189317.525633 kJ/mol
# GULP energy per Si atom -12388.724225 kJ/mol
# Density = 1.692170 g / cm^3
# Si number density = 16.960303 Si / 1000 Ang^3
#
#
#
# Elastic Constant Matrix: (Units=GPa)
#
#
# Indices 1 2 3 4 5 6 
#
# 1 74.4842 31.0292 33.4474 0.0000 0.0000 0.0000
# 2 31.0292 74.4842 33.4474 0.0000 0.0000 0.0000
# 3 33.4474 33.4474 101.0622 0.0000 0.0000 0.0000
# 4 0.0000 0.0000 0.0000 21.6377 0.0000 0.0000
# 5 0.0000 0.0000 0.0000 0.0000 21.6377 0.0000
# 6 0.0000 0.0000 0.0000 0.0000 0.0000 18.9592
#
#
#
# Elastic Compliance Matrix: (Units=1/GPa)
#
#
# Indices 1 2 3 4 5 6 
#
# 1 0.017503 -0.005509 -0.003970 0.000000 0.000000 0.000000
# 2 -0.005509 0.017503 -0.003970 0.000000 0.000000 0.000000
# 3 -0.003970 -0.003970 0.012522 0.000000 0.000000 0.000000
# 4 0.000000 0.000000 0.000000 0.046216 0.000000 0.000000
# 5 0.000000 0.000000 0.000000 0.000000 0.046216 0.000000
# 6 0.000000 0.000000 0.000000 0.000000 0.000000 0.052745
#
#
# Mechanical properties :
#
#
# Convention : Reuss Voigt Hill
#
# Bulk Modulus (GPa) = 48.46735 49.54208 49.00472
# Shear Modulus (GPa) = 22.07714 22.58738 22.33226
#
# Velocity S-wave (km/s) = 3.61182 3.65331 3.63262
# Velocity P-wave (km/s) = 6.78473 6.86073 6.82284
#
# Compressibility (1/GPa) = 0.02063245
#
# Stress axis : x y z
#
# Youngs Moduli (GPa) = 57.13235 57.13235 79.85667
#
# Poissons Ratio (x) = 0.31475 0.31700
# Poissons Ratio (y) = 0.31475 0.31700
# Poissons Ratio (z) = 0.22679 0.22679
#
# Static dielectric constant tensor:
#      x y z
#    x 3.077190 0.000000 0.000000 
#    y 0.000000 3.077190 0.000000 
#    z 0.000000 0.000000 3.364230 
# 
# 
# High freq. dielectric constant tensor:
#      x y z
#    x 1.630910 0.000000 0.000000 
#    y 0.000000 1.630910 0.000000 
#    z 0.000000 0.000000 1.658140 
# 
# From -- ./inp_files/12067.got.cif
#   From: 2010.03.12/outbox.cif.g09.slc.cpg/sg139_7_cif.got.tgz:12067.got - 2010.04.08 09:46:31.
