data_PCOD8319529
_publ_section_title
;
Structure prediction by ZEFSAII (Michael W. Deem and Ramdas Pophale) SiO2 
 PCOD8319529
Probable space group: I 4/M M M
;
_chemical_formula_sum "Si O2"
_cell_formula_units_Z 160
_cell_length_a 32.211157
_cell_length_b 32.211157
_cell_length_c 9.251106
_cell_angle_alpha 90.000000
_cell_angle_beta 90.000000
_cell_angle_gamma 90.000000
_cell_volume 9598.564916
_symmetry_space_group_name_H-M "I 4/M M M"
_symmetry_group_IT_number 139
_symmetry_cell_setting 'tetragonal'
loop_
_space_group_symop_operation_xyz
x,y,z
-y,x,z
-x,-y,z
y,-x,z
x,-y,-z
-x,y,-z
y,x,-z
-y,-x,-z
-x,-y,-z
y,-x,-z
x,y,-z
-y,x,-z
-x,y,z
x,-y,z
-y,-x,z
y,x,z
1/2+x,1/2+y,1/2+z
1/2-y,1/2+x,1/2+z
1/2-x,1/2-y,1/2+z
1/2+y,1/2-x,1/2+z
1/2+x,1/2-y,1/2-z
1/2-x,1/2+y,1/2-z
1/2+y,1/2+x,1/2-z
1/2-y,1/2-x,1/2-z
1/2-x,1/2-y,1/2-z
1/2+y,1/2-x,1/2-z
1/2+x,1/2+y,1/2-z
1/2-y,1/2+x,1/2-z
1/2-x,1/2+y,1/2+z
1/2+x,1/2-y,1/2+z
1/2-y,1/2-x,1/2+z
1/2+y,1/2+x,1/2+z
loop_
_atom_site_type_symbol
_atom_site_label
_atom_site_fract_x
_atom_site_fract_y
_atom_site_fract_z
Si Si1 0.811265 0.371901 0.828612
Si Si2 0.567779 0.500000 0.158752
Si Si3 0.500000 0.352844 0.329732
Si Si4 0.300675 0.424933 0.664546
Si Si5 0.846158 0.780178 0.668394
Si Si6 0.292482 0.047334 0.835089
O O1 0.847905 0.347905 0.750000
O O2 0.768216 0.348453 0.785197
O O3 0.813552 0.419331 0.771944
O O4 0.818130 0.371848 0.000000
O O5 0.540716 0.540716 0.176210
O O6 0.599554 0.500000 0.289087
O O7 0.589248 0.500000 0.000000
O O8 0.500000 0.345883 0.500000
O O9 0.458085 0.332430 0.266847
O O10 0.311514 0.413675 0.500000
O O11 0.305098 0.382539 0.752756
O O12 0.256411 0.446768 0.676772
O O13 0.855066 0.784029 0.500000
O O14 0.801605 0.801605 0.708031
O O15 0.303834 0.000000 0.788484
O O16 0.307263 0.055397 0.000000
#
# Coordination Sequence:
#
# PCOD8319529 Si02
#       6
#    32  16  16  32  32  32
#     4  10  20  33  49  71  99 131 167 207 245 283
#     4   9  20  38  52  60  76 106 144 184 230 289
#     4  10  19  31  49  72  94 114 142 186 239 293
#     4   9  17  30  47  69  95 120 149 188 235 289
#     4   9  19  34  48  65  93 128 165 205 245 285
#     4   9  16  30  52  73  96 128 160 192 235 284
#
# _framework density 16.669157999999999
#
# number of rings (size 3 to 8) (size 9 to 14) (size 15 to 20)
#    0.000    2.700    1.000    0.900    0.000    4.000 
#    0.000    4.500    0.000    0.000    0.000    0.000 
#    0.000    0.400    0.000    4.200    0.000    1.800 
#
# Total GULP energy -991649.402804 kJ/mol
# GULP energy per Si atom -12395.617535 kJ/mol
# Density = 1.663122 g / cm^3
# Si number density = 16.669158 Si / 1000 Ang^3
#
#
#
# Elastic Constant Matrix: (Units=GPa)
#
#
# Indices 1 2 3 4 5 6 
#
# 1 84.7016 49.9944 38.5175 0.0000 0.0000 0.0000
# 2 49.9944 84.7016 38.5175 0.0000 0.0000 0.0000
# 3 38.5175 38.5175 52.1987 0.0000 0.0000 0.0000
# 4 0.0000 0.0000 0.0000 26.9573 0.0000 0.0000
# 5 0.0000 0.0000 0.0000 0.0000 26.9573 0.0000
# 6 0.0000 0.0000 0.0000 0.0000 0.0000 -2.7228
#
#
#
# Elastic Compliance Matrix: (Units=1/GPa)
#
#
# Indices 1 2 3 4 5 6 
#
# 1 0.020829 -0.007984 -0.009478 0.000000 0.000000 0.000000
# 2 -0.007984 0.020829 -0.009478 0.000000 0.000000 0.000000
# 3 -0.009478 -0.009478 0.033146 0.000000 0.000000 0.000000
# 4 0.000000 0.000000 0.000000 0.037096 0.000000 0.000000
# 5 0.000000 0.000000 0.000000 0.000000 0.037096 0.000000
# 6 0.000000 0.000000 0.000000 0.000000 0.000000 -0.367270
#
#
# Mechanical properties :
#
#
# Convention : Reuss Voigt Hill
#
# Bulk Modulus (GPa) = 47.79580 52.85120 50.32350
# Shear Modulus (GPa) = -31.76206 16.54319 -7.60943
#
# Velocity S-wave (km/s) = -4.36987 3.15372 -2.13890
# Velocity P-wave (km/s) = 1.80954 6.71089 4.91480
#
# Compressibility (1/GPa) = 0.02092234
#
# Stress axis : x y z
#
# Youngs Moduli (GPa) = 48.01072 48.01072 30.16987
#
# Poissons Ratio (x) = 0.38331 0.28596
# Poissons Ratio (y) = 0.38331 0.28596
# Poissons Ratio (z) = 0.45506 0.45506
#
# Static dielectric constant tensor:
#      x y z
#    x 3.056360 0.000000 0.000000 
#    y 0.000000 3.056360 0.000000 
#    z 0.000000 0.000000 3.127950 
# 
# 
# High freq. dielectric constant tensor:
#      x y z
#    x 1.626800 0.000000 0.000000 
#    y 0.000000 1.626800 0.000000 
#    z 0.000000 0.000000 1.640880 
# 
# From -- ./inp_files/2178.got.cif
#   From: 2010.03.12/outbox.cif.g09.slc.cpg/sg139_2_cif.got.tgz:2178.got - 2010.04.08 09:46:31.
