data_PCOD8319244
_publ_section_title
;
Structure prediction by ZEFSAII (Michael W. Deem and Ramdas Pophale) SiO2 
 PCOD8319244
Probable space group: P 42/N C M
;
_chemical_formula_sum "Si O2"
_cell_formula_units_Z 112
_cell_length_a 18.695462
_cell_length_b 18.695462
_cell_length_c 19.678072
_cell_angle_alpha 90.000000
_cell_angle_beta 90.000000
_cell_angle_gamma 90.000000
_cell_volume 6877.885617
_symmetry_space_group_name_H-M "P 42/N C M"
_symmetry_group_IT_number 138
_space_group.IT_coordinate_system_code '2'
_symmetry_cell_setting 'tetragonal'
loop_
_space_group_symop_operation_xyz
x,y,z
1/2-y,x,1/2+z
1/2-x,1/2-y,z
y,1/2-x,1/2+z
1/2+x,-y,1/2-z
-x,1/2+y,1/2-z
1/2+y,1/2+x,-z
-y,-x,-z
-x,-y,-z
1/2+y,-x,1/2-z
1/2+x,1/2+y,-z
-y,1/2+x,1/2-z
1/2-x,y,1/2+z
x,1/2-y,1/2+z
1/2-y,1/2-x,z
y,x,z
loop_
_atom_site_type_symbol
_atom_site_label
_atom_site_fract_x
_atom_site_fract_y
_atom_site_fract_z
Si Si1 0.961243 0.078230 0.569615
Si Si2 0.517708 0.098312 0.806320
Si Si3 0.924149 0.811944 0.460418
Si Si4 0.850779 0.530858 0.599746
Si Si5 0.914359 0.698748 0.117587
Si Si6 0.536620 0.656262 0.947407
Si Si7 0.453313 0.574288 0.840465
O O1 0.915357 0.084643 0.500000
O O2 0.909340 0.078530 0.635438
O O3 0.014818 0.143955 0.577903
O O4 0.002333 0.002333 0.567844
O O5 0.464502 0.161513 0.827064
O O6 0.552890 0.113261 0.732754
O O7 0.476321 0.023680 0.799686
O O8 0.846291 0.846291 0.444297
O O9 0.939573 0.818131 0.541056
O O10 0.926995 0.732432 0.430039
O O11 0.915406 0.584595 0.598905
O O12 0.783325 0.574875 0.630509
O O13 0.837444 0.503651 0.522948
O O14 0.875946 0.461717 0.643214
O O15 0.832639 0.667362 0.127017
O O16 0.599311 0.599311 0.943686
O O17 0.473031 0.635292 0.895893
O O18 0.515390 0.515390 0.841984
#
# Coordination Sequence:
#
# PCOD8319244 Si02
#       7
#    16  16  16  16  16  16  16
#     4   9  14  24  43  64  87 112 140 180 229 274
#     4   9  16  27  44  63  86 117 146 183 231 274
#     4   9  16  26  43  69  95 118 148 185 229 282
#     4   9  17  29  46  67  90 120 158 195 225 261
#     4   9  16  27  44  67  95 121 145 178 229 286
#     4   9  17  29  45  64  91 125 158 192 225 261
#     4   9  17  30  45  62  86 118 161 201 227 257
#
# _framework density 16.284074
#
# number of rings (size 3 to 8) (size 9 to 14) (size 15 to 20)
#    0.000    3.000    1.429    0.429    0.000    2.286 
#    2.571    2.857    0.000    0.000    0.000    5.000 
#    0.000    0.000    0.000    0.000    0.000    0.000 
#
# Total GULP energy -1387635.766116 kJ/mol
# GULP energy per Si atom -12389.605055 kJ/mol
# Density = 1.624701 g / cm^3
# Si number density = 16.284074 Si / 1000 Ang^3
#
#
#
# Elastic Constant Matrix: (Units=GPa)
#
#
# Indices 1 2 3 4 5 6 
#
# 1 41.7236 34.4556 32.5357 0.0000 0.0000 0.0000
# 2 34.4556 41.7234 32.5359 0.0000 0.0000 0.0000
# 3 32.5357 32.5359 96.8964 0.0000 0.0000 0.0000
# 4 0.0000 0.0000 0.0000 15.4686 0.0000 0.0000
# 5 0.0000 0.0000 0.0000 0.0000 15.4687 0.0000
# 6 0.0000 0.0000 0.0000 0.0000 0.0000 15.9270
#
#
#
# Elastic Compliance Matrix: (Units=1/GPa)
#
#
# Indices 1 2 3 4 5 6 
#
# 1 0.077999 -0.059593 -0.006180 0.000000 0.000000 0.000000
# 2 -0.059593 0.077999 -0.006181 0.000000 0.000000 0.000000
# 3 -0.006180 -0.006181 0.014471 0.000000 0.000000 0.000000
# 4 0.000000 0.000000 0.000000 0.064647 0.000000 0.000000
# 5 0.000000 0.000000 0.000000 0.000000 0.064647 0.000000
# 6 0.000000 0.000000 0.000000 0.000000 0.000000 0.062787
#
#
# Mechanical properties :
#
#
# Convention : Reuss Voigt Hill
#
# Bulk Modulus (GPa) = 37.64836 42.15531 39.90183
# Shear Modulus (GPa) = 9.70289 14.76060 12.23175
#
# Velocity S-wave (km/s) = 2.44366 3.01399 2.74368
# Velocity P-wave (km/s) = 5.57959 6.16894 5.88165
#
# Compressibility (1/GPa) = 0.02656158
#
# Stress axis : x y z
#
# Youngs Moduli (GPa) = 12.82073 12.82061 69.10457
#
# Poissons Ratio (x) = 0.76402 0.42708
# Poissons Ratio (y) = 0.76402 0.42711
# Poissons Ratio (z) = 0.07923 0.07924
#
# Static dielectric constant tensor:
#      x y z
#    x 2.892670 0.000000 0.000000 
#    y 0.000000 2.892670 0.000000 
#    z 0.000000 0.000000 3.277120 
# 
# 
# High freq. dielectric constant tensor:
#      x y z
#    x 1.595720 0.000000 0.000000 
#    y 0.000000 1.595720 0.000000 
#    z 0.000000 0.000000 1.622430 
# 
# From -- ./inp_files/6451.got.cif
#   From: 2010.03.12/outbox.cif.g09.slc.cpg/sg138_4_cif.got.tgz:6451.got - 2010.04.08 09:41:05.
