data_PCOD8319393
_publ_section_title
;
Structure prediction by ZEFSAII (Michael W. Deem and Ramdas Pophale) SiO2 
 PCOD8319393
Probable space group: I 4/M M M
;
_chemical_formula_sum "Si O2"
_cell_formula_units_Z 192
_cell_length_a 22.368038
_cell_length_b 22.368038
_cell_length_c 22.641789
_cell_angle_alpha 90.000000
_cell_angle_beta 90.000000
_cell_angle_gamma 90.000000
_cell_volume 11328.346455
_symmetry_space_group_name_H-M "I 4/M M M"
_symmetry_group_IT_number 139
_symmetry_cell_setting 'tetragonal'
loop_
_space_group_symop_operation_xyz
x,y,z
-y,x,z
-x,-y,z
y,-x,z
x,-y,-z
-x,y,-z
y,x,-z
-y,-x,-z
-x,-y,-z
y,-x,-z
x,y,-z
-y,x,-z
-x,y,z
x,-y,z
-y,-x,z
y,x,z
1/2+x,1/2+y,1/2+z
1/2-y,1/2+x,1/2+z
1/2-x,1/2-y,1/2+z
1/2+y,1/2-x,1/2+z
1/2+x,1/2-y,1/2-z
1/2-x,1/2+y,1/2-z
1/2+y,1/2+x,1/2-z
1/2-y,1/2-x,1/2-z
1/2-x,1/2-y,1/2-z
1/2+y,1/2-x,1/2-z
1/2+x,1/2+y,1/2-z
1/2-y,1/2+x,1/2-z
1/2-x,1/2+y,1/2+z
1/2+x,1/2-y,1/2+z
1/2-y,1/2-x,1/2+z
1/2+y,1/2+x,1/2+z
loop_
_atom_site_type_symbol
_atom_site_label
_atom_site_fract_x
_atom_site_fract_y
_atom_site_fract_z
Si Si1 0.000000 0.568965 0.065141
Si Si2 0.431196 0.794425 0.163349
Si Si3 0.108855 0.377074 0.433894
Si Si4 0.930561 0.832410 0.291380
Si Si5 0.568348 0.231856 0.435016
Si Si6 0.626643 0.721879 0.321459
Si Si7 0.336435 0.836435 0.250000
O O1 0.061515 0.586601 0.098317
O O2 0.000000 0.500000 0.055371
O O3 0.000000 0.601375 0.000000
O O4 0.500000 0.804840 0.178333
O O5 0.414020 0.818018 0.098799
O O6 0.416038 0.723604 0.165318
O O7 0.395848 0.834293 0.210846
O O8 0.082375 0.372574 0.500000
O O9 0.180062 0.381868 0.434362
O O10 0.888494 0.888494 0.309135
O O11 0.916553 0.809517 0.225809
O O12 0.000000 0.852123 0.295849
O O13 0.572900 0.263999 0.500000
O O14 0.500000 0.208142 0.426431
O O15 0.585226 0.271972 0.379201
O O16 0.679394 0.679394 0.341785
O O17 0.660140 0.780133 0.294652
#
# Coordination Sequence:
#
# PCOD8319393 Si02
#       7
#    16  32  32  32  32  32  16
#     4   9  16  26  42  64  88 118 164 214 250 284
#     4  10  20  34  50  71  99 132 168 207 252 302
#     4  10  18  31  48  68  94 128 170 213 254 291
#     4   9  19  35  56  80 103 129 163 204 252 309
#     4  10  19  32  50  71  98 133 170 207 249 297
#     4  10  19  32  52  74  98 128 165 205 249 304
#     4  10  19  34  48  69  94 134 166 204 251 302
#
# _framework density 16.948633999999998
#
# number of rings (size 3 to 8) (size 9 to 14) (size 15 to 20)
#    0.000    2.250    2.500    1.250    0.000    2.833 
#    1.500    0.000    0.000    0.500    0.000    0.000 
#    0.000    0.000    0.000   19.167    0.000    0.000 
#
# Total GULP energy -1189428.223155 kJ/mol
# GULP energy per Si atom -12389.877325 kJ/mol
# Density = 1.691006 g / cm^3
# Si number density = 16.948634 Si / 1000 Ang^3
#
#
#
# Elastic Constant Matrix: (Units=GPa)
#
#
# Indices 1 2 3 4 5 6 
#
# 1 94.4756 54.7120 45.6192 0.0000 0.0000 0.0000
# 2 54.7120 94.4756 45.6192 0.0000 0.0000 0.0000
# 3 45.6192 45.6192 83.4680 0.0000 0.0000 0.0000
# 4 0.0000 0.0000 0.0000 24.8002 0.0000 0.0000
# 5 0.0000 0.0000 0.0000 0.0000 24.8002 0.0000
# 6 0.0000 0.0000 0.0000 0.0000 0.0000 27.4904
#
#
#
# Elastic Compliance Matrix: (Units=1/GPa)
#
#
# Indices 1 2 3 4 5 6 
#
# 1 0.017608 -0.007540 -0.005503 0.000000 0.000000 0.000000
# 2 -0.007540 0.017608 -0.005503 0.000000 0.000000 0.000000
# 3 -0.005503 -0.005503 0.017996 0.000000 0.000000 0.000000
# 4 0.000000 0.000000 0.000000 0.040322 0.000000 0.000000
# 5 0.000000 0.000000 0.000000 0.000000 0.040322 0.000000
# 6 0.000000 0.000000 0.000000 0.000000 0.000000 0.036376
#
#
# Mechanical properties :
#
#
# Convention : Reuss Voigt Hill
#
# Bulk Modulus (GPa) = 62.03040 62.70221 62.36630
# Shear Modulus (GPa) = 23.50745 23.84944 23.67844
#
# Velocity S-wave (km/s) = 3.72826 3.75528 3.74180
# Velocity P-wave (km/s) = 7.43046 7.47520 7.45286
#
# Compressibility (1/GPa) = 0.01612113
#
# Stress axis : x y z
#
# Youngs Moduli (GPa) = 56.79094 56.79094 55.56878
#
# Poissons Ratio (x) = 0.42821 0.30578
# Poissons Ratio (y) = 0.42821 0.30578
# Poissons Ratio (z) = 0.31251 0.31251
#
# Static dielectric constant tensor:
#      x y z
#    x 3.127220 0.000000 0.000000 
#    y 0.000000 3.127220 0.000000 
#    z 0.000000 0.000000 3.171050 
# 
# 
# High freq. dielectric constant tensor:
#      x y z
#    x 1.643550 0.000000 0.000000 
#    y 0.000000 1.643550 0.000000 
#    z 0.000000 0.000000 1.638790 
# 
# From -- ./inp_files/12004.got.cif
#   From: 2010.03.12/outbox.cif.g09.slc.cpg/sg139_7_cif.got.tgz:12004.got - 2010.04.08 09:46:31.
