data_PCOD8319013
_publ_section_title
;
Structure prediction by ZEFSAII (Michael W. Deem and Ramdas Pophale) SiO2 
 PCOD8319013
Probable space group: P 42/N C M
;
_chemical_formula_sum "Si O2"
_cell_formula_units_Z 96
_cell_length_a 15.287864
_cell_length_b 15.287864
_cell_length_c 23.926371
_cell_angle_alpha 90.000000
_cell_angle_beta 90.000000
_cell_angle_gamma 90.000000
_cell_volume 5592.042376
_symmetry_space_group_name_H-M "P 42/N C M"
_symmetry_group_IT_number 138
_space_group.IT_coordinate_system_code '2'
_symmetry_cell_setting 'tetragonal'
loop_
_space_group_symop_operation_xyz
x,y,z
1/2-y,x,1/2+z
1/2-x,1/2-y,z
y,1/2-x,1/2+z
1/2+x,-y,1/2-z
-x,1/2+y,1/2-z
1/2+y,1/2+x,-z
-y,-x,-z
-x,-y,-z
1/2+y,-x,1/2-z
1/2+x,1/2+y,-z
-y,1/2+x,1/2-z
1/2-x,y,1/2+z
x,1/2-y,1/2+z
1/2-y,1/2-x,z
y,x,z
loop_
_atom_site_type_symbol
_atom_site_label
_atom_site_fract_x
_atom_site_fract_y
_atom_site_fract_z
Si Si1 0.790102 0.562587 0.976552
Si Si2 0.317668 0.464663 0.402019
Si Si3 0.950950 0.096550 0.723293
Si Si4 0.323203 0.323203 0.218531
Si Si5 0.043622 0.900570 0.403009
Si Si6 0.323818 0.176183 0.592760
Si Si7 0.269678 0.495334 0.282062
O O1 0.865647 0.634354 0.972137
O O2 0.823217 0.472573 0.947689
O O3 0.707127 0.590893 0.940562
O O4 0.762499 0.552935 0.041593
O O5 0.391124 0.391124 0.390824
O O6 0.360186 0.560180 0.410999
O O7 0.257131 0.469132 0.347268
O O8 0.970029 0.131464 0.660728
O O9 0.958211 0.179715 0.763969
O O10 0.852952 0.058241 0.727307
O O11 0.020502 0.020502 0.739406
O O12 0.250000 0.250000 0.218814
O O13 0.349454 0.349454 0.155505
O O14 0.283752 0.407476 0.247844
O O15 0.977102 0.977102 0.417747
O O16 0.250000 0.250000 0.592618
#
# Coordination Sequence:
#
# PCOD8319013 Si02
#       7
#    16  16  16   8  16   8  16
#     4   9  15  25  40  65  97 133 164 206 264 314
#     4   9  16  28  44  68 101 129 167 212 266 323
#     4  10  20  35  53  77 110 138 179 223 265 317
#     4  11  20  34  54  77 104 139 187 214 261 324
#     4   8  14  26  46  67  91 127 168 214 259 304
#     4   9  18  28  40  65  99 130 167 216 250 305
#     4  11  20  35  52  77 107 144 175 223 266 315
#
# _framework density 17.167252000000001
#
# number of rings (size 3 to 8) (size 9 to 14) (size 15 to 20)
#    0.000    2.500    1.667    3.000    0.000    5.000 
#    3.000    0.000    0.000    0.000    0.000    5.833 
#    0.000   10.667    0.000    0.000    0.000    0.000 
#
# Total GULP energy -1189715.770045 kJ/mol
# GULP energy per Si atom -12392.872605 kJ/mol
# Density = 1.712818 g / cm^3
# Si number density = 17.167252 Si / 1000 Ang^3
#
#
#
# Elastic Constant Matrix: (Units=GPa)
#
#
# Indices 1 2 3 4 5 6 
#
# 1 61.3843 22.3409 42.4706 0.0000 0.0000 0.0000
# 2 22.3409 61.3843 42.4706 0.0000 0.0000 0.0000
# 3 42.4706 42.4706 145.3806 0.0000 0.0000 0.0000
# 4 0.0000 0.0000 0.0000 18.1297 0.0000 0.0000
# 5 0.0000 0.0000 0.0000 0.0000 18.1297 0.0000
# 6 0.0000 0.0000 0.0000 0.0000 0.0000 16.1088
#
#
#
# Elastic Compliance Matrix: (Units=1/GPa)
#
#
# Indices 1 2 3 4 5 6 
#
# 1 0.021294 -0.004319 -0.004959 0.000000 0.000000 0.000000
# 2 -0.004319 0.021294 -0.004959 0.000000 0.000000 0.000000
# 3 -0.004959 -0.004959 0.009776 0.000000 0.000000 0.000000
# 4 0.000000 0.000000 0.000000 0.055158 0.000000 0.000000
# 5 0.000000 0.000000 0.000000 0.000000 0.055158 0.000000
# 6 0.000000 0.000000 0.000000 0.000000 0.000000 0.062078
#
#
# Mechanical properties :
#
#
# Convention : Reuss Voigt Hill
#
# Bulk Modulus (GPa) = 41.85899 53.63481 47.74690
# Shear Modulus (GPa) = 19.14287 21.19811 20.17049
#
# Velocity S-wave (km/s) = 3.34290 3.51778 3.43146
# Velocity P-wave (km/s) = 6.27184 6.91448 6.60099
#
# Compressibility (1/GPa) = 0.02388973
#
# Stress axis : x y z
#
# Youngs Moduli (GPa) = 46.96243 46.96243 102.29318
#
# Poissons Ratio (x) = 0.20282 0.50726
# Poissons Ratio (y) = 0.20282 0.50726
# Poissons Ratio (z) = 0.23288 0.23288
#
# Static dielectric constant tensor:
#      x y z
#    x 2.998950 0.000000 0.000000 
#    y 0.000000 2.998950 0.000000 
#    z 0.000000 0.000000 3.473160 
# 
# 
# High freq. dielectric constant tensor:
#      x y z
#    x 1.627840 0.000000 0.000000 
#    y 0.000000 1.627840 0.000000 
#    z 0.000000 0.000000 1.680390 
# 
# From -- ./inp_files/6994.got.cif
#   From: 2010.03.12/outbox.cif.g09.slc.cpg/sg138_4_cif.got.tgz:6994.got - 2010.04.08 09:41:05.
