data_PCOD8319212
_publ_section_title
;
Structure prediction by ZEFSAII (Michael W. Deem and Ramdas Pophale) SiO2 
 PCOD8319212
Probable space group: P 42/N C M
;
_chemical_formula_sum "Si O2"
_cell_formula_units_Z 48
_cell_length_a 11.611427
_cell_length_b 11.611427
_cell_length_c 17.147839
_cell_angle_alpha 90.000000
_cell_angle_beta 90.000000
_cell_angle_gamma 90.000000
_cell_volume 2311.961457
_symmetry_space_group_name_H-M "P 42/N C M"
_symmetry_group_IT_number 138
_space_group.IT_coordinate_system_code '2'
_symmetry_cell_setting 'tetragonal'
loop_
_space_group_symop_operation_xyz
x,y,z
1/2-y,x,1/2+z
1/2-x,1/2-y,z
y,1/2-x,1/2+z
1/2+x,-y,1/2-z
-x,1/2+y,1/2-z
1/2+y,1/2+x,-z
-y,-x,-z
-x,-y,-z
1/2+y,-x,1/2-z
1/2+x,1/2+y,-z
-y,1/2+x,1/2-z
1/2-x,y,1/2+z
x,1/2-y,1/2+z
1/2-y,1/2-x,z
y,x,z
loop_
_atom_site_type_symbol
_atom_site_label
_atom_site_fract_x
_atom_site_fract_y
_atom_site_fract_z
Si Si1 0.154374 0.345627 0.208888
Si Si2 0.155429 0.155429 0.535928
Si Si3 0.578091 0.227808 0.283102
Si Si4 0.423791 0.755653 0.532991
O O1 0.250000 0.250000 0.201942
O O2 0.114160 0.385841 0.122135
O O3 0.206535 0.449287 0.257477
O O4 0.250000 0.250000 0.548385
O O5 0.051694 0.217142 0.490358
O O6 0.620147 0.343676 0.241335
O O7 0.584893 0.242444 0.374862
O O8 0.381280 0.881280 0.500000
O O9 0.339849 0.660152 0.500000
#
# Coordination Sequence:
#
# PCOD8319212 Si02
#       4
#     8   8  16  16
#     4  11  26  43  66  97 135 172 222 271 329 388
#     4  11  25  43  65  94 135 173 215 270 331 389
#     4  11  24  43  69  96 134 173 223 270 333 393
#     4  11  23  42  70  95 130 172 225 268 328 392
#
# _framework density 20.761590999999999
#
# number of rings (size 3 to 8) (size 9 to 14) (size 15 to 20)
#    0.000    1.000    0.000    8.500    7.000    0.667 
#    0.000    0.000    0.000    0.000    0.000    0.000 
#    0.000    0.000    0.000    0.000    0.000    0.000 
#
# Total GULP energy -595191.741564 kJ/mol
# GULP energy per Si atom -12399.827949 kJ/mol
# Density = 2.071434 g / cm^3
# Si number density = 20.761591 Si / 1000 Ang^3
#
#
#
# Elastic Constant Matrix: (Units=GPa)
#
#
# Indices 1 2 3 4 5 6 
#
# 1 99.9648 73.5163 61.9257 0.0000 0.0000 0.0000
# 2 73.5163 99.9629 61.9247 0.0000 0.0000 0.0000
# 3 61.9257 61.9247 226.6287 0.0000 0.0000 0.0000
# 4 0.0000 0.0000 0.0000 29.0174 0.0000 0.0000
# 5 0.0000 0.0000 0.0000 0.0000 29.0136 0.0000
# 6 0.0000 0.0000 0.0000 0.0000 0.0000 36.4724
#
#
#
# Elastic Compliance Matrix: (Units=1/GPa)
#
#
# Indices 1 2 3 4 5 6 
#
# 1 0.022486 -0.015325 -0.001957 0.000000 0.000000 0.000000
# 2 -0.015325 0.022486 -0.001957 0.000000 0.000000 0.000000
# 3 -0.001957 -0.001957 0.005482 0.000000 0.000000 0.000000
# 4 0.000000 0.000000 0.000000 0.034462 0.000000 0.000000
# 5 0.000000 0.000000 0.000000 0.000000 0.034467 0.000000
# 6 0.000000 0.000000 0.000000 0.000000 0.000000 0.027418
#
#
# Mechanical properties :
#
#
# Convention : Reuss Voigt Hill
#
# Bulk Modulus (GPa) = 83.49090 91.25443 87.37267
# Shear Modulus (GPa) = 26.41736 34.18001 30.29868
#
# Velocity S-wave (km/s) = 3.57096 4.06188 3.82430
# Velocity P-wave (km/s) = 7.56993 8.12695 7.85338
#
# Compressibility (1/GPa) = 0.01197735
#
# Stress axis : x y z
#
# Youngs Moduli (GPa) = 44.47248 44.47177 182.41924
#
# Poissons Ratio (x) = 0.68151 0.35696
# Poissons Ratio (y) = 0.68153 0.35695
# Poissons Ratio (z) = 0.08703 0.08702
#
# Static dielectric constant tensor:
#      x y z
#    x 4.082260 0.000000 0.000000 
#    y 0.000000 4.082250 0.000000 
#    z 0.000000 0.000000 4.258160 
# 
# 
# High freq. dielectric constant tensor:
#      x y z
#    x 1.818200 0.000000 0.000000 
#    y 0.000000 1.818200 0.000000 
#    z 0.000000 0.000000 1.838170 
# 
# From -- ./inp_files/4753.got.cif
#   From: 2010.03.12/outbox.cif.g09.slc.cpg/sg138_3_cif.got.tgz:4753.got - 2010.04.08 09:41:05.
