data_PCOD8319978
_publ_section_title
;
Structure prediction by ZEFSAII (Michael W. Deem and Ramdas Pophale) SiO2 
 PCOD8319978
Probable space group: I 4/M M M
;
_chemical_formula_sum "Si O2"
_cell_formula_units_Z 96
_cell_length_a 25.170641
_cell_length_b 25.170641
_cell_length_c 7.945252
_cell_angle_alpha 90.000000
_cell_angle_beta 90.000000
_cell_angle_gamma 90.000000
_cell_volume 5033.803140
_symmetry_space_group_name_H-M "I 4/M M M"
_symmetry_group_IT_number 139
_symmetry_cell_setting 'tetragonal'
loop_
_space_group_symop_operation_xyz
x,y,z
-y,x,z
-x,-y,z
y,-x,z
x,-y,-z
-x,y,-z
y,x,-z
-y,-x,-z
-x,-y,-z
y,-x,-z
x,y,-z
-y,x,-z
-x,y,z
x,-y,z
-y,-x,z
y,x,z
1/2+x,1/2+y,1/2+z
1/2-y,1/2+x,1/2+z
1/2-x,1/2-y,1/2+z
1/2+y,1/2-x,1/2+z
1/2+x,1/2-y,1/2-z
1/2-x,1/2+y,1/2-z
1/2+y,1/2+x,1/2-z
1/2-y,1/2-x,1/2-z
1/2-x,1/2-y,1/2-z
1/2+y,1/2-x,1/2-z
1/2+x,1/2+y,1/2-z
1/2-y,1/2+x,1/2-z
1/2-x,1/2+y,1/2+z
1/2+x,1/2-y,1/2+z
1/2-y,1/2-x,1/2+z
1/2+y,1/2+x,1/2+z
loop_
_atom_site_type_symbol
_atom_site_label
_atom_site_fract_x
_atom_site_fract_y
_atom_site_fract_z
Si Si1 0.500000 0.080553 0.187238
Si Si2 0.792857 0.207144 0.299975
Si Si3 0.302609 0.000000 0.192204
Si Si4 0.940090 0.144839 0.500000
Si Si5 0.781401 0.089592 0.194189
O O1 0.554793 0.054793 0.250000
O O2 0.500000 0.143832 0.202697
O O3 0.500000 0.063214 0.000000
O O4 0.799960 0.200041 0.500000
O O5 0.750000 0.250000 0.250000
O O6 0.771598 0.152229 0.219722
O O7 0.270142 0.053749 0.235237
O O8 0.320062 0.000000 0.000000
O O9 0.909296 0.090705 0.500000
O O10 0.927333 0.174639 0.673013
O O11 0.000000 0.127875 0.500000
O O12 0.799393 0.079060 0.000000
#
# Coordination Sequence:
#
# PCOD8319978 Si02
#       5
#    16  16  16  16  32
#     4  11  23  40  63  84 122 166 207 267 324 380
#     4  12  24  40  62  93 133 173 213 266 325 394
#     4  10  23  39  64  94 121 157 216 264 317 384
#     4  12  24  41  68  96 130 170 218 262 320 392
#     4  11  22  40  64  92 126 170 214 265 321 386
#
# _framework density 19.071068
#
# number of rings (size 3 to 8) (size 9 to 14) (size 15 to 20)
#    0.000    0.833    5.000    3.500    2.333    1.500 
#    0.000    0.000    0.000    0.000    0.000    2.333 
#    0.000    0.000    0.000    0.000    0.000    0.000 
#
# Total GULP energy -594941.123880 kJ/mol
# GULP energy per Si atom -12394.606748 kJ/mol
# Density = 1.902766 g / cm^3
# Si number density = 19.071068 Si / 1000 Ang^3
#
#
#
# Elastic Constant Matrix: (Units=GPa)
#
#
# Indices 1 2 3 4 5 6 
#
# 1 155.5852 79.5751 50.3388 0.0000 0.0000 0.0000
# 2 79.5751 155.5861 50.3403 0.0000 0.0000 0.0000
# 3 50.3388 50.3403 136.3306 0.0000 0.0000 0.0000
# 4 0.0000 0.0000 0.0000 27.7065 0.0000 0.0000
# 5 0.0000 0.0000 0.0000 0.0000 27.7067 0.0000
# 6 0.0000 0.0000 0.0000 0.0000 0.0000 33.3063
#
#
#
# Elastic Compliance Matrix: (Units=1/GPa)
#
#
# Indices 1 2 3 4 5 6 
#
# 1 0.009103 -0.004053 -0.001865 0.000000 0.000000 0.000000
# 2 -0.004053 0.009103 -0.001865 0.000000 0.000000 0.000000
# 3 -0.001865 -0.001865 0.008712 0.000000 0.000000 0.000000
# 4 0.000000 0.000000 0.000000 0.036093 0.000000 0.000000
# 5 0.000000 0.000000 0.000000 0.000000 0.036092 0.000000
# 6 0.000000 0.000000 0.000000 0.000000 0.000000 0.030024
#
#
# Mechanical properties :
#
#
# Convention : Reuss Voigt Hill
#
# Bulk Modulus (GPa) = 88.07394 89.77893 88.92643
# Shear Modulus (GPa) = 33.67489 35.56042 34.61765
#
# Velocity S-wave (km/s) = 4.20665 4.32282 4.26513
# Velocity P-wave (km/s) = 8.35923 8.49081 8.42528
#
# Compressibility (1/GPa) = 0.01135410
#
# Stress axis : x y z
#
# Youngs Moduli (GPa) = 109.84833 109.84813 114.77876
#
# Poissons Ratio (x) = 0.44517 0.21406
# Poissons Ratio (y) = 0.44517 0.21407
# Poissons Ratio (z) = 0.20486 0.20488
#
# Static dielectric constant tensor:
#      x y z
#    x 3.678270 0.000000 0.000000 
#    y 0.000000 3.678350 0.000000 
#    z 0.000000 0.000000 3.809460 
# 
# 
# High freq. dielectric constant tensor:
#      x y z
#    x 1.741440 0.000000 0.000000 
#    y 0.000000 1.741440 0.000000 
#    z 0.000000 0.000000 1.766690 
# 
# From -- ./inp_files/1229.got.cif
#   From: 2010.03.12/outbox.cif.g09.slc.cpg/sg139_1_cif.got.tgz:1229.got - 2010.04.08 09:46:31.
