data_PCOD8319215
_publ_section_title
;
Structure prediction by ZEFSAII (Michael W. Deem and Ramdas Pophale) SiO2 
 PCOD8319215
Probable space group: P 42/N C M
;
_chemical_formula_sum "Si O2"
_cell_formula_units_Z 72
_cell_length_a 11.297334
_cell_length_b 11.297334
_cell_length_c 27.916518
_cell_angle_alpha 90.000000
_cell_angle_beta 90.000000
_cell_angle_gamma 90.000000
_cell_volume 3562.978367
_symmetry_space_group_name_H-M "P 42/N C M"
_symmetry_group_IT_number 138
_space_group.IT_coordinate_system_code '2'
_symmetry_cell_setting 'tetragonal'
loop_
_space_group_symop_operation_xyz
x,y,z
1/2-y,x,1/2+z
1/2-x,1/2-y,z
y,1/2-x,1/2+z
1/2+x,-y,1/2-z
-x,1/2+y,1/2-z
1/2+y,1/2+x,-z
-y,-x,-z
-x,-y,-z
1/2+y,-x,1/2-z
1/2+x,1/2+y,-z
-y,1/2+x,1/2-z
1/2-x,y,1/2+z
x,1/2-y,1/2+z
1/2-y,1/2-x,z
y,x,z
loop_
_atom_site_type_symbol
_atom_site_label
_atom_site_fract_x
_atom_site_fract_y
_atom_site_fract_z
Si Si1 0.596659 0.903342 0.987283
Si Si2 0.222194 0.887755 0.372911
Si Si3 0.656298 0.843703 0.788625
Si Si4 0.450358 0.049643 0.116393
Si Si5 0.434233 0.764645 0.733008
Si Si6 0.478890 0.673071 0.031340
O O1 0.610002 0.889999 0.929972
O O2 0.554336 0.779216 0.008684
O O3 0.500000 0.000000 0.000000
O O4 0.250000 0.750000 0.365243
O O5 0.258605 0.952689 0.323956
O O6 0.301257 0.935622 0.415527
O O7 0.088244 0.919508 0.385980
O O8 0.750000 0.750000 0.807651
O O9 0.599818 0.900183 0.835033
O O10 0.561285 0.776301 0.756518
O O11 0.377056 0.644247 0.752500
O O12 0.560111 0.560111 0.035796
O O13 0.362675 0.637326 0.000000
#
# Coordination Sequence:
#
# PCOD8319215 Si02
#       6
#     8  16   8   8  16  16
#     4  12  23  43  70 100 133 188 220 275 334 396
#     4  12  23  42  70  98 128 178 227 274 337 406
#     4  12  28  42  67 103 137 175 222 284 337 401
#     4  12  24  43  70  98 131 175 236 272 327 413
#     4  11  23  46  68  95 135 177 223 278 338 400
#     4  11  26  44  66 102 142 172 224 284 338 405
#
# _framework density 20.207811
#
# number of rings (size 3 to 8) (size 9 to 14) (size 15 to 20)
#    0.000    0.444    6.667    1.667    4.667    0.889 
#    0.000    3.333    0.000    0.000    0.000    0.000 
#    0.000    0.000    0.000    0.000    0.000    0.000 
#
# Total GULP energy -893049.397722 kJ/mol
# GULP energy per Si atom -12403.463857 kJ/mol
# Density = 2.016182 g / cm^3
# Si number density = 20.207811 Si / 1000 Ang^3
#
#
#
# Elastic Constant Matrix: (Units=GPa)
#
#
# Indices 1 2 3 4 5 6 
#
# 1 65.4414 21.0089 10.1337 0.0000 0.0000 0.0000
# 2 21.0089 65.4395 10.1331 0.0000 0.0000 0.0000
# 3 10.1337 10.1331 159.2281 0.0000 0.0000 0.0000
# 4 0.0000 0.0000 0.0000 34.2175 0.0000 0.0000
# 5 0.0000 0.0000 0.0000 0.0000 34.2179 0.0000
# 6 0.0000 0.0000 0.0000 0.0000 0.0000 35.8944
#
#
#
# Elastic Compliance Matrix: (Units=1/GPa)
#
#
# Indices 1 2 3 4 5 6 
#
# 1 0.017124 -0.005382 -0.000747 0.000000 0.000000 0.000000
# 2 -0.005382 0.017125 -0.000747 0.000000 0.000000 0.000000
# 3 -0.000747 -0.000747 0.006375 0.000000 0.000000 0.000000
# 4 0.000000 0.000000 0.000000 0.029225 0.000000 0.000000
# 5 0.000000 0.000000 0.000000 0.000000 0.029224 0.000000
# 6 0.000000 0.000000 0.000000 0.000000 0.000000 0.027860
#
#
# Mechanical properties :
#
#
# Convention : Reuss Voigt Hill
#
# Bulk Modulus (GPa) = 37.21416 41.40671 39.31044
# Shear Modulus (GPa) = 33.41268 37.45483 35.43376
#
# Velocity S-wave (km/s) = 4.07068 4.30988 4.19199
# Velocity P-wave (km/s) = 6.36786 6.73065 6.55177
#
# Compressibility (1/GPa) = 0.02687149
#
# Stress axis : x y z
#
# Youngs Moduli (GPa) = 58.39637 58.39466 156.85251
#
# Poissons Ratio (x) = 0.31428 0.11722
# Poissons Ratio (y) = 0.31429 0.11721
# Poissons Ratio (z) = 0.04364 0.04364
#
# Static dielectric constant tensor:
#      x y z
#    x 3.720890 0.000000 0.000000 
#    y 0.000000 3.720890 0.000000 
#    z 0.000000 0.000000 4.130260 
# 
# 
# High freq. dielectric constant tensor:
#      x y z
#    x 1.793060 0.000000 0.000000 
#    y 0.000000 1.793060 0.000000 
#    z 0.000000 0.000000 1.813900 
# 
# From -- ./inp_files/7430.got.cif
#   From: 2010.03.12/outbox.cif.g09.slc.cpg/sg138_4_cif.got.tgz:7430.got - 2010.04.08 09:41:05.
