data_PCOD8319861
_publ_section_title
;
Structure prediction by ZEFSAII (Michael W. Deem and Ramdas Pophale) SiO2 
 PCOD8319861
Probable space group: I 4/M M M
;
_chemical_formula_sum "Si O2"
_cell_formula_units_Z 160
_cell_length_a 30.410656
_cell_length_b 30.410656
_cell_length_c 9.662555
_cell_angle_alpha 90.000000
_cell_angle_beta 90.000000
_cell_angle_gamma 90.000000
_cell_volume 8936.008149
_symmetry_space_group_name_H-M "I 4/M M M"
_symmetry_group_IT_number 139
_symmetry_cell_setting 'tetragonal'
loop_
_space_group_symop_operation_xyz
x,y,z
-y,x,z
-x,-y,z
y,-x,z
x,-y,-z
-x,y,-z
y,x,-z
-y,-x,-z
-x,-y,-z
y,-x,-z
x,y,-z
-y,x,-z
-x,y,z
x,-y,z
-y,-x,z
y,x,z
1/2+x,1/2+y,1/2+z
1/2-y,1/2+x,1/2+z
1/2-x,1/2-y,1/2+z
1/2+y,1/2-x,1/2+z
1/2+x,1/2-y,1/2-z
1/2-x,1/2+y,1/2-z
1/2+y,1/2+x,1/2-z
1/2-y,1/2-x,1/2-z
1/2-x,1/2-y,1/2-z
1/2+y,1/2-x,1/2-z
1/2+x,1/2+y,1/2-z
1/2-y,1/2+x,1/2-z
1/2-x,1/2+y,1/2+z
1/2+x,1/2-y,1/2+z
1/2-y,1/2-x,1/2+z
1/2+y,1/2+x,1/2+z
loop_
_atom_site_type_symbol
_atom_site_label
_atom_site_fract_x
_atom_site_fract_y
_atom_site_fract_z
Si Si1 0.158590 0.226078 0.842464
Si Si2 0.449859 0.625497 0.500000
Si Si3 0.051998 0.880154 0.500000
Si Si4 0.682210 0.122724 0.164142
Si Si5 0.450777 0.224242 0.157126
Si Si6 0.318028 0.574860 0.759096
O O1 0.207924 0.207924 0.815032
O O2 0.156903 0.277813 0.809991
O O3 0.125192 0.197816 0.750866
O O4 0.143798 0.218201 0.000000
O O5 0.500000 0.606524 0.500000
O O6 0.415319 0.584682 0.500000
O O7 0.443665 0.658749 0.375112
O O8 0.069885 0.930116 0.500000
O O9 0.071873 0.855504 0.629137
O O10 0.000000 0.881544 0.500000
O O11 0.640519 0.140519 0.250000
O O12 0.695923 0.076456 0.231516
O O13 0.671505 0.117184 0.000000
O O14 0.500000 0.205259 0.160764
O O15 0.453418 0.275249 0.200979
O O16 0.431499 0.219948 0.000000
#
# Coordination Sequence:
#
# PCOD8319861 Si02
#       6
#    32  16  16  32  32  32
#     4   9  17  32  53  75  99 131 174 219 259 310
#     4  12  24  37  54  72  95 129 169 219 280 346
#     4  12  24  37  52  70  95 127 167 217 276 342
#     4  10  21  35  53  78 113 153 185 220 264 316
#     4  10  20  36  58  83 110 139 178 228 274 319
#     4  11  21  36  55  78 102 129 166 219 283 337
#
# _framework density 17.905087000000002
#
# number of rings (size 3 to 8) (size 9 to 14) (size 15 to 20)
#    0.000    1.600    2.000    4.200    1.400    1.000 
#    0.000    0.000    0.000    2.400    0.000    0.000 
#    0.000    0.400    0.000    4.200    0.000    1.800 
#
# Total GULP energy -991548.299256 kJ/mol
# GULP energy per Si atom -12394.353741 kJ/mol
# Density = 1.786433 g / cm^3
# Si number density = 17.905087 Si / 1000 Ang^3
#
#
#
# Elastic Constant Matrix: (Units=GPa)
#
#
# Indices 1 2 3 4 5 6 
#
# 1 59.4778 37.1482 40.0617 0.0000 0.0000 0.0000
# 2 37.1482 59.4748 40.0607 0.0000 0.0000 0.0000
# 3 40.0617 40.0607 135.0988 0.0000 0.0000 0.0000
# 4 0.0000 0.0000 0.0000 27.2353 0.0000 0.0000
# 5 0.0000 0.0000 0.0000 0.0000 27.1771 0.0000
# 6 0.0000 0.0000 0.0000 0.0000 0.0000 20.0388
#
#
#
# Elastic Compliance Matrix: (Units=1/GPa)
#
#
# Indices 1 2 3 4 5 6 
#
# 1 0.029255 -0.015531 -0.004070 0.000000 0.000000 0.000000
# 2 -0.015531 0.029256 -0.004070 0.000000 0.000000 0.000000
# 3 -0.004070 -0.004070 0.009816 0.000000 0.000000 0.000000
# 4 0.000000 0.000000 0.000000 0.036717 0.000000 0.000000
# 5 0.000000 0.000000 0.000000 0.000000 0.036796 0.000000
# 6 0.000000 0.000000 0.000000 0.000000 0.000000 0.049903
#
#
# Mechanical properties :
#
#
# Convention : Reuss Voigt Hill
#
# Bulk Modulus (GPa) = 47.65311 54.28805 50.97058
# Shear Modulus (GPa) = 20.31877 24.00897 22.16387
#
# Velocity S-wave (km/s) = 3.37234 3.66581 3.52213
# Velocity P-wave (km/s) = 6.46805 6.95005 6.71338
#
# Compressibility (1/GPa) = 0.02098499
#
# Stress axis : x y z
#
# Youngs Moduli (GPa) = 34.18277 34.18101 101.87951
#
# Poissons Ratio (x) = 0.53088 0.41460
# Poissons Ratio (y) = 0.53090 0.41461
# Poissons Ratio (z) = 0.13911 0.13910
#
# Static dielectric constant tensor:
#      x y z
#    x 3.115170 0.000000 0.000000 
#    y 0.000000 3.115170 0.000000 
#    z 0.000000 0.000000 3.575260 
# 
# 
# High freq. dielectric constant tensor:
#      x y z
#    x 1.672100 0.000000 0.000000 
#    y 0.000000 1.672100 0.000000 
#    z 0.000000 0.000000 1.708730 
# 
# From -- ./inp_files/2249.got.cif
#   From: 2010.03.12/outbox.cif.g09.slc.cpg/sg139_2_cif.got.tgz:2249.got - 2010.04.08 09:46:31.
