data_PCOD8319443
_publ_section_title
;
Structure prediction by ZEFSAII (Michael W. Deem and Ramdas Pophale) SiO2 
 PCOD8319443
Probable space group: I 4/M M M
;
_chemical_formula_sum "Si O2"
_cell_formula_units_Z 176
_cell_length_a 18.029331
_cell_length_b 18.029331
_cell_length_c 30.483520
_cell_angle_alpha 90.000000
_cell_angle_beta 90.000000
_cell_angle_gamma 90.000000
_cell_volume 9908.874742
_symmetry_space_group_name_H-M "I 4/M M M"
_symmetry_group_IT_number 139
_symmetry_cell_setting 'tetragonal'
loop_
_space_group_symop_operation_xyz
x,y,z
-y,x,z
-x,-y,z
y,-x,z
x,-y,-z
-x,y,-z
y,x,-z
-y,-x,-z
-x,-y,-z
y,-x,-z
x,y,-z
-y,x,-z
-x,y,z
x,-y,z
-y,-x,z
y,x,z
1/2+x,1/2+y,1/2+z
1/2-y,1/2+x,1/2+z
1/2-x,1/2-y,1/2+z
1/2+y,1/2-x,1/2+z
1/2+x,1/2-y,1/2-z
1/2-x,1/2+y,1/2-z
1/2+y,1/2+x,1/2-z
1/2-y,1/2-x,1/2-z
1/2-x,1/2-y,1/2-z
1/2+y,1/2-x,1/2-z
1/2+x,1/2+y,1/2-z
1/2-y,1/2+x,1/2-z
1/2-x,1/2+y,1/2+z
1/2+x,1/2-y,1/2+z
1/2-y,1/2-x,1/2+z
1/2+y,1/2+x,1/2+z
loop_
_atom_site_type_symbol
_atom_site_label
_atom_site_fract_x
_atom_site_fract_y
_atom_site_fract_z
Si Si1 0.916012 0.800402 0.161920
Si Si2 0.660079 0.222901 0.417393
Si Si3 0.642500 0.085655 0.705795
Si Si4 0.705228 0.585320 0.761840
Si Si5 0.296570 0.586729 0.500000
Si Si6 0.914008 0.586833 0.886924
O O1 0.883761 0.883761 0.160837
O O2 0.871218 0.749122 0.128999
O O3 0.907456 0.768385 0.211121
O O4 0.000000 0.804793 0.146119
O O5 0.745763 0.254238 0.422098
O O6 0.611888 0.252933 0.457144
O O7 0.645516 0.133590 0.416664
O O8 0.596687 0.096687 0.750000
O O9 0.726175 0.118567 0.709941
O O10 0.597696 0.113865 0.663392
O O11 0.655797 0.000000 0.699202
O O12 0.685663 0.500000 0.772663
O O13 0.632619 0.632619 0.772951
O O14 0.306620 0.500000 0.500000
O O15 0.378337 0.621664 0.500000
O O16 0.896875 0.500000 0.894267
O O17 0.000000 0.604326 0.899216
#
# Coordination Sequence:
#
# PCOD8319443 Si02
#       6
#    32  32  32  32  16  32
#     4   9  16  26  41  60  85 119 156 195 236 276
#     4  10  20  34  51  70  93 123 157 192 235 284
#     4  10  19  29  43  64  89 118 151 187 228 273
#     4   9  18  30  43  62  87 116 153 193 231 274
#     4  10  20  33  51  73  97 127 160 196 236 280
#     4  10  20  33  50  72  98 127 159 196 236 280
#
# _framework density 17.761855000000001
#
# number of rings (size 3 to 8) (size 9 to 14) (size 15 to 20)
#    0.000    2.364    0.000    3.273    0.000    3.909 
#    0.000    2.273    0.000    4.909    0.000    0.000 
#    0.000    0.364    0.000    0.000    0.000    5.091 
#
# Total GULP energy -1090326.647993 kJ/mol
# GULP energy per Si atom -12390.075545 kJ/mol
# Density = 1.772143 g / cm^3
# Si number density = 17.761855 Si / 1000 Ang^3
#
#
#
# Elastic Constant Matrix: (Units=GPa)
#
#
# Indices 1 2 3 4 5 6 
#
# 1 78.6557 42.0594 31.3712 0.0000 0.0000 0.0000
# 2 42.0594 78.6561 31.3715 0.0000 0.0000 0.0000
# 3 31.3712 31.3715 37.7193 0.0000 0.0000 0.0000
# 4 0.0000 0.0000 0.0000 16.2344 0.0000 0.0000
# 5 0.0000 0.0000 0.0000 0.0000 16.2358 0.0000
# 6 0.0000 0.0000 0.0000 0.0000 0.0000 24.5976
#
#
#
# Elastic Compliance Matrix: (Units=1/GPa)
#
#
# Indices 1 2 3 4 5 6 
#
# 1 0.020958 -0.006367 -0.012136 0.000000 0.000000 0.000000
# 2 -0.006367 0.020958 -0.012136 0.000000 0.000000 0.000000
# 3 -0.012136 -0.012136 0.046699 0.000000 0.000000 0.000000
# 4 0.000000 0.000000 0.000000 0.061597 0.000000 0.000000
# 5 0.000000 0.000000 0.000000 0.000000 0.061592 0.000000
# 6 0.000000 0.000000 0.000000 0.000000 0.000000 0.040654
#
#
# Mechanical properties :
#
#
# Convention : Reuss Voigt Hill
#
# Bulk Modulus (GPa) = 36.57887 44.95948 40.76917
# Shear Modulus (GPa) = 15.48707 17.42884 16.45796
#
# Velocity S-wave (km/s) = 2.95605 3.13589 3.04730
# Velocity P-wave (km/s) = 5.68240 6.20315 5.94848
#
# Compressibility (1/GPa) = 0.02733819
#
# Stress axis : x y z
#
# Youngs Moduli (GPa) = 47.71361 47.71363 21.41380
#
# Poissons Ratio (x) = 0.30377 0.25988
# Poissons Ratio (y) = 0.30377 0.25988
# Poissons Ratio (z) = 0.57905 0.57906
#
# Static dielectric constant tensor:
#      x y z
#    x 3.396540 0.000000 0.000000 
#    y 0.000000 3.396540 0.000000 
#    z 0.000000 0.000000 3.309430 
# 
# 
# High freq. dielectric constant tensor:
#      x y z
#    x 1.680910 0.000000 0.000000 
#    y 0.000000 1.680910 0.000000 
#    z 0.000000 0.000000 1.664480 
# 
# From -- ./inp_files/13153.got.cif
#   From: 2010.03.12/outbox.cif.g09.slc.cpg/sg139_7_cif.got.tgz:13153.got - 2010.04.08 09:46:31.
