data_PCOD8319148
_publ_section_title
;
Structure prediction by ZEFSAII (Michael W. Deem and Ramdas Pophale) SiO2 
 PCOD8319148
Probable space group: P 42/N C M
;
_chemical_formula_sum "Si O2"
_cell_formula_units_Z 80
_cell_length_a 12.028482
_cell_length_b 12.028482
_cell_length_c 26.529052
_cell_angle_alpha 90.000000
_cell_angle_beta 90.000000
_cell_angle_gamma 90.000000
_cell_volume 3838.339420
_symmetry_space_group_name_H-M "P 42/N C M"
_symmetry_group_IT_number 138
_space_group.IT_coordinate_system_code '2'
_symmetry_cell_setting 'tetragonal'
loop_
_space_group_symop_operation_xyz
x,y,z
1/2-y,x,1/2+z
1/2-x,1/2-y,z
y,1/2-x,1/2+z
1/2+x,-y,1/2-z
-x,1/2+y,1/2-z
1/2+y,1/2+x,-z
-y,-x,-z
-x,-y,-z
1/2+y,-x,1/2-z
1/2+x,1/2+y,-z
-y,1/2+x,1/2-z
1/2-x,y,1/2+z
x,1/2-y,1/2+z
1/2-y,1/2-x,z
y,x,z
loop_
_atom_site_type_symbol
_atom_site_label
_atom_site_fract_x
_atom_site_fract_y
_atom_site_fract_z
Si Si1 0.430672 0.893723 0.296184
Si Si2 0.662108 0.662108 0.516526
Si Si3 0.077684 0.724487 0.136612
Si Si4 0.837092 0.837092 0.636228
Si Si5 0.421292 0.754286 0.518882
Si Si6 0.845815 0.475401 0.809088
O O1 0.323756 0.872679 0.330650
O O2 0.505388 0.782392 0.299057
O O3 0.396948 0.912379 0.238751
O O4 0.503205 0.996796 0.316888
O O5 0.750000 0.750000 0.495298
O O6 0.659228 0.659228 0.576299
O O7 0.540911 0.708246 0.498019
O O8 0.077672 0.761135 0.078951
O O9 0.147121 0.610858 0.143996
O O10 0.955171 0.698881 0.157813
O O11 0.750000 0.750000 0.657818
O O12 0.377638 0.877638 0.500000
O O13 0.334226 0.665775 0.500000
O O14 0.911523 0.588478 0.821823
#
# Coordination Sequence:
#
# PCOD8319148 Si02
#       6
#    16   8  16   8  16  16
#     4  11  24  40  61  93 127 163 203 249 309 374
#     4   9  19  39  63  87 125 157 195 263 319 372
#     4  11  21  39  64  89 122 161 206 255 312 369
#     4   9  18  35  61  93 118 153 203 251 307 358
#     4  10  23  39  62  94 119 161 215 264 311 367
#     4  11  23  40  63  93 124 163 207 249 307 372
#
# _framework density 20.842347
#
# number of rings (size 3 to 8) (size 9 to 14) (size 15 to 20)
#    0.000    1.600    3.000    1.500    5.600    1.600 
#    0.000    0.000    0.000    0.000    0.000    0.000 
#    0.000    0.000    0.000    0.000    0.000    0.000 
#
# Total GULP energy -991593.789572 kJ/mol
# GULP energy per Si atom -12394.922370 kJ/mol
# Density = 2.079491 g / cm^3
# Si number density = 20.842347 Si / 1000 Ang^3
#
#
#
# Elastic Constant Matrix: (Units=GPa)
#
#
# Indices 1 2 3 4 5 6 
#
# 1 107.9187 46.9675 12.0862 0.0000 0.0000 0.0000
# 2 46.9675 107.9187 12.0871 0.0000 0.0000 0.0000
# 3 12.0862 12.0871 54.9036 0.0000 0.0000 0.0000
# 4 0.0000 0.0000 0.0000 22.3672 0.0000 0.0000
# 5 0.0000 0.0000 0.0000 0.0000 22.3673 0.0000
# 6 0.0000 0.0000 0.0000 0.0000 0.0000 36.7234
#
#
#
# Elastic Compliance Matrix: (Units=1/GPa)
#
#
# Indices 1 2 3 4 5 6 
#
# 1 0.011546 -0.004860 -0.001472 0.000000 0.000000 0.000000
# 2 -0.004860 0.011546 -0.001472 0.000000 0.000000 0.000000
# 3 -0.001472 -0.001472 0.018862 0.000000 0.000000 0.000000
# 4 0.000000 0.000000 0.000000 0.044708 0.000000 0.000000
# 5 0.000000 0.000000 0.000000 0.000000 0.044708 0.000000
# 6 0.000000 0.000000 0.000000 0.000000 0.000000 0.027231
#
#
# Mechanical properties :
#
#
# Convention : Reuss Voigt Hill
#
# Bulk Modulus (GPa) = 37.95589 45.89139 41.92364
# Shear Modulus (GPa) = 27.32367 29.59827 28.46097
#
# Velocity S-wave (km/s) = 3.62466 3.77251 3.69932
# Velocity P-wave (km/s) = 5.98064 6.40640 6.19718
#
# Compressibility (1/GPa) = 0.02634637
#
# Stress axis : x y z
#
# Youngs Moduli (GPa) = 86.60792 86.60753 53.01723
#
# Poissons Ratio (x) = 0.42093 0.07803
# Poissons Ratio (y) = 0.42094 0.07804
# Poissons Ratio (z) = 0.12746 0.12749
#
# Static dielectric constant tensor:
#      x y z
#    x 4.037940 0.000000 0.000000 
#    y 0.000000 4.037960 0.000000 
#    z 0.000000 0.000000 3.592890 
# 
# 
# High freq. dielectric constant tensor:
#      x y z
#    x 1.821220 0.000000 0.000000 
#    y 0.000000 1.821220 0.000000 
#    z 0.000000 0.000000 1.791080 
# 
# From -- ./inp_files/7936.got.cif
#   From: 2010.03.12/outbox.cif.g09.slc.cpg/sg138_4_cif.got.tgz:7936.got - 2010.04.08 09:41:05.
