data_PCOD8319239
_publ_section_title
;
Structure prediction by ZEFSAII (Michael W. Deem and Ramdas Pophale) SiO2 
 PCOD8319239
Probable space group: P 42/N C M
;
_chemical_formula_sum "Si O2"
_cell_formula_units_Z 112
_cell_length_a 13.674359
_cell_length_b 13.674359
_cell_length_c 35.712247
_cell_angle_alpha 90.000000
_cell_angle_beta 90.000000
_cell_angle_gamma 90.000000
_cell_volume 6677.765001
_symmetry_space_group_name_H-M "P 42/N C M"
_symmetry_group_IT_number 138
_space_group.IT_coordinate_system_code '2'
_symmetry_cell_setting 'tetragonal'
loop_
_space_group_symop_operation_xyz
x,y,z
1/2-y,x,1/2+z
1/2-x,1/2-y,z
y,1/2-x,1/2+z
1/2+x,-y,1/2-z
-x,1/2+y,1/2-z
1/2+y,1/2+x,-z
-y,-x,-z
-x,-y,-z
1/2+y,-x,1/2-z
1/2+x,1/2+y,-z
-y,1/2+x,1/2-z
1/2-x,y,1/2+z
x,1/2-y,1/2+z
1/2-y,1/2-x,z
y,x,z
loop_
_atom_site_type_symbol
_atom_site_label
_atom_site_fract_x
_atom_site_fract_y
_atom_site_fract_z
Si Si1 0.410499 0.749996 0.608852
Si Si2 0.340199 0.499784 0.820605
Si Si3 0.250001 0.090436 0.750000
Si Si4 0.749996 0.089500 0.891148
Si Si5 0.659801 0.999784 0.320605
Si Si6 0.840282 0.995464 0.541308
Si Si7 0.340282 0.495464 0.541308
O O1 0.477878 0.769316 0.644743
O O2 0.341541 0.841541 0.600312
O O3 0.347531 0.652469 0.616453
O O4 0.481417 0.739605 0.572991
O O5 0.406058 0.406058 0.830850
O O6 0.272052 0.478691 0.785120
O O7 0.407128 0.592871 0.810903
O O8 0.343279 0.156722 0.760184
O O9 0.156724 0.156724 0.739817
O O10 0.272052 0.021309 0.714881
O O11 0.769316 0.022123 0.855257
O O12 0.739605 0.018583 0.927009
O O13 0.593942 0.906059 0.330849
O O14 0.892405 0.892405 0.550485
O O15 0.790614 0.990646 0.500000
O O16 0.919709 0.080291 0.541112
O O17 0.392405 0.392405 0.550485
#
# Coordination Sequence:
#
# PCOD8319239 Si02
#       7
#    16  16  16  16  16  16  16
#     4   9  17  28  43  65  89 111 140 177 212 248
#     4   9  18  32  47  63  87 117 143 170 211 259
#     4   9  18  32  48  65  84 108 142 179 210 246
#     4   9  17  28  43  65  89 111 140 177 212 248
#     4   9  18  32  47  63  87 117 143 170 211 259
#     4   8  14  25  41  62  88 115 142 175 215 254
#     4   8  14  25  41  62  88 115 142 175 215 254
#
# _framework density 16.772079000000002
#
# number of rings (size 3 to 8) (size 9 to 14) (size 15 to 20)
#    0.000    3.286    0.000    0.857    0.000    2.857 
#    0.000    2.857    0.000    0.857    0.000    6.000 
#    0.000    0.000    0.000    0.000    0.000    0.000 
#
# Total GULP energy -1388546.789819 kJ/mol
# GULP energy per Si atom -12397.739195 kJ/mol
# Density = 1.673390 g / cm^3
# Si number density = 16.772079 Si / 1000 Ang^3
#
#
#
# Elastic Constant Matrix: (Units=GPa)
#
#
# Indices 1 2 3 4 5 6 
#
# 1 62.3402 31.6029 76.6949 0.0000 0.0000 0.0000
# 2 31.6029 62.3402 76.6949 0.0000 0.0000 0.0000
# 3 76.6949 76.6949 185.9893 0.0000 0.0000 0.0000
# 4 0.0000 0.0000 0.0000 16.6067 0.0000 0.0000
# 5 0.0000 0.0000 0.0000 0.0000 16.6067 0.0000
# 6 0.0000 0.0000 0.0000 0.0000 0.0000 11.3618
#
#
#
# Elastic Compliance Matrix: (Units=1/GPa)
#
#
# Indices 1 2 3 4 5 6 
#
# 1 0.032558 0.000025 -0.013436 0.000000 0.000000 0.000000
# 2 0.000025 0.032558 -0.013436 0.000000 0.000000 0.000000
# 3 -0.013436 -0.013436 0.016458 0.000000 0.000000 0.000000
# 4 0.000000 0.000000 0.000000 0.060217 0.000000 0.000000
# 5 0.000000 0.000000 0.000000 0.000000 0.060217 0.000000
# 6 0.000000 0.000000 0.000000 0.000000 0.000000 0.088014
#
#
# Mechanical properties :
#
#
# Convention : Reuss Voigt Hill
#
# Bulk Modulus (GPa) = 35.86845 75.62835 55.74840
# Shear Modulus (GPa) = 14.16389 17.29348 15.72868
#
# Velocity S-wave (km/s) = 2.90917 3.21454 3.06566
# Velocity P-wave (km/s) = 5.71984 7.67902 6.77067
#
# Compressibility (1/GPa) = 0.02787966
#
# Stress axis : x y z
#
# Youngs Moduli (GPa) = 30.71406 30.71406 60.76204
#
# Poissons Ratio (x) = -0.00076 0.81640
# Poissons Ratio (y) = -0.00076 0.81640
# Poissons Ratio (z) = 0.41267 0.41267
#
# Static dielectric constant tensor:
#      x y z
#    x 3.040890 0.000000 0.000000 
#    y 0.000000 3.040890 0.000000 
#    z 0.000000 0.000000 3.391490 
# 
# 
# High freq. dielectric constant tensor:
#      x y z
#    x 1.628720 0.000000 0.000000 
#    y 0.000000 1.628720 0.000000 
#    z 0.000000 0.000000 1.653280 
# 
# From -- ./inp_files/8227.got.cif
#   From: 2010.03.12/outbox.cif.g09.slc.cpg/sg138_5_cif.got.tgz:8227.got - 2010.04.08 09:41:05.
