data_PCOD8319937
_publ_section_title
;
Structure prediction by ZEFSAII (Michael W. Deem and Ramdas Pophale) SiO2 
 PCOD8319937
Probable space group: I 4/M M M
;
_chemical_formula_sum "Si O2"
_cell_formula_units_Z 176
_cell_length_a 18.115869
_cell_length_b 18.115869
_cell_length_c 25.655713
_cell_angle_alpha 90.000000
_cell_angle_beta 90.000000
_cell_angle_gamma 90.000000
_cell_volume 8419.812721
_symmetry_space_group_name_H-M "I 4/M M M"
_symmetry_group_IT_number 139
_symmetry_cell_setting 'tetragonal'
loop_
_space_group_symop_operation_xyz
x,y,z
-y,x,z
-x,-y,z
y,-x,z
x,-y,-z
-x,y,-z
y,x,-z
-y,-x,-z
-x,-y,-z
y,-x,-z
x,y,-z
-y,x,-z
-x,y,z
x,-y,z
-y,-x,z
y,x,z
1/2+x,1/2+y,1/2+z
1/2-y,1/2+x,1/2+z
1/2-x,1/2-y,1/2+z
1/2+y,1/2-x,1/2+z
1/2+x,1/2-y,1/2-z
1/2-x,1/2+y,1/2-z
1/2+y,1/2+x,1/2-z
1/2-y,1/2-x,1/2-z
1/2-x,1/2-y,1/2-z
1/2+y,1/2-x,1/2-z
1/2+x,1/2+y,1/2-z
1/2-y,1/2+x,1/2-z
1/2-x,1/2+y,1/2+z
1/2+x,1/2-y,1/2+z
1/2-y,1/2-x,1/2+z
1/2+y,1/2+x,1/2+z
loop_
_atom_site_type_symbol
_atom_site_label
_atom_site_fract_x
_atom_site_fract_y
_atom_site_fract_z
Si Si1 0.152870 0.353738 0.559254
Si Si2 0.083919 0.200847 0.905313
Si Si3 0.416279 0.917250 0.655884
Si Si4 0.800448 0.915858 0.784471
Si Si5 0.160490 0.660490 0.250000
Si Si6 0.583321 0.300665 0.938222
O O1 0.126415 0.367752 0.500000
O O2 0.240636 0.366289 0.563046
O O3 0.114693 0.412129 0.597498
O O4 0.129002 0.272104 0.578153
O O5 0.120529 0.120529 0.913543
O O6 0.084281 0.223911 0.844764
O O7 0.000000 0.198187 0.926620
O O8 0.500000 0.912398 0.675244
O O9 0.368241 0.874409 0.697140
O O10 0.386755 0.000000 0.654308
O O11 0.883187 0.883187 0.778284
O O12 0.746767 0.860445 0.752806
O O13 0.798343 0.000000 0.762860
O O14 0.500000 0.299835 0.914776
O O15 0.627996 0.372005 0.916631
O O16 0.578919 0.304897 0.000000
#
# Coordination Sequence:
#
# PCOD8319937 Si02
#       6
#    32  32  32  32  16  32
#     4  11  22  38  59  84 119 161 203 250 302 359
#     4  10  21  38  60  88 121 158 202 250 301 358
#     4  11  23  37  57  87 121 160 203 248 302 361
#     4  10  21  38  62  92 126 162 202 249 301 360
#     4  12  21  39  64  90 122 155 196 252 307 358
#     4   9  18  33  54  81 113 150 194 244 297 354
#
# _framework density 20.903077
#
# number of rings (size 3 to 8) (size 9 to 14) (size 15 to 20)
#    0.000    1.636    1.818    3.545    0.000    4.909 
#    0.000    3.636    0.000    0.000    0.000    1.273 
#    0.000    4.364    0.000    0.182    0.000    0.000 
#
# Total GULP energy -1091038.337864 kJ/mol
# GULP energy per Si atom -12398.162930 kJ/mol
# Density = 2.085550 g / cm^3
# Si number density = 20.903077 Si / 1000 Ang^3
#
#
#
# Elastic Constant Matrix: (Units=GPa)
#
#
# Indices 1 2 3 4 5 6 
#
# 1 125.4096 76.8496 18.5468 0.0000 0.0000 0.0000
# 2 76.8496 125.4096 18.5468 0.0000 0.0000 0.0000
# 3 18.5468 18.5468 62.4917 0.0000 0.0000 0.0000
# 4 0.0000 0.0000 0.0000 18.5039 0.0000 0.0000
# 5 0.0000 0.0000 0.0000 0.0000 18.5039 0.0000
# 6 0.0000 0.0000 0.0000 0.0000 0.0000 36.6682
#
#
#
# Elastic Compliance Matrix: (Units=1/GPa)
#
#
# Indices 1 2 3 4 5 6 
#
# 1 0.012911 -0.007682 -0.001552 0.000000 0.000000 0.000000
# 2 -0.007682 0.012911 -0.001552 0.000000 0.000000 0.000000
# 3 -0.001552 -0.001552 0.016923 0.000000 0.000000 0.000000
# 4 0.000000 0.000000 0.000000 0.054043 0.000000 0.000000
# 5 0.000000 0.000000 0.000000 0.000000 0.054043 0.000000
# 6 0.000000 0.000000 0.000000 0.000000 0.000000 0.027272
#
#
# Mechanical properties :
#
#
# Convention : Reuss Voigt Hill
#
# Bulk Modulus (GPa) = 47.22900 60.13306 53.68103
# Shear Modulus (GPa) = 24.18597 28.02638 26.10617
#
# Velocity S-wave (km/s) = 3.40524 3.66564 3.53783
# Velocity P-wave (km/s) = 6.17286 6.83709 6.51345
#
# Compressibility (1/GPa) = 0.02117343
#
# Stress axis : x y z
#
# Youngs Moduli (GPa) = 77.45386 77.45386 59.09022
#
# Poissons Ratio (x) = 0.59501 0.09170
# Poissons Ratio (y) = 0.59501 0.09170
# Poissons Ratio (z) = 0.12020 0.12020
#
# Static dielectric constant tensor:
#      x y z
#    x 3.868000 0.000000 0.000000 
#    y 0.000000 3.868000 0.000000 
#    z 0.000000 0.000000 3.579990 
# 
# 
# High freq. dielectric constant tensor:
#      x y z
#    x 1.820960 0.000000 0.000000 
#    y 0.000000 1.820960 0.000000 
#    z 0.000000 0.000000 1.790580 
# 
# From -- ./inp_files/13095.got.cif
#   From: 2010.03.12/outbox.cif.g09.slc.cpg/sg139_7_cif.got.tgz:13095.got - 2010.04.08 09:46:31.
