data_PCOD8319477
_publ_section_title
;
Structure prediction by ZEFSAII (Michael W. Deem and Ramdas Pophale) SiO2 
 PCOD8319477
Probable space group: I 4/M M M
;
_chemical_formula_sum "Si O2"
_cell_formula_units_Z 192
_cell_length_a 20.749142
_cell_length_b 20.749142
_cell_length_c 26.311342
_cell_angle_alpha 90.000000
_cell_angle_beta 90.000000
_cell_angle_gamma 90.000000
_cell_volume 11327.740341
_symmetry_space_group_name_H-M "I 4/M M M"
_symmetry_group_IT_number 139
_symmetry_cell_setting 'tetragonal'
loop_
_space_group_symop_operation_xyz
x,y,z
-y,x,z
-x,-y,z
y,-x,z
x,-y,-z
-x,y,-z
y,x,-z
-y,-x,-z
-x,-y,-z
y,-x,-z
x,y,-z
-y,x,-z
-x,y,z
x,-y,z
-y,-x,z
y,x,z
1/2+x,1/2+y,1/2+z
1/2-y,1/2+x,1/2+z
1/2-x,1/2-y,1/2+z
1/2+y,1/2-x,1/2+z
1/2+x,1/2-y,1/2-z
1/2-x,1/2+y,1/2-z
1/2+y,1/2+x,1/2-z
1/2-y,1/2-x,1/2-z
1/2-x,1/2-y,1/2-z
1/2+y,1/2-x,1/2-z
1/2+x,1/2+y,1/2-z
1/2-y,1/2+x,1/2-z
1/2-x,1/2+y,1/2+z
1/2+x,1/2-y,1/2+z
1/2-y,1/2-x,1/2+z
1/2+y,1/2+x,1/2+z
loop_
_atom_site_type_symbol
_atom_site_label
_atom_site_fract_x
_atom_site_fract_y
_atom_site_fract_z
Si Si1 0.838885 0.737130 0.612128
Si Si2 0.146134 0.427167 0.056612
Si Si3 0.927093 0.822732 0.787923
Si Si4 0.307866 0.853194 0.198000
Si Si5 0.427372 0.925358 0.842317
Si Si6 0.071118 0.828279 0.332291
O O1 0.792473 0.792473 0.589511
O O2 0.873990 0.701709 0.565571
O O3 0.796865 0.691334 0.648699
O O4 0.895262 0.763939 0.648109
O O5 0.174174 0.500000 0.061091
O O6 0.090326 0.416472 0.098102
O O7 0.117846 0.415795 0.000000
O O8 0.879162 0.879162 0.808732
O O9 0.901905 0.752075 0.802977
O O10 0.929767 0.826273 0.727845
O O11 0.000000 0.832531 0.809852
O O12 0.311024 0.811024 0.250000
O O13 0.376530 0.889017 0.193061
O O14 0.500000 0.905300 0.825631
O O15 0.415999 0.000000 0.834407
O O16 0.109103 0.890897 0.352023
O O17 0.000000 0.832184 0.355398
#
# Coordination Sequence:
#
# PCOD8319477 Si02
#       6
#    32  32  32  32  32  32
#     4  10  19  30  46  66  90 119 150 191 234 278
#     4   9  18  32  49  67  87 114 148 189 236 283
#     4  10  20  32  47  67  91 123 162 200 239 282
#     4  11  20  31  48  68  96 129 162 195 232 278
#     4   9  19  33  47  68  95 122 156 193 231 279
#     4   9  17  28  42  61  85 115 152 191 232 275
#
# _framework density 16.949541
#
# number of rings (size 3 to 8) (size 9 to 14) (size 15 to 20)
#    0.000    2.333    1.667    1.500    0.000    3.667 
#    0.000    4.167    0.000    0.000    0.000    0.000 
#    0.000    0.000    0.000   15.500    0.000    3.167 
#
# Total GULP energy -1189932.453866 kJ/mol
# GULP energy per Si atom -12395.129728 kJ/mol
# Density = 1.691096 g / cm^3
# Si number density = 16.949541 Si / 1000 Ang^3
#
#
#
# Elastic Constant Matrix: (Units=GPa)
#
#
# Indices 1 2 3 4 5 6 
#
# 1 80.2332 34.0646 4.6563 0.0000 0.0000 0.0000
# 2 34.0646 80.2332 4.6563 0.0000 0.0000 0.0000
# 3 4.6563 4.6563 38.9823 0.0000 0.0000 0.0000
# 4 0.0000 0.0000 0.0000 14.9546 0.0000 0.0000
# 5 0.0000 0.0000 0.0000 0.0000 14.9546 0.0000
# 6 0.0000 0.0000 0.0000 0.0000 0.0000 27.8750
#
#
#
# Elastic Compliance Matrix: (Units=1/GPa)
#
#
# Indices 1 2 3 4 5 6 
#
# 1 0.015247 -0.006412 -0.001055 0.000000 0.000000 0.000000
# 2 -0.006412 0.015247 -0.001055 0.000000 0.000000 0.000000
# 3 -0.001055 -0.001055 0.025905 0.000000 0.000000 0.000000
# 4 0.000000 0.000000 0.000000 0.066869 0.000000 0.000000
# 5 0.000000 0.000000 0.000000 0.000000 0.066869 0.000000
# 6 0.000000 0.000000 0.000000 0.000000 0.000000 0.035874
#
#
# Mechanical properties :
#
#
# Convention : Reuss Voigt Hill
#
# Bulk Modulus (GPa) = 25.41061 31.80033 28.60547
# Shear Modulus (GPa) = 19.51783 21.96161 20.73972
#
# Velocity S-wave (km/s) = 3.39710 3.60350 3.50182
# Velocity P-wave (km/s) = 5.51466 6.00966 5.76747
#
# Compressibility (1/GPa) = 0.03935365
#
# Stress axis : x y z
#
# Youngs Moduli (GPa) = 65.58498 65.58498 38.60289
#
# Poissons Ratio (x) = 0.42055 0.04074
# Poissons Ratio (y) = 0.42055 0.04074
# Poissons Ratio (z) = 0.06921 0.06921
#
# Static dielectric constant tensor:
#      x y z
#    x 3.307360 0.000000 0.000000 
#    y 0.000000 3.307360 0.000000 
#    z 0.000000 0.000000 2.868980 
# 
# 
# High freq. dielectric constant tensor:
#      x y z
#    x 1.656440 0.000000 0.000000 
#    y 0.000000 1.656440 0.000000 
#    z 0.000000 0.000000 1.614680 
# 
# From -- ./inp_files/11919.got.cif
#   From: 2010.03.12/outbox.cif.g09.slc.cpg/sg139_6_cif.got.tgz:11919.got - 2010.04.08 09:46:31.
