data_PCOD8319253
_publ_section_title
;
Structure prediction by ZEFSAII (Michael W. Deem and Ramdas Pophale) SiO2 
 PCOD8319253
Probable space group: I 4/M M M
;
_chemical_formula_sum "Si O2"
_cell_formula_units_Z 128
_cell_length_a 28.686809
_cell_length_b 28.686809
_cell_length_c 12.049934
_cell_angle_alpha 90.000000
_cell_angle_beta 90.000000
_cell_angle_gamma 90.000000
_cell_volume 9916.288464
_symmetry_space_group_name_H-M "I 4/M M M"
_symmetry_group_IT_number 139
_symmetry_cell_setting 'tetragonal'
loop_
_space_group_symop_operation_xyz
x,y,z
-y,x,z
-x,-y,z
y,-x,z
x,-y,-z
-x,y,-z
y,x,-z
-y,-x,-z
-x,-y,-z
y,-x,-z
x,y,-z
-y,x,-z
-x,y,z
x,-y,z
-y,-x,z
y,x,z
1/2+x,1/2+y,1/2+z
1/2-y,1/2+x,1/2+z
1/2-x,1/2-y,1/2+z
1/2+y,1/2-x,1/2+z
1/2+x,1/2-y,1/2-z
1/2-x,1/2+y,1/2-z
1/2+y,1/2+x,1/2-z
1/2-y,1/2-x,1/2-z
1/2-x,1/2-y,1/2-z
1/2+y,1/2-x,1/2-z
1/2+x,1/2+y,1/2-z
1/2-y,1/2+x,1/2-z
1/2-x,1/2+y,1/2+z
1/2+x,1/2-y,1/2+z
1/2-y,1/2-x,1/2+z
1/2+y,1/2+x,1/2+z
loop_
_atom_site_type_symbol
_atom_site_label
_atom_site_fract_x
_atom_site_fract_y
_atom_site_fract_z
Si Si1 0.832064 0.052124 0.000000
Si Si2 0.628164 0.553314 0.738701
Si Si3 0.856515 0.779441 0.000000
Si Si4 0.693285 0.614779 0.125381
Si Si5 0.247221 0.674994 0.729882
O O1 0.863924 0.059649 0.892232
O O2 0.789963 0.088666 0.000000
O O3 0.810423 0.000000 0.000000
O O4 0.618924 0.500000 0.771485
O O5 0.582689 0.582689 0.773583
O O6 0.673590 0.570964 0.805708
O O7 0.844364 0.748426 0.105680
O O8 0.828330 0.828330 0.000000
O O9 0.655005 0.655005 0.127040
O O10 0.740527 0.633688 0.183569
O O11 0.705140 0.599331 0.000000
O O12 0.284321 0.715680 0.746929
O O13 0.195389 0.695389 0.750000
#
# Coordination Sequence:
#
# PCOD8319253 Si02
#       5
#    16  32  16  32  32
#     4  10  18  28  43  59  75  98 128 159 198 241
#     4  10  19  30  43  57  72  93 123 161 206 249
#     4  10  16  26  42  56  78 101 123 155 193 230
#     4   9  17  28  40  53  72  94 117 147 185 229
#     4   9  17  25  37  57  77  97 118 142 178 227
#
# _framework density 12.908054999999999
#
# number of rings (size 3 to 8) (size 9 to 14) (size 15 to 20)
#    0.000    2.500    2.500    1.125    1.750    0.750 
#    0.000    0.000    0.000    2.250    0.000    3.500 
#    0.000    0.000    0.000    0.000    0.000    0.000 
#
# Total GULP energy -793455.554015 kJ/mol
# GULP energy per Si atom -12397.743031 kJ/mol
# Density = 1.287868 g / cm^3
# Si number density = 12.908055 Si / 1000 Ang^3
#
#
#
# Elastic Constant Matrix: (Units=GPa)
#
#
# Indices 1 2 3 4 5 6 
#
# 1 58.2120 51.3748 33.0601 0.0000 0.0000 0.0000
# 2 51.3748 58.2120 33.0601 0.0000 0.0000 0.0000
# 3 33.0601 33.0601 98.4690 0.0000 0.0000 0.0000
# 4 0.0000 0.0000 0.0000 12.4191 0.0000 0.0000
# 5 0.0000 0.0000 0.0000 0.0000 12.4191 0.0000
# 6 0.0000 0.0000 0.0000 0.0000 0.0000 18.1131
#
#
#
# Elastic Compliance Matrix: (Units=1/GPa)
#
#
# Indices 1 2 3 4 5 6 
#
# 1 0.078851 -0.067407 -0.003842 0.000000 0.000000 0.000000
# 2 -0.067407 0.078851 -0.003842 0.000000 0.000000 0.000000
# 3 -0.003842 -0.003842 0.012735 0.000000 0.000000 0.000000
# 4 0.000000 0.000000 0.000000 0.080521 0.000000 0.000000
# 5 0.000000 0.000000 0.000000 0.000000 0.080521 0.000000
# 6 0.000000 0.000000 0.000000 0.000000 0.000000 0.055209
#
#
# Mechanical properties :
#
#
# Convention : Reuss Voigt Hill
#
# Bulk Modulus (GPa) = 49.37310 49.98700 49.68005
# Shear Modulus (GPa) = 9.19758 15.08347 12.14052
#
# Velocity S-wave (km/s) = 2.67225 3.42209 3.07015
# Velocity P-wave (km/s) = 6.91767 7.37725 7.15115
#
# Compressibility (1/GPa) = 0.02025394
#
# Stress axis : x y z
#
# Youngs Moduli (GPa) = 12.68219 12.68219 78.52185
#
# Poissons Ratio (x) = 0.85487 0.30168
# Poissons Ratio (y) = 0.85487 0.30168
# Poissons Ratio (z) = 0.04872 0.04872
#
# Static dielectric constant tensor:
#      x y z
#    x 2.456680 0.000000 0.000000 
#    y 0.000000 2.456680 0.000000 
#    z 0.000000 0.000000 2.791860 
# 
# 
# High freq. dielectric constant tensor:
#      x y z
#    x 1.454870 0.000000 0.000000 
#    y 0.000000 1.454870 0.000000 
#    z 0.000000 0.000000 1.508720 
# 
# From -- ./inp_files/4122.got.cif
#   From: 2010.03.12/outbox.cif.g09.slc.cpg/sg139_3_cif.got.tgz:4122.got - 2010.04.08 09:46:31.
