data_PCOD8319288
_publ_section_title
;
Structure prediction by ZEFSAII (Michael W. Deem and Ramdas Pophale) SiO2 
 PCOD8319288
Probable space group: I 4/M M M
;
_chemical_formula_sum "Si O2"
_cell_formula_units_Z 160
_cell_length_a 22.377944
_cell_length_b 22.377944
_cell_length_c 17.699268
_cell_angle_alpha 90.000000
_cell_angle_beta 90.000000
_cell_angle_gamma 90.000000
_cell_volume 8863.304519
_symmetry_space_group_name_H-M "I 4/M M M"
_symmetry_group_IT_number 139
_symmetry_cell_setting 'tetragonal'
loop_
_space_group_symop_operation_xyz
x,y,z
-y,x,z
-x,-y,z
y,-x,z
x,-y,-z
-x,y,-z
y,x,-z
-y,-x,-z
-x,-y,-z
y,-x,-z
x,y,-z
-y,x,-z
-x,y,z
x,-y,z
-y,-x,z
y,x,z
1/2+x,1/2+y,1/2+z
1/2-y,1/2+x,1/2+z
1/2-x,1/2-y,1/2+z
1/2+y,1/2-x,1/2+z
1/2+x,1/2-y,1/2-z
1/2-x,1/2+y,1/2-z
1/2+y,1/2+x,1/2-z
1/2-y,1/2-x,1/2-z
1/2-x,1/2-y,1/2-z
1/2+y,1/2-x,1/2-z
1/2+x,1/2+y,1/2-z
1/2-y,1/2+x,1/2-z
1/2-x,1/2+y,1/2+z
1/2+x,1/2-y,1/2+z
1/2-y,1/2-x,1/2+z
1/2+y,1/2+x,1/2+z
loop_
_atom_site_type_symbol
_atom_site_label
_atom_site_fract_x
_atom_site_fract_y
_atom_site_fract_z
Si Si1 0.139718 0.614246 0.089430
Si Si2 0.933983 0.500000 0.089567
Si Si3 0.232652 0.431323 0.413146
Si Si4 0.930425 0.831593 0.206377
Si Si5 0.336749 0.431080 0.000000
Si Si6 0.069741 0.240198 0.357072
O O1 0.098715 0.559732 0.117372
O O2 0.108526 0.676357 0.111129
O O3 0.200685 0.609984 0.136782
O O4 0.152652 0.609439 0.000000
O O5 0.000000 0.500000 0.125227
O O6 0.937791 0.500000 0.000000
O O7 0.249565 0.420277 0.500000
O O8 0.214531 0.500000 0.398453
O O9 0.290637 0.413628 0.365092
O O10 0.891870 0.891870 0.203505
O O11 0.914701 0.793743 0.280420
O O12 0.000000 0.850439 0.205642
O O13 0.301182 0.411283 0.073798
O O14 0.351347 0.500000 0.000000
O O15 0.400542 0.400542 0.000000
O O16 0.000000 0.257926 0.362254
#
# Coordination Sequence:
#
# PCOD8319288 Si02
#       6
#    32  16  32  32  16  32
#     4  10  17  29  52  79 111 151 191 224 263 308
#     4   9  16  24  44  80 114 142 191 245 267 294
#     4   9  19  36  57  81 111 146 180 220 275 330
#     4  10  22  40  61  83 106 135 175 225 282 340
#     4  10  20  33  52  74 104 138 178 228 275 329
#     4  10  19  33  53  79 109 146 183 222 270 320
#
# _framework density 18.051957999999999
#
# number of rings (size 3 to 8) (size 9 to 14) (size 15 to 20)
#    0.000    2.300    2.000    1.200    0.000    3.900 
#    0.000    3.000    0.000    3.600    0.000    2.800 
#    0.000    0.000    0.000    0.000    0.000    0.000 
#
# Total GULP energy -992105.995399 kJ/mol
# GULP energy per Si atom -12401.324942 kJ/mol
# Density = 1.801087 g / cm^3
# Si number density = 18.051958 Si / 1000 Ang^3
#
#
#
# Elastic Constant Matrix: (Units=GPa)
#
#
# Indices 1 2 3 4 5 6 
#
# 1 116.5427 89.2971 52.5516 0.0000 0.0000 0.0000
# 2 89.2971 116.5427 52.5516 0.0000 0.0000 0.0000
# 3 52.5516 52.5516 89.4949 0.0000 0.0000 0.0000
# 4 0.0000 0.0000 0.0000 13.6286 0.0000 0.0000
# 5 0.0000 0.0000 0.0000 0.0000 13.6286 0.0000
# 6 0.0000 0.0000 0.0000 0.0000 0.0000 37.4932
#
#
#
# Elastic Compliance Matrix: (Units=1/GPa)
#
#
# Indices 1 2 3 4 5 6 
#
# 1 0.021821 -0.014882 -0.004074 0.000000 0.000000 0.000000
# 2 -0.014882 0.021821 -0.004074 0.000000 0.000000 0.000000
# 3 -0.004074 -0.004074 0.015959 0.000000 0.000000 0.000000
# 4 0.000000 0.000000 0.000000 0.073375 0.000000 0.000000
# 5 0.000000 0.000000 0.000000 0.000000 0.073375 0.000000
# 6 0.000000 0.000000 0.000000 0.000000 0.000000 0.026672
#
#
# Mechanical properties :
#
#
# Convention : Reuss Voigt Hill
#
# Bulk Modulus (GPa) = 73.86346 79.04233 76.45290
# Shear Modulus (GPa) = 17.63064 21.49540 19.56302
#
# Velocity S-wave (km/s) = 3.12855 3.45447 3.29554
# Velocity P-wave (km/s) = 7.35230 7.73254 7.54482
#
# Compressibility (1/GPa) = 0.01353849
#
# Stress axis : x y z
#
# Youngs Moduli (GPa) = 45.82770 45.82770 62.66172
#
# Poissons Ratio (x) = 0.68202 0.25530
# Poissons Ratio (y) = 0.68202 0.25530
# Poissons Ratio (z) = 0.18672 0.18672
#
# Static dielectric constant tensor:
#      x y z
#    x 3.234950 0.000000 0.000000 
#    y 0.000000 3.234950 0.000000 
#    z 0.000000 0.000000 3.303260 
# 
# 
# High freq. dielectric constant tensor:
#      x y z
#    x 1.693490 0.000000 0.000000 
#    y 0.000000 1.693490 0.000000 
#    z 0.000000 0.000000 1.690400 
# 
# From -- ./inp_files/8464.got.cif
#   From: 2010.03.12/outbox.cif.g09.slc.cpg/sg139_5_cif.got.tgz:8464.got - 2010.04.08 09:46:31.
