data_PCOD8319735
_publ_section_title
;
Structure prediction by ZEFSAII (Michael W. Deem and Ramdas Pophale) SiO2 
 PCOD8319735
Probable space group: I 4/M M M
;
_chemical_formula_sum "Si O2"
_cell_formula_units_Z 160
_cell_length_a 21.387537
_cell_length_b 21.387537
_cell_length_c 18.461029
_cell_angle_alpha 90.000000
_cell_angle_beta 90.000000
_cell_angle_gamma 90.000000
_cell_volume 8444.568293
_symmetry_space_group_name_H-M "I 4/M M M"
_symmetry_group_IT_number 139
_symmetry_cell_setting 'tetragonal'
loop_
_space_group_symop_operation_xyz
x,y,z
-y,x,z
-x,-y,z
y,-x,z
x,-y,-z
-x,y,-z
y,x,-z
-y,-x,-z
-x,-y,-z
y,-x,-z
x,y,-z
-y,x,-z
-x,y,z
x,-y,z
-y,-x,z
y,x,z
1/2+x,1/2+y,1/2+z
1/2-y,1/2+x,1/2+z
1/2-x,1/2-y,1/2+z
1/2+y,1/2-x,1/2+z
1/2+x,1/2-y,1/2-z
1/2-x,1/2+y,1/2-z
1/2+y,1/2+x,1/2-z
1/2-y,1/2-x,1/2-z
1/2-x,1/2-y,1/2-z
1/2+y,1/2-x,1/2-z
1/2+x,1/2+y,1/2-z
1/2-y,1/2+x,1/2-z
1/2-x,1/2+y,1/2+z
1/2+x,1/2-y,1/2+z
1/2-y,1/2-x,1/2+z
1/2+y,1/2+x,1/2+z
loop_
_atom_site_type_symbol
_atom_site_label
_atom_site_fract_x
_atom_site_fract_y
_atom_site_fract_z
Si Si1 0.212747 0.114632 0.582133
Si Si2 0.569231 0.665858 0.779270
Si Si3 0.821106 0.572200 0.414804
Si Si4 0.240362 0.342082 0.298414
Si Si5 0.345568 0.931282 0.584300
O O1 0.203538 0.091223 0.500000
O O2 0.185930 0.185930 0.591668
O O3 0.172716 0.068420 0.633302
O O4 0.285500 0.111247 0.605829
O O5 0.500000 0.667604 0.746606
O O6 0.600166 0.600166 0.755733
O O7 0.609955 0.723246 0.752044
O O8 0.806605 0.581669 0.500000
O O9 0.811371 0.500000 0.391881
O O10 0.777179 0.618993 0.370136
O O11 0.892767 0.591772 0.396310
O O12 0.283701 0.283701 0.322097
O O13 0.181808 0.318193 0.250000
O O14 0.343139 0.943901 0.500000
O O15 0.345322 0.000000 0.623146
#
# Coordination Sequence:
#
# PCOD8319735 Si02
#       5
#    32  32  32  32  32
#     4   9  17  29  47  73 102 131 169 216 262 308
#     4  10  20  33  50  71  98 134 169 205 252 302
#     4  10  21  36  55  79 106 138 175 216 263 312
#     4  10  21  37  56  79 106 134 168 212 265 322
#     4   9  17  29  47  71  98 131 169 205 243 291
#
# _framework density 18.947091
#
# number of rings (size 3 to 8) (size 9 to 14) (size 15 to 20)
#    0.000    2.400    0.000    2.400    0.000    4.600 
#    0.000    5.000    0.000    0.000    0.000    2.800 
#    0.000    0.000    0.000   18.600    0.000    0.200 
#
# Total GULP energy -991215.476971 kJ/mol
# GULP energy per Si atom -12390.193462 kJ/mol
# Density = 1.890397 g / cm^3
# Si number density = 18.947091 Si / 1000 Ang^3
#
#
#
# Elastic Constant Matrix: (Units=GPa)
#
#
# Indices 1 2 3 4 5 6 
#
# 1 121.0585 60.5993 38.9714 0.0000 0.0000 0.0000
# 2 60.5993 121.0561 38.9710 0.0000 0.0000 0.0000
# 3 38.9714 38.9710 58.9662 0.0000 0.0000 0.0000
# 4 0.0000 0.0000 0.0000 21.8030 0.0000 0.0000
# 5 0.0000 0.0000 0.0000 0.0000 21.8031 0.0000
# 6 0.0000 0.0000 0.0000 0.0000 0.0000 16.5294
#
#
#
# Elastic Compliance Matrix: (Units=1/GPa)
#
#
# Indices 1 2 3 4 5 6 
#
# 1 0.012112 -0.004428 -0.005078 0.000000 0.000000 0.000000
# 2 -0.004428 0.012112 -0.005078 0.000000 0.000000 0.000000
# 3 -0.005078 -0.005078 0.023671 0.000000 0.000000 0.000000
# 4 0.000000 0.000000 0.000000 0.045865 0.000000 0.000000
# 5 0.000000 0.000000 0.000000 0.000000 0.045865 0.000000
# 6 0.000000 0.000000 0.000000 0.000000 0.000000 0.060498
#
#
# Mechanical properties :
#
#
# Convention : Reuss Voigt Hill
#
# Bulk Modulus (GPa) = 53.40198 64.24048 58.82123
# Shear Modulus (GPa) = 21.22816 22.86301 22.04558
#
# Velocity S-wave (km/s) = 3.35086 3.47749 3.41476
# Velocity P-wave (km/s) = 6.57396 7.07833 6.83080
#
# Compressibility (1/GPa) = 0.01872590
#
# Stress axis : x y z
#
# Youngs Moduli (GPa) = 82.56284 82.56113 42.24499
#
# Poissons Ratio (x) = 0.36561 0.21453
# Poissons Ratio (y) = 0.36561 0.21453
# Poissons Ratio (z) = 0.41928 0.41927
#
# Static dielectric constant tensor:
#      x y z
#    x 3.531820 0.000000 0.000000 
#    y 0.000000 3.531820 0.000000 
#    z 0.000000 0.000000 3.406950 
# 
# 
# High freq. dielectric constant tensor:
#      x y z
#    x 1.729400 0.000000 0.000000 
#    y 0.000000 1.729400 0.000000 
#    z 0.000000 0.000000 1.718440 
# 
# From -- ./inp_files/8401.got.cif
#   From: 2010.03.12/outbox.cif.g09.slc.cpg/sg139_5_cif.got.tgz:8401.got - 2010.04.08 09:46:31.
