data_PCOD8319445
_publ_section_title
;
Structure prediction by ZEFSAII (Michael W. Deem and Ramdas Pophale) SiO2 
 PCOD8319445
Probable space group: I 4/M M M
;
_chemical_formula_sum "Si O2"
_cell_formula_units_Z 208
_cell_length_a 19.833837
_cell_length_b 19.833837
_cell_length_c 32.969609
_cell_angle_alpha 90.000000
_cell_angle_beta 90.000000
_cell_angle_gamma 90.000000
_cell_volume 12969.620730
_symmetry_space_group_name_H-M "I 4/M M M"
_symmetry_group_IT_number 139
_symmetry_cell_setting 'tetragonal'
loop_
_space_group_symop_operation_xyz
x,y,z
-y,x,z
-x,-y,z
y,-x,z
x,-y,-z
-x,y,-z
y,x,-z
-y,-x,-z
-x,-y,-z
y,-x,-z
x,y,-z
-y,x,-z
-x,y,z
x,-y,z
-y,-x,z
y,x,z
1/2+x,1/2+y,1/2+z
1/2-y,1/2+x,1/2+z
1/2-x,1/2-y,1/2+z
1/2+y,1/2-x,1/2+z
1/2+x,1/2-y,1/2-z
1/2-x,1/2+y,1/2-z
1/2+y,1/2+x,1/2-z
1/2-y,1/2-x,1/2-z
1/2-x,1/2-y,1/2-z
1/2+y,1/2-x,1/2-z
1/2+x,1/2+y,1/2-z
1/2-y,1/2+x,1/2-z
1/2-x,1/2+y,1/2+z
1/2+x,1/2-y,1/2+z
1/2-y,1/2-x,1/2+z
1/2+y,1/2+x,1/2+z
loop_
_atom_site_type_symbol
_atom_site_label
_atom_site_fract_x
_atom_site_fract_y
_atom_site_fract_z
Si Si1 0.812493 0.924403 0.384333
Si Si2 0.642186 0.244585 0.044856
Si Si3 0.243706 0.642967 0.573067
Si Si4 0.809560 0.922032 0.236594
Si Si5 0.356504 0.243942 0.663741
Si Si6 0.858554 0.745842 0.311311
Si Si7 0.923713 0.189071 0.000000
O O1 0.877613 0.877613 0.382578
O O2 0.770838 0.916362 0.425845
O O3 0.761521 0.909144 0.347857
O O4 0.839361 0.000000 0.380953
O O5 0.702767 0.297234 0.044750
O O6 0.671466 0.173348 0.060234
O O7 0.611351 0.236086 0.000000
O O8 0.298726 0.701275 0.572894
O O9 0.235829 0.612344 0.618496
O O10 0.265690 0.587145 0.540288
O O11 0.877683 0.877683 0.240928
O O12 0.775243 0.913587 0.192631
O O13 0.753203 0.898826 0.269160
O O14 0.829427 0.000000 0.242956
O O15 0.293308 0.293308 0.661380
O O16 0.328920 0.172780 0.682044
O O17 0.798112 0.798112 0.311420
O O18 0.875807 0.124194 0.000000
O O19 0.000000 0.162685 0.000000
#
# Coordination Sequence:
#
# PCOD8319445 Si02
#       7
#    32  32  32  32  32  32  16
#     4  10  19  29  43  65  95 130 161 188 221 268
#     4   9  15  26  45  65  86 114 150 195 242 275
#     4   9  15  27  47  68  88 114 151 198 246 278
#     4  10  20  31  44  65  95 130 162 188 219 269
#     4   9  16  28  48  69  88 113 149 199 254 285
#     4   9  16  29  47  66  88 117 154 199 245 276
#     4  10  20  31  46  70 101 135 164 190 224 274
#
# _framework density 16.037478
#
# number of rings (size 3 to 8) (size 9 to 14) (size 15 to 20)
#    0.000    2.615    2.308    0.923    0.000    3.154 
#    0.000    0.000    0.000    2.769    0.000    6.462 
#    0.000   12.923    0.000    0.000    0.000    0.000 
#
# Total GULP energy -1289014.846607 kJ/mol
# GULP energy per Si atom -12394.373525 kJ/mol
# Density = 1.600098 g / cm^3
# Si number density = 16.037478 Si / 1000 Ang^3
#
#
#
# Elastic Constant Matrix: (Units=GPa)
#
#
# Indices 1 2 3 4 5 6 
#
# 1 46.6154 37.5341 26.6240 0.0000 0.0000 0.0000
# 2 37.5341 46.6160 26.6240 0.0000 0.0000 0.0000
# 3 26.6240 26.6240 128.6484 0.0000 0.0000 0.0000
# 4 0.0000 0.0000 0.0000 10.8544 0.0000 0.0000
# 5 0.0000 0.0000 0.0000 0.0000 10.8543 0.0000
# 6 0.0000 0.0000 0.0000 0.0000 0.0000 10.8867
#
#
#
# Elastic Compliance Matrix: (Units=1/GPa)
#
#
# Indices 1 2 3 4 5 6 
#
# 1 0.061894 -0.048219 -0.002830 0.000000 0.000000 0.000000
# 2 -0.048219 0.061893 -0.002830 0.000000 0.000000 0.000000
# 3 -0.002830 -0.002830 0.008944 0.000000 0.000000 0.000000
# 4 0.000000 0.000000 0.000000 0.092129 0.000000 0.000000
# 5 0.000000 0.000000 0.000000 0.000000 0.092130 0.000000
# 6 0.000000 0.000000 0.000000 0.000000 0.000000 0.091855
#
#
# Mechanical properties :
#
#
# Convention : Reuss Voigt Hill
#
# Bulk Modulus (GPa) = 40.04272 44.82711 42.43492
# Shear Modulus (GPa) = 9.52514 15.25891 12.39203
#
# Velocity S-wave (km/s) = 2.43971 3.08791 2.78275
# Velocity P-wave (km/s) = 5.74097 6.38167 6.06978
#
# Compressibility (1/GPa) = 0.02497333
#
# Stress axis : x y z
#
# Youngs Moduli (GPa) = 16.15677 16.15697 111.80128
#
# Poissons Ratio (x) = 0.77907 0.31640
# Poissons Ratio (y) = 0.77906 0.31638
# Poissons Ratio (z) = 0.04572 0.04572
#
# Static dielectric constant tensor:
#      x y z
#    x 2.705330 0.000000 0.000000 
#    y 0.000000 2.705330 0.000000 
#    z 0.000000 0.000000 3.499970 
# 
# 
# High freq. dielectric constant tensor:
#      x y z
#    x 1.576620 0.000000 0.000000 
#    y 0.000000 1.576620 0.000000 
#    z 0.000000 0.000000 1.642020 
# 
# From -- ./inp_files/14559.got.cif
#   From: 2010.03.12/outbox.cif.g09.slc.cpg/sg139_8_cif.got.tgz:14559.got - 2010.04.08 09:46:31.
