data_PCOD8319847
_publ_section_title
;
Structure prediction by ZEFSAII (Michael W. Deem and Ramdas Pophale) SiO2 
 PCOD8319847
Probable space group: I 4/M M M
;
_chemical_formula_sum "Si O2"
_cell_formula_units_Z 144
_cell_length_a 17.842934
_cell_length_b 17.842934
_cell_length_c 23.424280
_cell_angle_alpha 90.000000
_cell_angle_beta 90.000000
_cell_angle_gamma 90.000000
_cell_volume 7457.594904
_symmetry_space_group_name_H-M "I 4/M M M"
_symmetry_group_IT_number 139
_symmetry_cell_setting 'tetragonal'
loop_
_space_group_symop_operation_xyz
x,y,z
-y,x,z
-x,-y,z
y,-x,z
x,-y,-z
-x,y,-z
y,x,-z
-y,-x,-z
-x,-y,-z
y,-x,-z
x,y,-z
-y,x,-z
-x,y,z
x,-y,z
-y,-x,z
y,x,z
1/2+x,1/2+y,1/2+z
1/2-y,1/2+x,1/2+z
1/2-x,1/2-y,1/2+z
1/2+y,1/2-x,1/2+z
1/2+x,1/2-y,1/2-z
1/2-x,1/2+y,1/2-z
1/2+y,1/2+x,1/2-z
1/2-y,1/2-x,1/2-z
1/2-x,1/2-y,1/2-z
1/2+y,1/2-x,1/2-z
1/2+x,1/2+y,1/2-z
1/2-y,1/2+x,1/2-z
1/2-x,1/2+y,1/2+z
1/2+x,1/2-y,1/2+z
1/2-y,1/2-x,1/2+z
1/2+y,1/2+x,1/2+z
loop_
_atom_site_type_symbol
_atom_site_label
_atom_site_fract_x
_atom_site_fract_y
_atom_site_fract_z
Si Si1 0.914137 0.337060 0.295568
Si Si2 0.083175 0.199841 0.222284
Si Si3 0.909540 0.785749 0.500000
Si Si4 0.299834 0.177460 0.595764
Si Si5 0.085802 0.204861 0.911722
O O1 0.905315 0.405315 0.250000
O O2 0.883984 0.267372 0.258743
O O3 0.864617 0.340773 0.352330
O O4 0.000000 0.331884 0.314658
O O5 0.125999 0.125999 0.239842
O O6 0.088424 0.217700 0.155729
O O7 0.000000 0.183559 0.242170
O O8 0.866472 0.866472 0.500000
O O9 0.884369 0.737508 0.445184
O O10 0.000000 0.797955 0.500000
O O11 0.236005 0.236005 0.617030
O O12 0.365267 0.225631 0.563222
O O13 0.125599 0.125599 0.928235
O O14 0.000000 0.204679 0.934913
#
# Coordination Sequence:
#
# PCOD8319847 Si02
#       5
#    32  32  16  32  32
#     4  11  21  32  49  74 104 140 180 225 277 331
#     4   9  17  28  44  69 100 132 168 208 255 315
#     4  10  22  41  63  89 116 146 188 234 284 334
#     4  10  20  35  58  81 108 146 188 234 278 331
#     4   9  17  30  50  77 108 143 180 221 271 325
#
# _framework density 19.309173000000001
#
# number of rings (size 3 to 8) (size 9 to 14) (size 15 to 20)
#    0.000    2.222    2.222    1.333    0.000    1.667 
#    0.000    2.778    0.000    2.667    0.000    3.111 
#    0.000    4.444    0.000    0.000    0.000    0.000 
#
# Total GULP energy -892061.693261 kJ/mol
# GULP energy per Si atom -12389.745740 kJ/mol
# Density = 1.926522 g / cm^3
# Si number density = 19.309173 Si / 1000 Ang^3
#
#
#
# Elastic Constant Matrix: (Units=GPa)
#
#
# Indices 1 2 3 4 5 6 
#
# 1 111.0919 60.6820 25.7867 0.0000 0.0000 0.0000
# 2 60.6820 111.0919 25.7867 0.0000 0.0000 0.0000
# 3 25.7867 25.7867 56.9462 0.0000 0.0000 0.0000
# 4 0.0000 0.0000 0.0000 16.1377 0.0000 0.0000
# 5 0.0000 0.0000 0.0000 0.0000 16.1377 0.0000
# 6 0.0000 0.0000 0.0000 0.0000 0.0000 26.6871
#
#
#
# Elastic Compliance Matrix: (Units=1/GPa)
#
#
# Indices 1 2 3 4 5 6 
#
# 1 0.013288 -0.006550 -0.003051 0.000000 0.000000 0.000000
# 2 -0.006550 0.013288 -0.003051 0.000000 0.000000 0.000000
# 3 -0.003051 -0.003051 0.020324 0.000000 0.000000 0.000000
# 4 0.000000 0.000000 0.000000 0.061967 0.000000 0.000000
# 5 0.000000 0.000000 0.000000 0.000000 0.061967 0.000000
# 6 0.000000 0.000000 0.000000 0.000000 0.000000 0.037471
#
#
# Mechanical properties :
#
#
# Convention : Reuss Voigt Hill
#
# Bulk Modulus (GPa) = 46.30718 55.96011 51.13364
# Shear Modulus (GPa) = 20.76366 22.91746 21.84056
#
# Velocity S-wave (km/s) = 3.28277 3.44883 3.36683
# Velocity P-wave (km/s) = 6.19700 6.70099 6.45392
#
# Compressibility (1/GPa) = 0.02159492
#
# Stress axis : x y z
#
# Youngs Moduli (GPa) = 75.25862 75.25862 49.20393
#
# Poissons Ratio (x) = 0.49293 0.15012
# Poissons Ratio (y) = 0.49293 0.15012
# Poissons Ratio (z) = 0.22961 0.22961
#
# Static dielectric constant tensor:
#      x y z
#    x 3.673400 0.000000 0.000000 
#    y 0.000000 3.673400 0.000000 
#    z 0.000000 0.000000 3.292020 
# 
# 
# High freq. dielectric constant tensor:
#      x y z
#    x 1.749910 0.000000 0.000000 
#    y 0.000000 1.749910 0.000000 
#    z 0.000000 0.000000 1.735940 
# 
# From -- ./inp_files/11463.got.cif
#   From: 2010.03.12/outbox.cif.g09.slc.cpg/sg139_6_cif.got.tgz:11463.got - 2010.04.08 09:46:31.
