data_PCOD8319944
_publ_section_title
;
Structure prediction by ZEFSAII (Michael W. Deem and Ramdas Pophale) SiO2 
 PCOD8319944
Probable space group: I 4/M M M
;
_chemical_formula_sum "Si O2"
_cell_formula_units_Z 160
_cell_length_a 31.210183
_cell_length_b 31.210183
_cell_length_c 8.764629
_cell_angle_alpha 90.000000
_cell_angle_beta 90.000000
_cell_angle_gamma 90.000000
_cell_volume 8537.410576
_symmetry_space_group_name_H-M "I 4/M M M"
_symmetry_group_IT_number 139
_symmetry_cell_setting 'tetragonal'
loop_
_space_group_symop_operation_xyz
x,y,z
-y,x,z
-x,-y,z
y,-x,z
x,-y,-z
-x,y,-z
y,x,-z
-y,-x,-z
-x,-y,-z
y,-x,-z
x,y,-z
-y,x,-z
-x,y,z
x,-y,z
-y,-x,z
y,x,z
1/2+x,1/2+y,1/2+z
1/2-y,1/2+x,1/2+z
1/2-x,1/2-y,1/2+z
1/2+y,1/2-x,1/2+z
1/2+x,1/2-y,1/2-z
1/2-x,1/2+y,1/2-z
1/2+y,1/2+x,1/2-z
1/2-y,1/2-x,1/2-z
1/2-x,1/2-y,1/2-z
1/2+y,1/2-x,1/2-z
1/2+x,1/2+y,1/2-z
1/2-y,1/2+x,1/2-z
1/2-x,1/2+y,1/2+z
1/2+x,1/2-y,1/2+z
1/2-y,1/2-x,1/2+z
1/2+y,1/2+x,1/2+z
loop_
_atom_site_type_symbol
_atom_site_label
_atom_site_fract_x
_atom_site_fract_y
_atom_site_fract_z
Si Si1 0.083779 0.083779 0.678670
Si Si2 0.000000 0.787658 0.170486
Si Si3 0.616680 0.180675 0.680989
Si Si4 0.000000 0.887916 0.832002
Si Si5 0.951961 0.389240 0.820842
Si Si6 0.770312 0.906885 0.681627
Si Si7 0.650003 0.349998 0.819242
O O1 0.086736 0.086736 0.500000
O O2 0.037859 0.095709 0.732082
O O3 0.116755 0.116755 0.751570
O O4 0.000000 0.837781 0.153144
O O5 0.044514 0.775449 0.254538
O O6 0.000000 0.766583 0.000000
O O7 0.621441 0.186116 0.500000
O O8 0.659107 0.159107 0.750000
O O9 0.575401 0.152303 0.725942
O O10 0.611688 0.225767 0.761976
O O11 0.000000 0.908911 0.000000
O O12 0.932080 0.432080 0.750000
O O13 0.000000 0.382780 0.757547
O O14 0.951953 0.395605 0.000000
O O15 0.772205 0.911046 0.500000
O O16 0.804447 0.870045 0.738491
O O17 0.651742 0.348259 0.000000
#
# Coordination Sequence:
#
# PCOD8319944 Si02
#       7
#    16  16  32  16  32  32  16
#     4  11  21  38  60  80 110 155 197 237 291 355
#     4  11  23  37  56  88 123 155 190 237 294 348
#     4  10  21  39  61  86 118 156 194 240 294 349
#     4  11  23  38  56  83 117 151 192 245 295 346
#     4   9  19  35  54  78 112 152 190 233 282 333
#     4  11  22  39  62  90 118 152 195 240 291 350
#     4   9  20  37  59  85 117 149 185 237 293 352
#
# _framework density 18.741046000000001
#
# number of rings (size 3 to 8) (size 9 to 14) (size 15 to 20)
#    0.000    1.800    2.000    2.100    1.400    2.400 
#    0.000    4.500    0.000    0.000    0.000    0.000 
#    0.000    0.000    0.000    0.000    0.000    0.000 
#
# Total GULP energy -991298.040425 kJ/mol
# GULP energy per Si atom -12391.225505 kJ/mol
# Density = 1.869839 g / cm^3
# Si number density = 18.741046 Si / 1000 Ang^3
#
#
#
# Elastic Constant Matrix: (Units=GPa)
#
#
# Indices 1 2 3 4 5 6 
#
# 1 152.6336 77.4665 42.1851 0.0000 0.0000 0.0000
# 2 77.4665 152.6336 42.1851 0.0000 0.0000 0.0000
# 3 42.1851 42.1851 70.1777 0.0000 0.0000 0.0000
# 4 0.0000 0.0000 0.0000 28.6974 0.0000 0.0000
# 5 0.0000 0.0000 0.0000 0.0000 28.6974 0.0000
# 6 0.0000 0.0000 0.0000 0.0000 0.0000 40.9846
#
#
#
# Elastic Compliance Matrix: (Units=1/GPa)
#
#
# Indices 1 2 3 4 5 6 
#
# 1 0.009439 -0.003865 -0.003351 0.000000 0.000000 0.000000
# 2 -0.003865 0.009439 -0.003351 0.000000 0.000000 0.000000
# 3 -0.003351 -0.003351 0.018278 0.000000 0.000000 0.000000
# 4 0.000000 0.000000 0.000000 0.034846 0.000000 0.000000
# 5 0.000000 0.000000 0.000000 0.000000 0.034846 0.000000
# 6 0.000000 0.000000 0.000000 0.000000 0.000000 0.024399
#
#
# Mechanical properties :
#
#
# Convention : Reuss Voigt Hill
#
# Bulk Modulus (GPa) = 62.40846 77.67982 70.04414
# Shear Modulus (GPa) = 31.70113 33.91641 32.80877
#
# Velocity S-wave (km/s) = 4.11729 4.25872 4.18860
# Velocity P-wave (km/s) = 7.48168 8.10686 7.80054
#
# Compressibility (1/GPa) = 0.01602347
#
# Stress axis : x y z
#
# Youngs Moduli (GPa) = 105.94151 105.94154 54.70980
#
# Poissons Ratio (x) = 0.40941 0.18333
# Poissons Ratio (y) = 0.40941 0.18333
# Poissons Ratio (z) = 0.35501 0.35501
#
# Static dielectric constant tensor:
#      x y z
#    x 3.642440 0.000000 0.000000 
#    y 0.000000 3.642440 0.000000 
#    z 0.000000 0.000000 3.555110 
# 
# 
# High freq. dielectric constant tensor:
#      x y z
#    x 1.733150 0.000000 0.000000 
#    y 0.000000 1.733150 0.000000 
#    z 0.000000 0.000000 1.729010 
# 
# From -- ./inp_files/2345.got.cif
#   From: 2010.03.12/outbox.cif.g09.slc.cpg/sg139_2_cif.got.tgz:2345.got - 2010.04.08 09:46:31.
