data_PCOD8319377
_publ_section_title
;
Structure prediction by ZEFSAII (Michael W. Deem and Ramdas Pophale) SiO2 
 PCOD8319377
Probable space group: I 4/M M M
;
_chemical_formula_sum "Si O2"
_cell_formula_units_Z 176
_cell_length_a 26.095774
_cell_length_b 26.095774
_cell_length_c 15.195698
_cell_angle_alpha 90.000000
_cell_angle_beta 90.000000
_cell_angle_gamma 90.000000
_cell_volume 10348.109578
_symmetry_space_group_name_H-M "I 4/M M M"
_symmetry_group_IT_number 139
_symmetry_cell_setting 'tetragonal'
loop_
_space_group_symop_operation_xyz
x,y,z
-y,x,z
-x,-y,z
y,-x,z
x,-y,-z
-x,y,-z
y,x,-z
-y,-x,-z
-x,-y,-z
y,-x,-z
x,y,-z
-y,x,-z
-x,y,z
x,-y,z
-y,-x,z
y,x,z
1/2+x,1/2+y,1/2+z
1/2-y,1/2+x,1/2+z
1/2-x,1/2-y,1/2+z
1/2+y,1/2-x,1/2+z
1/2+x,1/2-y,1/2-z
1/2-x,1/2+y,1/2-z
1/2+y,1/2+x,1/2-z
1/2-y,1/2-x,1/2-z
1/2-x,1/2-y,1/2-z
1/2+y,1/2-x,1/2-z
1/2+x,1/2+y,1/2-z
1/2-y,1/2+x,1/2-z
1/2-x,1/2+y,1/2+z
1/2+x,1/2-y,1/2+z
1/2-y,1/2-x,1/2+z
1/2+y,1/2+x,1/2+z
loop_
_atom_site_type_symbol
_atom_site_label
_atom_site_fract_x
_atom_site_fract_y
_atom_site_fract_z
Si Si1 0.800377 0.280092 0.149369
Si Si2 0.557029 0.771414 0.240347
Si Si3 0.853481 0.061119 0.000000
Si Si4 0.556407 0.845552 0.399693
Si Si5 0.196220 0.115525 0.161413
Si Si6 0.663526 0.113891 0.403233
O O1 0.745566 0.254435 0.124903
O O2 0.799314 0.299314 0.250000
O O3 0.844880 0.239486 0.128764
O O4 0.811716 0.329632 0.091162
O O5 0.500000 0.759261 0.210354
O O6 0.560582 0.796833 0.336534
O O7 0.586225 0.717458 0.251925
O O8 0.579737 0.808514 0.167671
O O9 0.819606 0.076102 0.084801
O O10 0.907215 0.092786 0.000000
O O11 0.864702 0.000000 0.000000
O O12 0.562222 0.825814 0.500000
O O13 0.500000 0.871864 0.386353
O O14 0.602911 0.884399 0.377920
O O15 0.146467 0.146467 0.193522
O O16 0.670001 0.089154 0.500000
#
# Coordination Sequence:
#
# PCOD8319377 Si02
#       6
#    32  32  16  32  32  32
#     4  10  18  30  49  71 100 131 163 207 259 308
#     4  11  21  33  51  73  99 135 172 213 264 306
#     4  10  22  37  54  80 112 144 181 223 267 319
#     4   9  18  31  49  72  95 123 166 217 263 307
#     4  10  20  33  50  75 105 134 167 212 260 305
#     4  11  21  33  48  69 102 135 174 213 251 314
#
# _framework density 17.007937999999999
#
# number of rings (size 3 to 8) (size 9 to 14) (size 15 to 20)
#    0.000    1.818    3.636    1.091    2.545    0.818 
#    0.000    0.000    0.000    0.545    0.000    5.091 
#    0.000    0.000    0.000    0.000    0.000    0.000 
#
# Total GULP energy -1090616.664245 kJ/mol
# GULP energy per Si atom -12393.371185 kJ/mol
# Density = 1.696923 g / cm^3
# Si number density = 17.007938 Si / 1000 Ang^3
#
#
#
# Elastic Constant Matrix: (Units=GPa)
#
#
# Indices 1 2 3 4 5 6 
#
# 1 97.0677 39.9235 42.2726 0.0000 0.0000 0.0000
# 2 39.9235 97.0672 42.2726 0.0000 0.0000 0.0000
# 3 42.2726 42.2726 68.7048 0.0000 0.0000 0.0000
# 4 0.0000 0.0000 0.0000 21.2868 0.0000 0.0000
# 5 0.0000 0.0000 0.0000 0.0000 21.2866 0.0000
# 6 0.0000 0.0000 0.0000 0.0000 0.0000 15.0006
#
#
#
# Elastic Compliance Matrix: (Units=1/GPa)
#
#
# Indices 1 2 3 4 5 6 
#
# 1 0.014634 -0.002866 -0.007241 0.000000 0.000000 0.000000
# 2 -0.002866 0.014634 -0.007241 0.000000 0.000000 0.000000
# 3 -0.007241 -0.007241 0.023465 0.000000 0.000000 0.000000
# 4 0.000000 0.000000 0.000000 0.046977 0.000000 0.000000
# 5 0.000000 0.000000 0.000000 0.000000 0.046978 0.000000
# 6 0.000000 0.000000 0.000000 0.000000 0.000000 0.066664
#
#
# Mechanical properties :
#
#
# Convention : Reuss Voigt Hill
#
# Bulk Modulus (GPa) = 55.43615 56.86412 56.15013
# Shear Modulus (GPa) = 19.68034 20.73954 20.20994
#
# Velocity S-wave (km/s) = 3.40535 3.49578 3.45086
# Velocity P-wave (km/s) = 6.93735 7.05694 6.99740
#
# Compressibility (1/GPa) = 0.01803877
#
# Stress axis : x y z
#
# Youngs Moduli (GPa) = 68.33361 68.33327 42.61586
#
# Poissons Ratio (x) = 0.19581 0.30858
# Poissons Ratio (y) = 0.19581 0.30858
# Poissons Ratio (z) = 0.49480 0.49480
#
# Static dielectric constant tensor:
#      x y z
#    x 3.291450 0.000000 0.000000 
#    y 0.000000 3.291450 0.000000 
#    z 0.000000 0.000000 3.091300 
# 
# 
# High freq. dielectric constant tensor:
#      x y z
#    x 1.645360 0.000000 0.000000 
#    y 0.000000 1.645360 0.000000 
#    z 0.000000 0.000000 1.644120 
# 
# From -- ./inp_files/6374.got.cif
#   From: 2010.03.12/outbox.cif.g09.slc.cpg/sg139_4_cif.got.tgz:6374.got - 2010.04.08 09:46:31.
