data_PCOD8319334
_publ_section_title
;
Structure prediction by ZEFSAII (Michael W. Deem and Ramdas Pophale) SiO2 
 PCOD8319334
Probable space group: I 4/M M M
;
_chemical_formula_sum "Si O2"
_cell_formula_units_Z 144
_cell_length_a 17.174255
_cell_length_b 17.174255
_cell_length_c 27.326446
_cell_angle_alpha 90.000000
_cell_angle_beta 90.000000
_cell_angle_gamma 90.000000
_cell_volume 8060.072831
_symmetry_space_group_name_H-M "I 4/M M M"
_symmetry_group_IT_number 139
_symmetry_cell_setting 'tetragonal'
loop_
_space_group_symop_operation_xyz
x,y,z
-y,x,z
-x,-y,z
y,-x,z
x,-y,-z
-x,y,-z
y,x,-z
-y,-x,-z
-x,-y,-z
y,-x,-z
x,y,-z
-y,x,-z
-x,y,z
x,-y,z
-y,-x,z
y,x,z
1/2+x,1/2+y,1/2+z
1/2-y,1/2+x,1/2+z
1/2-x,1/2-y,1/2+z
1/2+y,1/2-x,1/2+z
1/2+x,1/2-y,1/2-z
1/2-x,1/2+y,1/2-z
1/2+y,1/2+x,1/2-z
1/2-y,1/2-x,1/2-z
1/2-x,1/2-y,1/2-z
1/2+y,1/2-x,1/2-z
1/2+x,1/2+y,1/2-z
1/2-y,1/2+x,1/2-z
1/2-x,1/2+y,1/2+z
1/2+x,1/2-y,1/2+z
1/2-y,1/2-x,1/2+z
1/2+y,1/2+x,1/2+z
loop_
_atom_site_type_symbol
_atom_site_label
_atom_site_fract_x
_atom_site_fract_y
_atom_site_fract_z
Si Si1 0.168604 0.703894 0.411119
Si Si2 0.742936 0.868445 0.230602
Si Si3 0.585979 0.291341 0.167284
Si Si4 0.908845 0.224484 0.500000
Si Si5 0.781016 0.912391 0.873509
O O1 0.235616 0.764385 0.422035
O O2 0.129160 0.718263 0.358049
O O3 0.106008 0.717680 0.453947
O O4 0.211644 0.619964 0.408736
O O5 0.789587 0.789587 0.217995
O O6 0.656958 0.843043 0.250000
O O7 0.782657 0.916836 0.274243
O O8 0.744783 0.918518 0.181238
O O9 0.500000 0.298734 0.145868
O O10 0.629904 0.370097 0.151882
O O11 0.853368 0.146633 0.500000
O O12 0.000000 0.198736 0.500000
O O13 0.858559 0.858559 0.875763
O O14 0.802863 0.000000 0.890402
#
# Coordination Sequence:
#
# PCOD8319334 Si02
#       5
#    32  32  32  16  32
#     4   9  18  33  51  72  98 133 174 205 238 294
#     4   9  15  27  46  69  96 129 170 207 242 290
#     4  10  18  28  45  69  98 131 165 202 244 290
#     4  10  20  35  57  83 108 134 166 206 250 294
#     4  10  19  32  52  77 103 131 166 210 258 306
#
# _framework density 17.865845
#
# number of rings (size 3 to 8) (size 9 to 14) (size 15 to 20)
#    0.000    2.444    2.222    1.333    0.000    0.556 
#    0.000    0.556    0.000   11.333    0.000    1.556 
#    0.000    4.444    0.000    0.000    0.000    0.000 
#
# Total GULP energy -891939.461946 kJ/mol
# GULP energy per Si atom -12388.048083 kJ/mol
# Density = 1.782518 g / cm^3
# Si number density = 17.865845 Si / 1000 Ang^3
#
#
#
# Elastic Constant Matrix: (Units=GPa)
#
#
# Indices 1 2 3 4 5 6 
#
# 1 85.5713 63.1590 20.3597 0.0000 0.0000 0.0000
# 2 63.1590 85.5706 20.3596 0.0000 0.0000 0.0000
# 3 20.3597 20.3596 68.6307 0.0000 0.0000 0.0000
# 4 0.0000 0.0000 0.0000 15.5355 0.0000 0.0000
# 5 0.0000 0.0000 0.0000 0.0000 15.5355 0.0000
# 6 0.0000 0.0000 0.0000 0.0000 0.0000 14.3313
#
#
#
# Elastic Compliance Matrix: (Units=1/GPa)
#
#
# Indices 1 2 3 4 5 6 
#
# 1 0.025968 -0.018651 -0.002171 0.000000 0.000000 0.000000
# 2 -0.018651 0.025969 -0.002171 0.000000 0.000000 0.000000
# 3 -0.002171 -0.002171 0.015859 0.000000 0.000000 0.000000
# 4 0.000000 0.000000 0.000000 0.064369 0.000000 0.000000
# 5 0.000000 0.000000 0.000000 0.000000 0.064369 0.000000
# 6 0.000000 0.000000 0.000000 0.000000 0.000000 0.069778
#
#
# Mechanical properties :
#
#
# Convention : Reuss Voigt Hill
#
# Bulk Modulus (GPa) = 45.84837 49.72547 47.78692
# Shear Modulus (GPa) = 15.64623 18.14007 16.89315
#
# Velocity S-wave (km/s) = 2.96254 3.18991 3.07832
# Velocity P-wave (km/s) = 6.11723 6.43898 6.28017
#
# Compressibility (1/GPa) = 0.02181103
#
# Stress axis : x y z
#
# Youngs Moduli (GPa) = 38.50829 38.50799 63.05664
#
# Poissons Ratio (x) = 0.71820 0.13689
# Poissons Ratio (y) = 0.71820 0.13689
# Poissons Ratio (z) = 0.08360 0.08360
#
# Static dielectric constant tensor:
#      x y z
#    x 3.121690 0.000000 0.000000 
#    y 0.000000 3.121700 0.000000 
#    z 0.000000 0.000000 3.413380 
# 
# 
# High freq. dielectric constant tensor:
#      x y z
#    x 1.664440 0.000000 0.000000 
#    y 0.000000 1.664440 0.000000 
#    z 0.000000 0.000000 1.688350 
# 
# From -- ./inp_files/12805.got.cif
#   From: 2010.03.12/outbox.cif.g09.slc.cpg/sg139_7_cif.got.tgz:12805.got - 2010.04.08 09:46:31.
