data_PCOD8319028
_publ_section_title
;
Structure prediction by ZEFSAII (Michael W. Deem and Ramdas Pophale) SiO2 
 PCOD8319028
Probable space group: P 42/N C M
;
_chemical_formula_sum "Si O2"
_cell_formula_units_Z 72
_cell_length_a 14.025822
_cell_length_b 14.025822
_cell_length_c 20.382893
_cell_angle_alpha 90.000000
_cell_angle_beta 90.000000
_cell_angle_gamma 90.000000
_cell_volume 4009.797777
_symmetry_space_group_name_H-M "P 42/N C M"
_symmetry_group_IT_number 138
_space_group.IT_coordinate_system_code '2'
_symmetry_cell_setting 'tetragonal'
loop_
_space_group_symop_operation_xyz
x,y,z
1/2-y,x,1/2+z
1/2-x,1/2-y,z
y,1/2-x,1/2+z
1/2+x,-y,1/2-z
-x,1/2+y,1/2-z
1/2+y,1/2+x,-z
-y,-x,-z
-x,-y,-z
1/2+y,-x,1/2-z
1/2+x,1/2+y,-z
-y,1/2+x,1/2-z
1/2-x,y,1/2+z
x,1/2-y,1/2+z
1/2-y,1/2-x,z
y,x,z
loop_
_atom_site_type_symbol
_atom_site_label
_atom_site_fract_x
_atom_site_fract_y
_atom_site_fract_z
Si Si1 0.539578 0.111939 0.697210
Si Si2 0.632158 0.132158 0.500000
Si Si3 0.015525 0.335421 0.387255
Si Si4 0.128350 0.525427 0.850804
Si Si5 0.235771 0.859113 0.616567
O O1 0.543911 0.133408 0.773642
O O2 0.560762 0.211270 0.660585
O O3 0.436616 0.063385 0.678733
O O4 0.623021 0.039035 0.676355
O O5 0.540655 0.133254 0.452787
O O6 0.727749 0.132554 0.457384
O O7 0.121472 0.378529 0.391971
O O8 0.025568 0.223023 0.377795
O O9 0.114768 0.625521 0.886628
O O10 0.039867 0.460134 0.870507
O O11 0.250000 0.750000 0.643321
#
# Coordination Sequence:
#
# PCOD8319028 Si02
#       5
#    16   8  16  16  16
#     4   9  19  34  54  82 110 138 182 227 272 330
#     4  10  20  36  54  84 107 135 190 232 264 322
#     4  10  20  36  57  79 109 147 183 226 277 328
#     4  11  22  34  52  83 114 142 178 227 281 330
#     4  11  20  33  59  80 111 140 184 227 279 321
#
# _framework density 17.956019000000001
#
# number of rings (size 3 to 8) (size 9 to 14) (size 15 to 20)
#    0.000    1.778    4.444    2.000    0.000    1.333 
#    0.000    2.222    0.000    2.000    0.000    0.000 
#    0.000    0.000    0.000    0.000    0.000    0.000 
#
# Total GULP energy -892569.757574 kJ/mol
# GULP energy per Si atom -12396.802189 kJ/mol
# Density = 1.791515 g / cm^3
# Si number density = 17.956019 Si / 1000 Ang^3
#
#
#
# Elastic Constant Matrix: (Units=GPa)
#
#
# Indices 1 2 3 4 5 6 
#
# 1 113.3271 75.8467 38.1105 0.0000 0.0000 0.0000
# 2 75.8467 113.3271 38.1105 0.0000 0.0000 0.0000
# 3 38.1105 38.1105 80.7767 0.0000 0.0000 0.0000
# 4 0.0000 0.0000 0.0000 16.9040 0.0000 0.0000
# 5 0.0000 0.0000 0.0000 0.0000 16.9040 0.0000
# 6 0.0000 0.0000 0.0000 0.0000 0.0000 35.0401
#
#
#
# Elastic Compliance Matrix: (Units=1/GPa)
#
#
# Indices 1 2 3 4 5 6 
#
# 1 0.016604 -0.010077 -0.003079 0.000000 0.000000 0.000000
# 2 -0.010077 0.016604 -0.003079 0.000000 0.000000 0.000000
# 3 -0.003079 -0.003079 0.015286 0.000000 0.000000 0.000000
# 4 0.000000 0.000000 0.000000 0.059158 0.000000 0.000000
# 5 0.000000 0.000000 0.000000 0.000000 0.059158 0.000000
# 6 0.000000 0.000000 0.000000 0.000000 0.000000 0.028539
#
#
# Mechanical properties :
#
#
# Convention : Reuss Voigt Hill
#
# Bulk Modulus (GPa) = 62.41522 67.95183 65.18353
# Shear Modulus (GPa) = 21.44462 24.12717 22.78589
#
# Velocity S-wave (km/s) = 3.45959 3.66960 3.56614
# Velocity P-wave (km/s) = 7.12698 7.47531 7.30322
#
# Compressibility (1/GPa) = 0.01602173
#
# Stress axis : x y z
#
# Youngs Moduli (GPa) = 60.22736 60.22736 65.42135
#
# Poissons Ratio (x) = 0.60690 0.20146
# Poissons Ratio (y) = 0.60690 0.20146
# Poissons Ratio (z) = 0.18546 0.18546
#
# Static dielectric constant tensor:
#      x y z
#    x 3.367490 0.000000 0.000000 
#    y 0.000000 3.367490 0.000000 
#    z 0.000000 0.000000 3.332230 
# 
# 
# High freq. dielectric constant tensor:
#      x y z
#    x 1.686380 0.000000 0.000000 
#    y 0.000000 1.686380 0.000000 
#    z 0.000000 0.000000 1.695860 
# 
# From -- ./inp_files/5023.got.cif
#   From: 2010.03.12/outbox.cif.g09.slc.cpg/sg138_3_cif.got.tgz:5023.got - 2010.04.08 09:41:05.
