data_PCOD8319124
_publ_section_title
;
Structure prediction by ZEFSAII (Michael W. Deem and Ramdas Pophale) SiO2 
 PCOD8319124
Probable space group: P 42/N C M
;
_chemical_formula_sum "Si O2"
_cell_formula_units_Z 64
_cell_length_a 12.639643
_cell_length_b 12.639643
_cell_length_c 18.543595
_cell_angle_alpha 90.000000
_cell_angle_beta 90.000000
_cell_angle_gamma 90.000000
_cell_volume 2962.535403
_symmetry_space_group_name_H-M "P 42/N C M"
_symmetry_group_IT_number 138
_space_group.IT_coordinate_system_code '2'
_symmetry_cell_setting 'tetragonal'
loop_
_space_group_symop_operation_xyz
x,y,z
1/2-y,x,1/2+z
1/2-x,1/2-y,z
y,1/2-x,1/2+z
1/2+x,-y,1/2-z
-x,1/2+y,1/2-z
1/2+y,1/2+x,-z
-y,-x,-z
-x,-y,-z
1/2+y,-x,1/2-z
1/2+x,1/2+y,-z
-y,1/2+x,1/2-z
1/2-x,y,1/2+z
x,1/2-y,1/2+z
1/2-y,1/2-x,z
y,x,z
loop_
_atom_site_type_symbol
_atom_site_label
_atom_site_fract_x
_atom_site_fract_y
_atom_site_fract_z
Si Si1 0.946347 0.120133 0.735243
Si Si2 0.247653 0.420078 0.634630
Si Si3 0.373178 0.748010 0.636539
Si Si4 0.830252 0.503660 0.509791
O O1 0.889995 0.152706 0.809706
O O2 0.859389 0.093884 0.675599
O O3 0.015672 0.218234 0.705453
O O4 0.017570 0.017570 0.749863
O O5 0.137004 0.362997 0.653646
O O6 0.336348 0.336348 0.612798
O O7 0.235069 0.494725 0.564726
O O8 0.250000 0.750000 0.611666
O O9 0.456203 0.754574 0.571125
O O10 0.926955 0.426955 0.500000
O O11 0.879102 0.620899 0.528396
#
# Coordination Sequence:
#
# PCOD8319124 Si02
#       4
#    16  16  16  16
#     4  11  23  39  62  88 119 162 205 247 304 364
#     4   9  20  40  62  87 121 157 197 246 299 357
#     4  12  23  41  58  89 125 158 197 254 306 351
#     4  10  22  38  62  90 118 159 201 243 296 360
#
# _framework density 21.603119
#
# number of rings (size 3 to 8) (size 9 to 14) (size 15 to 20)
#    0.000    1.500    2.500    2.250    0.000    5.500 
#    0.000    2.500    0.000    7.500    0.000    0.000 
#    0.000    0.000    0.000    0.000    0.000    0.000 
#
# Total GULP energy -793679.420708 kJ/mol
# GULP energy per Si atom -12401.240949 kJ/mol
# Density = 2.155395 g / cm^3
# Si number density = 21.603119 Si / 1000 Ang^3
#
#
#
# Elastic Constant Matrix: (Units=GPa)
#
#
# Indices 1 2 3 4 5 6 
#
# 1 49.7480 28.6232 13.3118 0.0000 0.0000 0.0000
# 2 28.6232 49.7480 13.3118 0.0000 0.0000 0.0000
# 3 13.3118 13.3118 72.1612 0.0000 0.0000 0.0000
# 4 0.0000 0.0000 0.0000 35.3811 0.0000 0.0000
# 5 0.0000 0.0000 0.0000 0.0000 35.3811 0.0000
# 6 0.0000 0.0000 0.0000 0.0000 0.0000 32.6746
#
#
#
# Elastic Compliance Matrix: (Units=1/GPa)
#
#
# Indices 1 2 3 4 5 6 
#
# 1 0.030475 -0.016862 -0.002511 0.000000 0.000000 0.000000
# 2 -0.016862 0.030475 -0.002511 0.000000 0.000000 0.000000
# 3 -0.002511 -0.002511 0.014784 0.000000 0.000000 0.000000
# 4 0.000000 0.000000 0.000000 0.028264 0.000000 0.000000
# 5 0.000000 0.000000 0.000000 0.000000 0.028264 0.000000
# 6 0.000000 0.000000 0.000000 0.000000 0.000000 0.030605
#
#
# Mechanical properties :
#
#
# Convention : Reuss Voigt Hill
#
# Bulk Modulus (GPa) = 31.28395 31.35009 31.31702
# Shear Modulus (GPa) = 23.01053 28.44809 25.72931
#
# Velocity S-wave (km/s) = 3.26720 3.63278 3.45483
# Velocity P-wave (km/s) = 5.36148 5.66917 5.51747
#
# Compressibility (1/GPa) = 0.03196528
#
# Stress axis : x y z
#
# Youngs Moduli (GPa) = 32.81346 32.81346 67.63905
#
# Poissons Ratio (x) = 0.55332 0.16986
# Poissons Ratio (y) = 0.55332 0.16986
# Poissons Ratio (z) = 0.08240 0.08240
#
# Static dielectric constant tensor:
#      x y z
#    x 3.962010 0.000000 0.000000 
#    y 0.000000 3.962010 0.000000 
#    z 0.000000 0.000000 3.826070 
# 
# 
# High freq. dielectric constant tensor:
#      x y z
#    x 1.852600 0.000000 0.000000 
#    y 0.000000 1.852600 0.000000 
#    z 0.000000 0.000000 1.839200 
# 
# From -- ./inp_files/5828.got.cif
#   From: 2010.03.12/outbox.cif.g09.slc.cpg/sg138_3_cif.got.tgz:5828.got - 2010.04.08 09:41:05.
