data_PCOD8319198
_publ_section_title
;
Structure prediction by ZEFSAII (Michael W. Deem and Ramdas Pophale) SiO2 
 PCOD8319198
Probable space group: P 42/N C M
;
_chemical_formula_sum "Si O2"
_cell_formula_units_Z 96
_cell_length_a 24.121021
_cell_length_b 24.121021
_cell_length_c 9.042874
_cell_angle_alpha 90.000000
_cell_angle_beta 90.000000
_cell_angle_gamma 90.000000
_cell_volume 5261.357994
_symmetry_space_group_name_H-M "P 42/N C M"
_symmetry_group_IT_number 138
_space_group.IT_coordinate_system_code '2'
_symmetry_cell_setting 'tetragonal'
loop_
_space_group_symop_operation_xyz
x,y,z
1/2-y,x,1/2+z
1/2-x,1/2-y,z
y,1/2-x,1/2+z
1/2+x,-y,1/2-z
-x,1/2+y,1/2-z
1/2+y,1/2+x,-z
-y,-x,-z
-x,-y,-z
1/2+y,-x,1/2-z
1/2+x,1/2+y,-z
-y,1/2+x,1/2-z
1/2-x,y,1/2+z
x,1/2-y,1/2+z
1/2-y,1/2-x,z
y,x,z
loop_
_atom_site_type_symbol
_atom_site_label
_atom_site_fract_x
_atom_site_fract_y
_atom_site_fract_z
Si Si1 0.020943 0.689828 0.593396
Si Si2 0.166475 0.631092 0.848319
Si Si3 0.141681 0.788752 0.104344
Si Si4 0.200910 0.989193 0.233498
Si Si5 0.487345 0.921473 0.781994
Si Si6 0.992553 0.597066 0.116611
O O1 0.081444 0.706833 0.530888
O O2 0.000854 0.736104 0.711655
O O3 0.989738 0.694666 0.436052
O O4 0.016293 0.628217 0.662251
O O5 0.226092 0.659671 0.869197
O O6 0.132618 0.674298 0.749922
O O7 0.177557 0.572190 0.772929
O O8 0.130148 0.630148 0.000000
O O9 0.188806 0.811195 0.000000
O O10 0.157088 0.026269 0.324022
O O11 0.534877 0.965124 0.730851
O O12 0.427549 0.951766 0.801791
O O13 0.502001 0.896768 0.941166
O O14 0.944689 0.555312 0.159282
#
# Coordination Sequence:
#
# PCOD8319198 Si02
#       6
#    16  16  16  16  16  16
#     4  11  23  36  53  74 102 135 173 214 261 315
#     4  11  24  33  50  65  88 125 165 218 266 310
#     4  11  22  37  46  66  88 121 170 215 264 308
#     4  11  23  36  53  75 100 137 171 214 261 315
#     4   9  19  35  57  81 107 137 171 216 266 317
#     4   9  19  35  56  82 107 137 172 213 267 319
#
# _framework density 18.246238999999999
#
# number of rings (size 3 to 8) (size 9 to 14) (size 15 to 20)
#    0.000    1.667    1.667    4.000   11.667    2.667 
#    0.000    1.667    0.000    0.000    0.000    0.000 
#    0.000    0.667    0.000    7.000    0.000    3.000 
#
# Total GULP energy -1189427.414684 kJ/mol
# GULP energy per Si atom -12389.868903 kJ/mol
# Density = 1.820471 g / cm^3
# Si number density = 18.246239 Si / 1000 Ang^3
#
#
#
# Elastic Constant Matrix: (Units=GPa)
#
#
# Indices 1 2 3 4 5 6 
#
# 1 51.3804 4.4958 18.1068 0.0000 0.0000 0.0000
# 2 4.4958 51.3806 18.1078 0.0000 0.0000 0.0000
# 3 18.1068 18.1078 88.6555 0.0000 0.0000 0.0000
# 4 0.0000 0.0000 0.0000 23.7711 0.0000 0.0000
# 5 0.0000 0.0000 0.0000 0.0000 23.7711 0.0000
# 6 0.0000 0.0000 0.0000 0.0000 0.0000 11.7900
#
#
#
# Elastic Compliance Matrix: (Units=1/GPa)
#
#
# Indices 1 2 3 4 5 6 
#
# 1 0.020978 -0.000351 -0.004213 0.000000 0.000000 0.000000
# 2 -0.000351 0.020978 -0.004213 0.000000 0.000000 0.000000
# 3 -0.004213 -0.004213 0.013001 0.000000 0.000000 0.000000
# 4 0.000000 0.000000 0.000000 0.042068 0.000000 0.000000
# 5 0.000000 0.000000 0.000000 0.000000 0.042068 0.000000
# 6 0.000000 0.000000 0.000000 0.000000 0.000000 0.084818
#
#
# Mechanical properties :
#
#
# Convention : Reuss Voigt Hill
#
# Bulk Modulus (GPa) = 26.73578 30.31525 28.52551
# Shear Modulus (GPa) = 19.69037 21.91353 20.80195
#
# Velocity S-wave (km/s) = 3.28860 3.46929 3.38015
# Velocity P-wave (km/s) = 5.39485 5.71826 5.55891
#
# Compressibility (1/GPa) = 0.03740307
#
# Stress axis : x y z
#
# Youngs Moduli (GPa) = 47.66895 47.66876 76.91975
#
# Poissons Ratio (x) = 0.01673 0.32405
# Poissons Ratio (y) = 0.01673 0.32407
# Poissons Ratio (z) = 0.20082 0.20083
#
# Static dielectric constant tensor:
#      x y z
#    x 3.402390 0.000000 0.000000 
#    y 0.000000 3.402430 0.000000 
#    z 0.000000 0.000000 3.493980 
# 
# 
# High freq. dielectric constant tensor:
#      x y z
#    x 1.680200 0.000000 0.000000 
#    y 0.000000 1.680200 0.000000 
#    z 0.000000 0.000000 1.718220 
# 
# From -- ./inp_files/1730.got.cif
#   From: 2010.03.12/outbox.cif.g09.slc.cpg/sg138_1_cif.got.tgz:1730.got - 2010.04.08 09:41:05.
