data_PCOD8319290
_publ_section_title
;
Structure prediction by ZEFSAII (Michael W. Deem and Ramdas Pophale) SiO2 
 PCOD8319290
Probable space group: I 4/M M M
;
_chemical_formula_sum "Si O2"
_cell_formula_units_Z 144
_cell_length_a 21.499028
_cell_length_b 21.499028
_cell_length_c 19.554339
_cell_angle_alpha 90.000000
_cell_angle_beta 90.000000
_cell_angle_gamma 90.000000
_cell_volume 9038.175928
_symmetry_space_group_name_H-M "I 4/M M M"
_symmetry_group_IT_number 139
_symmetry_cell_setting 'tetragonal'
loop_
_space_group_symop_operation_xyz
x,y,z
-y,x,z
-x,-y,z
y,-x,z
x,-y,-z
-x,y,-z
y,x,-z
-y,-x,-z
-x,-y,-z
y,-x,-z
x,y,-z
-y,x,-z
-x,y,z
x,-y,z
-y,-x,z
y,x,z
1/2+x,1/2+y,1/2+z
1/2-y,1/2+x,1/2+z
1/2-x,1/2-y,1/2+z
1/2+y,1/2-x,1/2+z
1/2+x,1/2-y,1/2-z
1/2-x,1/2+y,1/2-z
1/2+y,1/2+x,1/2-z
1/2-y,1/2-x,1/2-z
1/2-x,1/2-y,1/2-z
1/2+y,1/2-x,1/2-z
1/2+x,1/2+y,1/2-z
1/2-y,1/2+x,1/2-z
1/2-x,1/2+y,1/2+z
1/2+x,1/2-y,1/2+z
1/2-y,1/2-x,1/2+z
1/2+y,1/2+x,1/2+z
loop_
_atom_site_type_symbol
_atom_site_label
_atom_site_fract_x
_atom_site_fract_y
_atom_site_fract_z
Si Si1 0.570838 0.148416 0.194159
Si Si2 0.428926 0.254946 0.631821
Si Si3 0.746753 0.650904 0.763410
Si Si4 0.170368 0.927254 0.000000
Si Si5 0.883234 0.570715 0.578379
O O1 0.500000 0.156171 0.219409
O O2 0.607319 0.107319 0.250000
O O3 0.601676 0.217560 0.187332
O O4 0.570502 0.115264 0.120320
O O5 0.500000 0.272629 0.649992
O O6 0.384309 0.272049 0.694045
O O7 0.404903 0.292368 0.566357
O O8 0.423585 0.182725 0.614757
O O9 0.682957 0.682957 0.793481
O O10 0.793788 0.706213 0.750000
O O11 0.102613 0.897388 0.000000
O O12 0.161018 0.000000 0.000000
O O13 0.879767 0.593331 0.500000
O O14 0.907787 0.500000 0.581476
#
# Coordination Sequence:
#
# PCOD8319290 Si02
#       5
#    32  32  32  16  32
#     4  11  21  33  50  71  96 126 161 199 242 286
#     4  10  17  30  48  67  93 123 160 201 237 280
#     4  10  19  30  46  67  92 120 156 201 242 276
#     4  10  20  31  48  70  93 127 165 201 244 288
#     4  10  19  32  48  68  98 130 158 196 236 275
#
# _framework density 15.932418
#
# number of rings (size 3 to 8) (size 9 to 14) (size 15 to 20)
#    0.000    1.778    5.556    2.000    0.000    2.111 
#    0.000    1.111    0.000    0.000    0.000    0.000 
#    0.000    4.000    0.000    0.000    0.000    0.000 
#
# Total GULP energy -892324.216161 kJ/mol
# GULP energy per Si atom -12393.391891 kJ/mol
# Density = 1.589616 g / cm^3
# Si number density = 15.932418 Si / 1000 Ang^3
#
#
#
# Elastic Constant Matrix: (Units=GPa)
#
#
# Indices 1 2 3 4 5 6 
#
# 1 40.5314 74.9311 24.8138 0.0000 0.0000 0.0000
# 2 74.9311 40.5140 24.8013 0.0000 0.0000 0.0000
# 3 24.8138 24.8013 54.4870 0.0000 0.0000 0.0000
# 4 0.0000 0.0000 0.0000 26.1228 0.0000 0.0000
# 5 0.0000 0.0000 0.0000 0.0000 26.1192 0.0000
# 6 0.0000 0.0000 0.0000 0.0000 0.0000 23.2065
#
#
#
# Elastic Compliance Matrix: (Units=1/GPa)
#
#
# Indices 1 2 3 4 5 6 
#
# 1 -0.009146 0.019916 -0.004900 0.000000 0.000000 0.000000
# 2 0.019916 -0.009148 -0.004906 0.000000 0.000000 0.000000
# 3 -0.004900 -0.004906 0.022817 0.000000 0.000000 0.000000
# 4 0.000000 0.000000 0.000000 0.038281 0.000000 0.000000
# 5 0.000000 0.000000 0.000000 0.000000 0.038286 0.000000
# 6 0.000000 0.000000 0.000000 0.000000 0.000000 0.043091
#
#
# Mechanical properties :
#
#
# Convention : Reuss Voigt Hill
#
# Bulk Modulus (GPa) = 40.41532 42.73609 41.57570
# Shear Modulus (GPa) = 44.55971 15.82211 30.19091
#
# Velocity S-wave (km/s) = 5.29421 3.15473 4.35781
# Velocity P-wave (km/s) = 7.92423 6.33651 7.17442
#
# Compressibility (1/GPa) = 0.02474309
#
# Stress axis : x y z
#
# Youngs Moduli (GPa) = -109.33484 -109.31273 43.82620
#
# Poissons Ratio (x) = 2.17702 0.21474
# Poissons Ratio (y) = 2.17746 0.21500
# Poissons Ratio (z) = -0.53572 -0.53625
#
# Static dielectric constant tensor:
#      x y z
#    x 3.160380 0.000000 0.000000 
#    y 0.000000 3.160370 0.000000 
#    z 0.000000 0.000000 3.161010 
# 
# 
# High freq. dielectric constant tensor:
#      x y z
#    x 1.601040 0.000000 0.000000 
#    y 0.000000 1.601040 0.000000 
#    z 0.000000 0.000000 1.597510 
# 
# From -- ./inp_files/10221.got.cif
#   From: 2010.03.12/outbox.cif.g09.slc.cpg/sg139_6_cif.got.tgz:10221.got - 2010.04.08 09:46:31.
