data_PCOD8319545
_publ_section_title
;
Structure prediction by ZEFSAII (Michael W. Deem and Ramdas Pophale) SiO2 
 PCOD8319545
Probable space group: I 4/M M M
;
_chemical_formula_sum "Si O2"
_cell_formula_units_Z 160
_cell_length_a 21.976047
_cell_length_b 21.976047
_cell_length_c 17.930984
_cell_angle_alpha 90.000000
_cell_angle_beta 90.000000
_cell_angle_gamma 90.000000
_cell_volume 8659.708506
_symmetry_space_group_name_H-M "I 4/M M M"
_symmetry_group_IT_number 139
_symmetry_cell_setting 'tetragonal'
loop_
_space_group_symop_operation_xyz
x,y,z
-y,x,z
-x,-y,z
y,-x,z
x,-y,-z
-x,y,-z
y,x,-z
-y,-x,-z
-x,-y,-z
y,-x,-z
x,y,-z
-y,x,-z
-x,y,z
x,-y,z
-y,-x,z
y,x,z
1/2+x,1/2+y,1/2+z
1/2-y,1/2+x,1/2+z
1/2-x,1/2-y,1/2+z
1/2+y,1/2-x,1/2+z
1/2+x,1/2-y,1/2-z
1/2-x,1/2+y,1/2-z
1/2+y,1/2+x,1/2-z
1/2-y,1/2-x,1/2-z
1/2-x,1/2-y,1/2-z
1/2+y,1/2-x,1/2-z
1/2+x,1/2+y,1/2-z
1/2-y,1/2+x,1/2-z
1/2-x,1/2+y,1/2+z
1/2+x,1/2-y,1/2+z
1/2-y,1/2-x,1/2+z
1/2+y,1/2+x,1/2+z
loop_
_atom_site_type_symbol
_atom_site_label
_atom_site_fract_x
_atom_site_fract_y
_atom_site_fract_z
Si Si1 0.163123 0.383600 0.323946
Si Si2 0.158706 0.500000 0.583779
Si Si3 0.196448 0.899631 0.196564
Si Si4 0.665820 0.431340 0.140040
Si Si5 0.803077 0.000000 0.082927
Si Si6 0.338627 0.759296 0.086637
O O1 0.122094 0.377907 0.250000
O O2 0.136897 0.439760 0.372125
O O3 0.231526 0.394899 0.297296
O O4 0.161608 0.322946 0.372112
O O5 0.130693 0.500000 0.500000
O O6 0.230801 0.500000 0.578094
O O7 0.167245 0.832756 0.187200
O O8 0.172366 0.931568 0.270921
O O9 0.175176 0.939909 0.126301
O O10 0.659236 0.500000 0.110744
O O11 0.605895 0.394105 0.115362
O O12 0.725171 0.401962 0.101946
O O13 0.831656 0.000000 0.000000
O O14 0.283222 0.716779 0.116179
O O15 0.330661 0.772946 0.000000
#
# Coordination Sequence:
#
# PCOD8319545 Si02
#       6
#    32  16  32  32  16  32
#     4  11  20  33  56  85 111 146 184 227 277 335
#     4   9  20  36  54  79 114 148 178 218 270 333
#     4  10  19  31  50  76 107 144 185 231 279 329
#     4  10  20  35  56  80 110 147 187 232 280 332
#     4   9  18  32  48  71 105 146 188 227 270 326
#     4  10  21  35  53  81 114 144 179 229 287 342
#
# _framework density 18.476372000000001
#
# number of rings (size 3 to 8) (size 9 to 14) (size 15 to 20)
#    0.000    2.000    3.000    1.200    0.000    2.600 
#    0.000    0.000    0.000    0.600    0.000    4.200 
#    0.000    0.000    0.000    0.000    0.000    0.000 
#
# Total GULP energy -992021.953214 kJ/mol
# GULP energy per Si atom -12400.274415 kJ/mol
# Density = 1.843432 g / cm^3
# Si number density = 18.476372 Si / 1000 Ang^3
#
#
#
# Elastic Constant Matrix: (Units=GPa)
#
#
# Indices 1 2 3 4 5 6 
#
# 1 102.7289 30.5335 30.7577 0.0000 0.0000 0.0000
# 2 30.5335 102.7285 30.7575 0.0000 0.0000 0.0000
# 3 30.7577 30.7575 98.2415 0.0000 0.0000 0.0000
# 4 0.0000 0.0000 0.0000 23.5515 0.0000 0.0000
# 5 0.0000 0.0000 0.0000 0.0000 23.5518 0.0000
# 6 0.0000 0.0000 0.0000 0.0000 0.0000 14.6217
#
#
#
# Elastic Compliance Matrix: (Units=1/GPa)
#
#
# Indices 1 2 3 4 5 6 
#
# 1 0.011312 -0.002540 -0.002746 0.000000 0.000000 0.000000
# 2 -0.002540 0.011312 -0.002746 0.000000 0.000000 0.000000
# 3 -0.002746 -0.002746 0.011899 0.000000 0.000000 0.000000
# 4 0.000000 0.000000 0.000000 0.042460 0.000000 0.000000
# 5 0.000000 0.000000 0.000000 0.000000 0.042460 0.000000
# 6 0.000000 0.000000 0.000000 0.000000 0.000000 0.068391
#
#
# Mechanical properties :
#
#
# Convention : Reuss Voigt Hill
#
# Bulk Modulus (GPa) = 54.18005 54.19958 54.18982
# Shear Modulus (GPa) = 23.80389 26.45502 25.12946
#
# Velocity S-wave (km/s) = 3.59324 3.78806 3.69194
# Velocity P-wave (km/s) = 6.82663 6.96640 6.89687
#
# Compressibility (1/GPa) = 0.01845698
#
# Stress axis : x y z
#
# Youngs Moduli (GPa) = 88.40555 88.40529 84.04350
#
# Poissons Ratio (x) = 0.22453 0.23081
# Poissons Ratio (y) = 0.22453 0.23080
# Poissons Ratio (z) = 0.24279 0.24278
#
# Static dielectric constant tensor:
#      x y z
#    x 3.286070 0.000000 0.000000 
#    y 0.000000 3.286070 0.000000 
#    z 0.000000 0.000000 3.601040 
# 
# 
# High freq. dielectric constant tensor:
#      x y z
#    x 1.698990 0.000000 0.000000 
#    y 0.000000 1.698990 0.000000 
#    z 0.000000 0.000000 1.728420 
# 
# From -- ./inp_files/8481.got.cif
#   From: 2010.03.12/outbox.cif.g09.slc.cpg/sg139_5_cif.got.tgz:8481.got - 2010.04.08 09:46:31.
