data_PCOD8319379
_publ_section_title
;
Structure prediction by ZEFSAII (Michael W. Deem and Ramdas Pophale) SiO2 
 PCOD8319379
Probable space group: I 4/M M M
;
_chemical_formula_sum "Si O2"
_cell_formula_units_Z 144
_cell_length_a 23.011505
_cell_length_b 23.011505
_cell_length_c 16.713986
_cell_angle_alpha 90.000000
_cell_angle_beta 90.000000
_cell_angle_gamma 90.000000
_cell_volume 8850.546349
_symmetry_space_group_name_H-M "I 4/M M M"
_symmetry_group_IT_number 139
_symmetry_cell_setting 'tetragonal'
loop_
_space_group_symop_operation_xyz
x,y,z
-y,x,z
-x,-y,z
y,-x,z
x,-y,-z
-x,y,-z
y,x,-z
-y,-x,-z
-x,-y,-z
y,-x,-z
x,y,-z
-y,x,-z
-x,y,z
x,-y,z
-y,-x,z
y,x,z
1/2+x,1/2+y,1/2+z
1/2-y,1/2+x,1/2+z
1/2-x,1/2-y,1/2+z
1/2+y,1/2-x,1/2+z
1/2+x,1/2-y,1/2-z
1/2-x,1/2+y,1/2-z
1/2+y,1/2+x,1/2-z
1/2-y,1/2-x,1/2-z
1/2-x,1/2-y,1/2-z
1/2+y,1/2-x,1/2-z
1/2+x,1/2+y,1/2-z
1/2-y,1/2+x,1/2-z
1/2-x,1/2+y,1/2+z
1/2+x,1/2-y,1/2+z
1/2-y,1/2-x,1/2+z
1/2+y,1/2+x,1/2+z
loop_
_atom_site_type_symbol
_atom_site_label
_atom_site_fract_x
_atom_site_fract_y
_atom_site_fract_z
Si Si1 0.861936 0.605776 0.593357
Si Si2 0.733292 0.733292 0.094010
Si Si3 0.000000 0.436379 0.095090
Si Si4 0.758168 0.930407 0.165750
Si Si5 0.669576 0.330425 0.594803
Si Si6 0.787010 0.639190 0.192869
O O1 0.868330 0.619164 0.500000
O O2 0.902516 0.555413 0.626177
O O3 0.795565 0.588179 0.609910
O O4 0.886842 0.659518 0.643261
O O5 0.781845 0.781845 0.117064
O O6 0.746060 0.669666 0.128290
O O7 0.728694 0.728694 0.000000
O O8 0.000000 0.500000 0.133354
O O9 0.000000 0.438647 0.000000
O O10 0.812740 0.892931 0.132911
O O11 0.745036 0.911896 0.257781
O O12 0.770356 0.000000 0.160922
O O13 0.662710 0.337291 0.500000
O O14 0.809534 0.690467 0.250000
#
# Coordination Sequence:
#
# PCOD8319379 Si02
#       6
#    32  16  16  32  16  32
#     4  10  18  30  49  71  98 137 182 223 260 303
#     4  11  18  30  54  82 106 133 168 215 271 324
#     4   9  18  30  44  62  88 130 182 228 258 285
#     4  11  22  35  53  76 109 142 177 218 270 329
#     4  11  21  33  55  84 107 135 178 224 274 324
#     4  10  19  30  47  72 107 135 164 210 264 312
#
# _framework density 16.270181999999998
#
# number of rings (size 3 to 8) (size 9 to 14) (size 15 to 20)
#    0.000    1.667    5.556    2.333    0.000    2.222 
#    0.000    0.000    0.000    2.333    0.000    0.778 
#    0.000    0.000    0.000    1.000    0.000    0.000 
#
# Total GULP energy -892407.145810 kJ/mol
# GULP energy per Si atom -12394.543692 kJ/mol
# Density = 1.623315 g / cm^3
# Si number density = 16.270182 Si / 1000 Ang^3
#
#
#
# Elastic Constant Matrix: (Units=GPa)
#
#
# Indices 1 2 3 4 5 6 
#
# 1 91.9367 51.1222 40.2019 0.0000 0.0000 0.0000
# 2 51.1222 91.9367 40.2026 0.0000 0.0000 0.0000
# 3 40.2019 40.2026 89.3919 0.0000 0.0000 0.0000
# 4 0.0000 0.0000 0.0000 6.3405 0.0000 0.0000
# 5 0.0000 0.0000 0.0000 0.0000 6.3264 0.0000
# 6 0.0000 0.0000 0.0000 0.0000 0.0000 24.0577
#
#
#
# Elastic Compliance Matrix: (Units=1/GPa)
#
#
# Indices 1 2 3 4 5 6 
#
# 1 0.016928 -0.007573 -0.004207 0.000000 0.000000 0.000000
# 2 -0.007573 0.016928 -0.004207 0.000000 0.000000 0.000000
# 3 -0.004207 -0.004207 0.014971 0.000000 0.000000 0.000000
# 4 0.000000 0.000000 0.000000 0.157717 0.000000 0.000000
# 5 0.000000 0.000000 0.000000 0.000000 0.158068 0.000000
# 6 0.000000 0.000000 0.000000 0.000000 0.000000 0.041567
#
#
# Mechanical properties :
#
#
# Convention : Reuss Voigt Hill
#
# Bulk Modulus (GPa) = 59.34075 59.59094 59.46585
# Shear Modulus (GPa) = 11.26708 16.79415 14.03061
#
# Velocity S-wave (km/s) = 2.63439 3.21628 2.93977
# Velocity P-wave (km/s) = 6.76791 7.10619 6.93911
#
# Compressibility (1/GPa) = 0.01685183
#
# Stress axis : x y z
#
# Youngs Moduli (GPa) = 59.07437 59.07387 66.79670
#
# Poissons Ratio (x) = 0.44738 0.28101
# Poissons Ratio (y) = 0.44738 0.28103
# Poissons Ratio (z) = 0.24852 0.24854
#
# Static dielectric constant tensor:
#      x y z
#    x 3.016610 0.000000 0.000000 
#    y 0.000000 3.016600 0.000000 
#    z 0.000000 0.000000 3.153600 
# 
# 
# High freq. dielectric constant tensor:
#      x y z
#    x 1.602630 0.000000 0.000000 
#    y 0.000000 1.602630 0.000000 
#    z 0.000000 0.000000 1.634350 
# 
# From -- ./inp_files/8277.got.cif
#   From: 2010.03.12/outbox.cif.g09.slc.cpg/sg139_5_cif.got.tgz:8277.got - 2010.04.08 09:46:31.
