data_PCOD8319067
_publ_section_title
;
Structure prediction by ZEFSAII (Michael W. Deem and Ramdas Pophale) SiO2 
 PCOD8319067
Probable space group: P 42/N C M
;
_chemical_formula_sum "Si O2"
_cell_formula_units_Z 72
_cell_length_a 11.258355
_cell_length_b 11.258355
_cell_length_c 27.428317
_cell_angle_alpha 90.000000
_cell_angle_beta 90.000000
_cell_angle_gamma 90.000000
_cell_volume 3476.554466
_symmetry_space_group_name_H-M "P 42/N C M"
_symmetry_group_IT_number 138
_space_group.IT_coordinate_system_code '2'
_symmetry_cell_setting 'tetragonal'
loop_
_space_group_symop_operation_xyz
x,y,z
1/2-y,x,1/2+z
1/2-x,1/2-y,z
y,1/2-x,1/2+z
1/2+x,-y,1/2-z
-x,1/2+y,1/2-z
1/2+y,1/2+x,-z
-y,-x,-z
-x,-y,-z
1/2+y,-x,1/2-z
1/2+x,1/2+y,-z
-y,1/2+x,1/2-z
1/2-x,y,1/2+z
x,1/2-y,1/2+z
1/2-y,1/2-x,z
y,x,z
loop_
_atom_site_type_symbol
_atom_site_label
_atom_site_fract_x
_atom_site_fract_y
_atom_site_fract_z
Si Si1 0.186784 0.505102 0.376540
Si Si2 0.657363 0.842638 0.284570
Si Si3 0.682463 0.015006 0.025926
Si Si4 0.566074 0.257027 0.268535
Si Si5 0.346996 0.153005 0.522364
Si Si6 0.063823 0.063823 0.117279
O O1 0.290493 0.523969 0.416406
O O2 0.242189 0.550628 0.326235
O O3 0.131173 0.368828 0.373730
O O4 0.076424 0.591039 0.390419
O O5 0.750000 0.750000 0.307049
O O6 0.564809 0.770706 0.252123
O O7 0.591371 0.908630 0.327437
O O8 0.581488 0.918513 0.016973
O O9 0.637534 0.137534 0.000000
O O10 0.805593 0.972243 0.000669
O O11 0.643276 0.374066 0.257113
O O12 0.250000 0.250000 0.509498
O O13 0.358938 0.141062 0.580374
#
# Coordination Sequence:
#
# PCOD8319067 Si02
#       6
#    16   8  16  16   8   8
#     4  10  21  41  67  93 130 174 224 280 336 408
#     4  12  25  41  69 100 136 184 236 279 358 417
#     4  10  22  40  63  97 133 170 225 277 334 406
#     4  11  24  45  69  98 141 178 225 299 344 410
#     4  10  20  41  66  88 130 172 206 278 339 388
#     4  10  22  42  64  93 132 167 233 273 337 416
#
# _framework density 20.710159000000001
#
# number of rings (size 3 to 8) (size 9 to 14) (size 15 to 20)
#    0.667    0.889    3.333    1.000    3.111    3.556 
#    0.000    3.333    0.000    0.000    0.000    0.000 
#    0.000    0.000    0.000    0.000    0.000    0.000 
#
# Total GULP energy -892337.414397 kJ/mol
# GULP energy per Si atom -12393.575200 kJ/mol
# Density = 2.066302 g / cm^3
# Si number density = 20.710159 Si / 1000 Ang^3
#
#
#
# Elastic Constant Matrix: (Units=GPa)
#
#
# Indices 1 2 3 4 5 6 
#
# 1 74.2396 45.9395 39.5272 0.0000 0.0000 0.0000
# 2 45.9395 74.2396 39.5272 0.0000 0.0000 0.0000
# 3 39.5272 39.5272 158.0950 0.0000 0.0000 0.0000
# 4 0.0000 0.0000 0.0000 38.0136 0.0000 0.0000
# 5 0.0000 0.0000 0.0000 0.0000 38.0136 0.0000
# 6 0.0000 0.0000 0.0000 0.0000 0.0000 25.3970
#
#
#
# Elastic Compliance Matrix: (Units=1/GPa)
#
#
# Indices 1 2 3 4 5 6 
#
# 1 0.022647 -0.012688 -0.002490 0.000000 0.000000 0.000000
# 2 -0.012688 0.022647 -0.002490 0.000000 0.000000 0.000000
# 3 -0.002490 -0.002490 0.007570 0.000000 0.000000 0.000000
# 4 0.000000 0.000000 0.000000 0.026306 0.000000 0.000000
# 5 0.000000 0.000000 0.000000 0.000000 0.026306 0.000000
# 6 0.000000 0.000000 0.000000 0.000000 0.000000 0.039375
#
#
# Mechanical properties :
#
#
# Convention : Reuss Voigt Hill
#
# Bulk Modulus (GPa) = 57.05059 61.84021 59.44540
# Shear Modulus (GPa) = 26.87721 32.39022 29.63372
#
# Velocity S-wave (km/s) = 3.60638 3.95901 3.78680
# Velocity P-wave (km/s) = 6.70435 7.12902 6.91994
#
# Compressibility (1/GPa) = 0.01752830
#
# Stress axis : x y z
#
# Youngs Moduli (GPa) = 44.15568 44.15568 132.09393
#
# Poissons Ratio (x) = 0.56026 0.32890
# Poissons Ratio (y) = 0.56026 0.32890
# Poissons Ratio (z) = 0.10994 0.10994
#
# Static dielectric constant tensor:
#      x y z
#    x 3.739050 0.000000 0.000000 
#    y 0.000000 3.739050 0.000000 
#    z 0.000000 0.000000 3.594200 
# 
# 
# High freq. dielectric constant tensor:
#      x y z
#    x 1.802330 0.000000 0.000000 
#    y 0.000000 1.802330 0.000000 
#    z 0.000000 0.000000 1.817010 
# 
# From -- ./inp_files/7455.got.cif
#   From: 2010.03.12/outbox.cif.g09.slc.cpg/sg138_4_cif.got.tgz:7455.got - 2010.04.08 09:41:05.
