data_PCOD8319355
_publ_section_title
;
Structure prediction by ZEFSAII (Michael W. Deem and Ramdas Pophale) SiO2 
 PCOD8319355
Probable space group: I 4/M M M
;
_chemical_formula_sum "Si O2"
_cell_formula_units_Z 104
_cell_length_a 16.286787
_cell_length_b 16.286787
_cell_length_c 23.703335
_cell_angle_alpha 90.000000
_cell_angle_beta 90.000000
_cell_angle_gamma 90.000000
_cell_volume 6287.533150
_symmetry_space_group_name_H-M "I 4/M M M"
_symmetry_group_IT_number 139
_symmetry_cell_setting 'tetragonal'
loop_
_space_group_symop_operation_xyz
x,y,z
-y,x,z
-x,-y,z
y,-x,z
x,-y,-z
-x,y,-z
y,x,-z
-y,-x,-z
-x,-y,-z
y,-x,-z
x,y,-z
-y,x,-z
-x,y,z
x,-y,z
-y,-x,z
y,x,z
1/2+x,1/2+y,1/2+z
1/2-y,1/2+x,1/2+z
1/2-x,1/2-y,1/2+z
1/2+y,1/2-x,1/2+z
1/2+x,1/2-y,1/2-z
1/2-x,1/2+y,1/2-z
1/2+y,1/2+x,1/2-z
1/2-y,1/2-x,1/2-z
1/2-x,1/2-y,1/2-z
1/2+y,1/2-x,1/2-z
1/2+x,1/2+y,1/2-z
1/2-y,1/2+x,1/2-z
1/2-x,1/2+y,1/2+z
1/2+x,1/2-y,1/2+z
1/2-y,1/2-x,1/2+z
1/2+y,1/2+x,1/2+z
loop_
_atom_site_type_symbol
_atom_site_label
_atom_site_fract_x
_atom_site_fract_y
_atom_site_fract_z
Si Si1 0.595181 0.271773 0.902551
Si Si2 0.685431 0.181656 0.000000
Si Si3 0.342575 0.000000 0.000000
Si Si4 0.594172 0.000000 0.122335
Si Si5 0.349234 0.095469 0.692795
O O1 0.500000 0.286620 0.917100
O O2 0.641789 0.358212 0.908443
O O3 0.605987 0.237584 0.838990
O O4 0.631584 0.204907 0.945541
O O5 0.709303 0.084820 0.000000
O O6 0.771809 0.228192 0.000000
O O7 0.398167 0.000000 0.055286
O O8 0.632030 0.918842 0.150997
O O9 0.500000 0.000000 0.137525
O O10 0.350998 0.149003 0.750000
O O11 0.364501 0.000000 0.708257
#
# Coordination Sequence:
#
# PCOD8319355 Si02
#       5
#    32  16   8  16  32
#     4  10  21  35  50  70  98 133 170 210 247 288
#     4  10  21  35  51  76 106 129 159 203 247 292
#     4  12  19  32  54  77 104 130 162 200 256 297
#     4  10  19  26  44  76 105 131 160 195 248 315
#     4  10  18  29  46  71 102 130 160 197 246 305
#
# _framework density 16.540668
#
# number of rings (size 3 to 8) (size 9 to 14) (size 15 to 20)
#    0.000    1.846    4.615    0.692    0.000    2.154 
#    0.000    0.000    0.000    3.000    0.000    0.000 
#    0.000    0.000    0.000    0.000    0.000    0.000 
#
# Total GULP energy -644531.443741 kJ/mol
# GULP energy per Si atom -12394.835457 kJ/mol
# Density = 1.650302 g / cm^3
# Si number density = 16.540668 Si / 1000 Ang^3
#
#
#
# Elastic Constant Matrix: (Units=GPa)
#
#
# Indices 1 2 3 4 5 6 
#
# 1 94.0322 47.1543 29.2051 0.0000 0.0000 0.0000
# 2 47.1543 94.0318 29.2053 0.0000 0.0000 0.0000
# 3 29.2051 29.2053 108.6856 0.0000 0.0000 0.0000
# 4 0.0000 0.0000 0.0000 19.9221 0.0000 0.0000
# 5 0.0000 0.0000 0.0000 0.0000 19.9210 0.0000
# 6 0.0000 0.0000 0.0000 0.0000 0.0000 15.5083
#
#
#
# Elastic Compliance Matrix: (Units=1/GPa)
#
#
# Indices 1 2 3 4 5 6 
#
# 1 0.014650 -0.006682 -0.002141 0.000000 0.000000 0.000000
# 2 -0.006682 0.014650 -0.002141 0.000000 0.000000 0.000000
# 3 -0.002141 -0.002141 0.010352 0.000000 0.000000 0.000000
# 4 0.000000 0.000000 0.000000 0.050195 0.000000 0.000000
# 5 0.000000 0.000000 0.000000 0.000000 0.050198 0.000000
# 6 0.000000 0.000000 0.000000 0.000000 0.000000 0.064482
#
#
# Mechanical properties :
#
#
# Convention : Reuss Voigt Hill
#
# Bulk Modulus (GPa) = 56.42104 56.43102 56.42603
# Shear Modulus (GPa) = 21.51794 23.81595 22.66694
#
# Velocity S-wave (km/s) = 3.61073 3.79864 3.70588
# Velocity P-wave (km/s) = 7.18106 7.30959 7.24561
#
# Compressibility (1/GPa) = 0.01772388
#
# Stress axis : x y z
#
# Youngs Moduli (GPa) = 68.25768 68.25726 96.60304
#
# Poissons Ratio (x) = 0.45607 0.20685
# Poissons Ratio (y) = 0.45608 0.20686
# Poissons Ratio (z) = 0.14616 0.14616
#
# Static dielectric constant tensor:
#      x y z
#    x 2.921950 0.000000 0.000000 
#    y 0.000000 2.921950 0.000000 
#    z 0.000000 0.000000 3.170600 
# 
# 
# High freq. dielectric constant tensor:
#      x y z
#    x 1.610690 0.000000 0.000000 
#    y 0.000000 1.610690 0.000000 
#    z 0.000000 0.000000 1.652370 
# 
# From -- ./inp_files/11093.got.cif
#   From: 2010.03.12/outbox.cif.g09.slc.cpg/sg139_6_cif.got.tgz:11093.got - 2010.04.08 09:46:31.
