data_PCOD8319887
_publ_section_title
;
Structure prediction by ZEFSAII (Michael W. Deem and Ramdas Pophale) SiO2 
 PCOD8319887
Probable space group: I 4/M M M
;
_chemical_formula_sum "Si O2"
_cell_formula_units_Z 120
_cell_length_a 19.154964
_cell_length_b 19.154964
_cell_length_c 22.304910
_cell_angle_alpha 90.000000
_cell_angle_beta 90.000000
_cell_angle_gamma 90.000000
_cell_volume 8183.953543
_symmetry_space_group_name_H-M "I 4/M M M"
_symmetry_group_IT_number 139
_symmetry_cell_setting 'tetragonal'
loop_
_space_group_symop_operation_xyz
x,y,z
-y,x,z
-x,-y,z
y,-x,z
x,-y,-z
-x,y,-z
y,x,-z
-y,-x,-z
-x,-y,-z
y,-x,-z
x,y,-z
-y,x,-z
-x,y,z
x,-y,z
-y,-x,z
y,x,z
1/2+x,1/2+y,1/2+z
1/2-y,1/2+x,1/2+z
1/2-x,1/2-y,1/2+z
1/2+y,1/2-x,1/2+z
1/2+x,1/2-y,1/2-z
1/2-x,1/2+y,1/2-z
1/2+y,1/2+x,1/2-z
1/2-y,1/2-x,1/2-z
1/2-x,1/2-y,1/2-z
1/2+y,1/2-x,1/2-z
1/2+x,1/2+y,1/2-z
1/2-y,1/2+x,1/2-z
1/2-x,1/2+y,1/2+z
1/2+x,1/2-y,1/2+z
1/2-y,1/2-x,1/2+z
1/2+y,1/2+x,1/2+z
loop_
_atom_site_type_symbol
_atom_site_label
_atom_site_fract_x
_atom_site_fract_y
_atom_site_fract_z
Si Si1 0.693537 0.420933 0.500000
Si Si2 0.811545 0.500000 0.000000
Si Si3 0.349764 0.238565 0.000000
Si Si4 0.656674 0.769521 0.400568
Si Si5 0.577538 0.000000 0.395059
Si Si6 0.080413 0.366330 0.812244
O O1 0.669566 0.500000 0.500000
O O2 0.624255 0.375745 0.500000
O O3 0.738864 0.405380 0.441077
O O4 0.759771 0.566360 0.000000
O O5 0.861997 0.500000 0.056628
O O6 0.325326 0.198677 0.940344
O O7 0.316773 0.316773 0.000000
O O8 0.708478 0.708478 0.378948
O O9 0.622408 0.802900 0.342039
O O10 0.585839 0.932715 0.354426
O O11 0.500000 0.000000 0.424992
O O12 0.117416 0.382585 0.750000
O O13 0.000000 0.344976 0.801525
#
# Coordination Sequence:
#
# PCOD8319887 Si02
#       6
#    16   8  16  32  16  32
#     4   9  17  30  47  67  91 118 150 191 235 270
#     4  12  17  32  52  67  90 122 148 198 222 267
#     4   9  18  30  46  68  89 112 146 186 230 269
#     4   9  18  32  46  64  90 118 153 188 221 267
#     4  10  21  30  42  70  97 121 156 185 220 269
#     4  11  20  31  45  64  94 126 152 183 223 266
#
# _framework density 14.662839
#
# number of rings (size 3 to 8) (size 9 to 14) (size 15 to 20)
#    0.000    2.133    4.000    2.600    0.000    0.667 
#    0.000    0.000    0.000    0.200    0.000    0.000 
#    0.000    0.000    0.000    0.000    0.000    0.000 
#
# Total GULP energy -743893.153933 kJ/mol
# GULP energy per Si atom -12398.219232 kJ/mol
# Density = 1.462947 g / cm^3
# Si number density = 14.662839 Si / 1000 Ang^3
#
#
#
# Elastic Constant Matrix: (Units=GPa)
#
#
# Indices 1 2 3 4 5 6 
#
# 1 97.0062 47.6940 47.8361 0.0000 0.0000 0.0000
# 2 47.6940 97.0086 47.8361 0.0000 0.0000 0.0000
# 3 47.8361 47.8361 93.7049 0.0000 0.0000 0.0000
# 4 0.0000 0.0000 0.0000 22.9578 0.0000 0.0000
# 5 0.0000 0.0000 0.0000 0.0000 22.9573 0.0000
# 6 0.0000 0.0000 0.0000 0.0000 0.0000 20.6046
#
#
#
# Elastic Compliance Matrix: (Units=1/GPa)
#
#
# Indices 1 2 3 4 5 6 
#
# 1 0.015355 -0.004923 -0.005326 0.000000 0.000000 0.000000
# 2 -0.004923 0.015355 -0.005325 0.000000 0.000000 0.000000
# 3 -0.005326 -0.005325 0.016109 0.000000 0.000000 0.000000
# 4 0.000000 0.000000 0.000000 0.043558 0.000000 0.000000
# 5 0.000000 0.000000 0.000000 0.000000 0.043559 0.000000
# 6 0.000000 0.000000 0.000000 0.000000 0.000000 0.048533
#
#
# Mechanical properties :
#
#
# Convention : Reuss Voigt Hill
#
# Bulk Modulus (GPa) = 63.81227 63.82804 63.82016
# Shear Modulus (GPa) = 22.84760 22.92750 22.88755
#
# Velocity S-wave (km/s) = 3.95168 3.95859 3.95514
# Velocity P-wave (km/s) = 8.02716 8.03236 8.02976
#
# Compressibility (1/GPa) = 0.01567097
#
# Stress axis : x y z
#
# Youngs Moduli (GPa) = 65.12375 65.12590 62.07702
#
# Poissons Ratio (x) = 0.32064 0.33059
# Poissons Ratio (y) = 0.32063 0.33058
# Poissons Ratio (z) = 0.34682 0.34681
#
# Static dielectric constant tensor:
#      x y z
#    x 2.842470 0.000000 0.000000 
#    y 0.000000 2.842420 0.000000 
#    z 0.000000 0.000000 2.778120 
# 
# 
# High freq. dielectric constant tensor:
#      x y z
#    x 1.553780 0.000000 0.000000 
#    y 0.000000 1.553780 0.000000 
#    z 0.000000 0.000000 1.554900 
# 
# From -- ./inp_files/9874.got.cif
#   From: 2010.03.12/outbox.cif.g09.slc.cpg/sg139_5_cif.got.tgz:9874.got - 2010.04.08 09:46:31.
