data_PCOD8319472
_publ_section_title
;
Structure prediction by ZEFSAII (Michael W. Deem and Ramdas Pophale) SiO2 
 PCOD8319472
Probable space group: I 4/M M M
;
_chemical_formula_sum "Si O2"
_cell_formula_units_Z 192
_cell_length_a 19.910060
_cell_length_b 19.910060
_cell_length_c 25.119094
_cell_angle_alpha 90.000000
_cell_angle_beta 90.000000
_cell_angle_gamma 90.000000
_cell_volume 9957.472341
_symmetry_space_group_name_H-M "I 4/M M M"
_symmetry_group_IT_number 139
_symmetry_cell_setting 'tetragonal'
loop_
_space_group_symop_operation_xyz
x,y,z
-y,x,z
-x,-y,z
y,-x,z
x,-y,-z
-x,y,-z
y,x,-z
-y,-x,-z
-x,-y,-z
y,-x,-z
x,y,-z
-y,x,-z
-x,y,z
x,-y,z
-y,-x,z
y,x,z
1/2+x,1/2+y,1/2+z
1/2-y,1/2+x,1/2+z
1/2-x,1/2-y,1/2+z
1/2+y,1/2-x,1/2+z
1/2+x,1/2-y,1/2-z
1/2-x,1/2+y,1/2-z
1/2+y,1/2+x,1/2-z
1/2-y,1/2-x,1/2-z
1/2-x,1/2-y,1/2-z
1/2+y,1/2-x,1/2-z
1/2+x,1/2+y,1/2-z
1/2-y,1/2+x,1/2-z
1/2-x,1/2+y,1/2+z
1/2+x,1/2-y,1/2+z
1/2-y,1/2-x,1/2+z
1/2+y,1/2+x,1/2+z
loop_
_atom_site_type_symbol
_atom_site_label
_atom_site_fract_x
_atom_site_fract_y
_atom_site_fract_z
Si Si1 0.077107 0.666065 0.904096
Si Si2 0.816452 0.075202 0.131198
Si Si3 0.646937 0.925998 0.787569
Si Si4 0.281265 0.385997 0.253276
Si Si5 0.686591 0.575784 0.136308
Si Si6 0.576600 0.807158 0.940553
O O1 0.093732 0.745045 0.896205
O O2 0.089148 0.628082 0.848041
O O3 0.129480 0.628076 0.941825
O O4 0.000000 0.657120 0.924330
O O5 0.871973 0.128028 0.110209
O O6 0.811899 0.075963 0.195319
O O7 0.837945 0.000000 0.114043
O O8 0.581545 0.918456 0.750000
O O9 0.702363 0.876830 0.762254
O O10 0.678085 0.000000 0.784082
O O11 0.311596 0.311596 0.248950
O O12 0.296329 0.425557 0.198909
O O13 0.666736 0.500000 0.119407
O O14 0.624503 0.624503 0.123286
O O15 0.751070 0.599957 0.101976
O O16 0.500000 0.830844 0.927894
O O17 0.579887 0.776190 0.000000
#
# Coordination Sequence:
#
# PCOD8319472 Si02
#       6
#    32  32  32  32  32  32
#     4   9  19  34  51  74 103 132 163 204 252 299
#     4   9  17  30  49  75 108 142 174 206 240 284
#     4  10  19  30  45  67  99 135 166 197 234 283
#     4   9  17  30  49  72 100 135 171 206 244 284
#     4  10  20  34  53  76 103 135 170 209 252 297
#     4  10  22  39  57  76  97 124 163 212 263 312
#
# _framework density 19.282001000000001
#
# number of rings (size 3 to 8) (size 9 to 14) (size 15 to 20)
#    0.000    2.500    0.000    3.500    0.000    4.500 
#    0.000    5.833    0.000    3.000    0.000    2.333 
#    0.000    0.000    0.000    3.667    0.000    0.000 
#
# Total GULP energy -1189560.068093 kJ/mol
# GULP energy per Si atom -12391.250709 kJ/mol
# Density = 1.923811 g / cm^3
# Si number density = 19.282001 Si / 1000 Ang^3
#
#
#
# Elastic Constant Matrix: (Units=GPa)
#
#
# Indices 1 2 3 4 5 6 
#
# 1 74.3005 46.9499 26.7626 0.0000 0.0000 0.0000
# 2 46.9499 74.2972 26.7631 0.0000 0.0000 0.0000
# 3 26.7626 26.7631 49.1955 0.0000 0.0000 0.0000
# 4 0.0000 0.0000 0.0000 19.4625 0.0000 0.0000
# 5 0.0000 0.0000 0.0000 0.0000 19.4626 0.0000
# 6 0.0000 0.0000 0.0000 0.0000 0.0000 33.3024
#
#
#
# Elastic Compliance Matrix: (Units=1/GPa)
#
#
# Indices 1 2 3 4 5 6 
#
# 1 0.023709 -0.012855 -0.005904 0.000000 0.000000 0.000000
# 2 -0.012855 0.023710 -0.005905 0.000000 0.000000 0.000000
# 3 -0.005904 -0.005905 0.026752 0.000000 0.000000 0.000000
# 4 0.000000 0.000000 0.000000 0.051381 0.000000 0.000000
# 5 0.000000 0.000000 0.000000 0.000000 0.051380 0.000000
# 6 0.000000 0.000000 0.000000 0.000000 0.000000 0.030028
#
#
# Mechanical properties :
#
#
# Convention : Reuss Voigt Hill
#
# Bulk Modulus (GPa) = 40.25631 44.30493 42.28062
# Shear Modulus (GPa) = 18.89866 20.93336 19.91601
#
# Velocity S-wave (km/s) = 3.13408 3.29848 3.21733
# Velocity P-wave (km/s) = 5.83263 6.12649 5.98137
#
# Compressibility (1/GPa) = 0.02484082
#
# Stress axis : x y z
#
# Youngs Moduli (GPa) = 42.17888 42.17618 37.38090
#
# Poissons Ratio (x) = 0.54218 0.22070
# Poissons Ratio (y) = 0.54221 0.22075
# Poissons Ratio (z) = 0.24903 0.24907
#
# Static dielectric constant tensor:
#      x y z
#    x 3.436090 0.000000 0.000000 
#    y 0.000000 3.436090 0.000000 
#    z 0.000000 0.000000 3.321560 
# 
# 
# High freq. dielectric constant tensor:
#      x y z
#    x 1.743950 0.000000 0.000000 
#    y 0.000000 1.743950 0.000000 
#    z 0.000000 0.000000 1.733060 
# 
# From -- ./inp_files/11931.got.cif
#   From: 2010.03.12/outbox.cif.g09.slc.cpg/sg139_6_cif.got.tgz:11931.got - 2010.04.08 09:46:31.
