data_PCOD8319135
_publ_section_title
;
Structure prediction by ZEFSAII (Michael W. Deem and Ramdas Pophale) SiO2 
 PCOD8319135
Probable space group: P 42/N C M
;
_chemical_formula_sum "Si O2"
_cell_formula_units_Z 88
_cell_length_a 11.425546
_cell_length_b 11.425546
_cell_length_c 33.089861
_cell_angle_alpha 90.000000
_cell_angle_beta 90.000000
_cell_angle_gamma 90.000000
_cell_volume 4319.653080
_symmetry_space_group_name_H-M "P 42/N C M"
_symmetry_group_IT_number 138
_space_group.IT_coordinate_system_code '2'
_symmetry_cell_setting 'tetragonal'
loop_
_space_group_symop_operation_xyz
x,y,z
1/2-y,x,1/2+z
1/2-x,1/2-y,z
y,1/2-x,1/2+z
1/2+x,-y,1/2-z
-x,1/2+y,1/2-z
1/2+y,1/2+x,-z
-y,-x,-z
-x,-y,-z
1/2+y,-x,1/2-z
1/2+x,1/2+y,-z
-y,1/2+x,1/2-z
1/2-x,y,1/2+z
x,1/2-y,1/2+z
1/2-y,1/2-x,z
y,x,z
loop_
_atom_site_type_symbol
_atom_site_label
_atom_site_fract_x
_atom_site_fract_y
_atom_site_fract_z
Si Si1 0.016699 0.820825 0.523753
Si Si2 0.383730 0.713480 0.691738
Si Si3 0.848328 0.651673 0.480930
Si Si4 0.552354 0.947647 0.399616
Si Si5 0.886729 0.220349 0.896026
Si Si6 0.349117 0.150884 0.682455
Si Si7 0.504888 0.810931 0.768090
O O1 0.132414 0.867587 0.500000
O O2 0.048616 0.793497 0.569655
O O3 0.962895 0.703395 0.503635
O O4 0.920996 0.920996 0.523963
O O5 0.250000 0.750000 0.694259
O O6 0.436005 0.735311 0.647228
O O7 0.451091 0.789490 0.724444
O O8 0.391602 0.577581 0.703847
O O9 0.750000 0.750000 0.477207
O O10 0.886252 0.613749 0.436970
O O11 0.415364 0.918130 0.400841
O O12 0.609997 0.890004 0.360940
O O13 0.750000 0.250000 0.899064
O O14 0.250000 0.250000 0.676762
O O15 0.463219 0.194371 0.706906
O O16 0.625192 0.874809 0.759226
#
# Coordination Sequence:
#
# PCOD8319135 Si02
#       7
#    16  16   8   8  16   8  16
#     4  10  22  42  65  86 124 169 201 256 312 377
#     4  11  22  39  58  86 120 161 203 249 309 372
#     4  10  22  41  64  92 120 162 213 241 322 388
#     4  12  24  38  68  91 126 167 192 276 322 354
#     4  11  25  39  59  97 125 155 214 255 308 379
#     4  10  23  41  59  93 126 155 216 254 303 370
#     4  11  23  38  64  87 120 167 206 259 305 367
#
# _framework density 20.372005000000001
#
# number of rings (size 3 to 8) (size 9 to 14) (size 15 to 20)
#    0.000    1.273    1.818    4.091    2.545    4.000 
#    0.000    4.545    0.000    0.000    0.000    0.000 
#    0.000    0.000    0.000    0.000    0.000    0.000 
#
# Total GULP energy -1091156.899051 kJ/mol
# GULP energy per Si atom -12399.510216 kJ/mol
# Density = 2.032564 g / cm^3
# Si number density = 20.372005 Si / 1000 Ang^3
#
#
#
# Elastic Constant Matrix: (Units=GPa)
#
#
# Indices 1 2 3 4 5 6 
#
# 1 76.8710 33.8362 47.5276 0.0000 0.0000 0.0000
# 2 33.8362 76.8721 47.5277 0.0000 0.0000 0.0000
# 3 47.5276 47.5277 189.5998 0.0000 0.0000 0.0000
# 4 0.0000 0.0000 0.0000 38.3599 0.0000 0.0000
# 5 0.0000 0.0000 0.0000 0.0000 38.3618 0.0000
# 6 0.0000 0.0000 0.0000 0.0000 0.0000 33.3175
#
#
#
# Elastic Compliance Matrix: (Units=1/GPa)
#
#
# Indices 1 2 3 4 5 6 
#
# 1 0.017374 -0.005863 -0.002885 0.000000 0.000000 0.000000
# 2 -0.005863 0.017373 -0.002885 0.000000 0.000000 0.000000
# 3 -0.002885 -0.002885 0.006721 0.000000 0.000000 0.000000
# 4 0.000000 0.000000 0.000000 0.026069 0.000000 0.000000
# 5 0.000000 0.000000 0.000000 0.000000 0.026068 0.000000
# 6 0.000000 0.000000 0.000000 0.000000 0.000000 0.030014
#
#
# Mechanical properties :
#
#
# Convention : Reuss Voigt Hill
#
# Bulk Modulus (GPa) = 54.94529 66.79178 60.86853
# Shear Modulus (GPa) = 32.68984 36.30461 34.49723
#
# Velocity S-wave (km/s) = 4.01015 4.22605 4.11952
# Velocity P-wave (km/s) = 6.96213 7.52794 7.25056
#
# Compressibility (1/GPa) = 0.01819992
#
# Stress axis : x y z
#
# Youngs Moduli (GPa) = 57.55869 57.55962 148.79185
#
# Poissons Ratio (x) = 0.33749 0.42931
# Poissons Ratio (y) = 0.33748 0.42930
# Poissons Ratio (z) = 0.16607 0.16607
#
# Static dielectric constant tensor:
#      x y z
#    x 3.711570 0.000000 0.000000 
#    y 0.000000 3.711560 0.000000 
#    z 0.000000 0.000000 4.008940 
# 
# 
# High freq. dielectric constant tensor:
#      x y z
#    x 1.799200 0.000000 0.000000 
#    y 0.000000 1.799200 0.000000 
#    z 0.000000 0.000000 1.810880 
# 
# From -- ./inp_files/8121.got.cif
#   From: 2010.03.12/outbox.cif.g09.slc.cpg/sg138_5_cif.got.tgz:8121.got - 2010.04.08 09:41:05.
