data_PCOD8319575
_publ_section_title
;
Structure prediction by ZEFSAII (Michael W. Deem and Ramdas Pophale) SiO2 
 PCOD8319575
Probable space group: I 4/M M M
;
_chemical_formula_sum "Si O2"
_cell_formula_units_Z 160
_cell_length_a 23.520084
_cell_length_b 23.520084
_cell_length_c 16.782029
_cell_angle_alpha 90.000000
_cell_angle_beta 90.000000
_cell_angle_gamma 90.000000
_cell_volume 9283.723647
_symmetry_space_group_name_H-M "I 4/M M M"
_symmetry_group_IT_number 139
_symmetry_cell_setting 'tetragonal'
loop_
_space_group_symop_operation_xyz
x,y,z
-y,x,z
-x,-y,z
y,-x,z
x,-y,-z
-x,y,-z
y,x,-z
-y,-x,-z
-x,-y,-z
y,-x,-z
x,y,-z
-y,x,-z
-x,y,z
x,-y,z
-y,-x,z
y,x,z
1/2+x,1/2+y,1/2+z
1/2-y,1/2+x,1/2+z
1/2-x,1/2-y,1/2+z
1/2+y,1/2-x,1/2+z
1/2+x,1/2-y,1/2-z
1/2-x,1/2+y,1/2-z
1/2+y,1/2+x,1/2-z
1/2-y,1/2-x,1/2-z
1/2-x,1/2-y,1/2-z
1/2+y,1/2-x,1/2-z
1/2+x,1/2+y,1/2-z
1/2-y,1/2+x,1/2-z
1/2-x,1/2+y,1/2+z
1/2+x,1/2-y,1/2+z
1/2-y,1/2-x,1/2+z
1/2+y,1/2+x,1/2+z
loop_
_atom_site_type_symbol
_atom_site_label
_atom_site_fract_x
_atom_site_fract_y
_atom_site_fract_z
Si Si1 0.932992 0.743067 0.205561
Si Si2 0.629274 0.160383 0.590037
Si Si3 0.564473 0.344641 0.589294
Si Si4 0.435839 0.066199 0.341273
Si Si5 0.761460 0.670246 0.815868
O O1 0.913269 0.690419 0.152190
O O2 0.919247 0.797294 0.152217
O O3 0.894226 0.749249 0.284761
O O4 0.000000 0.737604 0.228038
O O5 0.619095 0.181617 0.500000
O O6 0.610076 0.095047 0.600075
O O7 0.696232 0.167943 0.608604
O O8 0.577316 0.321673 0.500000
O O9 0.500000 0.363929 0.597804
O O10 0.600200 0.399801 0.610062
O O11 0.500000 0.087039 0.359757
O O12 0.419640 0.080361 0.250000
O O13 0.431040 0.000000 0.357393
O O14 0.702051 0.702051 0.838895
O O15 0.792799 0.707202 0.750000
#
# Coordination Sequence:
#
# PCOD8319575 Si02
#       5
#    32  32  32  32  32
#     4  10  19  32  51  71  92 120 156 200 245 285
#     4  11  22  32  46  70  97 124 155 195 243 293
#     4   9  17  28  43  66  95 124 152 182 221 273
#     4   9  18  33  51  69  93 128 166 200 235 280
#     4   9  19  35  51  67  90 124 166 205 241 287
#
# _framework density 17.234463999999999
#
# number of rings (size 3 to 8) (size 9 to 14) (size 15 to 20)
#    0.000    2.400    0.000    4.200    0.000    6.600 
#    0.000    2.000    0.000    0.000    0.000    0.000 
#    0.000    0.000    0.000    0.000    0.000    0.000 
#
# Total GULP energy -991638.884065 kJ/mol
# GULP energy per Si atom -12395.486051 kJ/mol
# Density = 1.719524 g / cm^3
# Si number density = 17.234464 Si / 1000 Ang^3
#
#
#
# Elastic Constant Matrix: (Units=GPa)
#
#
# Indices 1 2 3 4 5 6 
#
# 1 78.6585 45.8071 27.6913 0.0000 0.0000 0.0000
# 2 45.8071 78.6578 27.6911 0.0000 0.0000 0.0000
# 3 27.6913 27.6911 40.6690 0.0000 0.0000 0.0000
# 4 0.0000 0.0000 0.0000 19.3186 0.0000 0.0000
# 5 0.0000 0.0000 0.0000 0.0000 19.3188 0.0000
# 6 0.0000 0.0000 0.0000 0.0000 0.0000 31.3963
#
#
#
# Elastic Compliance Matrix: (Units=1/GPa)
#
#
# Indices 1 2 3 4 5 6 
#
# 1 0.020983 -0.009457 -0.007848 0.000000 0.000000 0.000000
# 2 -0.009457 0.020984 -0.007848 0.000000 0.000000 0.000000
# 3 -0.007848 -0.007848 0.035276 0.000000 0.000000 0.000000
# 4 0.000000 0.000000 0.000000 0.051764 0.000000 0.000000
# 5 0.000000 0.000000 0.000000 0.000000 0.051763 0.000000
# 6 0.000000 0.000000 0.000000 0.000000 0.000000 0.031851
#
#
# Mechanical properties :
#
#
# Convention : Reuss Voigt Hill
#
# Bulk Modulus (GPa) = 37.12469 44.48491 40.80480
# Shear Modulus (GPa) = 18.38863 20.45978 19.42421
#
# Velocity S-wave (km/s) = 3.26999 3.44923 3.36081
# Velocity P-wave (km/s) = 5.98706 6.45992 6.22798
#
# Compressibility (1/GPa) = 0.02693625
#
# Stress axis : x y z
#
# Youngs Moduli (GPa) = 47.65661 47.65626 28.34753
#
# Poissons Ratio (x) = 0.45068 0.22248
# Poissons Ratio (y) = 0.45069 0.22248
# Poissons Ratio (z) = 0.37403 0.37402
#
# Static dielectric constant tensor:
#      x y z
#    x 3.310760 0.000000 0.000000 
#    y 0.000000 3.310750 0.000000 
#    z 0.000000 0.000000 3.005410 
# 
# 
# High freq. dielectric constant tensor:
#      x y z
#    x 1.665360 0.000000 0.000000 
#    y 0.000000 1.665360 0.000000 
#    z 0.000000 0.000000 1.632910 
# 
# From -- ./inp_files/5918.got.cif
#   From: 2010.03.12/outbox.cif.g09.slc.cpg/sg139_3_cif.got.tgz:5918.got - 2010.04.08 09:46:31.
