data_PCOD8319439
_publ_section_title
;
Structure prediction by ZEFSAII (Michael W. Deem and Ramdas Pophale) SiO2 
 PCOD8319439
Probable space group: I 4/M M M
;
_chemical_formula_sum "Si O2"
_cell_formula_units_Z 160
_cell_length_a 19.209653
_cell_length_b 19.209653
_cell_length_c 27.966668
_cell_angle_alpha 90.000000
_cell_angle_beta 90.000000
_cell_angle_gamma 90.000000
_cell_volume 10320.001648
_symmetry_space_group_name_H-M "I 4/M M M"
_symmetry_group_IT_number 139
_symmetry_cell_setting 'tetragonal'
loop_
_space_group_symop_operation_xyz
x,y,z
-y,x,z
-x,-y,z
y,-x,z
x,-y,-z
-x,y,-z
y,x,-z
-y,-x,-z
-x,-y,-z
y,-x,-z
x,y,-z
-y,x,-z
-x,y,z
x,-y,z
-y,-x,z
y,x,z
1/2+x,1/2+y,1/2+z
1/2-y,1/2+x,1/2+z
1/2-x,1/2-y,1/2+z
1/2+y,1/2-x,1/2+z
1/2+x,1/2-y,1/2-z
1/2-x,1/2+y,1/2-z
1/2+y,1/2+x,1/2-z
1/2-y,1/2-x,1/2-z
1/2-x,1/2-y,1/2-z
1/2+y,1/2-x,1/2-z
1/2+x,1/2+y,1/2-z
1/2-y,1/2+x,1/2-z
1/2-x,1/2+y,1/2+z
1/2+x,1/2-y,1/2+z
1/2-y,1/2-x,1/2+z
1/2+y,1/2+x,1/2+z
loop_
_atom_site_type_symbol
_atom_site_label
_atom_site_fract_x
_atom_site_fract_y
_atom_site_fract_z
Si Si1 0.192349 0.919904 0.712047
Si Si2 0.296837 0.180381 0.051638
Si Si3 0.921868 0.810488 0.085814
Si Si4 0.421945 0.755639 0.314692
Si Si5 0.327689 0.789031 0.847192
O O1 0.121680 0.878321 0.701338
O O2 0.214835 0.906785 0.766163
O O3 0.253488 0.893788 0.677066
O O4 0.177666 0.000000 0.700655
O O5 0.238011 0.238011 0.049446
O O6 0.259176 0.106535 0.060383
O O7 0.346663 0.198313 0.096619
O O8 0.336696 0.178067 0.000000
O O9 0.877887 0.877887 0.070872
O O10 0.917075 0.800423 0.142876
O O11 0.000000 0.822922 0.068110
O O12 0.500000 0.789209 0.313593
O O13 0.363374 0.814885 0.321577
O O14 0.258164 0.741837 0.841569
#
# Coordination Sequence:
#
# PCOD8319439 Si02
#       5
#    32  32  32  32  32
#     4  10  19  29  43  63  87 115 144 174 209 250
#     4   8  14  25  40  56  73  94 125 171 221 257
#     4   9  16  24  34  51  78 112 147 178 207 241
#     4   9  16  26  41  62  87 113 143 178 212 244
#     4   9  16  27  44  63  82 107 142 180 214 251
#
# _framework density 15.503874
#
# number of rings (size 3 to 8) (size 9 to 14) (size 15 to 20)
#    0.000    3.000    0.000    3.600    0.000    2.400 
#    0.000    0.000    0.000    4.800    0.000    5.600 
#    0.000    0.000    0.000   17.800    0.000    1.600 
#
# Total GULP energy -991441.123513 kJ/mol
# GULP energy per Si atom -12393.014044 kJ/mol
# Density = 1.546859 g / cm^3
# Si number density = 15.503874 Si / 1000 Ang^3
#
#
#
# Elastic Constant Matrix: (Units=GPa)
#
#
# Indices 1 2 3 4 5 6 
#
# 1 64.8108 32.1233 27.6456 0.0000 0.0000 0.0000
# 2 32.1233 64.8108 27.6456 0.0000 0.0000 0.0000
# 3 27.6456 27.6456 68.0047 0.0000 0.0000 0.0000
# 4 0.0000 0.0000 0.0000 10.2163 0.0000 0.0000
# 5 0.0000 0.0000 0.0000 0.0000 10.2163 0.0000
# 6 0.0000 0.0000 0.0000 0.0000 0.0000 13.6914
#
#
#
# Elastic Compliance Matrix: (Units=1/GPa)
#
#
# Indices 1 2 3 4 5 6 
#
# 1 0.022012 -0.008581 -0.005460 0.000000 0.000000 0.000000
# 2 -0.008581 0.022012 -0.005460 0.000000 0.000000 0.000000
# 3 -0.005460 -0.005460 0.019144 0.000000 0.000000 0.000000
# 4 0.000000 0.000000 0.000000 0.097883 0.000000 0.000000
# 5 0.000000 0.000000 0.000000 0.000000 0.097883 0.000000
# 6 0.000000 0.000000 0.000000 0.000000 0.000000 0.073038
#
#
# Mechanical properties :
#
#
# Convention : Reuss Voigt Hill
#
# Bulk Modulus (GPa) = 41.38093 41.38393 41.38243
# Shear Modulus (GPa) = 13.19165 14.17227 13.68196
#
# Velocity S-wave (km/s) = 2.92012 3.02671 2.97389
# Velocity P-wave (km/s) = 6.17399 6.24221 6.20819
#
# Compressibility (1/GPa) = 0.02416572
#
# Stress axis : x y z
#
# Youngs Moduli (GPa) = 45.43041 45.43041 52.23568
#
# Poissons Ratio (x) = 0.38984 0.28520
# Poissons Ratio (y) = 0.38984 0.28520
# Poissons Ratio (z) = 0.24804 0.24804
#
# Static dielectric constant tensor:
#      x y z
#    x 2.758230 0.000000 0.000000 
#    y 0.000000 2.758230 0.000000 
#    z 0.000000 0.000000 3.336750 
# 
# 
# High freq. dielectric constant tensor:
#      x y z
#    x 1.563430 0.000000 0.000000 
#    y 0.000000 1.563430 0.000000 
#    z 0.000000 0.000000 1.606010 
# 
# From -- ./inp_files/12897.got.cif
#   From: 2010.03.12/outbox.cif.g09.slc.cpg/sg139_7_cif.got.tgz:12897.got - 2010.04.08 09:46:31.
