data_PCOD8319077
_publ_section_title
;
Structure prediction by ZEFSAII (Michael W. Deem and Ramdas Pophale) SiO2 
 PCOD8319077
Probable space group: P 42/N C M
;
_chemical_formula_sum "Si O2"
_cell_formula_units_Z 88
_cell_length_a 11.663662
_cell_length_b 11.663662
_cell_length_c 33.286226
_cell_angle_alpha 90.000000
_cell_angle_beta 90.000000
_cell_angle_gamma 90.000000
_cell_volume 4528.291846
_symmetry_space_group_name_H-M "P 42/N C M"
_symmetry_group_IT_number 138
_space_group.IT_coordinate_system_code '2'
_symmetry_cell_setting 'tetragonal'
loop_
_space_group_symop_operation_xyz
x,y,z
1/2-y,x,1/2+z
1/2-x,1/2-y,z
y,1/2-x,1/2+z
1/2+x,-y,1/2-z
-x,1/2+y,1/2-z
1/2+y,1/2+x,-z
-y,-x,-z
-x,-y,-z
1/2+y,-x,1/2-z
1/2+x,1/2+y,-z
-y,1/2+x,1/2-z
1/2-x,y,1/2+z
x,1/2-y,1/2+z
1/2-y,1/2-x,z
y,x,z
loop_
_atom_site_type_symbol
_atom_site_label
_atom_site_fract_x
_atom_site_fract_y
_atom_site_fract_z
Si Si1 0.943611 0.374454 0.209370
Si Si2 0.414049 0.742594 0.979167
Si Si3 0.345593 0.154408 0.995400
Si Si4 0.456345 0.735480 0.648402
Si Si5 0.159099 0.159099 0.405946
Si Si6 0.885782 0.067541 0.797008
Si Si7 0.750000 0.250000 0.409052
O O1 0.859978 0.453236 0.183067
O O2 0.947707 0.246858 0.191432
O O3 0.897474 0.367826 0.254694
O O4 0.070411 0.429589 0.208317
O O5 0.545901 0.785879 0.981665
O O6 0.367504 0.728690 0.933879
O O7 0.341490 0.841490 0.000000
O O8 0.381507 0.618494 0.000000
O O9 0.250000 0.250000 0.995037
O O10 0.385436 0.114565 0.949979
O O11 0.567578 0.723314 0.621340
O O12 0.450638 0.859899 0.668893
O O13 0.354133 0.716051 0.618425
O O14 0.250000 0.250000 0.420212
O O15 0.942288 0.942288 0.794593
#
# Coordination Sequence:
#
# PCOD8319077 Si02
#       7
#    16  16   8  16   8  16   8
#     4  11  22  39  62  87 119 165 212 255 305 368
#     4   9  19  38  60  90 116 154 205 251 296 367
#     4  11  23  41  65  91 129 167 199 251 323 393
#     4  12  21  38  61  91 120 159 207 258 308 365
#     4  11  24  39  59  93 128 159 199 261 324 367
#     4  11  23  39  60  87 123 164 203 256 309 367
#     4  10  21  34  65  88 116 154 210 258 305 352
#
# _framework density 19.433375000000002
#
# number of rings (size 3 to 8) (size 9 to 14) (size 15 to 20)
#    0.000    1.455    4.545    3.000    0.000    1.455 
#    0.000    1.818    0.000    0.000    0.000    0.000 
#    0.000    0.000    0.000    0.000    0.000    0.000 
#
# Total GULP energy -1090532.264672 kJ/mol
# GULP energy per Si atom -12392.412099 kJ/mol
# Density = 1.938914 g / cm^3
# Si number density = 19.433375 Si / 1000 Ang^3
#
#
#
# Elastic Constant Matrix: (Units=GPa)
#
#
# Indices 1 2 3 4 5 6 
#
# 1 90.4937 40.5603 18.4328 0.0000 0.0000 0.0000
# 2 40.5603 90.4949 18.4331 0.0000 0.0000 0.0000
# 3 18.4328 18.4331 95.0092 0.0000 0.0000 0.0000
# 4 0.0000 0.0000 0.0000 24.1090 0.0000 0.0000
# 5 0.0000 0.0000 0.0000 0.0000 24.1087 0.0000
# 6 0.0000 0.0000 0.0000 0.0000 0.0000 32.1193
#
#
#
# Elastic Compliance Matrix: (Units=1/GPa)
#
#
# Indices 1 2 3 4 5 6 
#
# 1 0.014049 -0.005978 -0.001566 0.000000 0.000000 0.000000
# 2 -0.005978 0.014049 -0.001566 0.000000 0.000000 0.000000
# 3 -0.001566 -0.001566 0.011133 0.000000 0.000000 0.000000
# 4 0.000000 0.000000 0.000000 0.041478 0.000000 0.000000
# 5 0.000000 0.000000 0.000000 0.000000 0.041479 0.000000
# 6 0.000000 0.000000 0.000000 0.000000 0.000000 0.031134
#
#
# Mechanical properties :
#
#
# Convention : Reuss Voigt Hill
#
# Bulk Modulus (GPa) = 47.59355 47.87225 47.73290
# Shear Modulus (GPa) = 28.00432 29.30552 28.65492
#
# Velocity S-wave (km/s) = 3.80022 3.88751 3.84411
# Velocity P-wave (km/s) = 6.61811 6.69611 6.65722
#
# Compressibility (1/GPa) = 0.02101125
#
# Stress axis : x y z
#
# Youngs Moduli (GPa) = 71.18072 71.18161 89.82396
#
# Poissons Ratio (x) = 0.42551 0.14065
# Poissons Ratio (y) = 0.42550 0.14065
# Poissons Ratio (z) = 0.11146 0.11146
#
# Static dielectric constant tensor:
#      x y z
#    x 3.449040 0.000000 0.000000 
#    y 0.000000 3.449030 0.000000 
#    z 0.000000 0.000000 3.754810 
# 
# 
# High freq. dielectric constant tensor:
#      x y z
#    x 1.749720 0.000000 0.000000 
#    y 0.000000 1.749720 0.000000 
#    z 0.000000 0.000000 1.763930 
# 
# From -- ./inp_files/8111.got.cif
#   From: 2010.03.12/outbox.cif.g09.slc.cpg/sg138_5_cif.got.tgz:8111.got - 2010.04.08 09:41:05.
