data_PCOD8319843
_publ_section_title
;
Structure prediction by ZEFSAII (Michael W. Deem and Ramdas Pophale) SiO2 
 PCOD8319843
Probable space group: I 4/M M M
;
_chemical_formula_sum "Si O2"
_cell_formula_units_Z 128
_cell_length_a 19.676734
_cell_length_b 19.676734
_cell_length_c 16.442144
_cell_angle_alpha 90.000000
_cell_angle_beta 90.000000
_cell_angle_gamma 90.000000
_cell_volume 6365.968374
_symmetry_space_group_name_H-M "I 4/M M M"
_symmetry_group_IT_number 139
_symmetry_cell_setting 'tetragonal'
loop_
_space_group_symop_operation_xyz
x,y,z
-y,x,z
-x,-y,z
y,-x,z
x,-y,-z
-x,y,-z
y,x,-z
-y,-x,-z
-x,-y,-z
y,-x,-z
x,y,-z
-y,x,-z
-x,y,z
x,-y,z
-y,-x,z
y,x,z
1/2+x,1/2+y,1/2+z
1/2-y,1/2+x,1/2+z
1/2-x,1/2-y,1/2+z
1/2+y,1/2-x,1/2+z
1/2+x,1/2-y,1/2-z
1/2-x,1/2+y,1/2-z
1/2+y,1/2+x,1/2-z
1/2-y,1/2-x,1/2-z
1/2-x,1/2-y,1/2-z
1/2+y,1/2-x,1/2-z
1/2+x,1/2+y,1/2-z
1/2-y,1/2+x,1/2-z
1/2-x,1/2+y,1/2+z
1/2+x,1/2-y,1/2+z
1/2-y,1/2-x,1/2+z
1/2+y,1/2+x,1/2+z
loop_
_atom_site_type_symbol
_atom_site_label
_atom_site_fract_x
_atom_site_fract_y
_atom_site_fract_z
Si Si1 0.000000 0.576238 0.095944
Si Si2 0.118610 0.324248 0.905099
Si Si3 0.807957 0.922388 0.177362
Si Si4 0.687506 0.425375 0.000000
Si Si5 0.630889 0.256409 0.843080
O O1 0.065388 0.618729 0.123674
O O2 0.000000 0.500000 0.134587
O O3 0.000000 0.569909 0.000000
O O4 0.090966 0.247731 0.892579
O O5 0.182149 0.336206 0.846015
O O6 0.137894 0.331609 0.000000
O O7 0.872473 0.872473 0.167484
O O8 0.769208 0.912700 0.262696
O O9 0.834475 0.000000 0.171253
O O10 0.734428 0.417276 0.920951
O O11 0.655476 0.500000 0.000000
O O12 0.624948 0.375053 0.000000
O O13 0.693036 0.306965 0.847504
#
# Coordination Sequence:
#
# PCOD8319843 Si02
#       5
#    16  32  32  16  32
#     4   9  20  36  56  86 121 158 198 242 302 370
#     4  11  21  39  63  90 124 161 206 254 309 374
#     4  11  24  41  63  90 124 165 211 264 316 368
#     4  10  20  35  56  85 117 153 198 246 302 366
#     4  10  21  38  60  87 117 153 199 250 306 367
#
# _framework density 20.106919000000001
#
# number of rings (size 3 to 8) (size 9 to 14) (size 15 to 20)
#    0.000    1.625    2.500    2.250    0.000    5.875 
#    0.000    0.000    0.000    4.500    0.000    1.750 
#    0.000    0.000    0.000    0.000    0.000    0.000 
#
# Total GULP energy -793674.100394 kJ/mol
# GULP energy per Si atom -12401.157819 kJ/mol
# Density = 2.006115 g / cm^3
# Si number density = 20.106919 Si / 1000 Ang^3
#
#
#
# Elastic Constant Matrix: (Units=GPa)
#
#
# Indices 1 2 3 4 5 6 
#
# 1 126.2507 32.0059 21.1433 0.0000 0.0000 0.0000
# 2 32.0059 126.2524 21.1433 0.0000 0.0000 0.0000
# 3 21.1433 21.1433 45.9548 0.0000 0.0000 0.0000
# 4 0.0000 0.0000 0.0000 21.0793 0.0000 0.0000
# 5 0.0000 0.0000 0.0000 0.0000 21.0797 0.0000
# 6 0.0000 0.0000 0.0000 0.0000 0.0000 -10.0346
#
#
#
# Elastic Compliance Matrix: (Units=1/GPa)
#
#
# Indices 1 2 3 4 5 6 
#
# 1 0.008908 -0.001703 -0.003315 0.000000 0.000000 0.000000
# 2 -0.001703 0.008907 -0.003315 0.000000 0.000000 0.000000
# 3 -0.003315 -0.003315 0.024811 0.000000 0.000000 0.000000
# 4 0.000000 0.000000 0.000000 0.047440 0.000000 0.000000
# 5 0.000000 0.000000 0.000000 0.000000 0.047439 0.000000
# 6 0.000000 0.000000 0.000000 0.000000 0.000000 -0.099655
#
#
# Mechanical properties :
#
#
# Convention : Reuss Voigt Hill
#
# Bulk Modulus (GPa) = 38.51961 49.67143 44.09552
# Shear Modulus (GPa) = 79.15390 21.36924 50.26157
#
# Velocity S-wave (km/s) = 6.28108 3.26357 5.00514
# Velocity P-wave (km/s) = 8.47358 6.24167 7.44178
#
# Compressibility (1/GPa) = 0.02596080
#
# Stress axis : x y z
#
# Youngs Moduli (GPa) = 112.26360 112.26524 40.30526
#
# Poissons Ratio (x) = 0.19119 0.13360
# Poissons Ratio (y) = 0.19119 0.13360
# Poissons Ratio (z) = 0.37213 0.37212
#
# Static dielectric constant tensor:
#      x y z
#    x 3.638570 0.000000 0.000000 
#    y 0.000000 3.638570 0.000000 
#    z 0.000000 0.000000 3.723120 
# 
# 
# High freq. dielectric constant tensor:
#      x y z
#    x 1.785600 0.000000 0.000000 
#    y 0.000000 1.785600 0.000000 
#    z 0.000000 0.000000 1.781080 
# 
# From -- ./inp_files/5479.got.cif
#   From: 2010.03.12/outbox.cif.g09.slc.cpg/sg139_3_cif.got.tgz:5479.got - 2010.04.08 09:46:31.
