data_PCOD8319733
_publ_section_title
;
Structure prediction by ZEFSAII (Michael W. Deem and Ramdas Pophale) SiO2 
 PCOD8319733
Probable space group: I 4/M M M
;
_chemical_formula_sum "Si O2"
_cell_formula_units_Z 176
_cell_length_a 18.373407
_cell_length_b 18.373407
_cell_length_c 28.337376
_cell_angle_alpha 90.000000
_cell_angle_beta 90.000000
_cell_angle_gamma 90.000000
_cell_volume 9566.190467
_symmetry_space_group_name_H-M "I 4/M M M"
_symmetry_group_IT_number 139
_symmetry_cell_setting 'tetragonal'
loop_
_space_group_symop_operation_xyz
x,y,z
-y,x,z
-x,-y,z
y,-x,z
x,-y,-z
-x,y,-z
y,x,-z
-y,-x,-z
-x,-y,-z
y,-x,-z
x,y,-z
-y,x,-z
-x,y,z
x,-y,z
-y,-x,z
y,x,z
1/2+x,1/2+y,1/2+z
1/2-y,1/2+x,1/2+z
1/2-x,1/2-y,1/2+z
1/2+y,1/2-x,1/2+z
1/2+x,1/2-y,1/2-z
1/2-x,1/2+y,1/2-z
1/2+y,1/2+x,1/2-z
1/2-y,1/2-x,1/2-z
1/2-x,1/2-y,1/2-z
1/2+y,1/2-x,1/2-z
1/2+x,1/2+y,1/2-z
1/2-y,1/2+x,1/2-z
1/2-x,1/2+y,1/2+z
1/2+x,1/2-y,1/2+z
1/2-y,1/2-x,1/2+z
1/2+y,1/2+x,1/2+z
loop_
_atom_site_type_symbol
_atom_site_label
_atom_site_fract_x
_atom_site_fract_y
_atom_site_fract_z
Si Si1 0.167195 0.582545 0.787742
Si Si2 0.216872 0.669021 0.351646
Si Si3 0.699009 0.581665 0.720872
Si Si4 0.345763 0.849571 0.945543
Si Si5 0.000000 0.421079 0.055277
Si Si6 0.419216 0.303155 0.055019
O O1 0.151212 0.500000 0.803783
O O2 0.106076 0.606076 0.750000
O O3 0.167287 0.633615 0.833768
O O4 0.245670 0.590158 0.763986
O O5 0.254263 0.745738 0.337778
O O6 0.262472 0.604433 0.327921
O O7 0.220165 0.659417 0.408486
O O8 0.671540 0.500000 0.714692
O O9 0.629528 0.629528 0.733085
O O10 0.381209 0.925938 0.930147
O O11 0.399348 0.781361 0.936942
O O12 0.317984 0.850545 0.000000
O O13 0.000000 0.500000 0.080143
O O14 0.000000 0.431615 0.000000
O O15 0.500000 0.317097 0.077068
O O16 0.358669 0.358669 0.077472
O O17 0.422584 0.319183 0.000000
#
# Coordination Sequence:
#
# PCOD8319733 Si02
#       6
#    32  32  32  32  16  32
#     4   9  18  33  52  75 106 137 171 207 248 302
#     4  10  20  33  52  75 103 138 174 210 254 308
#     4   9  18  33  54  77 102 130 162 207 256 309
#     4  10  20  33  50  71 100 136 176 222 263 304
#     4   9  18  32  48  66  92 128 167 213 267 315
#     4   9  17  29  45  65  91 124 163 208 253 295
#
# _framework density 18.398128
#
# number of rings (size 3 to 8) (size 9 to 14) (size 15 to 20)
#    0.000    2.636    0.000    1.636    1.273    7.455 
#    0.000    0.909    0.000    0.000    0.000    0.000 
#    0.000    4.364    0.000    4.182    0.000    0.000 
#
# Total GULP energy -1090570.912248 kJ/mol
# GULP energy per Si atom -12392.851276 kJ/mol
# Density = 1.835625 g / cm^3
# Si number density = 18.398128 Si / 1000 Ang^3
#
#
#
# Elastic Constant Matrix: (Units=GPa)
#
#
# Indices 1 2 3 4 5 6 
#
# 1 116.1339 57.2586 16.7723 0.0000 0.0000 0.0000
# 2 57.2586 116.1339 16.7723 0.0000 0.0000 0.0000
# 3 16.7723 16.7723 62.2927 0.0000 0.0000 0.0000
# 4 0.0000 0.0000 0.0000 15.3497 0.0000 0.0000
# 5 0.0000 0.0000 0.0000 0.0000 15.3497 0.0000
# 6 0.0000 0.0000 0.0000 0.0000 0.0000 21.0073
#
#
#
# Elastic Compliance Matrix: (Units=1/GPa)
#
#
# Indices 1 2 3 4 5 6 
#
# 1 0.011535 -0.005450 -0.001638 0.000000 0.000000 0.000000
# 2 -0.005450 0.011535 -0.001638 0.000000 0.000000 0.000000
# 3 -0.001638 -0.001638 0.016935 0.000000 0.000000 0.000000
# 4 0.000000 0.000000 0.000000 0.065148 0.000000 0.000000
# 5 0.000000 0.000000 0.000000 0.000000 0.065148 0.000000
# 6 0.000000 0.000000 0.000000 0.000000 0.000000 0.047602
#
#
# Mechanical properties :
#
#
# Convention : Reuss Voigt Hill
#
# Bulk Modulus (GPa) = 44.34374 52.90744 48.62559
# Shear Modulus (GPa) = 20.58686 23.92517 22.25602
#
# Velocity S-wave (km/s) = 3.34872 3.61004 3.48183
# Velocity P-wave (km/s) = 6.25352 6.79676 6.53079
#
# Compressibility (1/GPa) = 0.02255110
#
# Stress axis : x y z
#
# Youngs Moduli (GPa) = 86.69557 86.69557 59.04798
#
# Poissons Ratio (x) = 0.47253 0.09673
# Poissons Ratio (y) = 0.47253 0.09673
# Poissons Ratio (z) = 0.14202 0.14202
#
# Static dielectric constant tensor:
#      x y z
#    x 3.552180 0.000000 0.000000 
#    y 0.000000 3.552180 0.000000 
#    z 0.000000 0.000000 3.207500 
# 
# 
# High freq. dielectric constant tensor:
#      x y z
#    x 1.708230 0.000000 0.000000 
#    y 0.000000 1.708230 0.000000 
#    z 0.000000 0.000000 1.693660 
# 
# From -- ./inp_files/13093.got.cif
#   From: 2010.03.12/outbox.cif.g09.slc.cpg/sg139_7_cif.got.tgz:13093.got - 2010.04.08 09:46:31.
