data_PCOD8319493
_publ_section_title
;
Structure prediction by ZEFSAII (Michael W. Deem and Ramdas Pophale) SiO2 
 PCOD8319493
Probable space group: I 4/M M M
;
_chemical_formula_sum "Si O2"
_cell_formula_units_Z 192
_cell_length_a 21.822125
_cell_length_b 21.822125
_cell_length_c 24.094082
_cell_angle_alpha 90.000000
_cell_angle_beta 90.000000
_cell_angle_gamma 90.000000
_cell_volume 11473.725680
_symmetry_space_group_name_H-M "I 4/M M M"
_symmetry_group_IT_number 139
_symmetry_cell_setting 'tetragonal'
loop_
_space_group_symop_operation_xyz
x,y,z
-y,x,z
-x,-y,z
y,-x,z
x,-y,-z
-x,y,-z
y,x,-z
-y,-x,-z
-x,-y,-z
y,-x,-z
x,y,-z
-y,x,-z
-x,y,z
x,-y,z
-y,-x,z
y,x,z
1/2+x,1/2+y,1/2+z
1/2-y,1/2+x,1/2+z
1/2-x,1/2-y,1/2+z
1/2+y,1/2-x,1/2+z
1/2+x,1/2-y,1/2-z
1/2-x,1/2+y,1/2-z
1/2+y,1/2+x,1/2-z
1/2-y,1/2-x,1/2-z
1/2-x,1/2-y,1/2-z
1/2+y,1/2-x,1/2-z
1/2+x,1/2+y,1/2-z
1/2-y,1/2+x,1/2-z
1/2-x,1/2+y,1/2+z
1/2+x,1/2-y,1/2+z
1/2-y,1/2-x,1/2+z
1/2+y,1/2+x,1/2+z
loop_
_atom_site_type_symbol
_atom_site_label
_atom_site_fract_x
_atom_site_fract_y
_atom_site_fract_z
Si Si1 0.729163 0.896054 0.435653
Si Si2 0.931286 0.628062 0.643314
Si Si3 0.072335 0.275346 0.267201
Si Si4 0.928299 0.171660 0.651444
Si Si5 0.193079 0.429683 0.645710
Si Si6 0.231867 0.670473 0.436613
O O1 0.736270 0.913078 0.500000
O O2 0.671454 0.933338 0.410916
O O3 0.791550 0.915140 0.405200
O O4 0.716956 0.824129 0.425969
O O5 0.906841 0.667517 0.695369
O O6 0.880863 0.574536 0.637921
O O7 0.000000 0.600749 0.652033
O O8 0.094392 0.212060 0.295657
O O9 0.096937 0.283858 0.204908
O O10 0.000000 0.276147 0.266872
O O11 0.891836 0.108165 0.651506
O O12 0.000000 0.155962 0.655469
O O13 0.212158 0.500000 0.637926
O O14 0.228150 0.390310 0.599958
O O15 0.231716 0.648374 0.500000
O O16 0.294106 0.705895 0.421511
#
# Coordination Sequence:
#
# PCOD8319493 Si02
#       6
#    32  32  32  32  32  32
#     4   9  17  31  50  68  87 116 157 198 228 256
#     4   9  17  29  45  66  95 128 157 185 217 259
#     4   8  16  31  46  62  86 116 153 189 218 255
#     4  10  20  32  47  67  90 116 147 188 237 285
#     4  10  19  30  47  70  95 123 152 186 228 269
#     4   9  18  32  49  69  92 118 151 190 230 273
#
# _framework density 16.733885000000001
#
# number of rings (size 3 to 8) (size 9 to 14) (size 15 to 20)
#    0.000    2.833    0.000    2.500    0.000    3.833 
#    0.000    0.000    0.000    9.000    0.000    5.833 
#    0.000    0.333    0.000    1.833    0.000    0.000 
#
# Total GULP energy -1190027.166567 kJ/mol
# GULP energy per Si atom -12396.116318 kJ/mol
# Density = 1.669580 g / cm^3
# Si number density = 16.733885 Si / 1000 Ang^3
#
#
#
# Elastic Constant Matrix: (Units=GPa)
#
#
# Indices 1 2 3 4 5 6 
#
# 1 71.0809 34.9124 47.1455 0.0000 0.0000 0.0000
# 2 34.9124 71.0809 47.1455 0.0000 0.0000 0.0000
# 3 47.1455 47.1455 106.5255 0.0000 0.0000 0.0000
# 4 0.0000 0.0000 0.0000 20.1786 0.0000 0.0000
# 5 0.0000 0.0000 0.0000 0.0000 20.1786 0.0000
# 6 0.0000 0.0000 0.0000 0.0000 0.0000 14.5725
#
#
#
# Elastic Compliance Matrix: (Units=1/GPa)
#
#
# Indices 1 2 3 4 5 6 
#
# 1 0.021605 -0.006044 -0.006887 0.000000 0.000000 0.000000
# 2 -0.006044 0.021605 -0.006887 0.000000 0.000000 0.000000
# 3 -0.006887 -0.006887 0.015483 0.000000 0.000000 0.000000
# 4 0.000000 0.000000 0.000000 0.049558 0.000000 0.000000
# 5 0.000000 0.000000 0.000000 0.000000 0.049558 0.000000
# 6 0.000000 0.000000 0.000000 0.000000 0.000000 0.068622
#
#
# Mechanical properties :
#
#
# Convention : Reuss Voigt Hill
#
# Bulk Modulus (GPa) = 52.47181 56.34378 54.40779
# Shear Modulus (GPa) = 18.35413 18.95151 18.65282
#
# Velocity S-wave (km/s) = 3.31543 3.36895 3.34229
# Velocity P-wave (km/s) = 6.78828 6.99118 6.89048
#
# Compressibility (1/GPa) = 0.01905785
#
# Stress axis : x y z
#
# Youngs Moduli (GPa) = 46.28603 46.28603 64.58511
#
# Poissons Ratio (x) = 0.27973 0.44480
# Poissons Ratio (y) = 0.27973 0.44480
# Poissons Ratio (z) = 0.31877 0.31877
#
# Static dielectric constant tensor:
#      x y z
#    x 2.939370 0.000000 0.000000 
#    y 0.000000 2.939370 0.000000 
#    z 0.000000 0.000000 3.429800 
# 
# 
# High freq. dielectric constant tensor:
#      x y z
#    x 1.624450 0.000000 0.000000 
#    y 0.000000 1.624450 0.000000 
#    z 0.000000 0.000000 1.650440 
# 
# From -- ./inp_files/11921.got.cif
#   From: 2010.03.12/outbox.cif.g09.slc.cpg/sg139_6_cif.got.tgz:11921.got - 2010.04.08 09:46:31.
