data_PCOD8319956
_publ_section_title
;
Structure prediction by ZEFSAII (Michael W. Deem and Ramdas Pophale) SiO2 
 PCOD8319956
Probable space group: I 4/M M M
;
_chemical_formula_sum "Si O2"
_cell_formula_units_Z 160
_cell_length_a 24.528784
_cell_length_b 24.528784
_cell_length_c 14.227286
_cell_angle_alpha 90.000000
_cell_angle_beta 90.000000
_cell_angle_gamma 90.000000
_cell_volume 8560.006601
_symmetry_space_group_name_H-M "I 4/M M M"
_symmetry_group_IT_number 139
_symmetry_cell_setting 'tetragonal'
loop_
_space_group_symop_operation_xyz
x,y,z
-y,x,z
-x,-y,z
y,-x,z
x,-y,-z
-x,y,-z
y,x,-z
-y,-x,-z
-x,-y,-z
y,-x,-z
x,y,-z
-y,x,-z
-x,y,z
x,-y,z
-y,-x,z
y,x,z
1/2+x,1/2+y,1/2+z
1/2-y,1/2+x,1/2+z
1/2-x,1/2-y,1/2+z
1/2+y,1/2-x,1/2+z
1/2+x,1/2-y,1/2-z
1/2-x,1/2+y,1/2-z
1/2+y,1/2+x,1/2-z
1/2-y,1/2-x,1/2-z
1/2-x,1/2-y,1/2-z
1/2+y,1/2-x,1/2-z
1/2+x,1/2+y,1/2-z
1/2-y,1/2+x,1/2-z
1/2-x,1/2+y,1/2+z
1/2+x,1/2-y,1/2+z
1/2-y,1/2-x,1/2+z
1/2+y,1/2+x,1/2+z
loop_
_atom_site_type_symbol
_atom_site_label
_atom_site_fract_x
_atom_site_fract_y
_atom_site_fract_z
Si Si1 0.305639 0.388771 0.393216
Si Si2 0.000000 0.361012 0.112700
Si Si3 0.500000 0.737992 0.388851
Si Si4 0.092423 0.559949 0.888815
Si Si5 0.562454 0.217064 0.110741
Si Si6 0.835879 0.251071 0.729912
O O1 0.284907 0.384685 0.500000
O O2 0.368793 0.368793 0.384395
O O3 0.298033 0.449467 0.353645
O O4 0.267273 0.349583 0.334822
O O5 0.053138 0.392891 0.152851
O O6 0.000000 0.299413 0.154315
O O7 0.000000 0.359630 0.000000
O O8 0.500000 0.743873 0.500000
O O9 0.075208 0.500000 0.850703
O O10 0.154403 0.571922 0.861178
O O11 0.085997 0.559745 0.000000
O O12 0.500000 0.234857 0.138564
O O13 0.609684 0.249976 0.165493
O O14 0.570708 0.226476 0.000000
O O15 0.791078 0.208923 0.685874
O O16 0.810442 0.310442 0.750000
#
# Coordination Sequence:
#
# PCOD8319956 Si02
#       6
#    32  16  16  32  32  32
#     4   9  19  36  54  74 104 135 165 211 268 320
#     4   9  15  22  39  68  95 121 166 216 251 300
#     4   9  18  29  48  76  95 122 167 202 249 317
#     4   8  14  25  41  63  93 130 168 209 257 300
#     4   9  19  35  54  76 106 145 184 223 270 324
#     4  10  22  36  52  78 107 140 183 227 274 326
#
# _framework density 18.691575
#
# number of rings (size 3 to 8) (size 9 to 14) (size 15 to 20)
#    0.000    3.000    0.000    1.500    4.200    2.400 
#    0.000    2.000    0.000    0.300    0.000    2.100 
#    0.000    0.400    0.000    2.200    0.000    0.000 
#
# Total GULP energy -991163.016106 kJ/mol
# GULP energy per Si atom -12389.537701 kJ/mol
# Density = 1.864903 g / cm^3
# Si number density = 18.691575 Si / 1000 Ang^3
#
#
#
# Elastic Constant Matrix: (Units=GPa)
#
#
# Indices 1 2 3 4 5 6 
#
# 1 118.1932 74.6030 29.2783 0.0000 0.0000 0.0000
# 2 74.6030 118.1932 29.2783 0.0000 0.0000 0.0000
# 3 29.2783 29.2783 37.4421 0.0000 0.0000 0.0000
# 4 0.0000 0.0000 0.0000 18.8004 0.0000 0.0000
# 5 0.0000 0.0000 0.0000 0.0000 18.8004 0.0000
# 6 0.0000 0.0000 0.0000 0.0000 0.0000 33.7078
#
#
#
# Elastic Compliance Matrix: (Units=1/GPa)
#
#
# Indices 1 2 3 4 5 6 
#
# 1 0.014872 -0.008069 -0.005319 0.000000 0.000000 0.000000
# 2 -0.008069 0.014872 -0.005319 0.000000 0.000000 0.000000
# 3 -0.005319 -0.005319 0.035027 0.000000 0.000000 0.000000
# 4 0.000000 0.000000 0.000000 0.053190 0.000000 0.000000
# 5 0.000000 0.000000 0.000000 0.000000 0.053190 0.000000
# 6 0.000000 0.000000 0.000000 0.000000 0.000000 0.029667
#
#
# Mechanical properties :
#
#
# Convention : Reuss Voigt Hill
#
# Bulk Modulus (GPa) = 36.55683 60.01642 48.28662
# Shear Modulus (GPa) = 20.21418 23.63965 21.92692
#
# Velocity S-wave (km/s) = 3.29212 3.56015 3.42876
# Velocity P-wave (km/s) = 5.83534 7.00558 6.44706
#
# Compressibility (1/GPa) = 0.02735467
#
# Stress axis : x y z
#
# Youngs Moduli (GPa) = 67.24198 67.24198 28.54966
#
# Poissons Ratio (x) = 0.54259 0.15186
# Poissons Ratio (y) = 0.54259 0.15186
# Poissons Ratio (z) = 0.35767 0.35767
#
# Static dielectric constant tensor:
#      x y z
#    x 3.616210 0.000000 0.000000 
#    y 0.000000 3.616210 0.000000 
#    z 0.000000 0.000000 3.209100 
# 
# 
# High freq. dielectric constant tensor:
#      x y z
#    x 1.712200 0.000000 0.000000 
#    y 0.000000 1.712200 0.000000 
#    z 0.000000 0.000000 1.717110 
# 
# From -- ./inp_files/6001.got.cif
#   From: 2010.03.12/outbox.cif.g09.slc.cpg/sg139_4_cif.got.tgz:6001.got - 2010.04.08 09:46:31.
