data_PCOD8319190
_publ_section_title
;
Structure prediction by ZEFSAII (Michael W. Deem and Ramdas Pophale) SiO2 
 PCOD8319190
Probable space group: P 42/N C M
;
_chemical_formula_sum "Si O2"
_cell_formula_units_Z 96
_cell_length_a 22.248084
_cell_length_b 22.248084
_cell_length_c 9.526037
_cell_angle_alpha 90.000000
_cell_angle_beta 90.000000
_cell_angle_gamma 90.000000
_cell_volume 4715.171518
_symmetry_space_group_name_H-M "P 42/N C M"
_symmetry_group_IT_number 138
_space_group.IT_coordinate_system_code '2'
_symmetry_cell_setting 'tetragonal'
loop_
_space_group_symop_operation_xyz
x,y,z
1/2-y,x,1/2+z
1/2-x,1/2-y,z
y,1/2-x,1/2+z
1/2+x,-y,1/2-z
-x,1/2+y,1/2-z
1/2+y,1/2+x,-z
-y,-x,-z
-x,-y,-z
1/2+y,-x,1/2-z
1/2+x,1/2+y,-z
-y,1/2+x,1/2-z
1/2-x,y,1/2+z
x,1/2-y,1/2+z
1/2-y,1/2-x,z
y,x,z
loop_
_atom_site_type_symbol
_atom_site_label
_atom_site_fract_x
_atom_site_fract_y
_atom_site_fract_z
Si Si1 0.922715 0.269714 0.198011
Si Si2 0.417700 0.218067 0.612934
Si Si3 0.251935 0.343595 0.868927
Si Si4 0.611112 0.988105 0.269756
Si Si5 0.992565 0.288240 0.932029
Si Si6 0.880506 0.139617 0.159045
O O1 0.981946 0.254655 0.294288
O O2 0.884485 0.208475 0.210043
O O3 0.889639 0.328275 0.251153
O O4 0.935157 0.283996 0.034714
O O5 0.359428 0.213835 0.514441
O O6 0.401125 0.239134 0.770401
O O7 0.452751 0.154675 0.621370
O O8 0.453829 0.268904 0.531361
O O9 0.188203 0.311798 0.900190
O O10 0.296985 0.296985 0.791437
O O11 0.643653 0.993293 0.117848
O O12 0.602856 0.056500 0.324476
O O13 0.547369 0.952632 0.257571
O O14 0.860944 0.139057 0.000000
#
# Coordination Sequence:
#
# PCOD8319190 Si02
#       6
#    16  16  16  16  16  16
#     4  11  22  42  69  98 129 170 207 268 333 393
#     4  12  20  37  61  83 121 170 216 263 321 388
#     4  11  23  35  52  83 120 160 213 279 334 376
#     4  11  24  40  65  97 131 177 225 270 323 394
#     4  11  21  41  64  94 129 171 217 264 325 393
#     4  11  23  44  70 100 137 169 217 270 333 398
#
# _framework density 20.359811000000001
#
# number of rings (size 3 to 8) (size 9 to 14) (size 15 to 20)
#    0.000    0.833    6.667    2.000    0.000    5.333 
#    0.000    2.500    0.000    0.000    0.000    0.000 
#    0.000    0.000    0.000    0.000    0.000    0.000 
#
# Total GULP energy -1189629.293762 kJ/mol
# GULP energy per Si atom -12391.971810 kJ/mol
# Density = 2.031347 g / cm^3
# Si number density = 20.359811 Si / 1000 Ang^3
#
#
#
# Elastic Constant Matrix: (Units=GPa)
#
#
# Indices 1 2 3 4 5 6 
#
# 1 91.7179 53.3144 21.1610 0.0000 0.0000 0.0000
# 2 53.3144 91.7167 21.1604 0.0000 0.0000 0.0000
# 3 21.1610 21.1604 104.3961 0.0000 0.0000 0.0000
# 4 0.0000 0.0000 0.0000 25.6140 0.0000 0.0000
# 5 0.0000 0.0000 0.0000 0.0000 25.6143 0.0000
# 6 0.0000 0.0000 0.0000 0.0000 0.0000 37.6372
#
#
#
# Elastic Compliance Matrix: (Units=1/GPa)
#
#
# Indices 1 2 3 4 5 6 
#
# 1 0.016684 -0.009356 -0.001486 0.000000 0.000000 0.000000
# 2 -0.009356 0.016684 -0.001485 0.000000 0.000000 0.000000
# 3 -0.001486 -0.001485 0.010181 0.000000 0.000000 0.000000
# 4 0.000000 0.000000 0.000000 0.039041 0.000000 0.000000
# 5 0.000000 0.000000 0.000000 0.000000 0.039041 0.000000
# 6 0.000000 0.000000 0.000000 0.000000 0.000000 0.026569
#
#
# Mechanical properties :
#
#
# Convention : Reuss Voigt Hill
#
# Bulk Modulus (GPa) = 52.92049 53.23359 53.07704
# Shear Modulus (GPa) = 27.90920 30.58609 29.24764
#
# Velocity S-wave (km/s) = 3.70645 3.88013 3.79428
# Velocity P-wave (km/s) = 6.66078 6.80272 6.73213
#
# Compressibility (1/GPa) = 0.01889627
#
# Stress axis : x y z
#
# Youngs Moduli (GPa) = 59.93768 59.93697 98.22124
#
# Poissons Ratio (x) = 0.56074 0.14591
# Poissons Ratio (y) = 0.56075 0.14590
# Poissons Ratio (z) = 0.08904 0.08903
#
# Static dielectric constant tensor:
#      x y z
#    x 3.883560 0.000000 0.000000 
#    y 0.000000 3.883590 0.000000 
#    z 0.000000 0.000000 4.177290 
# 
# 
# High freq. dielectric constant tensor:
#      x y z
#    x 1.789000 0.000000 0.000000 
#    y 0.000000 1.789000 0.000000 
#    z 0.000000 0.000000 1.806890 
# 
# From -- ./inp_files/1707.got.cif
#   From: 2010.03.12/outbox.cif.g09.slc.cpg/sg138_1_cif.got.tgz:1707.got - 2010.04.08 09:41:05.
