data_PCOD8319492
_publ_section_title
;
Structure prediction by ZEFSAII (Michael W. Deem and Ramdas Pophale) SiO2 
 PCOD8319492
Probable space group: I 4/M M M
;
_chemical_formula_sum "Si O2"
_cell_formula_units_Z 176
_cell_length_a 17.579959
_cell_length_b 17.579959
_cell_length_c 32.410609
_cell_angle_alpha 90.000000
_cell_angle_beta 90.000000
_cell_angle_gamma 90.000000
_cell_volume 10016.659418
_symmetry_space_group_name_H-M "I 4/M M M"
_symmetry_group_IT_number 139
_symmetry_cell_setting 'tetragonal'
loop_
_space_group_symop_operation_xyz
x,y,z
-y,x,z
-x,-y,z
y,-x,z
x,-y,-z
-x,y,-z
y,x,-z
-y,-x,-z
-x,-y,-z
y,-x,-z
x,y,-z
-y,x,-z
-x,y,z
x,-y,z
-y,-x,z
y,x,z
1/2+x,1/2+y,1/2+z
1/2-y,1/2+x,1/2+z
1/2-x,1/2-y,1/2+z
1/2+y,1/2-x,1/2+z
1/2+x,1/2-y,1/2-z
1/2-x,1/2+y,1/2-z
1/2+y,1/2+x,1/2-z
1/2-y,1/2-x,1/2-z
1/2-x,1/2-y,1/2-z
1/2+y,1/2-x,1/2-z
1/2+x,1/2+y,1/2-z
1/2-y,1/2+x,1/2-z
1/2-x,1/2+y,1/2+z
1/2+x,1/2-y,1/2+z
1/2-y,1/2-x,1/2+z
1/2+y,1/2+x,1/2+z
loop_
_atom_site_type_symbol
_atom_site_label
_atom_site_fract_x
_atom_site_fract_y
_atom_site_fract_z
Si Si1 0.787707 0.909938 0.903695
Si Si2 0.708487 0.833417 0.578231
Si Si3 0.912984 0.205444 0.266435
Si Si4 0.276646 0.086772 0.815624
Si Si5 0.781350 0.091936 0.500000
Si Si6 0.680101 0.086020 0.339314
O O1 0.866036 0.866036 0.916508
O O2 0.714513 0.870956 0.926550
O O3 0.778152 0.898092 0.854576
O O4 0.792372 0.000000 0.915476
O O5 0.773009 0.773009 0.589276
O O6 0.729465 0.882296 0.538229
O O7 0.706556 0.894079 0.614790
O O8 0.875542 0.124459 0.273695
O O9 0.874198 0.245287 0.226170
O O10 0.899597 0.251927 0.307883
O O11 0.000000 0.188524 0.257557
O O12 0.361761 0.111166 0.825592
O O13 0.283914 0.000000 0.804860
O O14 0.862874 0.137127 0.500000
O O15 0.795497 0.000000 0.500000
O O16 0.650770 0.000000 0.338049
#
# Coordination Sequence:
#
# PCOD8319492 Si02
#       6
#    32  32  32  32  16  32
#     4   9  17  30  49  73 101 132 167 207 247 287
#     4   9  18  33  52  73  98 131 166 198 237 289
#     4  10  20  32  46  65  89 119 156 196 237 281
#     4   9  18  31  45  65  94 126 161 198 235 278
#     4  10  20  35  57  81 104 130 160 198 244 294
#     4  10  19  30  47  70  94 122 157 196 236 280
#
# _framework density 17.570727000000002
#
# number of rings (size 3 to 8) (size 9 to 14) (size 15 to 20)
#    0.000    2.545    0.000    2.182    0.000    3.727 
#    0.000    0.455    0.000    8.727    0.000    2.545 
#    0.000    3.636    0.000    0.000    0.000    0.182 
#
# Total GULP energy -1090542.630870 kJ/mol
# GULP energy per Si atom -12392.529896 kJ/mol
# Density = 1.753074 g / cm^3
# Si number density = 17.570727 Si / 1000 Ang^3
#
#
#
# Elastic Constant Matrix: (Units=GPa)
#
#
# Indices 1 2 3 4 5 6 
#
# 1 80.5371 46.9373 33.4641 0.0000 0.0000 0.0000
# 2 46.9373 80.5372 33.4643 0.0000 0.0000 0.0000
# 3 33.4641 33.4643 75.7837 0.0000 0.0000 0.0000
# 4 0.0000 0.0000 0.0000 20.6781 0.0000 0.0000
# 5 0.0000 0.0000 0.0000 0.0000 20.6777 0.0000
# 6 0.0000 0.0000 0.0000 0.0000 0.0000 25.8920
#
#
#
# Elastic Compliance Matrix: (Units=1/GPa)
#
#
# Indices 1 2 3 4 5 6 
#
# 1 0.019987 -0.009775 -0.004509 0.000000 0.000000 0.000000
# 2 -0.009775 0.019987 -0.004510 0.000000 0.000000 0.000000
# 3 -0.004509 -0.004510 0.017178 0.000000 0.000000 0.000000
# 4 0.000000 0.000000 0.000000 0.048360 0.000000 0.000000
# 5 0.000000 0.000000 0.000000 0.000000 0.048361 0.000000
# 6 0.000000 0.000000 0.000000 0.000000 0.000000 0.038622
#
#
# Mechanical properties :
#
#
# Convention : Reuss Voigt Hill
#
# Bulk Modulus (GPa) = 51.11257 51.62105 51.36681
# Shear Modulus (GPa) = 21.13223 21.64904 21.39063
#
# Velocity S-wave (km/s) = 3.47175 3.51395 3.49291
# Velocity P-wave (km/s) = 6.72484 6.77544 6.75019
#
# Compressibility (1/GPa) = 0.01956466
#
# Stress axis : x y z
#
# Youngs Moduli (GPa) = 50.03202 50.03194 58.21381
#
# Poissons Ratio (x) = 0.48905 0.26251
# Poissons Ratio (y) = 0.48906 0.26252
# Poissons Ratio (z) = 0.22562 0.22562
#
# Static dielectric constant tensor:
#      x y z
#    x 3.282620 0.000000 0.000000 
#    y 0.000000 3.282620 0.000000 
#    z 0.000000 0.000000 3.317830 
# 
# 
# High freq. dielectric constant tensor:
#      x y z
#    x 1.674490 0.000000 0.000000 
#    y 0.000000 1.674490 0.000000 
#    z 0.000000 0.000000 1.677310 
# 
# From -- ./inp_files/14245.got.cif
#   From: 2010.03.12/outbox.cif.g09.slc.cpg/sg139_8_cif.got.tgz:14245.got - 2010.04.08 09:46:31.
