data_PCOD8319549
_publ_section_title
;
Structure prediction by ZEFSAII (Michael W. Deem and Ramdas Pophale) SiO2 
 PCOD8319549
Probable space group: I 4/M M M
;
_chemical_formula_sum "Si O2"
_cell_formula_units_Z 144
_cell_length_a 21.192950
_cell_length_b 21.192950
_cell_length_c 19.061557
_cell_angle_alpha 90.000000
_cell_angle_beta 90.000000
_cell_angle_gamma 90.000000
_cell_volume 8561.329245
_symmetry_space_group_name_H-M "I 4/M M M"
_symmetry_group_IT_number 139
_symmetry_cell_setting 'tetragonal'
loop_
_space_group_symop_operation_xyz
x,y,z
-y,x,z
-x,-y,z
y,-x,z
x,-y,-z
-x,y,-z
y,x,-z
-y,-x,-z
-x,-y,-z
y,-x,-z
x,y,-z
-y,x,-z
-x,y,z
x,-y,z
-y,-x,z
y,x,z
1/2+x,1/2+y,1/2+z
1/2-y,1/2+x,1/2+z
1/2-x,1/2-y,1/2+z
1/2+y,1/2-x,1/2+z
1/2+x,1/2-y,1/2-z
1/2-x,1/2+y,1/2-z
1/2+y,1/2+x,1/2-z
1/2-y,1/2-x,1/2-z
1/2-x,1/2-y,1/2-z
1/2+y,1/2-x,1/2-z
1/2+x,1/2+y,1/2-z
1/2-y,1/2+x,1/2-z
1/2-x,1/2+y,1/2+z
1/2+x,1/2-y,1/2+z
1/2-y,1/2-x,1/2+z
1/2+y,1/2+x,1/2+z
loop_
_atom_site_type_symbol
_atom_site_label
_atom_site_fract_x
_atom_site_fract_y
_atom_site_fract_z
Si Si1 0.878944 0.350138 0.918523
Si Si2 0.753968 0.572035 0.077917
Si Si3 0.000000 0.570912 0.916950
Si Si4 0.926570 0.826164 0.709697
Si Si5 0.261459 0.157951 0.199475
O O1 0.815534 0.388397 0.904966
O O2 0.937924 0.391675 0.891777
O O3 0.873143 0.287559 0.871759
O O4 0.887182 0.330851 0.000000
O O5 0.775488 0.500000 0.084975
O O6 0.697958 0.587829 0.131203
O O7 0.728316 0.587129 0.000000
O O8 0.000000 0.500000 0.884637
O O9 0.000000 0.565376 0.000000
O O10 0.894060 0.894060 0.718418
O O11 0.897951 0.776180 0.763391
O O12 0.000000 0.834393 0.725547
O O13 0.216295 0.216295 0.179535
O O14 0.317561 0.182440 0.250000
#
# Coordination Sequence:
#
# PCOD8319549 Si02
#       5
#    32  32  16  32  32
#     4  10  19  31  51  75 100 136 175 209 246 293
#     4   9  17  30  49  74 102 133 170 205 241 292
#     4   9  18  32  50  74 106 140 172 206 244 289
#     4  10  21  36  54  75 100 133 168 209 260 309
#     4  10  20  35  51  73 104 132 163 207 258 302
#
# _framework density 16.819818000000001
#
# number of rings (size 3 to 8) (size 9 to 14) (size 15 to 20)
#    0.000    2.333    2.222    0.667    1.556    3.778 
#    0.000    2.222    0.000    0.000    0.000    3.111 
#    0.000    0.000    0.000    4.889    0.000    0.000 
#
# Total GULP energy -892798.800412 kJ/mol
# GULP energy per Si atom -12399.983339 kJ/mol
# Density = 1.678154 g / cm^3
# Si number density = 16.819818 Si / 1000 Ang^3
#
#
#
# Elastic Constant Matrix: (Units=GPa)
#
#
# Indices 1 2 3 4 5 6 
#
# 1 100.0167 67.7189 53.1574 0.0000 0.0000 0.0000
# 2 67.7189 100.0185 53.1577 0.0000 0.0000 0.0000
# 3 53.1574 53.1577 81.5456 0.0000 0.0000 0.0000
# 4 0.0000 0.0000 0.0000 23.8967 0.0000 0.0000
# 5 0.0000 0.0000 0.0000 0.0000 23.8966 0.0000
# 6 0.0000 0.0000 0.0000 0.0000 0.0000 -36.2115
#
#
#
# Elastic Compliance Matrix: (Units=1/GPa)
#
#
# Indices 1 2 3 4 5 6 
#
# 1 0.020560 -0.010401 -0.006623 0.000000 0.000000 0.000000
# 2 -0.010401 0.020560 -0.006623 0.000000 0.000000 0.000000
# 3 -0.006623 -0.006623 0.020897 0.000000 0.000000 0.000000
# 4 0.000000 0.000000 0.000000 0.041847 0.000000 0.000000
# 5 0.000000 0.000000 0.000000 0.000000 0.041847 0.000000
# 6 0.000000 0.000000 0.000000 0.000000 0.000000 -0.027616
#
#
# Mechanical properties :
#
#
# Convention : Reuss Voigt Hill
#
# Bulk Modulus (GPa) = 67.90940 69.96097 68.93518
# Shear Modulus (GPa) = 29.36065 9.48617 19.42341
#
# Velocity S-wave (km/s) = 4.18257 2.37742 3.40191
# Velocity P-wave (km/s) = 7.98671 7.01576 7.51692
#
# Compressibility (1/GPa) = 0.01472550
#
# Stress axis : x y z
#
# Youngs Moduli (GPa) = 48.63741 48.63839 47.85315
#
# Poissons Ratio (x) = 0.50588 0.31691
# Poissons Ratio (y) = 0.50587 0.31691
# Poissons Ratio (z) = 0.32211 0.32211
#
# Static dielectric constant tensor:
#      x y z
#    x 3.104750 0.000000 0.000000 
#    y 0.000000 3.104750 0.000000 
#    z 0.000000 0.000000 3.116560 
# 
# 
# High freq. dielectric constant tensor:
#      x y z
#    x 1.644470 0.000000 0.000000 
#    y 0.000000 1.644470 0.000000 
#    z 0.000000 0.000000 1.637830 
# 
# From -- ./inp_files/8152.got.cif
#   From: 2010.03.12/outbox.cif.g09.slc.cpg/sg139_5_cif.got.tgz:8152.got - 2010.04.08 09:46:31.
