data_PCOD8319699
_publ_section_title
;
Structure prediction by ZEFSAII (Michael W. Deem and Ramdas Pophale) SiO2 
 PCOD8319699
Probable space group: I 4/M M M
;
_chemical_formula_sum "Si O2"
_cell_formula_units_Z 160
_cell_length_a 29.573759
_cell_length_b 29.573759
_cell_length_c 8.932203
_cell_angle_alpha 90.000000
_cell_angle_beta 90.000000
_cell_angle_gamma 90.000000
_cell_volume 7812.169247
_symmetry_space_group_name_H-M "I 4/M M M"
_symmetry_group_IT_number 139
_symmetry_cell_setting 'tetragonal'
loop_
_space_group_symop_operation_xyz
x,y,z
-y,x,z
-x,-y,z
y,-x,z
x,-y,-z
-x,y,-z
y,x,-z
-y,-x,-z
-x,-y,-z
y,-x,-z
x,y,-z
-y,x,-z
-x,y,z
x,-y,z
-y,-x,z
y,x,z
1/2+x,1/2+y,1/2+z
1/2-y,1/2+x,1/2+z
1/2-x,1/2-y,1/2+z
1/2+y,1/2-x,1/2+z
1/2+x,1/2-y,1/2-z
1/2-x,1/2+y,1/2-z
1/2+y,1/2+x,1/2-z
1/2-y,1/2-x,1/2-z
1/2-x,1/2-y,1/2-z
1/2+y,1/2-x,1/2-z
1/2+x,1/2+y,1/2-z
1/2-y,1/2+x,1/2-z
1/2-x,1/2+y,1/2+z
1/2+x,1/2-y,1/2+z
1/2-y,1/2-x,1/2+z
1/2+y,1/2+x,1/2+z
loop_
_atom_site_type_symbol
_atom_site_label
_atom_site_fract_x
_atom_site_fract_y
_atom_site_fract_z
Si Si1 0.616100 0.948745 0.175241
Si Si2 0.000000 0.854519 0.665219
Si Si3 0.747702 0.000000 0.668071
Si Si4 0.211026 0.410781 0.676465
Si Si5 0.221205 0.851708 0.323141
Si Si6 0.843410 0.916175 0.837802
O O1 0.571128 0.928873 0.250000
O O2 0.658184 0.916176 0.216294
O O3 0.624931 0.000000 0.233898
O O4 0.607884 0.949862 0.000000
O O5 0.043545 0.870168 0.757438
O O6 0.000000 0.876484 0.500000
O O7 0.000000 0.800974 0.656772
O O8 0.734752 0.044872 0.757581
O O9 0.726530 0.000000 0.500000
O O10 0.219315 0.409144 0.500000
O O11 0.230159 0.362836 0.746067
O O12 0.227422 0.850518 0.500000
O O13 0.195073 0.804928 0.271220
O O14 0.193027 0.895853 0.276676
O O15 0.879061 0.879061 0.877930
O O16 0.821579 0.930531 0.000000
#
# Coordination Sequence:
#
# PCOD8319699 Si02
#       6
#    32  16  16  32  32  32
#     4  10  23  43  64  92 126 159 200 247 299 355
#     4  11  21  31  47  72 101 133 171 218 275 337
#     4  11  21  31  49  81 112 146 190 232 288 350
#     4  11  21  36  58  83 118 155 194 245 293 348
#     4  10  20  33  50  78 116 152 190 236 284 341
#     4  10  20  32  47  68  95 131 174 219 273 335
#
# _framework density 20.480865999999999
#
# number of rings (size 3 to 8) (size 9 to 14) (size 15 to 20)
#    0.000    1.600    3.000    2.400    0.000    5.400 
#    0.000    1.000    0.000    0.900    0.000    2.100 
#    0.000    0.000    0.000    0.000    0.000    0.000 
#
# Total GULP energy -991164.788346 kJ/mol
# GULP energy per Si atom -12389.559854 kJ/mol
# Density = 2.043425 g / cm^3
# Si number density = 20.480866 Si / 1000 Ang^3
#
#
#
# Elastic Constant Matrix: (Units=GPa)
#
#
# Indices 1 2 3 4 5 6 
#
# 1 76.2358 43.7559 35.3675 0.0000 0.0000 0.0000
# 2 43.7559 76.2254 35.3676 0.0000 0.0000 0.0000
# 3 35.3675 35.3676 101.8775 0.0000 0.0000 0.0000
# 4 0.0000 0.0000 0.0000 24.2623 0.0000 0.0000
# 5 0.0000 0.0000 0.0000 0.0000 24.2672 0.0000
# 6 0.0000 0.0000 0.0000 0.0000 0.0000 13.2312
#
#
#
# Elastic Compliance Matrix: (Units=1/GPa)
#
#
# Indices 1 2 3 4 5 6 
#
# 1 0.020634 -0.010157 -0.003637 0.000000 0.000000 0.000000
# 2 -0.010157 0.020638 -0.003638 0.000000 0.000000 0.000000
# 3 -0.003637 -0.003638 0.012342 0.000000 0.000000 0.000000
# 4 0.000000 0.000000 0.000000 0.041216 0.000000 0.000000
# 5 0.000000 0.000000 0.000000 0.000000 0.041208 0.000000
# 6 0.000000 0.000000 0.000000 0.000000 0.000000 0.075579
#
#
# Mechanical properties :
#
#
# Convention : Reuss Voigt Hill
#
# Bulk Modulus (GPa) = 53.33918 53.70232 53.52075
# Shear Modulus (GPa) = 19.78385 21.67532 20.72959
#
# Velocity S-wave (km/s) = 3.11137 3.25671 3.18487
# Velocity P-wave (km/s) = 6.24560 6.35761 6.30185
#
# Compressibility (1/GPa) = 0.01874795
#
# Stress axis : x y z
#
# Youngs Moduli (GPa) = 48.46283 48.45495 81.02740
#
# Poissons Ratio (x) = 0.49217 0.29471
# Poissons Ratio (y) = 0.49225 0.29481
# Poissons Ratio (z) = 0.17627 0.17630
#
# Static dielectric constant tensor:
#      x y z
#    x 3.732530 0.000000 0.000000 
#    y 0.000000 3.732540 0.000000 
#    z 0.000000 0.000000 3.882730 
# 
# 
# High freq. dielectric constant tensor:
#      x y z
#    x 1.781870 0.000000 0.000000 
#    y 0.000000 1.781870 0.000000 
#    z 0.000000 0.000000 1.813080 
# 
# From -- ./inp_files/2214.got.cif
#   From: 2010.03.12/outbox.cif.g09.slc.cpg/sg139_2_cif.got.tgz:2214.got - 2010.04.08 09:46:31.
