data_PCOD8319784
_publ_section_title
;
Structure prediction by ZEFSAII (Michael W. Deem and Ramdas Pophale) SiO2 
 PCOD8319784
Probable space group: I 4/M M M
;
_chemical_formula_sum "Si O2"
_cell_formula_units_Z 144
_cell_length_a 27.553612
_cell_length_b 27.553612
_cell_length_c 11.042064
_cell_angle_alpha 90.000000
_cell_angle_beta 90.000000
_cell_angle_gamma 90.000000
_cell_volume 8383.151930
_symmetry_space_group_name_H-M "I 4/M M M"
_symmetry_group_IT_number 139
_symmetry_cell_setting 'tetragonal'
loop_
_space_group_symop_operation_xyz
x,y,z
-y,x,z
-x,-y,z
y,-x,z
x,-y,-z
-x,y,-z
y,x,-z
-y,-x,-z
-x,-y,-z
y,-x,-z
x,y,-z
-y,x,-z
-x,y,z
x,-y,z
-y,-x,z
y,x,z
1/2+x,1/2+y,1/2+z
1/2-y,1/2+x,1/2+z
1/2-x,1/2-y,1/2+z
1/2+y,1/2-x,1/2+z
1/2+x,1/2-y,1/2-z
1/2-x,1/2+y,1/2-z
1/2+y,1/2+x,1/2-z
1/2-y,1/2-x,1/2-z
1/2-x,1/2-y,1/2-z
1/2+y,1/2-x,1/2-z
1/2+x,1/2+y,1/2-z
1/2-y,1/2+x,1/2-z
1/2-x,1/2+y,1/2+z
1/2+x,1/2-y,1/2+z
1/2-y,1/2-x,1/2+z
1/2+y,1/2+x,1/2+z
loop_
_atom_site_type_symbol
_atom_site_label
_atom_site_fract_x
_atom_site_fract_y
_atom_site_fract_z
Si Si1 0.722982 0.854372 0.249228
Si Si2 0.832244 0.053919 0.000000
Si Si3 0.225217 0.225217 0.365143
Si Si4 0.444616 0.261919 0.141853
Si Si5 0.055160 0.867555 0.737348
Si Si6 0.853529 0.226299 0.000000
O O1 0.668741 0.831260 0.250000
O O2 0.760459 0.831105 0.348509
O O3 0.723464 0.911288 0.283452
O O4 0.741886 0.841523 0.116244
O O5 0.865250 0.061550 0.882009
O O6 0.786772 0.089802 0.000000
O O7 0.809421 0.000000 0.000000
O O8 0.242542 0.242542 0.500000
O O9 0.250000 0.250000 0.250000
O O10 0.500000 0.251877 0.181342
O O11 0.429654 0.316533 0.177785
O O12 0.437640 0.253802 0.000000
O O13 0.090655 0.909345 0.686469
O O14 0.000000 0.880949 0.701143
O O15 0.823457 0.176544 0.000000
#
# Coordination Sequence:
#
# PCOD8319784 Si02
#       6
#    32  16  16  32  32  16
#     4  11  24  34  54  77 110 135 176 216 265 312
#     4  10  20  34  51  71  97 127 172 218 265 317
#     4  10  22  34  50  74 110 142 177 216 261 315
#     4  10  22  39  55  73 102 140 179 215 260 318
#     4  10  20  34  51  72  95 127 169 222 274 323
#     4  12  22  34  50  76 103 144 172 214 269 331
#
# _framework density 17.177309999999999
#
# number of rings (size 3 to 8) (size 9 to 14) (size 15 to 20)
#    0.000    1.556    3.333    1.667    9.333    0.667 
#    0.000    0.000    0.000    2.000    0.000    3.111 
#    0.000    0.444    0.000    2.444    0.000    0.000 
#
# Total GULP energy -892505.339070 kJ/mol
# GULP energy per Si atom -12395.907487 kJ/mol
# Density = 1.713821 g / cm^3
# Si number density = 17.177310 Si / 1000 Ang^3
#
#
#
# Elastic Constant Matrix: (Units=GPa)
#
#
# Indices 1 2 3 4 5 6 
#
# 1 92.5157 64.2259 28.4043 0.0000 0.0000 0.0000
# 2 64.2259 92.5149 28.4046 0.0000 0.0000 0.0000
# 3 28.4043 28.4046 95.7373 0.0000 0.0000 0.0000
# 4 0.0000 0.0000 0.0000 19.8098 0.0000 0.0000
# 5 0.0000 0.0000 0.0000 0.0000 19.8100 0.0000
# 6 0.0000 0.0000 0.0000 0.0000 0.0000 33.4114
#
#
#
# Elastic Compliance Matrix: (Units=1/GPa)
#
#
# Indices 1 2 3 4 5 6 
#
# 1 0.021249 -0.014100 -0.002121 0.000000 0.000000 0.000000
# 2 -0.014100 0.021249 -0.002121 0.000000 0.000000 0.000000
# 3 -0.002121 -0.002121 0.011704 0.000000 0.000000 0.000000
# 4 0.000000 0.000000 0.000000 0.050480 0.000000 0.000000
# 5 0.000000 0.000000 0.000000 0.000000 0.050480 0.000000
# 6 0.000000 0.000000 0.000000 0.000000 0.000000 0.029930
#
#
# Mechanical properties :
#
#
# Convention : Reuss Voigt Hill
#
# Bulk Modulus (GPa) = 57.08642 58.09308 57.58975
# Shear Modulus (GPa) = 21.96700 25.25511 23.61105
#
# Velocity S-wave (km/s) = 3.57996 3.83856 3.71151
# Velocity P-wave (km/s) = 7.09887 7.31704 7.20878
#
# Compressibility (1/GPa) = 0.01751730
#
# Stress axis : x y z
#
# Youngs Moduli (GPa) = 47.06172 47.06116 85.44249
#
# Poissons Ratio (x) = 0.66357 0.18121
# Poissons Ratio (y) = 0.66358 0.18123
# Poissons Ratio (z) = 0.09981 0.09982
#
# Static dielectric constant tensor:
#      x y z
#    x 3.199190 0.000000 0.000000 
#    y 0.000000 3.199200 0.000000 
#    z 0.000000 0.000000 3.364830 
# 
# 
# High freq. dielectric constant tensor:
#      x y z
#    x 1.638620 0.000000 0.000000 
#    y 0.000000 1.638620 0.000000 
#    z 0.000000 0.000000 1.679520 
# 
# From -- ./inp_files/3789.got.cif
#   From: 2010.03.12/outbox.cif.g09.slc.cpg/sg139_2_cif.got.tgz:3789.got - 2010.04.08 09:46:31.
