data_PCOD8319349
_publ_section_title
;
Structure prediction by ZEFSAII (Michael W. Deem and Ramdas Pophale) SiO2 
 PCOD8319349
Probable space group: I 4/M M M
;
_chemical_formula_sum "Si O2"
_cell_formula_units_Z 240
_cell_length_a 27.692035
_cell_length_b 27.692035
_cell_length_c 19.339049
_cell_angle_alpha 90.000000
_cell_angle_beta 90.000000
_cell_angle_gamma 90.000000
_cell_volume 14830.126566
_symmetry_space_group_name_H-M "I 4/M M M"
_symmetry_group_IT_number 139
_symmetry_cell_setting 'tetragonal'
loop_
_space_group_symop_operation_xyz
x,y,z
-y,x,z
-x,-y,z
y,-x,z
x,-y,-z
-x,y,-z
y,x,-z
-y,-x,-z
-x,-y,-z
y,-x,-z
x,y,-z
-y,x,-z
-x,y,z
x,-y,z
-y,-x,z
y,x,z
1/2+x,1/2+y,1/2+z
1/2-y,1/2+x,1/2+z
1/2-x,1/2-y,1/2+z
1/2+y,1/2-x,1/2+z
1/2+x,1/2-y,1/2-z
1/2-x,1/2+y,1/2-z
1/2+y,1/2+x,1/2-z
1/2-y,1/2-x,1/2-z
1/2-x,1/2-y,1/2-z
1/2+y,1/2-x,1/2-z
1/2+x,1/2+y,1/2-z
1/2-y,1/2+x,1/2-z
1/2-x,1/2+y,1/2+z
1/2+x,1/2-y,1/2+z
1/2-y,1/2-x,1/2+z
1/2+y,1/2+x,1/2+z
loop_
_atom_site_type_symbol
_atom_site_label
_atom_site_fract_x
_atom_site_fract_y
_atom_site_fract_z
Si Si1 0.721806 0.648393 0.675780
Si Si2 0.379903 0.946327 0.377402
Si Si3 0.053263 0.728226 0.173538
Si Si4 0.847362 0.403437 0.575685
Si Si5 0.553473 0.227083 0.833519
Si Si6 0.695194 0.202442 0.419593
Si Si7 0.650047 0.725068 0.833665
Si Si8 0.946879 0.446879 0.750000
O O1 0.665329 0.665329 0.671742
O O2 0.729430 0.592018 0.655849
O O3 0.749359 0.681699 0.621280
O O4 0.741489 0.657625 0.753797
O O5 0.406399 0.905574 0.422828
O O6 0.322422 0.936720 0.374497
O O7 0.402839 0.941850 0.302142
O O8 0.389565 0.000000 0.408386
O O9 0.063155 0.679049 0.131445
O O10 0.056187 0.713536 0.253081
O O11 0.000000 0.747910 0.154195
O O12 0.829465 0.420003 0.500000
O O13 0.835431 0.347743 0.589879
O O14 0.500000 0.247540 0.851898
O O15 0.593181 0.268230 0.852736
O O16 0.705263 0.214541 0.500000
O O17 0.742679 0.181027 0.385171
O O18 0.669662 0.669662 0.842863
O O19 0.942978 0.500000 0.713853
#
# Coordination Sequence:
#
# PCOD8319349 Si02
#       8
#    32  32  32  32  32  32  32  16
#     4   9  18  30  45  66  90 114 142 180 222 259
#     4  10  18  29  46  61  77 105 139 179 224 264
#     4   9  18  31  47  64  83 110 143 179 218 259
#     4  10  20  31  42  59  85 113 144 178 213 257
#     4   9  17  30  47  66  85 107 140 181 220 259
#     4  10  19  30  43  62  89 120 149 176 210 254
#     4  10  18  29  46  66  88 114 144 178 217 259
#     4   9  18  30  44  64  81  92 124 182 235 268
#
# _framework density 16.183274000000001
#
# number of rings (size 3 to 8) (size 9 to 14) (size 15 to 20)
#    0.000    2.467    1.333    1.600    0.000    4.267 
#    0.000    0.000    0.000    0.400    0.000    2.800 
#    0.000    0.533    0.000    7.467    0.000    0.000 
#
# Total GULP energy -1486633.870325 kJ/mol
# GULP energy per Si atom -12388.615586 kJ/mol
# Density = 1.614644 g / cm^3
# Si number density = 16.183274 Si / 1000 Ang^3
#
#
#
# Elastic Constant Matrix: (Units=GPa)
#
#
# Indices 1 2 3 4 5 6 
#
# 1 76.5052 54.0858 15.9887 0.0000 0.0000 0.0000
# 2 54.0858 76.5052 15.9887 0.0000 0.0000 0.0000
# 3 15.9887 15.9887 44.0941 0.0000 0.0000 0.0000
# 4 0.0000 0.0000 0.0000 9.4158 0.0000 0.0000
# 5 0.0000 0.0000 0.0000 0.0000 9.4158 0.0000
# 6 0.0000 0.0000 0.0000 0.0000 0.0000 20.2933
#
#
#
# Elastic Compliance Matrix: (Units=1/GPa)
#
#
# Indices 1 2 3 4 5 6 
#
# 1 0.026504 -0.018100 -0.003047 0.000000 0.000000 0.000000
# 2 -0.018100 0.026504 -0.003047 0.000000 0.000000 0.000000
# 3 -0.003047 -0.003047 0.024889 0.000000 0.000000 0.000000
# 4 0.000000 0.000000 0.000000 0.106204 0.000000 0.000000
# 5 0.000000 0.000000 0.000000 0.000000 0.106204 0.000000
# 6 0.000000 0.000000 0.000000 0.000000 0.000000 0.049277
#
#
# Mechanical properties :
#
#
# Convention : Reuss Voigt Hill
#
# Bulk Modulus (GPa) = 33.89007 41.02564 37.45786
# Shear Modulus (GPa) = 12.56888 15.22773 13.89831
#
# Velocity S-wave (km/s) = 2.78988 3.07083 2.93372
# Velocity P-wave (km/s) = 5.60043 6.16271 5.88828
#
# Compressibility (1/GPa) = 0.02950717
#
# Stress axis : x y z
#
# Youngs Moduli (GPa) = 37.73024 37.73024 40.17898
#
# Poissons Ratio (x) = 0.68293 0.12243
# Poissons Ratio (y) = 0.68293 0.12243
# Poissons Ratio (z) = 0.11497 0.11497
#
# Static dielectric constant tensor:
#      x y z
#    x 3.149910 0.000000 0.000000 
#    y 0.000000 3.149910 0.000000 
#    z 0.000000 0.000000 2.946690 
# 
# 
# High freq. dielectric constant tensor:
#      x y z
#    x 1.603230 0.000000 0.000000 
#    y 0.000000 1.603230 0.000000 
#    z 0.000000 0.000000 1.612440 
# 
# From -- ./inp_files/10783.got.cif
#   From: 2010.03.12/outbox.cif.g09.slc.cpg/sg139_6_cif.got.tgz:10783.got - 2010.04.08 09:46:31.
