data_PCOD8319661
_publ_section_title
;
Structure prediction by ZEFSAII (Michael W. Deem and Ramdas Pophale) SiO2 
 PCOD8319661
Probable space group: I 4/M M M
;
_chemical_formula_sum "Si O2"
_cell_formula_units_Z 144
_cell_length_a 29.273022
_cell_length_b 29.273022
_cell_length_c 7.964173
_cell_angle_alpha 90.000000
_cell_angle_beta 90.000000
_cell_angle_gamma 90.000000
_cell_volume 6824.578028
_symmetry_space_group_name_H-M "I 4/M M M"
_symmetry_group_IT_number 139
_symmetry_cell_setting 'tetragonal'
loop_
_space_group_symop_operation_xyz
x,y,z
-y,x,z
-x,-y,z
y,-x,z
x,-y,-z
-x,y,-z
y,x,-z
-y,-x,-z
-x,-y,-z
y,-x,-z
x,y,-z
-y,x,-z
-x,y,z
x,-y,z
-y,-x,z
y,x,z
1/2+x,1/2+y,1/2+z
1/2-y,1/2+x,1/2+z
1/2-x,1/2-y,1/2+z
1/2+y,1/2-x,1/2+z
1/2+x,1/2-y,1/2-z
1/2-x,1/2+y,1/2-z
1/2+y,1/2+x,1/2-z
1/2-y,1/2-x,1/2-z
1/2-x,1/2-y,1/2-z
1/2+y,1/2-x,1/2-z
1/2+x,1/2+y,1/2-z
1/2-y,1/2+x,1/2-z
1/2-x,1/2+y,1/2+z
1/2+x,1/2-y,1/2+z
1/2-y,1/2-x,1/2+z
1/2+y,1/2+x,1/2+z
loop_
_atom_site_type_symbol
_atom_site_label
_atom_site_fract_x
_atom_site_fract_y
_atom_site_fract_z
Si Si1 0.821135 0.750525 0.802177
Si Si2 0.419977 0.774937 0.300084
Si Si3 0.948561 0.374371 0.801858
Si Si4 0.945142 0.127699 0.000000
Si Si5 0.550866 0.683165 0.816960
O O1 0.796154 0.796154 0.729126
O O2 0.793933 0.706068 0.750000
O O3 0.871478 0.743385 0.729415
O O4 0.823219 0.754043 0.000000
O O5 0.422253 0.776439 0.500000
O O6 0.431398 0.825498 0.228486
O O7 0.454070 0.736965 0.228628
O O8 0.915145 0.415145 0.750000
O O9 0.000000 0.384248 0.734260
O O10 0.949325 0.371173 0.000000
O O11 0.926021 0.155133 0.836292
O O12 0.922491 0.077510 0.000000
O O13 0.000000 0.122997 0.000000
O O14 0.500000 0.663975 0.832978
O O15 0.575170 0.675784 0.000000
#
# Coordination Sequence:
#
# PCOD8319661 Si02
#       5
#    32  32  32  16  32
#     4   9  18  31  47  70 103 143 184 227 278 337
#     4  10  19  34  56  83 114 153 194 244 298 364
#     4  10  22  38  57  81 111 151 201 257 319 384
#     4  10  22  41  64  90 126 166 205 259 311 359
#     4  10  21  37  59  88 120 156 197 244 303 361
#
# _framework density 21.100204000000002
#
# number of rings (size 3 to 8) (size 9 to 14) (size 15 to 20)
#    0.000    2.222    1.111    1.333    0.000    4.778 
#    0.000    1.111    0.000    0.000    0.000    3.111 
#    0.000    0.000    0.000    0.000    0.000    0.000 
#
# Total GULP energy -892080.823982 kJ/mol
# GULP energy per Si atom -12390.011444 kJ/mol
# Density = 2.105218 g / cm^3
# Si number density = 21.100204 Si / 1000 Ang^3
#
#
#
# Elastic Constant Matrix: (Units=GPa)
#
#
# Indices 1 2 3 4 5 6 
#
# 1 114.3363 52.2575 38.3872 0.0000 0.0000 0.0000
# 2 52.2575 114.3451 38.3901 0.0000 0.0000 0.0000
# 3 38.3872 38.3901 77.9464 0.0000 0.0000 0.0000
# 4 0.0000 0.0000 0.0000 16.1148 0.0000 0.0000
# 5 0.0000 0.0000 0.0000 0.0000 16.1142 0.0000
# 6 0.0000 0.0000 0.0000 0.0000 0.0000 32.8912
#
#
#
# Elastic Compliance Matrix: (Units=1/GPa)
#
#
# Indices 1 2 3 4 5 6 
#
# 1 0.011937 -0.004171 -0.003824 0.000000 0.000000 0.000000
# 2 -0.004171 0.011936 -0.003824 0.000000 0.000000 0.000000
# 3 -0.003824 -0.003824 0.016596 0.000000 0.000000 0.000000
# 4 0.000000 0.000000 0.000000 0.062055 0.000000 0.000000
# 5 0.000000 0.000000 0.000000 0.000000 0.062057 0.000000
# 6 0.000000 0.000000 0.000000 0.000000 0.000000 0.030403
#
#
# Mechanical properties :
#
#
# Convention : Reuss Voigt Hill
#
# Bulk Modulus (GPa) = 59.42091 62.74416 61.08253
# Shear Modulus (GPa) = 22.29831 24.86360 23.58096
#
# Velocity S-wave (km/s) = 3.25434 3.43645 3.34663
# Velocity P-wave (km/s) = 6.50718 6.74881 6.62910
#
# Compressibility (1/GPa) = 0.01682909
#
# Stress axis : x y z
#
# Youngs Moduli (GPa) = 83.77659 83.78185 60.25493
#
# Poissons Ratio (x) = 0.34948 0.23042
# Poissons Ratio (y) = 0.34946 0.23043
# Poissons Ratio (z) = 0.32037 0.32041
#
# Static dielectric constant tensor:
#      x y z
#    x 4.005070 0.000000 0.000000 
#    y 0.000000 4.005060 0.000000 
#    z 0.000000 0.000000 3.852020 
# 
# 
# High freq. dielectric constant tensor:
#      x y z
#    x 1.819940 0.000000 0.000000 
#    y 0.000000 1.819940 0.000000 
#    z 0.000000 0.000000 1.818480 
# 
# From -- ./inp_files/1978.got.cif
#   From: 2010.03.12/outbox.cif.g09.slc.cpg/sg139_1_cif.got.tgz:1978.got - 2010.04.08 09:46:31.
