data_PCOD8319070
_publ_section_title
;
Structure prediction by ZEFSAII (Michael W. Deem and Ramdas Pophale) SiO2 
 PCOD8319070
Probable space group: P 42/N C M
;
_chemical_formula_sum "Si O2"
_cell_formula_units_Z 84
_cell_length_a 23.881482
_cell_length_b 23.881482
_cell_length_c 9.139693
_cell_angle_alpha 90.000000
_cell_angle_beta 90.000000
_cell_angle_gamma 90.000000
_cell_volume 5212.597078
_symmetry_space_group_name_H-M "P 42/N C M"
_symmetry_group_IT_number 138
_space_group.IT_coordinate_system_code '2'
_symmetry_cell_setting 'tetragonal'
loop_
_space_group_symop_operation_xyz
x,y,z
1/2-y,x,1/2+z
1/2-x,1/2-y,z
y,1/2-x,1/2+z
1/2+x,-y,1/2-z
-x,1/2+y,1/2-z
1/2+y,1/2+x,-z
-y,-x,-z
-x,-y,-z
1/2+y,-x,1/2-z
1/2+x,1/2+y,-z
-y,1/2+x,1/2-z
1/2-x,y,1/2+z
x,1/2-y,1/2+z
1/2-y,1/2-x,z
y,x,z
loop_
_atom_site_type_symbol
_atom_site_label
_atom_site_fract_x
_atom_site_fract_y
_atom_site_fract_z
Si Si1 0.408946 0.998933 0.832051
Si Si2 0.162277 0.337723 0.663096
Si Si3 0.750000 0.750000 0.250013
Si Si4 0.408945 0.998933 0.167943
Si Si5 0.041625 0.305787 0.673793
Si Si6 0.662277 0.837724 0.663121
Si Si7 0.305786 0.041625 0.326194
O O1 0.440276 0.940276 0.804036
O O2 0.450286 0.049715 0.794529
O O3 0.356384 0.001774 0.723615
O O4 0.388938 0.002964 0.999997
O O5 0.209979 0.290022 0.655542
O O6 0.104869 0.316133 0.736936
O O7 0.145484 0.354517 0.499988
O O8 0.709979 0.709979 0.155568
O O9 0.450285 0.049716 0.205463
O O10 0.356383 0.001773 0.276375
O O11 0.018493 0.250001 0.749994
O O12 0.039510 0.298692 0.499993
O O13 0.604868 0.816133 0.736957
#
# Coordination Sequence:
#
# PCOD8319070 Si02
#       7
#    16   8   4  16  16   8  16
#     4   9  18  33  52  73  96 125 161 202 253 306
#     4  10  21  31  42  61  87 123 166 208 246 285
#     4  12  18  36  44  54  88 128 178 212 246 276
#     4   9  18  33  52  73  96 125 161 202 253 306
#     4  11  21  34  48  69  96 126 166 208 252 295
#     4  10  21  31  42  61  87 123 166 208 246 285
#     4  11  21  34  48  69  96 126 166 208 252 295
#
# _framework density 16.114808
#
# number of rings (size 3 to 8) (size 9 to 14) (size 15 to 20)
#    0.000    1.905    3.810    2.571    0.000    0.762 
#    0.000    1.905    0.000    0.000    0.000    0.000 
#    0.000    0.762    0.000    8.000    0.000    3.429 
#
# Total GULP energy -1041448.074447 kJ/mol
# GULP energy per Si atom -12398.191362 kJ/mol
# Density = 1.607813 g / cm^3
# Si number density = 16.114808 Si / 1000 Ang^3
#
#
#
# Elastic Constant Matrix: (Units=GPa)
#
#
# Indices 1 2 3 4 5 6 
#
# 1 82.5794 42.2834 39.8013 0.0000 0.0000 0.0000
# 2 42.2834 82.5794 39.8013 0.0000 0.0000 0.0000
# 3 39.8013 39.8013 79.3331 0.0000 0.0000 0.0000
# 4 0.0000 0.0000 0.0000 24.7469 0.0000 0.0000
# 5 0.0000 0.0000 0.0000 0.0000 24.7469 0.0000
# 6 0.0000 0.0000 0.0000 0.0000 0.0000 25.3666
#
#
#
# Elastic Compliance Matrix: (Units=1/GPa)
#
#
# Indices 1 2 3 4 5 6 
#
# 1 0.018296 -0.006521 -0.005907 0.000000 0.000000 0.000000
# 2 -0.006521 0.018296 -0.005907 0.000000 0.000000 0.000000
# 3 -0.005907 -0.005907 0.018533 0.000000 0.000000 0.000000
# 4 0.000000 0.000000 0.000000 0.040409 0.000000 0.000000
# 5 0.000000 0.000000 0.000000 0.000000 0.040409 0.000000
# 6 0.000000 0.000000 0.000000 0.000000 0.000000 0.039422
#
#
# Mechanical properties :
#
#
# Convention : Reuss Voigt Hill
#
# Bulk Modulus (GPa) = 54.19292 54.25157 54.22225
# Shear Modulus (GPa) = 22.91621 23.14580 23.03101
#
# Velocity S-wave (km/s) = 3.77511 3.79397 3.78455
# Velocity P-wave (km/s) = 7.25977 7.27537 7.26758
#
# Compressibility (1/GPa) = 0.01845260
#
# Stress axis : x y z
#
# Youngs Moduli (GPa) = 54.65783 54.65783 53.95889
#
# Poissons Ratio (x) = 0.35641 0.31876
# Poissons Ratio (y) = 0.35641 0.31876
# Poissons Ratio (z) = 0.32289 0.32289
#
# Static dielectric constant tensor:
#      x y z
#    x 2.912780 0.000000 0.000000 
#    y 0.000000 2.912780 0.000000 
#    z 0.000000 0.000000 2.864810 
# 
# 
# High freq. dielectric constant tensor:
#      x y z
#    x 1.598900 0.000000 0.000000 
#    y 0.000000 1.598900 0.000000 
#    z 0.000000 0.000000 1.615200 
# 
# From -- ./inp_files/1687.got.cif
#   From: 2010.03.12/outbox.cif.g09.slc.cpg/sg138_1_cif.got.tgz:1687.got - 2010.04.08 09:41:05.
