data_PCOD8319866
_publ_section_title
;
Structure prediction by ZEFSAII (Michael W. Deem and Ramdas Pophale) SiO2 
 PCOD8319866
Probable space group: I 4/M M M
;
_chemical_formula_sum "Si O2"
_cell_formula_units_Z 128
_cell_length_a 25.462821
_cell_length_b 25.462821
_cell_length_c 10.630914
_cell_angle_alpha 90.000000
_cell_angle_beta 90.000000
_cell_angle_gamma 90.000000
_cell_volume 6892.608939
_symmetry_space_group_name_H-M "I 4/M M M"
_symmetry_group_IT_number 139
_symmetry_cell_setting 'tetragonal'
loop_
_space_group_symop_operation_xyz
x,y,z
-y,x,z
-x,-y,z
y,-x,z
x,-y,-z
-x,y,-z
y,x,-z
-y,-x,-z
-x,-y,-z
y,-x,-z
x,y,-z
-y,x,-z
-x,y,z
x,-y,z
-y,-x,z
y,x,z
1/2+x,1/2+y,1/2+z
1/2-y,1/2+x,1/2+z
1/2-x,1/2-y,1/2+z
1/2+y,1/2-x,1/2+z
1/2+x,1/2-y,1/2-z
1/2-x,1/2+y,1/2-z
1/2+y,1/2+x,1/2-z
1/2-y,1/2-x,1/2-z
1/2-x,1/2-y,1/2-z
1/2+y,1/2-x,1/2-z
1/2+x,1/2+y,1/2-z
1/2-y,1/2+x,1/2-z
1/2-x,1/2+y,1/2+z
1/2+x,1/2-y,1/2+z
1/2-y,1/2-x,1/2+z
1/2+y,1/2+x,1/2+z
loop_
_atom_site_type_symbol
_atom_site_label
_atom_site_fract_x
_atom_site_fract_y
_atom_site_fract_z
Si Si1 0.757498 0.327270 0.000000
Si Si2 0.060914 0.616939 0.000000
Si Si3 0.900226 0.268451 0.733608
Si Si4 0.130689 0.720757 0.000000
Si Si5 0.916135 0.000000 0.649257
Si Si6 0.000000 0.204577 0.649930
Si Si7 0.392960 0.892960 0.250000
O O1 0.753737 0.359730 0.873143
O O2 0.706186 0.293815 0.000000
O O3 0.808458 0.291809 0.000000
O O4 0.095876 0.668713 0.000000
O O5 0.076352 0.585115 0.126840
O O6 0.000000 0.631647 0.000000
O O7 0.906282 0.331496 0.732785
O O8 0.952113 0.236837 0.704788
O O9 0.881496 0.247975 0.871319
O O10 0.947751 0.947751 0.695600
O O11 0.914771 0.000000 0.500000
O O12 0.855976 0.000000 0.699594
O O13 0.000000 0.206103 0.500000
#
# Coordination Sequence:
#
# PCOD8319866 Si02
#       7
#    16  16  32  16  16  16  16
#     4  12  22  39  62  83 121 172 207 243 306 375
#     4  10  20  36  62  88 106 155 199 243 295 352
#     4  11  21  39  56  89 123 159 202 252 305 364
#     4  10  22  38  55  86 123 151 209 251 300 364
#     4   8  16  35  59  83 118 158 194 249 316 361
#     4  11  23  33  60  95 126 156 211 254 310 366
#     4  10  20  38  59  83 122 148 198 256 300 356
#
# _framework density 18.570616999999999
#
# number of rings (size 3 to 8) (size 9 to 14) (size 15 to 20)
#    0.000    1.625    6.250    0.375    7.000    3.000 
#    0.000    0.625    0.000    1.125    0.000    0.875 
#    0.000    4.000    0.000    0.000    0.000    0.000 
#
# Total GULP energy -793038.074002 kJ/mol
# GULP energy per Si atom -12391.219906 kJ/mol
# Density = 1.852835 g / cm^3
# Si number density = 18.570617 Si / 1000 Ang^3
#
#
#
# Elastic Constant Matrix: (Units=GPa)
#
#
# Indices 1 2 3 4 5 6 
#
# 1 514.9420 523.9040 273.5258 0.0000 0.0000 0.0000
# 2 523.9040 515.2214 273.5996 0.0000 0.0000 0.0000
# 3 273.5258 273.5996 299.3554 0.0000 0.0000 0.0000
# 4 0.0000 0.0000 0.0000 -9.9400 0.0000 0.0000
# 5 0.0000 0.0000 0.0000 0.0000 -9.9534 0.0000
# 6 0.0000 0.0000 0.0000 0.0000 0.0000 -35.8134
#
#
#
# Elastic Compliance Matrix: (Units=1/GPa)
#
#
# Indices 1 2 3 4 5 6 
#
# 1 -0.055762 0.057602 -0.001696 0.000000 0.000000 0.000000
# 2 0.057602 -0.055732 -0.001695 0.000000 0.000000 0.000000
# 3 -0.001696 -0.001695 0.006439 0.000000 0.000000 0.000000
# 4 0.000000 0.000000 0.000000 -0.100603 0.000000 0.000000
# 5 0.000000 0.000000 0.000000 0.000000 -0.100468 0.000000
# 6 0.000000 0.000000 0.000000 0.000000 0.000000 -0.027922
#
#
# Mechanical properties :
#
#
# Convention : Reuss Voigt Hill
#
# Bulk Modulus (GPa) = 296.90748 385.73081 341.31914
# Shear Modulus (GPa) = -11.32892 6.09126 -2.61883
#
# Velocity S-wave (km/s) = -2.47259 1.81306 -1.18881
# Velocity P-wave (km/s) = 12.33190 14.57889 13.50222
#
# Compressibility (1/GPa) = 0.00336805
#
# Stress axis : x y z
#
# Youngs Moduli (GPa) = -17.93335 -17.94313 155.29855
#
# Poissons Ratio (x) = 1.03356 0.26331
# Poissons Ratio (y) = 1.03300 0.26328
# Poissons Ratio (z) = -0.03041 -0.03042
#
# Static dielectric constant tensor:
#      x y z
#    x 3.600050 0.000000 0.000000 
#    y 0.000000 3.599060 0.000000 
#    z 0.000000 0.000000 6.322080 
# 
# 
# High freq. dielectric constant tensor:
#      x y z
#    x 1.704130 0.000000 0.000000 
#    y 0.000000 1.704130 0.000000 
#    z 0.000000 0.000000 1.734250 
# 
# From -- ./inp_files/3529.got.cif
#   From: 2010.03.12/outbox.cif.g09.slc.cpg/sg139_2_cif.got.tgz:3529.got - 2010.04.08 09:46:31.
