data_PCOD8319213
_publ_section_title
;
Structure prediction by ZEFSAII (Michael W. Deem and Ramdas Pophale) SiO2 
 PCOD8319213
Probable space group: P 42/N C M
;
_chemical_formula_sum "Si O2"
_cell_formula_units_Z 48
_cell_length_a 13.819301
_cell_length_b 13.819301
_cell_length_c 12.243262
_cell_angle_alpha 90.000000
_cell_angle_beta 90.000000
_cell_angle_gamma 90.000000
_cell_volume 2338.133455
_symmetry_space_group_name_H-M "P 42/N C M"
_symmetry_group_IT_number 138
_space_group.IT_coordinate_system_code '2'
_symmetry_cell_setting 'tetragonal'
loop_
_space_group_symop_operation_xyz
x,y,z
1/2-y,x,1/2+z
1/2-x,1/2-y,z
y,1/2-x,1/2+z
1/2+x,-y,1/2-z
-x,1/2+y,1/2-z
1/2+y,1/2+x,-z
-y,-x,-z
-x,-y,-z
1/2+y,-x,1/2-z
1/2+x,1/2+y,-z
-y,1/2+x,1/2-z
1/2-x,y,1/2+z
x,1/2-y,1/2+z
1/2-y,1/2-x,z
y,x,z
loop_
_atom_site_type_symbol
_atom_site_label
_atom_site_fract_x
_atom_site_fract_y
_atom_site_fract_z
Si Si1 0.827196 0.827196 0.351004
Si Si2 0.729136 0.000488 0.226656
Si Si3 0.573444 0.573444 0.557846
Si Si4 0.668846 0.328995 0.127091
O O1 0.750000 0.750000 0.394349
O O2 0.773637 0.902634 0.272452
O O3 0.872535 0.872535 0.459442
O O4 0.646759 0.983850 0.135858
O O5 0.810372 0.063810 0.168915
O O6 0.693423 0.061964 0.330145
O O7 0.500000 0.500000 0.500000
O O8 0.750000 0.250000 0.164406
O O9 0.665692 0.334309 0.000000
#
# Coordination Sequence:
#
# PCOD8319213 Si02
#       4
#     8  16   8  16
#     4  12  28  48  69 101 144 191 230 283 356 426
#     4  12  23  48  69 103 142 183 235 294 350 427
#     4  12  28  44  79 103 139 191 245 287 357 425
#     4  11  23  42  72 104 138 179 231 297 359 415
#
# _framework density 20.529197
#
# number of rings (size 3 to 8) (size 9 to 14) (size 15 to 20)
#    0.000    0.333    5.000    4.000    7.000    0.000 
#    0.000    1.667    0.000    0.000    0.000    0.000 
#    0.000    0.000    0.000    0.000    0.000    0.000 
#
# Total GULP energy -595070.269366 kJ/mol
# GULP energy per Si atom -12397.297278 kJ/mol
# Density = 2.048247 g / cm^3
# Si number density = 20.529197 Si / 1000 Ang^3
#
#
#
# Elastic Constant Matrix: (Units=GPa)
#
#
# Indices 1 2 3 4 5 6 
#
# 1 137.2160 65.4137 66.5718 0.0000 0.0000 0.0000
# 2 65.4137 137.2156 66.5713 0.0000 0.0000 0.0000
# 3 66.5718 66.5713 174.2078 0.0000 0.0000 0.0000
# 4 0.0000 0.0000 0.0000 42.1128 0.0000 0.0000
# 5 0.0000 0.0000 0.0000 0.0000 42.1126 0.0000
# 6 0.0000 0.0000 0.0000 0.0000 0.0000 46.2760
#
#
#
# Elastic Compliance Matrix: (Units=1/GPa)
#
#
# Indices 1 2 3 4 5 6 
#
# 1 0.010258 -0.003669 -0.002518 0.000000 0.000000 0.000000
# 2 -0.003669 0.010258 -0.002518 0.000000 0.000000 0.000000
# 3 -0.002518 -0.002518 0.007665 0.000000 0.000000 0.000000
# 4 0.000000 0.000000 0.000000 0.023746 0.000000 0.000000
# 5 0.000000 0.000000 0.000000 0.000000 0.023746 0.000000
# 6 0.000000 0.000000 0.000000 0.000000 0.000000 0.021609
#
#
# Mechanical properties :
#
#
# Convention : Reuss Voigt Hill
#
# Bulk Modulus (GPa) = 92.83678 93.97256 93.40467
# Shear Modulus (GPa) = 42.27126 42.77245 42.52185
#
# Velocity S-wave (km/s) = 4.54263 4.56948 4.55608
# Velocity P-wave (km/s) = 8.53428 8.58573 8.56004
#
# Compressibility (1/GPa) = 0.01077159
#
# Stress axis : x y z
#
# Youngs Moduli (GPa) = 97.48040 97.48036 130.46523
#
# Poissons Ratio (x) = 0.35763 0.32854
# Poissons Ratio (y) = 0.35763 0.32854
# Poissons Ratio (z) = 0.24548 0.24547
#
# Static dielectric constant tensor:
#      x y z
#    x 3.862550 0.000000 0.000000 
#    y 0.000000 3.862560 0.000000 
#    z 0.000000 0.000000 3.955690 
# 
# 
# High freq. dielectric constant tensor:
#      x y z
#    x 1.807710 0.000000 0.000000 
#    y 0.000000 1.807710 0.000000 
#    z 0.000000 0.000000 1.834350 
# 
# From -- ./inp_files/2422.got.cif
#   From: 2010.03.12/outbox.cif.g09.slc.cpg/sg138_2_cif.got.tgz:2422.got - 2010.04.08 09:41:05.
