data_PCOD8319521
_publ_section_title
;
Structure prediction by ZEFSAII (Michael W. Deem and Ramdas Pophale) SiO2 
 PCOD8319521
Probable space group: I 4/M M M
;
_chemical_formula_sum "Si O2"
_cell_formula_units_Z 240
_cell_length_a 21.327103
_cell_length_b 21.327103
_cell_length_c 29.728471
_cell_angle_alpha 90.000000
_cell_angle_beta 90.000000
_cell_angle_gamma 90.000000
_cell_volume 13521.855976
_symmetry_space_group_name_H-M "I 4/M M M"
_symmetry_group_IT_number 139
_symmetry_cell_setting 'tetragonal'
loop_
_space_group_symop_operation_xyz
x,y,z
-y,x,z
-x,-y,z
y,-x,z
x,-y,-z
-x,y,-z
y,x,-z
-y,-x,-z
-x,-y,-z
y,-x,-z
x,y,-z
-y,x,-z
-x,y,z
x,-y,z
-y,-x,z
y,x,z
1/2+x,1/2+y,1/2+z
1/2-y,1/2+x,1/2+z
1/2-x,1/2-y,1/2+z
1/2+y,1/2-x,1/2+z
1/2+x,1/2-y,1/2-z
1/2-x,1/2+y,1/2-z
1/2+y,1/2+x,1/2-z
1/2-y,1/2-x,1/2-z
1/2-x,1/2-y,1/2-z
1/2+y,1/2-x,1/2-z
1/2+x,1/2+y,1/2-z
1/2-y,1/2+x,1/2-z
1/2-x,1/2+y,1/2+z
1/2+x,1/2-y,1/2+z
1/2-y,1/2-x,1/2+z
1/2+y,1/2+x,1/2+z
loop_
_atom_site_type_symbol
_atom_site_label
_atom_site_fract_x
_atom_site_fract_y
_atom_site_fract_z
Si Si1 0.428491 0.926852 0.500000
Si Si2 0.117837 0.642189 0.917274
Si Si3 0.169003 0.729096 0.357196
Si Si4 0.300576 0.927038 0.710131
Si Si5 0.569866 0.928902 0.666983
Si Si6 0.072738 0.168833 0.138564
Si Si7 0.072976 0.227454 0.048917
Si Si8 0.254136 0.645360 0.293947
O O1 0.500000 0.897767 0.500000
O O2 0.386932 0.909007 0.456475
O O3 0.436060 0.000000 0.500000
O O4 0.189882 0.658984 0.903434
O O5 0.080039 0.618465 0.873940
O O6 0.083415 0.701503 0.937586
O O7 0.205406 0.794595 0.367883
O O8 0.101091 0.737743 0.333116
O O9 0.207399 0.689965 0.320451
O O10 0.375845 0.918494 0.703948
O O11 0.281105 0.888577 0.753849
O O12 0.282004 0.000000 0.714681
O O13 0.500000 0.916182 0.687775
O O14 0.573870 0.000000 0.648529
O O15 0.104685 0.104685 0.154585
O O16 0.099272 0.183763 0.088605
O O17 0.091356 0.224502 0.171889
O O18 0.000000 0.158090 0.140120
O O19 0.000000 0.214755 0.044905
O O20 0.104426 0.212849 0.000000
O O21 0.312843 0.687158 0.276105
#
# Coordination Sequence:
#
# PCOD8319521 Si02
#       8
#    16  32  32  32  32  32  32  32
#     4  11  22  34  51  78 114 152 187 220 258 303
#     4  11  19  31  51  75  97 133 178 220 257 299
#     4  10  21  37  54  74 102 137 174 217 265 309
#     4  10  20  33  51  76 101 134 175 212 257 311
#     4   9  18  32  48  68 101 140 176 215 255 296
#     4  10  21  36  54  76  99 126 160 206 261 314
#     4  10  19  31  48  71  98 126 163 209 250 293
#     4  10  19  35  55  75 101 132 170 213 258 310
#
# _framework density 17.749043
#
# number of rings (size 3 to 8) (size 9 to 14) (size 15 to 20)
#    0.000    1.933    2.000    2.800    0.000    3.067 
#    0.000    4.333    0.000    0.000    0.000    5.600 
#    0.000    2.400    0.000    0.000    0.000    0.667 
#
# Total GULP energy -1487123.471071 kJ/mol
# GULP energy per Si atom -12392.695592 kJ/mol
# Density = 1.770864 g / cm^3
# Si number density = 17.749043 Si / 1000 Ang^3
#
#
#
# Elastic Constant Matrix: (Units=GPa)
#
#
# Indices 1 2 3 4 5 6 
#
# 1 63.4411 33.8530 35.5339 0.0000 0.0000 0.0000
# 2 33.8530 63.4411 35.5339 0.0000 0.0000 0.0000
# 3 35.5339 35.5339 99.8247 0.0000 0.0000 0.0000
# 4 0.0000 0.0000 0.0000 26.2479 0.0000 0.0000
# 5 0.0000 0.0000 0.0000 0.0000 26.2479 0.0000
# 6 0.0000 0.0000 0.0000 0.0000 0.0000 26.8699
#
#
#
# Elastic Compliance Matrix: (Units=1/GPa)
#
#
# Indices 1 2 3 4 5 6 
#
# 1 0.023843 -0.009954 -0.004944 0.000000 0.000000 0.000000
# 2 -0.009954 0.023843 -0.004944 0.000000 0.000000 0.000000
# 3 -0.004944 -0.004944 0.013537 0.000000 0.000000 0.000000
# 4 0.000000 0.000000 0.000000 0.038098 0.000000 0.000000
# 5 0.000000 0.000000 0.000000 0.000000 0.038098 0.000000
# 6 0.000000 0.000000 0.000000 0.000000 0.000000 0.037216
#
#
# Mechanical properties :
#
#
# Convention : Reuss Voigt Hill
#
# Bulk Modulus (GPa) = 46.42552 48.50538 47.46545
# Shear Modulus (GPa) = 22.57318 23.99222 23.28270
#
# Velocity S-wave (km/s) = 3.57010 3.68060 3.62577
# Velocity P-wave (km/s) = 6.57324 6.74168 6.65799
#
# Compressibility (1/GPa) = 0.02153988
#
# Stress axis : x y z
#
# Youngs Moduli (GPa) = 41.94017 41.94017 73.86921
#
# Poissons Ratio (x) = 0.41747 0.36522
# Poissons Ratio (y) = 0.41747 0.36522
# Poissons Ratio (z) = 0.20736 0.20736
#
# Static dielectric constant tensor:
#      x y z
#    x 3.389510 0.000000 0.000000 
#    y 0.000000 3.389510 0.000000 
#    z 0.000000 0.000000 3.666720 
# 
# 
# High freq. dielectric constant tensor:
#      x y z
#    x 1.674750 0.000000 0.000000 
#    y 0.000000 1.674750 0.000000 
#    z 0.000000 0.000000 1.686220 
# 
# From -- ./inp_files/14670.got.cif
#   From: 2010.03.12/outbox.cif.g09.slc.cpg/sg139_8_cif.got.tgz:14670.got - 2010.04.08 09:46:31.
