data_PCOD8319192
_publ_section_title
;
Structure prediction by ZEFSAII (Michael W. Deem and Ramdas Pophale) SiO2 
 PCOD8319192
Probable space group: P 42/N C M
;
_chemical_formula_sum "Si O2"
_cell_formula_units_Z 32
_cell_length_a 9.370411
_cell_length_b 9.370411
_cell_length_c 15.263250
_cell_angle_alpha 90.000000
_cell_angle_beta 90.000000
_cell_angle_gamma 90.000000
_cell_volume 1340.183596
_symmetry_space_group_name_H-M "P 42/N C M"
_symmetry_group_IT_number 138
_space_group.IT_coordinate_system_code '2'
_symmetry_cell_setting 'tetragonal'
loop_
_space_group_symop_operation_xyz
x,y,z
1/2-y,x,1/2+z
1/2-x,1/2-y,z
y,1/2-x,1/2+z
1/2+x,-y,1/2-z
-x,1/2+y,1/2-z
1/2+y,1/2+x,-z
-y,-x,-z
-x,-y,-z
1/2+y,-x,1/2-z
1/2+x,1/2+y,-z
-y,1/2+x,1/2-z
1/2-x,y,1/2+z
x,1/2-y,1/2+z
1/2-y,1/2-x,z
y,x,z
loop_
_atom_site_type_symbol
_atom_site_label
_atom_site_fract_x
_atom_site_fract_y
_atom_site_fract_z
Si Si1 0.111008 0.111008 0.324509
Si Si2 0.920997 0.920997 0.232347
Si Si3 0.078247 0.421754 0.577479
Si Si4 0.615221 0.615221 0.480117
O O1 0.252332 0.050214 0.275515
O O2 0.160352 0.160352 0.420877
O O3 0.986570 0.986570 0.323841
O O4 0.016405 0.016405 0.166692
O O5 0.052204 0.251433 0.571292
O O6 0.000000 0.500000 0.500000
O O7 0.500000 0.500000 0.500000
#
# Coordination Sequence:
#
# PCOD8319192 Si02
#       4
#     8   8   8   8
#     4  11  25  46  66  99 138 181 222 277 336 412
#     4  11  25  45  70  96 138 177 226 278 346 398
#     4  11  21  47  70  93 134 180 222 290 330 390
#     4  11  25  42  70 103 134 173 232 277 339 405
#
# _framework density 23.877324999999999
#
# number of rings (size 3 to 8) (size 9 to 14) (size 15 to 20)
#    0.000    1.000    5.000    1.500    7.000    4.000 
#    0.000    0.000    0.000    0.000    0.000    0.000 
#    0.000    0.000    0.000    0.000    0.000    0.000 
#
# Total GULP energy -396623.311909 kJ/mol
# GULP energy per Si atom -12394.478497 kJ/mol
# Density = 2.382298 g / cm^3
# Si number density = 23.877325 Si / 1000 Ang^3
#
#
#
# Elastic Constant Matrix: (Units=GPa)
#
#
# Indices 1 2 3 4 5 6 
#
# 1 150.9839 113.9574 13.2937 0.0000 0.0000 0.0000
# 2 113.9574 150.9839 13.2937 0.0000 0.0000 0.0000
# 3 13.2937 13.2937 63.8579 0.0000 0.0000 0.0000
# 4 0.0000 0.0000 0.0000 35.5322 0.0000 0.0000
# 5 0.0000 0.0000 0.0000 0.0000 35.5322 0.0000
# 6 0.0000 0.0000 0.0000 0.0000 0.0000 64.4434
#
#
#
# Elastic Compliance Matrix: (Units=1/GPa)
#
#
# Indices 1 2 3 4 5 6 
#
# 1 0.015431 -0.011576 -0.000803 0.000000 0.000000 0.000000
# 2 -0.011576 0.015431 -0.000803 0.000000 0.000000 0.000000
# 3 -0.000803 -0.000803 0.015994 0.000000 0.000000 0.000000
# 4 0.000000 0.000000 0.000000 0.028143 0.000000 0.000000
# 5 0.000000 0.000000 0.000000 0.000000 0.028143 0.000000
# 6 0.000000 0.000000 0.000000 0.000000 0.000000 0.015517
#
#
# Mechanical properties :
#
#
# Convention : Reuss Voigt Hill
#
# Bulk Modulus (GPa) = 48.79532 71.87948 60.33740
# Shear Modulus (GPa) = 32.92616 42.12031 37.52324
#
# Velocity S-wave (km/s) = 3.71748 4.20459 3.96852
# Velocity P-wave (km/s) = 6.23750 7.33079 6.80613
#
# Compressibility (1/GPa) = 0.02049377
#
# Stress axis : x y z
#
# Youngs Moduli (GPa) = 64.80332 64.80332 62.52381
#
# Poissons Ratio (x) = 0.75019 0.05018
# Poissons Ratio (y) = 0.75019 0.05018
# Poissons Ratio (z) = 0.05201 0.05201
#
# Static dielectric constant tensor:
#      x y z
#    x 4.290350 0.000000 0.000000 
#    y 0.000000 4.290350 0.000000 
#    z 0.000000 0.000000 6.920120 
# 
# 
# High freq. dielectric constant tensor:
#      x y z
#    x 1.949020 0.000000 0.000000 
#    y 0.000000 1.949020 0.000000 
#    z 0.000000 0.000000 1.980300 
# 
# From -- ./inp_files/5548.got.cif
#   From: 2010.03.12/outbox.cif.g09.slc.cpg/sg138_3_cif.got.tgz:5548.got - 2010.04.08 09:41:05.
