data_PCOD8319484
_publ_section_title
;
Structure prediction by ZEFSAII (Michael W. Deem and Ramdas Pophale) SiO2 
 PCOD8319484
Probable space group: I 4/M M M
;
_chemical_formula_sum "Si O2"
_cell_formula_units_Z 160
_cell_length_a 30.116147
_cell_length_b 30.116147
_cell_length_c 9.543598
_cell_angle_alpha 90.000000
_cell_angle_beta 90.000000
_cell_angle_gamma 90.000000
_cell_volume 8655.874561
_symmetry_space_group_name_H-M "I 4/M M M"
_symmetry_group_IT_number 139
_symmetry_cell_setting 'tetragonal'
loop_
_space_group_symop_operation_xyz
x,y,z
-y,x,z
-x,-y,z
y,-x,z
x,-y,-z
-x,y,-z
y,x,-z
-y,-x,-z
-x,-y,-z
y,-x,-z
x,y,-z
-y,x,-z
-x,y,z
x,-y,z
-y,-x,z
y,x,z
1/2+x,1/2+y,1/2+z
1/2-y,1/2+x,1/2+z
1/2-x,1/2-y,1/2+z
1/2+y,1/2-x,1/2+z
1/2+x,1/2-y,1/2-z
1/2-x,1/2+y,1/2-z
1/2+y,1/2+x,1/2-z
1/2-y,1/2-x,1/2-z
1/2-x,1/2-y,1/2-z
1/2+y,1/2-x,1/2-z
1/2+x,1/2+y,1/2-z
1/2-y,1/2+x,1/2-z
1/2-x,1/2+y,1/2+z
1/2+x,1/2-y,1/2+z
1/2-y,1/2-x,1/2+z
1/2+y,1/2+x,1/2+z
loop_
_atom_site_type_symbol
_atom_site_label
_atom_site_fract_x
_atom_site_fract_y
_atom_site_fract_z
Si Si1 0.000000 0.229570 0.667501
Si Si2 0.000000 0.870171 0.333280
Si Si3 0.268101 0.830501 0.665570
Si Si4 0.095220 0.904781 0.667147
Si Si5 0.294944 0.926240 0.665621
Si Si6 0.109699 0.449588 0.156197
Si Si7 0.667060 0.332941 0.835476
O O1 0.000000 0.179820 0.726954
O O2 0.043965 0.254656 0.725971
O O3 0.000000 0.228386 0.500000
O O4 0.045243 0.893806 0.279004
O O5 0.000000 0.870014 0.500000
O O6 0.271002 0.819535 0.500000
O O7 0.288890 0.788890 0.750000
O O8 0.293823 0.874888 0.710370
O O9 0.217704 0.841730 0.710847
O O10 0.096820 0.903181 0.500000
O O11 0.131393 0.868608 0.727850
O O12 0.292081 0.930723 0.500000
O O13 0.341219 0.945550 0.721934
O O14 0.094529 0.500000 0.152439
O O15 0.075038 0.424963 0.250000
O O16 0.109213 0.429018 0.000000
O O17 0.662346 0.337655 0.000000
#
# Coordination Sequence:
#
# PCOD8319484 Si02
#       7
#    16  16  32  16  32  32  16
#     4   9  14  24  43  64  83 112 157 201 235 272
#     4   9  16  23  36  57  86 124 162 198 235 276
#     4  10  19  30  46  68  94 126 158 195 240 285
#     4   9  16  26  37  57  88 123 162 201 239 279
#     4   9  16  28  46  67  89 114 151 197 239 275
#     4  10  20  34  50  68  90 115 147 190 234 279
#     4   9  17  29  43  62  91 121 156 199 237 276
#
# _framework density 18.484556999999999
#
# number of rings (size 3 to 8) (size 9 to 14) (size 15 to 20)
#    0.000    2.600    1.000    2.100    0.000    5.600 
#    0.000    2.000    0.000    0.000    0.000    0.000 
#    0.000    0.000    0.000    2.900    0.000    3.000 
#
# Total GULP energy -991363.816561 kJ/mol
# GULP energy per Si atom -12392.047707 kJ/mol
# Density = 1.844249 g / cm^3
# Si number density = 18.484557 Si / 1000 Ang^3
#
#
#
# Elastic Constant Matrix: (Units=GPa)
#
#
# Indices 1 2 3 4 5 6 
#
# 1 43.1988 164.7386 26.3825 0.0000 0.0000 0.0000
# 2 164.7386 43.1674 26.3764 0.0000 0.0000 0.0000
# 3 26.3825 26.3764 23.9428 0.0000 0.0000 0.0000
# 4 0.0000 0.0000 0.0000 12.8584 0.0000 0.0000
# 5 0.0000 0.0000 0.0000 0.0000 12.8594 0.0000
# 6 0.0000 0.0000 0.0000 0.0000 0.0000 39.7686
#
#
#
# Elastic Compliance Matrix: (Units=1/GPa)
#
#
# Indices 1 2 3 4 5 6 
#
# 1 -0.000775 0.007451 -0.007355 0.000000 0.000000 0.000000
# 2 0.007451 -0.000776 -0.007356 0.000000 0.000000 0.000000
# 3 -0.007355 -0.007356 0.057974 0.000000 0.000000 0.000000
# 4 0.000000 0.000000 0.000000 0.077770 0.000000 0.000000
# 5 0.000000 0.000000 0.000000 0.000000 0.077764 0.000000
# 6 0.000000 0.000000 0.000000 0.000000 0.000000 0.025145
#
#
# Mechanical properties :
#
#
# Convention : Reuss Voigt Hill
#
# Bulk Modulus (GPa) = 23.86376 60.58932 42.22654
# Shear Modulus (GPa) = 18.82607 5.95139 12.38873
#
# Velocity S-wave (km/s) = 3.19482 1.79629 2.59167
# Velocity P-wave (km/s) = 5.15241 6.09522 5.64354
#
# Compressibility (1/GPa) = 0.04190455
#
# Stress axis : x y z
#
# Youngs Moduli (GPa) = -1290.45098 -1288.80001 17.24915
#
# Poissons Ratio (x) = 9.60320 0.12686
# Poissons Ratio (y) = 9.61550 0.12688
# Poissons Ratio (z) = -9.49096 -9.48009
#
# Static dielectric constant tensor:
#      x y z
#    x 3.651870 0.000000 0.000000 
#    y 0.000000 3.651850 0.000000 
#    z 0.000000 0.000000 2.697910 
# 
# 
# High freq. dielectric constant tensor:
#      x y z
#    x 1.731930 0.000000 0.000000 
#    y 0.000000 1.731930 0.000000 
#    z 0.000000 0.000000 1.629790 
# 
# From -- ./inp_files/3990.got.cif
#   From: 2010.03.12/outbox.cif.g09.slc.cpg/sg139_2_cif.got.tgz:3990.got - 2010.04.08 09:46:31.
