data_PCOD8319913
_publ_section_title
;
Structure prediction by ZEFSAII (Michael W. Deem and Ramdas Pophale) SiO2 
 PCOD8319913
Probable space group: I 4/M M M
;
_chemical_formula_sum "Si O2"
_cell_formula_units_Z 160
_cell_length_a 20.404269
_cell_length_b 20.404269
_cell_length_c 18.622174
_cell_angle_alpha 90.000000
_cell_angle_beta 90.000000
_cell_angle_gamma 90.000000
_cell_volume 7753.047792
_symmetry_space_group_name_H-M "I 4/M M M"
_symmetry_group_IT_number 139
_symmetry_cell_setting 'tetragonal'
loop_
_space_group_symop_operation_xyz
x,y,z
-y,x,z
-x,-y,z
y,-x,z
x,-y,-z
-x,y,-z
y,x,-z
-y,-x,-z
-x,-y,-z
y,-x,-z
x,y,-z
-y,x,-z
-x,y,z
x,-y,z
-y,-x,z
y,x,z
1/2+x,1/2+y,1/2+z
1/2-y,1/2+x,1/2+z
1/2-x,1/2-y,1/2+z
1/2+y,1/2-x,1/2+z
1/2+x,1/2-y,1/2-z
1/2-x,1/2+y,1/2-z
1/2+y,1/2+x,1/2-z
1/2-y,1/2-x,1/2-z
1/2-x,1/2-y,1/2-z
1/2+y,1/2-x,1/2-z
1/2+x,1/2+y,1/2-z
1/2-y,1/2+x,1/2-z
1/2-x,1/2+y,1/2+z
1/2+x,1/2-y,1/2+z
1/2-y,1/2-x,1/2+z
1/2+y,1/2+x,1/2+z
loop_
_atom_site_type_symbol
_atom_site_label
_atom_site_fract_x
_atom_site_fract_y
_atom_site_fract_z
Si Si1 0.272393 0.424557 0.808126
Si Si2 0.745378 0.745378 0.578720
Si Si3 0.376467 0.076636 0.324709
Si Si4 0.822368 0.926704 0.842158
Si Si5 0.646261 0.353740 0.080128
Si Si6 0.112278 0.698381 0.915171
O O1 0.265803 0.500000 0.794274
O O2 0.198819 0.399325 0.820735
O O3 0.302318 0.395530 0.735001
O O4 0.320752 0.412738 0.875609
O O5 0.722142 0.722142 0.500000
O O6 0.799571 0.799571 0.572260
O O7 0.682342 0.776661 0.617026
O O8 0.414203 0.085798 0.250000
O O9 0.408420 0.127978 0.381291
O O10 0.383626 0.000000 0.349196
O O11 0.877615 0.877615 0.875076
O O12 0.757771 0.935114 0.892187
O O13 0.852713 0.000000 0.835124
O O14 0.623185 0.376816 0.000000
O O15 0.111980 0.687194 0.000000
#
# Coordination Sequence:
#
# PCOD8319913 Si02
#       6
#    32  16  32  32  16  32
#     4  10  21  36  56  86 121 162 209 254 307 371
#     4   9  18  31  51  85 118 151 195 243 302 369
#     4  11  23  39  61  90 127 167 208 253 305 370
#     4  11  23  40  64  92 124 162 208 259 315 377
#     4  11  20  33  57  90 125 159 203 261 315 365
#     4  11  22  38  62  93 128 162 203 258 316 373
#
# _framework density 20.637045000000001
#
# number of rings (size 3 to 8) (size 9 to 14) (size 15 to 20)
#    0.000    1.400    6.000    0.000    0.000    1.600 
#    0.000    5.000    0.000    0.300    0.000    4.900 
#    0.000    0.000    0.000    0.000    0.000    0.000 
#
# Total GULP energy -991191.105471 kJ/mol
# GULP energy per Si atom -12389.888818 kJ/mol
# Density = 2.059007 g / cm^3
# Si number density = 20.637045 Si / 1000 Ang^3
#
#
#
# Elastic Constant Matrix: (Units=GPa)
#
#
# Indices 1 2 3 4 5 6 
#
# 1 86.8082 30.7257 29.7765 0.0000 0.0000 0.0000
# 2 30.7257 86.8056 29.7769 0.0000 0.0000 0.0000
# 3 29.7765 29.7769 105.5726 0.0000 0.0000 0.0000
# 4 0.0000 0.0000 0.0000 20.3054 0.0000 0.0000
# 5 0.0000 0.0000 0.0000 0.0000 20.3054 0.0000
# 6 0.0000 0.0000 0.0000 0.0000 0.0000 16.6757
#
#
#
# Elastic Compliance Matrix: (Units=1/GPa)
#
#
# Indices 1 2 3 4 5 6 
#
# 1 0.013879 -0.003952 -0.002800 0.000000 0.000000 0.000000
# 2 -0.003952 0.013879 -0.002800 0.000000 0.000000 0.000000
# 3 -0.002800 -0.002800 0.011052 0.000000 0.000000 0.000000
# 4 0.000000 0.000000 0.000000 0.049248 0.000000 0.000000
# 5 0.000000 0.000000 0.000000 0.000000 0.049248 0.000000
# 6 0.000000 0.000000 0.000000 0.000000 0.000000 0.059968
#
#
# Mechanical properties :
#
#
# Convention : Reuss Voigt Hill
#
# Bulk Modulus (GPa) = 50.74614 51.08274 50.91444
# Shear Modulus (GPa) = 22.42697 24.05112 23.23905
#
# Velocity S-wave (km/s) = 3.30014 3.41755 3.35936
# Velocity P-wave (km/s) = 6.25815 6.35449 6.30650
#
# Compressibility (1/GPa) = 0.01970593
#
# Stress axis : x y z
#
# Youngs Moduli (GPa) = 72.05198 72.04937 90.48479
#
# Poissons Ratio (x) = 0.28475 0.25334
# Poissons Ratio (y) = 0.28476 0.25336
# Poissons Ratio (z) = 0.20173 0.20174
#
# Static dielectric constant tensor:
#      x y z
#    x 3.871530 0.000000 0.000000 
#    y 0.000000 3.871500 0.000000 
#    z 0.000000 0.000000 4.331230 
# 
# 
# High freq. dielectric constant tensor:
#      x y z
#    x 1.799680 0.000000 0.000000 
#    y 0.000000 1.799680 0.000000 
#    z 0.000000 0.000000 1.794210 
# 
# From -- ./inp_files/8471.got.cif
#   From: 2010.03.12/outbox.cif.g09.slc.cpg/sg139_5_cif.got.tgz:8471.got - 2010.04.08 09:46:31.
