data_PCOD8319834
_publ_section_title
;
Structure prediction by ZEFSAII (Michael W. Deem and Ramdas Pophale) SiO2 
 PCOD8319834
Probable space group: I 4/M M M
;
_chemical_formula_sum "Si O2"
_cell_formula_units_Z 160
_cell_length_a 17.218007
_cell_length_b 17.218007
_cell_length_c 30.269866
_cell_angle_alpha 90.000000
_cell_angle_beta 90.000000
_cell_angle_gamma 90.000000
_cell_volume 8973.797363
_symmetry_space_group_name_H-M "I 4/M M M"
_symmetry_group_IT_number 139
_symmetry_cell_setting 'tetragonal'
loop_
_space_group_symop_operation_xyz
x,y,z
-y,x,z
-x,-y,z
y,-x,z
x,-y,-z
-x,y,-z
y,x,-z
-y,-x,-z
-x,-y,-z
y,-x,-z
x,y,-z
-y,x,-z
-x,y,z
x,-y,z
-y,-x,z
y,x,z
1/2+x,1/2+y,1/2+z
1/2-y,1/2+x,1/2+z
1/2-x,1/2-y,1/2+z
1/2+y,1/2-x,1/2+z
1/2+x,1/2-y,1/2-z
1/2-x,1/2+y,1/2-z
1/2+y,1/2+x,1/2-z
1/2-y,1/2-x,1/2-z
1/2-x,1/2-y,1/2-z
1/2+y,1/2-x,1/2-z
1/2+x,1/2+y,1/2-z
1/2-y,1/2+x,1/2-z
1/2-x,1/2+y,1/2+z
1/2+x,1/2-y,1/2+z
1/2-y,1/2-x,1/2+z
1/2+y,1/2+x,1/2+z
loop_
_atom_site_type_symbol
_atom_site_label
_atom_site_fract_x
_atom_site_fract_y
_atom_site_fract_z
Si Si1 0.089223 0.220376 0.629819
Si Si2 0.791565 0.913897 0.936669
Si Si3 0.294835 0.834282 0.549234
Si Si4 0.294909 0.415307 0.333837
Si Si5 0.193660 0.676554 0.798822
O O1 0.144436 0.144436 0.628396
O O2 0.102400 0.275592 0.586862
O O3 0.103409 0.271793 0.674212
O O4 0.000000 0.192498 0.629979
O O5 0.857953 0.857953 0.957898
O O6 0.705328 0.879429 0.945213
O O7 0.808617 0.921207 0.885343
O O8 0.795629 0.000000 0.958111
O O9 0.288101 0.871616 0.500000
O O10 0.234351 0.765650 0.556204
O O11 0.298772 0.500000 0.311384
O O12 0.362194 0.362194 0.311712
O O13 0.210845 0.377687 0.326634
O O14 0.262044 0.737957 0.795043
O O15 0.159031 0.659031 0.750000
#
# Coordination Sequence:
#
# PCOD8319834 Si02
#       5
#    32  32  32  32  32
#     4  10  20  35  55  80 107 132 164 208 258 311
#     4   9  16  27  45  70 100 132 166 206 250 294
#     4   9  17  31  51  72  97 135 180 216 247 295
#     4   9  16  27  45  69  98 129 160 197 239 283
#     4   9  17  31  51  72  96 131 172 206 238 286
#
# _framework density 17.829687
#
# number of rings (size 3 to 8) (size 9 to 14) (size 15 to 20)
#    0.000    2.800    2.000    0.000    0.000    2.200 
#    0.000    2.000    0.000    2.400    0.000   14.000 
#    0.000    0.000    0.000    0.000    0.000    0.000 
#
# Total GULP energy -991098.515626 kJ/mol
# GULP energy per Si atom -12388.731445 kJ/mol
# Density = 1.778911 g / cm^3
# Si number density = 17.829687 Si / 1000 Ang^3
#
#
#
# Elastic Constant Matrix: (Units=GPa)
#
#
# Indices 1 2 3 4 5 6 
#
# 1 79.3025 56.6627 29.6248 0.0000 0.0000 0.0000
# 2 56.6627 79.3025 29.6248 0.0000 0.0000 0.0000
# 3 29.6248 29.6248 94.0598 0.0000 0.0000 0.0000
# 4 0.0000 0.0000 0.0000 -3.2187 0.0000 0.0000
# 5 0.0000 0.0000 0.0000 0.0000 -3.2187 0.0000
# 6 0.0000 0.0000 0.0000 0.0000 0.0000 15.1024
#
#
#
# Elastic Compliance Matrix: (Units=1/GPa)
#
#
# Indices 1 2 3 4 5 6 
#
# 1 0.026347 -0.017823 -0.002685 0.000000 0.000000 0.000000
# 2 -0.017823 0.026347 -0.002685 0.000000 0.000000 0.000000
# 3 -0.002685 -0.002685 0.012323 0.000000 0.000000 0.000000
# 4 0.000000 0.000000 0.000000 -0.310682 0.000000 0.000000
# 5 0.000000 0.000000 0.000000 0.000000 -0.310682 0.000000
# 6 0.000000 0.000000 0.000000 0.000000 0.000000 0.066215
#
#
# Mechanical properties :
#
#
# Convention : Reuss Voigt Hill
#
# Bulk Modulus (GPa) = 53.66911 53.83213 53.75062
# Shear Modulus (GPa) = -11.42764 10.84983 -0.28890
#
# Velocity S-wave (km/s) = -2.53441 2.46951 -0.40297
# Velocity P-wave (km/s) = 4.64780 6.19591 5.47683
#
# Compressibility (1/GPa) = 0.01863269
#
# Stress axis : x y z
#
# Youngs Moduli (GPa) = 37.95443 37.95443 81.15016
#
# Poissons Ratio (x) = 0.67644 0.21789
# Poissons Ratio (y) = 0.67644 0.21789
# Poissons Ratio (z) = 0.10191 0.10191
#
# Static dielectric constant tensor:
#      x y z
#    x 3.212660 0.000000 0.000000 
#    y 0.000000 3.212660 0.000000 
#    z 0.000000 0.000000 3.467410 
# 
# 
# High freq. dielectric constant tensor:
#      x y z
#    x 1.661200 0.000000 0.000000 
#    y 0.000000 1.661200 0.000000 
#    z 0.000000 0.000000 1.696360 
# 
# From -- ./inp_files/14044.got.cif
#   From: 2010.03.12/outbox.cif.g09.slc.cpg/sg139_8_cif.got.tgz:14044.got - 2010.04.08 09:46:31.
