data_PCOD8319495
_publ_section_title
;
Structure prediction by ZEFSAII (Michael W. Deem and Ramdas Pophale) SiO2 
 PCOD8319495
Probable space group: I 4/M M M
;
_chemical_formula_sum "Si O2"
_cell_formula_units_Z 192
_cell_length_a 27.409345
_cell_length_b 27.409345
_cell_length_c 15.167638
_cell_angle_alpha 90.000000
_cell_angle_beta 90.000000
_cell_angle_gamma 90.000000
_cell_volume 11395.024668
_symmetry_space_group_name_H-M "I 4/M M M"
_symmetry_group_IT_number 139
_symmetry_cell_setting 'tetragonal'
loop_
_space_group_symop_operation_xyz
x,y,z
-y,x,z
-x,-y,z
y,-x,z
x,-y,-z
-x,y,-z
y,x,-z
-y,-x,-z
-x,-y,-z
y,-x,-z
x,y,-z
-y,x,-z
-x,y,z
x,-y,z
-y,-x,z
y,x,z
1/2+x,1/2+y,1/2+z
1/2-y,1/2+x,1/2+z
1/2-x,1/2-y,1/2+z
1/2+y,1/2-x,1/2+z
1/2+x,1/2-y,1/2-z
1/2-x,1/2+y,1/2-z
1/2+y,1/2+x,1/2-z
1/2-y,1/2-x,1/2-z
1/2-x,1/2-y,1/2-z
1/2+y,1/2-x,1/2-z
1/2+x,1/2+y,1/2-z
1/2-y,1/2+x,1/2-z
1/2-x,1/2+y,1/2+z
1/2+x,1/2-y,1/2+z
1/2-y,1/2-x,1/2+z
1/2+y,1/2+x,1/2+z
loop_
_atom_site_type_symbol
_atom_site_label
_atom_site_fract_x
_atom_site_fract_y
_atom_site_fract_z
Si Si1 0.290877 0.709124 0.400774
Si Si2 0.109999 0.813593 0.402859
Si Si3 0.827873 0.946047 0.765516
Si Si4 0.712305 0.054175 0.225534
Si Si5 0.601114 0.202103 0.903562
Si Si6 0.307004 0.156552 0.842412
Si Si7 0.627684 0.372317 0.398479
O O1 0.277316 0.722684 0.500000
O O2 0.313495 0.757328 0.357048
O O3 0.331550 0.668451 0.394651
O O4 0.085963 0.821679 0.500000
O O5 0.163911 0.836090 0.399664
O O6 0.077770 0.840545 0.328890
O O7 0.118268 0.757014 0.383340
O O8 0.770108 0.947389 0.773424
O O9 0.852101 0.919497 0.848497
O O10 0.850110 0.000000 0.765667
O O11 0.688955 0.064695 0.323127
O O12 0.698784 0.097443 0.157065
O O13 0.693027 0.000000 0.196290
O O14 0.650037 0.169329 0.910693
O O15 0.575036 0.197833 0.000000
O O16 0.326863 0.173138 0.750000
O O17 0.614567 0.385434 0.500000
#
# Coordination Sequence:
#
# PCOD8319495 Si02
#       7
#    16  32  32  32  32  32  16
#     4  11  21  31  45  66  96 131 162 198 236 280
#     4   9  17  29  48  75 103 127 152 184 230 297
#     4  10  19  33  52  69  92 124 160 208 254 292
#     4   9  18  32  48  67  93 129 169 201 234 278
#     4   9  18  29  45  72 102 129 155 188 232 285
#     4  10  19  30  47  70  98 131 160 193 233 286
#     4  11  22  35  50  67  90 123 170 214 247 290
#
# _framework density 16.849459
#
# number of rings (size 3 to 8) (size 9 to 14) (size 15 to 20)
#    0.000    2.333    2.500    0.750    1.167    1.000 
#    0.000    3.333    0.000    2.250    0.000    0.583 
#    0.000   28.333    0.000   13.500    0.000    0.500 
#
# Total GULP energy -1189308.956709 kJ/mol
# GULP energy per Si atom -12388.634966 kJ/mol
# Density = 1.681111 g / cm^3
# Si number density = 16.849459 Si / 1000 Ang^3
#
#
#
# Elastic Constant Matrix: (Units=GPa)
#
#
# Indices 1 2 3 4 5 6 
#
# 1 36.0320 75.1386 26.2151 0.0000 0.0000 0.0000
# 2 75.1386 36.0378 26.2198 0.0000 0.0000 0.0000
# 3 26.2151 26.2198 78.1629 0.0000 0.0000 0.0000
# 4 0.0000 0.0000 0.0000 14.6551 0.0000 0.0000
# 5 0.0000 0.0000 0.0000 0.0000 14.6553 0.0000
# 6 0.0000 0.0000 0.0000 0.0000 0.0000 8.0955
#
#
#
# Elastic Compliance Matrix: (Units=1/GPa)
#
#
# Indices 1 2 3 4 5 6 
#
# 1 -0.007444 0.018129 -0.003585 0.000000 0.000000 0.000000
# 2 0.018129 -0.007443 -0.003583 0.000000 0.000000 0.000000
# 3 -0.003585 -0.003583 0.015198 0.000000 0.000000 0.000000
# 4 0.000000 0.000000 0.000000 0.068236 0.000000 0.000000
# 5 0.000000 0.000000 0.000000 0.000000 0.068235 0.000000
# 6 0.000000 0.000000 0.000000 0.000000 0.000000 0.123525
#
#
# Mechanical properties :
#
#
# Convention : Reuss Voigt Hill
#
# Bulk Modulus (GPa) = 44.97915 45.04221 45.01068
# Shear Modulus (GPa) = 20.34213 8.99178 14.66695
#
# Velocity S-wave (km/s) = 3.47837 2.31260 2.95357
# Velocity P-wave (km/s) = 6.54865 5.82417 6.19701
#
# Compressibility (1/GPa) = 0.02223252
#
# Stress axis : x y z
#
# Youngs Moduli (GPa) = -134.33343 -134.34622 65.79741
#
# Poissons Ratio (x) = 2.43559 0.23587
# Poissons Ratio (y) = 2.43536 0.23578
# Poissons Ratio (z) = -0.48155 -0.48142
#
# Static dielectric constant tensor:
#      x y z
#    x 3.426340 0.000000 0.000000 
#    y 0.000000 3.426530 0.000000 
#    z 0.000000 0.000000 3.543610 
# 
# 
# High freq. dielectric constant tensor:
#      x y z
#    x 1.624410 0.000000 0.000000 
#    y 0.000000 1.624410 0.000000 
#    z 0.000000 0.000000 1.656800 
# 
# From -- ./inp_files/6513.got.cif
#   From: 2010.03.12/outbox.cif.g09.slc.cpg/sg139_4_cif.got.tgz:6513.got - 2010.04.08 09:46:31.
