data_PCOD8319011
_publ_section_title
;
Structure prediction by ZEFSAII (Michael W. Deem and Ramdas Pophale) SiO2 
 PCOD8319011
Probable space group: P 42/N C M
;
_chemical_formula_sum "Si O2"
_cell_formula_units_Z 128
_cell_length_a 17.211595
_cell_length_b 17.211595
_cell_length_c 25.108024
_cell_angle_alpha 90.000000
_cell_angle_beta 90.000000
_cell_angle_gamma 90.000000
_cell_volume 7437.975983
_symmetry_space_group_name_H-M "P 42/N C M"
_symmetry_group_IT_number 138
_space_group.IT_coordinate_system_code '2'
_symmetry_cell_setting 'tetragonal'
loop_
_space_group_symop_operation_xyz
x,y,z
1/2-y,x,1/2+z
1/2-x,1/2-y,z
y,1/2-x,1/2+z
1/2+x,-y,1/2-z
-x,1/2+y,1/2-z
1/2+y,1/2+x,-z
-y,-x,-z
-x,-y,-z
1/2+y,-x,1/2-z
1/2+x,1/2+y,-z
-y,1/2+x,1/2-z
1/2-x,y,1/2+z
x,1/2-y,1/2+z
1/2-y,1/2-x,z
y,x,z
loop_
_atom_site_type_symbol
_atom_site_label
_atom_site_fract_x
_atom_site_fract_y
_atom_site_fract_z
Si Si1 0.182893 0.054939 0.438946
Si Si2 0.083713 0.292164 0.236231
Si Si3 0.682203 0.947609 0.645524
Si Si4 0.057563 0.183189 0.142887
Si Si5 0.432635 0.936428 0.673759
Si Si6 0.458159 0.917501 0.787640
Si Si7 0.449048 0.321223 0.560135
Si Si8 0.063532 0.566862 0.098526
O O1 0.125240 0.125240 0.423603
O O2 0.257844 0.058933 0.402240
O O3 0.209313 0.060874 0.500068
O O4 0.140817 0.971887 0.431413
O O5 0.169331 0.330670 0.233275
O O6 0.061817 0.274141 0.297679
O O7 0.081074 0.213833 0.201616
O O8 0.022184 0.350253 0.210149
O O9 0.620915 0.879086 0.638541
O O10 0.637966 0.031230 0.642971
O O11 0.121118 0.121118 0.124553
O O12 0.055775 0.249149 0.099128
O O13 0.972576 0.142022 0.144397
O O14 0.407095 0.910560 0.733778
O O15 0.500607 0.999394 0.679561
O O16 0.407292 0.910536 0.841605
O O17 0.498953 0.001048 0.787522
O O18 0.379960 0.379960 0.575501
O O19 0.532666 0.363275 0.566060
O O20 0.000440 0.499561 0.102282
#
# Coordination Sequence:
#
# PCOD8319011 Si02
#       8
#    16  16  16  16  16  16  16  16
#     4  10  21  33  52  78  99 129 174 214 250 299
#     4   9  17  30  47  71 102 135 162 195 254 312
#     4   9  19  36  53  71 104 138 164 204 259 305
#     4  11  21  31  49  76 103 134 175 211 244 297
#     4   8  17  32  49  71  99 132 171 211 244 290
#     4   8  13  26  48  70  95 126 157 196 251 298
#     4  10  20  35  50  72 107 139 167 207 257 298
#     4   9  16  29  51  75 100 128 166 210 250 296
#
# _framework density 17.208983
#
# number of rings (size 3 to 8) (size 9 to 14) (size 15 to 20)
#    0.000    2.750    1.250    2.250    1.750    3.750 
#    0.000    3.125    0.000    3.000    0.000    1.750 
#    0.000    0.000    0.000    0.000    0.000    0.000 
#
# Total GULP energy -1586402.316570 kJ/mol
# GULP energy per Si atom -12393.768098 kJ/mol
# Density = 1.716981 g / cm^3
# Si number density = 17.208983 Si / 1000 Ang^3
#
#
#
# Elastic Constant Matrix: (Units=GPa)
#
#
# Indices 1 2 3 4 5 6 
#
# 1 47.7990 53.5464 48.4927 0.0000 0.0000 0.0000
# 2 53.5464 47.7990 48.4927 0.0000 0.0000 0.0000
# 3 48.4927 48.4927 111.7157 0.0000 0.0000 0.0000
# 4 0.0000 0.0000 0.0000 25.1287 0.0000 0.0000
# 5 0.0000 0.0000 0.0000 0.0000 25.1287 0.0000
# 6 0.0000 0.0000 0.0000 0.0000 0.0000 15.4105
#
#
#
# Elastic Compliance Matrix: (Units=1/GPa)
#
#
# Indices 1 2 3 4 5 6 
#
# 1 -0.078557 0.095436 -0.007327 0.000000 0.000000 0.000000
# 2 0.095436 -0.078557 -0.007327 0.000000 0.000000 0.000000
# 3 -0.007327 -0.007327 0.015312 0.000000 0.000000 0.000000
# 4 0.000000 0.000000 0.000000 0.039795 0.000000 0.000000
# 5 0.000000 0.000000 0.000000 0.000000 0.039795 0.000000
# 6 0.000000 0.000000 0.000000 0.000000 0.000000 0.064891
#
#
# Mechanical properties :
#
#
# Convention : Reuss Voigt Hill
#
# Bulk Modulus (GPa) = 50.60002 56.48635 53.54319
# Shear Modulus (GPa) = -32.83025 16.91902 -7.95562
#
# Velocity S-wave (km/s) = -4.37251 3.13892 -2.15244
# Velocity P-wave (km/s) = 1.99383 6.78470 5.00037
#
# Compressibility (1/GPa) = 0.01976284
#
# Stress axis : x y z
#
# Youngs Moduli (GPa) = -12.72960 -12.72960 65.30914
#
# Poissons Ratio (x) = 1.21486 0.47849
# Poissons Ratio (y) = 1.21486 0.47849
# Poissons Ratio (z) = -0.09326 -0.09326
#
# Static dielectric constant tensor:
#      x y z
#    x 3.049140 0.000000 0.000000 
#    y 0.000000 3.049140 0.000000 
#    z 0.000000 0.000000 3.279280 
# 
# 
# High freq. dielectric constant tensor:
#      x y z
#    x 1.636680 0.000000 0.000000 
#    y 0.000000 1.636680 0.000000 
#    z 0.000000 0.000000 1.670620 
# 
# From -- ./inp_files/7216.got.cif
#   From: 2010.03.12/outbox.cif.g09.slc.cpg/sg138_4_cif.got.tgz:7216.got - 2010.04.08 09:41:05.
