data_PCOD8319633
_publ_section_title
;
Structure prediction by ZEFSAII (Michael W. Deem and Ramdas Pophale) SiO2 
 PCOD8319633
Probable space group: I 4/M M M
;
_chemical_formula_sum "Si O2"
_cell_formula_units_Z 192
_cell_length_a 18.771863
_cell_length_b 18.771863
_cell_length_c 31.379445
_cell_angle_alpha 90.000000
_cell_angle_beta 90.000000
_cell_angle_gamma 90.000000
_cell_volume 11057.577962
_symmetry_space_group_name_H-M "I 4/M M M"
_symmetry_group_IT_number 139
_symmetry_cell_setting 'tetragonal'
loop_
_space_group_symop_operation_xyz
x,y,z
-y,x,z
-x,-y,z
y,-x,z
x,-y,-z
-x,y,-z
y,x,-z
-y,-x,-z
-x,-y,-z
y,-x,-z
x,y,-z
-y,x,-z
-x,y,z
x,-y,z
-y,-x,z
y,x,z
1/2+x,1/2+y,1/2+z
1/2-y,1/2+x,1/2+z
1/2-x,1/2-y,1/2+z
1/2+y,1/2-x,1/2+z
1/2+x,1/2-y,1/2-z
1/2-x,1/2+y,1/2-z
1/2+y,1/2+x,1/2-z
1/2-y,1/2-x,1/2-z
1/2-x,1/2-y,1/2-z
1/2+y,1/2-x,1/2-z
1/2+x,1/2+y,1/2-z
1/2-y,1/2+x,1/2-z
1/2-x,1/2+y,1/2+z
1/2+x,1/2-y,1/2+z
1/2-y,1/2-x,1/2+z
1/2+y,1/2+x,1/2+z
loop_
_atom_site_type_symbol
_atom_site_label
_atom_site_fract_x
_atom_site_fract_y
_atom_site_fract_z
Si Si1 0.699052 0.416419 0.419891
Si Si2 0.730423 0.847912 0.000000
Si Si3 0.082760 0.297604 0.157603
Si Si4 0.784020 0.580265 0.000000
Si Si5 0.305843 0.919674 0.750165
Si Si6 0.416647 0.801753 0.157639
Si Si7 0.580754 0.304114 0.085312
O O1 0.683003 0.500000 0.422452
O O2 0.623608 0.376393 0.422174
O O3 0.749138 0.393174 0.458682
O O4 0.738033 0.394279 0.376168
O O5 0.771145 0.771145 0.000000
O O6 0.644455 0.840899 0.000000
O O7 0.097499 0.264195 0.205420
O O8 0.127163 0.370099 0.151153
O O9 0.000000 0.317501 0.151142
O O10 0.735702 0.589912 0.041061
O O11 0.819025 0.500000 0.000000
O O12 0.379677 0.879677 0.750000
O O13 0.266244 0.903739 0.704999
O O14 0.330507 0.000000 0.750905
O O15 0.500000 0.820933 0.150295
O O16 0.389579 0.745126 0.123244
O O17 0.500000 0.325578 0.094453
O O18 0.623182 0.376819 0.084072
#
# Coordination Sequence:
#
# PCOD8319633 Si02
#       7
#    32  16  32  16  32  32  32
#     4  10  21  36  54  75  97 124 159 200 246 291
#     4  10  19  33  55  78 101 129 159 194 236 282
#     4   9  17  29  46  70  99 128 159 194 234 285
#     4  10  20  33  51  76 104 132 161 190 223 271
#     4   8  14  25  41  63  93 126 158 194 234 277
#     4   9  17  29  46  69  97 129 163 197 235 281
#     4  10  20  33  49  69  93 123 161 203 243 281
#
# _framework density 17.363658000000001
#
# number of rings (size 3 to 8) (size 9 to 14) (size 15 to 20)
#    0.000    2.667    0.000    2.000    0.000    2.833 
#    0.000    4.167    0.000    8.000    0.000    0.000 
#    0.000    6.667    0.000    0.000    0.000    0.000 
#
# Total GULP energy -1189410.555448 kJ/mol
# GULP energy per Si atom -12389.693286 kJ/mol
# Density = 1.732414 g / cm^3
# Si number density = 17.363658 Si / 1000 Ang^3
#
#
#
# Elastic Constant Matrix: (Units=GPa)
#
#
# Indices 1 2 3 4 5 6 
#
# 1 78.8497 46.7323 48.8180 0.0000 0.0000 0.0000
# 2 46.7323 78.8497 48.8180 0.0000 0.0000 0.0000
# 3 48.8180 48.8180 157.6073 0.0000 0.0000 0.0000
# 4 0.0000 0.0000 0.0000 -25.8109 0.0000 0.0000
# 5 0.0000 0.0000 0.0000 0.0000 -25.8109 0.0000
# 6 0.0000 0.0000 0.0000 0.0000 0.0000 24.0471
#
#
#
# Elastic Compliance Matrix: (Units=1/GPa)
#
#
# Indices 1 2 3 4 5 6 
#
# 1 0.020812 -0.010324 -0.003249 0.000000 0.000000 0.000000
# 2 -0.010324 0.020812 -0.003249 0.000000 0.000000 0.000000
# 3 -0.003249 -0.003249 0.008358 0.000000 0.000000 0.000000
# 4 0.000000 0.000000 0.000000 -0.038743 0.000000 0.000000
# 5 0.000000 0.000000 0.000000 0.000000 -0.038743 0.000000
# 6 0.000000 0.000000 0.000000 0.000000 0.000000 0.041585
#
#
# Mechanical properties :
#
#
# Convention : Reuss Voigt Hill
#
# Bulk Modulus (GPa) = 61.20056 67.11592 64.15824
# Shear Modulus (GPa) = 94.03878 5.88094 49.95986
#
# Velocity S-wave (km/s) = 7.36722 1.84236 5.36983
# Velocity P-wave (km/s) = 10.37742 6.57744 8.68774
#
# Compressibility (1/GPa) = 0.01633972
#
# Stress axis : x y z
#
# Youngs Moduli (GPa) = 48.04849 48.04849 119.65288
#
# Poissons Ratio (x) = 0.49603 0.38873
# Poissons Ratio (y) = 0.49603 0.38873
# Poissons Ratio (z) = 0.15610 0.15610
#
# Static dielectric constant tensor:
#      x y z
#    x 3.034140 0.000000 0.000000 
#    y 0.000000 3.034140 0.000000 
#    z 0.000000 0.000000 3.861070 
# 
# 
# High freq. dielectric constant tensor:
#      x y z
#    x 1.649130 0.000000 0.000000 
#    y 0.000000 1.649130 0.000000 
#    z 0.000000 0.000000 1.703330 
# 
# From -- ./inp_files/14346.got.cif
#   From: 2010.03.12/outbox.cif.g09.slc.cpg/sg139_8_cif.got.tgz:14346.got - 2010.04.08 09:46:31.
