data_PCOD8319724
_publ_section_title
;
Structure prediction by ZEFSAII (Michael W. Deem and Ramdas Pophale) SiO2 
 PCOD8319724
Probable space group: I 4/M M M
;
_chemical_formula_sum "Si O2"
_cell_formula_units_Z 224
_cell_length_a 23.297527
_cell_length_b 23.297527
_cell_length_c 24.100062
_cell_angle_alpha 90.000000
_cell_angle_beta 90.000000
_cell_angle_gamma 90.000000
_cell_volume 13080.905472
_symmetry_space_group_name_H-M "I 4/M M M"
_symmetry_group_IT_number 139
_symmetry_cell_setting 'tetragonal'
loop_
_space_group_symop_operation_xyz
x,y,z
-y,x,z
-x,-y,z
y,-x,z
x,-y,-z
-x,y,-z
y,x,-z
-y,-x,-z
-x,-y,-z
y,-x,-z
x,y,-z
-y,x,-z
-x,y,z
x,-y,z
-y,-x,z
y,x,z
1/2+x,1/2+y,1/2+z
1/2-y,1/2+x,1/2+z
1/2-x,1/2-y,1/2+z
1/2+y,1/2-x,1/2+z
1/2+x,1/2-y,1/2-z
1/2-x,1/2+y,1/2-z
1/2+y,1/2+x,1/2-z
1/2-y,1/2-x,1/2-z
1/2-x,1/2-y,1/2-z
1/2+y,1/2-x,1/2-z
1/2+x,1/2+y,1/2-z
1/2-y,1/2+x,1/2-z
1/2-x,1/2+y,1/2+z
1/2+x,1/2-y,1/2+z
1/2-y,1/2-x,1/2+z
1/2+y,1/2+x,1/2+z
loop_
_atom_site_type_symbol
_atom_site_label
_atom_site_fract_x
_atom_site_fract_y
_atom_site_fract_z
Si Si1 0.851392 0.337319 0.061079
Si Si2 0.185779 0.275333 0.336505
Si Si3 0.878286 0.563549 0.298371
Si Si4 0.433321 0.339807 0.667021
Si Si5 0.934813 0.566376 0.084682
Si Si6 0.627357 0.763189 0.276394
Si Si7 0.765889 0.934850 0.062831
O O1 0.802045 0.342334 0.107666
O O2 0.888690 0.394946 0.052663
O O3 0.893712 0.286126 0.079623
O O4 0.824347 0.324346 0.000000
O O5 0.214309 0.214309 0.352624
O O6 0.237864 0.312654 0.309619
O O7 0.136006 0.265791 0.290245
O O8 0.854417 0.500000 0.291070
O O9 0.921305 0.578696 0.250000
O O10 0.917388 0.571403 0.351620
O O11 0.822392 0.602362 0.299957
O O12 0.500000 0.352420 0.679100
O O13 0.398357 0.398357 0.676311
O O14 0.411605 0.291481 0.709961
O O15 0.423338 0.318800 0.603960
O O16 0.918782 0.500000 0.075375
O O17 0.000000 0.577984 0.063570
O O18 0.743373 0.000000 0.070016
O O19 0.787275 0.923616 0.000000
#
# Coordination Sequence:
#
# PCOD8319724 Si02
#       7
#    32  32  32  32  32  32  32
#     4  11  21  34  52  73  99 131 169 215 261 299
#     4  11  21  34  53  76 102 128 161 208 262 311
#     4  11  19  30  48  73 105 137 173 211 254 297
#     4  11  22  36  55  78 104 134 170 210 257 310
#     4  10  20  33  48  68  98 138 179 213 248 293
#     4  11  19  35  55  76  99 133 167 207 254 305
#     4   9  18  32  50  72  99 134 176 218 253 288
#
# _framework density 17.124196999999999
#
# number of rings (size 3 to 8) (size 9 to 14) (size 15 to 20)
#    0.000    1.429    4.286    3.000    0.000    4.857 
#    0.000    2.857    0.000    0.000    0.000    2.000 
#    0.000    0.000    0.000    0.000    0.000    0.143 
#
# Total GULP energy -1388398.333862 kJ/mol
# GULP energy per Si atom -12396.413695 kJ/mol
# Density = 1.708522 g / cm^3
# Si number density = 17.124197 Si / 1000 Ang^3
#
#
#
# Elastic Constant Matrix: (Units=GPa)
#
#
# Indices 1 2 3 4 5 6 
#
# 1 65.5114 29.5586 35.3500 0.0000 0.0000 0.0000
# 2 29.5586 65.5084 35.3503 0.0000 0.0000 0.0000
# 3 35.3500 35.3503 104.2928 0.0000 0.0000 0.0000
# 4 0.0000 0.0000 0.0000 15.8973 0.0000 0.0000
# 5 0.0000 0.0000 0.0000 0.0000 15.9023 0.0000
# 6 0.0000 0.0000 0.0000 0.0000 0.0000 25.4174
#
#
#
# Elastic Compliance Matrix: (Units=1/GPa)
#
#
# Indices 1 2 3 4 5 6 
#
# 1 0.020939 -0.006876 -0.004767 0.000000 0.000000 0.000000
# 2 -0.006876 0.020940 -0.004767 0.000000 0.000000 0.000000
# 3 -0.004767 -0.004767 0.012820 0.000000 0.000000 0.000000
# 4 0.000000 0.000000 0.000000 0.062904 0.000000 0.000000
# 5 0.000000 0.000000 0.000000 0.000000 0.062884 0.000000
# 6 0.000000 0.000000 0.000000 0.000000 0.000000 0.039343
#
#
# Mechanical properties :
#
#
# Convention : Reuss Voigt Hill
#
# Bulk Modulus (GPa) = 45.70436 48.42558 47.06497
# Shear Modulus (GPa) = 19.23499 20.44696 19.84098
#
# Velocity S-wave (km/s) = 3.35515 3.45924 3.40759
# Velocity P-wave (km/s) = 6.46198 6.65549 6.55945
#
# Compressibility (1/GPa) = 0.02187975
#
# Stress axis : x y z
#
# Youngs Moduli (GPa) = 47.75779 47.75499 78.00369
#
# Poissons Ratio (x) = 0.32835 0.37182
# Poissons Ratio (y) = 0.32837 0.37186
# Poissons Ratio (z) = 0.22765 0.22766
#
# Static dielectric constant tensor:
#      x y z
#    x 3.697820 0.000000 0.000000 
#    y 0.000000 3.700070 0.000000 
#    z 0.000000 0.000000 3.260920 
# 
# 
# High freq. dielectric constant tensor:
#      x y z
#    x 1.641650 0.000000 0.000000 
#    y 0.000000 1.641650 0.000000 
#    z 0.000000 0.000000 1.666640 
# 
# From -- ./inp_files/12175.got.cif
#   From: 2010.03.12/outbox.cif.g09.slc.cpg/sg139_7_cif.got.tgz:12175.got - 2010.04.08 09:46:31.
