data_PCOD8319171
_publ_section_title
;
Structure prediction by ZEFSAII (Michael W. Deem and Ramdas Pophale) SiO2 
 PCOD8319171
Probable space group: P 42/N C M
;
_chemical_formula_sum "Si O2"
_cell_formula_units_Z 80
_cell_length_a 30.649682
_cell_length_b 30.649682
_cell_length_c 5.022399
_cell_angle_alpha 90.000000
_cell_angle_beta 90.000000
_cell_angle_gamma 90.000000
_cell_volume 4718.056721
_symmetry_space_group_name_H-M "P 42/N C M"
_symmetry_group_IT_number 138
_space_group.IT_coordinate_system_code '2'
_symmetry_cell_setting 'tetragonal'
loop_
_space_group_symop_operation_xyz
x,y,z
1/2-y,x,1/2+z
1/2-x,1/2-y,z
y,1/2-x,1/2+z
1/2+x,-y,1/2-z
-x,1/2+y,1/2-z
1/2+y,1/2+x,-z
-y,-x,-z
-x,-y,-z
1/2+y,-x,1/2-z
1/2+x,1/2+y,-z
-y,1/2+x,1/2-z
1/2-x,y,1/2+z
x,1/2-y,1/2+z
1/2-y,1/2-x,z
y,x,z
loop_
_atom_site_type_symbol
_atom_site_label
_atom_site_fract_x
_atom_site_fract_y
_atom_site_fract_z
Si Si1 0.274772 0.906031 0.446712
Si Si2 0.633829 0.094806 0.738480
Si Si3 0.500952 0.069455 0.910994
Si Si4 0.222989 0.009874 0.933334
Si Si5 0.500720 0.626088 0.118841
O O1 0.262734 0.890307 0.742279
O O2 0.320274 0.884963 0.359380
O O3 0.278546 0.957973 0.441902
O O4 0.599685 0.099685 0.500000
O O5 0.637738 0.043339 0.784417
O O6 0.619867 0.119867 0.000000
O O7 0.507117 0.102476 0.663761
O O8 0.469156 0.030845 0.814749
O O9 0.547921 0.047921 0.000000
O O10 0.477495 0.093761 0.163001
O O11 0.251348 0.028170 0.688653
O O12 0.172143 0.026342 0.924263
#
# Coordination Sequence:
#
# PCOD8319171 Si02
#       5
#    16  16  16  16  16
#     4   9  17  29  42  57  81 106 122 147 195 253
#     4  11  20  29  44  65  85 102 129 165 202 255
#     4  11  22  34  46  62  87 121 163 201 227 253
#     4   9  17  29  45  65  85 107 135 168 217 278
#     4  11  20  32  48  64  87 117 144 180 230 266
#
# _framework density 16.956133000000001
#
# number of rings (size 3 to 8) (size 9 to 14) (size 15 to 20)
#    0.000    1.800    0.000    6.600    0.000    8.000 
#    0.000    0.000    0.000    0.000    0.000    0.000 
#    0.000   28.000    0.000    0.000    0.000    0.000 
#
# Total GULP energy -991341.345842 kJ/mol
# GULP energy per Si atom -12391.766823 kJ/mol
# Density = 1.691754 g / cm^3
# Si number density = 16.956133 Si / 1000 Ang^3
#
#
#
# Elastic Constant Matrix: (Units=GPa)
#
#
# Indices 1 2 3 4 5 6 
#
# 1 52.3947 6.1841 13.8588 0.0000 0.0000 0.0000
# 2 6.1841 52.3947 13.8588 0.0000 0.0000 0.0000
# 3 13.8588 13.8588 103.1065 0.0000 0.0000 0.0000
# 4 0.0000 0.0000 0.0000 24.0651 0.0000 0.0000
# 5 0.0000 0.0000 0.0000 0.0000 24.0651 0.0000
# 6 0.0000 0.0000 0.0000 0.0000 0.0000 8.1730
#
#
#
# Elastic Compliance Matrix: (Units=1/GPa)
#
#
# Indices 1 2 3 4 5 6 
#
# 1 0.019935 -0.001705 -0.002450 0.000000 0.000000 0.000000
# 2 -0.001705 0.019935 -0.002450 0.000000 0.000000 0.000000
# 3 -0.002450 -0.002450 0.010357 0.000000 0.000000 0.000000
# 4 0.000000 0.000000 0.000000 0.041554 0.000000 0.000000
# 5 0.000000 0.000000 0.000000 0.000000 0.041554 0.000000
# 6 0.000000 0.000000 0.000000 0.000000 0.000000 0.122354
#
#
# Mechanical properties :
#
#
# Convention : Reuss Voigt Hill
#
# Bulk Modulus (GPa) = 27.01477 30.63324 28.82401
# Shear Modulus (GPa) = 17.77840 22.86026 20.31933
#
# Velocity S-wave (km/s) = 3.24156 3.67577 3.46547
# Velocity P-wave (km/s) = 5.47513 6.01003 5.74880
#
# Compressibility (1/GPa) = 0.03701679
#
# Stress axis : x y z
#
# Youngs Moduli (GPa) = 50.16235 50.16235 96.54891
#
# Poissons Ratio (x) = 0.08552 0.23658
# Poissons Ratio (y) = 0.08552 0.23658
# Poissons Ratio (z) = 0.12292 0.12292
#
# Static dielectric constant tensor:
#      x y z
#    x 3.008270 0.000000 0.000000 
#    y 0.000000 3.008270 0.000000 
#    z 0.000000 0.000000 3.280070 
# 
# 
# High freq. dielectric constant tensor:
#      x y z
#    x 1.609760 0.000000 0.000000 
#    y 0.000000 1.609760 0.000000 
#    z 0.000000 0.000000 1.680220 
# 
# From -- ./inp_files/501.got.cif
#   From: 2010.03.12/outbox.cif.g09.slc.cpg/sg138_1_cif.got.tgz:501.got - 2010.04.08 09:41:05.
