data_PCOD8319767
_publ_section_title
;
Structure prediction by ZEFSAII (Michael W. Deem and Ramdas Pophale) SiO2 
 PCOD8319767
Probable space group: I 4/M M M
;
_chemical_formula_sum "Si O2"
_cell_formula_units_Z 240
_cell_length_a 26.963523
_cell_length_b 26.963523
_cell_length_c 17.516684
_cell_angle_alpha 90.000000
_cell_angle_beta 90.000000
_cell_angle_gamma 90.000000
_cell_volume 12735.182315
_symmetry_space_group_name_H-M "I 4/M M M"
_symmetry_group_IT_number 139
_symmetry_cell_setting 'tetragonal'
loop_
_space_group_symop_operation_xyz
x,y,z
-y,x,z
-x,-y,z
y,-x,z
x,-y,-z
-x,y,-z
y,x,-z
-y,-x,-z
-x,-y,-z
y,-x,-z
x,y,-z
-y,x,-z
-x,y,z
x,-y,z
-y,-x,z
y,x,z
1/2+x,1/2+y,1/2+z
1/2-y,1/2+x,1/2+z
1/2-x,1/2-y,1/2+z
1/2+y,1/2-x,1/2+z
1/2+x,1/2-y,1/2-z
1/2-x,1/2+y,1/2-z
1/2+y,1/2+x,1/2-z
1/2-y,1/2-x,1/2-z
1/2-x,1/2-y,1/2-z
1/2+y,1/2-x,1/2-z
1/2+x,1/2+y,1/2-z
1/2-y,1/2+x,1/2-z
1/2-x,1/2+y,1/2+z
1/2+x,1/2-y,1/2+z
1/2-y,1/2-x,1/2+z
1/2+y,1/2+x,1/2+z
loop_
_atom_site_type_symbol
_atom_site_label
_atom_site_fract_x
_atom_site_fract_y
_atom_site_fract_z
Si Si1 0.861183 0.944005 0.500000
Si Si2 0.113176 0.192528 0.808153
Si Si3 0.444320 0.137747 0.657980
Si Si4 0.703823 0.870915 0.586804
Si Si5 0.366600 0.943497 0.338773
Si Si6 0.689014 0.393326 0.865063
Si Si7 0.725532 0.804106 0.169774
Si Si8 0.759324 0.441634 0.414432
O O1 0.908725 0.908725 0.500000
O O2 0.828539 0.936437 0.577000
O O3 0.880638 0.000000 0.500000
O O4 0.138181 0.138181 0.822898
O O5 0.089122 0.194977 0.723117
O O6 0.154115 0.233796 0.823103
O O7 0.071509 0.208202 0.869304
O O8 0.500000 0.129143 0.626999
O O9 0.411633 0.090911 0.630297
O O10 0.443731 0.138392 0.748585
O O11 0.422522 0.190098 0.626981
O O12 0.690533 0.879767 0.500000
O O13 0.683542 0.918775 0.631236
O O14 0.761770 0.868779 0.602759
O O15 0.681430 0.817341 0.609950
O O16 0.373093 0.000000 0.369190
O O17 0.650071 0.349930 0.866043
O O18 0.751886 0.751886 0.148175
O O19 0.698287 0.801714 0.250000
O O20 0.756812 0.419119 0.500000
O O21 0.761701 0.500000 0.418040
#
# Coordination Sequence:
#
# PCOD8319767 Si02
#       8
#    16  32  32  32  32  32  32  32
#     4  10  22  39  60  86 114 146 185 227 267 317
#     4  10  20  34  56  83 111 143 178 223 271 318
#     4   9  19  37  59  76  95 134 182 231 283 333
#     4  12  23  33  51  77 108 149 178 218 265 317
#     4  10  22  36  52  77 105 134 175 228 283 336
#     4  10  20  36  56  79 108 146 185 215 257 318
#     4  10  20  33  52  76 104 140 180 215 257 313
#     4  10  21  37  56  78 106 142 183 224 268 325
#
# _framework density 18.845431000000001
#
# number of rings (size 3 to 8) (size 9 to 14) (size 15 to 20)
#    0.000    1.867    2.000    2.000    1.867    4.867 
#    0.000    2.667    0.000    0.000    0.000    2.800 
#    0.000    0.267    0.000    1.467    0.000    0.000 
#
# Total GULP energy -1487382.434670 kJ/mol
# GULP energy per Si atom -12394.853622 kJ/mol
# Density = 1.880254 g / cm^3
# Si number density = 18.845431 Si / 1000 Ang^3
#
#
#
# Elastic Constant Matrix: (Units=GPa)
#
#
# Indices 1 2 3 4 5 6 
#
# 1 61.6311 19.3517 39.9840 0.0000 0.0000 0.0000
# 2 19.3517 61.6318 39.9840 0.0000 0.0000 0.0000
# 3 39.9840 39.9840 74.2393 0.0000 0.0000 0.0000
# 4 0.0000 0.0000 0.0000 21.7141 0.0000 0.0000
# 5 0.0000 0.0000 0.0000 0.0000 21.7141 0.0000
# 6 0.0000 0.0000 0.0000 0.0000 0.0000 22.6516
#
#
#
# Elastic Compliance Matrix: (Units=1/GPa)
#
#
# Indices 1 2 3 4 5 6 
#
# 1 0.025014 0.001362 -0.014206 0.000000 0.000000 0.000000
# 2 0.001362 0.025014 -0.014205 0.000000 0.000000 0.000000
# 3 -0.014206 -0.014205 0.028772 0.000000 0.000000 0.000000
# 4 0.000000 0.000000 0.000000 0.046053 0.000000 0.000000
# 5 0.000000 0.000000 0.000000 0.000000 0.046053 0.000000
# 6 0.000000 0.000000 0.000000 0.000000 0.000000 0.044147
#
#
# Mechanical properties :
#
#
# Convention : Reuss Voigt Hill
#
# Bulk Modulus (GPa) = 40.48418 44.01573 42.24995
# Shear Modulus (GPa) = 18.02555 19.76145 18.89350
#
# Velocity S-wave (km/s) = 3.09608 3.24173 3.16974
# Velocity P-wave (km/s) = 5.85746 6.11708 5.98868
#
# Compressibility (1/GPa) = 0.02470101
#
# Stress axis : x y z
#
# Youngs Moduli (GPa) = 39.97765 39.97829 34.75660
#
# Poissons Ratio (x) = -0.05444 0.49374
# Poissons Ratio (y) = -0.05444 0.49373
# Poissons Ratio (z) = 0.56790 0.56790
#
# Static dielectric constant tensor:
#      x y z
#    x 3.544130 0.000000 0.000000 
#    y 0.000000 3.544130 0.000000 
#    z 0.000000 0.000000 3.738710 
# 
# 
# High freq. dielectric constant tensor:
#      x y z
#    x 1.721070 0.000000 0.000000 
#    y 0.000000 1.721070 0.000000 
#    z 0.000000 0.000000 1.729710 
# 
# From -- ./inp_files/9073.got.cif
#   From: 2010.03.12/outbox.cif.g09.slc.cpg/sg139_5_cif.got.tgz:9073.got - 2010.04.08 09:46:31.
