data_PCOD8319183
_publ_section_title
;
Structure prediction by ZEFSAII (Michael W. Deem and Ramdas Pophale) SiO2 
 PCOD8319183
Probable space group: P 42/N C M
;
_chemical_formula_sum "Si O2"
_cell_formula_units_Z 112
_cell_length_a 25.145345
_cell_length_b 25.145345
_cell_length_c 10.500424
_cell_angle_alpha 90.000000
_cell_angle_beta 90.000000
_cell_angle_gamma 90.000000
_cell_volume 6639.296030
_symmetry_space_group_name_H-M "P 42/N C M"
_symmetry_group_IT_number 138
_space_group.IT_coordinate_system_code '2'
_symmetry_cell_setting 'tetragonal'
loop_
_space_group_symop_operation_xyz
x,y,z
1/2-y,x,1/2+z
1/2-x,1/2-y,z
y,1/2-x,1/2+z
1/2+x,-y,1/2-z
-x,1/2+y,1/2-z
1/2+y,1/2+x,-z
-y,-x,-z
-x,-y,-z
1/2+y,-x,1/2-z
1/2+x,1/2+y,-z
-y,1/2+x,1/2-z
1/2-x,y,1/2+z
x,1/2-y,1/2+z
1/2-y,1/2-x,z
y,x,z
loop_
_atom_site_type_symbol
_atom_site_label
_atom_site_fract_x
_atom_site_fract_y
_atom_site_fract_z
Si Si1 0.661055 0.234603 0.920426
Si Si2 0.953114 0.229855 0.982256
Si Si3 0.939539 0.119822 0.090596
Si Si4 0.903960 0.510657 0.890508
Si Si5 0.468092 0.700361 0.291130
Si Si6 0.352237 0.665149 0.228084
Si Si7 0.991518 0.075979 0.330734
O O1 0.640025 0.187074 0.831154
O O2 0.679651 0.286315 0.840471
O O3 0.711077 0.211077 0.000000
O O4 0.609056 0.253749 0.997751
O O5 0.963077 0.168039 0.010341
O O6 0.984371 0.264281 0.086534
O O7 0.976629 0.235014 0.838360
O O8 0.879362 0.133527 0.127698
O O9 0.977607 0.112924 0.211662
O O10 0.932992 0.067009 0.000000
O O11 0.931203 0.568798 0.874040
O O12 0.851618 0.505833 0.802587
O O13 0.944771 0.466140 0.845954
O O14 0.890018 0.499174 0.039431
O O15 0.405989 0.684623 0.296685
O O16 0.046405 0.046405 0.299928
#
# Coordination Sequence:
#
# PCOD8319183 Si02
#       7
#    16  16  16  16  16  16  16
#     4  11  23  38  45  58  82 120 174 219 271 318
#     4  11  24  37  51  72  96 132 179 210 268 325
#     4  12  20  35  49  66 102 130 167 224 263 315
#     4   9  18  34  55  79  99 124 168 214 265 327
#     4  11  21  37  54  77  97 132 171 213 267 317
#     4  11  23  35  46  65  85 125 170 226 279 309
#     4   9  19  32  53  79  98 125 165 212 271 326
#
# _framework density 16.869257000000001
#
# number of rings (size 3 to 8) (size 9 to 14) (size 15 to 20)
#    0.000    1.429    5.714    2.571    4.000    0.571 
#    2.571    0.714    0.000    0.000    0.000    0.000 
#    0.000    0.000    0.000    0.000    0.000    5.714 
#
# Total GULP energy -1387917.311572 kJ/mol
# GULP energy per Si atom -12392.118853 kJ/mol
# Density = 1.683086 g / cm^3
# Si number density = 16.869257 Si / 1000 Ang^3
#
#
#
# Elastic Constant Matrix: (Units=GPa)
#
#
# Indices 1 2 3 4 5 6 
#
# 1 38.9449 27.1573 31.9627 0.0000 0.0000 0.0000
# 2 27.1573 38.9447 31.9622 0.0000 0.0000 0.0000
# 3 31.9627 31.9622 98.3543 0.0000 0.0000 0.0000
# 4 0.0000 0.0000 0.0000 25.6997 0.0000 0.0000
# 5 0.0000 0.0000 0.0000 0.0000 25.6996 0.0000
# 6 0.0000 0.0000 0.0000 0.0000 0.0000 25.2776
#
#
#
# Elastic Compliance Matrix: (Units=1/GPa)
#
#
# Indices 1 2 3 4 5 6 
#
# 1 0.053449 -0.031387 -0.007170 0.000000 0.000000 0.000000
# 2 -0.031387 0.053448 -0.007169 0.000000 0.000000 0.000000
# 3 -0.007170 -0.007169 0.014827 0.000000 0.000000 0.000000
# 4 0.000000 0.000000 0.000000 0.038911 0.000000 0.000000
# 5 0.000000 0.000000 0.000000 0.000000 0.038911 0.000000
# 6 0.000000 0.000000 0.000000 0.000000 0.000000 0.039561
#
#
# Mechanical properties :
#
#
# Convention : Reuss Voigt Hill
#
# Bulk Modulus (GPa) = 33.03345 39.82313 36.42829
# Shear Modulus (GPa) = 14.67786 21.01282 17.84534
#
# Velocity S-wave (km/s) = 2.95294 3.53317 3.25601
# Velocity P-wave (km/s) = 5.59026 6.34843 5.98137
#
# Compressibility (1/GPa) = 0.03027235
#
# Stress axis : x y z
#
# Youngs Moduli (GPa) = 18.70958 18.70964 67.44455
#
# Poissons Ratio (x) = 0.58724 0.48355
# Poissons Ratio (y) = 0.58724 0.48352
# Poissons Ratio (z) = 0.13414 0.13413
#
# Static dielectric constant tensor:
#      x y z
#    x 2.934540 0.000000 0.000000 
#    y 0.000000 2.934540 0.000000 
#    z 0.000000 0.000000 3.517500 
# 
# 
# High freq. dielectric constant tensor:
#      x y z
#    x 1.604150 0.000000 0.000000 
#    y 0.000000 1.604150 0.000000 
#    z 0.000000 0.000000 1.674360 
# 
# From -- ./inp_files/3309.got.cif
#   From: 2010.03.12/outbox.cif.g09.slc.cpg/sg138_2_cif.got.tgz:3309.got - 2010.04.08 09:41:05.
