data_PCOD8319195
_publ_section_title
;
Structure prediction by ZEFSAII (Michael W. Deem and Ramdas Pophale) SiO2 
 PCOD8319195
Probable space group: P 42/N C M
;
_chemical_formula_sum "Si O2"
_cell_formula_units_Z 80
_cell_length_a 10.898914
_cell_length_b 10.898914
_cell_length_c 32.840954
_cell_angle_alpha 90.000000
_cell_angle_beta 90.000000
_cell_angle_gamma 90.000000
_cell_volume 3901.056280
_symmetry_space_group_name_H-M "P 42/N C M"
_symmetry_group_IT_number 138
_space_group.IT_coordinate_system_code '2'
_symmetry_cell_setting 'tetragonal'
loop_
_space_group_symop_operation_xyz
x,y,z
1/2-y,x,1/2+z
1/2-x,1/2-y,z
y,1/2-x,1/2+z
1/2+x,-y,1/2-z
-x,1/2+y,1/2-z
1/2+y,1/2+x,-z
-y,-x,-z
-x,-y,-z
1/2+y,-x,1/2-z
1/2+x,1/2+y,-z
-y,1/2+x,1/2-z
1/2-x,y,1/2+z
x,1/2-y,1/2+z
1/2-y,1/2-x,z
y,x,z
loop_
_atom_site_type_symbol
_atom_site_label
_atom_site_fract_x
_atom_site_fract_y
_atom_site_fract_z
Si Si1 0.450573 0.250704 0.245704
Si Si2 0.090783 0.610498 0.690224
Si Si3 0.983352 0.708470 0.041360
Si Si4 0.312749 0.995272 0.048181
Si Si5 0.596887 0.098924 0.398998
O O1 0.369912 0.130089 0.233755
O O2 0.360378 0.360378 0.260321
O O3 0.531181 0.294697 0.207191
O O4 0.550659 0.223803 0.280978
O O5 0.124157 0.660885 0.645068
O O6 0.970183 0.529818 0.686891
O O7 0.850853 0.649148 0.052373
O O8 0.083814 0.604439 0.042358
O O9 0.013745 0.815182 0.072774
O O10 0.981562 0.758439 0.994681
O O11 0.224631 0.937877 0.081401
O O12 0.376985 0.123016 0.062560
O O13 0.527630 0.972371 0.391523
#
# Coordination Sequence:
#
# PCOD8319195 Si02
#       5
#    16  16  16  16  16
#     4   9  18  37  60  76 104 147 182 225 282 336
#     4   9  20  37  55  80 108 140 182 219 271 344
#     4   9  19  37  57  76 107 153 196 229 269 328
#     4   9  19  37  57  76 107 153 196 229 269 328
#     4  11  22  34  53  84 118 142 174 234 291 332
#
# _framework density 20.507266999999999
#
# number of rings (size 3 to 8) (size 9 to 14) (size 15 to 20)
#    0.000    2.600    0.000    2.400    0.000    6.000 
#    7.200    6.000    0.000    0.000    0.000    0.000 
#    0.000    0.000    0.000    0.000    0.000    0.000 
#
# Total GULP energy -991354.032867 kJ/mol
# GULP energy per Si atom -12391.925411 kJ/mol
# Density = 2.046059 g / cm^3
# Si number density = 20.507267 Si / 1000 Ang^3
#
#
#
# Elastic Constant Matrix: (Units=GPa)
#
#
# Indices 1 2 3 4 5 6 
#
# 1 36.4939 54.6542 37.3658 0.0000 0.0000 0.0000
# 2 54.6542 36.4939 37.3658 0.0000 0.0000 0.0000
# 3 37.3658 37.3658 129.2818 0.0000 0.0000 0.0000
# 4 0.0000 0.0000 0.0000 43.5792 0.0000 0.0000
# 5 0.0000 0.0000 0.0000 0.0000 43.5792 0.0000
# 6 0.0000 0.0000 0.0000 0.0000 0.0000 32.7021
#
#
#
# Elastic Compliance Matrix: (Units=1/GPa)
#
#
# Indices 1 2 3 4 5 6 
#
# 1 -0.020343 0.034722 -0.004156 0.000000 0.000000 0.000000
# 2 0.034722 -0.020343 -0.004156 0.000000 0.000000 0.000000
# 3 -0.004156 -0.004156 0.010137 0.000000 0.000000 0.000000
# 4 0.000000 0.000000 0.000000 0.022947 0.000000 0.000000
# 5 0.000000 0.000000 0.000000 0.000000 0.022947 0.000000
# 6 0.000000 0.000000 0.000000 0.000000 0.000000 0.030579
#
#
# Mechanical properties :
#
#
# Convention : Reuss Voigt Hill
#
# Bulk Modulus (GPa) = 44.90112 51.22678 48.06395
# Shear Modulus (GPa) = 9499.40028 28.83102 4764.11565
#
# Velocity S-wave (km/s) = 68.13419 3.75359 48.25120
# Velocity P-wave (km/s) = 78.81391 6.61967 55.92608
#
# Compressibility (1/GPa) = 0.02227116
#
# Stress axis : x y z
#
# Youngs Moduli (GPa) = -49.15617 -49.15617 98.64592
#
# Poissons Ratio (x) = 1.70679 0.40995
# Poissons Ratio (y) = 1.70679 0.40995
# Poissons Ratio (z) = -0.20428 -0.20428
#
# Static dielectric constant tensor:
#      x y z
#    x 3.774920 0.000000 0.000000 
#    y 0.000000 3.774920 0.000000 
#    z 0.000000 0.000000 4.238580 
# 
# 
# High freq. dielectric constant tensor:
#      x y z
#    x 1.799610 0.000000 0.000000 
#    y 0.000000 1.799610 0.000000 
#    z 0.000000 0.000000 1.791860 
# 
# From -- ./inp_files/7928.got.cif
#   From: 2010.03.12/outbox.cif.g09.slc.cpg/sg138_4_cif.got.tgz:7928.got - 2010.04.08 09:41:05.
