data_PCOD8319306
_publ_section_title
;
Structure prediction by ZEFSAII (Michael W. Deem and Ramdas Pophale) SiO2 
 PCOD8319306
Probable space group: I 4/M M M
;
_chemical_formula_sum "Si O2"
_cell_formula_units_Z 144
_cell_length_a 19.749694
_cell_length_b 19.749694
_cell_length_c 21.661971
_cell_angle_alpha 90.000000
_cell_angle_beta 90.000000
_cell_angle_gamma 90.000000
_cell_volume 8449.260737
_symmetry_space_group_name_H-M "I 4/M M M"
_symmetry_group_IT_number 139
_symmetry_cell_setting 'tetragonal'
loop_
_space_group_symop_operation_xyz
x,y,z
-y,x,z
-x,-y,z
y,-x,z
x,-y,-z
-x,y,-z
y,x,-z
-y,-x,-z
-x,-y,-z
y,-x,-z
x,y,-z
-y,x,-z
-x,y,z
x,-y,z
-y,-x,z
y,x,z
1/2+x,1/2+y,1/2+z
1/2-y,1/2+x,1/2+z
1/2-x,1/2-y,1/2+z
1/2+y,1/2-x,1/2+z
1/2+x,1/2-y,1/2-z
1/2-x,1/2+y,1/2-z
1/2+y,1/2+x,1/2-z
1/2-y,1/2-x,1/2-z
1/2-x,1/2-y,1/2-z
1/2+y,1/2-x,1/2-z
1/2+x,1/2+y,1/2-z
1/2-y,1/2+x,1/2-z
1/2-x,1/2+y,1/2+z
1/2+x,1/2-y,1/2+z
1/2-y,1/2-x,1/2+z
1/2+y,1/2+x,1/2+z
loop_
_atom_site_type_symbol
_atom_site_label
_atom_site_fract_x
_atom_site_fract_y
_atom_site_fract_z
Si Si1 0.574464 0.315149 0.500000
Si Si2 0.213877 0.324098 0.072683
Si Si3 0.423808 0.218095 0.614338
Si Si4 0.686479 0.578039 0.865702
Si Si5 0.184508 0.924610 0.224720
O O1 0.500000 0.345697 0.500000
O O2 0.622300 0.377701 0.500000
O O3 0.587299 0.272855 0.438672
O O4 0.256139 0.256139 0.092350
O O5 0.140277 0.331782 0.105938
O O6 0.255467 0.390362 0.091716
O O7 0.202390 0.324282 0.000000
O O8 0.500000 0.185055 0.607700
O O9 0.416331 0.250362 0.681694
O O10 0.677455 0.500000 0.883730
O O11 0.614823 0.614823 0.877982
O O12 0.708487 0.588505 0.794620
O O13 0.126573 0.873428 0.203181
O O14 0.153869 0.000000 0.218349
#
# Coordination Sequence:
#
# PCOD8319306 Si02
#       5
#    16  32  32  32  32
#     4  10  18  27  40  60  89 123 160 198 232 272
#     4  10  19  31  50  72  95 125 162 204 246 290
#     4  10  19  30  46  68  94 127 164 202 239 277
#     4   9  19  34  51  74 100 126 157 194 241 295
#     4   9  17  29  45  67  97 129 162 199 238 285
#
# _framework density 17.042911
#
# number of rings (size 3 to 8) (size 9 to 14) (size 15 to 20)
#    0.000    2.444    1.111    2.000    0.000    1.889 
#    0.000    5.556    0.000    4.667    0.000    4.667 
#    0.000    5.333    0.000    0.000    0.000    0.000 
#
# Total GULP energy -892403.386179 kJ/mol
# GULP energy per Si atom -12394.491475 kJ/mol
# Density = 1.700412 g / cm^3
# Si number density = 17.042911 Si / 1000 Ang^3
#
#
#
# Elastic Constant Matrix: (Units=GPa)
#
#
# Indices 1 2 3 4 5 6 
#
# 1 101.1655 47.4925 21.1562 0.0000 0.0000 0.0000
# 2 47.4925 101.1648 21.1562 0.0000 0.0000 0.0000
# 3 21.1562 21.1562 29.4598 0.0000 0.0000 0.0000
# 4 0.0000 0.0000 0.0000 24.4302 0.0000 0.0000
# 5 0.0000 0.0000 0.0000 0.0000 24.4309 0.0000
# 6 0.0000 0.0000 0.0000 0.0000 0.0000 20.6175
#
#
#
# Elastic Compliance Matrix: (Units=1/GPa)
#
#
# Indices 1 2 3 4 5 6 
#
# 1 0.013543 -0.005088 -0.006072 0.000000 0.000000 0.000000
# 2 -0.005088 0.013543 -0.006072 0.000000 0.000000 0.000000
# 3 -0.006072 -0.006072 0.042666 0.000000 0.000000 0.000000
# 4 0.000000 0.000000 0.000000 0.040933 0.000000 0.000000
# 5 0.000000 0.000000 0.000000 0.000000 0.040932 0.000000
# 6 0.000000 0.000000 0.000000 0.000000 0.000000 0.048502
#
#
# Mechanical properties :
#
#
# Convention : Reuss Voigt Hill
#
# Bulk Modulus (GPa) = 28.33821 45.71111 37.02466
# Shear Modulus (GPa) = 20.29664 23.36141 21.82902
#
# Velocity S-wave (km/s) = 3.45471 3.70637 3.58275
# Velocity P-wave (km/s) = 5.70763 6.72277 6.23589
#
# Compressibility (1/GPa) = 0.03528805
#
# Stress axis : x y z
#
# Youngs Moduli (GPa) = 73.83758 73.83699 23.43807
#
# Poissons Ratio (x) = 0.37570 0.14231
# Poissons Ratio (y) = 0.37570 0.14232
# Poissons Ratio (z) = 0.44834 0.44834
#
# Static dielectric constant tensor:
#      x y z
#    x 3.136140 0.000000 0.000000 
#    y 0.000000 3.136130 0.000000 
#    z 0.000000 0.000000 3.316690 
# 
# 
# High freq. dielectric constant tensor:
#      x y z
#    x 1.638180 0.000000 0.000000 
#    y 0.000000 1.638180 0.000000 
#    z 0.000000 0.000000 1.668260 
# 
# From -- ./inp_files/10255.got.cif
#   From: 2010.03.12/outbox.cif.g09.slc.cpg/sg139_6_cif.got.tgz:10255.got - 2010.04.08 09:46:31.
