data_PCOD8319193
_publ_section_title
;
Structure prediction by ZEFSAII (Michael W. Deem and Ramdas Pophale) SiO2 
 PCOD8319193
Probable space group: P 42/N C M
;
_chemical_formula_sum "Si O2"
_cell_formula_units_Z 80
_cell_length_a 23.395458
_cell_length_b 23.395458
_cell_length_c 10.023771
_cell_angle_alpha 90.000000
_cell_angle_beta 90.000000
_cell_angle_gamma 90.000000
_cell_volume 5486.485547
_symmetry_space_group_name_H-M "P 42/N C M"
_symmetry_group_IT_number 138
_space_group.IT_coordinate_system_code '2'
_symmetry_cell_setting 'tetragonal'
loop_
_space_group_symop_operation_xyz
x,y,z
1/2-y,x,1/2+z
1/2-x,1/2-y,z
y,1/2-x,1/2+z
1/2+x,-y,1/2-z
-x,1/2+y,1/2-z
1/2+y,1/2+x,-z
-y,-x,-z
-x,-y,-z
1/2+y,-x,1/2-z
1/2+x,1/2+y,-z
-y,1/2+x,1/2-z
1/2-x,y,1/2+z
x,1/2-y,1/2+z
1/2-y,1/2-x,z
y,x,z
loop_
_atom_site_type_symbol
_atom_site_label
_atom_site_fract_x
_atom_site_fract_y
_atom_site_fract_z
Si Si1 0.455567 0.044434 0.157388
Si Si2 0.135210 0.539946 0.155369
Si Si3 0.251896 0.582965 0.227226
Si Si4 0.752219 0.342077 0.022468
Si Si5 0.960343 0.135069 0.343014
Si Si6 0.455844 0.455844 0.341975
O O1 0.477773 0.107937 0.197711
O O2 0.499808 0.000193 0.223334
O O3 0.460883 0.039118 0.999756
O O4 0.193474 0.546452 0.239351
O O5 0.091168 0.591182 0.190052
O O6 0.150252 0.541121 0.998932
O O7 0.248735 0.636602 0.326389
O O8 0.306857 0.544311 0.259057
O O9 0.257484 0.605613 0.077155
O O10 0.815028 0.315028 0.000000
O O11 0.704481 0.295520 0.000000
O O12 0.022301 0.107537 0.300903
#
# Coordination Sequence:
#
# PCOD8319193 Si02
#       6
#     8  16  16  16  16   8
#     4   7  12  24  44  63  79 102 137 184 224 257
#     4   9  16  28  44  63  84 109 145 183 220 257
#     4  12  20  29  44  62  86 113 148 190 214 250
#     4  11  22  32  40  54  82 122 158 183 210 240
#     4   9  16  28  44  63  84 109 145 183 220 257
#     4   7  12  24  44  63  79 102 137 184 224 257
#
# _framework density 14.581283000000001
#
# number of rings (size 3 to 8) (size 9 to 14) (size 15 to 20)
#    0.000    2.400    2.000    6.000    0.000    1.600 
#    0.000    0.000    0.000    1.200    0.000    5.600 
#    0.000    0.800    0.000    7.200    0.000    0.000 
#
# Total GULP energy -991083.023560 kJ/mol
# GULP energy per Si atom -12388.537794 kJ/mol
# Density = 1.454809 g / cm^3
# Si number density = 14.581283 Si / 1000 Ang^3
#
#
#
# Elastic Constant Matrix: (Units=GPa)
#
#
# Indices 1 2 3 4 5 6 
#
# 1 84.6767 63.5304 18.3064 0.0000 0.0000 0.0000
# 2 63.5304 84.6735 18.3040 0.0000 0.0000 0.0000
# 3 18.3064 18.3040 25.3589 0.0000 0.0000 0.0000
# 4 0.0000 0.0000 0.0000 17.2503 0.0000 0.0000
# 5 0.0000 0.0000 0.0000 0.0000 17.2502 0.0000
# 6 0.0000 0.0000 0.0000 0.0000 0.0000 32.1772
#
#
#
# Elastic Compliance Matrix: (Units=1/GPa)
#
#
# Indices 1 2 3 4 5 6 
#
# 1 0.027752 -0.019541 -0.005930 0.000000 0.000000 0.000000
# 2 -0.019541 0.027752 -0.005925 0.000000 0.000000 0.000000
# 3 -0.005930 -0.005925 0.047991 0.000000 0.000000 0.000000
# 4 0.000000 0.000000 0.000000 0.057970 0.000000 0.000000
# 5 0.000000 0.000000 0.000000 0.000000 0.057970 0.000000
# 6 0.000000 0.000000 0.000000 0.000000 0.000000 0.031078
#
#
# Mechanical properties :
#
#
# Convention : Reuss Voigt Hill
#
# Bulk Modulus (GPa) = 24.56731 43.88787 34.22759
# Shear Modulus (GPa) = 15.29641 19.64010 17.46825
#
# Velocity S-wave (km/s) = 3.24241 3.67405 3.46496
# Velocity P-wave (km/s) = 5.55902 6.93991 6.28749
#
# Compressibility (1/GPa) = 0.04070450
#
# Stress axis : x y z
#
# Youngs Moduli (GPa) = 36.03284 36.03297 20.83712
#
# Poissons Ratio (x) = 0.70411 0.12356
# Poissons Ratio (y) = 0.70411 0.12347
# Poissons Ratio (z) = 0.21367 0.21350
#
# Static dielectric constant tensor:
#      x y z
#    x 2.924830 0.000000 0.000000 
#    y 0.000000 2.924830 0.000000 
#    z 0.000000 0.000000 2.575770 
# 
# 
# High freq. dielectric constant tensor:
#      x y z
#    x 1.539390 0.000000 0.000000 
#    y 0.000000 1.539390 0.000000 
#    z 0.000000 0.000000 1.531760 
# 
# From -- ./inp_files/1661.got.cif
#   From: 2010.03.12/outbox.cif.g09.slc.cpg/sg138_1_cif.got.tgz:1661.got - 2010.04.08 09:41:05.
