data_PCOD8319217
_publ_section_title
;
Structure prediction by ZEFSAII (Michael W. Deem and Ramdas Pophale) SiO2 
 PCOD8319217
Probable space group: P 42/N C M
;
_chemical_formula_sum "Si O2"
_cell_formula_units_Z 64
_cell_length_a 12.154288
_cell_length_b 12.154288
_cell_length_c 22.337790
_cell_angle_alpha 90.000000
_cell_angle_beta 90.000000
_cell_angle_gamma 90.000000
_cell_volume 3299.888377
_symmetry_space_group_name_H-M "P 42/N C M"
_symmetry_group_IT_number 138
_space_group.IT_coordinate_system_code '2'
_symmetry_cell_setting 'tetragonal'
loop_
_space_group_symop_operation_xyz
x,y,z
1/2-y,x,1/2+z
1/2-x,1/2-y,z
y,1/2-x,1/2+z
1/2+x,-y,1/2-z
-x,1/2+y,1/2-z
1/2+y,1/2+x,-z
-y,-x,-z
-x,-y,-z
1/2+y,-x,1/2-z
1/2+x,1/2+y,-z
-y,1/2+x,1/2-z
1/2-x,y,1/2+z
x,1/2-y,1/2+z
1/2-y,1/2-x,z
y,x,z
loop_
_atom_site_type_symbol
_atom_site_label
_atom_site_fract_x
_atom_site_fract_y
_atom_site_fract_z
Si Si1 0.842438 0.842438 0.593087
Si Si2 0.842794 0.842794 0.730066
Si Si3 0.136918 0.546170 0.595990
Si Si4 0.083542 0.715133 0.274549
Si Si5 0.196584 0.013618 0.973811
O O1 0.750000 0.750000 0.586151
O O2 0.866717 0.866717 0.661375
O O3 0.807731 0.953182 0.559449
O O4 0.750000 0.750000 0.741113
O O5 0.957005 0.800968 0.757126
O O6 0.202972 0.587827 0.653727
O O7 0.218871 0.496685 0.545332
O O8 0.042076 0.457925 0.614567
O O9 0.092302 0.653298 0.561531
O O10 0.123886 0.837257 0.256140
O O11 0.102465 0.102465 0.964240
#
# Coordination Sequence:
#
# PCOD8319217 Si02
#       5
#     8   8  16  16  16
#     4   9  16  30  51  85 113 139 190 246 299 354
#     4  11  24  40  65  91 119 165 208 256 305 368
#     4   9  16  33  55  81 113 155 205 246 290 365
#     4  11  24  40  60  88 127 168 204 250 310 368
#     4   8  15  27  53  84 114 150 194 249 298 348
#
# _framework density 19.394596
#
# number of rings (size 3 to 8) (size 9 to 14) (size 15 to 20)
#    0.000    2.500    1.250    3.000    1.750    2.000 
#    2.250    0.000    0.000   27.000    0.000    0.000 
#    0.000    0.000    0.000    0.000    0.000    0.000 
#
# Total GULP energy -792902.193646 kJ/mol
# GULP energy per Si atom -12389.096776 kJ/mol
# Density = 1.935045 g / cm^3
# Si number density = 19.394596 Si / 1000 Ang^3
#
#
#
# Elastic Constant Matrix: (Units=GPa)
#
#
# Indices 1 2 3 4 5 6 
#
# 1 76.7116 38.4101 46.9553 0.0000 0.0000 0.0000
# 2 38.4101 76.7116 46.9553 0.0000 0.0000 0.0000
# 3 46.9553 46.9553 178.5828 0.0000 0.0000 0.0000
# 4 0.0000 0.0000 0.0000 -150.1834 0.0000 0.0000
# 5 0.0000 0.0000 0.0000 0.0000 -150.1834 0.0000
# 6 0.0000 0.0000 0.0000 0.0000 0.0000 19.2416
#
#
#
# Elastic Compliance Matrix: (Units=1/GPa)
#
#
# Indices 1 2 3 4 5 6 
#
# 1 0.018583 -0.007525 -0.002908 0.000000 0.000000 0.000000
# 2 -0.007525 0.018583 -0.002908 0.000000 0.000000 0.000000
# 3 -0.002908 -0.002908 0.007129 0.000000 0.000000 0.000000
# 4 0.000000 0.000000 0.000000 -0.006659 0.000000 0.000000
# 5 0.000000 0.000000 0.000000 0.000000 -0.006659 0.000000
# 6 0.000000 0.000000 0.000000 0.000000 0.000000 0.051971
#
#
# Mechanical properties :
#
#
# Convention : Reuss Voigt Hill
#
# Bulk Modulus (GPa) = 56.77003 66.29414 61.53209
# Shear Modulus (GPa) = 43.28943 -42.91270 0.18836
#
# Velocity S-wave (km/s) = 4.72957 -4.70894 0.31198
# Velocity P-wave (km/s) = 7.69153 2.16574 5.65023
#
# Compressibility (1/GPa) = 0.01761493
#
# Stress axis : x y z
#
# Youngs Moduli (GPa) = 53.81119 53.81119 140.27901
#
# Poissons Ratio (x) = 0.40494 0.40788
# Poissons Ratio (y) = 0.40494 0.40788
# Poissons Ratio (z) = 0.15646 0.15646
#
# Static dielectric constant tensor:
#      x y z
#    x 3.626560 0.000000 0.000000 
#    y 0.000000 3.626560 0.000000 
#    z 0.000000 0.000000 3.743580 
# 
# 
# High freq. dielectric constant tensor:
#      x y z
#    x 1.731650 0.000000 0.000000 
#    y 0.000000 1.731650 0.000000 
#    z 0.000000 0.000000 1.774210 
# 
# From -- ./inp_files/5951.got.cif
#   From: 2010.03.12/outbox.cif.g09.slc.cpg/sg138_3_cif.got.tgz:5951.got - 2010.04.08 09:41:05.
