data_PCOD8319541
_publ_section_title
;
Structure prediction by ZEFSAII (Michael W. Deem and Ramdas Pophale) SiO2 
 PCOD8319541
Probable space group: I 4/M M M
;
_chemical_formula_sum "Si O2"
_cell_formula_units_Z 176
_cell_length_a 27.038125
_cell_length_b 27.038125
_cell_length_c 13.300102
_cell_angle_alpha 90.000000
_cell_angle_beta 90.000000
_cell_angle_gamma 90.000000
_cell_volume 9723.175275
_symmetry_space_group_name_H-M "I 4/M M M"
_symmetry_group_IT_number 139
_symmetry_cell_setting 'tetragonal'
loop_
_space_group_symop_operation_xyz
x,y,z
-y,x,z
-x,-y,z
y,-x,z
x,-y,-z
-x,y,-z
y,x,-z
-y,-x,-z
-x,-y,-z
y,-x,-z
x,y,-z
-y,x,-z
-x,y,z
x,-y,z
-y,-x,z
y,x,z
1/2+x,1/2+y,1/2+z
1/2-y,1/2+x,1/2+z
1/2-x,1/2-y,1/2+z
1/2+y,1/2-x,1/2+z
1/2+x,1/2-y,1/2-z
1/2-x,1/2+y,1/2-z
1/2+y,1/2+x,1/2-z
1/2-y,1/2-x,1/2-z
1/2-x,1/2-y,1/2-z
1/2+y,1/2-x,1/2-z
1/2+x,1/2+y,1/2-z
1/2-y,1/2+x,1/2-z
1/2-x,1/2+y,1/2+z
1/2+x,1/2-y,1/2+z
1/2-y,1/2-x,1/2+z
1/2+y,1/2+x,1/2+z
loop_
_atom_site_type_symbol
_atom_site_label
_atom_site_fract_x
_atom_site_fract_y
_atom_site_fract_z
Si Si1 0.864274 0.056873 0.612731
Si Si2 0.865185 0.942480 0.000000
Si Si3 0.182774 0.103506 0.195439
Si Si4 0.385035 0.945678 0.883401
Si Si5 0.216981 0.443283 0.289225
Si Si6 0.647510 0.942784 0.611252
O O1 0.841647 0.064733 0.500000
O O2 0.917536 0.082465 0.620727
O O3 0.828505 0.078865 0.697057
O O4 0.873212 0.000000 0.636123
O O5 0.837452 0.926446 0.899150
O O6 0.919703 0.919703 0.000000
O O7 0.871685 0.000000 0.000000
O O8 0.159569 0.159569 0.192890
O O9 0.242083 0.098862 0.186968
O O10 0.326855 0.935459 0.868887
O O11 0.416848 0.900425 0.837632
O O12 0.397687 0.000000 0.834641
O O13 0.397555 0.948014 0.000000
O O14 0.237897 0.500000 0.296260
O O15 0.195788 0.432927 0.177935
O O16 0.658732 0.921628 0.500000
O O17 0.634488 0.000000 0.607140
#
# Coordination Sequence:
#
# PCOD8319541 Si02
#       6
#    32  16  32  32  32  32
#     4   9  17  29  45  66  93 123 156 195 242 300
#     4  10  20  33  50  72 100 130 163 207 261 321
#     4  10  21  35  50  71  97 129 169 216 265 305
#     4   9  18  31  49  76 105 134 167 200 241 296
#     4  10  19  31  50  73  97 129 167 209 251 297
#     4   9  18  32  50  75 106 136 166 200 242 296
#
# _framework density 18.101082000000002
#
# number of rings (size 3 to 8) (size 9 to 14) (size 15 to 20)
#    0.000    2.545    0.000    2.182    1.273    1.364 
#    0.000    4.545    0.000    8.727    0.000    2.545 
#    0.000    0.000    0.000    0.000    0.000    0.000 
#
# Total GULP energy -1090302.226503 kJ/mol
# GULP energy per Si atom -12389.798028 kJ/mol
# Density = 1.805988 g / cm^3
# Si number density = 18.101082 Si / 1000 Ang^3
#
#
#
# Elastic Constant Matrix: (Units=GPa)
#
#
# Indices 1 2 3 4 5 6 
#
# 1 92.4019 53.1098 8.4218 0.0000 0.0000 0.0000
# 2 53.1098 92.4019 8.4218 0.0000 0.0000 0.0000
# 3 8.4218 8.4218 68.7302 0.0000 0.0000 0.0000
# 4 0.0000 0.0000 0.0000 17.0038 0.0000 0.0000
# 5 0.0000 0.0000 0.0000 0.0000 17.0038 0.0000
# 6 0.0000 0.0000 0.0000 0.0000 0.0000 29.6654
#
#
#
# Elastic Compliance Matrix: (Units=1/GPa)
#
#
# Indices 1 2 3 4 5 6 
#
# 1 0.016211 -0.009240 -0.000854 0.000000 0.000000 0.000000
# 2 -0.009240 0.016211 -0.000854 0.000000 0.000000 0.000000
# 3 -0.000854 -0.000854 0.014759 0.000000 0.000000 0.000000
# 4 0.000000 0.000000 0.000000 0.058810 0.000000 0.000000
# 5 0.000000 0.000000 0.000000 0.000000 0.058810 0.000000
# 6 0.000000 0.000000 0.000000 0.000000 0.000000 0.033709
#
#
# Mechanical properties :
#
#
# Convention : Reuss Voigt Hill
#
# Bulk Modulus (GPa) = 39.54992 43.71565 41.63279
# Shear Modulus (GPa) = 21.84981 24.97331 23.41156
#
# Velocity S-wave (km/s) = 3.47810 3.71841 3.60026
# Velocity P-wave (km/s) = 6.16656 6.52983 6.35079
#
# Compressibility (1/GPa) = 0.02528450
#
# Stress axis : x y z
#
# Youngs Moduli (GPa) = 61.68735 61.68735 67.75539
#
# Poissons Ratio (x) = 0.56997 0.05788
# Poissons Ratio (y) = 0.56997 0.05788
# Poissons Ratio (z) = 0.05269 0.05269
#
# Static dielectric constant tensor:
#      x y z
#    x 3.261830 0.000000 0.000000 
#    y 0.000000 3.261830 0.000000 
#    z 0.000000 0.000000 3.695470 
# 
# 
# High freq. dielectric constant tensor:
#      x y z
#    x 1.678650 0.000000 0.000000 
#    y 0.000000 1.678650 0.000000 
#    z 0.000000 0.000000 1.727610 
# 
# From -- ./inp_files/6389.got.cif
#   From: 2010.03.12/outbox.cif.g09.slc.cpg/sg139_4_cif.got.tgz:6389.got - 2010.04.08 09:46:31.
