data_PCOD8319117
_publ_section_title
;
Structure prediction by ZEFSAII (Michael W. Deem and Ramdas Pophale) SiO2 
 PCOD8319117
Probable space group: P 42/N C M
;
_chemical_formula_sum "Si O2"
_cell_formula_units_Z 60
_cell_length_a 10.764166
_cell_length_b 10.764166
_cell_length_c 24.957806
_cell_angle_alpha 90.000000
_cell_angle_beta 90.000000
_cell_angle_gamma 90.000000
_cell_volume 2891.792838
_symmetry_space_group_name_H-M "P 42/N C M"
_symmetry_group_IT_number 138
_space_group.IT_coordinate_system_code '2'
_symmetry_cell_setting 'tetragonal'
loop_
_space_group_symop_operation_xyz
x,y,z
1/2-y,x,1/2+z
1/2-x,1/2-y,z
y,1/2-x,1/2+z
1/2+x,-y,1/2-z
-x,1/2+y,1/2-z
1/2+y,1/2+x,-z
-y,-x,-z
-x,-y,-z
1/2+y,-x,1/2-z
1/2+x,1/2+y,-z
-y,1/2+x,1/2-z
1/2-x,y,1/2+z
x,1/2-y,1/2+z
1/2-y,1/2-x,z
y,x,z
loop_
_atom_site_type_symbol
_atom_site_label
_atom_site_fract_x
_atom_site_fract_y
_atom_site_fract_z
Si Si1 0.343627 0.156374 0.793745
Si Si2 0.752061 0.439921 0.270650
Si Si3 0.062450 0.062450 0.399712
Si Si4 0.199209 0.498120 0.109612
Si Si5 0.250000 0.250000 0.957491
Si Si6 0.412096 0.087905 0.534486
O O1 0.250000 0.250000 0.824961
O O2 0.425758 0.240688 0.754971
O O3 0.423518 0.076483 0.835566
O O4 0.876359 0.367277 0.255165
O O5 0.746012 0.446675 0.334633
O O6 0.157617 0.157617 0.426059
O O7 0.914795 0.086501 0.412927
O O8 0.140930 0.359071 0.116901
O O9 0.317413 0.494233 0.070212
O O10 0.335178 0.335178 0.992515
O O11 0.500000 0.000000 0.500000
#
# Coordination Sequence:
#
# PCOD8319117 Si02
#       6
#     8  16   8  16   4   8
#     4  12  23  38  63  99 138 189 224 287 348 418
#     4  11  23  40  68 103 144 180 233 280 343 436
#     4  10  23  41  74  93 137 187 228 289 361 424
#     4  10  21  46  71 101 137 189 228 286 358 426
#     4  12  24  52  68 102 136 180 244 306 352 420
#     4  12  27  47  76 105 132 182 251 307 361 421
#
# _framework density 20.748373000000001
#
# number of rings (size 3 to 8) (size 9 to 14) (size 15 to 20)
#    0.800    0.267    4.667    1.600    1.867    4.267 
#    0.000    1.333    0.000    0.000    0.000    0.000 
#    0.000    0.000    0.000    0.000    0.000    0.000 
#
# Total GULP energy -743411.304342 kJ/mol
# GULP energy per Si atom -12390.188406 kJ/mol
# Density = 2.070115 g / cm^3
# Si number density = 20.748373 Si / 1000 Ang^3
#
#
#
# Elastic Constant Matrix: (Units=GPa)
#
#
# Indices 1 2 3 4 5 6 
#
# 1 69.6277 124.8744 70.9218 0.0000 0.0000 0.0000
# 2 124.8744 69.6277 70.9218 0.0000 0.0000 0.0000
# 3 70.9218 70.9218 140.2422 0.0000 0.0000 0.0000
# 4 0.0000 0.0000 0.0000 42.1179 0.0000 0.0000
# 5 0.0000 0.0000 0.0000 0.0000 42.1179 0.0000
# 6 0.0000 0.0000 0.0000 0.0000 0.0000 34.4300
#
#
#
# Elastic Compliance Matrix: (Units=1/GPa)
#
#
# Indices 1 2 3 4 5 6 
#
# 1 -0.004978 0.013123 -0.004119 0.000000 0.000000 0.000000
# 2 0.013123 -0.004978 -0.004119 0.000000 0.000000 0.000000
# 3 -0.004119 -0.004119 0.011297 0.000000 0.000000 0.000000
# 4 0.000000 0.000000 0.000000 0.023743 0.000000 0.000000
# 5 0.000000 0.000000 0.000000 0.000000 0.023743 0.000000
# 6 0.000000 0.000000 0.000000 0.000000 0.000000 0.029044
#
#
# Mechanical properties :
#
#
# Convention : Reuss Voigt Hill
#
# Bulk Modulus (GPa) = 90.00348 90.32597 90.16473
# Shear Modulus (GPa) = 69.63224 24.58513 47.10868
#
# Velocity S-wave (km/s) = 5.79941 3.44600 4.77012
# Velocity P-wave (km/s) = 9.39771 7.71114 8.59589
#
# Compressibility (1/GPa) = 0.01111068
#
# Stress axis : x y z
#
# Youngs Moduli (GPa) = -200.89767 -200.89767 88.52140
#
# Poissons Ratio (x) = 2.63637 0.36463
# Poissons Ratio (y) = 2.63637 0.36463
# Poissons Ratio (z) = -0.82753 -0.82753
#
# Static dielectric constant tensor:
#      x y z
#    x 3.790650 0.000000 0.000000 
#    y 0.000000 3.790650 0.000000 
#    z 0.000000 0.000000 3.691090 
# 
# 
# High freq. dielectric constant tensor:
#      x y z
#    x 1.814070 0.000000 0.000000 
#    y 0.000000 1.814070 0.000000 
#    z 0.000000 0.000000 1.808730 
# 
# From -- ./inp_files/5922.got.cif
#   From: 2010.03.12/outbox.cif.g09.slc.cpg/sg138_3_cif.got.tgz:5922.got - 2010.04.08 09:41:05.
