data_PCOD8319656
_publ_section_title
;
Structure prediction by ZEFSAII (Michael W. Deem and Ramdas Pophale) SiO2 
 PCOD8319656
Probable space group: I 4/M M M
;
_chemical_formula_sum "Si O2"
_cell_formula_units_Z 144
_cell_length_a 21.734159
_cell_length_b 21.734159
_cell_length_c 17.304567
_cell_angle_alpha 90.000000
_cell_angle_beta 90.000000
_cell_angle_gamma 90.000000
_cell_volume 8174.221777
_symmetry_space_group_name_H-M "I 4/M M M"
_symmetry_group_IT_number 139
_symmetry_cell_setting 'tetragonal'
loop_
_space_group_symop_operation_xyz
x,y,z
-y,x,z
-x,-y,z
y,-x,z
x,-y,-z
-x,y,-z
y,x,-z
-y,-x,-z
-x,-y,-z
y,-x,-z
x,y,-z
-y,x,-z
-x,y,z
x,-y,z
-y,-x,z
y,x,z
1/2+x,1/2+y,1/2+z
1/2-y,1/2+x,1/2+z
1/2-x,1/2-y,1/2+z
1/2+y,1/2-x,1/2+z
1/2+x,1/2-y,1/2-z
1/2-x,1/2+y,1/2-z
1/2+y,1/2+x,1/2-z
1/2-y,1/2-x,1/2-z
1/2-x,1/2-y,1/2-z
1/2+y,1/2-x,1/2-z
1/2+x,1/2+y,1/2-z
1/2-y,1/2+x,1/2-z
1/2-x,1/2+y,1/2+z
1/2+x,1/2-y,1/2+z
1/2-y,1/2-x,1/2+z
1/2+y,1/2+x,1/2+z
loop_
_atom_site_type_symbol
_atom_site_label
_atom_site_fract_x
_atom_site_fract_y
_atom_site_fract_z
Si Si1 0.743545 0.569069 0.653999
Si Si2 0.430241 0.888693 0.333883
Si Si3 0.673238 0.572381 0.500000
Si Si4 0.845068 0.253330 0.287723
Si Si5 0.069679 0.314880 0.588457
O O1 0.721695 0.500000 0.672718
O O2 0.816794 0.571972 0.647765
O O3 0.713579 0.591703 0.574124
O O4 0.720673 0.612424 0.723390
O O5 0.500000 0.913556 0.340158
O O6 0.402626 0.902626 0.250000
O O7 0.387800 0.923064 0.396155
O O8 0.657747 0.500000 0.500000
O O9 0.609219 0.609219 0.500000
O O10 0.795371 0.204630 0.318432
O O11 0.812222 0.312222 0.250000
O O12 0.884770 0.274535 0.360277
O O13 0.085297 0.300909 0.500000
O O14 0.000000 0.295682 0.608767
#
# Coordination Sequence:
#
# PCOD8319656 Si02
#       5
#    32  32  16  32  32
#     4  10  19  34  55  78 109 142 177 220 266 318
#     4  11  21  34  55  77 105 145 184 223 267 313
#     4  10  22  37  56  84 111 143 183 223 274 328
#     4  11  21  35  55  79 105 138 181 222 269 322
#     4  11  23  38  54  75 108 145 183 227 272 314
#
# _framework density 17.616356
#
# number of rings (size 3 to 8) (size 9 to 14) (size 15 to 20)
#    0.000    1.333    4.444    2.000    1.556    2.556 
#    0.000    1.111    0.000    0.000    0.000    0.000 
#    0.000    4.000    0.000    9.778    0.000    0.000 
#
# Total GULP energy -892883.305912 kJ/mol
# GULP energy per Si atom -12401.157027 kJ/mol
# Density = 1.757626 g / cm^3
# Si number density = 17.616356 Si / 1000 Ang^3
#
#
#
# Elastic Constant Matrix: (Units=GPa)
#
#
# Indices 1 2 3 4 5 6 
#
# 1 82.6246 62.4584 67.4140 0.0000 0.0000 0.0000
# 2 62.4584 82.6246 67.4140 0.0000 0.0000 0.0000
# 3 67.4140 67.4140 114.3096 0.0000 0.0000 0.0000
# 4 0.0000 0.0000 0.0000 23.4123 0.0000 0.0000
# 5 0.0000 0.0000 0.0000 0.0000 23.4123 0.0000
# 6 0.0000 0.0000 0.0000 0.0000 0.0000 28.6981
#
#
#
# Elastic Compliance Matrix: (Units=1/GPa)
#
#
# Indices 1 2 3 4 5 6 
#
# 1 0.032420 -0.017168 -0.008994 0.000000 0.000000 0.000000
# 2 -0.017168 0.032420 -0.008994 0.000000 0.000000 0.000000
# 3 -0.008994 -0.008994 0.019357 0.000000 0.000000 0.000000
# 4 0.000000 0.000000 0.000000 0.042713 0.000000 0.000000
# 5 0.000000 0.000000 0.000000 0.000000 0.042713 0.000000
# 6 0.000000 0.000000 0.000000 0.000000 0.000000 0.034846
#
#
# Mechanical properties :
#
#
# Convention : Reuss Voigt Hill
#
# Bulk Modulus (GPa) = 72.03609 74.90348 73.46979
# Shear Modulus (GPa) = 17.89494 20.58937 19.24216
#
# Velocity S-wave (km/s) = 3.19064 3.42243 3.30857
# Velocity P-wave (km/s) = 7.38607 7.63079 7.50942
#
# Compressibility (1/GPa) = 0.01388193
#
# Stress axis : x y z
#
# Youngs Moduli (GPa) = 30.84554 30.84554 51.66074
#
# Poissons Ratio (x) = 0.52957 0.46466
# Poissons Ratio (y) = 0.52957 0.46466
# Poissons Ratio (z) = 0.27744 0.27744
#
# Static dielectric constant tensor:
#      x y z
#    x 3.291680 0.000000 0.000000 
#    y 0.000000 3.291680 0.000000 
#    z 0.000000 0.000000 3.264990 
# 
# 
# High freq. dielectric constant tensor:
#      x y z
#    x 1.675220 0.000000 0.000000 
#    y 0.000000 1.675220 0.000000 
#    z 0.000000 0.000000 1.682290 
# 
# From -- ./inp_files/8233.got.cif
#   From: 2010.03.12/outbox.cif.g09.slc.cpg/sg139_5_cif.got.tgz:8233.got - 2010.04.08 09:46:31.
