data_PCOD8319846
_publ_section_title
;
Structure prediction by ZEFSAII (Michael W. Deem and Ramdas Pophale) SiO2 
 PCOD8319846
Probable space group: I 4/M M M
;
_chemical_formula_sum "Si O2"
_cell_formula_units_Z 160
_cell_length_a 29.126913
_cell_length_b 29.126913
_cell_length_c 10.276982
_cell_angle_alpha 90.000000
_cell_angle_beta 90.000000
_cell_angle_gamma 90.000000
_cell_volume 8718.755784
_symmetry_space_group_name_H-M "I 4/M M M"
_symmetry_group_IT_number 139
_symmetry_cell_setting 'tetragonal'
loop_
_space_group_symop_operation_xyz
x,y,z
-y,x,z
-x,-y,z
y,-x,z
x,-y,-z
-x,y,-z
y,x,-z
-y,-x,-z
-x,-y,-z
y,-x,-z
x,y,-z
-y,x,-z
-x,y,z
x,-y,z
-y,-x,z
y,x,z
1/2+x,1/2+y,1/2+z
1/2-y,1/2+x,1/2+z
1/2-x,1/2-y,1/2+z
1/2+y,1/2-x,1/2+z
1/2+x,1/2-y,1/2-z
1/2-x,1/2+y,1/2-z
1/2+y,1/2+x,1/2-z
1/2-y,1/2-x,1/2-z
1/2-x,1/2-y,1/2-z
1/2+y,1/2-x,1/2-z
1/2+x,1/2+y,1/2-z
1/2-y,1/2+x,1/2-z
1/2-x,1/2+y,1/2+z
1/2+x,1/2-y,1/2+z
1/2-y,1/2-x,1/2+z
1/2+y,1/2+x,1/2+z
loop_
_atom_site_type_symbol
_atom_site_label
_atom_site_fract_x
_atom_site_fract_y
_atom_site_fract_z
Si Si1 0.862739 0.212556 0.500000
Si Si2 0.725916 0.348955 0.500000
Si Si3 0.360454 0.860454 0.250000
Si Si4 0.875771 0.948931 0.848240
Si Si5 0.051603 0.314624 0.150969
Si Si6 0.416695 0.719855 0.736760
Si Si7 0.190910 0.324418 0.000000
O O1 0.834937 0.165064 0.500000
O O2 0.895485 0.215921 0.377535
O O3 0.827396 0.254442 0.500000
O O4 0.681134 0.318867 0.500000
O O5 0.724540 0.377354 0.368991
O O6 0.770954 0.318562 0.500000
O O7 0.351641 0.913776 0.214329
O O8 0.348545 0.828679 0.128214
O O9 0.911780 0.911780 0.789911
O O10 0.825926 0.946289 0.783238
O O11 0.895579 0.000000 0.822862
O O12 0.869044 0.939479 0.000000
O O13 0.052603 0.265681 0.224729
O O14 0.000000 0.334446 0.162887
O O15 0.065622 0.306871 0.000000
#
# Coordination Sequence:
#
# PCOD8319846 Si02
#       7
#    16  16  16  32  32  32  16
#     4  12  25  36  52  82 127 168 193 235 294 341
#     4  12  21  34  58  84 115 162 209 235 276 341
#     4  12  20  40  61  89 120 156 194 238 296 348
#     4  10  20  35  57  82 109 143 187 242 297 349
#     4  11  22  39  66  92 118 155 196 243 294 347
#     4  12  21  38  57  85 116 152 201 243 287 340
#     4  12  21  38  56  82 122 161 200 240 278 335
#
# _framework density 18.351243
#
# number of rings (size 3 to 8) (size 9 to 14) (size 15 to 20)
#    0.000    0.600    7.000    2.700    0.000    1.800 
#    0.000    7.500    0.000    0.300    0.000    1.400 
#    0.000    2.400    0.000    0.000    0.000    0.000 
#
# Total GULP energy -992132.386259 kJ/mol
# GULP energy per Si atom -12401.654828 kJ/mol
# Density = 1.830947 g / cm^3
# Si number density = 18.351243 Si / 1000 Ang^3
#
#
#
# Elastic Constant Matrix: (Units=GPa)
#
#
# Indices 1 2 3 4 5 6 
#
# 1 95.2174 33.6620 22.4191 0.0000 0.0000 0.0000
# 2 33.6620 95.2102 22.4150 0.0000 0.0000 0.0000
# 3 22.4191 22.4150 107.1411 0.0000 0.0000 0.0000
# 4 0.0000 0.0000 0.0000 17.7954 0.0000 0.0000
# 5 0.0000 0.0000 0.0000 0.0000 17.7934 0.0000
# 6 0.0000 0.0000 0.0000 0.0000 0.0000 13.7270
#
#
#
# Elastic Compliance Matrix: (Units=1/GPa)
#
#
# Indices 1 2 3 4 5 6 
#
# 1 0.012307 -0.003939 -0.001751 0.000000 0.000000 0.000000
# 2 -0.003939 0.012308 -0.001751 0.000000 0.000000 0.000000
# 3 -0.001751 -0.001751 0.010066 0.000000 0.000000 0.000000
# 4 0.000000 0.000000 0.000000 0.056194 0.000000 0.000000
# 5 0.000000 0.000000 0.000000 0.000000 0.056201 0.000000
# 6 0.000000 0.000000 0.000000 0.000000 0.000000 0.072849
#
#
# Mechanical properties :
#
#
# Convention : Reuss Voigt Hill
#
# Bulk Modulus (GPa) = 50.50636 50.50677 50.50657
# Shear Modulus (GPa) = 20.71189 24.46798 22.58993
#
# Velocity S-wave (km/s) = 3.36316 3.65542 3.51233
# Velocity P-wave (km/s) = 6.53169 6.73781 6.63555
#
# Compressibility (1/GPa) = 0.01979949
#
# Stress axis : x y z
#
# Youngs Moduli (GPa) = 81.25375 81.24879 99.34256
#
# Poissons Ratio (x) = 0.32004 0.17397
# Poissons Ratio (y) = 0.32006 0.17392
# Poissons Ratio (z) = 0.14229 0.14224
#
# Static dielectric constant tensor:
#      x y z
#    x 3.416060 0.000000 0.000000 
#    y 0.000000 3.416060 0.000000 
#    z 0.000000 0.000000 3.431970 
# 
# 
# High freq. dielectric constant tensor:
#      x y z
#    x 1.708740 0.000000 0.000000 
#    y 0.000000 1.708740 0.000000 
#    z 0.000000 0.000000 1.707660 
# 
# From -- ./inp_files/2288.got.cif
#   From: 2010.03.12/outbox.cif.g09.slc.cpg/sg139_2_cif.got.tgz:2288.got - 2010.04.08 09:46:31.
