data_PCOD8319779
_publ_section_title
;
Structure prediction by ZEFSAII (Michael W. Deem and Ramdas Pophale) SiO2 
 PCOD8319779
Probable space group: I 4/M M M
;
_chemical_formula_sum "Si O2"
_cell_formula_units_Z 136
_cell_length_a 24.689921
_cell_length_b 24.689921
_cell_length_c 11.909908
_cell_angle_alpha 90.000000
_cell_angle_beta 90.000000
_cell_angle_gamma 90.000000
_cell_volume 7260.187007
_symmetry_space_group_name_H-M "I 4/M M M"
_symmetry_group_IT_number 139
_symmetry_cell_setting 'tetragonal'
loop_
_space_group_symop_operation_xyz
x,y,z
-y,x,z
-x,-y,z
y,-x,z
x,-y,-z
-x,y,-z
y,x,-z
-y,-x,-z
-x,-y,-z
y,-x,-z
x,y,-z
-y,x,-z
-x,y,z
x,-y,z
-y,-x,z
y,x,z
1/2+x,1/2+y,1/2+z
1/2-y,1/2+x,1/2+z
1/2-x,1/2-y,1/2+z
1/2+y,1/2-x,1/2+z
1/2+x,1/2-y,1/2-z
1/2-x,1/2+y,1/2-z
1/2+y,1/2+x,1/2-z
1/2-y,1/2-x,1/2-z
1/2-x,1/2-y,1/2-z
1/2+y,1/2-x,1/2-z
1/2+x,1/2+y,1/2-z
1/2-y,1/2+x,1/2-z
1/2-x,1/2+y,1/2+z
1/2+x,1/2-y,1/2+z
1/2-y,1/2-x,1/2+z
1/2+y,1/2+x,1/2+z
loop_
_atom_site_type_symbol
_atom_site_label
_atom_site_fract_x
_atom_site_fract_y
_atom_site_fract_z
Si Si1 0.500000 0.644393 0.629660
Si Si2 0.178598 0.178598 0.628971
Si Si3 0.000000 0.254203 0.234790
Si Si4 0.222819 0.394213 0.129816
Si Si5 0.109510 0.390491 0.250000
Si Si6 0.937421 0.062580 0.500000
Si Si7 0.000000 0.368822 0.869601
Si Si8 0.898846 0.101155 0.262268
O O1 0.500000 0.626802 0.500000
O O2 0.500000 0.708545 0.640558
O O3 0.448634 0.621815 0.692325
O O4 0.163091 0.163091 0.500000
O O5 0.241779 0.161342 0.648815
O O6 0.146657 0.146657 0.725618
O O7 0.054095 0.249635 0.310265
O O8 0.000000 0.306190 0.157774
O O9 0.161588 0.386254 0.170157
O O10 0.220629 0.409147 0.000000
O O11 0.105845 0.445365 0.320518
O O12 0.912520 0.087481 0.389403
O O13 0.000000 0.075902 0.500000
O O14 0.000000 0.380417 0.000000
#
# Coordination Sequence:
#
# PCOD8319779 Si02
#       8
#    16  16  16  32  16   8  16  16
#     4  12  25  39  55  80 120 164 206 249 298 366
#     4  10  20  33  58  88 116 148 193 254 308 347
#     4  10  20  36  60  85 112 156 198 244 291 343
#     4  10  20  36  58  88 119 151 195 249 300 348
#     4  10  22  38  62  88 120 158 188 228 286 354
#     4  11  22  36  54  78 108 146 202 260 306 356
#     4  10  21  40  62  88 119 151 187 225 275 347
#     4  12  22  38  58  82 115 154 201 255 312 353
#
# _framework density 18.732299999999999
#
# number of rings (size 3 to 8) (size 9 to 14) (size 15 to 20)
#    0.000    1.471    4.118    1.765    0.000    0.941 
#    2.118    2.941    0.000    0.000    0.000    0.000 
#    0.000    0.000    0.000    0.000    0.000    0.000 
#
# Total GULP energy -842797.637905 kJ/mol
# GULP energy per Si atom -12394.082910 kJ/mol
# Density = 1.868966 g / cm^3
# Si number density = 18.732300 Si / 1000 Ang^3
#
#
#
# Elastic Constant Matrix: (Units=GPa)
#
#
# Indices 1 2 3 4 5 6 
#
# 1 117.9540 54.8759 56.4512 0.0000 0.0000 0.0000
# 2 54.8759 117.9539 56.4529 0.0000 0.0000 0.0000
# 3 56.4512 56.4529 126.7616 0.0000 0.0000 0.0000
# 4 0.0000 0.0000 0.0000 16.1449 0.0000 0.0000
# 5 0.0000 0.0000 0.0000 0.0000 16.1516 0.0000
# 6 0.0000 0.0000 0.0000 0.0000 0.0000 30.4279
#
#
#
# Elastic Compliance Matrix: (Units=1/GPa)
#
#
# Indices 1 2 3 4 5 6 
#
# 1 0.012007 -0.003847 -0.003634 0.000000 0.000000 0.000000
# 2 -0.003847 0.012007 -0.003634 0.000000 0.000000 0.000000
# 3 -0.003634 -0.003634 0.011126 0.000000 0.000000 0.000000
# 4 0.000000 0.000000 0.000000 0.061939 0.000000 0.000000
# 5 0.000000 0.000000 0.000000 0.000000 0.061913 0.000000
# 6 0.000000 0.000000 0.000000 0.000000 0.000000 0.032865
#
#
# Mechanical properties :
#
#
# Convention : Reuss Voigt Hill
#
# Bulk Modulus (GPa) = 77.46159 77.58106 77.52133
# Shear Modulus (GPa) = 22.89500 25.53751 24.21625
#
# Velocity S-wave (km/s) = 3.49982 3.69628 3.59939
# Velocity P-wave (km/s) = 7.60088 7.72801 7.66471
#
# Compressibility (1/GPa) = 0.01290962
#
# Stress axis : x y z
#
# Youngs Moduli (GPa) = 83.28762 83.28616 89.88327
#
# Poissons Ratio (x) = 0.32038 0.32662
# Poissons Ratio (y) = 0.32038 0.32665
# Poissons Ratio (z) = 0.30265 0.30267
#
# Static dielectric constant tensor:
#      x y z
#    x 3.476550 0.000000 0.000000 
#    y 0.000000 3.476560 0.000000 
#    z 0.000000 0.000000 3.359620 
# 
# 
# High freq. dielectric constant tensor:
#      x y z
#    x 1.732690 0.000000 0.000000 
#    y 0.000000 1.732690 0.000000 
#    z 0.000000 0.000000 1.729800 
# 
# From -- ./inp_files/3629.got.cif
#   From: 2010.03.12/outbox.cif.g09.slc.cpg/sg139_2_cif.got.tgz:3629.got - 2010.04.08 09:46:31.
