data_PCOD8319823
_publ_section_title
;
Structure prediction by ZEFSAII (Michael W. Deem and Ramdas Pophale) SiO2 
 PCOD8319823
Probable space group: I 4/M M M
;
_chemical_formula_sum "Si O2"
_cell_formula_units_Z 160
_cell_length_a 32.331514
_cell_length_b 32.331514
_cell_length_c 8.720172
_cell_angle_alpha 90.000000
_cell_angle_beta 90.000000
_cell_angle_gamma 90.000000
_cell_volume 9115.429471
_symmetry_space_group_name_H-M "I 4/M M M"
_symmetry_group_IT_number 139
_symmetry_cell_setting 'tetragonal'
loop_
_space_group_symop_operation_xyz
x,y,z
-y,x,z
-x,-y,z
y,-x,z
x,-y,-z
-x,y,-z
y,x,-z
-y,-x,-z
-x,-y,-z
y,-x,-z
x,y,-z
-y,x,-z
-x,y,z
x,-y,z
-y,-x,z
y,x,z
1/2+x,1/2+y,1/2+z
1/2-y,1/2+x,1/2+z
1/2-x,1/2-y,1/2+z
1/2+y,1/2-x,1/2+z
1/2+x,1/2-y,1/2-z
1/2-x,1/2+y,1/2-z
1/2+y,1/2+x,1/2-z
1/2-y,1/2-x,1/2-z
1/2-x,1/2-y,1/2-z
1/2+y,1/2-x,1/2-z
1/2+x,1/2+y,1/2-z
1/2-y,1/2+x,1/2-z
1/2-x,1/2+y,1/2+z
1/2+x,1/2-y,1/2+z
1/2-y,1/2-x,1/2+z
1/2+y,1/2+x,1/2+z
loop_
_atom_site_type_symbol
_atom_site_label
_atom_site_fract_x
_atom_site_fract_y
_atom_site_fract_z
Si Si1 0.243808 0.915115 0.318989
Si Si2 0.852148 0.000000 0.834316
Si Si3 0.000000 0.754956 0.168880
Si Si4 0.911529 0.155089 0.816363
Si Si5 0.386347 0.824429 0.681471
Si Si6 0.953026 0.391133 0.819271
O O1 0.240139 0.913698 0.500000
O O2 0.258366 0.960210 0.264191
O O3 0.199978 0.901006 0.249420
O O4 0.279225 0.884894 0.257790
O O5 0.803365 0.000000 0.858046
O O6 0.862203 0.956174 0.750553
O O7 0.874651 0.000000 0.000000
O O8 0.000000 0.733098 0.000000
O O9 0.876283 0.123718 0.761066
O O10 0.914327 0.158255 0.000000
O O11 0.382570 0.820110 0.500000
O O12 0.346502 0.846502 0.750000
O O13 0.427458 0.850165 0.729189
O O14 0.932087 0.432087 0.750000
O O15 0.000000 0.386804 0.757369
O O16 0.952511 0.396530 0.000000
#
# Coordination Sequence:
#
# PCOD8319823 Si02
#       6
#    32  16  16  32  32  32
#     4  11  21  32  49  77 106 132 167 211 262 314
#     4   7  12  25  45  70  99 131 168 209 244 280
#     4   9  17  31  49  71 100 132 166 205 253 306
#     4   9  17  31  52  76 104 142 182 214 250 298
#     4  10  20  35  53  71  97 132 170 212 260 315
#     4   9  19  34  50  70  94 126 166 207 254 305
#
# _framework density 17.552655999999999
#
# number of rings (size 3 to 8) (size 9 to 14) (size 15 to 20)
#    0.000    2.600    0.000    3.900    1.400    1.800 
#    0.000    1.000    0.000    0.900    0.000    2.100 
#    0.000    0.000    0.000    7.300    0.000    9.000 
#
# Total GULP energy -991458.948302 kJ/mol
# GULP energy per Si atom -12393.236854 kJ/mol
# Density = 1.751270 g / cm^3
# Si number density = 17.552656 Si / 1000 Ang^3
#
#
#
# Elastic Constant Matrix: (Units=GPa)
#
#
# Indices 1 2 3 4 5 6 
#
# 1 121.4677 70.0474 35.1852 0.0000 0.0000 0.0000
# 2 70.0474 121.4677 35.1852 0.0000 0.0000 0.0000
# 3 35.1852 35.1852 64.9170 0.0000 0.0000 0.0000
# 4 0.0000 0.0000 0.0000 21.3320 0.0000 0.0000
# 5 0.0000 0.0000 0.0000 0.0000 21.3320 0.0000
# 6 0.0000 0.0000 0.0000 0.0000 0.0000 16.4427
#
#
#
# Elastic Compliance Matrix: (Units=1/GPa)
#
#
# Indices 1 2 3 4 5 6 
#
# 1 0.012984 -0.006464 -0.003534 0.000000 0.000000 0.000000
# 2 -0.006464 0.012984 -0.003534 0.000000 0.000000 0.000000
# 3 -0.003534 -0.003534 0.019235 0.000000 0.000000 0.000000
# 4 0.000000 0.000000 0.000000 0.046878 0.000000 0.000000
# 5 0.000000 0.000000 0.000000 0.000000 0.046878 0.000000
# 6 0.000000 0.000000 0.000000 0.000000 0.000000 0.060817
#
#
# Mechanical properties :
#
#
# Convention : Reuss Voigt Hill
#
# Bulk Modulus (GPa) = 55.12807 65.40977 60.26892
# Shear Modulus (GPa) = 21.46981 22.98366 22.22673
#
# Velocity S-wave (km/s) = 3.50117 3.62251 3.56236
# Velocity P-wave (km/s) = 6.91518 7.40557 7.16457
#
# Compressibility (1/GPa) = 0.01813958
#
# Stress axis : x y z
#
# Youngs Moduli (GPa) = 77.01920 77.01920 51.98854
#
# Poissons Ratio (x) = 0.49783 0.18372
# Poissons Ratio (y) = 0.49783 0.18372
# Poissons Ratio (z) = 0.27217 0.27217
#
# Static dielectric constant tensor:
#      x y z
#    x 3.350960 0.000000 0.000000 
#    y 0.000000 3.350960 0.000000 
#    z 0.000000 0.000000 3.129110 
# 
# 
# High freq. dielectric constant tensor:
#      x y z
#    x 1.665680 0.000000 0.000000 
#    y 0.000000 1.665680 0.000000 
#    z 0.000000 0.000000 1.669280 
# 
# From -- ./inp_files/2217.got.cif
#   From: 2010.03.12/outbox.cif.g09.slc.cpg/sg139_2_cif.got.tgz:2217.got - 2010.04.08 09:46:31.
