data_PCOD8319620
_publ_section_title
;
Structure prediction by ZEFSAII (Michael W. Deem and Ramdas Pophale) SiO2 
 PCOD8319620
Probable space group: I 4/M M M
;
_chemical_formula_sum "Si O2"
_cell_formula_units_Z 160
_cell_length_a 22.637096
_cell_length_b 22.637096
_cell_length_c 16.314937
_cell_angle_alpha 90.000000
_cell_angle_beta 90.000000
_cell_angle_gamma 90.000000
_cell_volume 8360.395568
_symmetry_space_group_name_H-M "I 4/M M M"
_symmetry_group_IT_number 139
_symmetry_cell_setting 'tetragonal'
loop_
_space_group_symop_operation_xyz
x,y,z
-y,x,z
-x,-y,z
y,-x,z
x,-y,-z
-x,y,-z
y,x,-z
-y,-x,-z
-x,-y,-z
y,-x,-z
x,y,-z
-y,x,-z
-x,y,z
x,-y,z
-y,-x,z
y,x,z
1/2+x,1/2+y,1/2+z
1/2-y,1/2+x,1/2+z
1/2-x,1/2-y,1/2+z
1/2+y,1/2-x,1/2+z
1/2+x,1/2-y,1/2-z
1/2-x,1/2+y,1/2-z
1/2+y,1/2+x,1/2-z
1/2-y,1/2-x,1/2-z
1/2-x,1/2-y,1/2-z
1/2+y,1/2-x,1/2-z
1/2+x,1/2+y,1/2-z
1/2-y,1/2+x,1/2-z
1/2-x,1/2+y,1/2+z
1/2+x,1/2-y,1/2+z
1/2-y,1/2-x,1/2+z
1/2+y,1/2+x,1/2+z
loop_
_atom_site_type_symbol
_atom_site_label
_atom_site_fract_x
_atom_site_fract_y
_atom_site_fract_z
Si Si1 0.727205 0.727205 0.903386
Si Si2 0.431378 0.431378 0.093716
Si Si3 0.330663 0.064555 0.630383
Si Si4 0.936641 0.563360 0.750000
Si Si5 0.753654 0.931933 0.778926
Si Si6 0.855108 0.309783 0.089346
Si Si7 0.147094 0.852907 0.286934
O O1 0.795005 0.718886 0.878804
O O2 0.686525 0.686525 0.847107
O O3 0.714682 0.714682 0.000000
O O4 0.500000 0.417611 0.109432
O O5 0.393518 0.393518 0.156365
O O6 0.414780 0.414780 0.000000
O O7 0.389475 0.069446 0.681076
O O8 0.274122 0.070816 0.688699
O O9 0.337935 0.121110 0.572918
O O10 0.327174 0.000000 0.585069
O O11 0.930276 0.500000 0.705430
O O12 0.706824 0.905525 0.844925
O O13 0.813686 0.893832 0.773752
O O14 0.767051 0.000000 0.803606
O O15 0.874416 0.285129 0.000000
#
# Coordination Sequence:
#
# PCOD8319620 Si02
#       7
#    16  16  32  16  32  32  16
#     4  10  22  36  54  85 116 148 190 226 277 346
#     4   9  19  37  60  88 123 159 192 229 282 343
#     4  10  19  33  53  79 110 142 188 239 281 334
#     4   9  16  28  50  73  98 136 180 229 276 320
#     4  11  23  37  57  86 111 145 196 242 288 340
#     4  11  22  38  56  77 113 153 189 236 292 345
#     4  12  21  36  62  82 118 154 192 239 282 335
#
# _framework density 19.137851000000001
#
# number of rings (size 3 to 8) (size 9 to 14) (size 15 to 20)
#    0.000    1.600    4.000    1.800    0.000    1.600 
#    0.000    0.000    0.000    0.000    0.000    4.200 
#    0.000    0.000    0.000    9.600    0.000    0.000 
#
# Total GULP energy -991100.864263 kJ/mol
# GULP energy per Si atom -12388.760803 kJ/mol
# Density = 1.909429 g / cm^3
# Si number density = 19.137851 Si / 1000 Ang^3
#
#
#
# Elastic Constant Matrix: (Units=GPa)
#
#
# Indices 1 2 3 4 5 6 
#
# 1 110.6214 39.3111 26.1878 0.0000 0.0000 0.0000
# 2 39.3111 110.6181 26.1889 0.0000 0.0000 0.0000
# 3 26.1878 26.1889 55.3141 0.0000 0.0000 0.0000
# 4 0.0000 0.0000 0.0000 13.5468 0.0000 0.0000
# 5 0.0000 0.0000 0.0000 0.0000 13.5451 0.0000
# 6 0.0000 0.0000 0.0000 0.0000 0.0000 33.3774
#
#
#
# Elastic Compliance Matrix: (Units=1/GPa)
#
#
# Indices 1 2 3 4 5 6 
#
# 1 0.011007 -0.003016 -0.003783 0.000000 0.000000 0.000000
# 2 -0.003016 0.011008 -0.003784 0.000000 0.000000 0.000000
# 3 -0.003783 -0.003784 0.021661 0.000000 0.000000 0.000000
# 4 0.000000 0.000000 0.000000 0.073818 0.000000 0.000000
# 5 0.000000 0.000000 0.000000 0.000000 0.073828 0.000000
# 6 0.000000 0.000000 0.000000 0.000000 0.000000 0.029960
#
#
# Mechanical properties :
#
#
# Convention : Reuss Voigt Hill
#
# Bulk Modulus (GPa) = 44.42481 51.10327 47.76404
# Shear Modulus (GPa) = 20.00383 24.41823 22.21103
#
# Velocity S-wave (km/s) = 3.23654 3.57587 3.41043
# Velocity P-wave (km/s) = 6.10167 6.61890 6.36554
#
# Compressibility (1/GPa) = 0.02250995
#
# Stress axis : x y z
#
# Youngs Moduli (GPa) = 90.84896 90.84496 46.16550
#
# Poissons Ratio (x) = 0.27399 0.17466
# Poissons Ratio (y) = 0.27400 0.17468
# Poissons Ratio (z) = 0.34371 0.34374
#
# Static dielectric constant tensor:
#      x y z
#    x 3.792420 0.000000 0.000000 
#    y 0.000000 3.792460 0.000000 
#    z 0.000000 0.000000 3.158500 
# 
# 
# High freq. dielectric constant tensor:
#      x y z
#    x 1.753840 0.000000 0.000000 
#    y 0.000000 1.753840 0.000000 
#    z 0.000000 0.000000 1.714570 
# 
# From -- ./inp_files/6021.got.cif
#   From: 2010.03.12/outbox.cif.g09.slc.cpg/sg139_4_cif.got.tgz:6021.got - 2010.04.08 09:46:31.
