data_PCOD8319416
_publ_section_title
;
Structure prediction by ZEFSAII (Michael W. Deem and Ramdas Pophale) SiO2 
 PCOD8319416
Probable space group: I 4/M M M
;
_chemical_formula_sum "Si O2"
_cell_formula_units_Z 160
_cell_length_a 22.198151
_cell_length_b 22.198151
_cell_length_c 18.324670
_cell_angle_alpha 90.000000
_cell_angle_beta 90.000000
_cell_angle_gamma 90.000000
_cell_volume 9029.626051
_symmetry_space_group_name_H-M "I 4/M M M"
_symmetry_group_IT_number 139
_symmetry_cell_setting 'tetragonal'
loop_
_space_group_symop_operation_xyz
x,y,z
-y,x,z
-x,-y,z
y,-x,z
x,-y,-z
-x,y,-z
y,x,-z
-y,-x,-z
-x,-y,-z
y,-x,-z
x,y,-z
-y,x,-z
-x,y,z
x,-y,z
-y,-x,z
y,x,z
1/2+x,1/2+y,1/2+z
1/2-y,1/2+x,1/2+z
1/2-x,1/2-y,1/2+z
1/2+y,1/2-x,1/2+z
1/2+x,1/2-y,1/2-z
1/2-x,1/2+y,1/2-z
1/2+y,1/2+x,1/2-z
1/2-y,1/2-x,1/2-z
1/2-x,1/2-y,1/2-z
1/2+y,1/2-x,1/2-z
1/2+x,1/2+y,1/2-z
1/2-y,1/2+x,1/2-z
1/2-x,1/2+y,1/2+z
1/2+x,1/2-y,1/2+z
1/2-y,1/2-x,1/2+z
1/2+y,1/2+x,1/2+z
loop_
_atom_site_type_symbol
_atom_site_label
_atom_site_fract_x
_atom_site_fract_y
_atom_site_fract_z
Si Si1 0.431847 0.761893 0.690962
Si Si2 0.258375 0.839592 0.303086
Si Si3 0.160353 0.933017 0.084483
Si Si4 0.932116 0.399064 0.170515
Si Si5 0.819633 0.431303 0.914283
O O1 0.500000 0.759646 0.719789
O O2 0.390935 0.729469 0.751848
O O3 0.422661 0.726512 0.615982
O O4 0.411536 0.829918 0.677214
O O5 0.207426 0.792575 0.331072
O O6 0.306130 0.806130 0.250000
O O7 0.285481 0.877097 0.371511
O O8 0.112370 0.887631 0.120108
O O9 0.136472 0.000000 0.101020
O O10 0.167260 0.920509 0.000000
O O11 0.928945 0.428945 0.250000
O O12 0.888636 0.431911 0.113273
O O13 0.000000 0.404749 0.140376
O O14 0.794558 0.500000 0.900234
O O15 0.816604 0.416099 0.000000
#
# Coordination Sequence:
#
# PCOD8319416 Si02
#       5
#    32  32  32  32  32
#     4  10  18  32  54  76 104 139 176 219 264 311
#     4  11  21  36  57  80 106 137 178 223 269 321
#     4   9  18  31  47  71 102 136 175 216 261 313
#     4  11  21  35  57  81 107 142 182 223 264 309
#     4  11  23  39  57  78 110 147 182 225 272 317
#
# _framework density 17.719449000000001
#
# number of rings (size 3 to 8) (size 9 to 14) (size 15 to 20)
#    0.000    1.600    4.000    1.800    0.000    3.200 
#    0.000    4.000    0.000    0.000    0.000    0.000 
#    0.000    3.600    0.000    8.800    0.000    0.000 
#
# Total GULP energy -991247.300549 kJ/mol
# GULP energy per Si atom -12390.591257 kJ/mol
# Density = 1.767912 g / cm^3
# Si number density = 17.719449 Si / 1000 Ang^3
#
#
#
# Elastic Constant Matrix: (Units=GPa)
#
#
# Indices 1 2 3 4 5 6 
#
# 1 95.3931 40.7789 40.9085 0.0000 0.0000 0.0000
# 2 40.7789 95.3931 40.9085 0.0000 0.0000 0.0000
# 3 40.9085 40.9085 84.9065 0.0000 0.0000 0.0000
# 4 0.0000 0.0000 0.0000 25.4422 0.0000 0.0000
# 5 0.0000 0.0000 0.0000 0.0000 25.4422 0.0000
# 6 0.0000 0.0000 0.0000 0.0000 0.0000 31.5617
#
#
#
# Elastic Compliance Matrix: (Units=1/GPa)
#
#
# Indices 1 2 3 4 5 6 
#
# 1 0.014323 -0.003987 -0.004980 0.000000 0.000000 0.000000
# 2 -0.003987 0.014323 -0.004980 0.000000 0.000000 0.000000
# 3 -0.004980 -0.004980 0.016576 0.000000 0.000000 0.000000
# 4 0.000000 0.000000 0.000000 0.039305 0.000000 0.000000
# 5 0.000000 0.000000 0.000000 0.000000 0.039305 0.000000
# 6 0.000000 0.000000 0.000000 0.000000 0.000000 0.031684
#
#
# Mechanical properties :
#
#
# Convention : Reuss Voigt Hill
#
# Bulk Modulus (GPa) = 57.70858 57.87603 57.79230
# Shear Modulus (GPa) = 26.42908 26.69569 26.56239
#
# Velocity S-wave (km/s) = 3.86622 3.88567 3.87596
# Velocity P-wave (km/s) = 7.25044 7.27081 7.26063
#
# Compressibility (1/GPa) = 0.01732845
#
# Stress axis : x y z
#
# Youngs Moduli (GPa) = 69.81786 69.81786 60.32728
#
# Poissons Ratio (x) = 0.27838 0.30042
# Poissons Ratio (y) = 0.27838 0.30042
# Poissons Ratio (z) = 0.34768 0.34768
#
# Static dielectric constant tensor:
#      x y z
#    x 3.416300 0.000000 0.000000 
#    y 0.000000 3.416300 0.000000 
#    z 0.000000 0.000000 3.176920 
# 
# 
# High freq. dielectric constant tensor:
#      x y z
#    x 1.685630 0.000000 0.000000 
#    y 0.000000 1.685630 0.000000 
#    z 0.000000 0.000000 1.669070 
# 
# From -- ./inp_files/8381.got.cif
#   From: 2010.03.12/outbox.cif.g09.slc.cpg/sg139_5_cif.got.tgz:8381.got - 2010.04.08 09:46:31.
