data_PCOD8319897
_publ_section_title
;
Structure prediction by ZEFSAII (Michael W. Deem and Ramdas Pophale) SiO2 
 PCOD8319897
Probable space group: I 4/M M M
;
_chemical_formula_sum "Si O2"
_cell_formula_units_Z 176
_cell_length_a 24.391719
_cell_length_b 24.391719
_cell_length_c 14.425196
_cell_angle_alpha 90.000000
_cell_angle_beta 90.000000
_cell_angle_gamma 90.000000
_cell_volume 8582.356273
_symmetry_space_group_name_H-M "I 4/M M M"
_symmetry_group_IT_number 139
_symmetry_cell_setting 'tetragonal'
loop_
_space_group_symop_operation_xyz
x,y,z
-y,x,z
-x,-y,z
y,-x,z
x,-y,-z
-x,y,-z
y,x,-z
-y,-x,-z
-x,-y,-z
y,-x,-z
x,y,-z
-y,x,-z
-x,y,z
x,-y,z
-y,-x,z
y,x,z
1/2+x,1/2+y,1/2+z
1/2-y,1/2+x,1/2+z
1/2-x,1/2-y,1/2+z
1/2+y,1/2-x,1/2+z
1/2+x,1/2-y,1/2-z
1/2-x,1/2+y,1/2-z
1/2+y,1/2+x,1/2-z
1/2-y,1/2-x,1/2-z
1/2-x,1/2-y,1/2-z
1/2+y,1/2-x,1/2-z
1/2+x,1/2+y,1/2-z
1/2-y,1/2+x,1/2-z
1/2-x,1/2+y,1/2+z
1/2+x,1/2-y,1/2+z
1/2-y,1/2-x,1/2+z
1/2+y,1/2+x,1/2+z
loop_
_atom_site_type_symbol
_atom_site_label
_atom_site_fract_x
_atom_site_fract_y
_atom_site_fract_z
Si Si1 0.245293 0.332725 0.606875
Si Si2 0.140117 0.375090 0.109795
Si Si3 0.565212 0.934789 0.750000
Si Si4 0.251626 0.935510 0.396767
Si Si5 0.645524 0.561169 0.204911
Si Si6 0.186123 0.939492 0.898026
O O1 0.239908 0.317191 0.500000
O O2 0.284862 0.284862 0.652365
O O3 0.184255 0.339323 0.648422
O O4 0.269946 0.392875 0.620342
O O5 0.086738 0.399835 0.161226
O O6 0.190034 0.414372 0.136834
O O7 0.126895 0.373437 0.000000
O O8 0.500000 0.923948 0.762207
O O9 0.238339 0.913511 0.500000
O O10 0.204021 0.914777 0.327929
O O11 0.255060 0.000000 0.394863
O O12 0.637092 0.500000 0.166459
O O13 0.597606 0.597606 0.161252
O O14 0.641176 0.563673 0.316803
O O15 0.214574 0.000000 0.893192
O O16 0.158635 0.931074 0.000000
#
# Coordination Sequence:
#
# PCOD8319897 Si02
#       6
#    32  32  16  32  32  32
#     4   9  18  33  54  84 120 152 187 237 295 352
#     4  10  22  40  63  90 120 158 198 241 298 359
#     4  11  26  44  63  90 122 160 207 260 310 357
#     4   9  19  37  59  80 105 142 188 235 282 339
#     4  10  21  35  54  81 110 146 191 237 288 344
#     4   9  18  33  53  77 110 154 197 234 278 337
#
# _framework density 20.507189
#
# number of rings (size 3 to 8) (size 9 to 14) (size 15 to 20)
#    0.000    2.455    0.000    1.091    2.545    4.545 
#    0.000    5.000    0.000    0.000    0.000    5.091 
#    0.000    0.000    0.000    0.000    0.000    0.000 
#
# Total GULP energy -1090232.554559 kJ/mol
# GULP energy per Si atom -12389.006302 kJ/mol
# Density = 2.046051 g / cm^3
# Si number density = 20.507189 Si / 1000 Ang^3
#
#
#
# Elastic Constant Matrix: (Units=GPa)
#
#
# Indices 1 2 3 4 5 6 
#
# 1 95.8027 60.7160 35.4373 0.0000 0.0000 0.0000
# 2 60.7160 95.8041 35.4374 0.0000 0.0000 0.0000
# 3 35.4373 35.4374 56.1591 0.0000 0.0000 0.0000
# 4 0.0000 0.0000 0.0000 18.0311 0.0000 0.0000
# 5 0.0000 0.0000 0.0000 0.0000 18.0309 0.0000
# 6 0.0000 0.0000 0.0000 0.0000 0.0000 32.3835
#
#
#
# Elastic Compliance Matrix: (Units=1/GPa)
#
#
# Indices 1 2 3 4 5 6 
#
# 1 0.018723 -0.009778 -0.005644 0.000000 0.000000 0.000000
# 2 -0.009778 0.018722 -0.005644 0.000000 0.000000 0.000000
# 3 -0.005644 -0.005644 0.024930 0.000000 0.000000 0.000000
# 4 0.000000 0.000000 0.000000 0.055460 0.000000 0.000000
# 5 0.000000 0.000000 0.000000 0.000000 0.055460 0.000000
# 6 0.000000 0.000000 0.000000 0.000000 0.000000 0.030880
#
#
# Mechanical properties :
#
#
# Convention : Reuss Voigt Hill
#
# Bulk Modulus (GPa) = 49.40175 56.77193 53.08684
# Shear Modulus (GPa) = 19.75854 21.43413 20.59634
#
# Velocity S-wave (km/s) = 3.10739 3.23646 3.17258
# Velocity P-wave (km/s) = 6.08414 6.45835 6.27403
#
# Compressibility (1/GPa) = 0.02024220
#
# Stress axis : x y z
#
# Youngs Moduli (GPa) = 53.41098 53.41197 40.11250
#
# Poissons Ratio (x) = 0.52225 0.22641
# Poissons Ratio (y) = 0.52224 0.22640
# Poissons Ratio (z) = 0.30147 0.30147
#
# Static dielectric constant tensor:
#      x y z
#    x 3.756100 0.000000 0.000000 
#    y 0.000000 3.756060 0.000000 
#    z 0.000000 0.000000 3.781770 
# 
# 
# High freq. dielectric constant tensor:
#      x y z
#    x 1.795490 0.000000 0.000000 
#    y 0.000000 1.795490 0.000000 
#    z 0.000000 0.000000 1.794370 
# 
# From -- ./inp_files/6111.got.cif
#   From: 2010.03.12/outbox.cif.g09.slc.cpg/sg139_4_cif.got.tgz:6111.got - 2010.04.08 09:46:31.
