data_PCOD8319731
_publ_section_title
;
Structure prediction by ZEFSAII (Michael W. Deem and Ramdas Pophale) SiO2 
 PCOD8319731
Probable space group: I 4/M M M
;
_chemical_formula_sum "Si O2"
_cell_formula_units_Z 176
_cell_length_a 18.369727
_cell_length_b 18.369727
_cell_length_c 27.388603
_cell_angle_alpha 90.000000
_cell_angle_beta 90.000000
_cell_angle_gamma 90.000000
_cell_volume 9242.198358
_symmetry_space_group_name_H-M "I 4/M M M"
_symmetry_group_IT_number 139
_symmetry_cell_setting 'tetragonal'
loop_
_space_group_symop_operation_xyz
x,y,z
-y,x,z
-x,-y,z
y,-x,z
x,-y,-z
-x,y,-z
y,x,-z
-y,-x,-z
-x,-y,-z
y,-x,-z
x,y,-z
-y,x,-z
-x,y,z
x,-y,z
-y,-x,z
y,x,z
1/2+x,1/2+y,1/2+z
1/2-y,1/2+x,1/2+z
1/2-x,1/2-y,1/2+z
1/2+y,1/2-x,1/2+z
1/2+x,1/2-y,1/2-z
1/2-x,1/2+y,1/2-z
1/2+y,1/2+x,1/2-z
1/2-y,1/2-x,1/2-z
1/2-x,1/2-y,1/2-z
1/2+y,1/2-x,1/2-z
1/2+x,1/2+y,1/2-z
1/2-y,1/2+x,1/2-z
1/2-x,1/2+y,1/2+z
1/2+x,1/2-y,1/2+z
1/2-y,1/2-x,1/2+z
1/2+y,1/2+x,1/2+z
loop_
_atom_site_type_symbol
_atom_site_label
_atom_site_fract_x
_atom_site_fract_y
_atom_site_fract_z
Si Si1 0.202279 0.082880 0.824800
Si Si2 0.583393 0.799132 0.765466
Si Si3 0.300145 0.415933 0.500000
Si Si4 0.415880 0.801661 0.944542
Si Si5 0.916082 0.796775 0.643772
Si Si6 0.915925 0.303241 0.087141
O O1 0.133901 0.133901 0.835752
O O2 0.230611 0.095183 0.770210
O O3 0.269709 0.101652 0.860131
O O4 0.176261 0.000000 0.833610
O O5 0.500000 0.826907 0.762854
O O6 0.634051 0.865950 0.750000
O O7 0.603036 0.769240 0.819211
O O8 0.318723 0.500000 0.500000
O O9 0.376986 0.376986 0.500000
O O10 0.255862 0.392152 0.547479
O O11 0.500000 0.823030 0.943190
O O12 0.400947 0.730842 0.911267
O O13 0.375765 0.870487 0.921332
O O14 0.390264 0.784760 0.000000
O O15 0.866641 0.866641 0.654478
O O16 0.000000 0.820606 0.650779
O O17 0.000000 0.325107 0.081416
#
# Coordination Sequence:
#
# PCOD8319731 Si02
#       6
#    32  32  16  32  32  32
#     4  10  21  36  55  80 110 144 184 229 273 320
#     4  10  21  37  57  83 114 147 183 223 266 319
#     4  10  20  33  49  71 101 137 178 222 264 310
#     4  10  21  37  56  81 111 141 178 225 276 331
#     4  10  22  39  58  82 111 142 181 227 273 326
#     4  10  20  35  53  78 109 141 180 223 266 320
#
# _framework density 19.043088999999998
#
# number of rings (size 3 to 8) (size 9 to 14) (size 15 to 20)
#    0.000    2.000    0.909    2.182    0.000    5.727 
#    0.000    0.909    0.000   13.091    0.000    2.545 
#    0.000    0.000    0.000    0.000    0.000    0.000 
#
# Total GULP energy -1091398.557151 kJ/mol
# GULP energy per Si atom -12402.256331 kJ/mol
# Density = 1.899975 g / cm^3
# Si number density = 19.043089 Si / 1000 Ang^3
#
#
#
# Elastic Constant Matrix: (Units=GPa)
#
#
# Indices 1 2 3 4 5 6 
#
# 1 96.3611 76.6322 37.2658 0.0000 0.0000 0.0000
# 2 76.6322 96.3599 37.2663 0.0000 0.0000 0.0000
# 3 37.2658 37.2663 109.6487 0.0000 0.0000 0.0000
# 4 0.0000 0.0000 0.0000 31.3714 0.0000 0.0000
# 5 0.0000 0.0000 0.0000 0.0000 31.3711 0.0000
# 6 0.0000 0.0000 0.0000 0.0000 0.0000 35.3693
#
#
#
# Elastic Compliance Matrix: (Units=1/GPa)
#
#
# Indices 1 2 3 4 5 6 
#
# 1 0.028730 -0.021958 -0.002301 0.000000 0.000000 0.000000
# 2 -0.021958 0.028731 -0.002302 0.000000 0.000000 0.000000
# 3 -0.002301 -0.002302 0.010685 0.000000 0.000000 0.000000
# 4 0.000000 0.000000 0.000000 0.031876 0.000000 0.000000
# 5 0.000000 0.000000 0.000000 0.000000 0.031876 0.000000
# 6 0.000000 0.000000 0.000000 0.000000 0.000000 0.028273
#
#
# Mechanical properties :
#
#
# Convention : Reuss Voigt Hill
#
# Bulk Modulus (GPa) = 66.56738 67.18872 66.87805
# Shear Modulus (GPa) = 22.90408 29.70272 26.30340
#
# Velocity S-wave (km/s) = 3.47183 3.95367 3.72056
# Velocity P-wave (km/s) = 7.14868 7.49674 7.32477
#
# Compressibility (1/GPa) = 0.01502237
#
# Stress axis : x y z
#
# Youngs Moduli (GPa) = 34.80661 34.80596 93.59300
#
# Poissons Ratio (x) = 0.76428 0.21540
# Poissons Ratio (y) = 0.76429 0.21544
# Poissons Ratio (z) = 0.08011 0.08012
#
# Static dielectric constant tensor:
#      x y z
#    x 3.285590 0.000000 0.000000 
#    y 0.000000 3.285590 0.000000 
#    z 0.000000 0.000000 3.867800 
# 
# 
# High freq. dielectric constant tensor:
#      x y z
#    x 1.730690 0.000000 0.000000 
#    y 0.000000 1.730690 0.000000 
#    z 0.000000 0.000000 1.761820 
# 
# From -- ./inp_files/13085.got.cif
#   From: 2010.03.12/outbox.cif.g09.slc.cpg/sg139_7_cif.got.tgz:13085.got - 2010.04.08 09:46:31.
