data_PCOD8319163
_publ_section_title
;
Structure prediction by ZEFSAII (Michael W. Deem and Ramdas Pophale) SiO2 
 PCOD8319163
Probable space group: P 42/N C M
;
_chemical_formula_sum "Si O2"
_cell_formula_units_Z 64
_cell_length_a 19.877324
_cell_length_b 19.877324
_cell_length_c 7.462156
_cell_angle_alpha 90.000000
_cell_angle_beta 90.000000
_cell_angle_gamma 90.000000
_cell_volume 2948.357603
_symmetry_space_group_name_H-M "P 42/N C M"
_symmetry_group_IT_number 138
_space_group.IT_coordinate_system_code '2'
_symmetry_cell_setting 'tetragonal'
loop_
_space_group_symop_operation_xyz
x,y,z
1/2-y,x,1/2+z
1/2-x,1/2-y,z
y,1/2-x,1/2+z
1/2+x,-y,1/2-z
-x,1/2+y,1/2-z
1/2+y,1/2+x,-z
-y,-x,-z
-x,-y,-z
1/2+y,-x,1/2-z
1/2+x,1/2+y,-z
-y,1/2+x,1/2-z
1/2-x,y,1/2+z
x,1/2-y,1/2+z
1/2-y,1/2-x,z
y,x,z
loop_
_atom_site_type_symbol
_atom_site_label
_atom_site_fract_x
_atom_site_fract_y
_atom_site_fract_z
Si Si1 0.997675 0.395405 0.963519
Si Si2 0.659578 0.947359 0.373311
Si Si3 0.840582 0.225544 0.831129
Si Si4 0.497423 0.708717 0.236249
O O1 0.054704 0.445297 0.040611
O O2 0.005386 0.387798 0.749054
O O3 0.924209 0.424209 0.000000
O O4 0.002050 0.326459 0.071710
O O5 0.628424 0.871577 0.377742
O O6 0.662720 0.976583 0.573650
O O7 0.730120 0.950399 0.267064
O O8 0.802424 0.188817 0.662569
O O9 0.920697 0.230488 0.803173
O O10 0.820720 0.179281 0.000000
#
# Coordination Sequence:
#
# PCOD8319163 Si02
#       4
#    16  16  16  16
#     4  10  24  43  67 100 141 180 225 289 349 414
#     4  11  25  45  69 103 137 178 239 291 352 415
#     4  11  25  41  61  97 141 180 225 275 332 417
#     4  12  24  43  73 100 133 192 229 290 350 422
#
# _framework density 21.707000000000001
#
# number of rings (size 3 to 8) (size 9 to 14) (size 15 to 20)
#    0.000    1.000    2.500    3.750    7.000    0.000 
#    0.000    3.750    0.000    6.000    0.000    0.000 
#    0.000    0.000    0.000    0.000    0.000    0.000 
#
# Total GULP energy -792928.867353 kJ/mol
# GULP energy per Si atom -12389.513552 kJ/mol
# Density = 2.165759 g / cm^3
# Si number density = 21.707000 Si / 1000 Ang^3
#
#
#
# Elastic Constant Matrix: (Units=GPa)
#
#
# Indices 1 2 3 4 5 6 
#
# 1 111.1703 67.2880 31.5073 0.0000 0.0000 0.0000
# 2 67.2880 111.1709 31.5076 0.0000 0.0000 0.0000
# 3 31.5073 31.5076 120.9293 0.0000 0.0000 0.0000
# 4 0.0000 0.0000 0.0000 34.4221 0.0000 0.0000
# 5 0.0000 0.0000 0.0000 0.0000 34.4221 0.0000
# 6 0.0000 0.0000 0.0000 0.0000 0.0000 38.3000
#
#
#
# Elastic Compliance Matrix: (Units=1/GPa)
#
#
# Indices 1 2 3 4 5 6 
#
# 1 0.014480 -0.008308 -0.001608 0.000000 0.000000 0.000000
# 2 -0.008308 0.014480 -0.001608 0.000000 0.000000 0.000000
# 3 -0.001608 -0.001608 0.009107 0.000000 0.000000 0.000000
# 4 0.000000 0.000000 0.000000 0.029051 0.000000 0.000000
# 5 0.000000 0.000000 0.000000 0.000000 0.029051 0.000000
# 6 0.000000 0.000000 0.000000 0.000000 0.000000 0.026110
#
#
# Mechanical properties :
#
#
# Convention : Reuss Voigt Hill
#
# Bulk Modulus (GPa) = 66.58603 67.09735 66.84169
# Shear Modulus (GPa) = 33.25954 35.62668 34.44311
#
# Velocity S-wave (km/s) = 3.91858 4.05563 3.98770
# Velocity P-wave (km/s) = 7.15648 7.27382 7.21539
#
# Compressibility (1/GPa) = 0.01501817
#
# Stress axis : x y z
#
# Youngs Moduli (GPa) = 69.06212 69.06245 109.80377
#
# Poissons Ratio (x) = 0.57380 0.17655
# Poissons Ratio (y) = 0.57379 0.17656
# Poissons Ratio (z) = 0.11104 0.11105
#
# Static dielectric constant tensor:
#      x y z
#    x 3.948140 0.000000 0.000000 
#    y 0.000000 3.948140 0.000000 
#    z 0.000000 0.000000 4.195360 
# 
# 
# High freq. dielectric constant tensor:
#      x y z
#    x 1.840020 0.000000 0.000000 
#    y 0.000000 1.840020 0.000000 
#    z 0.000000 0.000000 1.875830 
# 
# From -- ./inp_files/1387.got.cif
#   From: 2010.03.12/outbox.cif.g09.slc.cpg/sg138_1_cif.got.tgz:1387.got - 2010.04.08 09:41:05.
