data_PCOD8319538
_publ_section_title
;
Structure prediction by ZEFSAII (Michael W. Deem and Ramdas Pophale) SiO2 
 PCOD8319538
Probable space group: I 4/M M M
;
_chemical_formula_sum "Si O2"
_cell_formula_units_Z 144
_cell_length_a 19.336025
_cell_length_b 19.336025
_cell_length_c 22.713961
_cell_angle_alpha 90.000000
_cell_angle_beta 90.000000
_cell_angle_gamma 90.000000
_cell_volume 8492.338050
_symmetry_space_group_name_H-M "I 4/M M M"
_symmetry_group_IT_number 139
_symmetry_cell_setting 'tetragonal'
loop_
_space_group_symop_operation_xyz
x,y,z
-y,x,z
-x,-y,z
y,-x,z
x,-y,-z
-x,y,-z
y,x,-z
-y,-x,-z
-x,-y,-z
y,-x,-z
x,y,-z
-y,x,-z
-x,y,z
x,-y,z
-y,-x,z
y,x,z
1/2+x,1/2+y,1/2+z
1/2-y,1/2+x,1/2+z
1/2-x,1/2-y,1/2+z
1/2+y,1/2-x,1/2+z
1/2+x,1/2-y,1/2-z
1/2-x,1/2+y,1/2-z
1/2+y,1/2+x,1/2-z
1/2-y,1/2-x,1/2-z
1/2-x,1/2-y,1/2-z
1/2+y,1/2-x,1/2-z
1/2+x,1/2+y,1/2-z
1/2-y,1/2+x,1/2-z
1/2-x,1/2+y,1/2+z
1/2+x,1/2-y,1/2+z
1/2-y,1/2-x,1/2+z
1/2+y,1/2+x,1/2+z
loop_
_atom_site_type_symbol
_atom_site_label
_atom_site_fract_x
_atom_site_fract_y
_atom_site_fract_z
Si Si1 0.807746 0.080343 0.370080
Si Si2 0.319503 0.793144 0.069130
Si Si3 0.811931 0.077450 0.764749
Si Si4 0.920787 0.579214 0.250000
Si Si5 0.920026 0.316104 0.151703
O O1 0.879658 0.120343 0.383707
O O2 0.745395 0.111876 0.408058
O O3 0.787000 0.090519 0.301917
O O4 0.817921 0.000000 0.386805
O O5 0.252085 0.747916 0.086130
O O6 0.312697 0.869800 0.095862
O O7 0.326415 0.802751 0.000000
O O8 0.874463 0.125538 0.783841
O O9 0.749683 0.093066 0.807903
O O10 0.839709 0.000000 0.771712
O O11 0.904872 0.500000 0.235647
O O12 0.898028 0.618693 0.191246
O O13 0.000000 0.320781 0.130348
#
# Coordination Sequence:
#
# PCOD8319538 Si02
#       5
#    32  32  32  16  32
#     4   9  18  32  50  73  99 126 156 189 228 275
#     4  10  21  35  49  66  92 126 160 196 238 278
#     4   9  17  29  47  72  99 124 151 186 229 278
#     4   9  18  32  49  70  96 122 147 182 232 283
#     4  10  19  31  50  72  93 121 157 195 232 275
#
# _framework density 16.95646
#
# number of rings (size 3 to 8) (size 9 to 14) (size 15 to 20)
#    0.000    2.556    0.000    2.000    0.000    4.000 
#    0.000    6.667    0.000    0.000    0.000    7.778 
#    0.000    0.000    0.000   20.667    0.000    0.222 
#
# Total GULP energy -892809.231339 kJ/mol
# GULP energy per Si atom -12400.128213 kJ/mol
# Density = 1.691787 g / cm^3
# Si number density = 16.956460 Si / 1000 Ang^3
#
#
#
# Elastic Constant Matrix: (Units=GPa)
#
#
# Indices 1 2 3 4 5 6 
#
# 1 106.8756 57.6537 55.2733 0.0000 0.0000 0.0000
# 2 57.6537 106.8736 55.2735 0.0000 0.0000 0.0000
# 3 55.2733 55.2735 80.4631 0.0000 0.0000 0.0000
# 4 0.0000 0.0000 0.0000 21.6819 0.0000 0.0000
# 5 0.0000 0.0000 0.0000 0.0000 21.6811 0.0000
# 6 0.0000 0.0000 0.0000 0.0000 0.0000 21.1551
#
#
#
# Elastic Compliance Matrix: (Units=1/GPa)
#
#
# Indices 1 2 3 4 5 6 
#
# 1 0.015802 -0.004514 -0.007754 0.000000 0.000000 0.000000
# 2 -0.004514 0.015803 -0.007754 0.000000 0.000000 0.000000
# 3 -0.007754 -0.007754 0.023081 0.000000 0.000000 0.000000
# 4 0.000000 0.000000 0.000000 0.046121 0.000000 0.000000
# 5 0.000000 0.000000 0.000000 0.000000 0.046123 0.000000
# 6 0.000000 0.000000 0.000000 0.000000 0.000000 0.047270
#
#
# Mechanical properties :
#
#
# Convention : Reuss Voigt Hill
#
# Bulk Modulus (GPa) = 68.30297 70.06814 69.18556
# Shear Modulus (GPa) = 20.90947 21.30442 21.10694
#
# Velocity S-wave (km/s) = 3.51540 3.54845 3.53196
# Velocity P-wave (km/s) = 7.53964 7.62894 7.58442
#
# Compressibility (1/GPa) = 0.01464065
#
# Stress axis : x y z
#
# Youngs Moduli (GPa) = 63.28288 63.28090 43.32477
#
# Poissons Ratio (x) = 0.28566 0.33594
# Poissons Ratio (y) = 0.28567 0.33596
# Poissons Ratio (z) = 0.49070 0.49071
#
# Static dielectric constant tensor:
#      x y z
#    x 3.293010 0.000000 0.000000 
#    y 0.000000 3.293060 0.000000 
#    z 0.000000 0.000000 3.029380 
# 
# 
# High freq. dielectric constant tensor:
#      x y z
#    x 1.659090 0.000000 0.000000 
#    y 0.000000 1.659090 0.000000 
#    z 0.000000 0.000000 1.635080 
# 
# From -- ./inp_files/10225.got.cif
#   From: 2010.03.12/outbox.cif.g09.slc.cpg/sg139_6_cif.got.tgz:10225.got - 2010.04.08 09:46:31.
