data_PCOD8319675
_publ_section_title
;
Structure prediction by ZEFSAII (Michael W. Deem and Ramdas Pophale) SiO2 
 PCOD8319675
Probable space group: I 4/M M M
;
_chemical_formula_sum "Si O2"
_cell_formula_units_Z 160
_cell_length_a 28.333459
_cell_length_b 28.333459
_cell_length_c 10.328756
_cell_angle_alpha 90.000000
_cell_angle_beta 90.000000
_cell_angle_gamma 90.000000
_cell_volume 8291.769341
_symmetry_space_group_name_H-M "I 4/M M M"
_symmetry_group_IT_number 139
_symmetry_cell_setting 'tetragonal'
loop_
_space_group_symop_operation_xyz
x,y,z
-y,x,z
-x,-y,z
y,-x,z
x,-y,-z
-x,y,-z
y,x,-z
-y,-x,-z
-x,-y,-z
y,-x,-z
x,y,-z
-y,x,-z
-x,y,z
x,-y,z
-y,-x,z
y,x,z
1/2+x,1/2+y,1/2+z
1/2-y,1/2+x,1/2+z
1/2-x,1/2-y,1/2+z
1/2+y,1/2-x,1/2+z
1/2+x,1/2-y,1/2-z
1/2-x,1/2+y,1/2-z
1/2+y,1/2+x,1/2-z
1/2-y,1/2-x,1/2-z
1/2-x,1/2-y,1/2-z
1/2+y,1/2-x,1/2-z
1/2+x,1/2+y,1/2-z
1/2-y,1/2+x,1/2-z
1/2-x,1/2+y,1/2+z
1/2+x,1/2-y,1/2+z
1/2-y,1/2-x,1/2+z
1/2+y,1/2+x,1/2+z
loop_
_atom_site_type_symbol
_atom_site_label
_atom_site_fract_x
_atom_site_fract_y
_atom_site_fract_z
Si Si1 0.238464 0.686441 0.642995
Si Si2 0.556155 0.369425 0.500000
Si Si3 0.056504 0.132350 0.500000
Si Si4 0.682854 0.552810 0.250910
Si Si5 0.117230 0.555896 0.348743
Si Si6 0.223568 0.578204 0.645823
O O1 0.220078 0.701385 0.500000
O O2 0.289045 0.710956 0.671840
O O3 0.200845 0.700845 0.750000
O O4 0.243021 0.630962 0.650794
O O5 0.500000 0.374890 0.500000
O O6 0.578405 0.421596 0.500000
O O7 0.576254 0.340147 0.377792
O O8 0.080861 0.080861 0.500000
O O9 0.076317 0.163018 0.379333
O O10 0.000000 0.125019 0.500000
O O11 0.663951 0.500000 0.245697
O O12 0.740091 0.551525 0.259797
O O13 0.107378 0.569846 0.500000
O O14 0.111520 0.500000 0.330518
O O15 0.081206 0.581206 0.250000
O O16 0.169848 0.571968 0.306476
O O17 0.226747 0.557513 0.500000
#
# Coordination Sequence:
#
# PCOD8319675 Si02
#       6
#    32  16  16  32  32  32
#     4   9  18  32  49  72 105 143 183 227 272 320
#     4  10  20  33  54  80 107 145 188 236 292 346
#     4  10  22  39  56  78 111 149 192 244 300 354
#     4  10  20  36  55  78 109 143 181 233 288 337
#     4  10  22  40  63  91 123 159 200 245 296 356
#     4  10  19  35  59  86 112 152 193 233 280 349
#
# _framework density 19.296244000000002
#
# number of rings (size 3 to 8) (size 9 to 14) (size 15 to 20)
#    0.000    2.200    1.000    1.800    0.000    3.200 
#    3.600    1.000    0.000    3.600    0.000    0.000 
#    0.000    0.000    0.000    0.000    0.000    0.000 
#
# Total GULP energy -991418.528537 kJ/mol
# GULP energy per Si atom -12392.731607 kJ/mol
# Density = 1.925232 g / cm^3
# Si number density = 19.296244 Si / 1000 Ang^3
#
#
#
# Elastic Constant Matrix: (Units=GPa)
#
#
# Indices 1 2 3 4 5 6 
#
# 1 92.3111 37.7827 49.5560 0.0000 0.0000 0.0000
# 2 37.7827 92.3087 49.5557 0.0000 0.0000 0.0000
# 3 49.5560 49.5557 135.2015 0.0000 0.0000 0.0000
# 4 0.0000 0.0000 0.0000 22.8517 0.0000 0.0000
# 5 0.0000 0.0000 0.0000 0.0000 22.8524 0.0000
# 6 0.0000 0.0000 0.0000 0.0000 0.0000 27.8915
#
#
#
# Elastic Compliance Matrix: (Units=1/GPa)
#
#
# Indices 1 2 3 4 5 6 
#
# 1 0.014502 -0.003837 -0.003909 0.000000 0.000000 0.000000
# 2 -0.003837 0.014502 -0.003909 0.000000 0.000000 0.000000
# 3 -0.003909 -0.003909 0.010262 0.000000 0.000000 0.000000
# 4 0.000000 0.000000 0.000000 0.043760 0.000000 0.000000
# 5 0.000000 0.000000 0.000000 0.000000 0.043759 0.000000
# 6 0.000000 0.000000 0.000000 0.000000 0.000000 0.035853
#
#
# Mechanical properties :
#
#
# Convention : Reuss Voigt Hill
#
# Bulk Modulus (GPa) = 62.67372 65.95668 64.31520
# Shear Modulus (GPa) = 26.14127 26.91425 26.52776
#
# Velocity S-wave (km/s) = 3.68466 3.73874 3.71180
# Velocity P-wave (km/s) = 7.11706 7.27275 7.19533
#
# Compressibility (1/GPa) = 0.01595565
#
# Stress axis : x y z
#
# Youngs Moduli (GPa) = 68.95597 68.95397 97.44707
#
# Poissons Ratio (x) = 0.26459 0.38092
# Poissons Ratio (y) = 0.26460 0.38093
# Poissons Ratio (z) = 0.26955 0.26955
#
# Static dielectric constant tensor:
#      x y z
#    x 3.380280 0.000000 0.000000 
#    y 0.000000 3.380280 0.000000 
#    z 0.000000 0.000000 3.838570 
# 
# 
# High freq. dielectric constant tensor:
#      x y z
#    x 1.742510 0.000000 0.000000 
#    y 0.000000 1.742510 0.000000 
#    z 0.000000 0.000000 1.751920 
# 
# From -- ./inp_files/3916.got.cif
#   From: 2010.03.12/outbox.cif.g09.slc.cpg/sg139_2_cif.got.tgz:3916.got - 2010.04.08 09:46:31.
