data_PCOD8319361
_publ_section_title
;
Structure prediction by ZEFSAII (Michael W. Deem and Ramdas Pophale) SiO2 
 PCOD8319361
Probable space group: I 4/M M M
;
_chemical_formula_sum "Si O2"
_cell_formula_units_Z 240
_cell_length_a 26.451749
_cell_length_b 26.451749
_cell_length_c 19.779102
_cell_angle_alpha 90.000000
_cell_angle_beta 90.000000
_cell_angle_gamma 90.000000
_cell_volume 13839.339272
_symmetry_space_group_name_H-M "I 4/M M M"
_symmetry_group_IT_number 139
_symmetry_cell_setting 'tetragonal'
loop_
_space_group_symop_operation_xyz
x,y,z
-y,x,z
-x,-y,z
y,-x,z
x,-y,-z
-x,y,-z
y,x,-z
-y,-x,-z
-x,-y,-z
y,-x,-z
x,y,-z
-y,x,-z
-x,y,z
x,-y,z
-y,-x,z
y,x,z
1/2+x,1/2+y,1/2+z
1/2-y,1/2+x,1/2+z
1/2-x,1/2-y,1/2+z
1/2+y,1/2-x,1/2+z
1/2+x,1/2-y,1/2-z
1/2-x,1/2+y,1/2-z
1/2+y,1/2+x,1/2-z
1/2-y,1/2-x,1/2-z
1/2-x,1/2-y,1/2-z
1/2+y,1/2-x,1/2-z
1/2+x,1/2+y,1/2-z
1/2-y,1/2+x,1/2-z
1/2-x,1/2+y,1/2+z
1/2+x,1/2-y,1/2+z
1/2-y,1/2-x,1/2+z
1/2+y,1/2+x,1/2+z
loop_
_atom_site_type_symbol
_atom_site_label
_atom_site_fract_x
_atom_site_fract_y
_atom_site_fract_z
Si Si1 0.393108 0.312322 0.819271
Si Si2 0.259021 0.940712 0.575358
Si Si3 0.142078 0.941319 0.809640
Si Si4 0.631315 0.084413 0.577798
Si Si5 0.883924 0.198755 0.922003
Si Si6 0.230857 0.688413 0.811220
Si Si7 0.307328 0.152749 0.922769
Si Si8 0.056891 0.500000 0.919268
O O1 0.361869 0.361869 0.843015
O O2 0.423044 0.289518 0.882203
O O3 0.430536 0.326200 0.758177
O O4 0.354971 0.270062 0.791966
O O5 0.254689 0.916907 0.500000
O O6 0.312905 0.925403 0.610009
O O7 0.256145 0.000000 0.571159
O O8 0.090176 0.909825 0.810029
O O9 0.175466 0.927457 0.875264
O O10 0.127862 0.000000 0.813096
O O11 0.636799 0.068268 0.500000
O O12 0.616058 0.143654 0.585602
O O13 0.587044 0.049368 0.608871
O O14 0.831619 0.168382 0.911676
O O15 0.875126 0.256588 0.898064
O O16 0.901980 0.196161 0.000000
O O17 0.257633 0.742368 0.818432
O O18 0.190480 0.690480 0.750000
O O19 0.203289 0.679188 0.882003
O O20 0.300144 0.169940 0.000000
O O21 0.000000 0.500000 0.888979
O O22 0.053348 0.500000 0.000000
#
# Coordination Sequence:
#
# PCOD8319361 Si02
#       8
#    32  32  32  32  32  32  32  16
#     4  10  20  32  47  71 103 137 169 206 254 305
#     4  10  18  30  48  69  98 135 174 216 260 302
#     4  10  21  38  58  78 102 131 169 217 263 314
#     4   9  16  27  43  67  96 127 168 214 254 297
#     4   9  18  33  53  77 106 140 168 193 244 314
#     4  10  19  29  43  66  99 137 170 198 233 282
#     4  10  18  29  47  72 104 137 171 209 245 292
#     4   9  16  28  46  66  94 130 166 214 270 308
#
# _framework density 17.341868999999999
#
# number of rings (size 3 to 8) (size 9 to 14) (size 15 to 20)
#    0.000    2.333    2.000    1.600    0.000    3.600 
#    0.000    2.000    0.000    2.400    0.000    1.867 
#    0.000    0.000    0.000   12.400    0.000    0.133 
#
# Total GULP energy -1487449.319652 kJ/mol
# GULP energy per Si atom -12395.410997 kJ/mol
# Density = 1.730240 g / cm^3
# Si number density = 17.341869 Si / 1000 Ang^3
#
#
#
# Elastic Constant Matrix: (Units=GPa)
#
#
# Indices 1 2 3 4 5 6 
#
# 1 107.2446 49.1223 40.7635 0.0000 0.0000 0.0000
# 2 49.1223 107.2446 40.7635 0.0000 0.0000 0.0000
# 3 40.7635 40.7635 62.6131 0.0000 0.0000 0.0000
# 4 0.0000 0.0000 0.0000 20.6860 0.0000 0.0000
# 5 0.0000 0.0000 0.0000 0.0000 20.6860 0.0000
# 6 0.0000 0.0000 0.0000 0.0000 0.0000 20.3059
#
#
#
# Elastic Compliance Matrix: (Units=1/GPa)
#
#
# Indices 1 2 3 4 5 6 
#
# 1 0.013443 -0.003762 -0.006303 0.000000 0.000000 0.000000
# 2 -0.003762 0.013443 -0.006303 0.000000 0.000000 0.000000
# 3 -0.006303 -0.006303 0.024178 0.000000 0.000000 0.000000
# 4 0.000000 0.000000 0.000000 0.048342 0.000000 0.000000
# 5 0.000000 0.000000 0.000000 0.000000 0.048342 0.000000
# 6 0.000000 0.000000 0.000000 0.000000 0.000000 0.049247
#
#
# Mechanical properties :
#
#
# Convention : Reuss Voigt Hill
#
# Bulk Modulus (GPa) = 54.55832 59.82234 57.19033
# Shear Modulus (GPa) = 21.20074 22.09909 21.64992
#
# Velocity S-wave (km/s) = 3.50024 3.57363 3.53713
# Velocity P-wave (km/s) = 6.91841 7.18322 7.05206
#
# Compressibility (1/GPa) = 0.01832901
#
# Stress axis : x y z
#
# Youngs Moduli (GPa) = 74.38652 74.38652 41.35972
#
# Poissons Ratio (x) = 0.27983 0.26069
# Poissons Ratio (y) = 0.27983 0.26069
# Poissons Ratio (z) = 0.46886 0.46886
#
# Static dielectric constant tensor:
#      x y z
#    x 3.206590 0.000000 0.000000 
#    y 0.000000 3.206590 0.000000 
#    z 0.000000 0.000000 3.137100 
# 
# 
# High freq. dielectric constant tensor:
#      x y z
#    x 1.661550 0.000000 0.000000 
#    y 0.000000 1.661550 0.000000 
#    z 0.000000 0.000000 1.649000 
# 
# From -- ./inp_files/9091.got.cif
#   From: 2010.03.12/outbox.cif.g09.slc.cpg/sg139_5_cif.got.tgz:9091.got - 2010.04.08 09:46:31.
