data_PCOD8319023
_publ_section_title
;
Structure prediction by ZEFSAII (Michael W. Deem and Ramdas Pophale) SiO2 
 PCOD8319023
Probable space group: P 42/N C M
;
_chemical_formula_sum "Si O2"
_cell_formula_units_Z 96
_cell_length_a 13.778616
_cell_length_b 13.778616
_cell_length_c 26.490159
_cell_angle_alpha 90.000000
_cell_angle_beta 90.000000
_cell_angle_gamma 90.000000
_cell_volume 5029.163544
_symmetry_space_group_name_H-M "P 42/N C M"
_symmetry_group_IT_number 138
_space_group.IT_coordinate_system_code '2'
_symmetry_cell_setting 'tetragonal'
loop_
_space_group_symop_operation_xyz
x,y,z
1/2-y,x,1/2+z
1/2-x,1/2-y,z
y,1/2-x,1/2+z
1/2+x,-y,1/2-z
-x,1/2+y,1/2-z
1/2+y,1/2+x,-z
-y,-x,-z
-x,-y,-z
1/2+y,-x,1/2-z
1/2+x,1/2+y,-z
-y,1/2+x,1/2-z
1/2-x,y,1/2+z
x,1/2-y,1/2+z
1/2-y,1/2-x,z
y,x,z
loop_
_atom_site_type_symbol
_atom_site_label
_atom_site_fract_x
_atom_site_fract_y
_atom_site_fract_z
Si Si1 0.417094 0.579166 0.555937
Si Si2 0.224168 0.438362 0.913595
Si Si3 0.478174 0.184322 0.142216
Si Si4 0.332012 0.167989 0.493116
Si Si5 0.669356 0.669356 0.894276
Si Si6 0.734608 0.095974 0.761029
Si Si7 0.252613 0.094575 0.303360
O O1 0.385651 0.614350 0.500000
O O2 0.501500 0.501500 0.550011
O O3 0.456721 0.673577 0.585028
O O4 0.330599 0.532387 0.588573
O O5 0.146701 0.353300 0.916217
O O6 0.293639 0.425659 0.962150
O O7 0.281185 0.429873 0.860996
O O8 0.406793 0.093208 0.154346
O O9 0.419068 0.285136 0.137634
O O10 0.560285 0.195845 0.184714
O O11 0.250000 0.250000 0.496134
O O12 0.363934 0.136067 0.549520
O O13 0.750000 0.750000 0.902479
O O14 0.654444 0.164266 0.734279
O O15 0.754888 0.002870 0.727525
O O16 0.336866 0.163135 0.280390
O O17 0.149060 0.149060 0.300270
#
# Coordination Sequence:
#
# PCOD8319023 Si02
#       7
#    16  16  16   8   8  16  16
#     4   9  16  26  45  76 113 149 185 226 274 327
#     4   9  15  25  44  73 109 143 179 223 274 323
#     4  10  20  36  55  82 116 148 190 236 289 349
#     4   9  14  24  44  75 117 151 179 221 278 343
#     4   9  18  30  50  79 115 151 180 221 286 348
#     4  11  25  42  58  79 108 149 198 241 291 346
#     4  10  20  35  57  86 114 144 186 237 291 344
#
# _framework density 19.088660999999998
#
# number of rings (size 3 to 8) (size 9 to 14) (size 15 to 20)
#    0.000    2.333    0.833    2.500    1.167    6.667 
#    0.000    0.000    0.000    0.000    0.000   18.667 
#    0.000    0.000    0.000    0.000    0.000    0.000 
#
# Total GULP energy -1189864.958255 kJ/mol
# GULP energy per Si atom -12394.426648 kJ/mol
# Density = 1.904521 g / cm^3
# Si number density = 19.088661 Si / 1000 Ang^3
#
#
#
# Elastic Constant Matrix: (Units=GPa)
#
#
# Indices 1 2 3 4 5 6 
#
# 1 78.2986 39.8366 36.4508 0.0000 0.0000 0.0000
# 2 39.8366 78.2985 36.4507 0.0000 0.0000 0.0000
# 3 36.4508 36.4507 106.2722 0.0000 0.0000 0.0000
# 4 0.0000 0.0000 0.0000 14.0751 0.0000 0.0000
# 5 0.0000 0.0000 0.0000 0.0000 14.0752 0.0000
# 6 0.0000 0.0000 0.0000 0.0000 0.0000 29.2655
#
#
#
# Elastic Compliance Matrix: (Units=1/GPa)
#
#
# Indices 1 2 3 4 5 6 
#
# 1 0.018369 -0.007631 -0.003683 0.000000 0.000000 0.000000
# 2 -0.007631 0.018369 -0.003683 0.000000 0.000000 0.000000
# 3 -0.003683 -0.003683 0.011936 0.000000 0.000000 0.000000
# 4 0.000000 0.000000 0.000000 0.071047 0.000000 0.000000
# 5 0.000000 0.000000 0.000000 0.000000 0.071047 0.000000
# 6 0.000000 0.000000 0.000000 0.000000 0.000000 0.034170
#
#
# Mechanical properties :
#
#
# Convention : Reuss Voigt Hill
#
# Bulk Modulus (GPa) = 53.53392 54.26061 53.89726
# Shear Modulus (GPa) = 19.14548 21.49191 20.31870
#
# Velocity S-wave (km/s) = 3.17042 3.35908 3.26611
# Velocity P-wave (km/s) = 6.44266 6.59787 6.52072
#
# Compressibility (1/GPa) = 0.01867975
#
# Stress axis : x y z
#
# Youngs Moduli (GPa) = 54.44049 54.44045 83.77841
#
# Poissons Ratio (x) = 0.41544 0.30855
# Poissons Ratio (y) = 0.41544 0.30855
# Poissons Ratio (z) = 0.20050 0.20050
#
# Static dielectric constant tensor:
#      x y z
#    x 3.366330 0.000000 0.000000 
#    y 0.000000 3.366330 0.000000 
#    z 0.000000 0.000000 3.700600 
# 
# 
# High freq. dielectric constant tensor:
#      x y z
#    x 1.712620 0.000000 0.000000 
#    y 0.000000 1.712620 0.000000 
#    z 0.000000 0.000000 1.753310 
# 
# From -- ./inp_files/7541.got.cif
#   From: 2010.03.12/outbox.cif.g09.slc.cpg/sg138_4_cif.got.tgz:7541.got - 2010.04.08 09:41:05.
