data_PCOD8319838
_publ_section_title
;
Structure prediction by ZEFSAII (Michael W. Deem and Ramdas Pophale) SiO2 
 PCOD8319838
Probable space group: I 4/M M M
;
_chemical_formula_sum "Si O2"
_cell_formula_units_Z 160
_cell_length_a 29.269495
_cell_length_b 29.269495
_cell_length_c 9.636812
_cell_angle_alpha 90.000000
_cell_angle_beta 90.000000
_cell_angle_gamma 90.000000
_cell_volume 8255.889004
_symmetry_space_group_name_H-M "I 4/M M M"
_symmetry_group_IT_number 139
_symmetry_cell_setting 'tetragonal'
loop_
_space_group_symop_operation_xyz
x,y,z
-y,x,z
-x,-y,z
y,-x,z
x,-y,-z
-x,y,-z
y,x,-z
-y,-x,-z
-x,-y,-z
y,-x,-z
x,y,-z
-y,x,-z
-x,y,z
x,-y,z
-y,-x,z
y,x,z
1/2+x,1/2+y,1/2+z
1/2-y,1/2+x,1/2+z
1/2-x,1/2-y,1/2+z
1/2+y,1/2-x,1/2+z
1/2+x,1/2-y,1/2-z
1/2-x,1/2+y,1/2-z
1/2+y,1/2+x,1/2-z
1/2-y,1/2-x,1/2-z
1/2-x,1/2-y,1/2-z
1/2+y,1/2-x,1/2-z
1/2+x,1/2+y,1/2-z
1/2-y,1/2+x,1/2-z
1/2-x,1/2+y,1/2+z
1/2+x,1/2-y,1/2+z
1/2-y,1/2-x,1/2+z
1/2+y,1/2+x,1/2+z
loop_
_atom_site_type_symbol
_atom_site_label
_atom_site_fract_x
_atom_site_fract_y
_atom_site_fract_z
Si Si1 0.873886 0.052962 0.341593
Si Si2 0.706168 0.448453 0.652117
Si Si3 0.244835 0.683539 0.842641
Si Si4 0.418588 0.218669 0.159622
Si Si5 0.446456 0.116994 0.161204
O O1 0.857961 0.060615 0.500000
O O2 0.920419 0.079582 0.308410
O O3 0.833731 0.074036 0.245478
O O4 0.883873 0.000000 0.312220
O O5 0.710675 0.424257 0.500000
O O6 0.691243 0.500000 0.626835
O O7 0.754061 0.450489 0.734757
O O8 0.295685 0.704316 0.813293
O O9 0.207798 0.707798 0.750000
O O10 0.241599 0.630337 0.810119
O O11 0.230269 0.692977 0.000000
O O12 0.421663 0.165050 0.195766
O O13 0.434050 0.226032 0.000000
O O14 0.500000 0.120060 0.200189
O O15 0.422808 0.077192 0.250000
O O16 0.440261 0.104663 0.000000
#
# Coordination Sequence:
#
# PCOD8319838 Si02
#       5
#    32  32  32  32  32
#     4   9  18  33  53  76 103 138 180 227 280 335
#     4  10  21  35  51  74 104 136 171 214 263 314
#     4   9  18  32  50  74 104 137 172 210 253 300
#     4  10  20  35  56  80 108 142 180 222 266 319
#     4  10  22  39  59  84 112 144 184 230 283 343
#
# _framework density 19.380106000000001
#
# number of rings (size 3 to 8) (size 9 to 14) (size 15 to 20)
#    0.000    2.400    0.000    1.800    0.000    5.600 
#    0.000    4.000    0.000    0.000    0.000    2.800 
#    0.000    0.000    0.000    0.000    0.000    0.000 
#
# Total GULP energy -991613.190183 kJ/mol
# GULP energy per Si atom -12395.164877 kJ/mol
# Density = 1.933600 g / cm^3
# Si number density = 19.380106 Si / 1000 Ang^3
#
#
#
# Elastic Constant Matrix: (Units=GPa)
#
#
# Indices 1 2 3 4 5 6 
#
# 1 86.4550 44.8011 53.3502 0.0000 0.0000 0.0000
# 2 44.8011 86.4605 53.3525 0.0000 0.0000 0.0000
# 3 53.3502 53.3525 101.8599 0.0000 0.0000 0.0000
# 4 0.0000 0.0000 0.0000 26.1017 0.0000 0.0000
# 5 0.0000 0.0000 0.0000 0.0000 26.1015 0.0000
# 6 0.0000 0.0000 0.0000 0.0000 0.0000 25.3284
#
#
#
# Elastic Compliance Matrix: (Units=1/GPa)
#
#
# Indices 1 2 3 4 5 6 
#
# 1 0.018637 -0.005369 -0.006949 0.000000 0.000000 0.000000
# 2 -0.005369 0.018636 -0.006949 0.000000 0.000000 0.000000
# 3 -0.006949 -0.006949 0.017097 0.000000 0.000000 0.000000
# 4 0.000000 0.000000 0.000000 0.038312 0.000000 0.000000
# 5 0.000000 0.000000 0.000000 0.000000 0.038312 0.000000
# 6 0.000000 0.000000 0.000000 0.000000 0.000000 0.039481
#
#
# Mechanical properties :
#
#
# Convention : Reuss Voigt Hill
#
# Bulk Modulus (GPa) = 63.14940 64.19809 63.67375
# Shear Modulus (GPa) = 23.33298 23.72444 23.52871
#
# Velocity S-wave (km/s) = 3.47359 3.50260 3.48812
# Velocity P-wave (km/s) = 6.98163 7.03955 7.01065
#
# Compressibility (1/GPa) = 0.01583546
#
# Stress axis : x y z
#
# Youngs Moduli (GPa) = 53.65612 53.65897 58.48964
#
# Poissons Ratio (x) = 0.28810 0.40646
# Poissons Ratio (y) = 0.28808 0.40646
# Poissons Ratio (z) = 0.37287 0.37289
#
# Static dielectric constant tensor:
#      x y z
#    x 3.451620 0.000000 0.000000 
#    y 0.000000 3.451620 0.000000 
#    z 0.000000 0.000000 3.713970 
# 
# 
# High freq. dielectric constant tensor:
#      x y z
#    x 1.747200 0.000000 0.000000 
#    y 0.000000 1.747200 0.000000 
#    z 0.000000 0.000000 1.757500 
# 
# From -- ./inp_files/3859.got.cif
#   From: 2010.03.12/outbox.cif.g09.slc.cpg/sg139_2_cif.got.tgz:3859.got - 2010.04.08 09:46:31.
