data_PCOD8319399
_publ_section_title
;
Structure prediction by ZEFSAII (Michael W. Deem and Ramdas Pophale) SiO2 
 PCOD8319399
Probable space group: I 4/M M M
;
_chemical_formula_sum "Si O2"
_cell_formula_units_Z 168
_cell_length_a 21.885006
_cell_length_b 21.885006
_cell_length_c 22.485876
_cell_angle_alpha 90.000000
_cell_angle_beta 90.000000
_cell_angle_gamma 90.000000
_cell_volume 10769.688732
_symmetry_space_group_name_H-M "I 4/M M M"
_symmetry_group_IT_number 139
_symmetry_cell_setting 'tetragonal'
loop_
_space_group_symop_operation_xyz
x,y,z
-y,x,z
-x,-y,z
y,-x,z
x,-y,-z
-x,y,-z
y,x,-z
-y,-x,-z
-x,-y,-z
y,-x,-z
x,y,-z
-y,x,-z
-x,y,z
x,-y,z
-y,-x,z
y,x,z
1/2+x,1/2+y,1/2+z
1/2-y,1/2+x,1/2+z
1/2-x,1/2-y,1/2+z
1/2+y,1/2-x,1/2+z
1/2+x,1/2-y,1/2-z
1/2-x,1/2+y,1/2-z
1/2+y,1/2+x,1/2-z
1/2-y,1/2-x,1/2-z
1/2-x,1/2-y,1/2-z
1/2+y,1/2-x,1/2-z
1/2+x,1/2+y,1/2-z
1/2-y,1/2+x,1/2-z
1/2-x,1/2+y,1/2+z
1/2+x,1/2-y,1/2+z
1/2-y,1/2-x,1/2+z
1/2+y,1/2+x,1/2+z
loop_
_atom_site_type_symbol
_atom_site_label
_atom_site_fract_x
_atom_site_fract_y
_atom_site_fract_z
Si Si1 0.000000 0.899821 0.373797
Si Si2 0.212536 0.309412 0.653242
Si Si3 0.782197 0.000000 0.312019
Si Si4 0.872864 0.620029 0.931818
Si Si5 0.431133 0.000000 0.070930
Si Si6 0.600896 0.500000 0.000000
Si Si7 0.131318 0.228715 0.738106
Si Si8 0.500000 0.791908 0.932396
O O1 0.060198 0.939803 0.369417
O O2 0.000000 0.854809 0.318829
O O3 0.000000 0.862304 0.437535
O O4 0.262483 0.262483 0.625714
O O5 0.178239 0.345161 0.601423
O O6 0.163723 0.271905 0.690819
O O7 0.246732 0.357809 0.695485
O O8 0.765925 0.940513 0.274106
O O9 0.756212 0.000000 0.378966
O O10 0.940202 0.604864 0.906182
O O11 0.832598 0.559820 0.924118
O O12 0.877020 0.639877 0.000000
O O13 0.500000 0.000000 0.097098
O O14 0.435358 0.000000 0.000000
O O15 0.559514 0.559514 0.000000
O O16 0.160287 0.160287 0.732119
O O17 0.500000 0.763047 0.000000
#
# Coordination Sequence:
#
# PCOD8319399 Si02
#       8
#    16  32  16  32  16   8  32  16
#     4   9  18  30  43  61  89 122 157 200 240 274
#     4   9  18  34  49  64  93 124 155 198 239 279
#     4  12  19  29  51  69  88 121 164 197 232 286
#     4  10  18  31  50  72  96 125 158 190 237 296
#     4   9  16  27  46  69  95 124 151 185 232 281
#     4   7  12  26  42  54  78 122 158 181 228 280
#     4   9  19  33  48  66  88 122 159 195 239 280
#     4  10  20  30  42  69 104 125 149 195 240 275
#
# _framework density 15.599337
#
# number of rings (size 3 to 8) (size 9 to 14) (size 15 to 20)
#    0.000    2.524    2.857    2.286    0.667    1.143 
#    0.000    0.000    0.000    0.000    0.000    0.000 
#    0.000    0.000    0.000    0.000    0.000    0.000 
#
# Total GULP energy -1040858.035232 kJ/mol
# GULP energy per Si atom -12391.167086 kJ/mol
# Density = 1.556383 g / cm^3
# Si number density = 15.599337 Si / 1000 Ang^3
#
#
#
# Elastic Constant Matrix: (Units=GPa)
#
#
# Indices 1 2 3 4 5 6 
#
# 1 100.4980 48.1864 44.5433 0.0000 0.0000 0.0000
# 2 48.1864 100.4980 44.5433 0.0000 0.0000 0.0000
# 3 44.5433 44.5433 60.1670 0.0000 0.0000 0.0000
# 4 0.0000 0.0000 0.0000 23.5708 0.0000 0.0000
# 5 0.0000 0.0000 0.0000 0.0000 23.5708 0.0000
# 6 0.0000 0.0000 0.0000 0.0000 0.0000 9.1200
#
#
#
# Elastic Compliance Matrix: (Units=1/GPa)
#
#
# Indices 1 2 3 4 5 6 
#
# 1 0.015602 -0.003514 -0.008949 0.000000 0.000000 0.000000
# 2 -0.003514 0.015602 -0.008949 0.000000 0.000000 0.000000
# 3 -0.008949 -0.008949 0.029870 0.000000 0.000000 0.000000
# 4 0.000000 0.000000 0.000000 0.042425 0.000000 0.000000
# 5 0.000000 0.000000 0.000000 0.000000 0.042425 0.000000
# 6 0.000000 0.000000 0.000000 0.000000 0.000000 0.109649
#
#
# Mechanical properties :
#
#
# Convention : Reuss Voigt Hill
#
# Bulk Modulus (GPa) = 54.79300 59.52320 57.15810
# Shear Modulus (GPa) = 16.42140 19.51164 17.96652
#
# Velocity S-wave (km/s) = 3.24805 3.54050 3.39742
# Velocity P-wave (km/s) = 7.01911 7.41309 7.21879
#
# Compressibility (1/GPa) = 0.01825051
#
# Stress axis : x y z
#
# Youngs Moduli (GPa) = 64.09529 64.09529 33.47823
#
# Poissons Ratio (x) = 0.22526 0.29958
# Poissons Ratio (y) = 0.22526 0.29958
# Poissons Ratio (z) = 0.57356 0.57356
#
# Static dielectric constant tensor:
#      x y z
#    x 2.982030 0.000000 0.000000 
#    y 0.000000 2.982030 0.000000 
#    z 0.000000 0.000000 2.856740 
# 
# 
# High freq. dielectric constant tensor:
#      x y z
#    x 1.595260 0.000000 0.000000 
#    y 0.000000 1.595260 0.000000 
#    z 0.000000 0.000000 1.576000 
# 
# From -- ./inp_files/11885.got.cif
#   From: 2010.03.12/outbox.cif.g09.slc.cpg/sg139_6_cif.got.tgz:11885.got - 2010.04.08 09:46:31.
