data_PCOD8319436
_publ_section_title
;
Structure prediction by ZEFSAII (Michael W. Deem and Ramdas Pophale) SiO2 
 PCOD8319436
Probable space group: I 4/M M M
;
_chemical_formula_sum "Si O2"
_cell_formula_units_Z 160
_cell_length_a 19.241198
_cell_length_b 19.241198
_cell_length_c 25.529676
_cell_angle_alpha 90.000000
_cell_angle_beta 90.000000
_cell_angle_gamma 90.000000
_cell_volume 9451.691121
_symmetry_space_group_name_H-M "I 4/M M M"
_symmetry_group_IT_number 139
_symmetry_cell_setting 'tetragonal'
loop_
_space_group_symop_operation_xyz
x,y,z
-y,x,z
-x,-y,z
y,-x,z
x,-y,-z
-x,y,-z
y,x,-z
-y,-x,-z
-x,-y,-z
y,-x,-z
x,y,-z
-y,x,-z
-x,y,z
x,-y,z
-y,-x,z
y,x,z
1/2+x,1/2+y,1/2+z
1/2-y,1/2+x,1/2+z
1/2-x,1/2-y,1/2+z
1/2+y,1/2-x,1/2+z
1/2+x,1/2-y,1/2-z
1/2-x,1/2+y,1/2-z
1/2+y,1/2+x,1/2-z
1/2-y,1/2-x,1/2-z
1/2-x,1/2-y,1/2-z
1/2+y,1/2-x,1/2-z
1/2+x,1/2+y,1/2-z
1/2-y,1/2+x,1/2-z
1/2-x,1/2+y,1/2+z
1/2+x,1/2-y,1/2+z
1/2-y,1/2-x,1/2+z
1/2+y,1/2+x,1/2+z
loop_
_atom_site_type_symbol
_atom_site_label
_atom_site_fract_x
_atom_site_fract_y
_atom_site_fract_z
Si Si1 0.580320 0.695402 0.354016
Si Si2 0.838210 0.725802 0.940111
Si Si3 0.862940 0.253827 0.249060
Si Si4 0.077667 0.284442 0.559550
Si Si5 0.923347 0.810760 0.345147
O O1 0.500000 0.674798 0.360238
O O2 0.624380 0.624380 0.351045
O O3 0.602983 0.741517 0.403610
O O4 0.590067 0.741925 0.302099
O O5 0.763543 0.763543 0.928461
O O6 0.835372 0.642678 0.928699
O O7 0.860353 0.739170 0.000000
O O8 0.801317 0.198684 0.248831
O O9 0.831233 0.331233 0.250000
O O10 0.908009 0.248161 0.301866
O O11 0.083857 0.257483 0.500000
O O12 0.086529 0.218492 0.596746
O O13 0.000000 0.318586 0.568580
O O14 0.875748 0.875748 0.335023
O O15 0.000000 0.839316 0.336753
#
# Coordination Sequence:
#
# PCOD8319436 Si02
#       5
#    32  32  32  32  32
#     4  10  20  33  50  73 100 130 164 200 240 287
#     4   9  17  30  49  71  95 125 161 201 244 290
#     4   9  17  30  48  68  89 114 148 191 235 276
#     4   9  17  29  47  71  95 119 152 197 246 290
#     4  10  19  29  42  62  90 123 155 185 220 266
#
# _framework density 16.928187999999999
#
# number of rings (size 3 to 8) (size 9 to 14) (size 15 to 20)
#    0.000    2.600    0.000    2.400    0.000    5.200 
#    0.000    0.000    0.000    4.200    0.000    8.400 
#    0.000    5.200    0.000    0.000    0.000    0.000 
#
# Total GULP energy -991538.004486 kJ/mol
# GULP energy per Si atom -12394.225056 kJ/mol
# Density = 1.688966 g / cm^3
# Si number density = 16.928188 Si / 1000 Ang^3
#
#
#
# Elastic Constant Matrix: (Units=GPa)
#
#
# Indices 1 2 3 4 5 6 
#
# 1 96.0316 50.8988 49.7856 0.0000 0.0000 0.0000
# 2 50.8988 96.0316 49.7856 0.0000 0.0000 0.0000
# 3 49.7856 49.7856 101.7044 0.0000 0.0000 0.0000
# 4 0.0000 0.0000 0.0000 22.2222 0.0000 0.0000
# 5 0.0000 0.0000 0.0000 0.0000 22.2222 0.0000
# 6 0.0000 0.0000 0.0000 0.0000 0.0000 13.6823
#
#
#
# Elastic Compliance Matrix: (Units=1/GPa)
#
#
# Indices 1 2 3 4 5 6 
#
# 1 0.016171 -0.005986 -0.004985 0.000000 0.000000 0.000000
# 2 -0.005986 0.016171 -0.004985 0.000000 0.000000 0.000000
# 3 -0.004985 -0.004985 0.014713 0.000000 0.000000 0.000000
# 4 0.000000 0.000000 0.000000 0.045000 0.000000 0.000000
# 5 0.000000 0.000000 0.000000 0.000000 0.045000 0.000000
# 6 0.000000 0.000000 0.000000 0.000000 0.000000 0.073087
#
#
# Mechanical properties :
#
#
# Convention : Reuss Voigt Hill
#
# Bulk Modulus (GPa) = 66.04806 66.07862 66.06334
# Shear Modulus (GPa) = 20.23452 21.17852 20.70652
#
# Velocity S-wave (km/s) = 3.46108 3.54090 3.50122
# Velocity P-wave (km/s) = 7.42115 7.47240 7.44682
#
# Compressibility (1/GPa) = 0.01514049
#
# Stress axis : x y z
#
# Youngs Moduli (GPa) = 61.84048 61.84047 67.96592
#
# Poissons Ratio (x) = 0.37019 0.33884
# Poissons Ratio (y) = 0.37019 0.33884
# Poissons Ratio (z) = 0.30830 0.30830
#
# Static dielectric constant tensor:
#      x y z
#    x 3.040550 0.000000 0.000000 
#    y 0.000000 3.040550 0.000000 
#    z 0.000000 0.000000 3.417680 
# 
# 
# High freq. dielectric constant tensor:
#      x y z
#    x 1.628850 0.000000 0.000000 
#    y 0.000000 1.628850 0.000000 
#    z 0.000000 0.000000 1.674930 
# 
# From -- ./inp_files/12927.got.cif
#   From: 2010.03.12/outbox.cif.g09.slc.cpg/sg139_7_cif.got.tgz:12927.got - 2010.04.08 09:46:31.
