data_PCOD8319317
_publ_section_title
;
Structure prediction by ZEFSAII (Michael W. Deem and Ramdas Pophale) SiO2 
 PCOD8319317
Probable space group: I 4/M M M
;
_chemical_formula_sum "Si O2"
_cell_formula_units_Z 224
_cell_length_a 23.230262
_cell_length_b 23.230262
_cell_length_c 22.788259
_cell_angle_alpha 90.000000
_cell_angle_beta 90.000000
_cell_angle_gamma 90.000000
_cell_volume 12297.571682
_symmetry_space_group_name_H-M "I 4/M M M"
_symmetry_group_IT_number 139
_symmetry_cell_setting 'tetragonal'
loop_
_space_group_symop_operation_xyz
x,y,z
-y,x,z
-x,-y,z
y,-x,z
x,-y,-z
-x,y,-z
y,x,-z
-y,-x,-z
-x,-y,-z
y,-x,-z
x,y,-z
-y,x,-z
-x,y,z
x,-y,z
-y,-x,z
y,x,z
1/2+x,1/2+y,1/2+z
1/2-y,1/2+x,1/2+z
1/2-x,1/2-y,1/2+z
1/2+y,1/2-x,1/2+z
1/2+x,1/2-y,1/2-z
1/2-x,1/2+y,1/2-z
1/2+y,1/2+x,1/2-z
1/2-y,1/2-x,1/2-z
1/2-x,1/2-y,1/2-z
1/2+y,1/2-x,1/2-z
1/2+x,1/2+y,1/2-z
1/2-y,1/2+x,1/2-z
1/2-x,1/2+y,1/2+z
1/2+x,1/2-y,1/2+z
1/2-y,1/2-x,1/2+z
1/2+y,1/2+x,1/2+z
loop_
_atom_site_type_symbol
_atom_site_label
_atom_site_fract_x
_atom_site_fract_y
_atom_site_fract_z
Si Si1 0.341194 0.564814 0.827329
Si Si2 0.435265 0.878537 0.302084
Si Si3 0.785340 0.877652 0.432747
Si Si4 0.143452 0.325963 0.366083
Si Si5 0.157526 0.064834 0.932574
Si Si6 0.763858 0.393749 0.244927
Si Si7 0.857564 0.766934 0.134016
O O1 0.365648 0.500000 0.824505
O O2 0.390914 0.609087 0.806301
O O3 0.322606 0.578297 0.894103
O O4 0.284900 0.567933 0.786015
O O5 0.500000 0.888327 0.326677
O O6 0.423841 0.923841 0.250000
O O7 0.387118 0.889356 0.353711
O O8 0.431450 0.813399 0.276667
O O9 0.789396 0.897422 0.500000
O O10 0.813131 0.813131 0.424441
O O11 0.718155 0.883208 0.413219
O O12 0.148138 0.293220 0.303217
O O13 0.205138 0.342118 0.391717
O O14 0.101905 0.101905 0.915470
O O15 0.212230 0.081624 0.892473
O O16 0.140367 0.000000 0.918245
O O17 0.175399 0.073455 0.000000
O O18 0.732893 0.356975 0.295306
O O19 0.809653 0.809653 0.109441
#
# Coordination Sequence:
#
# PCOD8319317 Si02
#       7
#    32  32  32  32  32  32  32
#     4  10  20  33  50  72  98 127 159 198 242 287
#     4   9  17  29  46  69  97 127 158 193 232 276
#     4   9  18  33  52  72  94 123 161 201 239 283
#     4   9  18  30  47  71  96 124 156 192 232 279
#     4   9  19  34  48  64  88 121 166 213 250 287
#     4   9  18  32  48  69  96 126 162 195 226 274
#     4  10  18  27  44  69  95 121 148 187 241 290
#
# _framework density 18.214977999999999
#
# number of rings (size 3 to 8) (size 9 to 14) (size 15 to 20)
#    0.000    2.714    0.000    2.571    0.000    6.429 
#    0.000    2.143    0.000    0.429    0.000    4.000 
#    0.000    0.000    0.000   10.429    0.000    0.000 
#
# Total GULP energy -1387757.500701 kJ/mol
# GULP energy per Si atom -12390.691971 kJ/mol
# Density = 1.817352 g / cm^3
# Si number density = 18.214978 Si / 1000 Ang^3
#
#
#
# Elastic Constant Matrix: (Units=GPa)
#
#
# Indices 1 2 3 4 5 6 
#
# 1 87.7595 20.4603 6.1146 0.0000 0.0000 0.0000
# 2 20.4603 87.7595 6.1146 0.0000 0.0000 0.0000
# 3 6.1146 6.1146 31.3475 0.0000 0.0000 0.0000
# 4 0.0000 0.0000 0.0000 20.1978 0.0000 0.0000
# 5 0.0000 0.0000 0.0000 0.0000 20.1978 0.0000
# 6 0.0000 0.0000 0.0000 0.0000 0.0000 15.2704
#
#
#
# Elastic Compliance Matrix: (Units=1/GPa)
#
#
# Indices 1 2 3 4 5 6 
#
# 1 0.012154 -0.002705 -0.001843 0.000000 0.000000 0.000000
# 2 -0.002705 0.012154 -0.001843 0.000000 0.000000 0.000000
# 3 -0.001843 -0.001843 0.032620 0.000000 0.000000 0.000000
# 4 0.000000 0.000000 0.000000 0.049510 0.000000 0.000000
# 5 0.000000 0.000000 0.000000 0.000000 0.049510 0.000000
# 6 0.000000 0.000000 0.000000 0.000000 0.000000 0.065486
#
#
# Mechanical properties :
#
#
# Convention : Reuss Voigt Hill
#
# Bulk Modulus (GPa) = 22.65274 30.24948 26.45111
# Shear Modulus (GPa) = 20.08586 22.74501 21.41543
#
# Velocity S-wave (km/s) = 3.32431 3.53753 3.43257
# Velocity P-wave (km/s) = 5.21518 5.77308 5.50120
#
# Compressibility (1/GPa) = 0.04414476
#
# Stress axis : x y z
#
# Youngs Moduli (GPa) = 82.27828 82.27828 30.65648
#
# Poissons Ratio (x) = 0.22258 0.05650
# Poissons Ratio (y) = 0.22258 0.05650
# Poissons Ratio (z) = 0.15164 0.15164
#
# Static dielectric constant tensor:
#      x y z
#    x 3.263520 0.000000 0.000000 
#    y 0.000000 3.263520 0.000000 
#    z 0.000000 0.000000 3.251260 
# 
# 
# High freq. dielectric constant tensor:
#      x y z
#    x 1.692350 0.000000 0.000000 
#    y 0.000000 1.692350 0.000000 
#    z 0.000000 0.000000 1.684760 
# 
# From -- ./inp_files/12200.got.cif
#   From: 2010.03.12/outbox.cif.g09.slc.cpg/sg139_7_cif.got.tgz:12200.got - 2010.04.08 09:46:31.
