data_PCOD8319854
_publ_section_title
;
Structure prediction by ZEFSAII (Michael W. Deem and Ramdas Pophale) SiO2 
 PCOD8319854
Probable space group: I 4/M M M
;
_chemical_formula_sum "Si O2"
_cell_formula_units_Z 176
_cell_length_a 19.045931
_cell_length_b 19.045931
_cell_length_c 26.841111
_cell_angle_alpha 90.000000
_cell_angle_beta 90.000000
_cell_angle_gamma 90.000000
_cell_volume 9736.545581
_symmetry_space_group_name_H-M "I 4/M M M"
_symmetry_group_IT_number 139
_symmetry_cell_setting 'tetragonal'
loop_
_space_group_symop_operation_xyz
x,y,z
-y,x,z
-x,-y,z
y,-x,z
x,-y,-z
-x,y,-z
y,x,-z
-y,-x,-z
-x,-y,-z
y,-x,-z
x,y,-z
-y,x,-z
-x,y,z
x,-y,z
-y,-x,z
y,x,z
1/2+x,1/2+y,1/2+z
1/2-y,1/2+x,1/2+z
1/2-x,1/2-y,1/2+z
1/2+y,1/2-x,1/2+z
1/2+x,1/2-y,1/2-z
1/2-x,1/2+y,1/2-z
1/2+y,1/2+x,1/2-z
1/2-y,1/2-x,1/2-z
1/2-x,1/2-y,1/2-z
1/2+y,1/2-x,1/2-z
1/2+x,1/2+y,1/2-z
1/2-y,1/2+x,1/2-z
1/2-x,1/2+y,1/2+z
1/2+x,1/2-y,1/2+z
1/2-y,1/2-x,1/2+z
1/2+y,1/2+x,1/2+z
loop_
_atom_site_type_symbol
_atom_site_label
_atom_site_fract_x
_atom_site_fract_y
_atom_site_fract_z
Si Si1 0.420079 0.811225 0.769741
Si Si2 0.311326 0.578305 0.941219
Si Si3 0.417843 0.787084 0.597493
Si Si4 0.172868 0.419337 0.115814
Si Si5 0.199879 0.083272 0.000000
Si Si6 0.803765 0.918065 0.191839
O O1 0.500000 0.830844 0.756970
O O2 0.375634 0.875634 0.750000
O O3 0.407729 0.800740 0.828062
O O4 0.399867 0.739143 0.741955
O O5 0.331904 0.500000 0.924337
O O6 0.370954 0.629047 0.919579
O O7 0.237187 0.600461 0.919300
O O8 0.305462 0.584498 0.000000
O O9 0.500000 0.798160 0.598581
O O10 0.387722 0.865714 0.600290
O O11 0.394973 0.745947 0.547815
O O12 0.392574 0.742149 0.644835
O O13 0.147200 0.500000 0.107704
O O14 0.127099 0.127099 0.000000
O O15 0.181178 0.000000 0.000000
O O16 0.876611 0.876611 0.192932
O O17 0.822661 0.000000 0.187702
#
# Coordination Sequence:
#
# PCOD8319854 Si02
#       6
#    32  32  32  32  16  32
#     4  10  20  36  55  80 110 141 179 222 267 316
#     4   9  19  35  54  78 107 139 178 222 265 312
#     4  10  21  38  56  80 111 141 180 225 268 319
#     4  10  21  36  55  80 113 147 180 219 265 322
#     4  10  22  39  59  83 111 143 182 230 278 326
#     4  10  21  37  56  79 109 142 180 227 274 324
#
# _framework density 18.076225999999998
#
# number of rings (size 3 to 8) (size 9 to 14) (size 15 to 20)
#    0.000    2.182    1.818    0.545    1.273    3.545 
#    0.000    2.727    0.000    4.909    0.000    5.091 
#    0.000    0.000    0.000    0.000    0.000    0.000 
#
# Total GULP energy -1091274.732465 kJ/mol
# GULP energy per Si atom -12400.849233 kJ/mol
# Density = 1.803508 g / cm^3
# Si number density = 18.076226 Si / 1000 Ang^3
#
#
#
# Elastic Constant Matrix: (Units=GPa)
#
#
# Indices 1 2 3 4 5 6 
#
# 1 91.8237 68.1112 29.1905 0.0000 0.0000 0.0000
# 2 68.1112 91.8237 29.1905 0.0000 0.0000 0.0000
# 3 29.1905 29.1905 48.3306 0.0000 0.0000 0.0000
# 4 0.0000 0.0000 0.0000 21.9697 0.0000 0.0000
# 5 0.0000 0.0000 0.0000 0.0000 21.9697 0.0000
# 6 0.0000 0.0000 0.0000 0.0000 0.0000 43.7923
#
#
#
# Elastic Compliance Matrix: (Units=1/GPa)
#
#
# Indices 1 2 3 4 5 6 
#
# 1 0.025096 -0.017075 -0.004844 0.000000 0.000000 0.000000
# 2 -0.017075 0.025096 -0.004844 0.000000 0.000000 0.000000
# 3 -0.004844 -0.004844 0.026543 0.000000 0.000000 0.000000
# 4 0.000000 0.000000 0.000000 0.045517 0.000000 0.000000
# 5 0.000000 0.000000 0.000000 0.000000 0.045517 0.000000
# 6 0.000000 0.000000 0.000000 0.000000 0.000000 0.022835
#
#
# Mechanical properties :
#
#
# Convention : Reuss Voigt Hill
#
# Bulk Modulus (GPa) = 43.09089 53.88469 48.48779
# Shear Modulus (GPa) = 19.85158 24.57872 22.21515
#
# Velocity S-wave (km/s) = 3.31753 3.69145 3.50947
# Velocity P-wave (km/s) = 6.21006 6.93134 6.58059
#
# Compressibility (1/GPa) = 0.02320676
#
# Stress axis : x y z
#
# Youngs Moduli (GPa) = 39.84646 39.84646 37.67522
#
# Poissons Ratio (x) = 0.68040 0.18251
# Poissons Ratio (y) = 0.68040 0.18251
# Poissons Ratio (z) = 0.19303 0.19303
#
# Static dielectric constant tensor:
#      x y z
#    x 3.312260 0.000000 0.000000 
#    y 0.000000 3.312260 0.000000 
#    z 0.000000 0.000000 3.643190 
# 
# 
# High freq. dielectric constant tensor:
#      x y z
#    x 1.697370 0.000000 0.000000 
#    y 0.000000 1.697370 0.000000 
#    z 0.000000 0.000000 1.711700 
# 
# From -- ./inp_files/13087.got.cif
#   From: 2010.03.12/outbox.cif.g09.slc.cpg/sg139_7_cif.got.tgz:13087.got - 2010.04.08 09:46:31.
