data_PCOD8319502
_publ_section_title
;
Structure prediction by ZEFSAII (Michael W. Deem and Ramdas Pophale) SiO2 
 PCOD8319502
Probable space group: I 4/M M M
;
_chemical_formula_sum "Si O2"
_cell_formula_units_Z 240
_cell_length_a 30.409764
_cell_length_b 30.409764
_cell_length_c 14.543290
_cell_angle_alpha 90.000000
_cell_angle_beta 90.000000
_cell_angle_gamma 90.000000
_cell_volume 13448.961914
_symmetry_space_group_name_H-M "I 4/M M M"
_symmetry_group_IT_number 139
_symmetry_cell_setting 'tetragonal'
loop_
_space_group_symop_operation_xyz
x,y,z
-y,x,z
-x,-y,z
y,-x,z
x,-y,-z
-x,y,-z
y,x,-z
-y,-x,-z
-x,-y,-z
y,-x,-z
x,y,-z
-y,x,-z
-x,y,z
x,-y,z
-y,-x,z
y,x,z
1/2+x,1/2+y,1/2+z
1/2-y,1/2+x,1/2+z
1/2-x,1/2-y,1/2+z
1/2+y,1/2-x,1/2+z
1/2+x,1/2-y,1/2-z
1/2-x,1/2+y,1/2-z
1/2+y,1/2+x,1/2-z
1/2-y,1/2-x,1/2-z
1/2-x,1/2-y,1/2-z
1/2+y,1/2-x,1/2-z
1/2+x,1/2+y,1/2-z
1/2-y,1/2+x,1/2-z
1/2-x,1/2+y,1/2+z
1/2+x,1/2-y,1/2+z
1/2-y,1/2-x,1/2+z
1/2+y,1/2+x,1/2+z
loop_
_atom_site_type_symbol
_atom_site_label
_atom_site_fract_x
_atom_site_fract_y
_atom_site_fract_z
Si Si1 0.204604 0.131715 0.397150
Si Si2 0.548470 0.288726 0.207003
Si Si3 0.888445 0.595565 0.892283
Si Si4 0.797362 0.727266 0.390388
Si Si5 0.800321 0.549054 0.897012
Si Si6 0.871210 0.308702 0.892505
Si Si7 0.744041 0.450880 0.602994
Si Si8 0.050962 0.449039 0.750000
O O1 0.213163 0.114538 0.500000
O O2 0.165484 0.165484 0.394861
O O3 0.187144 0.090103 0.337492
O O4 0.248731 0.156699 0.359901
O O5 0.500000 0.305883 0.173485
O O6 0.554847 0.238204 0.176467
O O7 0.550659 0.293249 0.318124
O O8 0.839642 0.580182 0.867293
O O9 0.889254 0.645254 0.854393
O O10 0.925103 0.567639 0.841164
O O11 0.898694 0.591133 0.000000
O O12 0.795922 0.727947 0.500000
O O13 0.754985 0.754985 0.353329
O O14 0.795169 0.677010 0.350818
O O15 0.819238 0.500000 0.895286
O O16 0.783167 0.560833 0.000000
O O17 0.910427 0.275316 0.871689
O O18 0.862852 0.314090 0.000000
O O19 0.724209 0.444180 0.500000
O O20 0.766649 0.500000 0.607738
O O21 0.060900 0.500000 0.736004
#
# Coordination Sequence:
#
# PCOD8319502 Si02
#       8
#    32  32  32  32  32  32  32  16
#     4   9  17  30  48  71 104 139 163 194 245 300
#     4  10  19  30  49  73  96 127 164 203 241 284
#     4  10  21  36  54  72  91 117 148 190 242 296
#     4   8  14  27  48  72 100 133 163 192 234 291
#     4   9  17  29  46  69  93 113 139 183 236 284
#     4   9  17  30  49  71  92 120 160 200 240 290
#     4   9  19  34  48  65  92 124 161 208 257 294
#     4  11  26  42  54  70  89 112 148 194 249 320
#
# _framework density 17.845244000000001
#
# number of rings (size 3 to 8) (size 9 to 14) (size 15 to 20)
#    0.000    2.733    0.000    2.400    1.867    4.533 
#    0.000    2.667    0.000    2.800    0.000    0.000 
#    0.000    0.267    0.000    1.467    0.000    0.000 
#
# Total GULP energy -1486606.620780 kJ/mol
# GULP energy per Si atom -12388.388506 kJ/mol
# Density = 1.780463 g / cm^3
# Si number density = 17.845244 Si / 1000 Ang^3
#
#
#
# Elastic Constant Matrix: (Units=GPa)
#
#
# Indices 1 2 3 4 5 6 
#
# 1 60.5060 14.4484 14.6834 0.0000 0.0000 0.0000
# 2 14.4484 60.5191 14.6838 0.0000 0.0000 0.0000
# 3 14.6834 14.6838 57.4359 0.0000 0.0000 0.0000
# 4 0.0000 0.0000 0.0000 14.6752 0.0000 0.0000
# 5 0.0000 0.0000 0.0000 0.0000 14.6745 0.0000
# 6 0.0000 0.0000 0.0000 0.0000 0.0000 16.7675
#
#
#
# Elastic Compliance Matrix: (Units=1/GPa)
#
#
# Indices 1 2 3 4 5 6 
#
# 1 0.018269 -0.003442 -0.003791 0.000000 0.000000 0.000000
# 2 -0.003442 0.018265 -0.003790 0.000000 0.000000 0.000000
# 3 -0.003791 -0.003790 0.019349 0.000000 0.000000 0.000000
# 4 0.000000 0.000000 0.000000 0.068142 0.000000 0.000000
# 5 0.000000 0.000000 0.000000 0.000000 0.068145 0.000000
# 6 0.000000 0.000000 0.000000 0.000000 0.000000 0.059639
#
#
# Mechanical properties :
#
#
# Convention : Reuss Voigt Hill
#
# Bulk Modulus (GPa) = 29.55211 29.56579 29.55895
# Shear Modulus (GPa) = 17.53568 18.19979 17.86773
#
# Velocity S-wave (km/s) = 3.13813 3.19700 3.16770
# Velocity P-wave (km/s) = 5.45221 5.49833 5.47532
#
# Compressibility (1/GPa) = 0.03383853
#
# Stress axis : x y z
#
# Youngs Moduli (GPa) = 54.73737 54.74976 51.68333
#
# Poissons Ratio (x) = 0.18844 0.19591
# Poissons Ratio (y) = 0.18840 0.19586
# Poissons Ratio (z) = 0.20748 0.20748
#
# Static dielectric constant tensor:
#      x y z
#    x 3.267730 0.000000 0.000000 
#    y 0.000000 3.267710 0.000000 
#    z 0.000000 0.000000 3.368430 
# 
# 
# High freq. dielectric constant tensor:
#      x y z
#    x 1.666110 0.000000 0.000000 
#    y 0.000000 1.666110 0.000000 
#    z 0.000000 0.000000 1.691280 
# 
# From -- ./inp_files/6805.got.cif
#   From: 2010.03.12/outbox.cif.g09.slc.cpg/sg139_4_cif.got.tgz:6805.got - 2010.04.08 09:46:31.
