data_PCOD8319689
_publ_section_title
;
Structure prediction by ZEFSAII (Michael W. Deem and Ramdas Pophale) SiO2 
 PCOD8319689
Probable space group: I 4/M M M
;
_chemical_formula_sum "Si O2"
_cell_formula_units_Z 184
_cell_length_a 25.324758
_cell_length_b 25.324758
_cell_length_c 16.909185
_cell_angle_alpha 90.000000
_cell_angle_beta 90.000000
_cell_angle_gamma 90.000000
_cell_volume 10844.593654
_symmetry_space_group_name_H-M "I 4/M M M"
_symmetry_group_IT_number 139
_symmetry_cell_setting 'tetragonal'
loop_
_space_group_symop_operation_xyz
x,y,z
-y,x,z
-x,-y,z
y,-x,z
x,-y,-z
-x,y,-z
y,x,-z
-y,-x,-z
-x,-y,-z
y,-x,-z
x,y,-z
-y,x,-z
-x,y,z
x,-y,z
-y,-x,z
y,x,z
1/2+x,1/2+y,1/2+z
1/2-y,1/2+x,1/2+z
1/2-x,1/2-y,1/2+z
1/2+y,1/2-x,1/2+z
1/2+x,1/2-y,1/2-z
1/2-x,1/2+y,1/2-z
1/2+y,1/2+x,1/2-z
1/2-y,1/2-x,1/2-z
1/2-x,1/2-y,1/2-z
1/2+y,1/2-x,1/2-z
1/2+x,1/2+y,1/2-z
1/2-y,1/2+x,1/2-z
1/2-x,1/2+y,1/2+z
1/2+x,1/2-y,1/2+z
1/2-y,1/2-x,1/2+z
1/2+y,1/2+x,1/2+z
loop_
_atom_site_type_symbol
_atom_site_label
_atom_site_fract_x
_atom_site_fract_y
_atom_site_fract_z
Si Si1 0.092417 0.254859 0.829279
Si Si2 0.279134 0.805209 0.088653
Si Si3 0.716223 0.059816 0.411522
Si Si4 0.000000 0.910697 0.000000
Si Si5 0.559313 0.145965 0.233666
Si Si6 0.144476 0.228642 0.669540
Si Si7 0.000000 0.806599 0.911893
O O1 0.132624 0.272552 0.897436
O O2 0.063040 0.306711 0.796879
O O3 0.126867 0.227782 0.760340
O O4 0.051472 0.212372 0.863988
O O5 0.222140 0.777860 0.097275
O O6 0.319071 0.779897 0.152324
O O7 0.301812 0.796681 0.000000
O O8 0.696834 0.072004 0.500000
O O9 0.667813 0.073306 0.353431
O O10 0.767596 0.094028 0.388174
O O11 0.734849 0.000000 0.401013
O O12 0.947541 0.947541 0.000000
O O13 0.000000 0.871112 0.077097
O O14 0.500000 0.123406 0.236483
O O15 0.598434 0.098434 0.250000
O O16 0.175166 0.175166 0.648841
O O17 0.000000 0.780531 0.000000
#
# Coordination Sequence:
#
# PCOD8319689 Si02
#       7
#    32  32  32   8  32  32  16
#     4  11  19  35  52  77 107 140 180 221 273 322
#     4  10  20  32  49  76 112 148 181 213 260 331
#     4   9  18  33  53  72  97 136 179 217 257 318
#     4   9  22  44  64  84 112 148 189 224 264 322
#     4  10  20  34  54  75 102 138 181 227 277 326
#     4  10  20  31  49  77 109 142 173 215 267 324
#     4  10  23  38  60  82 108 139 182 230 270 316
#
# _framework density 16.96698
#
# number of rings (size 3 to 8) (size 9 to 14) (size 15 to 20)
#    0.261    1.783    0.870    4.174    1.217    4.000 
#    0.000    0.870    0.000    0.000    0.000    2.435 
#    0.000    0.348    0.000    1.913    0.000    0.000 
#
# Total GULP energy -1140473.290836 kJ/mol
# GULP energy per Si atom -12396.448813 kJ/mol
# Density = 1.692836 g / cm^3
# Si number density = 16.966980 Si / 1000 Ang^3
#
#
#
# Elastic Constant Matrix: (Units=GPa)
#
#
# Indices 1 2 3 4 5 6 
#
# 1 109.5127 67.4004 51.1603 0.0000 0.0000 0.0000
# 2 67.4004 109.5127 51.1603 0.0000 0.0000 0.0000
# 3 51.1603 51.1603 106.9989 0.0000 0.0000 0.0000
# 4 0.0000 0.0000 0.0000 25.3771 0.0000 0.0000
# 5 0.0000 0.0000 0.0000 0.0000 25.3771 0.0000
# 6 0.0000 0.0000 0.0000 0.0000 0.0000 30.7473
#
#
#
# Elastic Compliance Matrix: (Units=1/GPa)
#
#
# Indices 1 2 3 4 5 6 
#
# 1 0.015780 -0.007966 -0.003736 0.000000 0.000000 0.000000
# 2 -0.007966 0.015780 -0.003736 0.000000 0.000000 0.000000
# 3 -0.003736 -0.003736 0.012918 0.000000 0.000000 0.000000
# 4 0.000000 0.000000 0.000000 0.039406 0.000000 0.000000
# 5 0.000000 0.000000 0.000000 0.000000 0.039406 0.000000
# 6 0.000000 0.000000 0.000000 0.000000 0.000000 0.032523
#
#
# Mechanical properties :
#
#
# Convention : Reuss Voigt Hill
#
# Bulk Modulus (GPa) = 73.52112 73.94072 73.73092
# Shear Modulus (GPa) = 26.14767 26.72052 26.43410
#
# Velocity S-wave (km/s) = 3.92993 3.97275 3.95140
# Velocity P-wave (km/s) = 8.00115 8.04471 8.02296
#
# Compressibility (1/GPa) = 0.01360153
#
# Stress axis : x y z
#
# Youngs Moduli (GPa) = 63.37307 63.37307 77.40943
#
# Poissons Ratio (x) = 0.50486 0.28918
# Poissons Ratio (y) = 0.50486 0.28918
# Poissons Ratio (z) = 0.23675 0.23675
#
# Static dielectric constant tensor:
#      x y z
#    x 3.132070 0.000000 0.000000 
#    y 0.000000 3.132070 0.000000 
#    z 0.000000 0.000000 3.327160 
# 
# 
# High freq. dielectric constant tensor:
#      x y z
#    x 1.644210 0.000000 0.000000 
#    y 0.000000 1.644210 0.000000 
#    z 0.000000 0.000000 1.661640 
# 
# From -- ./inp_files/8927.got.cif
#   From: 2010.03.12/outbox.cif.g09.slc.cpg/sg139_5_cif.got.tgz:8927.got - 2010.04.08 09:46:31.
