data_PCOD8319047
_publ_section_title
;
Structure prediction by ZEFSAII (Michael W. Deem and Ramdas Pophale) SiO2 
 PCOD8319047
Probable space group: P 42/N C M
;
_chemical_formula_sum "Si O2"
_cell_formula_units_Z 80
_cell_length_a 13.298271
_cell_length_b 13.298271
_cell_length_c 23.222604
_cell_angle_alpha 90.000000
_cell_angle_beta 90.000000
_cell_angle_gamma 90.000000
_cell_volume 4106.778451
_symmetry_space_group_name_H-M "P 42/N C M"
_symmetry_group_IT_number 138
_space_group.IT_coordinate_system_code '2'
_symmetry_cell_setting 'tetragonal'
loop_
_space_group_symop_operation_xyz
x,y,z
1/2-y,x,1/2+z
1/2-x,1/2-y,z
y,1/2-x,1/2+z
1/2+x,-y,1/2-z
-x,1/2+y,1/2-z
1/2+y,1/2+x,-z
-y,-x,-z
-x,-y,-z
1/2+y,-x,1/2-z
1/2+x,1/2+y,-z
-y,1/2+x,1/2-z
1/2-x,y,1/2+z
x,1/2-y,1/2+z
1/2-y,1/2-x,z
y,x,z
loop_
_atom_site_type_symbol
_atom_site_label
_atom_site_fract_x
_atom_site_fract_y
_atom_site_fract_z
Si Si1 0.087937 0.246492 0.081249
Si Si2 0.595515 0.434686 0.201039
Si Si3 0.216109 0.544698 0.191679
Si Si4 0.141081 0.730767 0.122061
Si Si5 0.999367 0.156628 0.476646
O O1 0.177646 0.322355 0.070843
O O2 0.132971 0.132971 0.085230
O O3 0.033397 0.279633 0.139537
O O4 0.014069 0.257657 0.026046
O O5 0.507297 0.507297 0.177696
O O6 0.646609 0.490916 0.255403
O O7 0.552754 0.326382 0.219787
O O8 0.670522 0.407813 0.149505
O O9 0.166299 0.648773 0.170635
O O10 0.250000 0.750000 0.091130
O O11 0.054554 0.701444 0.078331
O O12 0.930771 0.069230 0.500000
O O13 0.106452 0.106452 0.458569
#
# Coordination Sequence:
#
# PCOD8319047 Si02
#       5
#    16  16  16  16  16
#     4  10  21  37  59  88 122 160 202 251 305 363
#     4  11  23  38  60  89 121 159 200 253 310 357
#     4  11  20  39  61  86 120 158 205 252 296 368
#     4  10  22  38  61  86 121 155 201 248 301 359
#     4  10  20  37  60  87 115 156 206 245 294 362
#
# _framework density 19.479990000000001
#
# number of rings (size 3 to 8) (size 9 to 14) (size 15 to 20)
#    0.000    1.600    4.000    1.200    0.000    2.000 
#    0.000    0.000    0.000    6.000    0.000    0.000 
#    0.000    0.000    0.000    0.000    0.000    0.000 
#
# Total GULP energy -991282.241203 kJ/mol
# GULP energy per Si atom -12391.028015 kJ/mol
# Density = 1.943565 g / cm^3
# Si number density = 19.479990 Si / 1000 Ang^3
#
#
#
# Elastic Constant Matrix: (Units=GPa)
#
#
# Indices 1 2 3 4 5 6 
#
# 1 93.6590 41.4935 48.2750 0.0000 0.0000 0.0000
# 2 41.4935 93.6577 48.2755 0.0000 0.0000 0.0000
# 3 48.2750 48.2755 84.8568 0.0000 0.0000 0.0000
# 4 0.0000 0.0000 0.0000 31.3841 0.0000 0.0000
# 5 0.0000 0.0000 0.0000 0.0000 31.3841 0.0000
# 6 0.0000 0.0000 0.0000 0.0000 0.0000 40.9684
#
#
#
# Elastic Compliance Matrix: (Units=1/GPa)
#
#
# Indices 1 2 3 4 5 6 
#
# 1 0.015817 -0.003352 -0.007091 0.000000 0.000000 0.000000
# 2 -0.003352 0.015818 -0.007092 0.000000 0.000000 0.000000
# 3 -0.007091 -0.007092 0.019853 0.000000 0.000000 0.000000
# 4 0.000000 0.000000 0.000000 0.031863 0.000000 0.000000
# 5 0.000000 0.000000 0.000000 0.000000 0.031863 0.000000
# 6 0.000000 0.000000 0.000000 0.000000 0.000000 0.024409
#
#
# Mechanical properties :
#
#
# Convention : Reuss Voigt Hill
#
# Bulk Modulus (GPa) = 60.90982 60.91793 60.91388
# Shear Modulus (GPa) = 27.75202 29.68929 28.72065
#
# Velocity S-wave (km/s) = 3.77854 3.90820 3.84391
# Velocity P-wave (km/s) = 7.09734 7.19064 7.14414
#
# Compressibility (1/GPa) = 0.01641771
#
# Stress axis : x y z
#
# Youngs Moduli (GPa) = 63.22190 63.22002 50.36971
#
# Poissons Ratio (x) = 0.21194 0.35718
# Poissons Ratio (y) = 0.21195 0.35720
# Poissons Ratio (z) = 0.44832 0.44833
#
# Static dielectric constant tensor:
#      x y z
#    x 3.761580 0.000000 0.000000 
#    y 0.000000 3.761580 0.000000 
#    z 0.000000 0.000000 3.377310 
# 
# 
# High freq. dielectric constant tensor:
#      x y z
#    x 1.755570 0.000000 0.000000 
#    y 0.000000 1.755570 0.000000 
#    z 0.000000 0.000000 1.751280 
# 
# From -- ./inp_files/5988.got.cif
#   From: 2010.03.12/outbox.cif.g09.slc.cpg/sg138_3_cif.got.tgz:5988.got - 2010.04.08 09:41:05.
