data_PCOD8319388
_publ_section_title
;
Structure prediction by ZEFSAII (Michael W. Deem and Ramdas Pophale) SiO2 
 PCOD8319388
Probable space group: I 4/M M M
;
_chemical_formula_sum "Si O2"
_cell_formula_units_Z 96
_cell_length_a 17.460458
_cell_length_b 17.460458
_cell_length_c 17.838871
_cell_angle_alpha 90.000000
_cell_angle_beta 90.000000
_cell_angle_gamma 90.000000
_cell_volume 5438.493674
_symmetry_space_group_name_H-M "I 4/M M M"
_symmetry_group_IT_number 139
_symmetry_cell_setting 'tetragonal'
loop_
_space_group_symop_operation_xyz
x,y,z
-y,x,z
-x,-y,z
y,-x,z
x,-y,-z
-x,y,-z
y,x,-z
-y,-x,-z
-x,-y,-z
y,-x,-z
x,y,-z
-y,x,-z
-x,y,z
x,-y,z
-y,-x,z
y,x,z
1/2+x,1/2+y,1/2+z
1/2-y,1/2+x,1/2+z
1/2-x,1/2-y,1/2+z
1/2+y,1/2-x,1/2+z
1/2+x,1/2-y,1/2-z
1/2-x,1/2+y,1/2-z
1/2+y,1/2+x,1/2-z
1/2-y,1/2-x,1/2-z
1/2-x,1/2-y,1/2-z
1/2+y,1/2-x,1/2-z
1/2+x,1/2+y,1/2-z
1/2-y,1/2+x,1/2-z
1/2-x,1/2+y,1/2+z
1/2+x,1/2-y,1/2+z
1/2-y,1/2-x,1/2+z
1/2+y,1/2+x,1/2+z
loop_
_atom_site_type_symbol
_atom_site_label
_atom_site_fract_x
_atom_site_fract_y
_atom_site_fract_z
Si Si1 0.500000 0.252479 0.628803
Si Si2 0.581867 0.806623 0.500000
Si Si3 0.000000 0.125177 0.248067
Si Si4 0.000000 0.751073 0.376667
Si Si5 0.747051 0.124754 0.500000
Si Si6 0.000000 0.373707 0.743121
O O1 0.423617 0.245014 0.576051
O O2 0.500000 0.334931 0.667114
O O3 0.500000 0.186986 0.690870
O O4 0.500000 0.855961 0.500000
O O5 0.657325 0.856368 0.500000
O O6 0.924205 0.075796 0.255399
O O7 0.000000 0.184771 0.314544
O O8 0.075772 0.763288 0.426061
O O9 0.000000 0.667636 0.337973
O O10 0.799225 0.200776 0.500000
O O11 0.924078 0.424078 0.750000
#
# Coordination Sequence:
#
# PCOD8319388 Si02
#       6
#    16  16  16  16  16  16
#     4   8  18  34  50  76 106 132 175 220 264 318
#     4   8  19  36  54  77 110 135 173 216 269 320
#     4  10  20  36  56  75 102 142 181 224 272 307
#     4  10  22  36  51  82 111 137 184 223 255 318
#     4  11  21  36  57  79 109 146 178 218 270 314
#     4  10  18  30  52  76 106 142 174 213 259 314
#
# _framework density 17.651945999999999
#
# number of rings (size 3 to 8) (size 9 to 14) (size 15 to 20)
#    1.000    1.333    0.000    3.000    0.000    1.333 
#    0.000    1.667    0.000   19.000    0.000    0.000 
#    0.000    0.000    0.000    0.000    0.000    0.000 
#
# Total GULP energy -594721.138815 kJ/mol
# GULP energy per Si atom -12390.023725 kJ/mol
# Density = 1.761177 g / cm^3
# Si number density = 17.651946 Si / 1000 Ang^3
#
#
#
# Elastic Constant Matrix: (Units=GPa)
#
#
# Indices 1 2 3 4 5 6 
#
# 1 103.5166 45.1789 38.2963 0.0000 0.0000 0.0000
# 2 45.1789 103.5135 38.2950 0.0000 0.0000 0.0000
# 3 38.2963 38.2950 115.0253 0.0000 0.0000 0.0000
# 4 0.0000 0.0000 0.0000 18.8368 0.0000 0.0000
# 5 0.0000 0.0000 0.0000 0.0000 18.8390 0.0000
# 6 0.0000 0.0000 0.0000 0.0000 0.0000 171.2722
#
#
#
# Elastic Compliance Matrix: (Units=1/GPa)
#
#
# Indices 1 2 3 4 5 6 
#
# 1 0.012629 -0.004512 -0.002703 0.000000 0.000000 0.000000
# 2 -0.004512 0.012630 -0.002702 0.000000 0.000000 0.000000
# 3 -0.002703 -0.002702 0.010493 0.000000 0.000000 0.000000
# 4 0.000000 0.000000 0.000000 0.053088 0.000000 0.000000
# 5 0.000000 0.000000 0.000000 0.000000 0.053081 0.000000
# 6 0.000000 0.000000 0.000000 0.000000 0.000000 0.005839
#
#
# Mechanical properties :
#
#
# Convention : Reuss Voigt Hill
#
# Bulk Modulus (GPa) = 62.82289 62.84398 62.83344
# Shear Modulus (GPa) = 28.91830 55.14193 42.03012
#
# Velocity S-wave (km/s) = 4.05192 5.59520 4.88489
# Velocity P-wave (km/s) = 7.58669 8.79890 8.21518
#
# Compressibility (1/GPa) = 0.01591777
#
# Stress axis : x y z
#
# Youngs Moduli (GPa) = 79.17978 79.17779 95.29947
#
# Poissons Ratio (x) = 0.35728 0.25755
# Poissons Ratio (y) = 0.35729 0.25754
# Poissons Ratio (z) = 0.21399 0.21397
#
# Static dielectric constant tensor:
#      x y z
#    x 3.164930 0.000000 0.000000 
#    y 0.000000 3.164930 0.000000 
#    z 0.000000 0.000000 3.535320 
# 
# 
# High freq. dielectric constant tensor:
#      x y z
#    x 1.672870 0.000000 0.000000 
#    y 0.000000 1.672870 0.000000 
#    z 0.000000 0.000000 1.704300 
# 
# From -- ./inp_files/7408.got.cif
#   From: 2010.03.12/outbox.cif.g09.slc.cpg/sg139_4_cif.got.tgz:7408.got - 2010.04.08 09:46:31.
