data_PCOD8319247
_publ_section_title
;
Structure prediction by ZEFSAII (Michael W. Deem and Ramdas Pophale) SiO2 
 PCOD8319247
Probable space group: P 42/N C M
;
_chemical_formula_sum "Si O2"
_cell_formula_units_Z 80
_cell_length_a 12.000000
_cell_length_b 12.000000
_cell_length_c 30.000000
_cell_angle_alpha 90.000000
_cell_angle_beta 90.000000
_cell_angle_gamma 90.000000
_cell_volume 4320.000000
_symmetry_space_group_name_H-M "P 42/N C M"
_symmetry_group_IT_number 138
_space_group.IT_coordinate_system_code '2'
_symmetry_cell_setting 'tetragonal'
loop_
_space_group_symop_operation_xyz
x,y,z
1/2-y,x,1/2+z
1/2-x,1/2-y,z
y,1/2-x,1/2+z
1/2+x,-y,1/2-z
-x,1/2+y,1/2-z
1/2+y,1/2+x,-z
-y,-x,-z
-x,-y,-z
1/2+y,-x,1/2-z
1/2+x,1/2+y,-z
-y,1/2+x,1/2-z
1/2-x,y,1/2+z
x,1/2-y,1/2+z
1/2-y,1/2-x,z
y,x,z
loop_
_atom_site_type_symbol
_atom_site_label
_atom_site_fract_x
_atom_site_fract_y
_atom_site_fract_z
Si Si1 0.530029 0.258725 0.834797
Si Si2 0.845113 0.479303 0.343884
Si Si3 0.664748 0.664748 0.606701
Si Si4 0.253649 0.432559 0.741417
Si Si5 0.016683 0.483318 0.948415
Si Si6 0.142084 0.814150 0.401682
O O1 0.559461 0.388579 0.834991
O O2 0.419482 0.234406 0.862839
O O3 0.510576 0.226566 0.783581
O O4 0.629719 0.187025 0.856191
O O5 0.760245 0.490715 0.302220
O O6 0.778046 0.447624 0.388139
O O7 0.902931 0.597070 0.353681
O O8 0.750000 0.750000 0.584447
O O9 0.608192 0.608192 0.564065
O O10 0.164306 0.335695 0.740200
O O11 0.377582 0.377582 0.743433
O O12 0.900169 0.431703 0.930525
O O13 0.000000 0.500000 0.000000
O O14 0.250000 0.750000 0.425027
#
# Coordination Sequence:
#
# PCOD8319247 Si02
#       6
#    16  16   8  16   8  16
#     4  10  19  34  52  76 107 148 189 232 275 315
#     4  10  21  34  50  75 109 151 192 223 268 324
#     4  10  18  34  62  82 110 140 182 236 282 327
#     4  10  20  31  45  71 106 144 189 236 270 309
#     4  10  22  40  64  90 110 140 182 230 294 354
#     4   9  21  39  57  81 112 146 184 226 283 338
#
# _framework density 18.518519000000001
#
# number of rings (size 3 to 8) (size 9 to 14) (size 15 to 20)
#    0.000    2.200    1.000    1.800    4.200    0.400 
#    0.000    1.000    0.000    0.000    0.000    8.400 
#    0.000    0.000    0.000    0.000    0.000    0.000 
#
# Total GULP energy -991271.677072 kJ/mol
# GULP energy per Si atom -12390.895963 kJ/mol
# Density = 1.847637 g / cm^3
# Si number density = 18.518519 Si / 1000 Ang^3
#
#
#
# Elastic Constant Matrix: (Units=GPa)
#
#
# Indices 1 2 3 4 5 6 
#
# 1 99.7474 40.2700 48.9068 0.0000 0.0000 0.0000
# 2 40.2700 99.7474 48.9068 0.0000 0.0000 0.0000
# 3 48.9068 48.9068 96.5575 0.0000 0.0000 0.0000
# 4 0.0000 0.0000 0.0000 14.7248 0.0000 0.0000
# 5 0.0000 0.0000 0.0000 0.0000 14.7248 0.0000
# 6 0.0000 0.0000 0.0000 0.0000 0.0000 35.6637
#
#
#
# Elastic Compliance Matrix: (Units=1/GPa)
#
#
# Indices 1 2 3 4 5 6 
#
# 1 0.013933 -0.002880 -0.005598 0.000000 0.000000 0.000000
# 2 -0.002880 0.013933 -0.005598 0.000000 0.000000 0.000000
# 3 -0.005598 -0.005598 0.016028 0.000000 0.000000 0.000000
# 4 0.000000 0.000000 0.000000 0.067913 0.000000 0.000000
# 5 0.000000 0.000000 0.000000 0.000000 0.067913 0.000000
# 6 0.000000 0.000000 0.000000 0.000000 0.000000 0.028040
#
#
# Mechanical properties :
#
#
# Convention : Reuss Voigt Hill
#
# Bulk Modulus (GPa) = 63.53200 63.57995 63.55598
# Shear Modulus (GPa) = 20.73320 23.55388 22.14354
#
# Velocity S-wave (km/s) = 3.34966 3.57025 3.46172
# Velocity P-wave (km/s) = 7.02439 7.16961 7.09737
#
# Compressibility (1/GPa) = 0.01574010
#
# Stress axis : x y z
#
# Youngs Moduli (GPa) = 71.77210 71.77210 62.39208
#
# Poissons Ratio (x) = 0.20671 0.34929
# Poissons Ratio (y) = 0.20671 0.34929
# Poissons Ratio (z) = 0.40180 0.40180
#
# Static dielectric constant tensor:
#      x y z
#    x 3.654850 0.000000 0.000000 
#    y 0.000000 3.654850 0.000000 
#    z 0.000000 0.000000 3.005940 
# 
# 
# High freq. dielectric constant tensor:
#      x y z
#    x 1.730390 0.000000 0.000000 
#    y 0.000000 1.730390 0.000000 
#    z 0.000000 0.000000 1.674840 
# 
# From -- ./inp_files/7944.got.cif
#   From: 2010.03.12/outbox.ucp.g09.slc.cvg/sg138_4_cif.got.tgz:7944.got - 2010.05.04 20:31:02.
