data_PCOD8319232
_publ_section_title
;
Structure prediction by ZEFSAII (Michael W. Deem and Ramdas Pophale) SiO2 
 PCOD8319232
Probable space group: P 42/N C M
;
_chemical_formula_sum "Si O2"
_cell_formula_units_Z 80
_cell_length_a 10.794061
_cell_length_b 10.794061
_cell_length_c 33.351565
_cell_angle_alpha 90.000000
_cell_angle_beta 90.000000
_cell_angle_gamma 90.000000
_cell_volume 3885.849299
_symmetry_space_group_name_H-M "P 42/N C M"
_symmetry_group_IT_number 138
_space_group.IT_coordinate_system_code '2'
_symmetry_cell_setting 'tetragonal'
loop_
_space_group_symop_operation_xyz
x,y,z
1/2-y,x,1/2+z
1/2-x,1/2-y,z
y,1/2-x,1/2+z
1/2+x,-y,1/2-z
-x,1/2+y,1/2-z
1/2+y,1/2+x,-z
-y,-x,-z
-x,-y,-z
1/2+y,-x,1/2-z
1/2+x,1/2+y,-z
-y,1/2+x,1/2-z
1/2-x,y,1/2+z
x,1/2-y,1/2+z
1/2-y,1/2-x,z
y,x,z
loop_
_atom_site_type_symbol
_atom_site_label
_atom_site_fract_x
_atom_site_fract_y
_atom_site_fract_z
Si Si1 0.243073 0.451365 0.544840
Si Si2 0.243074 0.451306 0.455439
Si Si3 0.547382 0.750725 0.749849
Si Si4 0.105026 0.604807 0.899556
Si Si5 0.100746 0.603755 0.189547
O O1 0.112411 0.387590 0.556223
O O2 0.349686 0.349686 0.545242
O O3 0.235472 0.509544 0.500126
O O4 0.273077 0.556952 0.577300
O O5 0.112400 0.387601 0.444041
O O6 0.349677 0.349677 0.455022
O O7 0.273416 0.556336 0.422852
O O8 0.634407 0.865594 0.736434
O O9 0.630891 0.630891 0.760786
O O10 0.466092 0.785972 0.788610
O O11 0.449771 0.721994 0.714399
O O12 0.145469 0.644456 0.854652
O O13 0.998922 0.501079 0.898881
O O14 0.986679 0.513322 0.184201
#
# Coordination Sequence:
#
# PCOD8319232 Si02
#       5
#    16  16  16  16  16
#     4   8  13  20  30  47  75 113 153 191 235 283
#     4   8  13  20  30  47  75 113 153 191 235 283
#     4   9  18  33  50  68  94 123 154 199 248 298
#     4   9  15  22  34  53  77 107 152 202 234 275
#     4   9  18  30  45  66  88 120 164 201 248 304
#
# _framework density 20.587519
#
# number of rings (size 3 to 8) (size 9 to 14) (size 15 to 20)
#    0.000    3.400    0.000    1.800    0.000    4.400 
#    0.000    8.000    0.000    0.000    0.000    0.000 
#    0.000    0.000    0.000   14.400    0.000  118.400 
#
# Total GULP energy -991399.781466 kJ/mol
# GULP energy per Si atom -12392.497268 kJ/mol
# Density = 2.054066 g / cm^3
# Si number density = 20.587519 Si / 1000 Ang^3
#
#
#
# Elastic Constant Matrix: (Units=GPa)
#
#
# Indices 1 2 3 4 5 6 
#
# 1 54.2253 53.8397 64.3999 0.0000 0.0000 0.0000
# 2 53.8397 54.2253 64.3999 0.0000 0.0000 0.0000
# 3 64.3999 64.3999 193.5719 0.0000 0.0000 0.0000
# 4 0.0000 0.0000 0.0000 -8.8319 0.0000 0.0000
# 5 0.0000 0.0000 0.0000 0.0000 -8.8319 0.0000
# 6 0.0000 0.0000 0.0000 0.0000 0.0000 30.3236
#
#
#
# Elastic Compliance Matrix: (Units=1/GPa)
#
#
# Indices 1 2 3 4 5 6 
#
# 1 1.304204 -1.288870 -0.005102 0.000000 0.000000 0.000000
# 2 -1.288870 1.304204 -0.005102 0.000000 0.000000 0.000000
# 3 -0.005102 -0.005102 0.008561 0.000000 0.000000 0.000000
# 4 0.000000 0.000000 0.000000 -0.113226 0.000000 0.000000
# 5 0.000000 0.000000 0.000000 0.000000 -0.113226 0.000000
# 6 0.000000 0.000000 0.000000 0.000000 0.000000 0.032978
#
#
# Mechanical properties :
#
#
# Convention : Reuss Voigt Hill
#
# Bulk Modulus (GPa) = 53.12783 74.14461 63.63622
# Shear Modulus (GPa) = 0.99445 10.49083 5.74264
#
# Velocity S-wave (km/s) = 0.69576 2.25982 1.67196
# Velocity P-wave (km/s) = 5.14852 6.54993 5.89105
#
# Compressibility (1/GPa) = 0.01882253
#
# Stress axis : x y z
#
# Youngs Moduli (GPa) = 0.76675 0.76675 116.81538
#
# Poissons Ratio (x) = 0.98824 0.59594
# Poissons Ratio (y) = 0.98824 0.59594
# Poissons Ratio (z) = 0.00391 0.00391
#
# Static dielectric constant tensor:
#      x y z
#    x 3.561830 0.000000 0.000000 
#    y 0.000000 3.561830 0.000000 
#    z 0.000000 0.000000 4.024110 
# 
# 
# High freq. dielectric constant tensor:
#      x y z
#    x 1.785490 0.000000 0.000000 
#    y 0.000000 1.785490 0.000000 
#    z 0.000000 0.000000 1.796080 
# 
# From -- ./inp_files/7918.got.cif
#   From: 2010.03.12/outbox.cif.g09.slc.cpg/sg138_4_cif.got.tgz:7918.got - 2010.04.08 09:41:05.
