data_PCOD8319586
_publ_section_title
;
Structure prediction by ZEFSAII (Michael W. Deem and Ramdas Pophale) SiO2 
 PCOD8319586
Probable space group: I 4/M M M
;
_chemical_formula_sum "Si O2"
_cell_formula_units_Z 192
_cell_length_a 19.435655
_cell_length_b 19.435655
_cell_length_c 26.054799
_cell_angle_alpha 90.000000
_cell_angle_beta 90.000000
_cell_angle_gamma 90.000000
_cell_volume 9842.061848
_symmetry_space_group_name_H-M "I 4/M M M"
_symmetry_group_IT_number 139
_symmetry_cell_setting 'tetragonal'
loop_
_space_group_symop_operation_xyz
x,y,z
-y,x,z
-x,-y,z
y,-x,z
x,-y,-z
-x,y,-z
y,x,-z
-y,-x,-z
-x,-y,-z
y,-x,-z
x,y,-z
-y,x,-z
-x,y,z
x,-y,z
-y,-x,z
y,x,z
1/2+x,1/2+y,1/2+z
1/2-y,1/2+x,1/2+z
1/2-x,1/2-y,1/2+z
1/2+y,1/2-x,1/2+z
1/2+x,1/2-y,1/2-z
1/2-x,1/2+y,1/2-z
1/2+y,1/2+x,1/2-z
1/2-y,1/2-x,1/2-z
1/2-x,1/2-y,1/2-z
1/2+y,1/2-x,1/2-z
1/2+x,1/2+y,1/2-z
1/2-y,1/2+x,1/2-z
1/2-x,1/2+y,1/2+z
1/2+x,1/2-y,1/2+z
1/2-y,1/2-x,1/2+z
1/2+y,1/2+x,1/2+z
loop_
_atom_site_type_symbol
_atom_site_label
_atom_site_fract_x
_atom_site_fract_y
_atom_site_fract_z
Si Si1 0.421077 0.779619 0.349071
Si Si2 0.919918 0.806233 0.648885
Si Si3 0.746962 0.140692 0.745788
Si Si4 0.923161 0.421955 0.387439
Si Si5 0.713782 0.079437 0.444120
Si Si6 0.690971 0.420200 0.442412
O O1 0.500000 0.762457 0.345990
O O2 0.389929 0.737560 0.301609
O O3 0.408097 0.862348 0.346138
O O4 0.392661 0.749238 0.402924
O O5 0.876854 0.876854 0.653314
O O6 0.913558 0.758027 0.699682
O O7 0.889654 0.761792 0.601013
O O8 0.000000 0.825782 0.642233
O O9 0.797391 0.202610 0.732466
O O10 0.668994 0.168994 0.750000
O O11 0.915675 0.500000 0.409393
O O12 0.912310 0.367547 0.433013
O O13 0.000000 0.412165 0.362673
O O14 0.729116 0.113708 0.500000
O O15 0.733053 0.000000 0.447079
O O16 0.719204 0.406976 0.500000
O O17 0.673489 0.500000 0.433861
O O18 0.620596 0.379405 0.432592
#
# Coordination Sequence:
#
# PCOD8319586 Si02
#       6
#    32  32  32  32  32  32
#     4  10  19  32  52  75 102 136 170 207 253 303
#     4  10  21  37  57  81 110 144 184 230 277 327
#     4  10  20  34  53  76 102 134 174 217 262 318
#     4   9  18  32  51  77 106 137 176 217 259 316
#     4   9  18  33  53  76 103 136 173 218 274 330
#     4   9  18  32  50  74 104 137 173 212 253 298
#
# _framework density 19.508106999999999
#
# number of rings (size 3 to 8) (size 9 to 14) (size 15 to 20)
#    0.000    2.500    0.000    2.000    0.000    1.667 
#    0.000    5.833    0.000    1.000    0.000    9.333 
#    0.000    0.000    0.000    0.000    0.000    0.000 
#
# Total GULP energy -1189374.304041 kJ/mol
# GULP energy per Si atom -12389.315667 kJ/mol
# Density = 1.946371 g / cm^3
# Si number density = 19.508107 Si / 1000 Ang^3
#
#
#
# Elastic Constant Matrix: (Units=GPa)
#
#
# Indices 1 2 3 4 5 6 
#
# 1 72.0918 34.5097 42.5731 0.0000 0.0000 0.0000
# 2 34.5097 72.0918 42.5731 0.0000 0.0000 0.0000
# 3 42.5731 42.5731 145.0717 0.0000 0.0000 0.0000
# 4 0.0000 0.0000 0.0000 23.9053 0.0000 0.0000
# 5 0.0000 0.0000 0.0000 0.0000 23.9053 0.0000
# 6 0.0000 0.0000 0.0000 0.0000 0.0000 19.5145
#
#
#
# Elastic Compliance Matrix: (Units=1/GPa)
#
#
# Indices 1 2 3 4 5 6 
#
# 1 0.019431 -0.007178 -0.003596 0.000000 0.000000 0.000000
# 2 -0.007178 0.019431 -0.003596 0.000000 0.000000 0.000000
# 3 -0.003596 -0.003596 0.009004 0.000000 0.000000 0.000000
# 4 0.000000 0.000000 0.000000 0.041832 0.000000 0.000000
# 5 0.000000 0.000000 0.000000 0.000000 0.041832 0.000000
# 6 0.000000 0.000000 0.000000 0.000000 0.000000 0.051244
#
#
# Mechanical properties :
#
#
# Convention : Reuss Voigt Hill
#
# Bulk Modulus (GPa) = 52.28434 58.72965 55.50699
# Shear Modulus (GPa) = 22.94777 24.77164 23.85971
#
# Velocity S-wave (km/s) = 3.43347 3.56731 3.50103
# Velocity P-wave (km/s) = 6.52517 6.86573 6.69761
#
# Compressibility (1/GPa) = 0.01912619
#
# Stress axis : x y z
#
# Youngs Moduli (GPa) = 51.46523 51.46523 111.06712
#
# Poissons Ratio (x) = 0.36941 0.39937
# Poissons Ratio (y) = 0.36941 0.39937
# Poissons Ratio (z) = 0.18505 0.18505
#
# Static dielectric constant tensor:
#      x y z
#    x 3.501930 0.000000 0.000000 
#    y 0.000000 3.501930 0.000000 
#    z 0.000000 0.000000 3.955910 
# 
# 
# High freq. dielectric constant tensor:
#      x y z
#    x 1.749700 0.000000 0.000000 
#    y 0.000000 1.749700 0.000000 
#    z 0.000000 0.000000 1.754000 
# 
# From -- ./inp_files/11912.got.cif
#   From: 2010.03.12/outbox.cif.g09.slc.cpg/sg139_6_cif.got.tgz:11912.got - 2010.04.08 09:46:31.
