data_PCOD8319769
_publ_section_title
;
Structure prediction by ZEFSAII (Michael W. Deem and Ramdas Pophale) SiO2 
 PCOD8319769
Probable space group: I 4/M M M
;
_chemical_formula_sum "Si O2"
_cell_formula_units_Z 160
_cell_length_a 23.467657
_cell_length_b 23.467657
_cell_length_c 14.810579
_cell_angle_alpha 90.000000
_cell_angle_beta 90.000000
_cell_angle_gamma 90.000000
_cell_volume 8156.643873
_symmetry_space_group_name_H-M "I 4/M M M"
_symmetry_group_IT_number 139
_symmetry_cell_setting 'tetragonal'
loop_
_space_group_symop_operation_xyz
x,y,z
-y,x,z
-x,-y,z
y,-x,z
x,-y,-z
-x,y,-z
y,x,-z
-y,-x,-z
-x,-y,-z
y,-x,-z
x,y,-z
-y,x,-z
-x,y,z
x,-y,z
-y,-x,z
y,x,z
1/2+x,1/2+y,1/2+z
1/2-y,1/2+x,1/2+z
1/2-x,1/2-y,1/2+z
1/2+y,1/2-x,1/2+z
1/2+x,1/2-y,1/2-z
1/2-x,1/2+y,1/2-z
1/2+y,1/2+x,1/2-z
1/2-y,1/2-x,1/2-z
1/2-x,1/2-y,1/2-z
1/2+y,1/2-x,1/2-z
1/2+x,1/2+y,1/2-z
1/2-y,1/2+x,1/2-z
1/2-x,1/2+y,1/2+z
1/2+x,1/2-y,1/2+z
1/2-y,1/2-x,1/2+z
1/2+y,1/2+x,1/2+z
loop_
_atom_site_type_symbol
_atom_site_label
_atom_site_fract_x
_atom_site_fract_y
_atom_site_fract_z
Si Si1 0.638661 0.732170 0.894829
Si Si2 0.262733 0.435108 0.604592
Si Si3 0.935756 0.435831 0.356213
Si Si4 0.355842 0.163059 0.399543
Si Si5 0.934308 0.841492 0.732728
O O1 0.695288 0.695288 0.881187
O O2 0.652082 0.794807 0.852384
O O3 0.586471 0.705171 0.839737
O O4 0.620489 0.735390 0.000000
O O5 0.278190 0.422499 0.500000
O O6 0.240594 0.500000 0.615408
O O7 0.213508 0.393484 0.644245
O O8 0.318395 0.425206 0.665528
O O9 0.919968 0.500000 0.386004
O O10 0.928885 0.428885 0.250000
O O11 0.894797 0.391689 0.404705
O O12 0.000000 0.421687 0.386341
O O13 0.341603 0.183449 0.500000
O O14 0.900048 0.900048 0.721836
O O15 0.000000 0.854898 0.712818
#
# Coordination Sequence:
#
# PCOD8319769 Si02
#       5
#    32  32  32  32  32
#     4   9  20  38  56  79 112 142 173 219 271 322
#     4   9  19  35  54  80 114 148 184 227 270 313
#     4   9  19  33  47  68 102 143 183 224 267 306
#     4  10  20  33  53  79 104 140 187 225 263 317
#     4  10  22  39  60  84 108 140 177 218 275 333
#
# _framework density 19.615912000000002
#
# number of rings (size 3 to 8) (size 9 to 14) (size 15 to 20)
#    0.000    2.600    0.000    1.200    2.800    4.200 
#    0.000    7.000    0.000    0.000    0.000    5.600 
#    0.000    0.000    0.000    0.000    0.000    0.000 
#
# Total GULP energy -991800.566772 kJ/mol
# GULP energy per Si atom -12397.507085 kJ/mol
# Density = 1.957126 g / cm^3
# Si number density = 19.615912 Si / 1000 Ang^3
#
#
#
# Elastic Constant Matrix: (Units=GPa)
#
#
# Indices 1 2 3 4 5 6 
#
# 1 126.9156 65.5648 30.9335 0.0000 0.0000 0.0000
# 2 65.5648 126.9156 30.9335 0.0000 0.0000 0.0000
# 3 30.9335 30.9335 62.3823 0.0000 0.0000 0.0000
# 4 0.0000 0.0000 0.0000 25.4571 0.0000 0.0000
# 5 0.0000 0.0000 0.0000 0.0000 25.4571 0.0000
# 6 0.0000 0.0000 0.0000 0.0000 0.0000 21.1485
#
#
#
# Elastic Compliance Matrix: (Units=1/GPa)
#
#
# Indices 1 2 3 4 5 6 
#
# 1 0.011240 -0.005060 -0.003065 0.000000 0.000000 0.000000
# 2 -0.005060 0.011240 -0.003065 0.000000 0.000000 0.000000
# 3 -0.003065 -0.003065 0.019070 0.000000 0.000000 0.000000
# 4 0.000000 0.000000 0.000000 0.039282 0.000000 0.000000
# 5 0.000000 0.000000 0.000000 0.000000 0.039282 0.000000
# 6 0.000000 0.000000 0.000000 0.000000 0.000000 0.047285
#
#
# Mechanical properties :
#
#
# Convention : Reuss Voigt Hill
#
# Bulk Modulus (GPa) = 52.16039 63.45302 57.80671
# Shear Modulus (GPa) = 25.48859 26.99801 26.24330
#
# Velocity S-wave (km/s) = 3.60861 3.71392 3.66164
# Velocity P-wave (km/s) = 6.63410 7.12804 6.88550
#
# Compressibility (1/GPa) = 0.01917163
#
# Stress axis : x y z
#
# Youngs Moduli (GPa) = 88.96770 88.96770 52.43971
#
# Poissons Ratio (x) = 0.45015 0.16071
# Poissons Ratio (y) = 0.45015 0.16071
# Poissons Ratio (z) = 0.27266 0.27266
#
# Static dielectric constant tensor:
#      x y z
#    x 3.535100 0.000000 0.000000 
#    y 0.000000 3.535100 0.000000 
#    z 0.000000 0.000000 3.558810 
# 
# 
# High freq. dielectric constant tensor:
#      x y z
#    x 1.757890 0.000000 0.000000 
#    y 0.000000 1.757890 0.000000 
#    z 0.000000 0.000000 1.761200 
# 
# From -- ./inp_files/5882.got.cif
#   From: 2010.03.12/outbox.cif.g09.slc.cpg/sg139_3_cif.got.tgz:5882.got - 2010.04.08 09:46:31.
