data_PCOD8319008
_publ_section_title
;
Structure prediction by ZEFSAII (Michael W. Deem and Ramdas Pophale) SiO2 
 PCOD8319008
Probable space group: P 42/N C M
;
_chemical_formula_sum "Si O2"
_cell_formula_units_Z 96
_cell_length_a 15.323448
_cell_length_b 15.323448
_cell_length_c 18.579851
_cell_angle_alpha 90.000000
_cell_angle_beta 90.000000
_cell_angle_gamma 90.000000
_cell_volume 4362.698743
_symmetry_space_group_name_H-M "P 42/N C M"
_symmetry_group_IT_number 138
_space_group.IT_coordinate_system_code '2'
_symmetry_cell_setting 'tetragonal'
loop_
_space_group_symop_operation_xyz
x,y,z
1/2-y,x,1/2+z
1/2-x,1/2-y,z
y,1/2-x,1/2+z
1/2+x,-y,1/2-z
-x,1/2+y,1/2-z
1/2+y,1/2+x,-z
-y,-x,-z
-x,-y,-z
1/2+y,-x,1/2-z
1/2+x,1/2+y,-z
-y,1/2+x,1/2-z
1/2-x,y,1/2+z
x,1/2-y,1/2+z
1/2-y,1/2-x,z
y,x,z
loop_
_atom_site_type_symbol
_atom_site_label
_atom_site_fract_x
_atom_site_fract_y
_atom_site_fract_z
Si Si1 0.307271 0.666961 0.584900
Si Si2 0.991639 0.774021 0.862216
Si Si3 0.500081 0.863438 0.117743
Si Si4 0.911590 0.588411 0.548340
Si Si5 0.089737 0.225263 0.495443
Si Si6 0.390942 0.250085 0.774521
Si Si7 0.963796 0.536205 0.389142
O O1 0.250000 0.750000 0.611108
O O2 0.325541 0.674460 0.500000
O O3 0.249949 0.584736 0.605698
O O4 0.397174 0.651638 0.629988
O O5 0.961240 0.728355 0.788433
O O6 0.997004 0.877747 0.848364
O O7 0.919612 0.747266 0.920867
O O8 0.538700 0.961301 0.136820
O O9 0.519247 0.845763 0.032735
O O10 0.555725 0.790180 0.159441
O O11 0.809010 0.572262 0.554248
O O12 0.944886 0.555115 0.471811
O O13 0.961482 0.538519 0.613103
O O14 0.187241 0.187241 0.484369
O O15 0.320558 0.179443 0.745703
O O16 0.339393 0.339393 0.797047
#
# Coordination Sequence:
#
# PCOD8319008 Si02
#       7
#    16  16  16   8  16  16   8
#     4  11  25  44  71  98 136 181 227 284 347 413
#     4  11  21  41  66  96 129 172 228 282 338 408
#     4  10  23  43  63  95 136 175 225 279 338 411
#     4   9  19  30  52  88 131 157 199 257 340 398
#     4  10  20  34  60  94 127 164 217 279 333 400
#     4  10  22  43  69  98 138 179 221 281 349 408
#     4   9  20  34  58  92 126 164 208 278 326 398
#
# _framework density 22.004729000000001
#
# number of rings (size 3 to 8) (size 9 to 14) (size 15 to 20)
#    0.000    1.833    2.500    0.750    3.500    3.000 
#    3.000    0.000    0.000    0.000    0.000    0.000 
#    0.000    0.000    0.000    0.000    0.000    0.000 
#
# Total GULP energy -1189402.907097 kJ/mol
# GULP energy per Si atom -12389.613616 kJ/mol
# Density = 2.195465 g / cm^3
# Si number density = 22.004729 Si / 1000 Ang^3
#
#
#
# Elastic Constant Matrix: (Units=GPa)
#
#
# Indices 1 2 3 4 5 6 
#
# 1 138.2397 74.9717 19.9710 0.0000 0.0000 0.0000
# 2 74.9717 138.2396 19.9711 0.0000 0.0000 0.0000
# 3 19.9710 19.9711 45.1317 0.0000 0.0000 0.0000
# 4 0.0000 0.0000 0.0000 26.3465 0.0000 0.0000
# 5 0.0000 0.0000 0.0000 0.0000 26.3466 0.0000
# 6 0.0000 0.0000 0.0000 0.0000 0.0000 44.7881
#
#
#
# Elastic Compliance Matrix: (Units=1/GPa)
#
#
# Indices 1 2 3 4 5 6 
#
# 1 0.010460 -0.005346 -0.002263 0.000000 0.000000 0.000000
# 2 -0.005346 0.010460 -0.002263 0.000000 0.000000 0.000000
# 3 -0.002263 -0.002263 0.024160 0.000000 0.000000 0.000000
# 4 0.000000 0.000000 0.000000 0.037956 0.000000 0.000000
# 5 0.000000 0.000000 0.000000 0.000000 0.037956 0.000000
# 6 0.000000 0.000000 0.000000 0.000000 0.000000 0.022327
#
#
# Mechanical properties :
#
#
# Convention : Reuss Voigt Hill
#
# Bulk Modulus (GPa) = 39.46905 61.27095 50.37000
# Shear Modulus (GPa) = 29.15318 33.27607 31.21463
#
# Velocity S-wave (km/s) = 3.64381 3.89295 3.77044
# Velocity P-wave (km/s) = 5.97317 6.93626 6.47265
#
# Compressibility (1/GPa) = 0.02533631
#
# Stress axis : x y z
#
# Youngs Moduli (GPa) = 95.60279 95.60263 41.39042
#
# Poissons Ratio (x) = 0.51107 0.09367
# Poissons Ratio (y) = 0.51108 0.09367
# Poissons Ratio (z) = 0.21635 0.21635
#
# Static dielectric constant tensor:
#      x y z
#    x 4.064580 0.000000 0.000000 
#    y 0.000000 4.064580 0.000000 
#    z 0.000000 0.000000 3.658210 
# 
# 
# High freq. dielectric constant tensor:
#      x y z
#    x 1.863610 0.000000 0.000000 
#    y 0.000000 1.863610 0.000000 
#    z 0.000000 0.000000 1.843310 
# 
# From -- ./inp_files/6298.got.cif
#   From: 2010.03.12/outbox.cif.g09.slc.cpg/sg138_4_cif.got.tgz:6298.got - 2010.04.08 09:41:05.
