data_PCOD8319130
_publ_section_title
;
Structure prediction by ZEFSAII (Michael W. Deem and Ramdas Pophale) SiO2 
 PCOD8319130
Probable space group: P 42/N C M
;
_chemical_formula_sum "Si O2"
_cell_formula_units_Z 80
_cell_length_a 16.180195
_cell_length_b 16.180195
_cell_length_c 15.631632
_cell_angle_alpha 90.000000
_cell_angle_beta 90.000000
_cell_angle_gamma 90.000000
_cell_volume 4092.341097
_symmetry_space_group_name_H-M "P 42/N C M"
_symmetry_group_IT_number 138
_space_group.IT_coordinate_system_code '2'
_symmetry_cell_setting 'tetragonal'
loop_
_space_group_symop_operation_xyz
x,y,z
1/2-y,x,1/2+z
1/2-x,1/2-y,z
y,1/2-x,1/2+z
1/2+x,-y,1/2-z
-x,1/2+y,1/2-z
1/2+y,1/2+x,-z
-y,-x,-z
-x,-y,-z
1/2+y,-x,1/2-z
1/2+x,1/2+y,-z
-y,1/2+x,1/2-z
1/2-x,y,1/2+z
x,1/2-y,1/2+z
1/2-y,1/2-x,z
y,x,z
loop_
_atom_site_type_symbol
_atom_site_label
_atom_site_fract_x
_atom_site_fract_y
_atom_site_fract_z
Si Si1 0.688977 0.943949 0.540077
Si Si2 0.265564 0.997783 0.633958
Si Si3 0.562010 0.431032 0.881567
Si Si4 0.042429 0.177743 0.314458
Si Si5 0.408904 0.958835 0.191766
O O1 0.641823 0.858178 0.555916
O O2 0.733522 0.941446 0.447964
O O3 0.754341 0.957594 0.613379
O O4 0.623486 0.021309 0.542383
O O5 0.281529 0.048772 0.720583
O O6 0.338525 0.930941 0.618088
O O7 0.176593 0.953493 0.639275
O O8 0.525677 0.525677 0.884770
O O9 0.531688 0.389758 0.792593
O O10 0.121662 0.121662 0.327952
O O11 0.958348 0.125745 0.324329
O O12 0.462621 0.037380 0.159657
#
# Coordination Sequence:
#
# PCOD8319130 Si02
#       5
#    16  16  16  16  16
#     4  11  22  37  60  89 117 150 195 246 293 341
#     4  11  20  35  63  89 110 148 200 244 286 343
#     4   9  18  36  59  85 114 146 189 241 294 344
#     4  10  22  40  59  84 121 158 193 237 292 353
#     4   9  19  37  60  84 115 156 193 232 290 352
#
# _framework density 19.548714
#
# number of rings (size 3 to 8) (size 9 to 14) (size 15 to 20)
#    0.000    2.000    2.000    3.600    0.000    3.600 
#    0.000    3.000    0.000    9.000    0.000    0.000 
#    0.000    0.000    0.000    0.000    0.000    0.000 
#
# Total GULP energy -991881.646146 kJ/mol
# GULP energy per Si atom -12398.520577 kJ/mol
# Density = 1.950422 g / cm^3
# Si number density = 19.548714 Si / 1000 Ang^3
#
#
#
# Elastic Constant Matrix: (Units=GPa)
#
#
# Indices 1 2 3 4 5 6 
#
# 1 101.9435 35.8795 48.9722 0.0000 0.0000 0.0000
# 2 35.8795 101.9435 48.9722 0.0000 0.0000 0.0000
# 3 48.9722 48.9722 109.1071 0.0000 0.0000 0.0000
# 4 0.0000 0.0000 0.0000 19.0296 0.0000 0.0000
# 5 0.0000 0.0000 0.0000 0.0000 19.0296 0.0000
# 6 0.0000 0.0000 0.0000 0.0000 0.0000 11.2305
#
#
#
# Elastic Compliance Matrix: (Units=1/GPa)
#
#
# Indices 1 2 3 4 5 6 
#
# 1 0.012895 -0.002241 -0.004782 0.000000 0.000000 0.000000
# 2 -0.002241 0.012895 -0.004782 0.000000 0.000000 0.000000
# 3 -0.004782 -0.004782 0.013458 0.000000 0.000000 0.000000
# 4 0.000000 0.000000 0.000000 0.052550 0.000000 0.000000
# 5 0.000000 0.000000 0.000000 0.000000 0.052550 0.000000
# 6 0.000000 0.000000 0.000000 0.000000 0.000000 0.089043
#
#
# Mechanical properties :
#
#
# Convention : Reuss Voigt Hill
#
# Bulk Modulus (GPa) = 63.94641 64.51577 64.23109
# Shear Modulus (GPa) = 19.06834 21.80264 20.43549
#
# Velocity S-wave (km/s) = 3.12657 3.34323 3.23671
# Velocity P-wave (km/s) = 6.76877 6.92655 6.84812
#
# Compressibility (1/GPa) = 0.01563810
#
# Stress axis : x y z
#
# Youngs Moduli (GPa) = 77.54678 77.54678 74.30482
#
# Poissons Ratio (x) = 0.17381 0.35533
# Poissons Ratio (y) = 0.17381 0.35533
# Poissons Ratio (z) = 0.37083 0.37083
#
# Static dielectric constant tensor:
#      x y z
#    x 3.407480 0.000000 0.000000 
#    y 0.000000 3.407480 0.000000 
#    z 0.000000 0.000000 3.724450 
# 
# 
# High freq. dielectric constant tensor:
#      x y z
#    x 1.744580 0.000000 0.000000 
#    y 0.000000 1.744580 0.000000 
#    z 0.000000 0.000000 1.779520 
# 
# From -- ./inp_files/4091.got.cif
#   From: 2010.03.12/outbox.cif.g09.slc.cpg/sg138_3_cif.got.tgz:4091.got - 2010.04.08 09:41:05.
