data_PCOD8319886
_publ_section_title
;
Structure prediction by ZEFSAII (Michael W. Deem and Ramdas Pophale) SiO2 
 PCOD8319886
Probable space group: I 4/M M M
;
_chemical_formula_sum "Si O2"
_cell_formula_units_Z 120
_cell_length_a 17.927283
_cell_length_b 17.927283
_cell_length_c 20.522862
_cell_angle_alpha 90.000000
_cell_angle_beta 90.000000
_cell_angle_gamma 90.000000
_cell_volume 6595.790814
_symmetry_space_group_name_H-M "I 4/M M M"
_symmetry_group_IT_number 139
_symmetry_cell_setting 'tetragonal'
loop_
_space_group_symop_operation_xyz
x,y,z
-y,x,z
-x,-y,z
y,-x,z
x,-y,-z
-x,y,-z
y,x,-z
-y,-x,-z
-x,-y,-z
y,-x,-z
x,y,-z
-y,x,-z
-x,y,z
x,-y,z
-y,-x,z
y,x,z
1/2+x,1/2+y,1/2+z
1/2-y,1/2+x,1/2+z
1/2-x,1/2-y,1/2+z
1/2+y,1/2-x,1/2+z
1/2+x,1/2-y,1/2-z
1/2-x,1/2+y,1/2-z
1/2+y,1/2+x,1/2-z
1/2-y,1/2-x,1/2-z
1/2-x,1/2-y,1/2-z
1/2+y,1/2-x,1/2-z
1/2+x,1/2+y,1/2-z
1/2-y,1/2+x,1/2-z
1/2-x,1/2+y,1/2+z
1/2+x,1/2-y,1/2+z
1/2-y,1/2-x,1/2+z
1/2+y,1/2+x,1/2+z
loop_
_atom_site_type_symbol
_atom_site_label
_atom_site_fract_x
_atom_site_fract_y
_atom_site_fract_z
Si Si1 0.804110 0.411990 0.792604
Si Si2 0.087171 0.912830 0.000000
Si Si3 0.000000 0.581982 0.075963
Si Si4 0.653739 0.852612 0.573359
Si Si5 0.687457 0.687457 0.258667
Si Si6 0.318298 0.681703 0.407281
O O1 0.817871 0.500000 0.782318
O O2 0.866065 0.366065 0.750000
O O3 0.799380 0.391911 0.869721
O O4 0.720127 0.389153 0.771091
O O5 0.123866 0.876134 0.937033
O O6 0.000000 0.895506 0.000000
O O7 0.929769 0.630307 0.097003
O O8 0.000000 0.500000 0.110425
O O9 0.000000 0.568326 0.000000
O O10 0.670884 0.884791 0.500000
O O11 0.664168 0.764840 0.570145
O O12 0.750000 0.750000 0.250000
O O13 0.670375 0.670375 0.332240
#
# Coordination Sequence:
#
# PCOD8319886 Si02
#       6
#    32   8  16  32  16  16
#     4  11  23  38  60  86 121 159 199 254 309 368
#     4  11  28  44  60  92 128 158 218 281 314 358
#     4   9  20  34  50  76 116 152 185 237 293 362
#     4  11  21  35  56  84 114 152 198 241 301 368
#     4  10  20  41  58  84 119 154 209 246 286 369
#     4  12  21  36  66  84 113 162 206 252 308 368
#
# _framework density 18.193422000000002
#
# number of rings (size 3 to 8) (size 9 to 14) (size 15 to 20)
#    0.000    1.267    6.667    0.800    3.733    2.933 
#    0.000    0.000    0.000    0.400    0.000    0.000 
#    0.000    0.000    0.000    5.200    0.000    0.000 
#
# Total GULP energy -743378.738147 kJ/mol
# GULP energy per Si atom -12389.645636 kJ/mol
# Density = 1.815201 g / cm^3
# Si number density = 18.193422 Si / 1000 Ang^3
#
#
#
# Elastic Constant Matrix: (Units=GPa)
#
#
# Indices 1 2 3 4 5 6 
#
# 1 100.7341 68.2251 37.3944 0.0000 0.0000 0.0000
# 2 68.2251 100.7355 37.3946 0.0000 0.0000 0.0000
# 3 37.3944 37.3946 153.2973 0.0000 0.0000 0.0000
# 4 0.0000 0.0000 0.0000 19.1132 0.0000 0.0000
# 5 0.0000 0.0000 0.0000 0.0000 19.1115 0.0000
# 6 0.0000 0.0000 0.0000 0.0000 0.0000 15.6747
#
#
#
# Elastic Compliance Matrix: (Units=1/GPa)
#
#
# Indices 1 2 3 4 5 6 
#
# 1 0.018698 -0.012063 -0.001619 0.000000 0.000000 0.000000
# 2 -0.012063 0.018697 -0.001618 0.000000 0.000000 0.000000
# 3 -0.001619 -0.001618 0.007313 0.000000 0.000000 0.000000
# 4 0.000000 0.000000 0.000000 0.052320 0.000000 0.000000
# 5 0.000000 0.000000 0.000000 0.000000 0.052325 0.000000
# 6 0.000000 0.000000 0.000000 0.000000 0.000000 0.063797
#
#
# Mechanical properties :
#
#
# Convention : Reuss Voigt Hill
#
# Bulk Modulus (GPa) = 70.87750 71.19945 71.03847
# Shear Modulus (GPa) = 20.12468 24.89674 22.51071
#
# Velocity S-wave (km/s) = 3.32949 3.70327 3.52134
# Velocity P-wave (km/s) = 7.33642 7.58322 7.46084
#
# Compressibility (1/GPa) = 0.01410885
#
# Stress axis : x y z
#
# Youngs Moduli (GPa) = 53.48273 53.48349 136.74484
#
# Poissons Ratio (x) = 0.64515 0.22132
# Poissons Ratio (y) = 0.64514 0.22132
# Poissons Ratio (z) = 0.08656 0.08656
#
# Static dielectric constant tensor:
#      x y z
#    x 3.414200 0.000000 0.000000 
#    y 0.000000 3.414180 0.000000 
#    z 0.000000 0.000000 3.611690 
# 
# 
# High freq. dielectric constant tensor:
#      x y z
#    x 1.690560 0.000000 0.000000 
#    y 0.000000 1.690560 0.000000 
#    z 0.000000 0.000000 1.722670 
# 
# From -- ./inp_files/9870.got.cif
#   From: 2010.03.12/outbox.cif.g09.slc.cpg/sg139_5_cif.got.tgz:9870.got - 2010.04.08 09:46:31.
