data_PCOD8319603
_publ_section_title
;
Structure prediction by ZEFSAII (Michael W. Deem and Ramdas Pophale) SiO2 
 PCOD8319603
Probable space group: I 4/M M M
;
_chemical_formula_sum "Si O2"
_cell_formula_units_Z 144
_cell_length_a 22.440206
_cell_length_b 22.440206
_cell_length_c 16.905894
_cell_angle_alpha 90.000000
_cell_angle_beta 90.000000
_cell_angle_gamma 90.000000
_cell_volume 8513.180085
_symmetry_space_group_name_H-M "I 4/M M M"
_symmetry_group_IT_number 139
_symmetry_cell_setting 'tetragonal'
loop_
_space_group_symop_operation_xyz
x,y,z
-y,x,z
-x,-y,z
y,-x,z
x,-y,-z
-x,y,-z
y,x,-z
-y,-x,-z
-x,-y,-z
y,-x,-z
x,y,-z
-y,x,-z
-x,y,z
x,-y,z
-y,-x,z
y,x,z
1/2+x,1/2+y,1/2+z
1/2-y,1/2+x,1/2+z
1/2-x,1/2-y,1/2+z
1/2+y,1/2-x,1/2+z
1/2+x,1/2-y,1/2-z
1/2-x,1/2+y,1/2-z
1/2+y,1/2+x,1/2-z
1/2-y,1/2-x,1/2-z
1/2-x,1/2-y,1/2-z
1/2+y,1/2-x,1/2-z
1/2+x,1/2+y,1/2-z
1/2-y,1/2+x,1/2-z
1/2-x,1/2+y,1/2+z
1/2+x,1/2-y,1/2+z
1/2-y,1/2-x,1/2+z
1/2+y,1/2+x,1/2+z
loop_
_atom_site_type_symbol
_atom_site_label
_atom_site_fract_x
_atom_site_fract_y
_atom_site_fract_z
Si Si1 0.068568 0.833106 0.500000
Si Si2 0.430794 0.935039 0.336365
Si Si3 0.156689 0.748927 0.212480
Si Si4 0.857245 0.346984 0.089137
Si Si5 0.070823 0.748246 0.352027
O O1 0.107745 0.892256 0.500000
O O2 0.083283 0.795977 0.420960
O O3 0.000000 0.853022 0.500000
O O4 0.500000 0.944904 0.331410
O O5 0.409809 0.909809 0.250000
O O6 0.417646 0.885263 0.402776
O O7 0.401374 0.000000 0.355609
O O8 0.189795 0.810206 0.189613
O O9 0.203851 0.703851 0.250000
O O10 0.134931 0.716019 0.133103
O O11 0.101294 0.767479 0.269097
O O12 0.811320 0.394788 0.124782
O O13 0.841092 0.330951 0.000000
O O14 0.000000 0.737864 0.340722
#
# Coordination Sequence:
#
# PCOD8319603 Si02
#       5
#    16  32  32  32  32
#     4  10  20  33  52  78 103 127 153 187 239 301
#     4   9  18  32  48  65  90 128 170 209 248 290
#     4   9  19  34  49  67  92 127 168 205 247 293
#     4  11  21  31  45  70  98 127 164 209 250 292
#     4  10  19  33  52  73  96 125 161 203 249 292
#
# _framework density 16.914949
#
# number of rings (size 3 to 8) (size 9 to 14) (size 15 to 20)
#    0.000    2.222    1.111    4.000    0.000    5.889 
#    0.000    1.111    0.000    0.000    0.000    0.000 
#    0.000    0.000    0.000    0.000    0.000    0.000 
#
# Total GULP energy -892064.665355 kJ/mol
# GULP energy per Si atom -12389.787019 kJ/mol
# Density = 1.687645 g / cm^3
# Si number density = 16.914949 Si / 1000 Ang^3
#
#
#
# Elastic Constant Matrix: (Units=GPa)
#
#
# Indices 1 2 3 4 5 6 
#
# 1 69.9817 45.9787 49.5988 0.0000 0.0000 0.0000
# 2 45.9787 69.9796 49.5986 0.0000 0.0000 0.0000
# 3 49.5988 49.5986 94.8124 0.0000 0.0000 0.0000
# 4 0.0000 0.0000 0.0000 16.0028 0.0000 0.0000
# 5 0.0000 0.0000 0.0000 0.0000 16.0025 0.0000
# 6 0.0000 0.0000 0.0000 0.0000 0.0000 27.1655
#
#
#
# Elastic Compliance Matrix: (Units=1/GPa)
#
#
# Indices 1 2 3 4 5 6 
#
# 1 0.028635 -0.013027 -0.008165 0.000000 0.000000 0.000000
# 2 -0.013027 0.028637 -0.008166 0.000000 0.000000 0.000000
# 3 -0.008165 -0.008166 0.019090 0.000000 0.000000 0.000000
# 4 0.000000 0.000000 0.000000 0.062489 0.000000 0.000000
# 5 0.000000 0.000000 0.000000 0.000000 0.062490 0.000000
# 6 0.000000 0.000000 0.000000 0.000000 0.000000 0.036811
#
#
# Mechanical properties :
#
#
# Convention : Reuss Voigt Hill
#
# Bulk Modulus (GPa) = 56.66908 58.34731 57.50820
# Shear Modulus (GPa) = 16.51524 17.80733 17.16128
#
# Velocity S-wave (km/s) = 3.12808 3.24814 3.18868
# Velocity P-wave (km/s) = 6.82800 6.97400 6.90139
#
# Compressibility (1/GPa) = 0.01764631
#
# Stress axis : x y z
#
# Youngs Moduli (GPa) = 34.92178 34.92033 52.38320
#
# Poissons Ratio (x) = 0.45492 0.42771
# Poissons Ratio (y) = 0.45494 0.42774
# Poissons Ratio (z) = 0.28514 0.28514
#
# Static dielectric constant tensor:
#      x y z
#    x 3.133690 0.000000 0.000000 
#    y 0.000000 3.133690 0.000000 
#    z 0.000000 0.000000 3.502290 
# 
# 
# High freq. dielectric constant tensor:
#      x y z
#    x 1.637920 0.000000 0.000000 
#    y 0.000000 1.637920 0.000000 
#    z 0.000000 0.000000 1.643340 
# 
# From -- ./inp_files/8223.got.cif
#   From: 2010.03.12/outbox.cif.g09.slc.cpg/sg139_5_cif.got.tgz:8223.got - 2010.04.08 09:46:31.
