data_PCOD8319287
_publ_section_title
;
Structure prediction by ZEFSAII (Michael W. Deem and Ramdas Pophale) SiO2 
 PCOD8319287
Probable space group: I 4/M M M
;
_chemical_formula_sum "Si O2"
_cell_formula_units_Z 176
_cell_length_a 26.697101
_cell_length_b 26.697101
_cell_length_c 14.773164
_cell_angle_alpha 90.000000
_cell_angle_beta 90.000000
_cell_angle_gamma 90.000000
_cell_volume 10529.354025
_symmetry_space_group_name_H-M "I 4/M M M"
_symmetry_group_IT_number 139
_symmetry_cell_setting 'tetragonal'
loop_
_space_group_symop_operation_xyz
x,y,z
-y,x,z
-x,-y,z
y,-x,z
x,-y,-z
-x,y,-z
y,x,-z
-y,-x,-z
-x,-y,-z
y,-x,-z
x,y,-z
-y,x,-z
-x,y,z
x,-y,z
-y,-x,z
y,x,z
1/2+x,1/2+y,1/2+z
1/2-y,1/2+x,1/2+z
1/2-x,1/2-y,1/2+z
1/2+y,1/2-x,1/2+z
1/2+x,1/2-y,1/2-z
1/2-x,1/2+y,1/2-z
1/2+y,1/2+x,1/2-z
1/2-y,1/2-x,1/2-z
1/2-x,1/2-y,1/2-z
1/2+y,1/2-x,1/2-z
1/2+x,1/2+y,1/2-z
1/2-y,1/2+x,1/2-z
1/2-x,1/2+y,1/2+z
1/2+x,1/2-y,1/2+z
1/2-y,1/2-x,1/2+z
1/2+y,1/2+x,1/2+z
loop_
_atom_site_type_symbol
_atom_site_label
_atom_site_fract_x
_atom_site_fract_y
_atom_site_fract_z
Si Si1 0.205046 0.284968 0.351047
Si Si2 0.000000 0.557923 0.105874
Si Si3 0.377760 0.907505 0.154811
Si Si4 0.864437 0.215984 0.898328
Si Si5 0.696952 0.098434 0.597254
Si Si6 0.557742 0.773936 0.289723
O O1 0.230987 0.230987 0.347783
O O2 0.194698 0.305303 0.250000
O O3 0.238255 0.325435 0.403221
O O4 0.152231 0.276281 0.398470
O O5 0.048892 0.581914 0.148505
O O6 0.000000 0.500000 0.131341
O O7 0.000000 0.568189 0.000000
O O8 0.380503 0.880503 0.250000
O O9 0.391638 0.862925 0.086860
O O10 0.321517 0.929239 0.145804
O O11 0.834545 0.165456 0.868281
O O12 0.908372 0.227511 0.825451
O O13 0.886481 0.209305 0.000000
O O14 0.712518 0.073475 0.500000
O O15 0.713737 0.064958 0.682844
O O16 0.500000 0.759346 0.303876
#
# Coordination Sequence:
#
# PCOD8319287 Si02
#       6
#    32  16  32  32  32  32
#     4  10  17  29  50  76 105 133 164 204 250 304
#     4  11  24  36  48  66  82 108 158 218 271 313
#     4  10  21  35  49  65  89 123 163 213 261 308
#     4  10  20  34  53  78 105 131 161 204 258 315
#     4  11  21  34  51  69  98 134 170 211 254 300
#     4  11  22  37  52  74 101 133 172 210 262 313
#
# _framework density 16.715174999999999
#
# number of rings (size 3 to 8) (size 9 to 14) (size 15 to 20)
#    0.000    1.545    4.545    1.636    1.273    3.273 
#    0.000    0.000    0.000    0.000    0.000    0.000 
#    0.000    0.364    0.000    2.000    0.000    0.000 
#
# Total GULP energy -1090670.923738 kJ/mol
# GULP energy per Si atom -12393.987770 kJ/mol
# Density = 1.667713 g / cm^3
# Si number density = 16.715175 Si / 1000 Ang^3
#
#
#
# Elastic Constant Matrix: (Units=GPa)
#
#
# Indices 1 2 3 4 5 6 
#
# 1 70.3072 42.5399 23.2525 0.0000 0.0000 0.0000
# 2 42.5399 70.3070 23.2524 0.0000 0.0000 0.0000
# 3 23.2525 23.2524 85.3145 0.0000 0.0000 0.0000
# 4 0.0000 0.0000 0.0000 10.7984 0.0000 0.0000
# 5 0.0000 0.0000 0.0000 0.0000 10.7982 0.0000
# 6 0.0000 0.0000 0.0000 0.0000 0.0000 29.8775
#
#
#
# Elastic Compliance Matrix: (Units=1/GPa)
#
#
# Indices 1 2 3 4 5 6 
#
# 1 0.022998 -0.013015 -0.002721 0.000000 0.000000 0.000000
# 2 -0.013015 0.022998 -0.002721 0.000000 0.000000 0.000000
# 3 -0.002721 -0.002721 0.013204 0.000000 0.000000 0.000000
# 4 0.000000 0.000000 0.000000 0.092607 0.000000 0.000000
# 5 0.000000 0.000000 0.000000 0.000000 0.092608 0.000000
# 6 0.000000 0.000000 0.000000 0.000000 0.000000 0.033470
#
#
# Mechanical properties :
#
#
# Convention : Reuss Voigt Hill
#
# Bulk Modulus (GPa) = 44.86954 44.89091 44.88023
# Shear Modulus (GPa) = 15.51692 19.42041 17.46867
#
# Velocity S-wave (km/s) = 3.05013 3.41228 3.23627
# Velocity P-wave (km/s) = 6.26947 6.51456 6.39319
#
# Compressibility (1/GPa) = 0.02228683
#
# Stress axis : x y z
#
# Youngs Moduli (GPa) = 43.48155 43.48145 75.73204
#
# Poissons Ratio (x) = 0.56593 0.20605
# Poissons Ratio (y) = 0.56593 0.20605
# Poissons Ratio (z) = 0.11831 0.11830
#
# Static dielectric constant tensor:
#      x y z
#    x 2.957750 0.000000 0.000000 
#    y 0.000000 2.957750 0.000000 
#    z 0.000000 0.000000 3.312070 
# 
# 
# High freq. dielectric constant tensor:
#      x y z
#    x 1.613990 0.000000 0.000000 
#    y 0.000000 1.613990 0.000000 
#    z 0.000000 0.000000 1.656780 
# 
# From -- ./inp_files/6417.got.cif
#   From: 2010.03.12/outbox.cif.g09.slc.cpg/sg139_4_cif.got.tgz:6417.got - 2010.04.08 09:46:31.
