data_PCOD8319965
_publ_section_title
;
Structure prediction by ZEFSAII (Michael W. Deem and Ramdas Pophale) SiO2 
 PCOD8319965
Probable space group: I 4/M M M
;
_chemical_formula_sum "Si O2"
_cell_formula_units_Z 240
_cell_length_a 31.518382
_cell_length_b 31.518382
_cell_length_c 13.961351
_cell_angle_alpha 90.000000
_cell_angle_beta 90.000000
_cell_angle_gamma 90.000000
_cell_volume 13869.323413
_symmetry_space_group_name_H-M "I 4/M M M"
_symmetry_group_IT_number 139
_symmetry_cell_setting 'tetragonal'
loop_
_space_group_symop_operation_xyz
x,y,z
-y,x,z
-x,-y,z
y,-x,z
x,-y,-z
-x,y,-z
y,x,-z
-y,-x,-z
-x,-y,-z
y,-x,-z
x,y,-z
-y,x,-z
-x,y,z
x,-y,z
-y,-x,z
y,x,z
1/2+x,1/2+y,1/2+z
1/2-y,1/2+x,1/2+z
1/2-x,1/2-y,1/2+z
1/2+y,1/2-x,1/2+z
1/2+x,1/2-y,1/2-z
1/2-x,1/2+y,1/2-z
1/2+y,1/2+x,1/2-z
1/2-y,1/2-x,1/2-z
1/2-x,1/2-y,1/2-z
1/2+y,1/2-x,1/2-z
1/2+x,1/2+y,1/2-z
1/2-y,1/2+x,1/2-z
1/2-x,1/2+y,1/2+z
1/2+x,1/2-y,1/2+z
1/2-y,1/2-x,1/2+z
1/2+y,1/2+x,1/2+z
loop_
_atom_site_type_symbol
_atom_site_label
_atom_site_fract_x
_atom_site_fract_y
_atom_site_fract_z
Si Si1 0.550208 0.949886 0.000000
Si Si2 0.888396 0.953934 0.886280
Si Si3 0.048153 0.792402 0.887818
Si Si4 0.821249 0.652802 0.394515
Si Si5 0.746809 0.322317 0.109134
Si Si6 0.612221 0.089188 0.355065
Si Si7 0.108759 0.741504 0.751710
Si Si8 0.048143 0.695421 0.391482
O O1 0.574351 0.929788 0.090172
O O2 0.500000 0.939596 0.000000
O O3 0.558277 0.000000 0.000000
O O4 0.918269 0.918269 0.838976
O O5 0.840539 0.947217 0.852869
O O6 0.904756 0.000000 0.851919
O O7 0.890158 0.951485 0.000000
O O8 0.084164 0.768867 0.829217
O O9 0.000000 0.776114 0.866983
O O10 0.058103 0.787096 0.000000
O O11 0.801881 0.642625 0.500000
O O12 0.817122 0.702925 0.375988
O O13 0.869422 0.636232 0.395873
O O14 0.797105 0.629811 0.308966
O O15 0.721876 0.278125 0.128466
O O16 0.731897 0.356504 0.189817
O O17 0.737381 0.337824 0.000000
O O18 0.596461 0.096461 0.250000
O O19 0.646216 0.051358 0.361441
O O20 0.075727 0.724541 0.675803
O O21 0.064145 0.701558 0.500000
O O22 0.000000 0.710153 0.380121
#
# Coordination Sequence:
#
# PCOD8319965 Si02
#       8
#    16  32  32  32  32  32  32  32
#     4  11  26  44  60  82 113 144 176 222 281 344
#     4   8  14  26  45  68  97 135 175 213 253 295
#     4   9  19  35  50  70 108 150 180 215 267 319
#     4  11  21  37  57  79 108 138 173 218 272 323
#     4  10  22  39  57  78 108 142 174 218 278 332
#     4  12  21  39  61  82 104 138 176 218 269 330
#     4  12  21  34  55  82 104 134 179 226 260 313
#     4  11  22  36  57  81 102 131 172 219 269 318
#
# _framework density 17.304376000000001
#
# number of rings (size 3 to 8) (size 9 to 14) (size 15 to 20)
#    0.000    1.533    4.000    2.800    0.000    2.800 
#    0.000    1.333    0.000    4.000    0.000    0.000 
#    0.000    0.000    0.000    0.000    0.000    0.400 
#
# Total GULP energy -1487310.540535 kJ/mol
# GULP energy per Si atom -12394.254504 kJ/mol
# Density = 1.726499 g / cm^3
# Si number density = 17.304376 Si / 1000 Ang^3
#
#
#
# Elastic Constant Matrix: (Units=GPa)
#
#
# Indices 1 2 3 4 5 6 
#
# 1 92.7444 57.7645 39.2107 0.0000 0.0000 0.0000
# 2 57.7645 92.7444 39.2107 0.0000 0.0000 0.0000
# 3 39.2107 39.2107 98.1747 0.0000 0.0000 0.0000
# 4 0.0000 0.0000 0.0000 15.9859 0.0000 0.0000
# 5 0.0000 0.0000 0.0000 0.0000 15.9859 0.0000
# 6 0.0000 0.0000 0.0000 0.0000 0.0000 34.0882
#
#
#
# Elastic Compliance Matrix: (Units=1/GPa)
#
#
# Indices 1 2 3 4 5 6 
#
# 1 0.018489 -0.010099 -0.003351 0.000000 0.000000 0.000000
# 2 -0.010099 0.018489 -0.003351 0.000000 0.000000 0.000000
# 3 -0.003351 -0.003351 0.012863 0.000000 0.000000 0.000000
# 4 0.000000 0.000000 0.000000 0.062555 0.000000 0.000000
# 5 0.000000 0.000000 0.000000 0.000000 0.062555 0.000000
# 6 0.000000 0.000000 0.000000 0.000000 0.000000 0.029336
#
#
# Mechanical properties :
#
#
# Convention : Reuss Voigt Hill
#
# Bulk Modulus (GPa) = 61.58027 61.78168 61.68098
# Shear Modulus (GPa) = 20.55065 23.04384 21.79724
#
# Velocity S-wave (km/s) = 3.44989 3.65317 3.55299
# Velocity P-wave (km/s) = 7.17864 7.31947 7.24940
#
# Compressibility (1/GPa) = 0.01623897
#
# Stress axis : x y z
#
# Youngs Moduli (GPa) = 54.08633 54.08633 77.74430
#
# Poissons Ratio (x) = 0.54621 0.26052
# Poissons Ratio (y) = 0.54621 0.26052
# Poissons Ratio (z) = 0.18124 0.18124
#
# Static dielectric constant tensor:
#      x y z
#    x 3.270480 0.000000 0.000000 
#    y 0.000000 3.270480 0.000000 
#    z 0.000000 0.000000 3.311300 
# 
# 
# High freq. dielectric constant tensor:
#      x y z
#    x 1.663180 0.000000 0.000000 
#    y 0.000000 1.663180 0.000000 
#    z 0.000000 0.000000 1.667760 
# 
# From -- ./inp_files/6821.got.cif
#   From: 2010.03.12/outbox.cif.g09.slc.cpg/sg139_4_cif.got.tgz:6821.got - 2010.04.08 09:46:31.
