data_PCOD8319754
_publ_section_title
;
Structure prediction by ZEFSAII (Michael W. Deem and Ramdas Pophale) SiO2 
 PCOD8319754
Probable space group: I 4/M M M
;
_chemical_formula_sum "Si O2"
_cell_formula_units_Z 160
_cell_length_a 23.432459
_cell_length_b 23.432459
_cell_length_c 14.769626
_cell_angle_alpha 90.000000
_cell_angle_beta 90.000000
_cell_angle_gamma 90.000000
_cell_volume 8109.708235
_symmetry_space_group_name_H-M "I 4/M M M"
_symmetry_group_IT_number 139
_symmetry_cell_setting 'tetragonal'
loop_
_space_group_symop_operation_xyz
x,y,z
-y,x,z
-x,-y,z
y,-x,z
x,-y,-z
-x,y,-z
y,x,-z
-y,-x,-z
-x,-y,-z
y,-x,-z
x,y,-z
-y,x,-z
-x,y,z
x,-y,z
-y,-x,z
y,x,z
1/2+x,1/2+y,1/2+z
1/2-y,1/2+x,1/2+z
1/2-x,1/2-y,1/2+z
1/2+y,1/2-x,1/2+z
1/2+x,1/2-y,1/2-z
1/2-x,1/2+y,1/2-z
1/2+y,1/2+x,1/2-z
1/2-y,1/2-x,1/2-z
1/2-x,1/2-y,1/2-z
1/2+y,1/2-x,1/2-z
1/2+x,1/2+y,1/2-z
1/2-y,1/2+x,1/2-z
1/2-x,1/2+y,1/2+z
1/2+x,1/2-y,1/2+z
1/2-y,1/2-x,1/2+z
1/2+y,1/2+x,1/2+z
loop_
_atom_site_type_symbol
_atom_site_label
_atom_site_fract_x
_atom_site_fract_y
_atom_site_fract_z
Si Si1 0.324171 0.936488 0.393086
Si Si2 0.619446 0.291010 0.103923
Si Si3 0.933239 0.748262 0.099825
Si Si4 0.378846 0.063231 0.108241
Si Si5 0.565803 0.344592 0.731832
O O1 0.330899 0.939359 0.500000
O O2 0.275422 0.889743 0.367827
O O3 0.385998 0.918506 0.352144
O O4 0.308429 0.000000 0.355457
O O5 0.684794 0.315207 0.118184
O O6 0.576578 0.328748 0.163608
O O7 0.600691 0.299276 0.000000
O O8 0.922671 0.685354 0.141019
O O9 0.907768 0.794359 0.169206
O O10 0.000000 0.758780 0.089853
O O11 0.904699 0.754926 0.000000
O O12 0.398474 0.000000 0.142817
O O13 0.379007 0.062662 0.000000
O O14 0.500000 0.355176 0.713829
O O15 0.597263 0.402738 0.705282
#
# Coordination Sequence:
#
# PCOD8319754 Si02
#       5
#    32  32  32  32  32
#     4   9  16  26  44  71 101 133 167 203 247 297
#     4   9  18  33  51  70  95 128 166 206 243 283
#     4   8  15  30  50  69  92 125 164 200 232 277
#     4   8  14  26  45  69  98 132 167 203 244 288
#     4  10  20  33  51  74  97 124 159 199 249 304
#
# _framework density 19.729438999999999
#
# number of rings (size 3 to 8) (size 9 to 14) (size 15 to 20)
#    0.000    3.200    0.000    1.800    0.000    2.200 
#    0.000    4.000    0.000    6.000    0.000    5.600 
#    0.000    4.800    0.000    0.400    0.000    0.000 
#
# Total GULP energy -991129.115477 kJ/mol
# GULP energy per Si atom -12389.113943 kJ/mol
# Density = 1.968453 g / cm^3
# Si number density = 19.729439 Si / 1000 Ang^3
#
#
#
# Elastic Constant Matrix: (Units=GPa)
#
#
# Indices 1 2 3 4 5 6 
#
# 1 130.6405 82.6090 20.5766 0.0000 0.0000 0.0000
# 2 82.6090 130.6405 20.5766 0.0000 0.0000 0.0000
# 3 20.5766 20.5766 31.5710 0.0000 0.0000 0.0000
# 4 0.0000 0.0000 0.0000 17.0173 0.0000 0.0000
# 5 0.0000 0.0000 0.0000 0.0000 17.0173 0.0000
# 6 0.0000 0.0000 0.0000 0.0000 0.0000 34.0848
#
#
#
# Elastic Compliance Matrix: (Units=1/GPa)
#
#
# Indices 1 2 3 4 5 6 
#
# 1 0.013092 -0.007728 -0.003496 0.000000 0.000000 0.000000
# 2 -0.007728 0.013092 -0.003496 0.000000 0.000000 0.000000
# 3 -0.003496 -0.003496 0.036232 0.000000 0.000000 0.000000
# 4 0.000000 0.000000 0.000000 0.058764 0.000000 0.000000
# 5 0.000000 0.000000 0.000000 0.000000 0.058764 0.000000
# 6 0.000000 0.000000 0.000000 0.000000 0.000000 0.029339
#
#
# Mechanical properties :
#
#
# Convention : Reuss Voigt Hill
#
# Bulk Modulus (GPa) = 30.32539 60.04179 45.18359
# Shear Modulus (GPa) = 20.02298 24.89654 22.45976
#
# Velocity S-wave (km/s) = 3.18917 3.55617 3.37766
# Velocity P-wave (km/s) = 5.38192 6.88190 6.17760
#
# Compressibility (1/GPa) = 0.03297567
#
# Stress axis : x y z
#
# Youngs Moduli (GPa) = 76.38344 76.38344 27.60011
#
# Poissons Ratio (x) = 0.59028 0.09649
# Poissons Ratio (y) = 0.59028 0.09649
# Poissons Ratio (z) = 0.26704 0.26704
#
# Static dielectric constant tensor:
#      x y z
#    x 3.668680 0.000000 0.000000 
#    y 0.000000 3.668680 0.000000 
#    z 0.000000 0.000000 3.616440 
# 
# 
# High freq. dielectric constant tensor:
#      x y z
#    x 1.750990 0.000000 0.000000 
#    y 0.000000 1.750990 0.000000 
#    z 0.000000 0.000000 1.758540 
# 
# From -- ./inp_files/5927.got.cif
#   From: 2010.03.12/outbox.cif.g09.slc.cpg/sg139_3_cif.got.tgz:5927.got - 2010.04.08 09:46:31.
