data_PCOD8319222
_publ_section_title
;
Structure prediction by ZEFSAII (Michael W. Deem and Ramdas Pophale) SiO2 
 PCOD8319222
Probable space group: P 42/N C M
;
_chemical_formula_sum "Si O2"
_cell_formula_units_Z 48
_cell_length_a 15.461908
_cell_length_b 15.461908
_cell_length_c 9.630683
_cell_angle_alpha 90.000000
_cell_angle_beta 90.000000
_cell_angle_gamma 90.000000
_cell_volume 2302.413154
_symmetry_space_group_name_H-M "P 42/N C M"
_symmetry_group_IT_number 138
_space_group.IT_coordinate_system_code '2'
_symmetry_cell_setting 'tetragonal'
loop_
_space_group_symop_operation_xyz
x,y,z
1/2-y,x,1/2+z
1/2-x,1/2-y,z
y,1/2-x,1/2+z
1/2+x,-y,1/2-z
-x,1/2+y,1/2-z
1/2+y,1/2+x,-z
-y,-x,-z
-x,-y,-z
1/2+y,-x,1/2-z
1/2+x,1/2+y,-z
-y,1/2+x,1/2-z
1/2-x,y,1/2+z
x,1/2-y,1/2+z
1/2-y,1/2-x,z
y,x,z
loop_
_atom_site_type_symbol
_atom_site_label
_atom_site_fract_x
_atom_site_fract_y
_atom_site_fract_z
Si Si1 0.225577 0.029522 0.235786
Si Si2 0.315127 0.315127 0.846520
Si Si3 0.569790 0.930211 0.445870
Si Si4 0.142260 0.499930 0.016303
O O1 0.254030 0.128978 0.246287
O O2 0.137462 0.018354 0.149474
O O3 0.304550 0.981652 0.157418
O O4 0.211020 0.994068 0.390743
O O5 0.250000 0.250000 0.931692
O O6 0.377437 0.377437 0.936839
O O7 0.500000 0.000000 0.500000
O O8 0.092795 0.407206 0.017346
O O9 0.075227 0.575227 0.000000
#
# Coordination Sequence:
#
# PCOD8319222 Si02
#       4
#    16   8   8  16
#     4  12  24  41  67 102 138 182 227 290 353 419
#     4  12  24  39  67 107 143 170 231 298 359 413
#     4  12  28  41  65 104 145 188 228 285 365 440
#     4  11  25  43  68 100 141 186 232 285 360 437
#
# _framework density 20.847691000000001
#
# number of rings (size 3 to 8) (size 9 to 14) (size 15 to 20)
#    0.000    0.333    8.333    0.000    7.000    0.000 
#    0.000    0.000    0.000    8.000    0.000    0.000 
#    0.000    0.000    0.000    0.000    0.000    0.000 
#
# Total GULP energy -594860.097503 kJ/mol
# GULP energy per Si atom -12392.918698 kJ/mol
# Density = 2.080024 g / cm^3
# Si number density = 20.847691 Si / 1000 Ang^3
#
#
#
# Elastic Constant Matrix: (Units=GPa)
#
#
# Indices 1 2 3 4 5 6 
#
# 1 102.0571 32.1278 42.8691 0.0000 0.0000 0.0000
# 2 32.1278 102.0571 42.8691 0.0000 0.0000 0.0000
# 3 42.8691 42.8691 100.2321 0.0000 0.0000 0.0000
# 4 0.0000 0.0000 0.0000 33.8865 0.0000 0.0000
# 5 0.0000 0.0000 0.0000 0.0000 33.8865 0.0000
# 6 0.0000 0.0000 0.0000 0.0000 0.0000 47.9526
#
#
#
# Elastic Compliance Matrix: (Units=1/GPa)
#
#
# Indices 1 2 3 4 5 6 
#
# 1 0.012278 -0.002023 -0.004386 0.000000 0.000000 0.000000
# 2 -0.002023 0.012278 -0.004386 0.000000 0.000000 0.000000
# 3 -0.004386 -0.004386 0.013729 0.000000 0.000000 0.000000
# 4 0.000000 0.000000 0.000000 0.029510 0.000000 0.000000
# 5 0.000000 0.000000 0.000000 0.000000 0.029510 0.000000
# 6 0.000000 0.000000 0.000000 0.000000 0.000000 0.020854
#
#
# Mechanical properties :
#
#
# Convention : Reuss Voigt Hill
#
# Bulk Modulus (GPa) = 59.90045 60.00872 59.95458
# Shear Modulus (GPa) = 34.40867 35.57712 34.99289
#
# Velocity S-wave (km/s) = 4.06702 4.13549 4.10140
# Velocity P-wave (km/s) = 7.13084 7.18679 7.15887
#
# Compressibility (1/GPa) = 0.01669437
#
# Stress axis : x y z
#
# Youngs Moduli (GPa) = 81.44974 81.44974 72.84058
#
# Poissons Ratio (x) = 0.16474 0.31948
# Poissons Ratio (y) = 0.16474 0.31948
# Poissons Ratio (z) = 0.35724 0.35724
#
# Static dielectric constant tensor:
#      x y z
#    x 3.865730 0.000000 0.000000 
#    y 0.000000 3.865730 0.000000 
#    z 0.000000 0.000000 3.945910 
# 
# 
# High freq. dielectric constant tensor:
#      x y z
#    x 1.802140 0.000000 0.000000 
#    y 0.000000 1.802140 0.000000 
#    z 0.000000 0.000000 1.827170 
# 
# From -- ./inp_files/2439.got.cif
#   From: 2010.03.12/outbox.cif.g09.slc.cpg/sg138_2_cif.got.tgz:2439.got - 2010.04.08 09:41:05.
