data_PCOD8319729
_publ_section_title
;
Structure prediction by ZEFSAII (Michael W. Deem and Ramdas Pophale) SiO2 
 PCOD8319729
Probable space group: I 4/M M M
;
_chemical_formula_sum "Si O2"
_cell_formula_units_Z 176
_cell_length_a 19.144590
_cell_length_b 19.144590
_cell_length_c 27.464947
_cell_angle_alpha 90.000000
_cell_angle_beta 90.000000
_cell_angle_gamma 90.000000
_cell_volume 10066.324011
_symmetry_space_group_name_H-M "I 4/M M M"
_symmetry_group_IT_number 139
_symmetry_cell_setting 'tetragonal'
loop_
_space_group_symop_operation_xyz
x,y,z
-y,x,z
-x,-y,z
y,-x,z
x,-y,-z
-x,y,-z
y,x,-z
-y,-x,-z
-x,-y,-z
y,-x,-z
x,y,-z
-y,x,-z
-x,y,z
x,-y,z
-y,-x,z
y,x,z
1/2+x,1/2+y,1/2+z
1/2-y,1/2+x,1/2+z
1/2-x,1/2-y,1/2+z
1/2+y,1/2-x,1/2+z
1/2+x,1/2-y,1/2-z
1/2-x,1/2+y,1/2-z
1/2+y,1/2+x,1/2-z
1/2-y,1/2-x,1/2-z
1/2-x,1/2-y,1/2-z
1/2+y,1/2-x,1/2-z
1/2+x,1/2+y,1/2-z
1/2-y,1/2+x,1/2-z
1/2-x,1/2+y,1/2+z
1/2+x,1/2-y,1/2+z
1/2-y,1/2-x,1/2+z
1/2+y,1/2+x,1/2+z
loop_
_atom_site_type_symbol
_atom_site_label
_atom_site_fract_x
_atom_site_fract_y
_atom_site_fract_z
Si Si1 0.292715 0.918508 0.090250
Si Si2 0.919776 0.804702 0.610285
Si Si3 0.333727 0.920153 0.556914
Si Si4 0.578819 0.689984 0.216075
Si Si5 0.582117 0.696648 0.500000
Si Si6 0.918161 0.197246 0.178320
O O1 0.368101 0.882904 0.086579
O O2 0.241402 0.895739 0.046896
O O3 0.257289 0.895305 0.140845
O O4 0.307503 0.000000 0.088031
O O5 0.870624 0.870624 0.599511
O O6 0.903250 0.746052 0.570554
O O7 0.905417 0.770835 0.664683
O O8 0.000000 0.829874 0.606092
O O9 0.344281 0.907518 0.500000
O O10 0.352602 0.000000 0.571324
O O11 0.500000 0.666925 0.218371
O O12 0.616845 0.616845 0.214908
O O13 0.596946 0.729356 0.267142
O O14 0.500000 0.678286 0.500000
O O15 0.624060 0.624060 0.500000
O O16 0.872630 0.127371 0.169213
O O17 0.000000 0.178049 0.170589
#
# Coordination Sequence:
#
# PCOD8319729 Si02
#       6
#    32  32  32  32  16  32
#     4  10  20  35  52  73  98 125 161 205 251 296
#     4   9  18  32  50  74 103 132 164 200 240 292
#     4  10  21  37  55  75  96 120 158 208 259 307
#     4   8  14  26  44  67  97 132 166 201 239 278
#     4  10  20  33  49  71 101 135 168 200 234 278
#     4   9  17  29  47  72 103 137 171 204 237 280
#
# _framework density 17.484038999999999
#
# number of rings (size 3 to 8) (size 9 to 14) (size 15 to 20)
#    0.000    2.727    0.909    0.545    0.000    2.818 
#    0.000    5.455    0.000    6.545    0.000    2.545 
#    0.000    7.273    0.000    0.000    0.000    0.000 
#
# Total GULP energy -1090264.482321 kJ/mol
# GULP energy per Si atom -12389.369117 kJ/mol
# Density = 1.744424 g / cm^3
# Si number density = 17.484039 Si / 1000 Ang^3
#
#
#
# Elastic Constant Matrix: (Units=GPa)
#
#
# Indices 1 2 3 4 5 6 
#
# 1 66.0575 44.1946 14.9924 0.0000 0.0000 0.0000
# 2 44.1946 66.0575 14.9924 0.0000 0.0000 0.0000
# 3 14.9924 14.9924 24.5928 0.0000 0.0000 0.0000
# 4 0.0000 0.0000 0.0000 21.8292 0.0000 0.0000
# 5 0.0000 0.0000 0.0000 0.0000 21.8292 0.0000
# 6 0.0000 0.0000 0.0000 0.0000 0.0000 31.8265
#
#
#
# Elastic Compliance Matrix: (Units=1/GPa)
#
#
# Indices 1 2 3 4 5 6 
#
# 1 0.028306 -0.017433 -0.006628 0.000000 0.000000 0.000000
# 2 -0.017433 0.028306 -0.006628 0.000000 0.000000 0.000000
# 3 -0.006628 -0.006628 0.048744 0.000000 0.000000 0.000000
# 4 0.000000 0.000000 0.000000 0.045810 0.000000 0.000000
# 5 0.000000 0.000000 0.000000 0.000000 0.045810 0.000000
# 6 0.000000 0.000000 0.000000 0.000000 0.000000 0.031420
#
#
# Mechanical properties :
#
#
# Convention : Reuss Voigt Hill
#
# Bulk Modulus (GPa) = 22.73957 33.89629 28.31793
# Shear Modulus (GPa) = 16.42380 20.59885 18.51133
#
# Velocity S-wave (km/s) = 3.06822 3.43615 3.25738
# Velocity P-wave (km/s) = 5.05827 5.93059 5.51171
#
# Compressibility (1/GPa) = 0.04397621
#
# Stress axis : x y z
#
# Youngs Moduli (GPa) = 35.32799 35.32799 20.51533
#
# Poissons Ratio (x) = 0.61589 0.13598
# Poissons Ratio (y) = 0.61589 0.13598
# Poissons Ratio (z) = 0.23417 0.23417
#
# Static dielectric constant tensor:
#      x y z
#    x 3.056340 0.000000 0.000000 
#    y 0.000000 3.056340 0.000000 
#    z 0.000000 0.000000 3.790150 
# 
# 
# High freq. dielectric constant tensor:
#      x y z
#    x 1.657100 0.000000 0.000000 
#    y 0.000000 1.657100 0.000000 
#    z 0.000000 0.000000 1.695420 
# 
# From -- ./inp_files/13083.got.cif
#   From: 2010.03.12/outbox.cif.g09.slc.cpg/sg139_7_cif.got.tgz:13083.got - 2010.04.08 09:46:31.
