data_PCOD8319827
_publ_section_title
;
Structure prediction by ZEFSAII (Michael W. Deem and Ramdas Pophale) SiO2 
 PCOD8319827
Probable space group: I 4/M M M
;
_chemical_formula_sum "Si O2"
_cell_formula_units_Z 240
_cell_length_a 26.622091
_cell_length_b 26.622091
_cell_length_c 17.517217
_cell_angle_alpha 90.000000
_cell_angle_beta 90.000000
_cell_angle_gamma 90.000000
_cell_volume 12415.077564
_symmetry_space_group_name_H-M "I 4/M M M"
_symmetry_group_IT_number 139
_symmetry_cell_setting 'tetragonal'
loop_
_space_group_symop_operation_xyz
x,y,z
-y,x,z
-x,-y,z
y,-x,z
x,-y,-z
-x,y,-z
y,x,-z
-y,-x,-z
-x,-y,-z
y,-x,-z
x,y,-z
-y,x,-z
-x,y,z
x,-y,z
-y,-x,z
y,x,z
1/2+x,1/2+y,1/2+z
1/2-y,1/2+x,1/2+z
1/2-x,1/2-y,1/2+z
1/2+y,1/2-x,1/2+z
1/2+x,1/2-y,1/2-z
1/2-x,1/2+y,1/2-z
1/2+y,1/2+x,1/2-z
1/2-y,1/2-x,1/2-z
1/2-x,1/2-y,1/2-z
1/2+y,1/2-x,1/2-z
1/2+x,1/2+y,1/2-z
1/2-y,1/2+x,1/2-z
1/2-x,1/2+y,1/2+z
1/2+x,1/2-y,1/2+z
1/2-y,1/2-x,1/2+z
1/2+y,1/2+x,1/2+z
loop_
_atom_site_type_symbol
_atom_site_label
_atom_site_fract_x
_atom_site_fract_y
_atom_site_fract_z
Si Si1 0.057568 0.204442 0.082593
Si Si2 0.324906 0.243285 0.292199
Si Si3 0.302823 0.891563 0.913764
Si Si4 0.802216 0.117098 0.333228
Si Si5 0.137675 0.058953 0.218988
Si Si6 0.440965 0.784597 0.088839
Si Si7 0.887190 0.406563 0.838703
Si Si8 0.500000 0.940603 0.912747
O O1 0.061685 0.264602 0.094666
O O2 0.081949 0.172823 0.151389
O O3 0.000000 0.189721 0.081159
O O4 0.082122 0.190119 0.000000
O O5 0.278682 0.278682 0.312808
O O6 0.306822 0.193179 0.250000
O O7 0.346020 0.225115 0.372377
O O8 0.365243 0.269568 0.238419
O O9 0.356131 0.906168 0.879094
O O10 0.311717 0.874409 0.000000
O O11 0.835865 0.164136 0.366238
O O12 0.839293 0.074490 0.300592
O O13 0.766169 0.091285 0.395879
O O14 0.082789 0.082789 0.209081
O O15 0.131656 0.000000 0.215596
O O16 0.500000 0.776034 0.108157
O O17 0.419113 0.829043 0.141997
O O18 0.434300 0.798892 0.000000
O O19 0.897241 0.397241 0.750000
O O20 0.921477 0.451321 0.868804
O O21 0.500000 0.000000 0.911679
O O22 0.500000 0.920122 0.000000
#
# Coordination Sequence:
#
# PCOD8319827 Si02
#       8
#    32  32  32  32  32  32  32  16
#     4   9  19  34  52  78 113 149 190 243 301 361
#     4  10  20  35  53  78 117 155 188 234 293 355
#     4  11  21  35  58  84 115 152 197 246 299 362
#     4  10  20  36  58  87 121 157 199 248 306 371
#     4  10  20  35  56  82 117 158 204 256 307 366
#     4  11  23  41  65  90 123 165 209 257 315 377
#     4  12  26  42  65  91 124 158 208 261 310 374
#     4  11  26  48  70  90 124 164 204 266 327 375
#
# _framework density 19.331333000000001
#
# number of rings (size 3 to 8) (size 9 to 14) (size 15 to 20)
#    0.000    1.533    2.000    3.600    0.933    1.467 
#    0.000    2.667    0.000    4.000    0.000    1.867 
#    0.000    0.000    0.000   12.400    0.000    0.000 
#
# Total GULP energy -1487473.242025 kJ/mol
# GULP energy per Si atom -12395.610350 kJ/mol
# Density = 1.928733 g / cm^3
# Si number density = 19.331333 Si / 1000 Ang^3
#
#
#
# Elastic Constant Matrix: (Units=GPa)
#
#
# Indices 1 2 3 4 5 6 
#
# 1 96.4552 38.4241 43.4017 0.0000 0.0000 0.0000
# 2 38.4241 96.4540 43.3992 0.0000 0.0000 0.0000
# 3 43.4017 43.3992 116.4607 0.0000 0.0000 0.0000
# 4 0.0000 0.0000 0.0000 25.1202 0.0000 0.0000
# 5 0.0000 0.0000 0.0000 0.0000 25.1262 0.0000
# 6 0.0000 0.0000 0.0000 0.0000 0.0000 31.0905
#
#
#
# Elastic Compliance Matrix: (Units=1/GPa)
#
#
# Indices 1 2 3 4 5 6 
#
# 1 0.013493 -0.003740 -0.003635 0.000000 0.000000 0.000000
# 2 -0.003740 0.013493 -0.003634 0.000000 0.000000 0.000000
# 3 -0.003635 -0.003634 0.011296 0.000000 0.000000 0.000000
# 4 0.000000 0.000000 0.000000 0.039809 0.000000 0.000000
# 5 0.000000 0.000000 0.000000 0.000000 0.039799 0.000000
# 6 0.000000 0.000000 0.000000 0.000000 0.000000 0.032164
#
#
# Mechanical properties :
#
#
# Convention : Reuss Voigt Hill
#
# Bulk Modulus (GPa) = 61.48803 62.20222 61.84512
# Shear Modulus (GPa) = 28.17036 28.54371 28.35704
#
# Velocity S-wave (km/s) = 3.82152 3.84676 3.83416
# Velocity P-wave (km/s) = 7.16579 7.20950 7.18768
#
# Compressibility (1/GPa) = 0.01626333
#
# Stress axis : x y z
#
# Youngs Moduli (GPa) = 74.11378 74.11437 88.53049
#
# Poissons Ratio (x) = 0.27716 0.32179
# Poissons Ratio (y) = 0.27716 0.32176
# Poissons Ratio (z) = 0.26939 0.26936
#
# Static dielectric constant tensor:
#      x y z
#    x 3.514430 0.000000 0.000000 
#    y 0.000000 3.514440 0.000000 
#    z 0.000000 0.000000 3.655660 
# 
# 
# High freq. dielectric constant tensor:
#      x y z
#    x 1.753180 0.000000 0.000000 
#    y 0.000000 1.753180 0.000000 
#    z 0.000000 0.000000 1.749750 
# 
# From -- ./inp_files/9058.got.cif
#   From: 2010.03.12/outbox.cif.g09.slc.cpg/sg139_5_cif.got.tgz:9058.got - 2010.04.08 09:46:31.
