data_PCOD8319936
_publ_section_title
;
Structure prediction by ZEFSAII (Michael W. Deem and Ramdas Pophale) SiO2 
 PCOD8319936
Probable space group: I 4/M M M
;
_chemical_formula_sum "Si O2"
_cell_formula_units_Z 160
_cell_length_a 23.050162
_cell_length_b 23.050162
_cell_length_c 15.381319
_cell_angle_alpha 90.000000
_cell_angle_beta 90.000000
_cell_angle_gamma 90.000000
_cell_volume 8172.248109
_symmetry_space_group_name_H-M "I 4/M M M"
_symmetry_group_IT_number 139
_symmetry_cell_setting 'tetragonal'
loop_
_space_group_symop_operation_xyz
x,y,z
-y,x,z
-x,-y,z
y,-x,z
x,-y,-z
-x,y,-z
y,x,-z
-y,-x,-z
-x,-y,-z
y,-x,-z
x,y,-z
-y,x,-z
-x,y,z
x,-y,z
-y,-x,z
y,x,z
1/2+x,1/2+y,1/2+z
1/2-y,1/2+x,1/2+z
1/2-x,1/2-y,1/2+z
1/2+y,1/2-x,1/2+z
1/2+x,1/2-y,1/2-z
1/2-x,1/2+y,1/2-z
1/2+y,1/2+x,1/2-z
1/2-y,1/2-x,1/2-z
1/2-x,1/2-y,1/2-z
1/2+y,1/2-x,1/2-z
1/2+x,1/2+y,1/2-z
1/2-y,1/2+x,1/2-z
1/2-x,1/2+y,1/2+z
1/2+x,1/2-y,1/2+z
1/2-y,1/2-x,1/2+z
1/2+y,1/2+x,1/2+z
loop_
_atom_site_type_symbol
_atom_site_label
_atom_site_fract_x
_atom_site_fract_y
_atom_site_fract_z
Si Si1 0.933231 0.161832 0.761202
Si Si2 0.434801 0.066592 0.900522
Si Si3 0.159278 0.649602 0.846771
Si Si4 0.632672 0.726305 0.403380
Si Si5 0.238622 0.065881 0.598431
O O1 0.896157 0.103844 0.775177
O O2 0.916366 0.210524 0.832634
O O3 0.921693 0.186332 0.664694
O O4 0.000000 0.145032 0.774497
O O5 0.500000 0.075689 0.864835
O O6 0.389889 0.102082 0.842975
O O7 0.416539 0.000000 0.893894
O O8 0.431393 0.088167 0.000000
O O9 0.172349 0.672349 0.750000
O O10 0.148243 0.705943 0.904726
O O11 0.211131 0.612095 0.885835
O O12 0.609662 0.710436 0.500000
O O13 0.690952 0.690952 0.381001
O O14 0.215187 0.073238 0.500000
O O15 0.262317 0.000000 0.612779
#
# Coordination Sequence:
#
# PCOD8319936 Si02
#       5
#    32  32  32  32  32
#     4  10  22  41  64  91 120 149 187 235 290 354
#     4   9  19  35  52  73 107 151 197 244 288 327
#     4  12  22  34  56  84 116 154 197 242 287 340
#     4  10  22  40  60  84 117 154 191 236 288 338
#     4  10  21  38  59  84 119 161 200 240 287 339
#
# _framework density 19.578455999999999
#
# number of rings (size 3 to 8) (size 9 to 14) (size 15 to 20)
#    0.000    1.800    2.000    3.000    0.000    6.200 
#    0.000    1.000    0.000    0.000    0.000    5.600 
#    0.000    0.000    0.000    0.000    0.000    0.000 
#
# Total GULP energy -992129.886298 kJ/mol
# GULP energy per Si atom -12401.623579 kJ/mol
# Density = 1.953389 g / cm^3
# Si number density = 19.578456 Si / 1000 Ang^3
#
#
#
# Elastic Constant Matrix: (Units=GPa)
#
#
# Indices 1 2 3 4 5 6 
#
# 1 98.1892 48.8380 30.4491 0.0000 0.0000 0.0000
# 2 48.8380 98.1892 30.4491 0.0000 0.0000 0.0000
# 3 30.4491 30.4491 113.7657 0.0000 0.0000 0.0000
# 4 0.0000 0.0000 0.0000 27.3125 0.0000 0.0000
# 5 0.0000 0.0000 0.0000 0.0000 27.3125 0.0000
# 6 0.0000 0.0000 0.0000 0.0000 0.0000 5.1576
#
#
#
# Elastic Compliance Matrix: (Units=1/GPa)
#
#
# Indices 1 2 3 4 5 6 
#
# 1 0.013956 -0.006307 -0.002047 0.000000 0.000000 0.000000
# 2 -0.006307 0.013956 -0.002047 0.000000 0.000000 0.000000
# 3 -0.002047 -0.002047 0.009886 0.000000 0.000000 0.000000
# 4 0.000000 0.000000 0.000000 0.036613 0.000000 0.000000
# 5 0.000000 0.000000 0.000000 0.000000 0.036613 0.000000
# 6 0.000000 0.000000 0.000000 0.000000 0.000000 0.193890
#
#
# Mechanical properties :
#
#
# Convention : Reuss Voigt Hill
#
# Bulk Modulus (GPa) = 58.83931 58.84626 58.84278
# Shear Modulus (GPa) = 15.08830 25.31703 20.20266
#
# Velocity S-wave (km/s) = 2.77908 3.59988 3.21578
# Velocity P-wave (km/s) = 6.35736 6.88482 6.62634
#
# Compressibility (1/GPa) = 0.01699544
#
# Stress axis : x y z
#
# Youngs Moduli (GPa) = 71.65266 71.65266 101.15378
#
# Poissons Ratio (x) = 0.45189 0.20710
# Poissons Ratio (y) = 0.45189 0.20710
# Poissons Ratio (z) = 0.14670 0.14670
#
# Static dielectric constant tensor:
#      x y z
#    x 3.415350 0.000000 0.000000 
#    y 0.000000 3.415350 0.000000 
#    z 0.000000 0.000000 3.732040 
# 
# 
# High freq. dielectric constant tensor:
#      x y z
#    x 1.752030 0.000000 0.000000 
#    y 0.000000 1.752030 0.000000 
#    z 0.000000 0.000000 1.775600 
# 
# From -- ./inp_files/5886.got.cif
#   From: 2010.03.12/outbox.cif.g09.slc.cpg/sg139_3_cif.got.tgz:5886.got - 2010.04.08 09:46:31.
