data_PCOD8319916
_publ_section_title
;
Structure prediction by ZEFSAII (Michael W. Deem and Ramdas Pophale) SiO2 
 PCOD8319916
Probable space group: I 4/M M M
;
_chemical_formula_sum "Si O2"
_cell_formula_units_Z 176
_cell_length_a 23.250031
_cell_length_b 23.250031
_cell_length_c 17.578008
_cell_angle_alpha 90.000000
_cell_angle_beta 90.000000
_cell_angle_gamma 90.000000
_cell_volume 9502.037288
_symmetry_space_group_name_H-M "I 4/M M M"
_symmetry_group_IT_number 139
_symmetry_cell_setting 'tetragonal'
loop_
_space_group_symop_operation_xyz
x,y,z
-y,x,z
-x,-y,z
y,-x,z
x,-y,-z
-x,y,-z
y,x,-z
-y,-x,-z
-x,-y,-z
y,-x,-z
x,y,-z
-y,x,-z
-x,y,z
x,-y,z
-y,-x,z
y,x,z
1/2+x,1/2+y,1/2+z
1/2-y,1/2+x,1/2+z
1/2-x,1/2-y,1/2+z
1/2+y,1/2-x,1/2+z
1/2+x,1/2-y,1/2-z
1/2-x,1/2+y,1/2-z
1/2+y,1/2+x,1/2-z
1/2-y,1/2-x,1/2-z
1/2-x,1/2-y,1/2-z
1/2+y,1/2-x,1/2-z
1/2+x,1/2+y,1/2-z
1/2-y,1/2+x,1/2-z
1/2-x,1/2+y,1/2+z
1/2+x,1/2-y,1/2+z
1/2-y,1/2-x,1/2+z
1/2+y,1/2+x,1/2+z
loop_
_atom_site_type_symbol
_atom_site_label
_atom_site_fract_x
_atom_site_fract_y
_atom_site_fract_z
Si Si1 0.728011 0.433965 0.650050
Si Si2 0.934744 0.158053 0.000000
Si Si3 0.145420 0.337640 0.838598
Si Si4 0.564023 0.063541 0.659487
Si Si5 0.139424 0.235016 0.413202
Si Si6 0.338069 0.567004 0.804385
O O1 0.750264 0.500000 0.652624
O O2 0.694567 0.419662 0.573740
O O3 0.780516 0.390638 0.649504
O O4 0.685871 0.421836 0.720268
O O5 0.900223 0.099778 0.000000
O O6 0.000000 0.138013 0.000000
O O7 0.156752 0.343249 0.750000
O O8 0.109258 0.390931 0.872930
O O9 0.204618 0.336352 0.883812
O O10 0.500000 0.078832 0.630105
O O11 0.564886 0.064886 0.750000
O O12 0.581866 0.000000 0.630662
O O13 0.118458 0.240628 0.500000
O O14 0.192055 0.192055 0.404894
O O15 0.085979 0.211426 0.363842
O O16 0.352679 0.500000 0.817941
O O17 0.396433 0.603568 0.816158
#
# Coordination Sequence:
#
# PCOD8319916 Si02
#       6
#    32  16  32  32  32  32
#     4  10  21  37  56  84 120 154 189 234 286 338
#     4  10  22  39  60  86 117 153 191 237 292 348
#     4  11  20  33  56  86 109 147 192 229 275 336
#     4   8  15  28  48  76 108 139 175 223 270 313
#     4  10  23  40  55  78 112 146 184 231 282 331
#     4  10  21  39  62  85 112 145 183 233 290 347
#
# _framework density 18.522342999999999
#
# number of rings (size 3 to 8) (size 9 to 14) (size 15 to 20)
#    0.000    2.182    1.818    1.636    1.273    3.909 
#    0.000    0.000    0.000    3.273    0.000    3.818 
#    0.000    0.000    0.000    0.000    0.000    0.000 
#
# Total GULP energy -1091186.594805 kJ/mol
# GULP energy per Si atom -12399.847668 kJ/mol
# Density = 1.848019 g / cm^3
# Si number density = 18.522343 Si / 1000 Ang^3
#
#
#
# Elastic Constant Matrix: (Units=GPa)
#
#
# Indices 1 2 3 4 5 6 
#
# 1 112.3837 67.2131 47.1944 0.0000 0.0000 0.0000
# 2 67.2131 112.3878 47.1955 0.0000 0.0000 0.0000
# 3 47.1944 47.1955 111.7682 0.0000 0.0000 0.0000
# 4 0.0000 0.0000 0.0000 22.5446 0.0000 0.0000
# 5 0.0000 0.0000 0.0000 0.0000 22.5376 0.0000
# 6 0.0000 0.0000 0.0000 0.0000 0.0000 30.8314
#
#
#
# Elastic Compliance Matrix: (Units=1/GPa)
#
#
# Indices 1 2 3 4 5 6 
#
# 1 0.014647 -0.007491 -0.003022 0.000000 0.000000 0.000000
# 2 -0.007491 0.014646 -0.003022 0.000000 0.000000 0.000000
# 3 -0.003022 -0.003022 0.011499 0.000000 0.000000 0.000000
# 4 0.000000 0.000000 0.000000 0.044357 0.000000 0.000000
# 5 0.000000 0.000000 0.000000 0.000000 0.044370 0.000000
# 6 0.000000 0.000000 0.000000 0.000000 0.000000 0.032434
#
#
# Mechanical properties :
#
#
# Convention : Reuss Voigt Hill
#
# Bulk Modulus (GPa) = 72.86364 73.30510 73.08437
# Shear Modulus (GPa) = 25.82694 26.84517 26.33606
#
# Velocity S-wave (km/s) = 3.73817 3.81115 3.77484
# Velocity P-wave (km/s) = 7.61942 7.68303 7.65129
#
# Compressibility (1/GPa) = 0.01372427
#
# Stress axis : x y z
#
# Youngs Moduli (GPa) = 68.27372 68.27604 86.96445
#
# Poissons Ratio (x) = 0.51143 0.26278
# Poissons Ratio (y) = 0.51141 0.26278
# Poissons Ratio (z) = 0.20630 0.20631
#
# Static dielectric constant tensor:
#      x y z
#    x 3.476520 0.000000 0.000000 
#    y 0.000000 3.476520 0.000000 
#    z 0.000000 0.000000 3.370700 
# 
# 
# High freq. dielectric constant tensor:
#      x y z
#    x 1.723670 0.000000 0.000000 
#    y 0.000000 1.723670 0.000000 
#    z 0.000000 0.000000 1.709100 
# 
# From -- ./inp_files/6130.got.cif
#   From: 2010.03.12/outbox.cif.g09.slc.cpg/sg139_4_cif.got.tgz:6130.got - 2010.04.08 09:46:31.
