data_PCOD8319299
_publ_section_title
;
Structure prediction by ZEFSAII (Michael W. Deem and Ramdas Pophale) SiO2 
 PCOD8319299
Probable space group: I 4/M M M
;
_chemical_formula_sum "Si O2"
_cell_formula_units_Z 160
_cell_length_a 18.388694
_cell_length_b 18.388694
_cell_length_c 31.607064
_cell_angle_alpha 90.000000
_cell_angle_beta 90.000000
_cell_angle_gamma 90.000000
_cell_volume 10687.741168
_symmetry_space_group_name_H-M "I 4/M M M"
_symmetry_group_IT_number 139
_symmetry_cell_setting 'tetragonal'
loop_
_space_group_symop_operation_xyz
x,y,z
-y,x,z
-x,-y,z
y,-x,z
x,-y,-z
-x,y,-z
y,x,-z
-y,-x,-z
-x,-y,-z
y,-x,-z
x,y,-z
-y,x,-z
-x,y,z
x,-y,z
-y,-x,z
y,x,z
1/2+x,1/2+y,1/2+z
1/2-y,1/2+x,1/2+z
1/2-x,1/2-y,1/2+z
1/2+y,1/2-x,1/2+z
1/2+x,1/2-y,1/2-z
1/2-x,1/2+y,1/2-z
1/2+y,1/2+x,1/2-z
1/2-y,1/2-x,1/2-z
1/2-x,1/2-y,1/2-z
1/2+y,1/2-x,1/2-z
1/2+x,1/2+y,1/2-z
1/2-y,1/2+x,1/2-z
1/2-x,1/2+y,1/2+z
1/2+x,1/2-y,1/2+z
1/2-y,1/2-x,1/2+z
1/2+y,1/2+x,1/2+z
loop_
_atom_site_type_symbol
_atom_site_label
_atom_site_fract_x
_atom_site_fract_y
_atom_site_fract_z
Si Si1 0.414725 0.918723 0.829179
Si Si2 0.650666 0.085350 0.914540
Si Si3 0.654586 0.154586 0.250000
Si Si4 0.201874 0.085355 0.780736
Si Si5 0.413297 0.082913 0.500000
Si Si6 0.418277 0.698462 0.621573
O O1 0.500000 0.924005 0.826958
O O2 0.391982 0.882648 0.873938
O O3 0.388359 0.869689 0.791157
O O4 0.380314 0.000000 0.824600
O O5 0.735644 0.102725 0.909385
O O6 0.634883 0.000000 0.915663
O O7 0.621780 0.119954 0.958298
O O8 0.739679 0.134388 0.244721
O O9 0.122314 0.122314 0.773571
O O10 0.224079 0.090996 0.829967
O O11 0.199584 0.000000 0.766393
O O12 0.500000 0.088939 0.500000
O O13 0.387268 0.000000 0.500000
O O14 0.500000 0.672057 0.613501
O O15 0.368286 0.631715 0.609029
#
# Coordination Sequence:
#
# PCOD8319299 Si02
#       6
#    32  32  16  32  16  32
#     4  10  18  26  39  60  89 123 152 180 218 267
#     4   9  16  28  42  59  84 111 142 182 221 260
#     4  12  19  29  44  66  94 119 148 182 227 278
#     4  10  20  33  48  66  89 120 158 196 233 274
#     4   9  16  26  43  64  83 107 140 173 209 258
#     4   9  17  30  46  63  85 114 149 191 234 272
#
# _framework density 14.970421999999999
#
# number of rings (size 3 to 8) (size 9 to 14) (size 15 to 20)
#    0.000    2.300    2.000    2.700    0.000    3.600 
#    0.000    2.500    0.000    0.000    0.000    0.000 
#    0.000    4.000    0.000    0.000    0.000    0.000 
#
# Total GULP energy -991633.543814 kJ/mol
# GULP energy per Si atom -12395.419298 kJ/mol
# Density = 1.493635 g / cm^3
# Si number density = 14.970422 Si / 1000 Ang^3
#
#
#
# Elastic Constant Matrix: (Units=GPa)
#
#
# Indices 1 2 3 4 5 6 
#
# 1 72.8919 41.1441 37.4304 0.0000 0.0000 0.0000
# 2 41.1441 72.8919 37.4304 0.0000 0.0000 0.0000
# 3 37.4304 37.4304 97.2668 0.0000 0.0000 0.0000
# 4 0.0000 0.0000 0.0000 17.2586 0.0000 0.0000
# 5 0.0000 0.0000 0.0000 0.0000 17.2586 0.0000
# 6 0.0000 0.0000 0.0000 0.0000 0.0000 21.1932
#
#
#
# Elastic Compliance Matrix: (Units=1/GPa)
#
#
# Indices 1 2 3 4 5 6 
#
# 1 0.021616 -0.009883 -0.004515 0.000000 0.000000 0.000000
# 2 -0.009883 0.021616 -0.004515 0.000000 0.000000 0.000000
# 3 -0.004515 -0.004515 0.013756 0.000000 0.000000 0.000000
# 4 0.000000 0.000000 0.000000 0.057942 0.000000 0.000000
# 5 0.000000 0.000000 0.000000 0.000000 0.057942 0.000000
# 6 0.000000 0.000000 0.000000 0.000000 0.000000 0.047185
#
#
# Mechanical properties :
#
#
# Convention : Reuss Voigt Hill
#
# Bulk Modulus (GPa) = 52.18731 52.78450 52.48590
# Shear Modulus (GPa) = 18.92007 19.61181 19.26594
#
# Velocity S-wave (km/s) = 3.55890 3.62337 3.59128
# Velocity P-wave (km/s) = 7.19886 7.26917 7.23410
#
# Compressibility (1/GPa) = 0.01916175
#
# Stress axis : x y z
#
# Youngs Moduli (GPa) = 46.26255 46.26255 72.69496
#
# Poissons Ratio (x) = 0.45719 0.32823
# Poissons Ratio (y) = 0.45719 0.32823
# Poissons Ratio (z) = 0.20889 0.20889
#
# Static dielectric constant tensor:
#      x y z
#    x 2.744990 0.000000 0.000000 
#    y 0.000000 2.744990 0.000000 
#    z 0.000000 0.000000 3.028670 
# 
# 
# High freq. dielectric constant tensor:
#      x y z
#    x 1.554090 0.000000 0.000000 
#    y 0.000000 1.554090 0.000000 
#    z 0.000000 0.000000 1.566330 
# 
# From -- ./inp_files/14088.got.cif
#   From: 2010.03.12/outbox.cif.g09.slc.cpg/sg139_8_cif.got.tgz:14088.got - 2010.04.08 09:46:31.
