data_PCOD8319692
_publ_section_title
;
Structure prediction by ZEFSAII (Michael W. Deem and Ramdas Pophale) SiO2 
 PCOD8319692
Probable space group: I 4/M M M
;
_chemical_formula_sum "Si O2"
_cell_formula_units_Z 192
_cell_length_a 23.077329
_cell_length_b 23.077329
_cell_length_c 20.367466
_cell_angle_alpha 90.000000
_cell_angle_beta 90.000000
_cell_angle_gamma 90.000000
_cell_volume 10846.961113
_symmetry_space_group_name_H-M "I 4/M M M"
_symmetry_group_IT_number 139
_symmetry_cell_setting 'tetragonal'
loop_
_space_group_symop_operation_xyz
x,y,z
-y,x,z
-x,-y,z
y,-x,z
x,-y,-z
-x,y,-z
y,x,-z
-y,-x,-z
-x,-y,-z
y,-x,-z
x,y,-z
-y,x,-z
-x,y,z
x,-y,z
-y,-x,z
y,x,z
1/2+x,1/2+y,1/2+z
1/2-y,1/2+x,1/2+z
1/2-x,1/2-y,1/2+z
1/2+y,1/2-x,1/2+z
1/2+x,1/2-y,1/2-z
1/2-x,1/2+y,1/2-z
1/2+y,1/2+x,1/2-z
1/2-y,1/2-x,1/2-z
1/2-x,1/2-y,1/2-z
1/2+y,1/2-x,1/2-z
1/2+x,1/2+y,1/2-z
1/2-y,1/2+x,1/2-z
1/2-x,1/2+y,1/2+z
1/2+x,1/2-y,1/2+z
1/2-y,1/2-x,1/2+z
1/2+y,1/2+x,1/2+z
loop_
_atom_site_type_symbol
_atom_site_label
_atom_site_fract_x
_atom_site_fract_y
_atom_site_fract_z
Si Si1 0.264417 0.264417 0.347880
Si Si2 0.612304 0.932562 0.074616
Si Si3 0.062368 0.849499 0.075119
Si Si4 0.681538 0.681538 0.217485
Si Si5 0.632198 0.064704 0.304305
Si Si6 0.243291 0.933168 0.737932
Si Si7 0.233111 0.388217 0.618006
O O1 0.291275 0.291275 0.282315
O O2 0.215189 0.215189 0.340490
O O3 0.318244 0.234176 0.384704
O O4 0.573083 0.895799 0.124343
O O5 0.677635 0.910830 0.079986
O O6 0.608167 0.000000 0.093664
O O7 0.590512 0.922630 0.000000
O O8 0.104640 0.895361 0.111458
O O9 0.089698 0.786854 0.076767
O O10 0.000000 0.851214 0.111086
O O11 0.054922 0.867359 0.000000
O O12 0.612005 0.693204 0.214733
O O13 0.608658 0.108658 0.250000
O O14 0.701425 0.073879 0.310173
O O15 0.618315 0.000000 0.279612
O O16 0.265501 0.915887 0.809856
O O17 0.220280 0.000000 0.736701
#
# Coordination Sequence:
#
# PCOD8319692 Si02
#       7
#    16  32  32  16  32  32  32
#     4   9  18  28  49  74  97 131 167 217 265 304
#     4  11  23  36  52  75 104 139 175 216 266 315
#     4  10  20  32  46  65  93 132 177 221 265 314
#     4   9  18  30  48  77 106 131 164 209 263 309
#     4  11  22  37  56  77 102 134 176 220 261 309
#     4  10  20  33  54  79 104 135 172 216 260 310
#     4  11  18  33  50  72 101 131 171 218 266 315
#
# _framework density 17.700810000000001
#
# number of rings (size 3 to 8) (size 9 to 14) (size 15 to 20)
#    0.000    1.667    2.500    3.500    2.333    3.000 
#    0.000    1.667    0.000    0.250    0.000    0.000 
#    0.000    0.000    0.000    0.000    0.000    0.000 
#
# Total GULP energy -1189975.877789 kJ/mol
# GULP energy per Si atom -12395.582060 kJ/mol
# Density = 1.766052 g / cm^3
# Si number density = 17.700810 Si / 1000 Ang^3
#
#
#
# Elastic Constant Matrix: (Units=GPa)
#
#
# Indices 1 2 3 4 5 6 
#
# 1 94.3658 47.8170 21.4210 0.0000 0.0000 0.0000
# 2 47.8170 94.3658 21.4210 0.0000 0.0000 0.0000
# 3 21.4210 21.4210 51.0769 0.0000 0.0000 0.0000
# 4 0.0000 0.0000 0.0000 15.2501 0.0000 0.0000
# 5 0.0000 0.0000 0.0000 0.0000 15.2501 0.0000
# 6 0.0000 0.0000 0.0000 0.0000 0.0000 20.3980
#
#
#
# Elastic Compliance Matrix: (Units=1/GPa)
#
#
# Indices 1 2 3 4 5 6 
#
# 1 0.014767 -0.006716 -0.003376 0.000000 0.000000 0.000000
# 2 -0.006716 0.014767 -0.003376 0.000000 0.000000 0.000000
# 3 -0.003376 -0.003376 0.022410 0.000000 0.000000 0.000000
# 4 0.000000 0.000000 0.000000 0.065573 0.000000 0.000000
# 5 0.000000 0.000000 0.000000 0.000000 0.065573 0.000000
# 6 0.000000 0.000000 0.000000 0.000000 0.000000 0.049024
#
#
# Mechanical properties :
#
#
# Convention : Reuss Voigt Hill
#
# Bulk Modulus (GPa) = 39.99011 46.79182 43.39096
# Shear Modulus (GPa) = 18.69944 20.12294 19.41119
#
# Velocity S-wave (km/s) = 3.25378 3.37536 3.31513
# Velocity P-wave (km/s) = 6.06279 6.45623 6.26260
#
# Compressibility (1/GPa) = 0.02500618
#
# Stress axis : x y z
#
# Youngs Moduli (GPa) = 67.72001 67.72001 44.62240
#
# Poissons Ratio (x) = 0.45482 0.15066
# Poissons Ratio (y) = 0.45482 0.15066
# Poissons Ratio (z) = 0.22864 0.22864
#
# Static dielectric constant tensor:
#      x y z
#    x 3.504690 0.000000 0.000000 
#    y 0.000000 3.504690 0.000000 
#    z 0.000000 0.000000 3.059420 
# 
# 
# High freq. dielectric constant tensor:
#      x y z
#    x 1.686210 0.000000 0.000000 
#    y 0.000000 1.686210 0.000000 
#    z 0.000000 0.000000 1.645850 
# 
# From -- ./inp_files/10635.got.cif
#   From: 2010.03.12/outbox.cif.g09.slc.cpg/sg139_6_cif.got.tgz:10635.got - 2010.04.08 09:46:31.
