data_PCOD8319663
_publ_section_title
;
Structure prediction by ZEFSAII (Michael W. Deem and Ramdas Pophale) SiO2 
 PCOD8319663
Probable space group: I 4/M M M
;
_chemical_formula_sum "Si O2"
_cell_formula_units_Z 160
_cell_length_a 29.773517
_cell_length_b 29.773517
_cell_length_c 10.087329
_cell_angle_alpha 90.000000
_cell_angle_beta 90.000000
_cell_angle_gamma 90.000000
_cell_volume 8942.037013
_symmetry_space_group_name_H-M "I 4/M M M"
_symmetry_group_IT_number 139
_symmetry_cell_setting 'tetragonal'
loop_
_space_group_symop_operation_xyz
x,y,z
-y,x,z
-x,-y,z
y,-x,z
x,-y,-z
-x,y,-z
y,x,-z
-y,-x,-z
-x,-y,-z
y,-x,-z
x,y,-z
-y,x,-z
-x,y,z
x,-y,z
-y,-x,z
y,x,z
1/2+x,1/2+y,1/2+z
1/2-y,1/2+x,1/2+z
1/2-x,1/2-y,1/2+z
1/2+y,1/2-x,1/2+z
1/2+x,1/2-y,1/2-z
1/2-x,1/2+y,1/2-z
1/2+y,1/2+x,1/2-z
1/2-y,1/2-x,1/2-z
1/2-x,1/2-y,1/2-z
1/2+y,1/2-x,1/2-z
1/2+x,1/2+y,1/2-z
1/2-y,1/2+x,1/2-z
1/2-x,1/2+y,1/2+z
1/2+x,1/2-y,1/2+z
1/2-y,1/2-x,1/2+z
1/2+y,1/2+x,1/2+z
loop_
_atom_site_type_symbol
_atom_site_label
_atom_site_fract_x
_atom_site_fract_y
_atom_site_fract_z
Si Si1 0.643663 0.783556 0.000000
Si Si2 0.888595 0.186484 0.000000
Si Si3 0.052572 0.800951 0.246944
Si Si4 0.944898 0.500000 0.152334
Si Si5 0.710988 0.860256 0.000000
Si Si6 0.388937 0.314744 0.000000
Si Si7 0.416349 0.201897 0.248786
Si Si8 0.657307 0.000000 0.353419
O O1 0.644252 0.728981 0.000000
O O2 0.617299 0.799917 0.872825
O O3 0.692913 0.808168 0.000000
O O4 0.920858 0.177920 0.875832
O O5 0.849638 0.150363 0.000000
O O6 0.862951 0.234764 0.000000
O O7 0.077740 0.817760 0.376902
O O8 0.056211 0.747773 0.236803
O O9 0.000000 0.815140 0.247247
O O10 0.958537 0.458537 0.250000
O O11 0.893984 0.500000 0.119871
O O12 0.966299 0.500000 0.000000
O O13 0.690673 0.886296 0.124757
O O14 0.357895 0.357895 0.000000
O O15 0.455430 0.166170 0.230847
O O16 0.682012 0.000000 0.500000
#
# Coordination Sequence:
#
# PCOD8319663 Si02
#       8
#    16  16  32  16  16  16  32  16
#     4  10  20  35  55  73 111 155 182 217 264 326
#     4  10  21  36  54  80 116 150 183 229 267 315
#     4  10  19  34  58  79 110 146 181 221 280 317
#     4  10  22  41  58  72  96 130 172 222 284 351
#     4  10  22  35  51  81 111 147 186 225 268 314
#     4  10  21  34  54  86 114 146 189 229 261 313
#     4  10  20  35  54  78 106 135 179 229 271 329
#     4  11  21  37  58  77 101 135 173 225 290 339
#
# _framework density 17.893014999999998
#
# number of rings (size 3 to 8) (size 9 to 14) (size 15 to 20)
#    0.000    1.900    2.000    2.400    0.000    2.400 
#    3.600    0.000    0.000    7.200    0.000    0.000 
#    0.000   28.000    0.000    0.000    0.000    0.000 
#
# Total GULP energy -991049.393226 kJ/mol
# GULP energy per Si atom -12388.117415 kJ/mol
# Density = 1.785229 g / cm^3
# Si number density = 17.893015 Si / 1000 Ang^3
#
#
#
# Elastic Constant Matrix: (Units=GPa)
#
#
# Indices 1 2 3 4 5 6 
#
# 1 95.6660 57.7655 42.3563 0.0000 0.0000 0.0000
# 2 57.7655 95.6610 42.3547 0.0000 0.0000 0.0000
# 3 42.3563 42.3547 158.3608 0.0000 0.0000 0.0000
# 4 0.0000 0.0000 0.0000 28.5023 0.0000 0.0000
# 5 0.0000 0.0000 0.0000 0.0000 28.5066 0.0000
# 6 0.0000 0.0000 0.0000 0.0000 0.0000 31.3753
#
#
#
# Elastic Compliance Matrix: (Units=1/GPa)
#
#
# Indices 1 2 3 4 5 6 
#
# 1 0.017016 -0.009370 -0.002045 0.000000 0.000000 0.000000
# 2 -0.009370 0.017017 -0.002045 0.000000 0.000000 0.000000
# 3 -0.002045 -0.002045 0.007409 0.000000 0.000000 0.000000
# 4 0.000000 0.000000 0.000000 0.035085 0.000000 0.000000
# 5 0.000000 0.000000 0.000000 0.000000 0.035080 0.000000
# 6 0.000000 0.000000 0.000000 0.000000 0.000000 0.031872
#
#
# Mechanical properties :
#
#
# Convention : Reuss Voigt Hill
#
# Bulk Modulus (GPa) = 68.86332 70.51567 69.68949
# Shear Modulus (GPa) = 28.53228 31.49094 30.01161
#
# Velocity S-wave (km/s) = 3.99758 4.19974 4.09991
# Velocity P-wave (km/s) = 7.73804 7.93802 7.83867
#
# Compressibility (1/GPa) = 0.01452152
#
# Stress axis : x y z
#
# Youngs Moduli (GPa) = 58.76707 58.76418 134.97554
#
# Poissons Ratio (x) = 0.55061 0.27606
# Poissons Ratio (y) = 0.55064 0.27606
# Poissons Ratio (z) = 0.12020 0.12019
#
# Static dielectric constant tensor:
#      x y z
#    x 3.135510 0.000000 0.000000 
#    y 0.000000 3.135510 0.000000 
#    z 0.000000 0.000000 3.619830 
# 
# 
# High freq. dielectric constant tensor:
#      x y z
#    x 1.675220 0.000000 0.000000 
#    y 0.000000 1.675220 0.000000 
#    z 0.000000 0.000000 1.716970 
# 
# From -- ./inp_files/2371.got.cif
#   From: 2010.03.12/outbox.cif.g09.slc.cpg/sg139_2_cif.got.tgz:2371.got - 2010.04.08 09:46:31.
