data_PCOD8319606
_publ_section_title
;
Structure prediction by ZEFSAII (Michael W. Deem and Ramdas Pophale) SiO2 
 PCOD8319606
Probable space group: I 4/M M M
;
_chemical_formula_sum "Si O2"
_cell_formula_units_Z 240
_cell_length_a 19.192985
_cell_length_b 19.192985
_cell_length_c 36.052979
_cell_angle_alpha 90.000000
_cell_angle_beta 90.000000
_cell_angle_gamma 90.000000
_cell_volume 13280.860145
_symmetry_space_group_name_H-M "I 4/M M M"
_symmetry_group_IT_number 139
_symmetry_cell_setting 'tetragonal'
loop_
_space_group_symop_operation_xyz
x,y,z
-y,x,z
-x,-y,z
y,-x,z
x,-y,-z
-x,y,-z
y,x,-z
-y,-x,-z
-x,-y,-z
y,-x,-z
x,y,-z
-y,x,-z
-x,y,z
x,-y,z
-y,-x,z
y,x,z
1/2+x,1/2+y,1/2+z
1/2-y,1/2+x,1/2+z
1/2-x,1/2-y,1/2+z
1/2+y,1/2-x,1/2+z
1/2+x,1/2-y,1/2-z
1/2-x,1/2+y,1/2-z
1/2+y,1/2+x,1/2-z
1/2-y,1/2-x,1/2-z
1/2-x,1/2-y,1/2-z
1/2+y,1/2-x,1/2-z
1/2+x,1/2+y,1/2-z
1/2-y,1/2+x,1/2-z
1/2-x,1/2+y,1/2+z
1/2+x,1/2-y,1/2+z
1/2-y,1/2-x,1/2+z
1/2+y,1/2+x,1/2+z
loop_
_atom_site_type_symbol
_atom_site_label
_atom_site_fract_x
_atom_site_fract_y
_atom_site_fract_z
Si Si1 0.742384 0.626809 0.180078
Si Si2 0.078344 0.193107 0.754845
Si Si3 0.647692 0.762688 0.323053
Si Si4 0.158572 0.419605 0.926483
Si Si5 0.694458 0.421660 0.898277
Si Si6 0.580096 0.800288 0.604668
Si Si7 0.920039 0.193554 0.958009
Si Si8 0.921252 0.417918 0.000000
O O1 0.689668 0.689668 0.185045
O O2 0.733066 0.577033 0.215496
O O3 0.819335 0.660092 0.179908
O O4 0.726365 0.584372 0.142804
O O5 0.121910 0.121910 0.753428
O O6 0.109221 0.246133 0.784869
O O7 0.000000 0.172414 0.765603
O O8 0.706134 0.706134 0.332558
O O9 0.592599 0.760801 0.356647
O O10 0.141089 0.500000 0.917561
O O11 0.242393 0.408486 0.927307
O O12 0.125154 0.371211 0.894870
O O13 0.123303 0.394106 0.964637
O O14 0.664609 0.500000 0.903091
O O15 0.632767 0.367234 0.906246
O O16 0.500000 0.820505 0.600228
O O17 0.605523 0.752345 0.570523
O O18 0.876134 0.123867 0.951530
O O19 0.000000 0.173481 0.950140
O O20 0.910189 0.222217 0.000000
O O21 0.929320 0.500000 0.000000
O O22 0.000000 0.384752 0.000000
#
# Coordination Sequence:
#
# PCOD8319606 Si02
#       8
#    32  32  32  32  32  32  32  16
#     4   9  17  32  53  75 100 133 175 223 269 316
#     4  10  20  33  51  75 104 137 175 220 270 325
#     4  10  19  33  52  74 102 136 178 220 265 318
#     4  10  21  36  55  78 105 141 180 218 266 322
#     4  10  20  35  56  82 112 143 179 223 273 329
#     4  11  21  32  51  76 106 138 174 222 271 318
#     4   9  19  34  51  74 103 136 176 220 267 318
#     4   9  18  34  55  78 105 137 175 220 265 310
#
# _framework density 18.071118999999999
#
# number of rings (size 3 to 8) (size 9 to 14) (size 15 to 20)
#    0.000    2.200    1.333    2.000    0.933    3.333 
#    0.000    1.000    0.000    2.400    0.000    1.867 
#    0.000    4.800    0.000    0.000    0.000    0.000 
#
# Total GULP energy -1487891.541806 kJ/mol
# GULP energy per Si atom -12399.096182 kJ/mol
# Density = 1.802999 g / cm^3
# Si number density = 18.071119 Si / 1000 Ang^3
#
#
#
# Elastic Constant Matrix: (Units=GPa)
#
#
# Indices 1 2 3 4 5 6 
#
# 1 94.2079 48.1992 36.2658 0.0000 0.0000 0.0000
# 2 48.1992 94.2079 36.2658 0.0000 0.0000 0.0000
# 3 36.2658 36.2658 82.0391 0.0000 0.0000 0.0000
# 4 0.0000 0.0000 0.0000 26.2822 0.0000 0.0000
# 5 0.0000 0.0000 0.0000 0.0000 26.2822 0.0000
# 6 0.0000 0.0000 0.0000 0.0000 0.0000 23.8374
#
#
#
# Elastic Compliance Matrix: (Units=1/GPa)
#
#
# Indices 1 2 3 4 5 6 
#
# 1 0.015399 -0.006336 -0.004006 0.000000 0.000000 0.000000
# 2 -0.006336 0.015399 -0.004006 0.000000 0.000000 0.000000
# 3 -0.004006 -0.004006 0.015731 0.000000 0.000000 0.000000
# 4 0.000000 0.000000 0.000000 0.038049 0.000000 0.000000
# 5 0.000000 0.000000 0.000000 0.000000 0.038049 0.000000
# 6 0.000000 0.000000 0.000000 0.000000 0.000000 0.041951
#
#
# Mechanical properties :
#
#
# Convention : Reuss Voigt Hill
#
# Bulk Modulus (GPa) = 56.07987 56.87959 56.47973
# Shear Modulus (GPa) = 25.09816 25.26196 25.18006
#
# Velocity S-wave (km/s) = 3.73078 3.74293 3.73686
# Velocity P-wave (km/s) = 7.04688 7.08683 7.06688
#
# Compressibility (1/GPa) = 0.01783171
#
# Stress axis : x y z
#
# Youngs Moduli (GPa) = 64.94017 64.94017 63.56802
#
# Poissons Ratio (x) = 0.41148 0.25466
# Poissons Ratio (y) = 0.41148 0.25466
# Poissons Ratio (z) = 0.26016 0.26016
#
# Static dielectric constant tensor:
#      x y z
#    x 3.245490 0.000000 0.000000 
#    y 0.000000 3.245490 0.000000 
#    z 0.000000 0.000000 3.411510 
# 
# 
# High freq. dielectric constant tensor:
#      x y z
#    x 1.692890 0.000000 0.000000 
#    y 0.000000 1.692890 0.000000 
#    z 0.000000 0.000000 1.700270 
# 
# From -- ./inp_files/14638.got.cif
#   From: 2010.03.12/outbox.cif.g09.slc.cpg/sg139_8_cif.got.tgz:14638.got - 2010.04.08 09:46:31.
