data_PCOD8319715
_publ_section_title
;
Structure prediction by ZEFSAII (Michael W. Deem and Ramdas Pophale) SiO2 
 PCOD8319715
Probable space group: I 4/M M M
;
_chemical_formula_sum "Si O2"
_cell_formula_units_Z 112
_cell_length_a 24.889842
_cell_length_b 24.889842
_cell_length_c 9.613228
_cell_angle_alpha 90.000000
_cell_angle_beta 90.000000
_cell_angle_gamma 90.000000
_cell_volume 5955.435456
_symmetry_space_group_name_H-M "I 4/M M M"
_symmetry_group_IT_number 139
_symmetry_cell_setting 'tetragonal'
loop_
_space_group_symop_operation_xyz
x,y,z
-y,x,z
-x,-y,z
y,-x,z
x,-y,-z
-x,y,-z
y,x,-z
-y,-x,-z
-x,-y,-z
y,-x,-z
x,y,-z
-y,x,-z
-x,y,z
x,-y,z
-y,-x,z
y,x,z
1/2+x,1/2+y,1/2+z
1/2-y,1/2+x,1/2+z
1/2-x,1/2-y,1/2+z
1/2+y,1/2-x,1/2+z
1/2+x,1/2-y,1/2-z
1/2-x,1/2+y,1/2-z
1/2+y,1/2+x,1/2-z
1/2-y,1/2-x,1/2-z
1/2-x,1/2-y,1/2-z
1/2+y,1/2-x,1/2-z
1/2+x,1/2+y,1/2-z
1/2-y,1/2+x,1/2-z
1/2-x,1/2+y,1/2+z
1/2+x,1/2-y,1/2+z
1/2-y,1/2-x,1/2+z
1/2+y,1/2+x,1/2+z
loop_
_atom_site_type_symbol
_atom_site_label
_atom_site_fract_x
_atom_site_fract_y
_atom_site_fract_z
Si Si1 0.408218 0.259097 0.838565
Si Si2 0.786334 0.786334 0.657942
Si Si3 0.562648 0.861273 0.838149
Si Si4 0.440616 0.645320 0.658681
O O1 0.347026 0.272660 0.805915
O O2 0.421645 0.198762 0.790458
O O3 0.442548 0.300658 0.749206
O O4 0.423073 0.266900 0.000000
O O5 0.772739 0.772739 0.500000
O O6 0.750000 0.750000 0.750000
O O7 0.500000 0.871266 0.809256
O O8 0.596061 0.903940 0.750000
O O9 0.576714 0.869367 0.000000
O O10 0.426163 0.660481 0.500000
O O11 0.500000 0.619344 0.666893
O O12 0.397967 0.602034 0.717901
#
# Coordination Sequence:
#
# PCOD8319715 Si02
#       4
#    32  16  32  32
#     4  10  20  37  58  83 114 147 185 228 280 338
#     4  10  20  32  52  82 113 146 181 219 270 329
#     4  10  22  39  59  84 114 149 188 233 284 335
#     4  10  21  36  55  81 112 148 190 233 279 330
#
# _framework density 18.806349999999998
#
# number of rings (size 3 to 8) (size 9 to 14) (size 15 to 20)
#    0.000    2.000    1.429    1.714    0.000    5.143 
#    0.000    2.857    0.000    0.000    0.000    2.000 
#    0.000    0.000    0.000    0.000    0.000    0.000 
#
# Total GULP energy -694489.421934 kJ/mol
# GULP energy per Si atom -12401.596820 kJ/mol
# Density = 1.876355 g / cm^3
# Si number density = 18.806350 Si / 1000 Ang^3
#
#
#
# Elastic Constant Matrix: (Units=GPa)
#
#
# Indices 1 2 3 4 5 6 
#
# 1 174.9399 18.3865 52.0588 0.0000 0.0000 0.0000
# 2 18.3865 174.9279 52.0435 0.0000 0.0000 0.0000
# 3 52.0588 52.0435 58.3066 0.0000 0.0000 0.0000
# 4 0.0000 0.0000 0.0000 27.2240 0.0000 0.0000
# 5 0.0000 0.0000 0.0000 0.0000 27.2223 0.0000
# 6 0.0000 0.0000 0.0000 0.0000 0.0000 23.3972
#
#
#
# Elastic Compliance Matrix: (Units=1/GPa)
#
#
# Indices 1 2 3 4 5 6 
#
# 1 0.008175 0.001787 -0.008894 0.000000 0.000000 0.000000
# 2 0.001787 0.008174 -0.008891 0.000000 0.000000 0.000000
# 3 -0.008894 -0.008891 0.033028 0.000000 0.000000 0.000000
# 4 0.000000 0.000000 0.000000 0.036732 0.000000 0.000000
# 5 0.000000 0.000000 0.000000 0.000000 0.036735 0.000000
# 6 0.000000 0.000000 0.000000 0.000000 0.000000 0.042740
#
#
# Mechanical properties :
#
#
# Convention : Reuss Voigt Hill
#
# Bulk Modulus (GPa) = 57.53729 72.57243 65.05486
# Shear Modulus (GPa) = 24.58513 34.61442 29.59978
#
# Velocity S-wave (km/s) = 3.61955 4.29484 3.97158
# Velocity P-wave (km/s) = 6.93752 7.95408 7.46313
#
# Compressibility (1/GPa) = 0.01738003
#
# Stress axis : x y z
#
# Youngs Moduli (GPa) = 122.32211 122.33673 30.27732
#
# Poissons Ratio (x) = -0.21859 0.26929
# Poissons Ratio (y) = -0.21857 0.26921
# Poissons Ratio (z) = 1.08793 1.08775
#
# Static dielectric constant tensor:
#      x y z
#    x 3.440370 0.000000 0.000000 
#    y 0.000000 3.440370 0.000000 
#    z 0.000000 0.000000 3.508430 
# 
# 
# High freq. dielectric constant tensor:
#      x y z
#    x 1.737630 0.000000 0.000000 
#    y 0.000000 1.737630 0.000000 
#    z 0.000000 0.000000 1.724490 
# 
# From -- ./inp_files/3247.got.cif
#   From: 2010.03.12/outbox.cif.g09.slc.cpg/sg139_2_cif.got.tgz:3247.got - 2010.04.08 09:46:31.
