data_PCOD8319807
_publ_section_title
;
Structure prediction by ZEFSAII (Michael W. Deem and Ramdas Pophale) SiO2 
 PCOD8319807
Probable space group: I 4/M M M
;
_chemical_formula_sum "Si O2"
_cell_formula_units_Z 240
_cell_length_a 29.676021
_cell_length_b 29.676021
_cell_length_c 14.152582
_cell_angle_alpha 90.000000
_cell_angle_beta 90.000000
_cell_angle_gamma 90.000000
_cell_volume 12463.700927
_symmetry_space_group_name_H-M "I 4/M M M"
_symmetry_group_IT_number 139
_symmetry_cell_setting 'tetragonal'
loop_
_space_group_symop_operation_xyz
x,y,z
-y,x,z
-x,-y,z
y,-x,z
x,-y,-z
-x,y,-z
y,x,-z
-y,-x,-z
-x,-y,-z
y,-x,-z
x,y,-z
-y,x,-z
-x,y,z
x,-y,z
-y,-x,z
y,x,z
1/2+x,1/2+y,1/2+z
1/2-y,1/2+x,1/2+z
1/2-x,1/2-y,1/2+z
1/2+y,1/2-x,1/2+z
1/2+x,1/2-y,1/2-z
1/2-x,1/2+y,1/2-z
1/2+y,1/2+x,1/2-z
1/2-y,1/2-x,1/2-z
1/2-x,1/2-y,1/2-z
1/2+y,1/2-x,1/2-z
1/2+x,1/2+y,1/2-z
1/2-y,1/2+x,1/2-z
1/2-x,1/2+y,1/2+z
1/2+x,1/2-y,1/2+z
1/2-y,1/2-x,1/2+z
1/2+y,1/2+x,1/2+z
loop_
_atom_site_type_symbol
_atom_site_label
_atom_site_fract_x
_atom_site_fract_y
_atom_site_fract_z
Si Si1 0.448358 0.870349 0.390696
Si Si2 0.606342 0.211728 0.691384
Si Si3 0.626845 0.228865 0.897010
Si Si4 0.902788 0.170236 0.606275
Si Si5 0.790283 0.052802 0.893459
Si Si6 0.948877 0.448877 0.250000
Si Si7 0.448515 0.374072 0.726613
Si Si8 0.793273 0.723710 0.143175
O O1 0.438855 0.879393 0.500000
O O2 0.500000 0.854893 0.373642
O O3 0.414854 0.832162 0.354932
O O4 0.437450 0.916784 0.337702
O O5 0.612321 0.200285 0.804012
O O6 0.574481 0.254424 0.677256
O O7 0.652552 0.224264 0.636897
O O8 0.610341 0.278730 0.873603
O O9 0.680557 0.226635 0.910914
O O10 0.606386 0.212982 0.000000
O O11 0.920771 0.163390 0.500000
O O12 0.857653 0.142348 0.625908
O O13 0.941830 0.152999 0.675537
O O14 0.840683 0.064229 0.859063
O O15 0.781485 0.000000 0.889543
O O16 0.784201 0.071144 0.000000
O O17 0.941457 0.500000 0.214542
O O18 0.500000 0.390021 0.720651
O O19 0.418347 0.418347 0.719158
O O20 0.769419 0.769419 0.101642
O O21 0.779303 0.720698 0.250000
#
# Coordination Sequence:
#
# PCOD8319807 Si02
#       8
#    32  32  32  32  32  16  32  32
#     4  10  22  40  63  89 119 157 196 235 288 352
#     4  11  21  36  58  87 117 154 197 241 283 335
#     4  10  20  34  53  80 115 155 192 231 281 334
#     4   9  17  32  56  82 108 144 188 228 274 340
#     4  10  21  38  59  81 108 144 186 235 288 340
#     4   9  20  40  66  96 125 152 192 246 293 336
#     4  10  21  37  57  82 111 143 184 237 295 356
#     4   9  20  35  51  76 112 153 194 236 278 324
#
# _framework density 19.255917
#
# number of rings (size 3 to 8) (size 9 to 14) (size 15 to 20)
#    0.000    2.200    1.333    1.200    2.800    4.933 
#    0.000    1.333    0.000    2.400    0.000    3.733 
#    0.000    0.000    0.000    0.000    0.000    0.000 
#
# Total GULP energy -1487382.352508 kJ/mol
# GULP energy per Si atom -12394.852938 kJ/mol
# Density = 1.921209 g / cm^3
# Si number density = 19.255917 Si / 1000 Ang^3
#
#
#
# Elastic Constant Matrix: (Units=GPa)
#
#
# Indices 1 2 3 4 5 6 
#
# 1 92.5074 69.7179 47.5766 0.0000 0.0000 0.0000
# 2 69.7179 92.5073 47.5766 0.0000 0.0000 0.0000
# 3 47.5766 47.5766 124.4647 0.0000 0.0000 0.0000
# 4 0.0000 0.0000 0.0000 26.4936 0.0000 0.0000
# 5 0.0000 0.0000 0.0000 0.0000 26.4929 0.0000
# 6 0.0000 0.0000 0.0000 0.0000 0.0000 24.5819
#
#
#
# Elastic Compliance Matrix: (Units=1/GPa)
#
#
# Indices 1 2 3 4 5 6 
#
# 1 0.025913 -0.017967 -0.003037 0.000000 0.000000 0.000000
# 2 -0.017967 0.025913 -0.003037 0.000000 0.000000 0.000000
# 3 -0.003037 -0.003037 0.010356 0.000000 0.000000 0.000000
# 4 0.000000 0.000000 0.000000 0.037745 0.000000 0.000000
# 5 0.000000 0.000000 0.000000 0.000000 0.037746 0.000000
# 6 0.000000 0.000000 0.000000 0.000000 0.000000 0.040680
#
#
# Mechanical properties :
#
#
# Convention : Reuss Voigt Hill
#
# Bulk Modulus (GPa) = 70.92766 71.02462 70.97614
# Shear Modulus (GPa) = 21.63228 25.15425 23.39326
#
# Velocity S-wave (km/s) = 3.35537 3.61822 3.48927
# Velocity P-wave (km/s) = 7.20593 7.37699 7.29196
#
# Compressibility (1/GPa) = 0.01409887
#
# Stress axis : x y z
#
# Youngs Moduli (GPa) = 38.59096 38.59090 96.55868
#
# Poissons Ratio (x) = 0.69336 0.29327
# Poissons Ratio (y) = 0.69337 0.29328
# Poissons Ratio (z) = 0.11721 0.11721
#
# Static dielectric constant tensor:
#      x y z
#    x 3.500930 0.000000 0.000000 
#    y 0.000000 3.500910 0.000000 
#    z 0.000000 0.000000 3.711890 
# 
# 
# High freq. dielectric constant tensor:
#      x y z
#    x 1.740410 0.000000 0.000000 
#    y 0.000000 1.740410 0.000000 
#    z 0.000000 0.000000 1.759330 
# 
# From -- ./inp_files/6785.got.cif
#   From: 2010.03.12/outbox.cif.g09.slc.cpg/sg139_4_cif.got.tgz:6785.got - 2010.04.08 09:46:31.
