data_PCOD8319154
_publ_section_title
;
Structure prediction by ZEFSAII (Michael W. Deem and Ramdas Pophale) SiO2 
 PCOD8319154
Probable space group: P 42/N C M
;
_chemical_formula_sum "Si O2"
_cell_formula_units_Z 64
_cell_length_a 18.498288
_cell_length_b 18.498288
_cell_length_c 9.685667
_cell_angle_alpha 90.000000
_cell_angle_beta 90.000000
_cell_angle_gamma 90.000000
_cell_volume 3314.306030
_symmetry_space_group_name_H-M "P 42/N C M"
_symmetry_group_IT_number 138
_space_group.IT_coordinate_system_code '2'
_symmetry_cell_setting 'tetragonal'
loop_
_space_group_symop_operation_xyz
x,y,z
1/2-y,x,1/2+z
1/2-x,1/2-y,z
y,1/2-x,1/2+z
1/2+x,-y,1/2-z
-x,1/2+y,1/2-z
1/2+y,1/2+x,-z
-y,-x,-z
-x,-y,-z
1/2+y,-x,1/2-z
1/2+x,1/2+y,-z
-y,1/2+x,1/2-z
1/2-x,y,1/2+z
x,1/2-y,1/2+z
1/2-y,1/2-x,z
y,x,z
loop_
_atom_site_type_symbol
_atom_site_label
_atom_site_fract_x
_atom_site_fract_y
_atom_site_fract_z
Si Si1 0.065511 0.185874 0.062977
Si Si2 0.903561 0.321510 0.617207
Si Si3 0.155856 0.902653 0.632647
Si Si4 0.678460 0.940360 0.756721
O O1 0.123517 0.123517 0.091426
O O2 0.088580 0.257554 0.145651
O O3 0.988560 0.159820 0.121331
O O4 0.059387 0.205587 0.901299
O O5 0.868906 0.368906 0.500000
O O6 0.868900 0.340544 0.763223
O O7 0.888639 0.237833 0.585002
O O8 0.103641 0.896360 0.500000
O O9 0.149798 0.980693 0.702717
O O10 0.611448 0.888553 0.777521
#
# Coordination Sequence:
#
# PCOD8319154 Si02
#       4
#    16  16  16  16
#     4  10  23  42  65  91 121 159 200 248 305 363
#     4  11  22  40  61  88 122 162 204 248 297 354
#     4  11  24  38  60  91 124 160 205 250 297 353
#     4  10  23  43  64  91 123 157 201 250 303 364
#
# _framework density 19.310226
#
# number of rings (size 3 to 8) (size 9 to 14) (size 15 to 20)
#    0.000    1.500    2.500    1.500   10.500    6.500 
#    0.000    2.500    0.000    0.000    0.000    0.000 
#    0.000    0.000    0.000    0.000    0.000    0.000 
#
# Total GULP energy -793856.556952 kJ/mol
# GULP energy per Si atom -12404.008702 kJ/mol
# Density = 1.926628 g / cm^3
# Si number density = 19.310226 Si / 1000 Ang^3
#
#
#
# Elastic Constant Matrix: (Units=GPa)
#
#
# Indices 1 2 3 4 5 6 
#
# 1 98.0783 22.8875 22.8756 0.0000 0.0000 0.0000
# 2 22.8875 98.0748 22.8712 0.0000 0.0000 0.0000
# 3 22.8756 22.8712 73.4850 0.0000 0.0000 0.0000
# 4 0.0000 0.0000 0.0000 37.1940 0.0000 0.0000
# 5 0.0000 0.0000 0.0000 0.0000 37.1942 0.0000
# 6 0.0000 0.0000 0.0000 0.0000 0.0000 33.7873
#
#
#
# Elastic Compliance Matrix: (Units=1/GPa)
#
#
# Indices 1 2 3 4 5 6 
#
# 1 0.011335 -0.001965 -0.002917 0.000000 0.000000 0.000000
# 2 -0.001965 0.011335 -0.002916 0.000000 0.000000 0.000000
# 3 -0.002917 -0.002916 0.015424 0.000000 0.000000 0.000000
# 4 0.000000 0.000000 0.000000 0.026886 0.000000 0.000000
# 5 0.000000 0.000000 0.000000 0.000000 0.026886 0.000000
# 6 0.000000 0.000000 0.000000 0.000000 0.000000 0.029597
#
#
# Mechanical properties :
#
#
# Convention : Reuss Voigt Hill
#
# Bulk Modulus (GPa) = 44.44934 45.21188 44.83061
# Shear Modulus (GPa) = 34.58827 35.03536 34.81182
#
# Velocity S-wave (km/s) = 4.23684 4.26413 4.25051
# Velocity P-wave (km/s) = 6.85587 6.90710 6.88153
#
# Compressibility (1/GPa) = 0.02249752
#
# Stress axis : x y z
#
# Youngs Moduli (GPa) = 88.22375 88.22305 64.83461
#
# Poissons Ratio (x) = 0.17335 0.18912
# Poissons Ratio (y) = 0.17336 0.18907
# Poissons Ratio (z) = 0.25734 0.25727
#
# Static dielectric constant tensor:
#      x y z
#    x 3.489840 0.000000 0.000000 
#    y 0.000000 3.489840 0.000000 
#    z 0.000000 0.000000 4.080400 
# 
# 
# High freq. dielectric constant tensor:
#      x y z
#    x 1.753390 0.000000 0.000000 
#    y 0.000000 1.753390 0.000000 
#    z 0.000000 0.000000 1.767730 
# 
# From -- ./inp_files/1408.got.cif
#   From: 2010.03.12/outbox.cif.g09.slc.cpg/sg138_1_cif.got.tgz:1408.got - 2010.04.08 09:41:05.
