data_PCOD8319927
_publ_section_title
;
Structure prediction by ZEFSAII (Michael W. Deem and Ramdas Pophale) SiO2 
 PCOD8319927
Probable space group: I 4/M M M
;
_chemical_formula_sum "Si O2"
_cell_formula_units_Z 144
_cell_length_a 28.710363
_cell_length_b 28.710363
_cell_length_c 9.343586
_cell_angle_alpha 90.000000
_cell_angle_beta 90.000000
_cell_angle_gamma 90.000000
_cell_volume 7701.777259
_symmetry_space_group_name_H-M "I 4/M M M"
_symmetry_group_IT_number 139
_symmetry_cell_setting 'tetragonal'
loop_
_space_group_symop_operation_xyz
x,y,z
-y,x,z
-x,-y,z
y,-x,z
x,-y,-z
-x,y,-z
y,x,-z
-y,-x,-z
-x,-y,-z
y,-x,-z
x,y,-z
-y,x,-z
-x,y,z
x,-y,z
-y,-x,z
y,x,z
1/2+x,1/2+y,1/2+z
1/2-y,1/2+x,1/2+z
1/2-x,1/2-y,1/2+z
1/2+y,1/2-x,1/2+z
1/2+x,1/2-y,1/2-z
1/2-x,1/2+y,1/2-z
1/2+y,1/2+x,1/2-z
1/2-y,1/2-x,1/2-z
1/2-x,1/2-y,1/2-z
1/2+y,1/2-x,1/2-z
1/2+x,1/2+y,1/2-z
1/2-y,1/2+x,1/2-z
1/2-x,1/2+y,1/2+z
1/2+x,1/2-y,1/2+z
1/2-y,1/2-x,1/2+z
1/2+y,1/2+x,1/2+z
loop_
_atom_site_type_symbol
_atom_site_label
_atom_site_fract_x
_atom_site_fract_y
_atom_site_fract_z
Si Si1 0.552820 0.776838 0.657448
Si Si2 0.949191 0.385597 0.162942
Si Si3 0.553926 0.371928 0.666000
Si Si4 0.785125 0.214876 0.667367
Si Si5 0.791429 0.108015 0.667719
O O1 0.573376 0.763795 0.500000
O O2 0.500000 0.759155 0.663373
O O3 0.556280 0.831154 0.681981
O O4 0.579625 0.753866 0.788035
O O5 0.908701 0.408701 0.250000
O O6 0.000000 0.401319 0.219731
O O7 0.943775 0.400814 0.000000
O O8 0.555017 0.357242 0.500000
O O9 0.500000 0.372683 0.720855
O O10 0.576729 0.423272 0.686870
O O11 0.586386 0.335636 0.750826
O O12 0.776218 0.223783 0.500000
O O13 0.750000 0.250000 0.750000
O O14 0.777808 0.160845 0.709084
O O15 0.801969 0.103791 0.500000
#
# Coordination Sequence:
#
# PCOD8319927 Si02
#       5
#    32  32  32  16  32
#     4   9  19  36  56  79 108 142 182 226 273 328
#     4   9  19  35  53  75 106 142 179 224 277 332
#     4  10  21  37  59  87 118 156 199 240 286 340
#     4  10  24  42  58  80 111 146 185 229 278 337
#     4  11  22  38  58  83 115 147 185 234 285 339
#
# _framework density 18.696982999999999
#
# number of rings (size 3 to 8) (size 9 to 14) (size 15 to 20)
#    0.000    2.222    1.111    2.667    0.000    8.000 
#    0.000    8.889    0.000    0.000    0.000    1.556 
#    0.000    0.000    0.000    0.000    0.000    0.000 
#
# Total GULP energy -892307.914902 kJ/mol
# GULP energy per Si atom -12393.165485 kJ/mol
# Density = 1.865443 g / cm^3
# Si number density = 18.696983 Si / 1000 Ang^3
#
#
#
# Elastic Constant Matrix: (Units=GPa)
#
#
# Indices 1 2 3 4 5 6 
#
# 1 207.3324 -39.5008 56.5812 0.0000 0.0000 0.0000
# 2 -39.5008 207.3301 56.5806 0.0000 0.0000 0.0000
# 3 56.5812 56.5806 75.1875 0.0000 0.0000 0.0000
# 4 0.0000 0.0000 0.0000 -84.0757 0.0000 0.0000
# 5 0.0000 0.0000 0.0000 0.0000 -84.0811 0.0000
# 6 0.0000 0.0000 0.0000 0.0000 0.0000 36.4001
#
#
#
# Elastic Compliance Matrix: (Units=1/GPa)
#
#
# Indices 1 2 3 4 5 6 
#
# 1 0.008074 0.004022 -0.009103 0.000000 0.000000 0.000000
# 2 0.004022 0.008074 -0.009103 0.000000 0.000000 0.000000
# 3 -0.009103 -0.009103 0.027000 0.000000 0.000000 0.000000
# 4 0.000000 0.000000 0.000000 -0.011894 0.000000 0.000000
# 5 0.000000 0.000000 0.000000 0.000000 -0.011893 0.000000
# 6 0.000000 0.000000 0.000000 0.000000 0.000000 0.027472
#
#
# Mechanical properties :
#
#
# Convention : Reuss Voigt Hill
#
# Bulk Modulus (GPa) = 67.65163 70.79690 69.22427
# Shear Modulus (GPa) = 62.40249 1.39459 31.89854
#
# Velocity S-wave (km/s) = 5.78344 0.86459 4.13495
# Velocity P-wave (km/s) = 8.99218 6.24054 7.73962
#
# Compressibility (1/GPa) = 0.01478161
#
# Stress axis : x y z
#
# Youngs Moduli (GPa) = 123.86091 123.85979 37.03715
#
# Poissons Ratio (x) = -0.49820 0.33713
# Poissons Ratio (y) = -0.49820 0.33713
# Poissons Ratio (z) = 1.12744 1.12744
#
# Static dielectric constant tensor:
#      x y z
#    x 3.561210 0.000000 0.000000 
#    y 0.000000 3.561200 0.000000 
#    z 0.000000 0.000000 3.427770 
# 
# 
# High freq. dielectric constant tensor:
#      x y z
#    x 1.731030 0.000000 0.000000 
#    y 0.000000 1.731030 0.000000 
#    z 0.000000 0.000000 1.719950 
# 
# From -- ./inp_files/1987.got.cif
#   From: 2010.03.12/outbox.cif.g09.slc.cpg/sg139_1_cif.got.tgz:1987.got - 2010.04.08 09:46:31.
