data_PCOD8319510
_publ_section_title
;
Structure prediction by ZEFSAII (Michael W. Deem and Ramdas Pophale) SiO2 
 PCOD8319510
Probable space group: I 4/M M M
;
_chemical_formula_sum "Si O2"
_cell_formula_units_Z 192
_cell_length_a 18.740098
_cell_length_b 18.740098
_cell_length_c 31.959480
_cell_angle_alpha 90.000000
_cell_angle_beta 90.000000
_cell_angle_gamma 90.000000
_cell_volume 11223.890467
_symmetry_space_group_name_H-M "I 4/M M M"
_symmetry_group_IT_number 139
_symmetry_cell_setting 'tetragonal'
loop_
_space_group_symop_operation_xyz
x,y,z
-y,x,z
-x,-y,z
y,-x,z
x,-y,-z
-x,y,-z
y,x,-z
-y,-x,-z
-x,-y,-z
y,-x,-z
x,y,-z
-y,x,-z
-x,y,z
x,-y,z
-y,-x,z
y,x,z
1/2+x,1/2+y,1/2+z
1/2-y,1/2+x,1/2+z
1/2-x,1/2-y,1/2+z
1/2+y,1/2-x,1/2+z
1/2+x,1/2-y,1/2-z
1/2-x,1/2+y,1/2-z
1/2+y,1/2+x,1/2-z
1/2-y,1/2-x,1/2-z
1/2-x,1/2-y,1/2-z
1/2+y,1/2-x,1/2-z
1/2+x,1/2+y,1/2-z
1/2-y,1/2+x,1/2-z
1/2-x,1/2+y,1/2+z
1/2+x,1/2-y,1/2+z
1/2-y,1/2-x,1/2+z
1/2+y,1/2+x,1/2+z
loop_
_atom_site_type_symbol
_atom_site_label
_atom_site_fract_x
_atom_site_fract_y
_atom_site_fract_z
Si Si1 0.800298 0.684630 0.298320
Si Si2 0.235411 0.921320 0.500000
Si Si3 0.578199 0.687703 0.909836
Si Si4 0.303385 0.919167 0.917347
Si Si5 0.417781 0.697813 0.657634
Si Si6 0.336458 0.083563 0.366657
Si Si7 0.830790 0.289415 0.000000
O O1 0.758633 0.758633 0.309527
O O2 0.819764 0.680237 0.250000
O O3 0.748506 0.618072 0.307648
O O4 0.874760 0.677721 0.323311
O O5 0.185850 0.910791 0.459660
O O6 0.301372 0.868761 0.500000
O O7 0.270257 0.000000 0.500000
O O8 0.500000 0.660159 0.897151
O O9 0.634826 0.634826 0.888517
O O10 0.590846 0.766696 0.894343
O O11 0.236199 0.910068 0.886873
O O12 0.376565 0.896256 0.894075
O O13 0.280860 0.876359 0.958293
O O14 0.315444 0.000000 0.931052
O O15 0.500000 0.684952 0.669967
O O16 0.378483 0.621518 0.655576
O O17 0.356598 0.000000 0.358271
O O18 0.767214 0.232787 0.000000
#
# Coordination Sequence:
#
# PCOD8319510 Si02
#       7
#    32  16  32  32  32  32  16
#     4   9  18  33  53  76 102 131 164 206 256 304
#     4  10  20  31  45  69  98 125 163 206 242 280
#     4  10  19  31  47  68  96 129 166 208 248 290
#     4  10  21  35  50  72 102 131 164 207 254 300
#     4   9  18  33  52  75 103 132 163 203 249 300
#     4  10  20  33  51  73  98 130 168 205 246 298
#     4  12  21  31  54  76  95 130 172 211 247 290
#
# _framework density 17.106368
#
# number of rings (size 3 to 8) (size 9 to 14) (size 15 to 20)
#    0.000    2.167    1.667    2.000    0.000    2.667 
#    0.000    0.000    0.000    3.000    0.000    2.333 
#    0.000   10.000    0.000    0.000    0.000    0.000 
#
# Total GULP energy -1190092.263126 kJ/mol
# GULP energy per Si atom -12396.794408 kJ/mol
# Density = 1.706743 g / cm^3
# Si number density = 17.106368 Si / 1000 Ang^3
#
#
#
# Elastic Constant Matrix: (Units=GPa)
#
#
# Indices 1 2 3 4 5 6 
#
# 1 103.8311 65.3749 38.5739 0.0000 0.0000 0.0000
# 2 65.3749 103.8259 38.5724 0.0000 0.0000 0.0000
# 3 38.5739 38.5724 90.4811 0.0000 0.0000 0.0000
# 4 0.0000 0.0000 0.0000 77.1785 0.0000 0.0000
# 5 0.0000 0.0000 0.0000 0.0000 77.1513 0.0000
# 6 0.0000 0.0000 0.0000 0.0000 0.0000 23.7380
#
#
#
# Elastic Compliance Matrix: (Units=1/GPa)
#
#
# Indices 1 2 3 4 5 6 
#
# 1 0.016670 -0.009335 -0.003127 0.000000 0.000000 0.000000
# 2 -0.009335 0.016671 -0.003127 0.000000 0.000000 0.000000
# 3 -0.003127 -0.003127 0.013719 0.000000 0.000000 0.000000
# 4 0.000000 0.000000 0.000000 0.012957 0.000000 0.000000
# 5 0.000000 0.000000 0.000000 0.000000 0.012962 0.000000
# 6 0.000000 0.000000 0.000000 0.000000 0.000000 0.042127
#
#
# Mechanical properties :
#
#
# Convention : Reuss Voigt Hill
#
# Bulk Modulus (GPa) = 62.96904 64.79783 63.88343
# Shear Modulus (GPa) = 32.98644 45.98804 39.48724
#
# Velocity S-wave (km/s) = 4.39602 5.19056 4.80973
# Velocity P-wave (km/s) = 7.91561 8.59559 8.26260
#
# Compressibility (1/GPa) = 0.01588082
#
# Stress axis : x y z
#
# Youngs Moduli (GPa) = 59.98706 59.98435 72.89410
#
# Poissons Ratio (x) = 0.55994 0.22797
# Poissons Ratio (y) = 0.55996 0.22797
# Poissons Ratio (z) = 0.18761 0.18759
#
# Static dielectric constant tensor:
#      x y z
#    x 3.257440 0.000000 0.000000 
#    y 0.000000 3.257440 0.000000 
#    z 0.000000 0.000000 3.130320 
# 
# 
# High freq. dielectric constant tensor:
#      x y z
#    x 1.659620 0.000000 0.000000 
#    y 0.000000 1.659620 0.000000 
#    z 0.000000 0.000000 1.653670 
# 
# From -- ./inp_files/14400.got.cif
#   From: 2010.03.12/outbox.cif.g09.slc.cpg/sg139_8_cif.got.tgz:14400.got - 2010.04.08 09:46:31.
