data_PCOD8319127
_publ_section_title
;
Structure prediction by ZEFSAII (Michael W. Deem and Ramdas Pophale) SiO2 
 PCOD8319127
Probable space group: P 42/N C M
;
_chemical_formula_sum "Si O2"
_cell_formula_units_Z 48
_cell_length_a 10.779209
_cell_length_b 10.779209
_cell_length_c 18.227374
_cell_angle_alpha 90.000000
_cell_angle_beta 90.000000
_cell_angle_gamma 90.000000
_cell_volume 2117.863131
_symmetry_space_group_name_H-M "P 42/N C M"
_symmetry_group_IT_number 138
_space_group.IT_coordinate_system_code '2'
_symmetry_cell_setting 'tetragonal'
loop_
_space_group_symop_operation_xyz
x,y,z
1/2-y,x,1/2+z
1/2-x,1/2-y,z
y,1/2-x,1/2+z
1/2+x,-y,1/2-z
-x,1/2+y,1/2-z
1/2+y,1/2+x,-z
-y,-x,-z
-x,-y,-z
1/2+y,-x,1/2-z
1/2+x,1/2+y,-z
-y,1/2+x,1/2-z
1/2-x,y,1/2+z
x,1/2-y,1/2+z
1/2-y,1/2-x,z
y,x,z
loop_
_atom_site_type_symbol
_atom_site_label
_atom_site_fract_x
_atom_site_fract_y
_atom_site_fract_z
Si Si1 0.782064 0.506610 0.838365
Si Si2 0.680410 0.483557 0.680652
Si Si3 0.652539 0.652539 0.108588
Si Si4 0.908074 0.908074 0.956365
O O1 0.878391 0.621610 0.833064
O O2 0.695477 0.501919 0.767261
O O3 0.848597 0.371948 0.841123
O O4 0.693750 0.519409 0.908597
O O5 0.577861 0.577861 0.650304
O O6 0.810554 0.514921 0.638896
O O7 0.750000 0.750000 0.143800
O O8 0.662814 0.662814 0.021213
O O9 0.000000 0.000000 0.000000
#
# Coordination Sequence:
#
# PCOD8319127 Si02
#       4
#    16  16   8   8
#     4  11  23  43  72 105 143 194 249 307 381 454
#     4  10  22  39  72 104 136 185 257 302 366 456
#     4  10  22  44  66  96 134 185 236 302 356 450
#     4  12  28  44  68 102 150 187 241 304 390 453
#
# _framework density 22.664356000000002
#
# number of rings (size 3 to 8) (size 9 to 14) (size 15 to 20)
#    0.000    1.333    3.333    1.500    4.667    2.000 
#    0.000    6.667    0.000    0.000    0.000    0.000 
#    0.000    0.000    0.000    0.000    0.000    0.000 
#
# Total GULP energy -594860.972461 kJ/mol
# GULP energy per Si atom -12392.936926 kJ/mol
# Density = 2.261277 g / cm^3
# Si number density = 22.664356 Si / 1000 Ang^3
#
#
#
# Elastic Constant Matrix: (Units=GPa)
#
#
# Indices 1 2 3 4 5 6 
#
# 1 99.6701 72.7626 51.7625 0.0000 0.0000 0.0000
# 2 72.7626 99.6701 51.7625 0.0000 0.0000 0.0000
# 3 51.7625 51.7625 160.5678 0.0000 0.0000 0.0000
# 4 0.0000 0.0000 0.0000 32.8288 0.0000 0.0000
# 5 0.0000 0.0000 0.0000 0.0000 32.8288 0.0000
# 6 0.0000 0.0000 0.0000 0.0000 0.0000 60.3068
#
#
#
# Elastic Compliance Matrix: (Units=1/GPa)
#
#
# Indices 1 2 3 4 5 6 
#
# 1 0.022178 -0.014987 -0.002318 0.000000 0.000000 0.000000
# 2 -0.014987 0.022178 -0.002318 0.000000 0.000000 0.000000
# 3 -0.002318 -0.002318 0.007723 0.000000 0.000000 0.000000
# 4 0.000000 0.000000 0.000000 0.030461 0.000000 0.000000
# 5 0.000000 0.000000 0.000000 0.000000 0.030461 0.000000
# 6 0.000000 0.000000 0.000000 0.000000 0.000000 0.016582
#
#
# Mechanical properties :
#
#
# Convention : Reuss Voigt Hill
#
# Bulk Modulus (GPa) = 77.93018 79.16479 78.54748
# Shear Modulus (GPa) = 28.88407 37.43421 33.15914
#
# Velocity S-wave (km/s) = 3.57378 4.06849 3.82914
# Velocity P-wave (km/s) = 7.17554 7.55481 7.36762
#
# Compressibility (1/GPa) = 0.01283200
#
# Stress axis : x y z
#
# Youngs Moduli (GPa) = 45.09011 45.09011 129.49069
#
# Poissons Ratio (x) = 0.67575 0.30019
# Poissons Ratio (y) = 0.67575 0.30019
# Poissons Ratio (z) = 0.10453 0.10453
#
# Static dielectric constant tensor:
#      x y z
#    x 4.316340 0.000000 0.000000 
#    y 0.000000 4.316340 0.000000 
#    z 0.000000 0.000000 3.996270 
# 
# 
# High freq. dielectric constant tensor:
#      x y z
#    x 1.897350 0.000000 0.000000 
#    y 0.000000 1.897350 0.000000 
#    z 0.000000 0.000000 1.883500 
# 
# From -- ./inp_files/4738.got.cif
#   From: 2010.03.12/outbox.cif.g09.slc.cpg/sg138_3_cif.got.tgz:4738.got - 2010.04.08 09:41:05.
