data_PCOD8319279
_publ_section_title
;
Structure prediction by ZEFSAII (Michael W. Deem and Ramdas Pophale) SiO2 
 PCOD8319279
Probable space group: I 4/M M M
;
_chemical_formula_sum "Si O2"
_cell_formula_units_Z 128
_cell_length_a 22.660231
_cell_length_b 22.660231
_cell_length_c 15.418958
_cell_angle_alpha 90.000000
_cell_angle_beta 90.000000
_cell_angle_gamma 90.000000
_cell_volume 7917.420131
_symmetry_space_group_name_H-M "I 4/M M M"
_symmetry_group_IT_number 139
_symmetry_cell_setting 'tetragonal'
loop_
_space_group_symop_operation_xyz
x,y,z
-y,x,z
-x,-y,z
y,-x,z
x,-y,-z
-x,y,-z
y,x,-z
-y,-x,-z
-x,-y,-z
y,-x,-z
x,y,-z
-y,x,-z
-x,y,z
x,-y,z
-y,-x,z
y,x,z
1/2+x,1/2+y,1/2+z
1/2-y,1/2+x,1/2+z
1/2-x,1/2-y,1/2+z
1/2+y,1/2-x,1/2+z
1/2+x,1/2-y,1/2-z
1/2-x,1/2+y,1/2-z
1/2+y,1/2+x,1/2-z
1/2-y,1/2-x,1/2-z
1/2-x,1/2-y,1/2-z
1/2+y,1/2-x,1/2-z
1/2+x,1/2+y,1/2-z
1/2-y,1/2+x,1/2-z
1/2-x,1/2+y,1/2+z
1/2+x,1/2-y,1/2+z
1/2-y,1/2-x,1/2+z
1/2+y,1/2+x,1/2+z
loop_
_atom_site_type_symbol
_atom_site_label
_atom_site_fract_x
_atom_site_fract_y
_atom_site_fract_z
Si Si1 0.661282 0.434476 0.238839
Si Si2 0.433460 0.737783 0.400471
Si Si3 0.285105 0.811399 0.150947
Si Si4 0.724051 0.625581 0.905708
O O1 0.639399 0.500000 0.220283
O O2 0.606158 0.393843 0.218761
O O3 0.681394 0.426843 0.338117
O O4 0.715699 0.420508 0.172963
O O5 0.425564 0.717409 0.500000
O O6 0.500000 0.765416 0.387432
O O7 0.380556 0.781968 0.374297
O O8 0.223280 0.776720 0.130490
O O9 0.302038 0.802038 0.250000
O O10 0.340194 0.786230 0.096902
O O11 0.674187 0.674187 0.893030
O O12 0.718994 0.594118 0.000000
#
# Coordination Sequence:
#
# PCOD8319279 Si02
#       4
#    32  32  32  32
#     4  10  20  33  47  65  92 126 166 208 243 281
#     4  10  20  32  47  69  99 133 163 194 237 286
#     4  10  17  28  48  72  97 124 157 199 246 294
#     4   9  17  29  46  68  91 116 149 193 246 297
#
# _framework density 16.166882999999999
#
# number of rings (size 3 to 8) (size 9 to 14) (size 15 to 20)
#    0.000    2.250    2.500    1.500    0.000    3.750 
#    0.000    0.000    0.000    0.000    0.000    7.000 
#    0.000    3.500    0.000   13.750    0.000    0.000 
#
# Total GULP energy -792932.304027 kJ/mol
# GULP energy per Si atom -12389.567250 kJ/mol
# Density = 1.613009 g / cm^3
# Si number density = 16.166883 Si / 1000 Ang^3
#
#
#
# Elastic Constant Matrix: (Units=GPa)
#
#
# Indices 1 2 3 4 5 6 
#
# 1 88.9362 43.9399 39.4538 0.0000 0.0000 0.0000
# 2 43.9399 88.9362 39.4538 0.0000 0.0000 0.0000
# 3 39.4538 39.4538 103.4489 0.0000 0.0000 0.0000
# 4 0.0000 0.0000 0.0000 18.3452 0.0000 0.0000
# 5 0.0000 0.0000 0.0000 0.0000 18.3452 0.0000
# 6 0.0000 0.0000 0.0000 0.0000 0.0000 14.2848
#
#
#
# Elastic Compliance Matrix: (Units=1/GPa)
#
#
# Indices 1 2 3 4 5 6 
#
# 1 0.015977 -0.006247 -0.003711 0.000000 0.000000 0.000000
# 2 -0.006247 0.015977 -0.003711 0.000000 0.000000 0.000000
# 3 -0.003711 -0.003711 0.012497 0.000000 0.000000 0.000000
# 4 0.000000 0.000000 0.000000 0.054510 0.000000 0.000000
# 5 0.000000 0.000000 0.000000 0.000000 0.054510 0.000000
# 6 0.000000 0.000000 0.000000 0.000000 0.000000 0.070005
#
#
# Mechanical properties :
#
#
# Convention : Reuss Voigt Hill
#
# Bulk Modulus (GPa) = 58.43459 58.55737 58.49598
# Shear Modulus (GPa) = 19.49188 20.75995 20.12591
#
# Velocity S-wave (km/s) = 3.47604 3.58733 3.53212
# Velocity P-wave (km/s) = 7.23419 7.31148 7.27294
#
# Compressibility (1/GPa) = 0.01711315
#
# Stress axis : x y z
#
# Youngs Moduli (GPa) = 62.59125 62.59125 80.01958
#
# Poissons Ratio (x) = 0.39103 0.29692
# Poissons Ratio (y) = 0.39103 0.29692
# Poissons Ratio (z) = 0.23225 0.23225
#
# Static dielectric constant tensor:
#      x y z
#    x 3.005660 0.000000 0.000000 
#    y 0.000000 3.005660 0.000000 
#    z 0.000000 0.000000 3.329100 
# 
# 
# High freq. dielectric constant tensor:
#      x y z
#    x 1.591130 0.000000 0.000000 
#    y 0.000000 1.591130 0.000000 
#    z 0.000000 0.000000 1.647250 
# 
# From -- ./inp_files/7999.got.cif
#   From: 2010.03.12/outbox.cif.g09.slc.cpg/sg139_4_cif.got.tgz:7999.got - 2010.04.08 09:46:31.
