data_PCOD8319363
_publ_section_title
;
Structure prediction by ZEFSAII (Michael W. Deem and Ramdas Pophale) SiO2 
 PCOD8319363
Probable space group: I 4/M M M
;
_chemical_formula_sum "Si O2"
_cell_formula_units_Z 144
_cell_length_a 21.672911
_cell_length_b 21.672911
_cell_length_c 19.246830
_cell_angle_alpha 90.000000
_cell_angle_beta 90.000000
_cell_angle_gamma 90.000000
_cell_volume 9040.526124
_symmetry_space_group_name_H-M "I 4/M M M"
_symmetry_group_IT_number 139
_symmetry_cell_setting 'tetragonal'
loop_
_space_group_symop_operation_xyz
x,y,z
-y,x,z
-x,-y,z
y,-x,z
x,-y,-z
-x,y,-z
y,x,-z
-y,-x,-z
-x,-y,-z
y,-x,-z
x,y,-z
-y,x,-z
-x,y,z
x,-y,z
-y,-x,z
y,x,z
1/2+x,1/2+y,1/2+z
1/2-y,1/2+x,1/2+z
1/2-x,1/2-y,1/2+z
1/2+y,1/2-x,1/2+z
1/2+x,1/2-y,1/2-z
1/2-x,1/2+y,1/2-z
1/2+y,1/2+x,1/2-z
1/2-y,1/2-x,1/2-z
1/2-x,1/2-y,1/2-z
1/2+y,1/2-x,1/2-z
1/2+x,1/2+y,1/2-z
1/2-y,1/2+x,1/2-z
1/2-x,1/2+y,1/2+z
1/2+x,1/2-y,1/2+z
1/2-y,1/2-x,1/2+z
1/2+y,1/2+x,1/2+z
loop_
_atom_site_type_symbol
_atom_site_label
_atom_site_fract_x
_atom_site_fract_y
_atom_site_fract_z
Si Si1 0.068618 0.500000 0.918486
Si Si2 0.570167 0.205006 0.281236
Si Si3 0.353912 0.110457 0.641451
Si Si4 0.070786 0.829400 0.711704
Si Si5 0.724480 0.374011 0.078488
O O1 0.102651 0.562642 0.897621
O O2 0.000000 0.500000 0.884935
O O3 0.063524 0.500000 0.000000
O O4 0.500000 0.203730 0.306825
O O5 0.611336 0.174656 0.341457
O O6 0.575832 0.166357 0.210869
O O7 0.591348 0.274984 0.264537
O O8 0.297015 0.130403 0.593225
O O9 0.111275 0.888725 0.729842
O O10 0.078886 0.807781 0.631866
O O11 0.000000 0.847447 0.722869
O O12 0.693696 0.306305 0.087789
O O13 0.714246 0.398715 0.000000
#
# Coordination Sequence:
#
# PCOD8319363 Si02
#       5
#    16  32  32  32  32
#     4  11  22  32  42  64  96 126 159 193 231 283
#     4   9  17  30  45  64  88 112 150 190 226 275
#     4  10  18  30  46  64  86 118 154 191 235 273
#     4   9  18  31  47  68  92 118 149 188 235 284
#     4   9  18  31  46  65  87 114 153 194 231 276
#
# _framework density 15.928277
#
# number of rings (size 3 to 8) (size 9 to 14) (size 15 to 20)
#    0.000    2.556    1.111    1.333    1.556    1.556 
#    0.000    4.444    0.000    0.000    0.000    3.111 
#    0.000    0.000    0.000    0.000    0.000    0.667 
#
# Total GULP energy -892595.503500 kJ/mol
# GULP energy per Si atom -12397.159771 kJ/mol
# Density = 1.589202 g / cm^3
# Si number density = 15.928277 Si / 1000 Ang^3
#
#
#
# Elastic Constant Matrix: (Units=GPa)
#
#
# Indices 1 2 3 4 5 6 
#
# 1 106.8326 66.6582 28.0682 0.0000 0.0000 0.0000
# 2 66.6582 106.8326 28.0682 0.0000 0.0000 0.0000
# 3 28.0682 28.0682 37.1514 0.0000 0.0000 0.0000
# 4 0.0000 0.0000 0.0000 20.2249 0.0000 0.0000
# 5 0.0000 0.0000 0.0000 0.0000 20.2249 0.0000
# 6 0.0000 0.0000 0.0000 0.0000 0.0000 27.9304
#
#
#
# Elastic Compliance Matrix: (Units=1/GPa)
#
#
# Indices 1 2 3 4 5 6 
#
# 1 0.016260 -0.008631 -0.005764 0.000000 0.000000 0.000000
# 2 -0.008631 0.016260 -0.005764 0.000000 0.000000 0.000000
# 3 -0.005764 -0.005764 0.035626 0.000000 0.000000 0.000000
# 4 0.000000 0.000000 0.000000 0.049444 0.000000 0.000000
# 5 0.000000 0.000000 0.000000 0.000000 0.049444 0.000000
# 6 0.000000 0.000000 0.000000 0.000000 0.000000 0.035803
#
#
# Mechanical properties :
#
#
# Convention : Reuss Voigt Hill
#
# Bulk Modulus (GPa) = 35.93379 55.15617 45.54498
# Shear Modulus (GPa) = 19.80734 22.21083 21.00909
#
# Velocity S-wave (km/s) = 3.53020 3.73826 3.63572
# Velocity P-wave (km/s) = 6.26300 7.30313 6.80297
#
# Compressibility (1/GPa) = 0.02782896
#
# Stress axis : x y z
#
# Youngs Moduli (GPa) = 61.49973 61.49973 28.06938
#
# Poissons Ratio (x) = 0.53082 0.16178
# Poissons Ratio (y) = 0.53082 0.16178
# Poissons Ratio (z) = 0.35447 0.35447
#
# Static dielectric constant tensor:
#      x y z
#    x 3.062740 0.000000 0.000000 
#    y 0.000000 3.062740 0.000000 
#    z 0.000000 0.000000 2.880390 
# 
# 
# High freq. dielectric constant tensor:
#      x y z
#    x 1.611170 0.000000 0.000000 
#    y 0.000000 1.611170 0.000000 
#    z 0.000000 0.000000 1.588820 
# 
# From -- ./inp_files/10216.got.cif
#   From: 2010.03.12/outbox.cif.g09.slc.cpg/sg139_6_cif.got.tgz:10216.got - 2010.04.08 09:46:31.
