data_PCOD8319920
_publ_section_title
;
Structure prediction by ZEFSAII (Michael W. Deem and Ramdas Pophale) SiO2 
 PCOD8319920
Probable space group: I 4/M M M
;
_chemical_formula_sum "Si O2"
_cell_formula_units_Z 160
_cell_length_a 18.104195
_cell_length_b 18.104195
_cell_length_c 26.183985
_cell_angle_alpha 90.000000
_cell_angle_beta 90.000000
_cell_angle_gamma 90.000000
_cell_volume 8582.112060
_symmetry_space_group_name_H-M "I 4/M M M"
_symmetry_group_IT_number 139
_symmetry_cell_setting 'tetragonal'
loop_
_space_group_symop_operation_xyz
x,y,z
-y,x,z
-x,-y,z
y,-x,z
x,-y,-z
-x,y,-z
y,x,-z
-y,-x,-z
-x,-y,-z
y,-x,-z
x,y,-z
-y,x,-z
-x,y,z
x,-y,z
-y,-x,z
y,x,z
1/2+x,1/2+y,1/2+z
1/2-y,1/2+x,1/2+z
1/2-x,1/2-y,1/2+z
1/2+y,1/2-x,1/2+z
1/2+x,1/2-y,1/2-z
1/2-x,1/2+y,1/2-z
1/2+y,1/2+x,1/2-z
1/2-y,1/2-x,1/2-z
1/2-x,1/2-y,1/2-z
1/2+y,1/2-x,1/2-z
1/2+x,1/2+y,1/2-z
1/2-y,1/2+x,1/2-z
1/2-x,1/2+y,1/2+z
1/2+x,1/2-y,1/2+z
1/2-y,1/2-x,1/2+z
1/2+y,1/2+x,1/2+z
loop_
_atom_site_type_symbol
_atom_site_label
_atom_site_fract_x
_atom_site_fract_y
_atom_site_fract_z
Si Si1 0.662311 0.825832 0.132449
Si Si2 0.296934 0.584828 0.680795
Si Si3 0.917505 0.917505 0.560687
Si Si4 0.586527 0.081230 0.945397
Si Si5 0.799261 0.200740 0.439610
Si Si6 0.795717 0.084511 0.300489
O O1 0.732912 0.868161 0.154187
O O2 0.605279 0.882763 0.108813
O O3 0.682068 0.780261 0.081993
O O4 0.624839 0.774864 0.175073
O O5 0.300149 0.500000 0.660636
O O6 0.375513 0.624488 0.669282
O O7 0.280225 0.585444 0.740604
O O8 0.915672 0.915672 0.500000
O O9 0.858829 0.858829 0.582397
O O10 0.000000 0.896244 0.579677
O O11 0.500000 0.076482 0.946554
O O12 0.621978 0.000000 0.944088
O O13 0.612287 0.118881 0.000000
O O14 0.798153 0.201848 0.500000
O O15 0.870797 0.129204 0.313963
O O16 0.804210 0.000000 0.320149
#
# Coordination Sequence:
#
# PCOD8319920 Si02
#       6
#    32  32  16  32  16  32
#     4  12  20  36  54  82 112 146 180 223 282 336
#     4  10  21  38  61  86 111 141 179 227 282 345
#     4   8  16  33  52  69  99 145 192 235 276 316
#     4   9  19  35  54  77 106 143 187 231 273 319
#     4  11  23  34  50  79 110 146 192 234 270 321
#     4  10  21  37  57  83 114 149 188 228 276 329
#
# _framework density 18.643429000000001
#
# number of rings (size 3 to 8) (size 9 to 14) (size 15 to 20)
#    0.000    1.900    2.000    3.300    0.000    3.600 
#    0.000    4.000    0.000    0.000    0.000    8.400 
#    0.000    0.800    0.000    0.000    0.000    0.000 
#
# Total GULP energy -991195.996903 kJ/mol
# GULP energy per Si atom -12389.949961 kJ/mol
# Density = 1.860100 g / cm^3
# Si number density = 18.643429 Si / 1000 Ang^3
#
#
#
# Elastic Constant Matrix: (Units=GPa)
#
#
# Indices 1 2 3 4 5 6 
#
# 1 117.7287 77.3990 46.2332 0.0000 0.0000 0.0000
# 2 77.3990 117.7291 46.2335 0.0000 0.0000 0.0000
# 3 46.2332 46.2335 64.6864 0.0000 0.0000 0.0000
# 4 0.0000 0.0000 0.0000 41.2252 0.0000 0.0000
# 5 0.0000 0.0000 0.0000 0.0000 41.2251 0.0000
# 6 0.0000 0.0000 0.0000 0.0000 0.0000 33.9642
#
#
#
# Elastic Compliance Matrix: (Units=1/GPa)
#
#
# Indices 1 2 3 4 5 6 
#
# 1 0.016273 -0.008523 -0.005539 0.000000 0.000000 0.000000
# 2 -0.008523 0.016273 -0.005539 0.000000 0.000000 0.000000
# 3 -0.005539 -0.005539 0.023377 0.000000 0.000000 0.000000
# 4 0.000000 0.000000 0.000000 0.024257 0.000000 0.000000
# 5 0.000000 0.000000 0.000000 0.000000 0.024257 0.000000
# 6 0.000000 0.000000 0.000000 0.000000 0.000000 0.029443
#
#
# Mechanical properties :
#
#
# Convention : Reuss Voigt Hill
#
# Bulk Modulus (GPa) = 59.80680 71.09727 65.45203
# Shear Modulus (GPa) = 27.98712 31.96812 29.97762
#
# Velocity S-wave (km/s) = 3.87871 4.14540 4.01427
# Velocity P-wave (km/s) = 7.22552 7.81860 7.52790
#
# Compressibility (1/GPa) = 0.01672051
#
# Stress axis : x y z
#
# Youngs Moduli (GPa) = 61.45322 61.45324 42.77748
#
# Poissons Ratio (x) = 0.52376 0.23694
# Poissons Ratio (y) = 0.52376 0.23694
# Poissons Ratio (z) = 0.34038 0.34038
#
# Static dielectric constant tensor:
#      x y z
#    x 3.590170 0.000000 0.000000 
#    y 0.000000 3.590170 0.000000 
#    z 0.000000 0.000000 3.629520 
# 
# 
# High freq. dielectric constant tensor:
#      x y z
#    x 1.722080 0.000000 0.000000 
#    y 0.000000 1.722080 0.000000 
#    z 0.000000 0.000000 1.727050 
# 
# From -- ./inp_files/12959.got.cif
#   From: 2010.03.12/outbox.cif.g09.slc.cpg/sg139_7_cif.got.tgz:12959.got - 2010.04.08 09:46:31.
