data_PCOD8319032
_publ_section_title
;
Structure prediction by ZEFSAII (Michael W. Deem and Ramdas Pophale) SiO2 
 PCOD8319032
Probable space group: P 42/N C M
;
_chemical_formula_sum "Si O2"
_cell_formula_units_Z 80
_cell_length_a 12.099650
_cell_length_b 12.099650
_cell_length_c 28.350020
_cell_angle_alpha 90.000000
_cell_angle_beta 90.000000
_cell_angle_gamma 90.000000
_cell_volume 4150.486307
_symmetry_space_group_name_H-M "P 42/N C M"
_symmetry_group_IT_number 138
_space_group.IT_coordinate_system_code '2'
_symmetry_cell_setting 'tetragonal'
loop_
_space_group_symop_operation_xyz
x,y,z
1/2-y,x,1/2+z
1/2-x,1/2-y,z
y,1/2-x,1/2+z
1/2+x,-y,1/2-z
-x,1/2+y,1/2-z
1/2+y,1/2+x,-z
-y,-x,-z
-x,-y,-z
1/2+y,-x,1/2-z
1/2+x,1/2+y,-z
-y,1/2+x,1/2-z
1/2-x,y,1/2+z
x,1/2-y,1/2+z
1/2-y,1/2-x,z
y,x,z
loop_
_atom_site_type_symbol
_atom_site_label
_atom_site_fract_x
_atom_site_fract_y
_atom_site_fract_z
Si Si1 0.072294 0.243244 0.807702
Si Si2 0.380914 0.565068 0.948363
Si Si3 0.333556 0.515650 0.399700
Si Si4 0.245765 0.621384 0.125995
Si Si5 0.932767 0.749865 0.797885
O O1 0.172292 0.327708 0.808736
O O2 0.120961 0.120961 0.818329
O O3 0.019809 0.246407 0.755521
O O4 0.985448 0.274489 0.848075
O O5 0.469746 0.469746 0.943137
O O6 0.259690 0.513302 0.939956
O O7 0.408510 0.658810 0.910561
O O8 0.381549 0.618452 0.000000
O O9 0.412236 0.412236 0.408987
O O10 0.401885 0.629566 0.400687
O O11 0.250000 0.750000 0.141534
O O12 0.255812 0.541048 0.170349
O O13 0.859920 0.640081 0.808125
O O14 0.857771 0.857771 0.806568
#
# Coordination Sequence:
#
# PCOD8319032 Si02
#       5
#    16  16  16  16  16
#     4   8  15  30  53  79 106 141 187 232 270 312
#     4  10  22  41  62  82 108 144 187 235 284 336
#     4  10  20  36  58  84 112 145 186 232 278 331
#     4  10  21  36  52  80 117 150 177 221 279 343
#     4   9  17  33  57  80 107 146 190 233 272 319
#
# _framework density 19.274850000000001
#
# number of rings (size 3 to 8) (size 9 to 14) (size 15 to 20)
#    0.000    2.600    0.000    3.000    0.000    4.800 
#    7.200    3.000    0.000    2.400    0.000    0.000 
#    0.000    0.000    0.000    0.000    0.000    0.000 
#
# Total GULP energy -991718.540983 kJ/mol
# GULP energy per Si atom -12396.481762 kJ/mol
# Density = 1.923098 g / cm^3
# Si number density = 19.274850 Si / 1000 Ang^3
#
#
#
# Elastic Constant Matrix: (Units=GPa)
#
#
# Indices 1 2 3 4 5 6 
#
# 1 84.2005 41.6377 47.8660 0.0000 0.0000 0.0000
# 2 41.6377 84.2005 47.8659 0.0000 0.0000 0.0000
# 3 47.8660 47.8659 88.9530 0.0000 0.0000 0.0000
# 4 0.0000 0.0000 0.0000 22.9235 0.0000 0.0000
# 5 0.0000 0.0000 0.0000 0.0000 22.9236 0.0000
# 6 0.0000 0.0000 0.0000 0.0000 0.0000 18.1263
#
#
#
# Elastic Compliance Matrix: (Units=1/GPa)
#
#
# Indices 1 2 3 4 5 6 
#
# 1 0.018475 -0.005020 -0.007240 0.000000 0.000000 0.000000
# 2 -0.005020 0.018475 -0.007240 0.000000 0.000000 0.000000
# 3 -0.007240 -0.007240 0.019034 0.000000 0.000000 0.000000
# 4 0.000000 0.000000 0.000000 0.043623 0.000000 0.000000
# 5 0.000000 0.000000 0.000000 0.000000 0.043623 0.000000
# 6 0.000000 0.000000 0.000000 0.000000 0.000000 0.055168
#
#
# Mechanical properties :
#
#
# Convention : Reuss Voigt Hill
#
# Bulk Modulus (GPa) = 58.88283 59.12147 59.00215
# Shear Modulus (GPa) = 20.57119 20.79366 20.68242
#
# Velocity S-wave (km/s) = 3.27043 3.28807 3.27926
# Velocity P-wave (km/s) = 6.69898 6.71972 6.70936
#
# Compressibility (1/GPa) = 0.01698288
#
# Stress axis : x y z
#
# Youngs Moduli (GPa) = 54.12827 54.12842 52.53876
#
# Poissons Ratio (x) = 0.27173 0.38038
# Poissons Ratio (y) = 0.27173 0.38038
# Poissons Ratio (z) = 0.39189 0.39188
#
# Static dielectric constant tensor:
#      x y z
#    x 3.642760 0.000000 0.000000 
#    y 0.000000 3.642760 0.000000 
#    z 0.000000 0.000000 3.565840 
# 
# 
# High freq. dielectric constant tensor:
#      x y z
#    x 1.750590 0.000000 0.000000 
#    y 0.000000 1.750590 0.000000 
#    z 0.000000 0.000000 1.740160 
# 
# From -- ./inp_files/7876.got.cif
#   From: 2010.03.12/outbox.cif.g09.slc.cpg/sg138_4_cif.got.tgz:7876.got - 2010.04.08 09:41:05.
