data_PCOD8319218
_publ_section_title
;
Structure prediction by ZEFSAII (Michael W. Deem and Ramdas Pophale) SiO2 
 PCOD8319218
Probable space group: P 42/N C M
;
_chemical_formula_sum "Si O2"
_cell_formula_units_Z 48
_cell_length_a 11.244367
_cell_length_b 11.244367
_cell_length_c 17.184027
_cell_angle_alpha 90.000000
_cell_angle_beta 90.000000
_cell_angle_gamma 90.000000
_cell_volume 2172.676016
_symmetry_space_group_name_H-M "P 42/N C M"
_symmetry_group_IT_number 138
_space_group.IT_coordinate_system_code '2'
_symmetry_cell_setting 'tetragonal'
loop_
_space_group_symop_operation_xyz
x,y,z
1/2-y,x,1/2+z
1/2-x,1/2-y,z
y,1/2-x,1/2+z
1/2+x,-y,1/2-z
-x,1/2+y,1/2-z
1/2+y,1/2+x,-z
-y,-x,-z
-x,-y,-z
1/2+y,-x,1/2-z
1/2+x,1/2+y,-z
-y,1/2+x,1/2-z
1/2-x,y,1/2+z
x,1/2-y,1/2+z
1/2-y,1/2-x,z
y,x,z
loop_
_atom_site_type_symbol
_atom_site_label
_atom_site_fract_x
_atom_site_fract_y
_atom_site_fract_z
Si Si1 0.178073 0.516147 0.451028
Si Si2 0.655950 0.844051 0.805940
Si Si3 0.594632 0.905369 0.972133
Si Si4 0.734920 0.068208 0.719734
O O1 0.127809 0.627809 0.500000
O O2 0.274651 0.441859 0.499244
O O3 0.237819 0.568414 0.373608
O O4 0.069856 0.430145 0.427498
O O5 0.750000 0.750000 0.839573
O O6 0.592987 0.907014 0.878667
O O7 0.564001 0.774010 0.751952
O O8 0.500000 0.000000 0.000000
O O9 0.622631 0.142506 0.750086
#
# Coordination Sequence:
#
# PCOD8319218 Si02
#       4
#    16   8   8  16
#     4  11  24  44  72 101 139 184 236 296 349 424
#     4  12  26  42  71 102 138 184 235 293 347 432
#     4  12  26  44  70 101 141 185 236 290 358 426
#     4  11  25  44  68 100 140 183 234 294 356 417
#
# _framework density 22.092573000000002
#
# number of rings (size 3 to 8) (size 9 to 14) (size 15 to 20)
#    0.000    0.667    1.667    5.500    4.667    6.000 
#    0.000    0.000    0.000    0.000    0.000    0.000 
#    0.000    0.000    0.000    0.000    0.000    0.000 
#
# Total GULP energy -595637.584365 kJ/mol
# GULP energy per Si atom -12409.116341 kJ/mol
# Density = 2.204229 g / cm^3
# Si number density = 22.092573 Si / 1000 Ang^3
#
#
#
# Elastic Constant Matrix: (Units=GPa)
#
#
# Indices 1 2 3 4 5 6 
#
# 1 84.4524 38.7777 22.2525 0.0000 0.0000 0.0000
# 2 38.7777 84.4524 22.2525 0.0000 0.0000 0.0000
# 3 22.2525 22.2525 140.9116 0.0000 0.0000 0.0000
# 4 0.0000 0.0000 0.0000 29.9565 0.0000 0.0000
# 5 0.0000 0.0000 0.0000 0.0000 29.9565 0.0000
# 6 0.0000 0.0000 0.0000 0.0000 0.0000 56.6640
#
#
#
# Elastic Compliance Matrix: (Units=1/GPa)
#
#
# Indices 1 2 3 4 5 6 
#
# 1 0.015250 -0.006644 -0.001359 0.000000 0.000000 0.000000
# 2 -0.006644 0.015250 -0.001359 0.000000 0.000000 0.000000
# 3 -0.001359 -0.001359 0.007526 0.000000 0.000000 0.000000
# 4 0.000000 0.000000 0.000000 0.033382 0.000000 0.000000
# 5 0.000000 0.000000 0.000000 0.000000 0.033382 0.000000
# 6 0.000000 0.000000 0.000000 0.000000 0.000000 0.017648
#
#
# Mechanical properties :
#
#
# Convention : Reuss Voigt Hill
#
# Bulk Modulus (GPa) = 51.81000 52.93130 52.37065
# Shear Modulus (GPa) = 33.87649 38.41764 36.14707
#
# Velocity S-wave (km/s) = 3.92010 4.17458 4.04934
# Velocity P-wave (km/s) = 6.63263 6.87365 6.75422
#
# Compressibility (1/GPa) = 0.01930129
#
# Stress axis : x y z
#
# Youngs Moduli (GPa) = 65.57450 65.57450 132.87502
#
# Poissons Ratio (x) = 0.43569 0.18058
# Poissons Ratio (y) = 0.43569 0.18058
# Poissons Ratio (z) = 0.08912 0.08912
#
# Static dielectric constant tensor:
#      x y z
#    x 4.001410 0.000000 0.000000 
#    y 0.000000 4.001410 0.000000 
#    z 0.000000 0.000000 3.997430 
# 
# 
# High freq. dielectric constant tensor:
#      x y z
#    x 1.877160 0.000000 0.000000 
#    y 0.000000 1.877160 0.000000 
#    z 0.000000 0.000000 1.882180 
# 
# From -- ./inp_files/4749.got.cif
#   From: 2010.03.12/outbox.cif.g09.slc.cpg/sg138_3_cif.got.tgz:4749.got - 2010.04.08 09:41:05.
