data_PCOD8319695
_publ_section_title
;
Structure prediction by ZEFSAII (Michael W. Deem and Ramdas Pophale) SiO2 
 PCOD8319695
Probable space group: I 4/M M M
;
_chemical_formula_sum "Si O2"
_cell_formula_units_Z 224
_cell_length_a 26.384108
_cell_length_b 26.384108
_cell_length_c 19.940450
_cell_angle_alpha 90.000000
_cell_angle_beta 90.000000
_cell_angle_gamma 90.000000
_cell_volume 13880.969084
_symmetry_space_group_name_H-M "I 4/M M M"
_symmetry_group_IT_number 139
_symmetry_cell_setting 'tetragonal'
loop_
_space_group_symop_operation_xyz
x,y,z
-y,x,z
-x,-y,z
y,-x,z
x,-y,-z
-x,y,-z
y,x,-z
-y,-x,-z
-x,-y,-z
y,-x,-z
x,y,-z
-y,x,-z
-x,y,z
x,-y,z
-y,-x,z
y,x,z
1/2+x,1/2+y,1/2+z
1/2-y,1/2+x,1/2+z
1/2-x,1/2-y,1/2+z
1/2+y,1/2-x,1/2+z
1/2+x,1/2-y,1/2-z
1/2-x,1/2+y,1/2-z
1/2+y,1/2+x,1/2-z
1/2-y,1/2-x,1/2-z
1/2-x,1/2-y,1/2-z
1/2+y,1/2-x,1/2-z
1/2+x,1/2+y,1/2-z
1/2-y,1/2+x,1/2-z
1/2-x,1/2+y,1/2+z
1/2+x,1/2-y,1/2+z
1/2-y,1/2-x,1/2+z
1/2+y,1/2+x,1/2+z
loop_
_atom_site_type_symbol
_atom_site_label
_atom_site_fract_x
_atom_site_fract_y
_atom_site_fract_z
Si Si1 0.891540 0.810751 0.322451
Si Si2 0.691420 0.772623 0.183811
Si Si3 0.358132 0.440243 0.695741
Si Si4 0.059614 0.789909 0.925832
Si Si5 0.838381 0.640917 0.921818
Si Si6 0.944456 0.323956 0.078980
Si Si7 0.442897 0.240025 0.922846
O O1 0.860737 0.860737 0.346143
O O2 0.852824 0.767131 0.301709
O O3 0.927343 0.823513 0.259775
O O4 0.925150 0.789912 0.383328
O O5 0.744748 0.744748 0.171284
O O6 0.692921 0.807079 0.250000
O O7 0.683189 0.807697 0.119116
O O8 0.368710 0.500000 0.693733
O O9 0.411931 0.411931 0.699929
O O10 0.329360 0.419941 0.629251
O O11 0.071659 0.732999 0.900503
O O12 0.000000 0.796251 0.931681
O O13 0.083620 0.800411 0.000000
O O14 0.897836 0.639303 0.898875
O O15 0.811751 0.587293 0.906181
O O16 0.834500 0.655594 0.000000
O O17 0.000000 0.339082 0.110698
O O18 0.951259 0.326081 0.000000
O O19 0.500000 0.227065 0.903143
O O20 0.436415 0.254930 0.000000
#
# Coordination Sequence:
#
# PCOD8319695 Si02
#       7
#    32  32  32  32  32  32  32
#     4   9  18  31  46  66  89 117 149 179 220 268
#     4   9  18  30  43  61  92 123 141 172 222 270
#     4  10  20  32  47  65  87 116 150 189 227 267
#     4   8  15  28  44  62  84 111 145 185 226 263
#     4   9  17  28  45  67  88 116 153 186 216 260
#     4   8  14  26  44  65  89 115 144 182 224 260
#     4   9  17  30  48  68  91 119 149 184 224 265
#
# _framework density 16.137201000000001
#
# number of rings (size 3 to 8) (size 9 to 14) (size 15 to 20)
#    0.000    3.143    0.000    1.286    2.000    1.000 
#    0.000    2.857    0.000    3.000    0.000    5.000 
#    0.000    0.000    0.000   15.857    0.000    3.571 
#
# Total GULP energy -1387888.740908 kJ/mol
# GULP energy per Si atom -12391.863758 kJ/mol
# Density = 1.610047 g / cm^3
# Si number density = 16.137201 Si / 1000 Ang^3
#
#
#
# Elastic Constant Matrix: (Units=GPa)
#
#
# Indices 1 2 3 4 5 6 
#
# 1 90.9758 47.7252 49.9901 0.0000 0.0000 0.0000
# 2 47.7252 90.9753 49.9901 0.0000 0.0000 0.0000
# 3 49.9901 49.9901 72.9961 0.0000 0.0000 0.0000
# 4 0.0000 0.0000 0.0000 21.7678 0.0000 0.0000
# 5 0.0000 0.0000 0.0000 0.0000 21.7679 0.0000
# 6 0.0000 0.0000 0.0000 0.0000 0.0000 14.6585
#
#
#
# Elastic Compliance Matrix: (Units=1/GPa)
#
#
# Indices 1 2 3 4 5 6 
#
# 1 0.018680 -0.004441 -0.009751 0.000000 0.000000 0.000000
# 2 -0.004441 0.018680 -0.009751 0.000000 0.000000 0.000000
# 3 -0.009751 -0.009751 0.027055 0.000000 0.000000 0.000000
# 4 0.000000 0.000000 0.000000 0.045939 0.000000 0.000000
# 5 0.000000 0.000000 0.000000 0.000000 0.045939 0.000000
# 6 0.000000 0.000000 0.000000 0.000000 0.000000 0.068220
#
#
# Mechanical properties :
#
#
# Convention : Reuss Voigt Hill
#
# Bulk Modulus (GPa) = 60.50323 61.15088 60.82705
# Shear Modulus (GPa) = 17.99146 18.78830 18.38988
#
# Velocity S-wave (km/s) = 3.34264 3.41586 3.37945
# Velocity P-wave (km/s) = 7.24376 7.31670 7.28032
#
# Compressibility (1/GPa) = 0.01652804
#
# Stress axis : x y z
#
# Youngs Moduli (GPa) = 53.53355 53.53311 36.96160
#
# Poissons Ratio (x) = 0.23775 0.36041
# Poissons Ratio (y) = 0.23776 0.36042
# Poissons Ratio (z) = 0.52201 0.52201
#
# Static dielectric constant tensor:
#      x y z
#    x 3.120750 0.000000 0.000000 
#    y 0.000000 3.120750 0.000000 
#    z 0.000000 0.000000 3.123550 
# 
# 
# High freq. dielectric constant tensor:
#      x y z
#    x 1.609460 0.000000 0.000000 
#    y 0.000000 1.609460 0.000000 
#    z 0.000000 0.000000 1.610960 
# 
# From -- ./inp_files/12226.got.cif
#   From: 2010.03.12/outbox.cif.g09.slc.cpg/sg139_7_cif.got.tgz:12226.got - 2010.04.08 09:46:31.
