data_PCOD8319298
_publ_section_title
;
Structure prediction by ZEFSAII (Michael W. Deem and Ramdas Pophale) SiO2 
 PCOD8319298
Probable space group: I 4/M M M
;
_chemical_formula_sum "Si O2"
_cell_formula_units_Z 160
_cell_length_a 19.531777
_cell_length_b 19.531777
_cell_length_c 28.193584
_cell_angle_alpha 90.000000
_cell_angle_beta 90.000000
_cell_angle_gamma 90.000000
_cell_volume 10755.579178
_symmetry_space_group_name_H-M "I 4/M M M"
_symmetry_group_IT_number 139
_symmetry_cell_setting 'tetragonal'
loop_
_space_group_symop_operation_xyz
x,y,z
-y,x,z
-x,-y,z
y,-x,z
x,-y,-z
-x,y,-z
y,x,-z
-y,-x,-z
-x,-y,-z
y,-x,-z
x,y,-z
-y,x,-z
-x,y,z
x,-y,z
-y,-x,z
y,x,z
1/2+x,1/2+y,1/2+z
1/2-y,1/2+x,1/2+z
1/2-x,1/2-y,1/2+z
1/2+y,1/2-x,1/2+z
1/2+x,1/2-y,1/2-z
1/2-x,1/2+y,1/2-z
1/2+y,1/2+x,1/2-z
1/2-y,1/2-x,1/2-z
1/2-x,1/2-y,1/2-z
1/2+y,1/2-x,1/2-z
1/2+x,1/2+y,1/2-z
1/2-y,1/2+x,1/2-z
1/2-x,1/2+y,1/2+z
1/2+x,1/2-y,1/2+z
1/2-y,1/2-x,1/2+z
1/2+y,1/2+x,1/2+z
loop_
_atom_site_type_symbol
_atom_site_label
_atom_site_fract_x
_atom_site_fract_y
_atom_site_fract_z
Si Si1 0.736982 0.374515 0.193614
Si Si2 0.807861 0.077602 0.789677
Si Si3 0.165816 0.280548 0.146991
Si Si4 0.323169 0.208337 0.948108
Si Si5 0.688650 0.577698 0.904835
O O1 0.690162 0.309839 0.205304
O O2 0.737032 0.419336 0.241439
O O3 0.812520 0.345647 0.179868
O O4 0.706226 0.419032 0.150883
O O5 0.875874 0.124127 0.787622
O O6 0.757861 0.099759 0.832664
O O7 0.831473 0.000000 0.798954
O O8 0.230842 0.230842 0.146148
O O9 0.152109 0.306159 0.092791
O O10 0.262512 0.262512 0.949966
O O11 0.392786 0.248021 0.934933
O O12 0.331412 0.172989 0.000000
O O13 0.675734 0.500000 0.920272
O O14 0.619834 0.619834 0.915864
#
# Coordination Sequence:
#
# PCOD8319298 Si02
#       5
#    32  32  32  32  32
#     4   8  14  25  39  54  74 102 136 173 205 222
#     4  10  18  26  38  57  83 112 136 157 184 225
#     4   8  14  25  41  58  74  95 127 167 205 233
#     4   8  14  25  40  55  70  90 120 165 216 248
#     4   9  16  24  34  51  78 111 142 166 188 220
#
# _framework density 14.875999999999999
#
# number of rings (size 3 to 8) (size 9 to 14) (size 15 to 20)
#    0.000    3.400    0.000    3.600    0.000    3.200 
#    0.000    0.000    0.000    4.200    0.000    2.800 
#    0.000   44.800    0.000   15.000    0.000    0.800 
#
# Total GULP energy -991157.303780 kJ/mol
# GULP energy per Si atom -12389.466297 kJ/mol
# Density = 1.484214 g / cm^3
# Si number density = 14.876000 Si / 1000 Ang^3
#
#
#
# Elastic Constant Matrix: (Units=GPa)
#
#
# Indices 1 2 3 4 5 6 
#
# 1 42.4700 35.2027 34.4470 0.0000 0.0000 0.0000
# 2 35.2027 42.4700 34.4470 0.0000 0.0000 0.0000
# 3 34.4470 34.4470 114.4441 0.0000 0.0000 0.0000
# 4 0.0000 0.0000 0.0000 9.7270 0.0000 0.0000
# 5 0.0000 0.0000 0.0000 0.0000 9.7270 0.0000
# 6 0.0000 0.0000 0.0000 0.0000 0.0000 9.3038
#
#
#
# Elastic Compliance Matrix: (Units=1/GPa)
#
#
# Indices 1 2 3 4 5 6 
#
# 1 0.077583 -0.060019 -0.005287 0.000000 0.000000 0.000000
# 2 -0.060019 0.077583 -0.005287 0.000000 0.000000 0.000000
# 3 -0.005287 -0.005287 0.011920 0.000000 0.000000 0.000000
# 4 0.000000 0.000000 0.000000 0.102807 0.000000 0.000000
# 5 0.000000 0.000000 0.000000 0.000000 0.102807 0.000000
# 6 0.000000 0.000000 0.000000 0.000000 0.000000 0.107483
#
#
# Mechanical properties :
#
#
# Convention : Reuss Voigt Hill
#
# Bulk Modulus (GPa) = 38.60806 45.28641 41.94723
# Shear Modulus (GPa) = 7.93649 12.10403 10.02026
#
# Velocity S-wave (km/s) = 2.31229 2.85557 2.59817
# Velocity P-wave (km/s) = 5.75660 6.43281 6.10408
#
# Compressibility (1/GPa) = 0.02590133
#
# Stress axis : x y z
#
# Youngs Moduli (GPa) = 12.88947 12.88947 83.89034
#
# Poissons Ratio (x) = 0.77361 0.44349
# Poissons Ratio (y) = 0.77361 0.44349
# Poissons Ratio (z) = 0.06814 0.06814
#
# Static dielectric constant tensor:
#      x y z
#    x 2.550510 0.000000 0.000000 
#    y 0.000000 2.550510 0.000000 
#    z 0.000000 0.000000 3.317640 
# 
# 
# High freq. dielectric constant tensor:
#      x y z
#    x 1.528100 0.000000 0.000000 
#    y 0.000000 1.528100 0.000000 
#    z 0.000000 0.000000 1.579200 
# 
# From -- ./inp_files/14034.got.cif
#   From: 2010.03.12/outbox.cif.g09.slc.cpg/sg139_8_cif.got.tgz:14034.got - 2010.04.08 09:46:31.
