data_PCOD8319626
_publ_section_title
;
Structure prediction by ZEFSAII (Michael W. Deem and Ramdas Pophale) SiO2 
 PCOD8319626
Probable space group: I 4/M M M
;
_chemical_formula_sum "Si O2"
_cell_formula_units_Z 240
_cell_length_a 20.812051
_cell_length_b 20.812051
_cell_length_c 27.869430
_cell_angle_alpha 90.000000
_cell_angle_beta 90.000000
_cell_angle_gamma 90.000000
_cell_volume 12071.405790
_symmetry_space_group_name_H-M "I 4/M M M"
_symmetry_group_IT_number 139
_symmetry_cell_setting 'tetragonal'
loop_
_space_group_symop_operation_xyz
x,y,z
-y,x,z
-x,-y,z
y,-x,z
x,-y,-z
-x,y,-z
y,x,-z
-y,-x,-z
-x,-y,-z
y,-x,-z
x,y,-z
-y,x,-z
-x,y,z
x,-y,z
-y,-x,z
y,x,z
1/2+x,1/2+y,1/2+z
1/2-y,1/2+x,1/2+z
1/2-x,1/2-y,1/2+z
1/2+y,1/2-x,1/2+z
1/2+x,1/2-y,1/2-z
1/2-x,1/2+y,1/2-z
1/2+y,1/2+x,1/2-z
1/2-y,1/2-x,1/2-z
1/2-x,1/2-y,1/2-z
1/2+y,1/2-x,1/2-z
1/2+x,1/2+y,1/2-z
1/2-y,1/2+x,1/2-z
1/2-x,1/2+y,1/2+z
1/2+x,1/2-y,1/2+z
1/2-y,1/2-x,1/2+z
1/2+y,1/2+x,1/2+z
loop_
_atom_site_type_symbol
_atom_site_label
_atom_site_fract_x
_atom_site_fract_y
_atom_site_fract_z
Si Si1 0.759453 0.072647 0.402348
Si Si2 0.869844 0.427187 0.204216
Si Si3 0.607468 0.070707 0.399953
Si Si4 0.572053 0.671232 0.723746
Si Si5 0.074486 0.819406 0.114929
Si Si6 0.742208 0.642995 0.807278
Si Si7 0.426508 0.798407 0.552421
Si Si8 0.424163 0.676730 0.000000
O O1 0.683361 0.076588 0.404911
O O2 0.784797 0.112686 0.356748
O O3 0.786056 0.100375 0.452539
O O4 0.783364 0.000000 0.394972
O O5 0.839624 0.500000 0.208595
O O6 0.914296 0.414296 0.250000
O O7 0.912761 0.424542 0.156120
O O8 0.817879 0.369708 0.198159
O O9 0.576062 0.128970 0.428230
O O10 0.585382 0.000000 0.419762
O O11 0.500000 0.668047 0.741793
O O12 0.598805 0.598805 0.723109
O O13 0.578966 0.700880 0.670582
O O14 0.610524 0.714179 0.760329
O O15 0.118786 0.881215 0.102544
O O16 0.102698 0.756973 0.086725
O O17 0.000000 0.836254 0.102002
O O18 0.718160 0.718160 0.807308
O O19 0.392746 0.795499 0.500000
O O20 0.500000 0.780049 0.546781
O O21 0.500000 0.669682 0.000000
O O22 0.394078 0.605923 0.000000
#
# Coordination Sequence:
#
# PCOD8319626 Si02
#       8
#    32  32  32  32  32  32  32  16
#     4   9  18  34  55  78 105 142 183 228 277 325
#     4  10  22  38  57  83 113 147 186 230 276 327
#     4   9  20  38  58  82 110 143 187 230 274 331
#     4   9  17  29  49  76 105 143 183 221 269 323
#     4   9  19  36  57  83 115 150 191 235 283 341
#     4  10  19  33  54  79 110 144 180 223 271 330
#     4  10  22  38  57  82 112 146 182 228 285 335
#     4  10  20  33  52  76 103 139 181 225 276 330
#
# _framework density 19.881694
#
# number of rings (size 3 to 8) (size 9 to 14) (size 15 to 20)
#    0.000    2.533    0.000    2.400    2.800    2.067 
#    0.000    6.667    0.000    0.000    0.000    3.733 
#    0.000    0.000    0.000    0.000    0.000    0.000 
#
# Total GULP energy -1486784.080019 kJ/mol
# GULP energy per Si atom -12389.867333 kJ/mol
# Density = 1.983644 g / cm^3
# Si number density = 19.881694 Si / 1000 Ang^3
#
#
#
# Elastic Constant Matrix: (Units=GPa)
#
#
# Indices 1 2 3 4 5 6 
#
# 1 60.7048 19.3120 32.9865 0.0000 0.0000 0.0000
# 2 19.3120 60.7054 32.9870 0.0000 0.0000 0.0000
# 3 32.9865 32.9870 129.3788 0.0000 0.0000 0.0000
# 4 0.0000 0.0000 0.0000 19.9671 0.0000 0.0000
# 5 0.0000 0.0000 0.0000 0.0000 19.9667 0.0000
# 6 0.0000 0.0000 0.0000 0.0000 0.0000 29.6670
#
#
#
# Elastic Compliance Matrix: (Units=1/GPa)
#
#
# Indices 1 2 3 4 5 6 
#
# 1 0.019991 -0.004167 -0.004034 0.000000 0.000000 0.000000
# 2 -0.004167 0.019991 -0.004034 0.000000 0.000000 0.000000
# 3 -0.004034 -0.004034 0.009787 0.000000 0.000000 0.000000
# 4 0.000000 0.000000 0.000000 0.050082 0.000000 0.000000
# 5 0.000000 0.000000 0.000000 0.000000 0.050083 0.000000
# 6 0.000000 0.000000 0.000000 0.000000 0.000000 0.033708
#
#
# Mechanical properties :
#
#
# Convention : Reuss Voigt Hill
#
# Bulk Modulus (GPa) = 39.53177 46.81777 43.17477
# Shear Modulus (GPa) = 23.08969 24.95372 24.02171
#
# Velocity S-wave (km/s) = 3.41156 3.54660 3.47973
# Velocity P-wave (km/s) = 5.95357 6.35377 6.15692
#
# Compressibility (1/GPa) = 0.02529611
#
# Stress axis : x y z
#
# Youngs Moduli (GPa) = 50.02197 50.02227 102.18149
#
# Poissons Ratio (x) = 0.20847 0.41224
# Poissons Ratio (y) = 0.20846 0.41225
# Poissons Ratio (z) = 0.20181 0.20181
#
# Static dielectric constant tensor:
#      x y z
#    x 3.544330 0.000000 0.000000 
#    y 0.000000 3.544320 0.000000 
#    z 0.000000 0.000000 4.029330 
# 
# 
# High freq. dielectric constant tensor:
#      x y z
#    x 1.758240 0.000000 0.000000 
#    y 0.000000 1.758240 0.000000 
#    z 0.000000 0.000000 1.790670 
# 
# From -- ./inp_files/13424.got.cif
#   From: 2010.03.12/outbox.cif.g09.slc.cpg/sg139_7_cif.got.tgz:13424.got - 2010.04.08 09:46:31.
