data_PCOD8319662
_publ_section_title
;
Structure prediction by ZEFSAII (Michael W. Deem and Ramdas Pophale) SiO2 
 PCOD8319662
Probable space group: I 4/M M M
;
_chemical_formula_sum "Si O2"
_cell_formula_units_Z 144
_cell_length_a 21.632673
_cell_length_b 21.632673
_cell_length_c 17.349274
_cell_angle_alpha 90.000000
_cell_angle_beta 90.000000
_cell_angle_gamma 90.000000
_cell_volume 8118.983840
_symmetry_space_group_name_H-M "I 4/M M M"
_symmetry_group_IT_number 139
_symmetry_cell_setting 'tetragonal'
loop_
_space_group_symop_operation_xyz
x,y,z
-y,x,z
-x,-y,z
y,-x,z
x,-y,-z
-x,y,-z
y,x,-z
-y,-x,-z
-x,-y,-z
y,-x,-z
x,y,-z
-y,x,-z
-x,y,z
x,-y,z
-y,-x,z
y,x,z
1/2+x,1/2+y,1/2+z
1/2-y,1/2+x,1/2+z
1/2-x,1/2-y,1/2+z
1/2+y,1/2-x,1/2+z
1/2+x,1/2-y,1/2-z
1/2-x,1/2+y,1/2-z
1/2+y,1/2+x,1/2-z
1/2-y,1/2-x,1/2-z
1/2-x,1/2-y,1/2-z
1/2+y,1/2-x,1/2-z
1/2+x,1/2+y,1/2-z
1/2-y,1/2+x,1/2-z
1/2-x,1/2+y,1/2+z
1/2+x,1/2-y,1/2+z
1/2-y,1/2-x,1/2+z
1/2+y,1/2+x,1/2+z
loop_
_atom_site_type_symbol
_atom_site_label
_atom_site_fract_x
_atom_site_fract_y
_atom_site_fract_z
Si Si1 0.717381 0.614548 0.687432
Si Si2 0.500000 0.142413 0.585863
Si Si3 0.210666 0.000000 0.911877
Si Si4 0.874569 0.642119 0.162697
Si Si5 0.571137 0.670413 0.000000
Si Si6 0.754080 0.427836 0.144200
O O1 0.673980 0.673980 0.683754
O O2 0.687615 0.560801 0.634036
O O3 0.784120 0.634215 0.654372
O O4 0.723726 0.591567 0.775006
O O5 0.500000 0.116601 0.500000
O O6 0.500000 0.215912 0.589162
O O7 0.437982 0.117659 0.625655
O O8 0.185286 0.000000 0.000000
O O9 0.878906 0.621095 0.250000
O O10 0.816288 0.609249 0.123499
O O11 0.589240 0.707595 0.923643
O O12 0.500000 0.652818 0.000000
O O13 0.606278 0.606278 0.000000
O O14 0.770366 0.500000 0.146784
#
# Coordination Sequence:
#
# PCOD8319662 Si02
#       6
#    32  16  16  32  16  32
#     4  10  19  34  57  82 109 142 181 223 269 321
#     4   9  18  34  55  76 107 147 186 219 264 317
#     4   9  18  34  54  79 113 146 177 215 267 325
#     4   9  20  32  55  80 111 145 185 224 269 318
#     4  10  22  37  56  81 107 139 177 223 280 332
#     4  10  20  36  56  77 109 147 179 219 276 329
#
# _framework density 17.736208999999999
#
# number of rings (size 3 to 8) (size 9 to 14) (size 15 to 20)
#    0.000    2.444    1.111    0.667    6.222    5.444 
#    0.000    0.556    0.000    1.000    0.000    0.778 
#    0.000    0.000    0.000    0.000    0.000    0.000 
#
# Total GULP energy -892777.302975 kJ/mol
# GULP energy per Si atom -12399.684764 kJ/mol
# Density = 1.769584 g / cm^3
# Si number density = 17.736209 Si / 1000 Ang^3
#
#
#
# Elastic Constant Matrix: (Units=GPa)
#
#
# Indices 1 2 3 4 5 6 
#
# 1 100.7002 70.4140 54.0880 0.0000 0.0000 0.0000
# 2 70.4140 100.7002 54.0873 0.0000 0.0000 0.0000
# 3 54.0880 54.0873 99.1399 0.0000 0.0000 0.0000
# 4 0.0000 0.0000 0.0000 13.8310 0.0000 0.0000
# 5 0.0000 0.0000 0.0000 0.0000 13.8311 0.0000
# 6 0.0000 0.0000 0.0000 0.0000 0.0000 12.9871
#
#
#
# Elastic Compliance Matrix: (Units=1/GPa)
#
#
# Indices 1 2 3 4 5 6 
#
# 1 0.020970 -0.012049 -0.004867 0.000000 0.000000 0.000000
# 2 -0.012049 0.020969 -0.004867 0.000000 0.000000 0.000000
# 3 -0.004867 -0.004867 0.015397 0.000000 0.000000 0.000000
# 4 0.000000 0.000000 0.000000 0.072301 0.000000 0.000000
# 5 0.000000 0.000000 0.000000 0.000000 0.072301 0.000000
# 6 0.000000 0.000000 0.000000 0.000000 0.000000 0.076999
#
#
# Mechanical properties :
#
#
# Convention : Reuss Voigt Hill
#
# Bulk Modulus (GPa) = 72.61534 73.07988 72.84761
# Shear Modulus (GPa) = 15.28614 16.25991 15.77302
#
# Velocity S-wave (km/s) = 2.93893 3.03109 2.98537
# Velocity P-wave (km/s) = 7.24894 7.31733 7.28321
#
# Compressibility (1/GPa) = 0.01377120
#
# Stress axis : x y z
#
# Youngs Moduli (GPa) = 47.68791 47.68843 64.94664
#
# Poissons Ratio (x) = 0.57458 0.31610
# Poissons Ratio (y) = 0.57458 0.31608
# Poissons Ratio (z) = 0.23210 0.23209
#
# Static dielectric constant tensor:
#      x y z
#    x 3.237770 0.000000 0.000000 
#    y 0.000000 3.237780 0.000000 
#    z 0.000000 0.000000 3.510550 
# 
# 
# High freq. dielectric constant tensor:
#      x y z
#    x 1.675240 0.000000 0.000000 
#    y 0.000000 1.675240 0.000000 
#    z 0.000000 0.000000 1.696040 
# 
# From -- ./inp_files/8248.got.cif
#   From: 2010.03.12/outbox.cif.g09.slc.cpg/sg139_5_cif.got.tgz:8248.got - 2010.04.08 09:46:31.
