data_PCOD8319412
_publ_section_title
;
Structure prediction by ZEFSAII (Michael W. Deem and Ramdas Pophale) SiO2 
 PCOD8319412
Probable space group: I 4/M M M
;
_chemical_formula_sum "Si O2"
_cell_formula_units_Z 176
_cell_length_a 26.823764
_cell_length_b 26.823764
_cell_length_c 13.981137
_cell_angle_alpha 90.000000
_cell_angle_beta 90.000000
_cell_angle_gamma 90.000000
_cell_volume 10059.628213
_symmetry_space_group_name_H-M "I 4/M M M"
_symmetry_group_IT_number 139
_symmetry_cell_setting 'tetragonal'
loop_
_space_group_symop_operation_xyz
x,y,z
-y,x,z
-x,-y,z
y,-x,z
x,-y,-z
-x,y,-z
y,x,-z
-y,-x,-z
-x,-y,-z
y,-x,-z
x,y,-z
-y,x,-z
-x,y,z
x,-y,z
-y,-x,z
y,x,z
1/2+x,1/2+y,1/2+z
1/2-y,1/2+x,1/2+z
1/2-x,1/2-y,1/2+z
1/2+y,1/2-x,1/2+z
1/2+x,1/2-y,1/2-z
1/2-x,1/2+y,1/2-z
1/2+y,1/2+x,1/2-z
1/2-y,1/2-x,1/2-z
1/2-x,1/2-y,1/2-z
1/2+y,1/2-x,1/2-z
1/2+x,1/2+y,1/2-z
1/2-y,1/2+x,1/2-z
1/2-x,1/2+y,1/2+z
1/2+x,1/2-y,1/2+z
1/2-y,1/2-x,1/2+z
1/2+y,1/2+x,1/2+z
loop_
_atom_site_type_symbol
_atom_site_label
_atom_site_fract_x
_atom_site_fract_y
_atom_site_fract_z
Si Si1 0.359457 0.121019 0.500000
Si Si2 0.680124 0.760191 0.000000
Si Si3 0.793324 0.872443 0.672162
Si Si4 0.055891 0.730961 0.796006
Si Si5 0.942365 0.627883 0.690723
Si Si6 0.129042 0.053416 0.389956
Si Si7 0.196630 0.555858 0.500000
O O1 0.319278 0.167523 0.500000
O O2 0.356247 0.086039 0.406554
O O3 0.412571 0.146581 0.500000
O O4 0.654749 0.741288 0.903602
O O5 0.738190 0.738190 0.000000
O O6 0.832960 0.832960 0.716014
O O7 0.762970 0.898311 0.756305
O O8 0.819788 0.916840 0.615530
O O9 0.060173 0.674958 0.759709
O O10 0.065498 0.731563 0.908954
O O11 0.000000 0.751897 0.771590
O O12 0.917261 0.582740 0.750000
O O13 0.000000 0.613736 0.667289
O O14 0.116243 0.045626 0.500000
O O15 0.084420 0.084420 0.339892
O O16 0.133671 0.000000 0.337905
O O17 0.175605 0.500000 0.500000
#
# Coordination Sequence:
#
# PCOD8319412 Si02
#       7
#    16  16  32  32  32  32  16
#     4  12  21  38  62  85 116 141 186 230 272 330
#     4  10  20  33  51  80 115 148 176 218 280 327
#     4  10  18  32  51  75 106 140 177 223 273 320
#     4  10  20  36  56  79 105 142 183 220 270 329
#     4  11  23  38  58  84 113 144 184 230 281 332
#     4   9  16  25  39  63  97 136 174 213 258 312
#     4  10  22  39  61  79 103 141 177 217 273 335
#
# _framework density 17.495676
#
# number of rings (size 3 to 8) (size 9 to 14) (size 15 to 20)
#    0.000    1.818    4.545    0.818    0.000    0.364 
#    0.000    2.273    0.000    4.909    0.000    0.000 
#    0.000    0.000    0.000    0.000    0.000   54.545 
#
# Total GULP energy -1090261.250822 kJ/mol
# GULP energy per Si atom -12389.332396 kJ/mol
# Density = 1.745586 g / cm^3
# Si number density = 17.495676 Si / 1000 Ang^3
#
#
#
# Elastic Constant Matrix: (Units=GPa)
#
#
# Indices 1 2 3 4 5 6 
#
# 1 86.4965 46.2934 34.2496 0.0000 0.0000 0.0000
# 2 46.2934 86.4972 34.2502 0.0000 0.0000 0.0000
# 3 34.2496 34.2502 93.3036 0.0000 0.0000 0.0000
# 4 0.0000 0.0000 0.0000 14.6049 0.0000 0.0000
# 5 0.0000 0.0000 0.0000 0.0000 14.6043 0.0000
# 6 0.0000 0.0000 0.0000 0.0000 0.0000 23.0262
#
#
#
# Elastic Compliance Matrix: (Units=1/GPa)
#
#
# Indices 1 2 3 4 5 6 
#
# 1 0.017082 -0.007792 -0.003410 0.000000 0.000000 0.000000
# 2 -0.007792 0.017082 -0.003410 0.000000 0.000000 0.000000
# 3 -0.003410 -0.003410 0.013221 0.000000 0.000000 0.000000
# 4 0.000000 0.000000 0.000000 0.068470 0.000000 0.000000
# 5 0.000000 0.000000 0.000000 0.000000 0.068473 0.000000
# 6 0.000000 0.000000 0.000000 0.000000 0.000000 0.043429
#
#
# Mechanical properties :
#
#
# Convention : Reuss Voigt Hill
#
# Bulk Modulus (GPa) = 55.06478 55.09819 55.08148
# Shear Modulus (GPa) = 19.00895 20.54735 19.77815
#
# Velocity S-wave (km/s) = 3.29978 3.43071 3.36588
# Velocity P-wave (km/s) = 6.78673 6.87414 6.83058
#
# Compressibility (1/GPa) = 0.01816043
#
# Stress axis : x y z
#
# Youngs Moduli (GPa) = 58.54235 58.54260 75.63575
#
# Poissons Ratio (x) = 0.45615 0.25792
# Poissons Ratio (y) = 0.45615 0.25793
# Poissons Ratio (z) = 0.19963 0.19964
#
# Static dielectric constant tensor:
#      x y z
#    x 3.404000 0.000000 0.000000 
#    y 0.000000 3.403990 0.000000 
#    z 0.000000 0.000000 3.188600 
# 
# 
# High freq. dielectric constant tensor:
#      x y z
#    x 1.675520 0.000000 0.000000 
#    y 0.000000 1.675520 0.000000 
#    z 0.000000 0.000000 1.658070 
# 
# From -- ./inp_files/4084.got.cif
#   From: 2010.03.12/outbox.cif.g09.slc.cpg/sg139_3_cif.got.tgz:4084.got - 2010.04.08 09:46:31.
