data_PCOD8319771
_publ_section_title
;
Structure prediction by ZEFSAII (Michael W. Deem and Ramdas Pophale) SiO2 
 PCOD8319771
Probable space group: I 4/M M M
;
_chemical_formula_sum "Si O2"
_cell_formula_units_Z 144
_cell_length_a 18.597494
_cell_length_b 18.597494
_cell_length_c 20.966358
_cell_angle_alpha 90.000000
_cell_angle_beta 90.000000
_cell_angle_gamma 90.000000
_cell_volume 7251.566794
_symmetry_space_group_name_H-M "I 4/M M M"
_symmetry_group_IT_number 139
_symmetry_cell_setting 'tetragonal'
loop_
_space_group_symop_operation_xyz
x,y,z
-y,x,z
-x,-y,z
y,-x,z
x,-y,-z
-x,y,-z
y,x,-z
-y,-x,-z
-x,-y,-z
y,-x,-z
x,y,-z
-y,x,-z
-x,y,z
x,-y,z
-y,-x,z
y,x,z
1/2+x,1/2+y,1/2+z
1/2-y,1/2+x,1/2+z
1/2-x,1/2-y,1/2+z
1/2+y,1/2-x,1/2+z
1/2+x,1/2-y,1/2-z
1/2-x,1/2+y,1/2-z
1/2+y,1/2+x,1/2-z
1/2-y,1/2-x,1/2-z
1/2-x,1/2-y,1/2-z
1/2+y,1/2-x,1/2-z
1/2+x,1/2+y,1/2-z
1/2-y,1/2+x,1/2-z
1/2-x,1/2+y,1/2+z
1/2+x,1/2-y,1/2+z
1/2-y,1/2-x,1/2+z
1/2+y,1/2+x,1/2+z
loop_
_atom_site_type_symbol
_atom_site_label
_atom_site_fract_x
_atom_site_fract_y
_atom_site_fract_z
Si Si1 0.343618 0.917631 0.370957
Si Si2 0.700560 0.582211 0.189941
Si Si3 0.585124 0.081286 0.000000
Si Si4 0.915996 0.706438 0.811002
Si Si5 0.418038 0.698716 0.571118
O O1 0.256582 0.911324 0.369189
O O2 0.375072 0.889176 0.437906
O O3 0.375463 0.870367 0.312650
O O4 0.366503 0.000000 0.357801
O O5 0.673471 0.500000 0.197546
O O6 0.631949 0.631949 0.176909
O O7 0.742429 0.608459 0.253294
O O8 0.500000 0.075952 0.000000
O O9 0.618144 0.000000 0.000000
O O10 0.892877 0.743612 0.877249
O O11 0.000000 0.690612 0.805922
O O12 0.407510 0.732032 0.500000
O O13 0.500000 0.676441 0.583585
O O14 0.373964 0.626037 0.579399
#
# Coordination Sequence:
#
# PCOD8319771 Si02
#       5
#    32  32  16  32  32
#     4  10  21  36  56  83 113 148 190 231 276 337
#     4  10  22  40  60  83 111 146 190 241 295 345
#     4   9  18  34  57  84 115 151 187 222 265 322
#     4  10  20  33  53  80 113 150 187 230 280 334
#     4   9  18  31  47  71 104 142 187 237 285 335
#
# _framework density 19.857776999999999
#
# number of rings (size 3 to 8) (size 9 to 14) (size 15 to 20)
#    0.000    2.333    0.000    2.000    1.556    4.444 
#    0.000    2.778    0.000   12.000    0.000    0.000 
#    0.000    4.444    0.000    0.000    0.000    0.000 
#
# Total GULP energy -892611.845532 kJ/mol
# GULP energy per Si atom -12397.386744 kJ/mol
# Density = 1.981258 g / cm^3
# Si number density = 19.857777 Si / 1000 Ang^3
#
#
#
# Elastic Constant Matrix: (Units=GPa)
#
#
# Indices 1 2 3 4 5 6 
#
# 1 86.5234 50.7641 39.5440 0.0000 0.0000 0.0000
# 2 50.7641 86.5234 39.5440 0.0000 0.0000 0.0000
# 3 39.5440 39.5440 85.8111 0.0000 0.0000 0.0000
# 4 0.0000 0.0000 0.0000 25.4453 0.0000 0.0000
# 5 0.0000 0.0000 0.0000 0.0000 25.4453 0.0000
# 6 0.0000 0.0000 0.0000 0.0000 0.0000 35.6630
#
#
#
# Elastic Compliance Matrix: (Units=1/GPa)
#
#
# Indices 1 2 3 4 5 6 
#
# 1 0.018941 -0.009024 -0.004570 0.000000 0.000000 0.000000
# 2 -0.009024 0.018941 -0.004570 0.000000 0.000000 0.000000
# 3 -0.004570 -0.004570 0.015865 0.000000 0.000000 0.000000
# 4 0.000000 0.000000 0.000000 0.039300 0.000000 0.000000
# 5 0.000000 0.000000 0.000000 0.000000 0.039300 0.000000
# 6 0.000000 0.000000 0.000000 0.000000 0.000000 0.028040
#
#
# Mechanical properties :
#
#
# Convention : Reuss Voigt Hill
#
# Bulk Modulus (GPa) = 57.40810 57.61801 57.51306
# Shear Modulus (GPa) = 24.68885 25.91111 25.29998
#
# Velocity S-wave (km/s) = 3.52985 3.61617 3.57327
# Velocity P-wave (km/s) = 6.75170 6.82011 6.78599
#
# Compressibility (1/GPa) = 0.01741914
#
# Stress axis : x y z
#
# Youngs Moduli (GPa) = 52.79654 52.79654 63.03077
#
# Poissons Ratio (x) = 0.47644 0.28804
# Poissons Ratio (y) = 0.47644 0.28804
# Poissons Ratio (z) = 0.24127 0.24127
#
# Static dielectric constant tensor:
#      x y z
#    x 3.479620 0.000000 0.000000 
#    y 0.000000 3.479620 0.000000 
#    z 0.000000 0.000000 3.812390 
# 
# 
# High freq. dielectric constant tensor:
#      x y z
#    x 1.765610 0.000000 0.000000 
#    y 0.000000 1.765610 0.000000 
#    z 0.000000 0.000000 1.774460 
# 
# From -- ./inp_files/11448.got.cif
#   From: 2010.03.12/outbox.cif.g09.slc.cpg/sg139_6_cif.got.tgz:11448.got - 2010.04.08 09:46:31.
