data_PCOD8319134
_publ_section_title
;
Structure prediction by ZEFSAII (Michael W. Deem and Ramdas Pophale) SiO2 
 PCOD8319134
Probable space group: P 42/N C M
;
_chemical_formula_sum "Si O2"
_cell_formula_units_Z 64
_cell_length_a 11.503043
_cell_length_b 11.503043
_cell_length_c 21.892047
_cell_angle_alpha 90.000000
_cell_angle_beta 90.000000
_cell_angle_gamma 90.000000
_cell_volume 2896.755621
_symmetry_space_group_name_H-M "P 42/N C M"
_symmetry_group_IT_number 138
_space_group.IT_coordinate_system_code '2'
_symmetry_cell_setting 'tetragonal'
loop_
_space_group_symop_operation_xyz
x,y,z
1/2-y,x,1/2+z
1/2-x,1/2-y,z
y,1/2-x,1/2+z
1/2+x,-y,1/2-z
-x,1/2+y,1/2-z
1/2+y,1/2+x,-z
-y,-x,-z
-x,-y,-z
1/2+y,-x,1/2-z
1/2+x,1/2+y,-z
-y,1/2+x,1/2-z
1/2-x,y,1/2+z
x,1/2-y,1/2+z
1/2-y,1/2-x,z
y,x,z
loop_
_atom_site_type_symbol
_atom_site_label
_atom_site_fract_x
_atom_site_fract_y
_atom_site_fract_z
Si Si1 0.676622 0.012035 0.735082
Si Si2 0.347712 0.347712 0.322355
Si Si3 0.151916 0.151916 0.459868
Si Si4 0.124054 0.714848 0.347689
Si Si5 0.510835 0.316131 0.028142
O O1 0.589296 0.910705 0.753627
O O2 0.800494 0.958576 0.714497
O O3 0.694888 0.091863 0.794210
O O4 0.624547 0.084288 0.678689
O O5 0.250000 0.250000 0.327255
O O6 0.383324 0.383324 0.391105
O O7 0.250000 0.250000 0.461168
O O8 0.034959 0.202018 0.492056
O O9 0.250000 0.750000 0.372727
O O10 0.032301 0.722216 0.402307
O O11 0.412485 0.412485 0.026448
O O12 0.630013 0.369988 0.000000
#
# Coordination Sequence:
#
# PCOD8319134 Si02
#       5
#    16   8   8  16  16
#     4  11  23  40  63  94 127 173 216 268 326 383
#     4   9  20  38  65  95 128 165 214 264 316 388
#     4   9  18  38  63  99 131 162 217 271 319 393
#     4  12  24  42  61  90 130 168 215 268 328 388
#     4  10  22  40  66  94 125 172 213 267 331 395
#
# _framework density 22.093682000000001
#
# number of rings (size 3 to 8) (size 9 to 14) (size 15 to 20)
#    0.000    1.500    2.500    2.250    5.250    4.500 
#    0.000    0.000    0.000    3.000    0.000    0.000 
#    0.000    0.000    0.000    0.000    0.000    0.000 
#
# Total GULP energy -793836.314211 kJ/mol
# GULP energy per Si atom -12403.692410 kJ/mol
# Density = 2.204340 g / cm^3
# Si number density = 22.093682 Si / 1000 Ang^3
#
#
#
# Elastic Constant Matrix: (Units=GPa)
#
#
# Indices 1 2 3 4 5 6 
#
# 1 69.1326 25.0835 17.3299 0.0000 0.0000 0.0000
# 2 25.0835 69.1326 17.3291 0.0000 0.0000 0.0000
# 3 17.3299 17.3291 89.3029 0.0000 0.0000 0.0000
# 4 0.0000 0.0000 0.0000 32.5997 0.0000 0.0000
# 5 0.0000 0.0000 0.0000 0.0000 32.5999 0.0000
# 6 0.0000 0.0000 0.0000 0.0000 0.0000 32.7971
#
#
#
# Elastic Compliance Matrix: (Units=1/GPa)
#
#
# Indices 1 2 3 4 5 6 
#
# 1 0.017066 -0.005636 -0.002218 0.000000 0.000000 0.000000
# 2 -0.005636 0.017066 -0.002218 0.000000 0.000000 0.000000
# 3 -0.002218 -0.002218 0.012059 0.000000 0.000000 0.000000
# 4 0.000000 0.000000 0.000000 0.030675 0.000000 0.000000
# 5 0.000000 0.000000 0.000000 0.000000 0.030675 0.000000
# 6 0.000000 0.000000 0.000000 0.000000 0.000000 0.030490
#
#
# Mechanical properties :
#
#
# Convention : Reuss Voigt Hill
#
# Bulk Modulus (GPa) = 38.39311 38.56145 38.47728
# Shear Modulus (GPa) = 29.96575 30.78772 30.37674
#
# Velocity S-wave (km/s) = 3.68680 3.73702 3.71200
# Velocity P-wave (km/s) = 5.96141 6.00932 5.98542
#
# Compressibility (1/GPa) = 0.02604634
#
# Stress axis : x y z
#
# Youngs Moduli (GPa) = 58.59634 58.59658 82.92797
#
# Poissons Ratio (x) = 0.33025 0.18394
# Poissons Ratio (y) = 0.33025 0.18392
# Poissons Ratio (z) = 0.12997 0.12996
#
# Static dielectric constant tensor:
#      x y z
#    x 3.946540 0.000000 0.000000 
#    y 0.000000 3.946540 0.000000 
#    z 0.000000 0.000000 3.869190 
# 
# 
# High freq. dielectric constant tensor:
#      x y z
#    x 1.866010 0.000000 0.000000 
#    y 0.000000 1.866010 0.000000 
#    z 0.000000 0.000000 1.868050 
# 
# From -- ./inp_files/6769.got.cif
#   From: 2010.03.12/outbox.cif.g09.slc.cpg/sg138_4_cif.got.tgz:6769.got - 2010.04.08 09:41:05.
