data_PCOD8319629
_publ_section_title
;
Structure prediction by ZEFSAII (Michael W. Deem and Ramdas Pophale) SiO2 
 PCOD8319629
Probable space group: I 4/M M M
;
_chemical_formula_sum "Si O2"
_cell_formula_units_Z 240
_cell_length_a 20.638008
_cell_length_b 20.638008
_cell_length_c 27.778521
_cell_angle_alpha 90.000000
_cell_angle_beta 90.000000
_cell_angle_gamma 90.000000
_cell_volume 11831.632509
_symmetry_space_group_name_H-M "I 4/M M M"
_symmetry_group_IT_number 139
_symmetry_cell_setting 'tetragonal'
loop_
_space_group_symop_operation_xyz
x,y,z
-y,x,z
-x,-y,z
y,-x,z
x,-y,-z
-x,y,-z
y,x,-z
-y,-x,-z
-x,-y,-z
y,-x,-z
x,y,-z
-y,x,-z
-x,y,z
x,-y,z
-y,-x,z
y,x,z
1/2+x,1/2+y,1/2+z
1/2-y,1/2+x,1/2+z
1/2-x,1/2-y,1/2+z
1/2+y,1/2-x,1/2+z
1/2+x,1/2-y,1/2-z
1/2-x,1/2+y,1/2-z
1/2+y,1/2+x,1/2-z
1/2-y,1/2-x,1/2-z
1/2-x,1/2-y,1/2-z
1/2+y,1/2-x,1/2-z
1/2+x,1/2+y,1/2-z
1/2-y,1/2+x,1/2-z
1/2-x,1/2+y,1/2+z
1/2+x,1/2-y,1/2+z
1/2-y,1/2-x,1/2+z
1/2+y,1/2+x,1/2+z
loop_
_atom_site_type_symbol
_atom_site_label
_atom_site_fract_x
_atom_site_fract_y
_atom_site_fract_z
Si Si1 0.575077 0.191476 0.053112
Si Si2 0.816889 0.923485 0.386876
Si Si3 0.875183 0.228807 0.901481
Si Si4 0.824140 0.073568 0.805078
Si Si5 0.075147 0.367067 0.895351
Si Si6 0.574318 0.325436 0.500000
Si Si7 0.888620 0.573727 0.198768
Si Si8 0.424467 0.746620 0.212556
O O1 0.500000 0.204012 0.047565
O O2 0.600870 0.252188 0.084957
O O3 0.581723 0.119022 0.075601
O O4 0.608153 0.193338 0.000000
O O5 0.878920 0.878920 0.401830
O O6 0.803729 0.911571 0.330347
O O7 0.832427 0.000000 0.396585
O O8 0.803191 0.196810 0.895817
O O9 0.920671 0.206823 0.857684
O O10 0.877211 0.305623 0.900637
O O11 0.904701 0.211895 0.952654
O O12 0.893550 0.106451 0.804906
O O13 0.779483 0.104982 0.763013
O O14 0.837357 0.000000 0.792086
O O15 0.069216 0.386168 0.839505
O O16 0.000000 0.359329 0.914649
O O17 0.500000 0.336420 0.500000
O O18 0.603216 0.396785 0.500000
O O19 0.885990 0.500000 0.180565
O O20 0.923409 0.576592 0.250000
O O21 0.816952 0.605767 0.200997
O O22 0.500000 0.759345 0.220186
#
# Coordination Sequence:
#
# PCOD8319629 Si02
#       8
#    32  32  32  32  32  16  32  32
#     4  10  23  43  63  87 121 161 205 252 310 377
#     4  10  20  38  64  93 127 168 213 262 315 371
#     4  10  23  41  58  82 115 152 196 244 298 362
#     4  10  19  33  54  80 112 151 194 242 296 352
#     4  12  24  39  63  91 120 157 202 253 305 363
#     4  10  20  37  60  82 111 147 185 237 294 350
#     4  11  22  37  58  87 123 161 203 249 302 367
#     4   9  18  35  56  79 115 160 200 241 296 362
#
# _framework density 20.284606
#
# number of rings (size 3 to 8) (size 9 to 14) (size 15 to 20)
#    0.000    1.733    1.333    3.200    0.933    4.200 
#    0.000    0.667    0.000    7.600    0.000    1.867 
#    0.000    0.000    0.000    0.000    0.000    0.000 
#
# Total GULP energy -1487111.180332 kJ/mol
# GULP energy per Si atom -12392.593169 kJ/mol
# Density = 2.023844 g / cm^3
# Si number density = 20.284606 Si / 1000 Ang^3
#
#
#
# Elastic Constant Matrix: (Units=GPa)
#
#
# Indices 1 2 3 4 5 6 
#
# 1 94.9165 9.3200 27.1427 0.0000 0.0000 0.0000
# 2 9.3200 94.9356 27.1554 0.0000 0.0000 0.0000
# 3 27.1427 27.1554 137.3653 0.0000 0.0000 0.0000
# 4 0.0000 0.0000 0.0000 25.8663 0.0000 0.0000
# 5 0.0000 0.0000 0.0000 0.0000 25.8661 0.0000
# 6 0.0000 0.0000 0.0000 0.0000 0.0000 21.4769
#
#
#
# Elastic Compliance Matrix: (Units=1/GPa)
#
#
# Indices 1 2 3 4 5 6 
#
# 1 0.011188 -0.000494 -0.002113 0.000000 0.000000 0.000000
# 2 -0.000494 0.011187 -0.002114 0.000000 0.000000 0.000000
# 3 -0.002113 -0.002114 0.008115 0.000000 0.000000 0.000000
# 4 0.000000 0.000000 0.000000 0.038660 0.000000 0.000000
# 5 0.000000 0.000000 0.000000 0.000000 0.038661 0.000000
# 6 0.000000 0.000000 0.000000 0.000000 0.000000 0.046562
#
#
# Mechanical properties :
#
#
# Convention : Reuss Voigt Hill
#
# Bulk Modulus (GPa) = 47.50953 50.49484 49.00219
# Shear Modulus (GPa) = 29.26872 32.21515 30.74194
#
# Velocity S-wave (km/s) = 3.80268 3.98949 3.89720
# Velocity P-wave (km/s) = 6.53856 6.79475 6.66789
#
# Compressibility (1/GPa) = 0.02104841
#
# Stress axis : x y z
#
# Youngs Moduli (GPa) = 89.37866 89.39273 123.22429
#
# Poissons Ratio (x) = 0.04416 0.26039
# Poissons Ratio (y) = 0.04415 0.26048
# Poissons Ratio (z) = 0.18887 0.18896
#
# Static dielectric constant tensor:
#      x y z
#    x 3.755220 0.000000 0.000000 
#    y 0.000000 3.754750 0.000000 
#    z 0.000000 0.000000 3.873050 
# 
# 
# High freq. dielectric constant tensor:
#      x y z
#    x 1.780460 0.000000 0.000000 
#    y 0.000000 1.780460 0.000000 
#    z 0.000000 0.000000 1.805840 
# 
# From -- ./inp_files/13407.got.cif
#   From: 2010.03.12/outbox.cif.g09.slc.cpg/sg139_7_cif.got.tgz:13407.got - 2010.04.08 09:46:31.
