data_PCOD8319374
_publ_section_title
;
Structure prediction by ZEFSAII (Michael W. Deem and Ramdas Pophale) SiO2 
 PCOD8319374
Probable space group: I 4/M M M
;
_chemical_formula_sum "Si O2"
_cell_formula_units_Z 192
_cell_length_a 25.566762
_cell_length_b 25.566762
_cell_length_c 17.961584
_cell_angle_alpha 90.000000
_cell_angle_beta 90.000000
_cell_angle_gamma 90.000000
_cell_volume 11740.756769
_symmetry_space_group_name_H-M "I 4/M M M"
_symmetry_group_IT_number 139
_symmetry_cell_setting 'tetragonal'
loop_
_space_group_symop_operation_xyz
x,y,z
-y,x,z
-x,-y,z
y,-x,z
x,-y,-z
-x,y,-z
y,x,-z
-y,-x,-z
-x,-y,-z
y,-x,-z
x,y,-z
-y,x,-z
-x,y,z
x,-y,z
-y,-x,z
y,x,z
1/2+x,1/2+y,1/2+z
1/2-y,1/2+x,1/2+z
1/2-x,1/2-y,1/2+z
1/2+y,1/2-x,1/2+z
1/2+x,1/2-y,1/2-z
1/2-x,1/2+y,1/2-z
1/2+y,1/2+x,1/2-z
1/2-y,1/2-x,1/2-z
1/2-x,1/2-y,1/2-z
1/2+y,1/2-x,1/2-z
1/2+x,1/2+y,1/2-z
1/2-y,1/2+x,1/2-z
1/2-x,1/2+y,1/2+z
1/2+x,1/2-y,1/2+z
1/2-y,1/2-x,1/2+z
1/2+y,1/2+x,1/2+z
loop_
_atom_site_type_symbol
_atom_site_label
_atom_site_fract_x
_atom_site_fract_y
_atom_site_fract_z
Si Si1 0.263621 0.263621 0.411280
Si Si2 0.151224 0.151224 0.911143
Si Si3 0.323667 0.091141 0.083873
Si Si4 0.366294 0.054118 0.775744
Si Si5 0.148999 0.709647 0.585147
Si Si6 0.757943 0.557953 0.807407
Si Si7 0.062208 0.215078 0.152310
O O1 0.265416 0.265416 0.500000
O O2 0.305937 0.305937 0.382114
O O3 0.205465 0.275223 0.381517
O O4 0.165092 0.093548 0.879255
O O5 0.149246 0.149246 0.000000
O O6 0.357836 0.053352 0.135508
O O7 0.352205 0.147178 0.090171
O O8 0.263931 0.090680 0.111728
O O9 0.325347 0.070208 0.000000
O O10 0.396207 0.103794 0.750000
O O11 0.311700 0.055925 0.735782
O O12 0.395854 0.000000 0.755472
O O13 0.142657 0.728398 0.500000
O O14 0.102886 0.739159 0.630176
O O15 0.746994 0.500000 0.843113
O O16 0.715820 0.570064 0.742283
O O17 0.000000 0.212773 0.132688
#
# Coordination Sequence:
#
# PCOD8319374 Si02
#       7
#    16  16  32  32  32  32  32
#     4   9  18  31  45  71 104 128 152 194 246 295
#     4  11  20  33  51  74 106 135 163 205 256 301
#     4  10  18  30  49  70  92 121 156 196 241 288
#     4  10  19  31  46  62  84 114 152 197 240 286
#     4  10  18  30  50  72  98 130 161 196 243 296
#     4   9  19  34  49  68  96 127 163 205 240 285
#     4  10  21  34  50  73 100 131 166 204 248 297
#
# _framework density 16.353289
#
# number of rings (size 3 to 8) (size 9 to 14) (size 15 to 20)
#    0.000    2.167    3.333    2.000    0.000    3.500 
#    0.000    0.833    0.000    0.750    0.000    1.750 
#    0.000    0.000    0.000    0.000    0.000    0.000 
#
# Total GULP energy -1189265.430723 kJ/mol
# GULP energy per Si atom -12388.181570 kJ/mol
# Density = 1.631607 g / cm^3
# Si number density = 16.353289 Si / 1000 Ang^3
#
#
#
# Elastic Constant Matrix: (Units=GPa)
#
#
# Indices 1 2 3 4 5 6 
#
# 1 69.0407 24.3612 28.2328 0.0000 0.0000 0.0000
# 2 24.3612 69.0394 28.2313 0.0000 0.0000 0.0000
# 3 28.2328 28.2313 73.1035 0.0000 0.0000 0.0000
# 4 0.0000 0.0000 0.0000 22.7170 0.0000 0.0000
# 5 0.0000 0.0000 0.0000 0.0000 22.7167 0.0000
# 6 0.0000 0.0000 0.0000 0.0000 0.0000 -23.1588
#
#
#
# Elastic Compliance Matrix: (Units=1/GPa)
#
#
# Indices 1 2 3 4 5 6 
#
# 1 0.018175 -0.004207 -0.005394 0.000000 0.000000 0.000000
# 2 -0.004207 0.018175 -0.005394 0.000000 0.000000 0.000000
# 3 -0.005394 -0.005394 0.017846 0.000000 0.000000 0.000000
# 4 0.000000 0.000000 0.000000 0.044020 0.000000 0.000000
# 5 0.000000 0.000000 0.000000 0.000000 0.044021 0.000000
# 6 0.000000 0.000000 0.000000 0.000000 0.000000 -0.043180
#
#
# Mechanical properties :
#
#
# Convention : Reuss Voigt Hill
#
# Bulk Modulus (GPa) = 41.31559 41.42603 41.37081
# Shear Modulus (GPa) = 36.46590 13.14551 24.80571
#
# Velocity S-wave (km/s) = 4.72729 2.83829 3.89892
# Velocity P-wave (km/s) = 7.42398 6.01067 6.75439
#
# Compressibility (1/GPa) = 0.02420394
#
# Stress axis : x y z
#
# Youngs Moduli (GPa) = 55.02161 55.02147 56.03625
#
# Poissons Ratio (x) = 0.23149 0.30228
# Poissons Ratio (y) = 0.23149 0.30225
# Poissons Ratio (z) = 0.29681 0.29678
#
# Static dielectric constant tensor:
#      x y z
#    x 2.993860 0.000000 0.000000 
#    y 0.000000 2.993860 0.000000 
#    z 0.000000 0.000000 3.057440 
# 
# 
# High freq. dielectric constant tensor:
#      x y z
#    x 1.609560 0.000000 0.000000 
#    y 0.000000 1.609560 0.000000 
#    z 0.000000 0.000000 1.623660 
# 
# From -- ./inp_files/6503.got.cif
#   From: 2010.03.12/outbox.cif.g09.slc.cpg/sg139_4_cif.got.tgz:6503.got - 2010.04.08 09:46:31.
