data_PCOD8319063
_publ_section_title
;
Structure prediction by ZEFSAII (Michael W. Deem and Ramdas Pophale) SiO2 
 PCOD8319063
Probable space group: P 42/N C M
;
_chemical_formula_sum "Si O2"
_cell_formula_units_Z 80
_cell_length_a 10.692062
_cell_length_b 10.692062
_cell_length_c 32.303807
_cell_angle_alpha 90.000000
_cell_angle_beta 90.000000
_cell_angle_gamma 90.000000
_cell_volume 3692.977348
_symmetry_space_group_name_H-M "P 42/N C M"
_symmetry_group_IT_number 138
_space_group.IT_coordinate_system_code '2'
_symmetry_cell_setting 'tetragonal'
loop_
_space_group_symop_operation_xyz
x,y,z
1/2-y,x,1/2+z
1/2-x,1/2-y,z
y,1/2-x,1/2+z
1/2+x,-y,1/2-z
-x,1/2+y,1/2-z
1/2+y,1/2+x,-z
-y,-x,-z
-x,-y,-z
1/2+y,-x,1/2-z
1/2+x,1/2+y,-z
-y,1/2+x,1/2-z
1/2-x,y,1/2+z
x,1/2-y,1/2+z
1/2-y,1/2-x,z
y,x,z
loop_
_atom_site_type_symbol
_atom_site_label
_atom_site_fract_x
_atom_site_fract_y
_atom_site_fract_z
Si Si1 0.496579 0.697106 0.499413
Si Si2 0.359734 0.647981 0.356436
Si Si3 0.479529 0.289053 0.909139
Si Si4 0.900750 0.387862 0.236612
Si Si5 0.184777 0.503769 0.585177
O O1 0.355981 0.644020 0.500000
O O2 0.590715 0.590715 0.483934
O O3 0.536686 0.745174 0.543963
O O4 0.498675 0.801898 0.464399
O O5 0.250000 0.750000 0.351343
O O6 0.318049 0.516589 0.376827
O O7 0.419212 0.619113 0.312404
O O8 0.468097 0.693039 0.387934
O O9 0.347337 0.347337 0.895141
O O10 0.587348 0.389153 0.905320
O O11 0.927357 0.245447 0.253889
O O12 0.005384 0.494617 0.252206
O O13 0.129862 0.370139 0.599430
#
# Coordination Sequence:
#
# PCOD8319063 Si02
#       5
#    16  16  16  16  16
#     4  11  22  35  52  77 119 170 213 258 315 375
#     4  10  20  40  64  94 124 165 210 268 333 397
#     4  10  21  36  59  88 118 160 214 264 315 379
#     4  11  25  48  76 106 142 181 224 282 351 427
#     4  10  21  36  59  88 118 160 214 264 315 379
#
# _framework density 21.662735999999999
#
# number of rings (size 3 to 8) (size 9 to 14) (size 15 to 20)
#    0.000    1.600    4.000    1.200    0.000    7.600 
#    0.000    0.000    0.000    0.000    0.000    0.000 
#    0.000    0.000    0.000    0.000    0.000    0.000 
#
# Total GULP energy -991050.110697 kJ/mol
# GULP energy per Si atom -12388.126384 kJ/mol
# Density = 2.161343 g / cm^3
# Si number density = 21.662736 Si / 1000 Ang^3
#
#
#
# Elastic Constant Matrix: (Units=GPa)
#
#
# Indices 1 2 3 4 5 6 
#
# 1 84.6241 68.2221 23.0387 0.0000 0.0000 0.0000
# 2 68.2221 84.6236 23.0385 0.0000 0.0000 0.0000
# 3 23.0387 23.0385 116.0843 0.0000 0.0000 0.0000
# 4 0.0000 0.0000 0.0000 5.7854 0.0000 0.0000
# 5 0.0000 0.0000 0.0000 0.0000 5.7865 0.0000
# 6 0.0000 0.0000 0.0000 0.0000 0.0000 26.3988
#
#
#
# Elastic Compliance Matrix: (Units=1/GPa)
#
#
# Indices 1 2 3 4 5 6 
#
# 1 0.033964 -0.027005 -0.001381 0.000000 0.000000 0.000000
# 2 -0.027005 0.033964 -0.001381 0.000000 0.000000 0.000000
# 3 -0.001381 -0.001381 0.009163 0.000000 0.000000 0.000000
# 4 0.000000 0.000000 0.000000 0.172850 0.000000 0.000000
# 5 0.000000 0.000000 0.000000 0.000000 0.172815 0.000000
# 6 0.000000 0.000000 0.000000 0.000000 0.000000 0.037881
#
#
# Mechanical properties :
#
#
# Convention : Reuss Voigt Hill
#
# Bulk Modulus (GPa) = 56.96049 57.10339 57.03194
# Shear Modulus (GPa) = 9.50529 18.99631 14.25080
#
# Velocity S-wave (km/s) = 2.09699 2.96448 2.56764
# Velocity P-wave (km/s) = 5.67578 6.17535 5.93083
#
# Compressibility (1/GPa) = 0.01755603
#
# Stress axis : x y z
#
# Youngs Moduli (GPa) = 29.44299 29.44285 109.13902
#
# Poissons Ratio (x) = 0.79511 0.15073
# Poissons Ratio (y) = 0.79511 0.15073
# Poissons Ratio (z) = 0.04066 0.04066
#
# Static dielectric constant tensor:
#      x y z
#    x 4.265980 0.000000 0.000000 
#    y 0.000000 4.265980 0.000000 
#    z 0.000000 0.000000 3.850440 
# 
# 
# High freq. dielectric constant tensor:
#      x y z
#    x 1.851030 0.000000 0.000000 
#    y 0.000000 1.851030 0.000000 
#    z 0.000000 0.000000 1.839220 
# 
# From -- ./inp_files/7852.got.cif
#   From: 2010.03.12/outbox.cif.g09.slc.cpg/sg138_4_cif.got.tgz:7852.got - 2010.04.08 09:41:05.
