data_PCOD8319479
_publ_section_title
;
Structure prediction by ZEFSAII (Michael W. Deem and Ramdas Pophale) SiO2 
 PCOD8319479
Probable space group: I 4/M M M
;
_chemical_formula_sum "Si O2"
_cell_formula_units_Z 176
_cell_length_a 17.799365
_cell_length_b 17.799365
_cell_length_c 35.284042
_cell_angle_alpha 90.000000
_cell_angle_beta 90.000000
_cell_angle_gamma 90.000000
_cell_volume 11178.598250
_symmetry_space_group_name_H-M "I 4/M M M"
_symmetry_group_IT_number 139
_symmetry_cell_setting 'tetragonal'
loop_
_space_group_symop_operation_xyz
x,y,z
-y,x,z
-x,-y,z
y,-x,z
x,-y,-z
-x,y,-z
y,x,-z
-y,-x,-z
-x,-y,-z
y,-x,-z
x,y,-z
-y,x,-z
-x,y,z
x,-y,z
-y,-x,z
y,x,z
1/2+x,1/2+y,1/2+z
1/2-y,1/2+x,1/2+z
1/2-x,1/2-y,1/2+z
1/2+y,1/2-x,1/2+z
1/2+x,1/2-y,1/2-z
1/2-x,1/2+y,1/2-z
1/2+y,1/2+x,1/2-z
1/2-y,1/2-x,1/2-z
1/2-x,1/2-y,1/2-z
1/2+y,1/2-x,1/2-z
1/2+x,1/2+y,1/2-z
1/2-y,1/2+x,1/2-z
1/2-x,1/2+y,1/2+z
1/2+x,1/2-y,1/2+z
1/2-y,1/2-x,1/2+z
1/2+y,1/2+x,1/2+z
loop_
_atom_site_type_symbol
_atom_site_label
_atom_site_fract_x
_atom_site_fract_y
_atom_site_fract_z
Si Si1 0.412314 0.852662 0.912683
Si Si2 0.806948 0.585512 0.229684
Si Si3 0.295385 0.414848 0.300163
Si Si4 0.298207 0.583552 0.044764
Si Si5 0.410910 0.000000 0.957184
Si Si6 0.192775 0.685617 0.841758
O O1 0.500000 0.859659 0.901580
O O2 0.396862 0.784022 0.940683
O O3 0.364055 0.839982 0.875352
O O4 0.383314 0.926823 0.934306
O O5 0.826043 0.500000 0.218727
O O6 0.880348 0.619653 0.250000
O O7 0.736446 0.590429 0.257726
O O8 0.783634 0.631086 0.192433
O O9 0.304087 0.500000 0.313921
O O10 0.376973 0.376973 0.300437
O O11 0.240498 0.373765 0.329354
O O12 0.322443 0.500000 0.057636
O O13 0.358890 0.641110 0.062137
O O14 0.295676 0.589894 0.000000
O O15 0.500000 0.000000 0.960170
O O16 0.377221 0.000000 0.000000
O O17 0.266111 0.733890 0.853880
#
# Coordination Sequence:
#
# PCOD8319479 Si02
#       6
#    32  32  32  32  16  32
#     4  10  19  30  46  67  90 118 152 188 229 271
#     4   9  17  30  46  65  91 122 157 189 223 267
#     4   9  18  31  47  65  86 115 149 188 230 272
#     4   9  17  29  45  65  90 119 151 186 222 264
#     4   9  18  32  48  66  90 120 153 187 233 287
#     4  10  19  30  46  66  92 122 151 186 227 275
#
# _framework density 15.744372
#
# number of rings (size 3 to 8) (size 9 to 14) (size 15 to 20)
#    0.000    2.636    0.000    2.182    1.273    4.909 
#    0.000    0.909    0.000    0.000    0.000    0.000 
#    0.000   13.091    0.000    0.000    0.000    8.000 
#
# Total GULP energy -1091123.615693 kJ/mol
# GULP energy per Si atom -12399.131997 kJ/mol
# Density = 1.570854 g / cm^3
# Si number density = 15.744372 Si / 1000 Ang^3
#
#
#
# Elastic Constant Matrix: (Units=GPa)
#
#
# Indices 1 2 3 4 5 6 
#
# 1 101.5737 62.8383 39.2670 0.0000 0.0000 0.0000
# 2 62.8383 101.5741 39.2668 0.0000 0.0000 0.0000
# 3 39.2670 39.2668 70.8549 0.0000 0.0000 0.0000
# 4 0.0000 0.0000 0.0000 21.3790 0.0000 0.0000
# 5 0.0000 0.0000 0.0000 0.0000 21.3789 0.0000
# 6 0.0000 0.0000 0.0000 0.0000 0.0000 14.5702
#
#
#
# Elastic Compliance Matrix: (Units=1/GPa)
#
#
# Indices 1 2 3 4 5 6 
#
# 1 0.017044 -0.008772 -0.004584 0.000000 0.000000 0.000000
# 2 -0.008772 0.017044 -0.004584 0.000000 0.000000 0.000000
# 3 -0.004584 -0.004584 0.019194 0.000000 0.000000 0.000000
# 4 0.000000 0.000000 0.000000 0.046775 0.000000 0.000000
# 5 0.000000 0.000000 0.000000 0.000000 0.046775 0.000000
# 6 0.000000 0.000000 0.000000 0.000000 0.000000 0.068633
#
#
# Mechanical properties :
#
#
# Convention : Reuss Voigt Hill
#
# Bulk Modulus (GPa) = 57.46648 61.86075 59.66362
# Shear Modulus (GPa) = 19.44413 20.30766 19.87589
#
# Velocity S-wave (km/s) = 3.51805 3.59533 3.55690
# Velocity P-wave (km/s) = 7.28568 7.52404 7.40582
#
# Compressibility (1/GPa) = 0.01740145
#
# Stress axis : x y z
#
# Youngs Moduli (GPa) = 58.67137 58.67186 52.09855
#
# Poissons Ratio (x) = 0.51467 0.23884
# Poissons Ratio (y) = 0.51467 0.23883
# Poissons Ratio (z) = 0.26897 0.26896
#
# Static dielectric constant tensor:
#      x y z
#    x 3.066960 0.000000 0.000000 
#    y 0.000000 3.066960 0.000000 
#    z 0.000000 0.000000 2.948490 
# 
# 
# High freq. dielectric constant tensor:
#      x y z
#    x 1.600510 0.000000 0.000000 
#    y 0.000000 1.600510 0.000000 
#    z 0.000000 0.000000 1.597830 
# 
# From -- ./inp_files/14205.got.cif
#   From: 2010.03.12/outbox.cif.g09.slc.cpg/sg139_8_cif.got.tgz:14205.got - 2010.04.08 09:46:31.
