data_PCOD8319810
_publ_section_title
;
Structure prediction by ZEFSAII (Michael W. Deem and Ramdas Pophale) SiO2 
 PCOD8319810
Probable space group: I 4/M M M
;
_chemical_formula_sum "Si O2"
_cell_formula_units_Z 112
_cell_length_a 15.385781
_cell_length_b 15.385781
_cell_length_c 23.712713
_cell_angle_alpha 90.000000
_cell_angle_beta 90.000000
_cell_angle_gamma 90.000000
_cell_volume 5613.326940
_symmetry_space_group_name_H-M "I 4/M M M"
_symmetry_group_IT_number 139
_symmetry_cell_setting 'tetragonal'
loop_
_space_group_symop_operation_xyz
x,y,z
-y,x,z
-x,-y,z
y,-x,z
x,-y,-z
-x,y,-z
y,x,-z
-y,-x,-z
-x,-y,-z
y,-x,-z
x,y,-z
-y,x,-z
-x,y,z
x,-y,z
-y,-x,z
y,x,z
1/2+x,1/2+y,1/2+z
1/2-y,1/2+x,1/2+z
1/2-x,1/2-y,1/2+z
1/2+y,1/2-x,1/2+z
1/2+x,1/2-y,1/2-z
1/2-x,1/2+y,1/2-z
1/2+y,1/2+x,1/2-z
1/2-y,1/2-x,1/2-z
1/2-x,1/2-y,1/2-z
1/2+y,1/2-x,1/2-z
1/2+x,1/2+y,1/2-z
1/2-y,1/2+x,1/2-z
1/2-x,1/2+y,1/2+z
1/2+x,1/2-y,1/2+z
1/2-y,1/2-x,1/2+z
1/2+y,1/2+x,1/2+z
loop_
_atom_site_type_symbol
_atom_site_label
_atom_site_fract_x
_atom_site_fract_y
_atom_site_fract_z
Si Si1 0.402981 0.264568 0.322672
Si Si2 0.405664 0.730293 0.933986
Si Si3 0.814332 0.403561 0.436862
Si Si4 0.098665 0.401336 0.750000
O O1 0.500000 0.293781 0.304460
O O2 0.334648 0.334648 0.298514
O O3 0.395725 0.262065 0.390758
O O4 0.382629 0.167731 0.299626
O O5 0.500000 0.709147 0.907108
O O6 0.332277 0.667724 0.906111
O O7 0.386165 0.831345 0.922791
O O8 0.408681 0.711919 0.000000
O O9 0.775655 0.388124 0.500000
O O10 0.857162 0.500000 0.432747
O O11 0.110630 0.500000 0.773376
#
# Coordination Sequence:
#
# PCOD8319810 Si02
#       4
#    32  32  32  16
#     4  10  20  34  54  78 105 138 172 209 254 304
#     4   9  17  28  42  62  90 124 161 201 244 292
#     4   9  18  32  50  73 101 134 172 213 257 301
#     4   9  19  36  56  78 103 131 168 214 262 309
#
# _framework density 19.952515999999999
#
# number of rings (size 3 to 8) (size 9 to 14) (size 15 to 20)
#    0.000    2.714    0.000    1.286    0.000    4.000 
#    0.000    7.143    0.000    0.000    0.000    4.000 
#    0.000    6.857    0.000    0.286    0.000    0.000 
#
# Total GULP energy -693808.595083 kJ/mol
# GULP energy per Si atom -12389.439198 kJ/mol
# Density = 1.990710 g / cm^3
# Si number density = 19.952516 Si / 1000 Ang^3
#
#
#
# Elastic Constant Matrix: (Units=GPa)
#
#
# Indices 1 2 3 4 5 6 
#
# 1 136.9422 96.2416 27.9345 0.0000 0.0000 0.0000
# 2 96.2416 136.9430 27.9341 0.0000 0.0000 0.0000
# 3 27.9345 27.9341 57.0745 0.0000 0.0000 0.0000
# 4 0.0000 0.0000 0.0000 16.0466 0.0000 0.0000
# 5 0.0000 0.0000 0.0000 0.0000 16.0467 0.0000
# 6 0.0000 0.0000 0.0000 0.0000 0.0000 27.6267
#
#
#
# Elastic Compliance Matrix: (Units=1/GPa)
#
#
# Indices 1 2 3 4 5 6 
#
# 1 0.014714 -0.009856 -0.002378 0.000000 0.000000 0.000000
# 2 -0.009856 0.014714 -0.002378 0.000000 0.000000 0.000000
# 3 -0.002378 -0.002378 0.019848 0.000000 0.000000 0.000000
# 4 0.000000 0.000000 0.000000 0.062318 0.000000 0.000000
# 5 0.000000 0.000000 0.000000 0.000000 0.062318 0.000000
# 6 0.000000 0.000000 0.000000 0.000000 0.000000 0.036197
#
#
# Mechanical properties :
#
#
# Convention : Reuss Voigt Hill
#
# Bulk Modulus (GPa) = 49.86598 70.57557 60.22077
# Shear Modulus (GPa) = 20.32387 23.86732 22.09559
#
# Velocity S-wave (km/s) = 3.19503 3.46237 3.33139
# Velocity P-wave (km/s) = 6.21752 7.17165 6.71156
#
# Compressibility (1/GPa) = 0.02005375
#
# Stress axis : x y z
#
# Youngs Moduli (GPa) = 67.96319 67.96382 50.38177
#
# Poissons Ratio (x) = 0.66983 0.11980
# Poissons Ratio (y) = 0.66982 0.11979
# Poissons Ratio (z) = 0.16161 0.16159
#
# Static dielectric constant tensor:
#      x y z
#    x 3.689040 0.000000 0.000000 
#    y 0.000000 3.689020 0.000000 
#    z 0.000000 0.000000 3.380330 
# 
# 
# High freq. dielectric constant tensor:
#      x y z
#    x 1.770390 0.000000 0.000000 
#    y 0.000000 1.770390 0.000000 
#    z 0.000000 0.000000 1.744800 
# 
# From -- ./inp_files/11038.got.cif
#   From: 2010.03.12/outbox.cif.g09.slc.cpg/sg139_6_cif.got.tgz:11038.got - 2010.04.08 09:46:31.
