data_PCOD8319245
_publ_section_title
;
Structure prediction by ZEFSAII (Michael W. Deem and Ramdas Pophale) SiO2 
 PCOD8319245
Probable space group: P 42/N C M
;
_chemical_formula_sum "Si O2"
_cell_formula_units_Z 80
_cell_length_a 14.002190
_cell_length_b 14.002190
_cell_length_c 24.970395
_cell_angle_alpha 90.000000
_cell_angle_beta 90.000000
_cell_angle_gamma 90.000000
_cell_volume 4895.728724
_symmetry_space_group_name_H-M "P 42/N C M"
_symmetry_group_IT_number 138
_space_group.IT_coordinate_system_code '2'
_symmetry_cell_setting 'tetragonal'
loop_
_space_group_symop_operation_xyz
x,y,z
1/2-y,x,1/2+z
1/2-x,1/2-y,z
y,1/2-x,1/2+z
1/2+x,-y,1/2-z
-x,1/2+y,1/2-z
1/2+y,1/2+x,-z
-y,-x,-z
-x,-y,-z
1/2+y,-x,1/2-z
1/2+x,1/2+y,-z
-y,1/2+x,1/2-z
1/2-x,y,1/2+z
x,1/2-y,1/2+z
1/2-y,1/2-x,z
y,x,z
loop_
_atom_site_type_symbol
_atom_site_label
_atom_site_fract_x
_atom_site_fract_y
_atom_site_fract_z
Si Si1 0.241680 0.594932 0.256429
Si Si2 0.368198 0.521734 0.855024
Si Si3 0.405375 0.244593 0.058599
Si Si4 0.474851 0.178300 0.664379
Si Si5 0.011818 0.851105 0.025394
O O1 0.156652 0.662432 0.234604
O O2 0.213222 0.543097 0.311513
O O3 0.259677 0.510842 0.214221
O O4 0.420185 0.420185 0.843205
O O5 0.446316 0.604428 0.855550
O O6 0.317802 0.523511 0.913142
O O7 0.359406 0.140595 0.051191
O O8 0.326340 0.326340 0.057146
O O9 0.457358 0.248640 0.115853
O O10 0.478628 0.260617 0.009738
O O11 0.378414 0.121587 0.680843
O O12 0.110587 0.889414 0.000000
O O13 0.935280 0.935280 0.023304
#
# Coordination Sequence:
#
# PCOD8319245 Si02
#       5
#    16  16  16  16  16
#     4   9  18  31  46  66  91 121 149 187 227 266
#     4   9  16  27  46  68  87 113 153 188 221 267
#     4   9  16  25  40  66  95 118 145 188 235 267
#     4   9  16  28  45  64  85 114 154 190 220 265
#     4   9  14  24  43  65  86 112 149 190 221 262
#
# _framework density 16.340774
#
# number of rings (size 3 to 8) (size 9 to 14) (size 15 to 20)
#    0.000    3.000    2.000    0.000    0.000    0.800 
#    0.000    1.000    0.000    2.400    0.000    1.400 
#    0.000    0.000    0.000    0.000    0.000    0.000 
#
# Total GULP energy -991738.197469 kJ/mol
# GULP energy per Si atom -12396.727468 kJ/mol
# Density = 1.630358 g / cm^3
# Si number density = 16.340774 Si / 1000 Ang^3
#
#
#
# Elastic Constant Matrix: (Units=GPa)
#
#
# Indices 1 2 3 4 5 6 
#
# 1 55.3544 35.1652 67.5585 0.0000 0.0000 0.0000
# 2 35.1652 55.3550 67.5584 0.0000 0.0000 0.0000
# 3 67.5585 67.5584 169.7042 0.0000 0.0000 0.0000
# 4 0.0000 0.0000 0.0000 26.9104 0.0000 0.0000
# 5 0.0000 0.0000 0.0000 0.0000 26.9102 0.0000
# 6 0.0000 0.0000 0.0000 0.0000 0.0000 19.1128
#
#
#
# Elastic Compliance Matrix: (Units=1/GPa)
#
#
# Indices 1 2 3 4 5 6 
#
# 1 0.038378 -0.011153 -0.010838 0.000000 0.000000 0.000000
# 2 -0.011153 0.038378 -0.010838 0.000000 0.000000 0.000000
# 3 -0.010838 -0.010838 0.014522 0.000000 0.000000 0.000000
# 4 0.000000 0.000000 0.000000 0.037160 0.000000 0.000000
# 5 0.000000 0.000000 0.000000 0.000000 0.037161 0.000000
# 6 0.000000 0.000000 0.000000 0.000000 0.000000 0.052321
#
#
# Mechanical properties :
#
#
# Convention : Reuss Voigt Hill
#
# Bulk Modulus (GPa) = 39.03277 68.99756 54.01517
# Shear Modulus (GPa) = 17.11634 21.92878 19.52256
#
# Velocity S-wave (km/s) = 3.23996 3.66726 3.46021
# Velocity P-wave (km/s) = 6.15915 7.76193 7.00652
#
# Compressibility (1/GPa) = 0.02561950
#
# Stress axis : x y z
#
# Youngs Moduli (GPa) = 26.05626 26.05681 68.86130
#
# Poissons Ratio (x) = 0.29061 0.74635
# Poissons Ratio (y) = 0.29060 0.74633
# Poissons Ratio (z) = 0.28241 0.28241
#
# Static dielectric constant tensor:
#      x y z
#    x 2.941090 0.000000 0.000000 
#    y 0.000000 2.941090 0.000000 
#    z 0.000000 0.000000 3.218260 
# 
# 
# High freq. dielectric constant tensor:
#      x y z
#    x 1.599720 0.000000 0.000000 
#    y 0.000000 1.599720 0.000000 
#    z 0.000000 0.000000 1.637330 
# 
# From -- ./inp_files/6002.got.cif
#   From: 2010.03.12/outbox.cif.g09.slc.cpg/sg138_4_cif.got.tgz:6002.got - 2010.04.08 09:41:05.
