data_PCOD8319792
_publ_section_title
;
Structure prediction by ZEFSAII (Michael W. Deem and Ramdas Pophale) SiO2 
 PCOD8319792
Probable space group: I 4/M M M
;
_chemical_formula_sum "Si O2"
_cell_formula_units_Z 112
_cell_length_a 23.803861
_cell_length_b 23.803861
_cell_length_c 10.625025
_cell_angle_alpha 90.000000
_cell_angle_beta 90.000000
_cell_angle_gamma 90.000000
_cell_volume 6020.392025
_symmetry_space_group_name_H-M "I 4/M M M"
_symmetry_group_IT_number 139
_symmetry_cell_setting 'tetragonal'
loop_
_space_group_symop_operation_xyz
x,y,z
-y,x,z
-x,-y,z
y,-x,z
x,-y,-z
-x,y,-z
y,x,-z
-y,-x,-z
-x,-y,-z
y,-x,-z
x,y,-z
-y,x,-z
-x,y,z
x,-y,z
-y,-x,z
y,x,z
1/2+x,1/2+y,1/2+z
1/2-y,1/2+x,1/2+z
1/2-x,1/2-y,1/2+z
1/2+y,1/2-x,1/2+z
1/2+x,1/2-y,1/2-z
1/2-x,1/2+y,1/2-z
1/2+y,1/2+x,1/2-z
1/2-y,1/2-x,1/2-z
1/2-x,1/2-y,1/2-z
1/2+y,1/2-x,1/2-z
1/2+x,1/2+y,1/2-z
1/2-y,1/2+x,1/2-z
1/2-x,1/2+y,1/2+z
1/2+x,1/2-y,1/2+z
1/2-y,1/2-x,1/2+z
1/2+y,1/2+x,1/2+z
loop_
_atom_site_type_symbol
_atom_site_label
_atom_site_fract_x
_atom_site_fract_y
_atom_site_fract_z
Si Si1 0.729269 0.822378 0.000000
Si Si2 0.722495 0.064114 0.354947
Si Si3 0.817292 0.091250 0.000000
Si Si4 0.664798 0.164798 0.750000
Si Si5 0.562480 0.655918 0.771301
O O1 0.752824 0.886655 0.000000
O O2 0.693465 0.811092 0.124857
O O3 0.778481 0.778481 0.000000
O O4 0.705499 0.070631 0.500000
O O5 0.678655 0.098925 0.268800
O O6 0.787057 0.084822 0.336844
O O7 0.717730 0.000000 0.309273
O O8 0.832124 0.055569 0.877114
O O9 0.852364 0.147637 0.000000
O O10 0.500000 0.639614 0.821419
O O11 0.605568 0.605568 0.802625
#
# Coordination Sequence:
#
# PCOD8319792 Si02
#       5
#    16  32  16  16  32
#     4  11  22  33  52  87 122 148 186 237 289 343
#     4  10  22  39  58  83 116 149 184 230 284 345
#     4   9  17  31  48  72 106 140 177 229 285 332
#     4  12  21  38  60  87 112 154 190 228 292 351
#     4  10  20  34  52  75 106 147 193 238 283 329
#
# _framework density 18.603441
#
# number of rings (size 3 to 8) (size 9 to 14) (size 15 to 20)
#    0.000    1.714    4.286    0.857    0.000    2.000 
#    0.000    0.714    0.000    3.000    0.000    6.000 
#    0.000    0.000    0.000    0.000    0.000    0.000 
#
# Total GULP energy -694164.389416 kJ/mol
# GULP energy per Si atom -12395.792668 kJ/mol
# Density = 1.856110 g / cm^3
# Si number density = 18.603441 Si / 1000 Ang^3
#
#
#
# Elastic Constant Matrix: (Units=GPa)
#
#
# Indices 1 2 3 4 5 6 
#
# 1 100.3985 66.1020 25.2400 0.0000 0.0000 0.0000
# 2 66.1020 100.3983 25.2396 0.0000 0.0000 0.0000
# 3 25.2400 25.2396 83.3933 0.0000 0.0000 0.0000
# 4 0.0000 0.0000 0.0000 19.9609 0.0000 0.0000
# 5 0.0000 0.0000 0.0000 0.0000 19.9622 0.0000
# 6 0.0000 0.0000 0.0000 0.0000 0.0000 30.9198
#
#
#
# Elastic Compliance Matrix: (Units=1/GPa)
#
#
# Indices 1 2 3 4 5 6 
#
# 1 0.017885 -0.011272 -0.002001 0.000000 0.000000 0.000000
# 2 -0.011272 0.017885 -0.002001 0.000000 0.000000 0.000000
# 3 -0.002001 -0.002001 0.013203 0.000000 0.000000 0.000000
# 4 0.000000 0.000000 0.000000 0.050098 0.000000 0.000000
# 5 0.000000 0.000000 0.000000 0.000000 0.050095 0.000000
# 6 0.000000 0.000000 0.000000 0.000000 0.000000 0.032342
#
#
# Mechanical properties :
#
#
# Convention : Reuss Voigt Hill
#
# Bulk Modulus (GPa) = 54.28073 57.48369 55.88221
# Shear Modulus (GPa) = 22.91483 25.34246 24.12864
#
# Velocity S-wave (km/s) = 3.51344 3.69487 3.60529
# Velocity P-wave (km/s) = 6.76019 7.01208 6.88729
#
# Compressibility (1/GPa) = 0.01842274
#
# Stress axis : x y z
#
# Youngs Moduli (GPa) = 55.91215 55.91214 75.74116
#
# Poissons Ratio (x) = 0.63027 0.15159
# Poissons Ratio (y) = 0.63027 0.15159
# Poissons Ratio (z) = 0.11191 0.11190
#
# Static dielectric constant tensor:
#      x y z
#    x 3.354370 0.000000 0.000000 
#    y 0.000000 3.354360 0.000000 
#    z 0.000000 0.000000 3.696830 
# 
# 
# High freq. dielectric constant tensor:
#      x y z
#    x 1.706340 0.000000 0.000000 
#    y 0.000000 1.706340 0.000000 
#    z 0.000000 0.000000 1.729130 
# 
# From -- ./inp_files/3333.got.cif
#   From: 2010.03.12/outbox.cif.g09.slc.cpg/sg139_2_cif.got.tgz:3333.got - 2010.04.08 09:46:31.
