data_PCOD8319235
_publ_section_title
;
Structure prediction by ZEFSAII (Michael W. Deem and Ramdas Pophale) SiO2 
 PCOD8319235
Probable space group: P 42/N C M
;
_chemical_formula_sum "Si O2"
_cell_formula_units_Z 96
_cell_length_a 13.753422
_cell_length_b 13.753422
_cell_length_c 30.676436
_cell_angle_alpha 90.000000
_cell_angle_beta 90.000000
_cell_angle_gamma 90.000000
_cell_volume 5802.650846
_symmetry_space_group_name_H-M "P 42/N C M"
_symmetry_group_IT_number 138
_space_group.IT_coordinate_system_code '2'
_symmetry_cell_setting 'tetragonal'
loop_
_space_group_symop_operation_xyz
x,y,z
1/2-y,x,1/2+z
1/2-x,1/2-y,z
y,1/2-x,1/2+z
1/2+x,-y,1/2-z
-x,1/2+y,1/2-z
1/2+y,1/2+x,-z
-y,-x,-z
-x,-y,-z
1/2+y,-x,1/2-z
1/2+x,1/2+y,-z
-y,1/2+x,1/2-z
1/2-x,y,1/2+z
x,1/2-y,1/2+z
1/2-y,1/2-x,z
y,x,z
loop_
_atom_site_type_symbol
_atom_site_label
_atom_site_fract_x
_atom_site_fract_y
_atom_site_fract_z
Si Si1 0.409073 0.254780 0.553085
Si Si2 0.329222 0.493175 0.136186
Si Si3 0.347293 0.989046 0.480065
Si Si4 0.244740 0.091362 0.313855
Si Si5 0.408247 0.255074 0.717500
Si Si6 0.981443 0.354497 0.382384
O O1 0.325722 0.174279 0.554114
O O2 0.361872 0.361872 0.552730
O O3 0.476775 0.242969 0.595524
O O4 0.473964 0.242145 0.509609
O O5 0.410957 0.410957 0.135911
O O6 0.266897 0.489061 0.180798
O O7 0.379198 0.598578 0.132336
O O8 0.389075 0.889075 0.500000
O O9 0.310147 0.971315 0.430884
O O10 0.432262 0.067739 0.479946
O O11 0.324917 0.175084 0.315432
O O12 0.139427 0.139427 0.323696
O O13 0.247550 0.043489 0.265536
O O14 0.267041 0.008575 0.349545
O O15 0.322389 0.177612 0.714342
O O16 0.362037 0.362037 0.709524
O O17 0.064174 0.435827 0.381453
#
# Coordination Sequence:
#
# PCOD8319235 Si02
#       6
#    16  16  16  16  16  16
#     4   9  15  20  27  40  57  80 115 156 196 240
#     4   9  14  20  30  44  60  80 109 150 197 237
#     4   9  14  21  28  36  56  85 114 150 194 230
#     4   8  14  23  32  43  60  84 116 152 188 229
#     4   8  13  21  32  44  60  82 109 147 193 234
#     4   9  15  21  31  43  59  85 117 153 192 234
#
# _framework density 16.544163000000001
#
# number of rings (size 3 to 8) (size 9 to 14) (size 15 to 20)
#    0.000    3.333    1.667    1.500    0.000    2.667 
#    0.000    3.333    0.000    0.000    0.000    0.000 
#    0.000    0.667    0.000    0.000    0.000    1.667 
#
# Total GULP energy -1189689.609027 kJ/mol
# GULP energy per Si atom -12392.600094 kJ/mol
# Density = 1.650651 g / cm^3
# Si number density = 16.544163 Si / 1000 Ang^3
#
#
#
# Elastic Constant Matrix: (Units=GPa)
#
#
# Indices 1 2 3 4 5 6 
#
# 1 40.9256 36.9927 53.6375 0.0000 0.0000 0.0000
# 2 36.9927 40.9256 53.6375 0.0000 0.0000 0.0000
# 3 53.6375 53.6375 186.2680 0.0000 0.0000 0.0000
# 4 0.0000 0.0000 0.0000 8.6153 0.0000 0.0000
# 5 0.0000 0.0000 0.0000 0.0000 8.6153 0.0000
# 6 0.0000 0.0000 0.0000 0.0000 0.0000 23.5804
#
#
#
# Elastic Compliance Matrix: (Units=1/GPa)
#
#
# Indices 1 2 3 4 5 6 
#
# 1 0.137764 -0.116500 -0.006123 0.000000 0.000000 0.000000
# 2 -0.116500 0.137764 -0.006123 0.000000 0.000000 0.000000
# 3 -0.006123 -0.006123 0.008895 0.000000 0.000000 0.000000
# 4 0.000000 0.000000 0.000000 0.116073 0.000000 0.000000
# 5 0.000000 0.000000 0.000000 0.000000 0.116073 0.000000
# 6 0.000000 0.000000 0.000000 0.000000 0.000000 0.042408
#
#
# Mechanical properties :
#
#
# Convention : Reuss Voigt Hill
#
# Bulk Modulus (GPa) = 37.13252 61.85052 49.49152
# Shear Modulus (GPa) = 6.05734 16.41897 11.23815
#
# Velocity S-wave (km/s) = 1.91553 3.15371 2.60913
# Velocity P-wave (km/s) = 5.23312 7.12232 6.24952
#
# Compressibility (1/GPa) = 0.02693057
#
# Stress axis : x y z
#
# Youngs Moduli (GPa) = 7.25880 7.25880 112.42186
#
# Poissons Ratio (x) = 0.84565 0.68838
# Poissons Ratio (y) = 0.84565 0.68838
# Poissons Ratio (z) = 0.04445 0.04445
#
# Static dielectric constant tensor:
#      x y z
#    x 2.748460 0.000000 0.000000 
#    y 0.000000 2.748460 0.000000 
#    z 0.000000 0.000000 3.512350 
# 
# 
# High freq. dielectric constant tensor:
#      x y z
#    x 1.578890 0.000000 0.000000 
#    y 0.000000 1.578890 0.000000 
#    z 0.000000 0.000000 1.657820 
# 
# From -- ./inp_files/8195.got.cif
#   From: 2010.03.12/outbox.cif.g09.slc.cpg/sg138_5_cif.got.tgz:8195.got - 2010.04.08 09:41:05.
