data_PCOD8319073
_publ_section_title
;
Structure prediction by ZEFSAII (Michael W. Deem and Ramdas Pophale) SiO2 
 PCOD8319073
Probable space group: P 42/N C M
;
_chemical_formula_sum "Si O2"
_cell_formula_units_Z 128
_cell_length_a 20.649853
_cell_length_b 20.649853
_cell_length_c 16.823611
_cell_angle_alpha 90.000000
_cell_angle_beta 90.000000
_cell_angle_gamma 90.000000
_cell_volume 7173.864124
_symmetry_space_group_name_H-M "P 42/N C M"
_symmetry_group_IT_number 138
_space_group.IT_coordinate_system_code '2'
_symmetry_cell_setting 'tetragonal'
loop_
_space_group_symop_operation_xyz
x,y,z
1/2-y,x,1/2+z
1/2-x,1/2-y,z
y,1/2-x,1/2+z
1/2+x,-y,1/2-z
-x,1/2+y,1/2-z
1/2+y,1/2+x,-z
-y,-x,-z
-x,-y,-z
1/2+y,-x,1/2-z
1/2+x,1/2+y,-z
-y,1/2+x,1/2-z
1/2-x,y,1/2+z
x,1/2-y,1/2+z
1/2-y,1/2-x,z
y,x,z
loop_
_atom_site_type_symbol
_atom_site_label
_atom_site_fract_x
_atom_site_fract_y
_atom_site_fract_z
Si Si1 0.750091 0.358151 0.500712
Si Si2 0.592190 0.244875 0.167185
Si Si3 0.339612 0.055171 0.545605
Si Si4 0.609722 0.509491 0.790420
Si Si5 0.644706 0.751438 0.860155
Si Si6 0.202820 0.531787 0.399762
Si Si7 0.878249 0.365751 0.281548
Si Si8 0.540037 0.762013 0.241766
O O1 0.816922 0.316922 0.500000
O O2 0.689372 0.310629 0.500000
O O3 0.740861 0.406637 0.427199
O O4 0.749851 0.408612 0.574625
O O5 0.620271 0.180028 0.205374
O O6 0.639152 0.304886 0.187787
O O7 0.519539 0.253962 0.196969
O O8 0.393396 0.106605 0.516971
O O9 0.367473 0.011767 0.617418
O O10 0.274742 0.095056 0.572122
O O11 0.326661 0.005292 0.474607
O O12 0.539022 0.539022 0.780285
O O13 0.606390 0.438256 0.754275
O O14 0.660632 0.551796 0.738455
O O15 0.684772 0.815229 0.888775
O O16 0.694261 0.694261 0.837635
O O17 0.603825 0.770886 0.780537
O O18 0.148480 0.567148 0.347482
O O19 0.237058 0.477141 0.345766
#
# Coordination Sequence:
#
# PCOD8319073 Si02
#       8
#    16  16  16  16  16  16  16  16
#     4  11  23  33  50  75 104 142 182 224 270 320
#     4  10  21  35  50  73 106 138 181 223 272 320
#     4   9  19  34  56  82 113 142 169 220 277 332
#     4   9  18  35  56  76 100 138 184 217 267 331
#     4   9  17  34  59  83 107 139 176 212 265 336
#     4  11  21  35  51  80 113 141 182 226 270 325
#     4  10  21  33  55  75 103 143 177 227 274 316
#     4   9  19  33  54  77 103 145 175 221 273 307
#
# _framework density 17.842545000000001
#
# number of rings (size 3 to 8) (size 9 to 14) (size 15 to 20)
#    0.000    2.250    1.250    3.375    5.250    1.250 
#    0.000    4.375    0.000    1.500    0.000    0.875 
#    0.000    0.000    0.000    0.000    0.000    0.000 
#
# Total GULP energy -1585997.280062 kJ/mol
# GULP energy per Si atom -12390.603750 kJ/mol
# Density = 1.780193 g / cm^3
# Si number density = 17.842545 Si / 1000 Ang^3
#
#
#
# Elastic Constant Matrix: (Units=GPa)
#
#
# Indices 1 2 3 4 5 6 
#
# 1 69.9470 20.4634 25.1102 0.0000 0.0000 0.0000
# 2 20.4634 69.9463 25.1093 0.0000 0.0000 0.0000
# 3 25.1102 25.1093 46.9402 0.0000 0.0000 0.0000
# 4 0.0000 0.0000 0.0000 24.4647 0.0000 0.0000
# 5 0.0000 0.0000 0.0000 0.0000 24.4651 0.0000
# 6 0.0000 0.0000 0.0000 0.0000 0.0000 24.8135
#
#
#
# Elastic Compliance Matrix: (Units=1/GPa)
#
#
# Indices 1 2 3 4 5 6 
#
# 1 0.017973 -0.002236 -0.008418 0.000000 0.000000 0.000000
# 2 -0.002236 0.017973 -0.008418 0.000000 0.000000 0.000000
# 3 -0.008418 -0.008418 0.030310 0.000000 0.000000 0.000000
# 4 0.000000 0.000000 0.000000 0.040875 0.000000 0.000000
# 5 0.000000 0.000000 0.000000 0.000000 0.040874 0.000000
# 6 0.000000 0.000000 0.000000 0.000000 0.000000 0.040301
#
#
# Mechanical properties :
#
#
# Convention : Reuss Voigt Hill
#
# Bulk Modulus (GPa) = 35.57321 36.46657 36.01989
# Shear Modulus (GPa) = 21.20262 22.49205 21.84733
#
# Velocity S-wave (km/s) = 3.45094 3.55432 3.50301
# Velocity P-wave (km/s) = 5.98826 6.10955 6.04921
#
# Compressibility (1/GPa) = 0.02811104
#
# Stress axis : x y z
#
# Youngs Moduli (GPa) = 55.63973 55.63997 32.99273
#
# Poissons Ratio (x) = 0.12442 0.27774
# Poissons Ratio (y) = 0.12442 0.27772
# Poissons Ratio (z) = 0.46838 0.46836
#
# Static dielectric constant tensor:
#      x y z
#    x 3.406050 0.000000 0.000000 
#    y 0.000000 3.406060 0.000000 
#    z 0.000000 0.000000 3.189670 
# 
# 
# High freq. dielectric constant tensor:
#      x y z
#    x 1.688870 0.000000 0.000000 
#    y 0.000000 1.688870 0.000000 
#    z 0.000000 0.000000 1.671650 
# 
# From -- ./inp_files/5463.got.cif
#   From: 2010.03.12/outbox.cif.g09.slc.cpg/sg138_3_cif.got.tgz:5463.got - 2010.04.08 09:41:05.
