data_PCOD8319756
_publ_section_title
;
Structure prediction by ZEFSAII (Michael W. Deem and Ramdas Pophale) SiO2 
 PCOD8319756
Probable space group: I 4/M M M
;
_chemical_formula_sum "Si O2"
_cell_formula_units_Z 144
_cell_length_a 21.190626
_cell_length_b 21.190626
_cell_length_c 17.707511
_cell_angle_alpha 90.000000
_cell_angle_beta 90.000000
_cell_angle_gamma 90.000000
_cell_volume 7951.427315
_symmetry_space_group_name_H-M "I 4/M M M"
_symmetry_group_IT_number 139
_symmetry_cell_setting 'tetragonal'
loop_
_space_group_symop_operation_xyz
x,y,z
-y,x,z
-x,-y,z
y,-x,z
x,-y,-z
-x,y,-z
y,x,-z
-y,-x,-z
-x,-y,-z
y,-x,-z
x,y,-z
-y,x,-z
-x,y,z
x,-y,z
-y,-x,z
y,x,z
1/2+x,1/2+y,1/2+z
1/2-y,1/2+x,1/2+z
1/2-x,1/2-y,1/2+z
1/2+y,1/2-x,1/2+z
1/2+x,1/2-y,1/2-z
1/2-x,1/2+y,1/2-z
1/2+y,1/2+x,1/2-z
1/2-y,1/2-x,1/2-z
1/2-x,1/2-y,1/2-z
1/2+y,1/2-x,1/2-z
1/2+x,1/2+y,1/2-z
1/2-y,1/2+x,1/2-z
1/2-x,1/2+y,1/2+z
1/2+x,1/2-y,1/2+z
1/2-y,1/2-x,1/2+z
1/2+y,1/2+x,1/2+z
loop_
_atom_site_type_symbol
_atom_site_label
_atom_site_fract_x
_atom_site_fract_y
_atom_site_fract_z
Si Si1 0.570937 0.671316 0.000000
Si Si2 0.691355 0.925842 0.913919
Si Si3 0.350452 0.245851 0.719256
Si Si4 0.074431 0.568735 0.167200
Si Si5 0.926018 0.821583 0.664131
O O1 0.585884 0.707207 0.920923
O O2 0.500000 0.649139 0.000000
O O3 0.605681 0.605681 0.000000
O O4 0.736507 0.885934 0.859945
O O5 0.618816 0.906354 0.896648
O O6 0.702011 0.000000 0.899023
O O7 0.706686 0.907844 0.000000
O O8 0.299353 0.299353 0.704098
O O9 0.317272 0.182729 0.750000
O O10 0.402143 0.267174 0.780388
O O11 0.105374 0.500000 0.148979
O O12 0.095035 0.595035 0.250000
O O13 0.000000 0.560298 0.170025
O O14 0.886289 0.886289 0.676184
O O15 0.000000 0.835719 0.678958
#
# Coordination Sequence:
#
# PCOD8319756 Si02
#       5
#    16  32  32  32  32
#     4   8  14  25  44  74 106 134 161 189 236 298
#     4  10  20  33  51  75 100 127 162 207 259 308
#     4  10  21  37  53  71  96 133 180 217 252 298
#     4   8  14  26  46  70  95 125 156 188 236 295
#     4   9  17  31  53  79 108 138 167 207 257 311
#
# _framework density 18.109957000000001
#
# number of rings (size 3 to 8) (size 9 to 14) (size 15 to 20)
#    0.000    2.889    0.000    2.000    0.000    1.222 
#    2.000    5.556    0.000    0.000    0.000    0.000 
#    0.000    0.000    0.000   20.667    0.000    0.222 
#
# Total GULP energy -892086.293887 kJ/mol
# GULP energy per Si atom -12390.087415 kJ/mol
# Density = 1.806874 g / cm^3
# Si number density = 18.109957 Si / 1000 Ang^3
#
#
#
# Elastic Constant Matrix: (Units=GPa)
#
#
# Indices 1 2 3 4 5 6 
#
# 1 67.2428 40.9763 60.4896 0.0000 0.0000 0.0000
# 2 40.9763 67.2439 60.4900 0.0000 0.0000 0.0000
# 3 60.4896 60.4900 157.3638 0.0000 0.0000 0.0000
# 4 0.0000 0.0000 0.0000 28.8021 0.0000 0.0000
# 5 0.0000 0.0000 0.0000 0.0000 28.8021 0.0000
# 6 0.0000 0.0000 0.0000 0.0000 0.0000 17.8028
#
#
#
# Elastic Compliance Matrix: (Units=1/GPa)
#
#
# Indices 1 2 3 4 5 6 
#
# 1 0.027137 -0.010934 -0.006229 0.000000 0.000000 0.000000
# 2 -0.010934 0.027137 -0.006228 0.000000 0.000000 0.000000
# 3 -0.006229 -0.006228 0.011143 0.000000 0.000000 0.000000
# 4 0.000000 0.000000 0.000000 0.034720 0.000000 0.000000
# 5 0.000000 0.000000 0.000000 0.000000 0.034720 0.000000
# 6 0.000000 0.000000 0.000000 0.000000 0.000000 0.056171
#
#
# Mechanical properties :
#
#
# Convention : Reuss Voigt Hill
#
# Bulk Modulus (GPa) = 53.66005 68.41803 61.03904
# Shear Modulus (GPa) = 20.49011 23.74104 22.11557
#
# Velocity S-wave (km/s) = 3.36732 3.62462 3.49833
# Velocity P-wave (km/s) = 6.69424 7.44167 7.07783
#
# Compressibility (1/GPa) = 0.01863584
#
# Stress axis : x y z
#
# Youngs Moduli (GPa) = 36.84988 36.85055 89.74188
#
# Poissons Ratio (x) = 0.40291 0.55896
# Poissons Ratio (y) = 0.40290 0.55895
# Poissons Ratio (z) = 0.22952 0.22952
#
# Static dielectric constant tensor:
#      x y z
#    x 3.246870 0.000000 0.000000 
#    y 0.000000 3.246860 0.000000 
#    z 0.000000 0.000000 3.520240 
# 
# 
# High freq. dielectric constant tensor:
#      x y z
#    x 1.688410 0.000000 0.000000 
#    y 0.000000 1.688410 0.000000 
#    z 0.000000 0.000000 1.703870 
# 
# From -- ./inp_files/8212.got.cif
#   From: 2010.03.12/outbox.cif.g09.slc.cpg/sg139_5_cif.got.tgz:8212.got - 2010.04.08 09:46:31.
