data_PCOD8319578
_publ_section_title
;
Structure prediction by ZEFSAII (Michael W. Deem and Ramdas Pophale) SiO2 
 PCOD8319578
Probable space group: I 4/M M M
;
_chemical_formula_sum "Si O2"
_cell_formula_units_Z 160
_cell_length_a 18.967181
_cell_length_b 18.967181
_cell_length_c 25.193228
_cell_angle_alpha 90.000000
_cell_angle_beta 90.000000
_cell_angle_gamma 90.000000
_cell_volume 9063.363414
_symmetry_space_group_name_H-M "I 4/M M M"
_symmetry_group_IT_number 139
_symmetry_cell_setting 'tetragonal'
loop_
_space_group_symop_operation_xyz
x,y,z
-y,x,z
-x,-y,z
y,-x,z
x,-y,-z
-x,y,-z
y,x,-z
-y,-x,-z
-x,-y,-z
y,-x,-z
x,y,-z
-y,x,-z
-x,y,z
x,-y,z
-y,-x,z
y,x,z
1/2+x,1/2+y,1/2+z
1/2-y,1/2+x,1/2+z
1/2-x,1/2-y,1/2+z
1/2+y,1/2-x,1/2+z
1/2+x,1/2-y,1/2-z
1/2-x,1/2+y,1/2-z
1/2+y,1/2+x,1/2-z
1/2-y,1/2-x,1/2-z
1/2-x,1/2-y,1/2-z
1/2+y,1/2-x,1/2-z
1/2+x,1/2+y,1/2-z
1/2-y,1/2+x,1/2-z
1/2-x,1/2+y,1/2+z
1/2+x,1/2-y,1/2+z
1/2-y,1/2-x,1/2+z
1/2+y,1/2+x,1/2+z
loop_
_atom_site_type_symbol
_atom_site_label
_atom_site_fract_x
_atom_site_fract_y
_atom_site_fract_z
Si Si1 0.790026 0.421593 0.845603
Si Si2 0.421361 0.309213 0.059951
Si Si3 0.656243 0.771041 0.652918
Si Si4 0.420402 0.307338 0.253887
Si Si5 0.581523 0.695472 0.560707
O O1 0.826211 0.500000 0.839706
O O2 0.759725 0.413019 0.904530
O O3 0.842224 0.355583 0.838702
O O4 0.727134 0.415460 0.803745
O O5 0.500000 0.340333 0.064155
O O6 0.369806 0.369806 0.080572
O O7 0.403226 0.286162 0.000000
O O8 0.734004 0.734004 0.650683
O O9 0.614592 0.743820 0.703550
O O10 0.613964 0.755012 0.598870
O O11 0.500000 0.321724 0.271414
O O12 0.382211 0.382211 0.252490
O O13 0.591196 0.721122 0.500000
O O14 0.500000 0.682692 0.574534
O O15 0.621565 0.621565 0.570675
#
# Coordination Sequence:
#
# PCOD8319578 Si02
#       5
#    32  32  32  32  32
#     4  10  20  33  49  70  95 124 163 208 248 285
#     4   9  17  28  42  62  89 120 153 190 233 281
#     4  10  19  32  51  73  98 130 166 202 242 290
#     4  10  20  33  51  75 101 129 160 195 240 295
#     4   9  18  32  51  77 106 134 164 198 240 292
#
# _framework density 17.653490000000001
#
# number of rings (size 3 to 8) (size 9 to 14) (size 15 to 20)
#    0.000    2.400    0.000    3.000    0.000    3.000 
#    0.000    4.000    0.000    9.600    0.000    7.000 
#    0.000    0.000    0.000    0.000    0.000    0.000 
#
# Total GULP energy -991755.205612 kJ/mol
# GULP energy per Si atom -12396.940070 kJ/mol
# Density = 1.761331 g / cm^3
# Si number density = 17.653490 Si / 1000 Ang^3
#
#
#
# Elastic Constant Matrix: (Units=GPa)
#
#
# Indices 1 2 3 4 5 6 
#
# 1 114.5339 51.9984 31.7085 0.0000 0.0000 0.0000
# 2 51.9984 114.5339 31.7085 0.0000 0.0000 0.0000
# 3 31.7085 31.7085 74.0437 0.0000 0.0000 0.0000
# 4 0.0000 0.0000 0.0000 21.7902 0.0000 0.0000
# 5 0.0000 0.0000 0.0000 0.0000 21.7902 0.0000
# 6 0.0000 0.0000 0.0000 0.0000 0.0000 18.0032
#
#
#
# Elastic Compliance Matrix: (Units=1/GPa)
#
#
# Indices 1 2 3 4 5 6 
#
# 1 0.011583 -0.004408 -0.003073 0.000000 0.000000 0.000000
# 2 -0.004408 0.011583 -0.003073 0.000000 0.000000 0.000000
# 3 -0.003073 -0.003073 0.016137 0.000000 0.000000 0.000000
# 4 0.000000 0.000000 0.000000 0.045892 0.000000 0.000000
# 5 0.000000 0.000000 0.000000 0.000000 0.045892 0.000000
# 6 0.000000 0.000000 0.000000 0.000000 0.000000 0.055546
#
#
# Mechanical properties :
#
#
# Convention : Reuss Voigt Hill
#
# Bulk Modulus (GPa) = 54.95524 59.32690 57.14107
# Shear Modulus (GPa) = 23.38580 24.82980 24.10780
#
# Velocity S-wave (km/s) = 3.64361 3.75441 3.69943
# Velocity P-wave (km/s) = 6.99276 7.24386 7.11942
#
# Compressibility (1/GPa) = 0.01819663
#
# Stress axis : x y z
#
# Youngs Moduli (GPa) = 86.33409 86.33409 61.96885
#
# Poissons Ratio (x) = 0.38056 0.19040
# Poissons Ratio (y) = 0.38056 0.19040
# Poissons Ratio (z) = 0.26527 0.26527
#
# Static dielectric constant tensor:
#      x y z
#    x 3.192350 0.000000 0.000000 
#    y 0.000000 3.192350 0.000000 
#    z 0.000000 0.000000 3.517280 
# 
# 
# High freq. dielectric constant tensor:
#      x y z
#    x 1.663930 0.000000 0.000000 
#    y 0.000000 1.663930 0.000000 
#    z 0.000000 0.000000 1.705330 
# 
# From -- ./inp_files/12918.got.cif
#   From: 2010.03.12/outbox.cif.g09.slc.cpg/sg139_7_cif.got.tgz:12918.got - 2010.04.08 09:46:31.
