data_PCOD8319153
_publ_section_title
;
Structure prediction by ZEFSAII (Michael W. Deem and Ramdas Pophale) SiO2 
 PCOD8319153
Probable space group: P 42/N C M
;
_chemical_formula_sum "Si O2"
_cell_formula_units_Z 96
_cell_length_a 21.902716
_cell_length_b 21.902716
_cell_length_c 8.935833
_cell_angle_alpha 90.000000
_cell_angle_beta 90.000000
_cell_angle_gamma 90.000000
_cell_volume 4286.777945
_symmetry_space_group_name_H-M "P 42/N C M"
_symmetry_group_IT_number 138
_space_group.IT_coordinate_system_code '2'
_symmetry_cell_setting 'tetragonal'
loop_
_space_group_symop_operation_xyz
x,y,z
1/2-y,x,1/2+z
1/2-x,1/2-y,z
y,1/2-x,1/2+z
1/2+x,-y,1/2-z
-x,1/2+y,1/2-z
1/2+y,1/2+x,-z
-y,-x,-z
-x,-y,-z
1/2+y,-x,1/2-z
1/2+x,1/2+y,-z
-y,1/2+x,1/2-z
1/2-x,y,1/2+z
x,1/2-y,1/2+z
1/2-y,1/2-x,z
y,x,z
loop_
_atom_site_type_symbol
_atom_site_label
_atom_site_fract_x
_atom_site_fract_y
_atom_site_fract_z
Si Si1 0.215730 0.656227 0.268848
Si Si2 0.509383 0.088502 0.179610
Si Si3 0.920541 0.821673 0.185048
Si Si4 0.738124 0.077773 0.992835
Si Si5 0.294323 0.455534 0.134990
Si Si6 0.629079 0.475508 0.651069
O O1 0.173107 0.714259 0.269097
O O2 0.213056 0.623682 0.430794
O O3 0.197091 0.610067 0.135405
O O4 0.485212 0.145218 0.277939
O O5 0.579619 0.071928 0.219929
O O6 0.471600 0.028401 0.220098
O O7 0.498464 0.104105 0.005264
O O8 0.863846 0.863846 0.239611
O O9 0.919276 0.756961 0.270397
O O10 0.914266 0.812167 0.006996
O O11 0.771129 0.019679 0.926853
O O12 0.692634 0.059457 0.126560
O O13 0.354548 0.468600 0.236616
#
# Coordination Sequence:
#
# PCOD8319153 Si02
#       6
#    16  16  16  16  16  16
#     4  11  25  39  51  75 115 163 223 274 311 354
#     4  10  23  42  65 100 133 167 211 259 332 401
#     4  11  24  44  72  99 135 172 213 271 326 404
#     4  12  22  37  60  83 114 164 212 263 313 375
#     4  12  23  44  64  98 129 167 221 263 333 394
#     4  11  22  37  65  90 132 170 208 268 314 396
#
# _framework density 22.394442000000002
#
# number of rings (size 3 to 8) (size 9 to 14) (size 15 to 20)
#    0.000    0.833    5.000    2.000    4.667    3.333 
#    3.000    2.500    0.000    1.500    0.000    0.000 
#    0.000    0.000    0.000    0.000    0.000    0.000 
#
# Total GULP energy -1190445.879722 kJ/mol
# GULP energy per Si atom -12400.477914 kJ/mol
# Density = 2.234347 g / cm^3
# Si number density = 22.394442 Si / 1000 Ang^3
#
#
#
# Elastic Constant Matrix: (Units=GPa)
#
#
# Indices 1 2 3 4 5 6 
#
# 1 53.9821 26.6770 23.4185 0.0000 0.0000 0.0000
# 2 26.6770 53.9821 23.4185 0.0000 0.0000 0.0000
# 3 23.4185 23.4185 103.5646 0.0000 0.0000 0.0000
# 4 0.0000 0.0000 0.0000 26.1973 0.0000 0.0000
# 5 0.0000 0.0000 0.0000 0.0000 26.1973 0.0000
# 6 0.0000 0.0000 0.0000 0.0000 0.0000 22.6689
#
#
#
# Elastic Compliance Matrix: (Units=1/GPa)
#
#
# Indices 1 2 3 4 5 6 
#
# 1 0.025447 -0.011176 -0.003227 0.000000 0.000000 0.000000
# 2 -0.011176 0.025447 -0.003227 0.000000 0.000000 0.000000
# 3 -0.003227 -0.003227 0.011115 0.000000 0.000000 0.000000
# 4 0.000000 0.000000 0.000000 0.038172 0.000000 0.000000
# 5 0.000000 0.000000 0.000000 0.000000 0.038172 0.000000
# 6 0.000000 0.000000 0.000000 0.000000 0.000000 0.044113
#
#
# Mechanical properties :
#
#
# Convention : Reuss Voigt Hill
#
# Bulk Modulus (GPa) = 37.38304 39.83968 38.61136
# Shear Modulus (GPa) = 22.06101 24.21370 23.13736
#
# Velocity S-wave (km/s) = 3.14205 3.29178 3.21779
# Velocity P-wave (km/s) = 5.46741 5.68123 5.57535
#
# Compressibility (1/GPa) = 0.02675010
#
# Stress axis : x y z
#
# Youngs Moduli (GPa) = 39.29660 39.29660 89.96600
#
# Poissons Ratio (x) = 0.43917 0.29034
# Poissons Ratio (y) = 0.43917 0.29034
# Poissons Ratio (z) = 0.12682 0.12682
#
# Static dielectric constant tensor:
#      x y z
#    x 3.903570 0.000000 0.000000 
#    y 0.000000 3.903570 0.000000 
#    z 0.000000 0.000000 4.316330 
# 
# 
# High freq. dielectric constant tensor:
#      x y z
#    x 1.867500 0.000000 0.000000 
#    y 0.000000 1.867500 0.000000 
#    z 0.000000 0.000000 1.885250 
# 
# From -- ./inp_files/1717.got.cif
#   From: 2010.03.12/outbox.cif.g09.slc.cpg/sg138_1_cif.got.tgz:1717.got - 2010.04.08 09:41:05.
