data_PCOD8319157
_publ_section_title
;
Structure prediction by ZEFSAII (Michael W. Deem and Ramdas Pophale) SiO2 
 PCOD8319157
Probable space group: P 42/N C M
;
_chemical_formula_sum "Si O2"
_cell_formula_units_Z 60
_cell_length_a 11.417212
_cell_length_b 11.417212
_cell_length_c 22.166127
_cell_angle_alpha 90.000000
_cell_angle_beta 90.000000
_cell_angle_gamma 90.000000
_cell_volume 2889.415165
_symmetry_space_group_name_H-M "P 42/N C M"
_symmetry_group_IT_number 138
_space_group.IT_coordinate_system_code '2'
_symmetry_cell_setting 'tetragonal'
loop_
_space_group_symop_operation_xyz
x,y,z
1/2-y,x,1/2+z
1/2-x,1/2-y,z
y,1/2-x,1/2+z
1/2+x,-y,1/2-z
-x,1/2+y,1/2-z
1/2+y,1/2+x,-z
-y,-x,-z
-x,-y,-z
1/2+y,-x,1/2-z
1/2+x,1/2+y,-z
-y,1/2+x,1/2-z
1/2-x,y,1/2+z
x,1/2-y,1/2+z
1/2-y,1/2-x,z
y,x,z
loop_
_atom_site_type_symbol
_atom_site_label
_atom_site_fract_x
_atom_site_fract_y
_atom_site_fract_z
Si Si1 0.347906 0.347906 0.538487
Si Si2 0.543727 0.956274 0.842097
Si Si3 0.486718 0.681240 0.033252
Si Si4 0.750000 0.250000 0.250000
Si Si5 0.229791 0.548693 0.837639
Si Si6 0.339254 0.339254 0.770616
O O1 0.250000 0.250000 0.550857
O O2 0.393353 0.393353 0.602329
O O3 0.457495 0.292645 0.501810
O O4 0.570174 0.092552 0.842836
O O5 0.591368 0.908633 0.779386
O O6 0.586961 0.586961 0.044397
O O7 0.432646 0.718976 0.096375
O O8 0.376164 0.623837 0.000000
O O9 0.857920 0.287249 0.292272
O O10 0.262425 0.421275 0.813799
O O11 0.250000 0.250000 0.738061
#
# Coordination Sequence:
#
# PCOD8319157 Si02
#       6
#     8   8  16   4  16   8
#     4  10  24  47  69 100 142 178 233 286 346 432
#     4  12  26  45  67 104 137 179 234 295 343 414
#     4  10  23  43  71 102 135 184 229 283 355 422
#     4  12  28  44  62 108 144 172 232 302 344 404
#     4  12  25  44  70  98 140 181 233 290 348 418
#     4  12  25  45  73 100 133 193 234 278 360 419
#
# _framework density 20.765446000000001
#
# number of rings (size 3 to 8) (size 9 to 14) (size 15 to 20)
#    0.000    0.800    5.333    1.200    3.733    2.133 
#    0.000    0.000    0.000    0.000    0.000    0.000 
#    0.000    0.000    0.000    0.000    0.000    0.000 
#
# Total GULP energy -744203.728842 kJ/mol
# GULP energy per Si atom -12403.395481 kJ/mol
# Density = 2.071818 g / cm^3
# Si number density = 20.765446 Si / 1000 Ang^3
#
#
#
# Elastic Constant Matrix: (Units=GPa)
#
#
# Indices 1 2 3 4 5 6 
#
# 1 81.3113 70.6777 67.8099 0.0000 0.0000 0.0000
# 2 70.6777 81.3078 67.8116 0.0000 0.0000 0.0000
# 3 67.8099 67.8116 166.9097 0.0000 0.0000 0.0000
# 4 0.0000 0.0000 0.0000 47.0172 0.0000 0.0000
# 5 0.0000 0.0000 0.0000 0.0000 47.0150 0.0000
# 6 0.0000 0.0000 0.0000 0.0000 0.0000 37.2397
#
#
#
# Elastic Compliance Matrix: (Units=1/GPa)
#
#
# Indices 1 2 3 4 5 6 
#
# 1 0.052187 -0.041868 -0.004192 0.000000 0.000000 0.000000
# 2 -0.041868 0.052192 -0.004195 0.000000 0.000000 0.000000
# 3 -0.004192 -0.004195 0.009398 0.000000 0.000000 0.000000
# 4 0.000000 0.000000 0.000000 0.021269 0.000000 0.000000
# 5 0.000000 0.000000 0.000000 0.000000 0.021270 0.000000
# 6 0.000000 0.000000 0.000000 0.000000 0.000000 0.026853
#
#
# Mechanical properties :
#
#
# Convention : Reuss Voigt Hill
#
# Bulk Modulus (GPa) = 75.36948 82.45858 78.91403
# Shear Modulus (GPa) = 17.35506 34.46969 25.91238
#
# Velocity S-wave (km/s) = 2.89410 4.07867 3.53634
# Velocity P-wave (km/s) = 6.89508 7.87252 7.39995
#
# Compressibility (1/GPa) = 0.01326797
#
# Stress axis : x y z
#
# Youngs Moduli (GPa) = 19.16188 19.16015 106.40076
#
# Poissons Ratio (x) = 0.80220 0.44601
# Poissons Ratio (y) = 0.80227 0.44631
# Poissons Ratio (z) = 0.08032 0.08037
#
# Static dielectric constant tensor:
#      x y z
#    x 3.935290 0.000000 0.000000 
#    y 0.000000 3.935320 0.000000 
#    z 0.000000 0.000000 3.754900 
# 
# 
# High freq. dielectric constant tensor:
#      x y z
#    x 1.820990 0.000000 0.000000 
#    y 0.000000 1.820990 0.000000 
#    z 0.000000 0.000000 1.824720 
# 
# From -- ./inp_files/5899.got.cif
#   From: 2010.03.12/outbox.cif.g09.slc.cpg/sg138_3_cif.got.tgz:5899.got - 2010.04.08 09:41:05.
