data_PCOD8319772
_publ_section_title
;
Structure prediction by ZEFSAII (Michael W. Deem and Ramdas Pophale) SiO2 
 PCOD8319772
Probable space group: I 4/M M M
;
_chemical_formula_sum "Si O2"
_cell_formula_units_Z 96
_cell_length_a 19.212613
_cell_length_b 19.212613
_cell_length_c 13.566936
_cell_angle_alpha 90.000000
_cell_angle_beta 90.000000
_cell_angle_gamma 90.000000
_cell_volume 5007.888444
_symmetry_space_group_name_H-M "I 4/M M M"
_symmetry_group_IT_number 139
_symmetry_cell_setting 'tetragonal'
loop_
_space_group_symop_operation_xyz
x,y,z
-y,x,z
-x,-y,z
y,-x,z
x,-y,-z
-x,y,-z
y,x,-z
-y,-x,-z
-x,-y,-z
y,-x,-z
x,y,-z
-y,x,-z
-x,y,z
x,-y,z
-y,-x,z
y,x,z
1/2+x,1/2+y,1/2+z
1/2-y,1/2+x,1/2+z
1/2-x,1/2-y,1/2+z
1/2+y,1/2-x,1/2+z
1/2+x,1/2-y,1/2-z
1/2-x,1/2+y,1/2-z
1/2+y,1/2+x,1/2-z
1/2-y,1/2-x,1/2-z
1/2-x,1/2-y,1/2-z
1/2+y,1/2-x,1/2-z
1/2+x,1/2+y,1/2-z
1/2-y,1/2+x,1/2-z
1/2-x,1/2+y,1/2+z
1/2+x,1/2-y,1/2+z
1/2-y,1/2-x,1/2+z
1/2+y,1/2+x,1/2+z
loop_
_atom_site_type_symbol
_atom_site_label
_atom_site_fract_x
_atom_site_fract_y
_atom_site_fract_z
Si Si1 0.182053 0.075547 0.288539
Si Si2 0.775013 0.923921 0.500000
Si Si3 0.919323 0.324258 0.811291
Si Si4 0.294136 0.174539 0.000000
O O1 0.132733 0.132733 0.237273
O O2 0.174895 0.081504 0.406004
O O3 0.262092 0.088212 0.265533
O O4 0.157655 0.000000 0.249799
O O5 0.720238 0.862531 0.500000
O O6 0.736613 0.000000 0.500000
O O7 0.890287 0.390287 0.750000
O O8 0.875331 0.299074 0.905376
O O9 0.000000 0.338919 0.840822
O O10 0.224163 0.224163 0.000000
#
# Coordination Sequence:
#
# PCOD8319772 Si02
#       4
#    32  16  32  16
#     4  10  20  35  55  81 115 150 189 237 290 352
#     4  10  20  33  53  85 118 145 181 232 290 350
#     4  11  24  40  59  86 120 156 200 251 302 357
#     4  12  23  37  64  90 117 156 202 249 305 362
#
# _framework density 19.169757000000001
#
# number of rings (size 3 to 8) (size 9 to 14) (size 15 to 20)
#    0.000    1.333    3.333    3.000    0.000    2.000 
#    0.000    0.000    0.000    6.000    0.000    0.000 
#    0.000   12.000    0.000    0.000    0.000    0.000 
#
# Total GULP energy -594732.112749 kJ/mol
# GULP energy per Si atom -12390.252349 kJ/mol
# Density = 1.912613 g / cm^3
# Si number density = 19.169757 Si / 1000 Ang^3
#
#
#
# Elastic Constant Matrix: (Units=GPa)
#
#
# Indices 1 2 3 4 5 6 
#
# 1 114.0856 90.1656 26.7779 0.0000 0.0000 0.0000
# 2 90.1656 114.0856 26.7779 0.0000 0.0000 0.0000
# 3 26.7779 26.7779 73.9817 0.0000 0.0000 0.0000
# 4 0.0000 0.0000 0.0000 7.9492 0.0000 0.0000
# 5 0.0000 0.0000 0.0000 0.0000 7.9492 0.0000
# 6 0.0000 0.0000 0.0000 0.0000 0.0000 29.2192
#
#
#
# Elastic Compliance Matrix: (Units=1/GPa)
#
#
# Indices 1 2 3 4 5 6 
#
# 1 0.023608 -0.018198 -0.001958 0.000000 0.000000 0.000000
# 2 -0.018198 0.023608 -0.001958 0.000000 0.000000 0.000000
# 3 -0.001958 -0.001958 0.014934 0.000000 0.000000 0.000000
# 4 0.000000 0.000000 0.000000 0.125798 0.000000 0.000000
# 5 0.000000 0.000000 0.000000 0.000000 0.125798 0.000000
# 6 0.000000 0.000000 0.000000 0.000000 0.000000 0.034224
#
#
# Mechanical properties :
#
#
# Convention : Reuss Voigt Hill
#
# Bulk Modulus (GPa) = 55.79999 65.51066 60.65533
# Shear Modulus (GPa) = 12.55738 19.58564 16.07151
#
# Velocity S-wave (km/s) = 2.56219 3.19986 2.89862
# Velocity P-wave (km/s) = 6.15830 6.92101 6.55076
#
# Compressibility (1/GPa) = 0.01792115
#
# Stress axis : x y z
#
# Youngs Moduli (GPa) = 42.35911 42.35911 66.96040
#
# Poissons Ratio (x) = 0.77087 0.13110
# Poissons Ratio (y) = 0.77087 0.13110
# Poissons Ratio (z) = 0.08294 0.08294
#
# Static dielectric constant tensor:
#      x y z
#    x 3.619960 0.000000 0.000000 
#    y 0.000000 3.619960 0.000000 
#    z 0.000000 0.000000 3.626940 
# 
# 
# High freq. dielectric constant tensor:
#      x y z
#    x 1.747550 0.000000 0.000000 
#    y 0.000000 1.747550 0.000000 
#    z 0.000000 0.000000 1.742040 
# 
# From -- ./inp_files/2978.got.cif
#   From: 2010.03.12/outbox.cif.g09.slc.cpg/sg139_2_cif.got.tgz:2978.got - 2010.04.08 09:46:31.
