data_PCOD8319621
_publ_section_title
;
Structure prediction by ZEFSAII (Michael W. Deem and Ramdas Pophale) SiO2 
 PCOD8319621
Probable space group: I 4/M M M
;
_chemical_formula_sum "Si O2"
_cell_formula_units_Z 136
_cell_length_a 17.439641
_cell_length_b 17.439641
_cell_length_c 25.767237
_cell_angle_alpha 90.000000
_cell_angle_beta 90.000000
_cell_angle_gamma 90.000000
_cell_volume 7836.875244
_symmetry_space_group_name_H-M "I 4/M M M"
_symmetry_group_IT_number 139
_symmetry_cell_setting 'tetragonal'
loop_
_space_group_symop_operation_xyz
x,y,z
-y,x,z
-x,-y,z
y,-x,z
x,-y,-z
-x,y,-z
y,x,-z
-y,-x,-z
-x,-y,-z
y,-x,-z
x,y,-z
-y,x,-z
-x,y,z
x,-y,z
-y,-x,z
y,x,z
1/2+x,1/2+y,1/2+z
1/2-y,1/2+x,1/2+z
1/2-x,1/2-y,1/2+z
1/2+y,1/2-x,1/2+z
1/2+x,1/2-y,1/2-z
1/2-x,1/2+y,1/2-z
1/2+y,1/2+x,1/2-z
1/2-y,1/2-x,1/2-z
1/2-x,1/2-y,1/2-z
1/2+y,1/2-x,1/2-z
1/2+x,1/2+y,1/2-z
1/2-y,1/2+x,1/2-z
1/2-x,1/2+y,1/2+z
1/2+x,1/2-y,1/2+z
1/2-y,1/2-x,1/2+z
1/2+y,1/2+x,1/2+z
loop_
_atom_site_type_symbol
_atom_site_label
_atom_site_fract_x
_atom_site_fract_y
_atom_site_fract_z
Si Si1 0.589561 0.217668 0.633416
Si Si2 0.825219 0.174782 0.590195
Si Si3 0.910490 0.910490 0.500000
Si Si4 0.211059 0.086844 0.755913
Si Si5 0.703086 0.296915 0.440713
Si Si6 0.087683 0.702594 0.654641
O O1 0.500000 0.207147 0.622350
O O2 0.607191 0.260690 0.686851
O O3 0.626037 0.267135 0.587073
O O4 0.627708 0.134083 0.636978
O O5 0.874081 0.125920 0.550629
O O6 0.767994 0.232007 0.560723
O O7 0.883987 0.221919 0.625270
O O8 0.000000 0.892580 0.500000
O O9 0.141481 0.141481 0.740205
O O10 0.281640 0.098151 0.716085
O O11 0.180279 0.000000 0.753117
O O12 0.683008 0.316993 0.500000
O O13 0.000000 0.686293 0.639979
#
# Coordination Sequence:
#
# PCOD8319621 Si02
#       6
#    32  16   8  32  16  32
#     4  10  21  35  55  81 108 140 179 222 269 326
#     4  10  19  35  54  76 102 136 185 217 255 310
#     4  11  22  34  50  72 104 140 172 215 264 308
#     4  10  19  33  53  80 111 143 178 216 261 320
#     4  10  20  36  59  79  98 137 184 230 274 313
#     4  10  20  33  54  81 111 144 175 215 264 317
#
# _framework density 17.353854999999999
#
# number of rings (size 3 to 8) (size 9 to 14) (size 15 to 20)
#    0.000    1.941    2.941    1.412    0.000    2.118 
#    0.000    0.000    0.000    4.588    0.000    4.118 
#    0.000    0.000    0.000    0.000    0.000    0.000 
#
# Total GULP energy -843332.072837 kJ/mol
# GULP energy per Si atom -12401.942248 kJ/mol
# Density = 1.731436 g / cm^3
# Si number density = 17.353855 Si / 1000 Ang^3
#
#
#
# Elastic Constant Matrix: (Units=GPa)
#
#
# Indices 1 2 3 4 5 6 
#
# 1 111.5684 74.3836 46.9244 0.0000 0.0000 0.0000
# 2 74.3836 111.5685 46.9243 0.0000 0.0000 0.0000
# 3 46.9244 46.9243 117.8781 0.0000 0.0000 0.0000
# 4 0.0000 0.0000 0.0000 2.5151 0.0000 0.0000
# 5 0.0000 0.0000 0.0000 0.0000 2.5153 0.0000
# 6 0.0000 0.0000 0.0000 0.0000 0.0000 24.0420
#
#
#
# Elastic Compliance Matrix: (Units=1/GPa)
#
#
# Indices 1 2 3 4 5 6 
#
# 1 0.016811 -0.010081 -0.002679 0.000000 0.000000 0.000000
# 2 -0.010081 0.016811 -0.002679 0.000000 0.000000 0.000000
# 3 -0.002679 -0.002679 0.010616 0.000000 0.000000 0.000000
# 4 0.000000 0.000000 0.000000 0.397592 0.000000 0.000000
# 5 0.000000 0.000000 0.000000 0.000000 0.397562 0.000000
# 6 0.000000 0.000000 0.000000 0.000000 0.000000 0.041594
#
#
# Mechanical properties :
#
#
# Convention : Reuss Voigt Hill
#
# Bulk Modulus (GPa) = 74.85075 75.27552 75.06314
# Shear Modulus (GPa) = 5.45662 17.33335 11.39498
#
# Velocity S-wave (km/s) = 1.77515 3.16384 2.56525
# Velocity P-wave (km/s) = 6.88674 7.53774 7.21958
#
# Compressibility (1/GPa) = 0.01335992
#
# Stress axis : x y z
#
# Youngs Moduli (GPa) = 59.48408 59.48417 94.19568
#
# Poissons Ratio (x) = 0.59969 0.25235
# Poissons Ratio (y) = 0.59968 0.25235
# Poissons Ratio (z) = 0.15936 0.15936
#
# Static dielectric constant tensor:
#      x y z
#    x 3.153210 0.000000 0.000000 
#    y 0.000000 3.153210 0.000000 
#    z 0.000000 0.000000 3.225790 
# 
# 
# High freq. dielectric constant tensor:
#      x y z
#    x 1.668110 0.000000 0.000000 
#    y 0.000000 1.668110 0.000000 
#    z 0.000000 0.000000 1.672360 
# 
# From -- ./inp_files/11525.got.cif
#   From: 2010.03.12/outbox.cif.g09.slc.cpg/sg139_6_cif.got.tgz:11525.got - 2010.04.08 09:46:31.
