data_PCOD8319024
_publ_section_title
;
Structure prediction by ZEFSAII (Michael W. Deem and Ramdas Pophale) SiO2 
 PCOD8319024
Probable space group: P 42/N C M
;
_chemical_formula_sum "Si O2"
_cell_formula_units_Z 128
_cell_length_a 22.650757
_cell_length_b 22.650757
_cell_length_c 13.472795
_cell_angle_alpha 90.000000
_cell_angle_beta 90.000000
_cell_angle_gamma 90.000000
_cell_volume 6912.308991
_symmetry_space_group_name_H-M "P 42/N C M"
_symmetry_group_IT_number 138
_space_group.IT_coordinate_system_code '2'
_symmetry_cell_setting 'tetragonal'
loop_
_space_group_symop_operation_xyz
x,y,z
1/2-y,x,1/2+z
1/2-x,1/2-y,z
y,1/2-x,1/2+z
1/2+x,-y,1/2-z
-x,1/2+y,1/2-z
1/2+y,1/2+x,-z
-y,-x,-z
-x,-y,-z
1/2+y,-x,1/2-z
1/2+x,1/2+y,-z
-y,1/2+x,1/2-z
1/2-x,y,1/2+z
x,1/2-y,1/2+z
1/2-y,1/2-x,z
y,x,z
loop_
_atom_site_type_symbol
_atom_site_label
_atom_site_fract_x
_atom_site_fract_y
_atom_site_fract_z
Si Si1 0.792174 0.168263 0.278732
Si Si2 0.017419 0.387448 0.752848
Si Si3 0.926512 0.479355 0.676688
Si Si4 0.689732 0.428710 0.130923
Si Si5 0.880402 0.026844 0.525718
Si Si6 0.547603 0.639253 0.342203
Si Si7 0.499786 0.244534 0.714738
Si Si8 0.769854 0.406807 0.955115
O O1 0.728915 0.172430 0.224741
O O2 0.827748 0.119608 0.215079
O O3 0.785039 0.153376 0.395624
O O4 0.080179 0.419822 0.742884
O O5 0.968016 0.422635 0.691023
O O6 0.997517 0.384603 0.865100
O O7 0.026111 0.321178 0.712371
O O8 0.871888 0.462452 0.603781
O O9 0.896195 0.497738 0.780489
O O10 0.965756 0.534245 0.634141
O O11 0.738912 0.472770 0.177605
O O12 0.715512 0.398997 0.031433
O O13 0.942155 0.057846 0.500000
O O14 0.827350 0.073483 0.515311
O O15 0.868316 0.970699 0.456164
O O16 0.612356 0.612356 0.324621
O O17 0.551413 0.707760 0.309728
O O18 0.548088 0.250158 0.629458
#
# Coordination Sequence:
#
# PCOD8319024 Si02
#       8
#    16  16  16  16  16  16  16  16
#     4  10  24  39  51  75 108 146 198 245 277 315
#     4  11  21  34  55  80 116 147 174 230 289 340
#     4   9  19  33  52  80 111 145 180 227 284 337
#     4  10  20  35  58  76 103 146 187 233 276 337
#     4  11  20  29  53  86 115 140 179 229 285 343
#     4   9  17  32  52  79 110 143 183 220 270 333
#     4   9  20  36  51  78 111 141 182 217 275 332
#     4  10  22  35  56  77 103 153 189 232 274 333
#
# _framework density 18.517692
#
# number of rings (size 3 to 8) (size 9 to 14) (size 15 to 20)
#    0.000    2.125    2.500    1.125    5.250    1.000 
#    0.000    1.875    0.000    1.875    0.000    0.000 
#    0.000    2.250    0.000    0.000    0.000    0.000 
#
# Total GULP energy -1586888.691494 kJ/mol
# GULP energy per Si atom -12397.567902 kJ/mol
# Density = 1.847554 g / cm^3
# Si number density = 18.517692 Si / 1000 Ang^3
#
#
#
# Elastic Constant Matrix: (Units=GPa)
#
#
# Indices 1 2 3 4 5 6 
#
# 1 90.1241 37.8135 8.3034 0.0000 0.0000 0.0000
# 2 37.8135 90.1258 8.3034 0.0000 0.0000 0.0000
# 3 8.3034 8.3034 46.3199 0.0000 0.0000 0.0000
# 4 0.0000 0.0000 0.0000 21.2818 0.0000 0.0000
# 5 0.0000 0.0000 0.0000 0.0000 21.2815 0.0000
# 6 0.0000 0.0000 0.0000 0.0000 0.0000 24.9640
#
#
#
# Elastic Compliance Matrix: (Units=1/GPa)
#
#
# Indices 1 2 3 4 5 6 
#
# 1 0.013560 -0.005557 -0.001435 0.000000 0.000000 0.000000
# 2 -0.005557 0.013559 -0.001435 0.000000 0.000000 0.000000
# 3 -0.001435 -0.001435 0.022103 0.000000 0.000000 0.000000
# 4 0.000000 0.000000 0.000000 0.046989 0.000000 0.000000
# 5 0.000000 0.000000 0.000000 0.000000 0.046989 0.000000
# 6 0.000000 0.000000 0.000000 0.000000 0.000000 0.040058
#
#
# Mechanical properties :
#
#
# Convention : Reuss Voigt Hill
#
# Bulk Modulus (GPa) = 30.89273 37.26783 34.08028
# Shear Modulus (GPa) = 23.70798 24.98208 24.34503
#
# Velocity S-wave (km/s) = 3.58199 3.67698 3.62980
# Velocity P-wave (km/s) = 5.81606 6.18031 6.00095
#
# Compressibility (1/GPa) = 0.03237008
#
# Stress axis : x y z
#
# Youngs Moduli (GPa) = 73.74901 73.75048 45.24209
#
# Poissons Ratio (x) = 0.40982 0.06490
# Poissons Ratio (y) = 0.40982 0.06490
# Poissons Ratio (z) = 0.10580 0.10580
#
# Static dielectric constant tensor:
#      x y z
#    x 3.511050 0.000000 0.000000 
#    y 0.000000 3.511090 0.000000 
#    z 0.000000 0.000000 3.274390 
# 
# 
# High freq. dielectric constant tensor:
#      x y z
#    x 1.702510 0.000000 0.000000 
#    y 0.000000 1.702510 0.000000 
#    z 0.000000 0.000000 1.709460 
# 
# From -- ./inp_files/3354.got.cif
#   From: 2010.03.12/outbox.cif.g09.slc.cpg/sg138_2_cif.got.tgz:3354.got - 2010.04.08 09:41:05.
