data_PCOD8319880
_publ_section_title
;
Structure prediction by ZEFSAII (Michael W. Deem and Ramdas Pophale) SiO2 
 PCOD8319880
Probable space group: I 4/M M M
;
_chemical_formula_sum "Si O2"
_cell_formula_units_Z 168
_cell_length_a 23.969486
_cell_length_b 23.969486
_cell_length_c 14.884785
_cell_angle_alpha 90.000000
_cell_angle_beta 90.000000
_cell_angle_gamma 90.000000
_cell_volume 8551.848691
_symmetry_space_group_name_H-M "I 4/M M M"
_symmetry_group_IT_number 139
_symmetry_cell_setting 'tetragonal'
loop_
_space_group_symop_operation_xyz
x,y,z
-y,x,z
-x,-y,z
y,-x,z
x,-y,-z
-x,y,-z
y,x,-z
-y,-x,-z
-x,-y,-z
y,-x,-z
x,y,-z
-y,x,-z
-x,y,z
x,-y,z
-y,-x,z
y,x,z
1/2+x,1/2+y,1/2+z
1/2-y,1/2+x,1/2+z
1/2-x,1/2-y,1/2+z
1/2+y,1/2-x,1/2+z
1/2+x,1/2-y,1/2-z
1/2-x,1/2+y,1/2-z
1/2+y,1/2+x,1/2-z
1/2-y,1/2-x,1/2-z
1/2-x,1/2-y,1/2-z
1/2+y,1/2-x,1/2-z
1/2+x,1/2+y,1/2-z
1/2-y,1/2+x,1/2-z
1/2-x,1/2+y,1/2+z
1/2+x,1/2-y,1/2+z
1/2-y,1/2-x,1/2+z
1/2+y,1/2+x,1/2+z
loop_
_atom_site_type_symbol
_atom_site_label
_atom_site_fract_x
_atom_site_fract_y
_atom_site_fract_z
Si Si1 0.433729 0.066272 0.250000
Si Si2 0.607856 0.303925 0.603587
Si Si3 0.850405 0.598553 0.099393
Si Si4 0.500000 0.407931 0.000000
Si Si5 0.801635 0.000000 0.782340
Si Si6 0.408664 0.500000 0.809571
Si Si7 0.286763 0.199615 0.145474
Si Si8 0.000000 0.732111 0.604619
O O1 0.500000 0.078126 0.254824
O O2 0.405335 0.096021 0.164285
O O3 0.588994 0.305614 0.500000
O O4 0.636588 0.363413 0.630188
O O5 0.555294 0.285926 0.663418
O O6 0.652331 0.256221 0.619200
O O7 0.815964 0.656113 0.097055
O O8 0.805133 0.553220 0.126183
O O9 0.874340 0.587276 0.000000
O O10 0.554284 0.445717 0.000000
O O11 0.500000 0.374267 0.905689
O O12 0.868182 0.000000 0.774593
O O13 0.779355 0.000000 0.680538
O O14 0.445106 0.445106 0.802944
O O15 0.259774 0.259774 0.115980
O O16 0.299457 0.200544 0.250000
O O17 0.000000 0.754308 0.500000
#
# Coordination Sequence:
#
# PCOD8319880 Si02
#       8
#    16  32  32   8  16  16  32  16
#     4  11  24  40  65  94 122 156 205 252 296 361
#     4  10  22  39  57  85 122 155 194 246 299 348
#     4  11  22  41  64  85 121 161 196 242 305 361
#     4   7  12  26  48  72  98 130 174 234 289 326
#     4  12  22  34  60  83 116 157 201 238 292 372
#     4   9  18  33  54  78 105 145 198 247 292 343
#     4  10  20  37  63  89 115 152 200 248 296 354
#     4  10  24  42  59  86 122 159 191 244 312 362
#
# _framework density 19.644876
#
# number of rings (size 3 to 8) (size 9 to 14) (size 15 to 20)
#    0.000    1.762    1.905    3.143    0.667    1.524 
#    0.000    1.905    0.000    2.286    0.000    4.000 
#    0.000    0.000    0.000    0.000    0.000    0.000 
#
# Total GULP energy -1040818.168006 kJ/mol
# GULP energy per Si atom -12390.692476 kJ/mol
# Density = 1.960016 g / cm^3
# Si number density = 19.644876 Si / 1000 Ang^3
#
#
#
# Elastic Constant Matrix: (Units=GPa)
#
#
# Indices 1 2 3 4 5 6 
#
# 1 99.9061 34.2562 39.1168 0.0000 0.0000 0.0000
# 2 34.2562 99.9058 39.1166 0.0000 0.0000 0.0000
# 3 39.1168 39.1166 102.7492 0.0000 0.0000 0.0000
# 4 0.0000 0.0000 0.0000 28.8752 0.0000 0.0000
# 5 0.0000 0.0000 0.0000 0.0000 28.8751 0.0000
# 6 0.0000 0.0000 0.0000 0.0000 0.0000 229.7455
#
#
#
# Elastic Compliance Matrix: (Units=1/GPa)
#
#
# Indices 1 2 3 4 5 6 
#
# 1 0.012406 -0.002826 -0.003647 0.000000 0.000000 0.000000
# 2 -0.002826 0.012406 -0.003647 0.000000 0.000000 0.000000
# 3 -0.003647 -0.003647 0.012509 0.000000 0.000000 0.000000
# 4 0.000000 0.000000 0.000000 0.034632 0.000000 0.000000
# 5 0.000000 0.000000 0.000000 0.000000 0.034632 0.000000
# 6 0.000000 0.000000 0.000000 0.000000 0.000000 0.004353
#
#
# Mechanical properties :
#
#
# Convention : Reuss Voigt Hill
#
# Bulk Modulus (GPa) = 58.54360 58.61559 58.57959
# Shear Modulus (GPa) = 36.53007 70.17060 53.35033
#
# Velocity S-wave (km/s) = 4.31690 5.98307 5.21693
# Velocity P-wave (km/s) = 7.39683 8.81089 8.13465
#
# Compressibility (1/GPa) = 0.01708129
#
# Stress axis : x y z
#
# Youngs Moduli (GPa) = 80.60346 80.60329 79.93928
#
# Poissons Ratio (x) = 0.22778 0.29156
# Poissons Ratio (y) = 0.22778 0.29156
# Poissons Ratio (z) = 0.29399 0.29398
#
# Static dielectric constant tensor:
#      x y z
#    x 3.610330 0.000000 0.000000 
#    y 0.000000 3.610360 0.000000 
#    z 0.000000 0.000000 3.728100 
# 
# 
# High freq. dielectric constant tensor:
#      x y z
#    x 1.762160 0.000000 0.000000 
#    y 0.000000 1.762160 0.000000 
#    z 0.000000 0.000000 1.777910 
# 
# From -- ./inp_files/6223.got.cif
#   From: 2010.03.12/outbox.cif.g09.slc.cpg/sg139_4_cif.got.tgz:6223.got - 2010.04.08 09:46:31.
