data_PCOD8319655
_publ_section_title
;
Structure prediction by ZEFSAII (Michael W. Deem and Ramdas Pophale) SiO2 
 PCOD8319655
Probable space group: I 4/M M M
;
_chemical_formula_sum "Si O2"
_cell_formula_units_Z 112
_cell_length_a 18.613818
_cell_length_b 18.613818
_cell_length_c 17.225980
_cell_angle_alpha 90.000000
_cell_angle_beta 90.000000
_cell_angle_gamma 90.000000
_cell_volume 5968.357993
_symmetry_space_group_name_H-M "I 4/M M M"
_symmetry_group_IT_number 139
_symmetry_cell_setting 'tetragonal'
loop_
_space_group_symop_operation_xyz
x,y,z
-y,x,z
-x,-y,z
y,-x,z
x,-y,-z
-x,y,-z
y,x,-z
-y,-x,-z
-x,-y,-z
y,-x,-z
x,y,-z
-y,x,-z
-x,y,z
x,-y,z
-y,-x,z
y,x,z
1/2+x,1/2+y,1/2+z
1/2-y,1/2+x,1/2+z
1/2-x,1/2-y,1/2+z
1/2+y,1/2-x,1/2+z
1/2+x,1/2-y,1/2-z
1/2-x,1/2+y,1/2-z
1/2+y,1/2+x,1/2-z
1/2-y,1/2-x,1/2-z
1/2-x,1/2-y,1/2-z
1/2+y,1/2-x,1/2-z
1/2+x,1/2+y,1/2-z
1/2-y,1/2+x,1/2-z
1/2-x,1/2+y,1/2+z
1/2+x,1/2-y,1/2+z
1/2-y,1/2-x,1/2+z
1/2+y,1/2+x,1/2+z
loop_
_atom_site_type_symbol
_atom_site_label
_atom_site_fract_x
_atom_site_fract_y
_atom_site_fract_z
Si Si1 0.725512 0.842147 0.137476
Si Si2 0.302388 0.417154 0.500000
Si Si3 0.418915 0.304598 0.766019
Si Si4 0.580261 0.216847 0.911210
O O1 0.763458 0.763458 0.130488
O O2 0.758088 0.896706 0.075891
O O3 0.740268 0.876202 0.222216
O O4 0.640582 0.837826 0.120252
O O5 0.319111 0.500000 0.500000
O O6 0.378912 0.378912 0.500000
O O7 0.500000 0.310692 0.734677
O O8 0.380211 0.380211 0.749471
O O9 0.417115 0.287844 0.857774
O O10 0.500000 0.181864 0.904596
O O11 0.596814 0.239088 0.000000
#
# Coordination Sequence:
#
# PCOD8319655 Si02
#       4
#    32  16  32  32
#     4  10  19  34  55  78 106 142 184 227 270 317
#     4  10  20  33  53  79 107 141 178 220 270 320
#     4  10  21  35  54  81 111 145 183 224 272 324
#     4  10  20  34  54  81 111 140 176 227 277 321
#
# _framework density 18.765630000000002
#
# number of rings (size 3 to 8) (size 9 to 14) (size 15 to 20)
#    0.000    2.000    1.429    2.571    0.000    4.429 
#    0.000    0.000    0.000    9.429    0.000   12.000 
#    0.000    0.000    0.000    0.000    0.000    0.000 
#
# Total GULP energy -694233.982464 kJ/mol
# GULP energy per Si atom -12397.035401 kJ/mol
# Density = 1.872292 g / cm^3
# Si number density = 18.765630 Si / 1000 Ang^3
#
#
#
# Elastic Constant Matrix: (Units=GPa)
#
#
# Indices 1 2 3 4 5 6 
#
# 1 132.4958 53.6598 35.2460 0.0000 0.0000 0.0000
# 2 53.6598 132.4958 35.2460 0.0000 0.0000 0.0000
# 3 35.2460 35.2460 109.8890 0.0000 0.0000 0.0000
# 4 0.0000 0.0000 0.0000 81.8031 0.0000 0.0000
# 5 0.0000 0.0000 0.0000 0.0000 81.8031 0.0000
# 6 0.0000 0.0000 0.0000 0.0000 0.0000 15.9193
#
#
#
# Elastic Compliance Matrix: (Units=1/GPa)
#
#
# Indices 1 2 3 4 5 6 
#
# 1 0.009400 -0.003285 -0.001961 0.000000 0.000000 0.000000
# 2 -0.003285 0.009400 -0.001961 0.000000 0.000000 0.000000
# 3 -0.001961 -0.001961 0.010358 0.000000 0.000000 0.000000
# 4 0.000000 0.000000 0.000000 0.012224 0.000000 0.000000
# 5 0.000000 0.000000 0.000000 0.000000 0.012224 0.000000
# 6 0.000000 0.000000 0.000000 0.000000 0.000000 0.062817
#
#
# Mechanical properties :
#
#
# Convention : Reuss Voigt Hill
#
# Bulk Modulus (GPa) = 67.83135 69.24269 68.53702
# Shear Modulus (GPa) = 36.83193 52.62038 44.72615
#
# Velocity S-wave (km/s) = 4.43508 5.30110 4.88731
# Velocity P-wave (km/s) = 7.90264 8.62831 8.27343
#
# Compressibility (1/GPa) = 0.01474245
#
# Stress axis : x y z
#
# Youngs Moduli (GPa) = 106.38838 106.38838 96.54230
#
# Poissons Ratio (x) = 0.34949 0.18934
# Poissons Ratio (y) = 0.34949 0.18934
# Poissons Ratio (z) = 0.20865 0.20865
#
# Static dielectric constant tensor:
#      x y z
#    x 3.319370 0.000000 0.000000 
#    y 0.000000 3.319370 0.000000 
#    z 0.000000 0.000000 3.833790 
# 
# 
# High freq. dielectric constant tensor:
#      x y z
#    x 1.709990 0.000000 0.000000 
#    y 0.000000 1.709990 0.000000 
#    z 0.000000 0.000000 1.753500 
# 
# From -- ./inp_files/7555.got.cif
#   From: 2010.03.12/outbox.cif.g09.slc.cpg/sg139_4_cif.got.tgz:7555.got - 2010.04.08 09:46:31.
