data_PCOD8319230
_publ_section_title
;
Structure prediction by ZEFSAII (Michael W. Deem and Ramdas Pophale) SiO2 
 PCOD8319230
Probable space group: P 42/N C M
;
_chemical_formula_sum "Si O2"
_cell_formula_units_Z 72
_cell_length_a 18.981306
_cell_length_b 18.981306
_cell_length_c 9.011324
_cell_angle_alpha 90.000000
_cell_angle_beta 90.000000
_cell_angle_gamma 90.000000
_cell_volume 3246.689721
_symmetry_space_group_name_H-M "P 42/N C M"
_symmetry_group_IT_number 138
_space_group.IT_coordinate_system_code '2'
_symmetry_cell_setting 'tetragonal'
loop_
_space_group_symop_operation_xyz
x,y,z
1/2-y,x,1/2+z
1/2-x,1/2-y,z
y,1/2-x,1/2+z
1/2+x,-y,1/2-z
-x,1/2+y,1/2-z
1/2+y,1/2+x,-z
-y,-x,-z
-x,-y,-z
1/2+y,-x,1/2-z
1/2+x,1/2+y,-z
-y,1/2+x,1/2-z
1/2-x,y,1/2+z
x,1/2-y,1/2+z
1/2-y,1/2-x,z
y,x,z
loop_
_atom_site_type_symbol
_atom_site_label
_atom_site_fract_x
_atom_site_fract_y
_atom_site_fract_z
Si Si1 0.899459 0.107718 0.678533
Si Si2 0.615466 0.615466 0.877720
Si Si3 0.454660 0.747315 0.729468
Si Si4 0.493234 0.493234 0.178571
Si Si5 0.689202 0.689202 0.614374
Si Si6 0.552803 0.743685 0.978735
O O1 0.898920 0.101081 0.500000
O O2 0.903129 0.189076 0.728916
O O3 0.828016 0.081525 0.758765
O O4 0.966753 0.065463 0.744920
O O5 0.565682 0.565682 0.779006
O O6 0.666624 0.666624 0.780066
O O7 0.569798 0.661281 0.990948
O O8 0.531115 0.758474 0.808299
O O9 0.478232 0.743833 0.558686
O O10 0.500000 0.500000 0.000000
O O11 0.750000 0.750000 0.620184
O O12 0.711473 0.619708 0.526182
#
# Coordination Sequence:
#
# PCOD8319230 Si02
#       6
#    16   8  16   8   8  16
#     4  12  27  49  76 108 148 192 245 305 373 435
#     4  12  24  42  67 100 148 187 236 296 350 434
#     4  12  27  48  74 107 142 189 243 306 365 429
#     4  12  25  46  77 108 140 196 254 302 359 445
#     4  12  26  38  66 105 146 193 235 290 364 441
#     4  12  24  45  69 102 147 185 239 296 360 430
#
# _framework density 22.176434
#
# number of rings (size 3 to 8) (size 9 to 14) (size 15 to 20)
#    0.000    0.000    7.778    1.667    1.556    2.222 
#    0.000    1.111    0.000    0.000    0.000    0.000 
#    0.000    0.000    0.000    0.000    0.000    0.000 
#
# Total GULP energy -892340.159111 kJ/mol
# GULP energy per Si atom -12393.613321 kJ/mol
# Density = 2.212596 g / cm^3
# Si number density = 22.176434 Si / 1000 Ang^3
#
#
#
# Elastic Constant Matrix: (Units=GPa)
#
#
# Indices 1 2 3 4 5 6 
#
# 1 117.7431 55.6649 33.5419 0.0000 0.0000 0.0000
# 2 55.6649 117.7430 33.5416 0.0000 0.0000 0.0000
# 3 33.5419 33.5416 75.4286 0.0000 0.0000 0.0000
# 4 0.0000 0.0000 0.0000 30.9489 0.0000 0.0000
# 5 0.0000 0.0000 0.0000 0.0000 30.9489 0.0000
# 6 0.0000 0.0000 0.0000 0.0000 0.0000 42.6740
#
#
#
# Elastic Compliance Matrix: (Units=1/GPa)
#
#
# Indices 1 2 3 4 5 6 
#
# 1 0.011537 -0.004572 -0.003097 0.000000 0.000000 0.000000
# 2 -0.004572 0.011537 -0.003097 0.000000 0.000000 0.000000
# 3 -0.003097 -0.003097 0.016012 0.000000 0.000000 0.000000
# 4 0.000000 0.000000 0.000000 0.032311 0.000000 0.000000
# 5 0.000000 0.000000 0.000000 0.000000 0.032311 0.000000
# 6 0.000000 0.000000 0.000000 0.000000 0.000000 0.023433
#
#
# Mechanical properties :
#
#
# Convention : Reuss Voigt Hill
#
# Bulk Modulus (GPa) = 56.96960 61.82348 59.39654
# Shear Modulus (GPa) = 32.35716 33.45879 32.90797
#
# Velocity S-wave (km/s) = 3.82393 3.88848 3.85634
# Velocity P-wave (km/s) = 6.72619 6.93534 6.83157
#
# Compressibility (1/GPa) = 0.01755322
#
# Stress axis : x y z
#
# Youngs Moduli (GPa) = 86.67901 86.67908 62.45285
#
# Poissons Ratio (x) = 0.39629 0.19343
# Poissons Ratio (y) = 0.39629 0.19342
# Poissons Ratio (z) = 0.26846 0.26846
#
# Static dielectric constant tensor:
#      x y z
#    x 4.084430 0.000000 0.000000 
#    y 0.000000 4.084440 0.000000 
#    z 0.000000 0.000000 3.987980 
# 
# 
# High freq. dielectric constant tensor:
#      x y z
#    x 1.878220 0.000000 0.000000 
#    y 0.000000 1.878220 0.000000 
#    z 0.000000 0.000000 1.879390 
# 
# From -- ./inp_files/1554.got.cif
#   From: 2010.03.12/outbox.cif.g09.slc.cpg/sg138_1_cif.got.tgz:1554.got - 2010.04.08 09:41:05.
