data_PCOD8319358
_publ_section_title
;
Structure prediction by ZEFSAII (Michael W. Deem and Ramdas Pophale) SiO2 
 PCOD8319358
Probable space group: I 4/M M M
;
_chemical_formula_sum "Si O2"
_cell_formula_units_Z 192
_cell_length_a 22.931977
_cell_length_b 22.931977
_cell_length_c 22.194581
_cell_angle_alpha 90.000000
_cell_angle_beta 90.000000
_cell_angle_gamma 90.000000
_cell_volume 11671.587915
_symmetry_space_group_name_H-M "I 4/M M M"
_symmetry_group_IT_number 139
_symmetry_cell_setting 'tetragonal'
loop_
_space_group_symop_operation_xyz
x,y,z
-y,x,z
-x,-y,z
y,-x,z
x,-y,-z
-x,y,-z
y,x,-z
-y,-x,-z
-x,-y,-z
y,-x,-z
x,y,-z
-y,x,-z
-x,y,z
x,-y,z
-y,-x,z
y,x,z
1/2+x,1/2+y,1/2+z
1/2-y,1/2+x,1/2+z
1/2-x,1/2-y,1/2+z
1/2+y,1/2-x,1/2+z
1/2+x,1/2-y,1/2-z
1/2-x,1/2+y,1/2-z
1/2+y,1/2+x,1/2-z
1/2-y,1/2-x,1/2-z
1/2-x,1/2-y,1/2-z
1/2+y,1/2-x,1/2-z
1/2+x,1/2+y,1/2-z
1/2-y,1/2+x,1/2-z
1/2-x,1/2+y,1/2+z
1/2+x,1/2-y,1/2+z
1/2-y,1/2-x,1/2+z
1/2+y,1/2+x,1/2+z
loop_
_atom_site_type_symbol
_atom_site_label
_atom_site_fract_x
_atom_site_fract_y
_atom_site_fract_z
Si Si1 0.772603 0.323544 0.428673
Si Si2 0.280881 0.064651 0.727487
Si Si3 0.313116 0.066808 0.137769
Si Si4 0.142827 0.238529 0.368819
Si Si5 0.654812 0.563848 0.929336
Si Si6 0.907219 0.563753 0.817602
O O1 0.781922 0.321157 0.500000
O O2 0.712252 0.287749 0.412651
O O3 0.775764 0.391101 0.406840
O O4 0.828984 0.297065 0.395212
O O5 0.293071 0.084151 0.795333
O O6 0.241036 0.113542 0.697078
O O7 0.337834 0.064952 0.685986
O O8 0.252407 0.000000 0.726510
O O9 0.384083 0.072078 0.137886
O O10 0.297058 0.000000 0.120956
O O11 0.193871 0.193871 0.360793
O O12 0.094218 0.216496 0.415845
O O13 0.652718 0.500000 0.899382
O O14 0.601967 0.601967 0.901596
O O15 0.647501 0.559001 0.000000
O O16 0.926997 0.500000 0.843430
O O17 0.931907 0.568094 0.750000
#
# Coordination Sequence:
#
# PCOD8319358 Si02
#       6
#    32  32  32  32  32  32
#     4  10  21  36  52  69  92 124 162 201 239 283
#     4   9  17  29  46  69  97 124 155 195 237 283
#     4  10  20  33  50  73  98 123 156 197 238 284
#     4  10  18  29  47  67  91 122 155 194 238 282
#     4   9  17  28  42  61  85 115 153 194 233 273
#     4   9  16  27  44  67  95 127 161 194 230 272
#
# _framework density 16.450202999999998
#
# number of rings (size 3 to 8) (size 9 to 14) (size 15 to 20)
#    0.000    2.500    1.667    2.500    0.000    4.333 
#    0.000    2.500    0.000    1.500    0.000    1.167 
#    0.000    0.333    0.000    5.500    0.000    4.000 
#
# Total GULP energy -1189336.924245 kJ/mol
# GULP energy per Si atom -12388.926294 kJ/mol
# Density = 1.641276 g / cm^3
# Si number density = 16.450203 Si / 1000 Ang^3
#
#
#
# Elastic Constant Matrix: (Units=GPa)
#
#
# Indices 1 2 3 4 5 6 
#
# 1 67.0290 24.1457 22.2127 0.0000 0.0000 0.0000
# 2 24.1457 67.0291 22.2126 0.0000 0.0000 0.0000
# 3 22.2127 22.2126 49.2967 0.0000 0.0000 0.0000
# 4 0.0000 0.0000 0.0000 20.8703 0.0000 0.0000
# 5 0.0000 0.0000 0.0000 0.0000 20.8703 0.0000
# 6 0.0000 0.0000 0.0000 0.0000 0.0000 3.6783
#
#
#
# Elastic Compliance Matrix: (Units=1/GPa)
#
#
# Indices 1 2 3 4 5 6 
#
# 1 0.018686 -0.004633 -0.006332 0.000000 0.000000 0.000000
# 2 -0.004633 0.018686 -0.006332 0.000000 0.000000 0.000000
# 3 -0.006332 -0.006332 0.025992 0.000000 0.000000 0.000000
# 4 0.000000 0.000000 0.000000 0.047915 0.000000 0.000000
# 5 0.000000 0.000000 0.000000 0.000000 0.047915 0.000000
# 6 0.000000 0.000000 0.000000 0.000000 0.000000 0.271866
#
#
# Mechanical properties :
#
#
# Convention : Reuss Voigt Hill
#
# Bulk Modulus (GPa) = 34.75916 35.61074 35.18495
# Shear Modulus (GPa) = 10.52089 16.73603 13.62846
#
# Velocity S-wave (km/s) = 2.53170 3.19309 2.88143
# Velocity P-wave (km/s) = 5.45177 5.94046 5.70135
#
# Compressibility (1/GPa) = 0.02876940
#
# Stress axis : x y z
#
# Youngs Moduli (GPa) = 53.51524 53.51541 38.47349
#
# Poissons Ratio (x) = 0.24793 0.24363
# Poissons Ratio (y) = 0.24793 0.24363
# Poissons Ratio (z) = 0.33888 0.33888
#
# Static dielectric constant tensor:
#      x y z
#    x 3.245600 0.000000 0.000000 
#    y 0.000000 3.245600 0.000000 
#    z 0.000000 0.000000 2.797740 
# 
# 
# High freq. dielectric constant tensor:
#      x y z
#    x 1.629280 0.000000 0.000000 
#    y 0.000000 1.629280 0.000000 
#    z 0.000000 0.000000 1.597360 
# 
# From -- ./inp_files/11978.got.cif
#   From: 2010.03.12/outbox.cif.g09.slc.cpg/sg139_6_cif.got.tgz:11978.got - 2010.04.08 09:46:31.
