data_PCOD8319813
_publ_section_title
;
Structure prediction by ZEFSAII (Michael W. Deem and Ramdas Pophale) SiO2 
 PCOD8319813
Probable space group: I 4/M M M
;
_chemical_formula_sum "Si O2"
_cell_formula_units_Z 192
_cell_length_a 17.846683
_cell_length_b 17.846683
_cell_length_c 33.523715
_cell_angle_alpha 90.000000
_cell_angle_beta 90.000000
_cell_angle_gamma 90.000000
_cell_volume 10677.440477
_symmetry_space_group_name_H-M "I 4/M M M"
_symmetry_group_IT_number 139
_symmetry_cell_setting 'tetragonal'
loop_
_space_group_symop_operation_xyz
x,y,z
-y,x,z
-x,-y,z
y,-x,z
x,-y,-z
-x,y,-z
y,x,-z
-y,-x,-z
-x,-y,-z
y,-x,-z
x,y,-z
-y,x,-z
-x,y,z
x,-y,z
-y,-x,z
y,x,z
1/2+x,1/2+y,1/2+z
1/2-y,1/2+x,1/2+z
1/2-x,1/2-y,1/2+z
1/2+y,1/2-x,1/2+z
1/2+x,1/2-y,1/2-z
1/2-x,1/2+y,1/2-z
1/2+y,1/2+x,1/2-z
1/2-y,1/2-x,1/2-z
1/2-x,1/2-y,1/2-z
1/2+y,1/2-x,1/2-z
1/2+x,1/2+y,1/2-z
1/2-y,1/2+x,1/2-z
1/2-x,1/2+y,1/2+z
1/2+x,1/2-y,1/2+z
1/2-y,1/2-x,1/2+z
1/2+y,1/2+x,1/2+z
loop_
_atom_site_type_symbol
_atom_site_label
_atom_site_fract_x
_atom_site_fract_y
_atom_site_fract_z
Si Si1 0.584011 0.173356 0.218800
Si Si2 0.912164 0.500000 0.544575
Si Si3 0.141104 0.327817 0.068154
Si Si4 0.785294 0.091809 0.000000
Si Si5 0.793792 0.085842 0.547134
Si Si6 0.292358 0.174574 0.156590
Si Si7 0.916055 0.799571 0.780712
O O1 0.500000 0.153472 0.207215
O O2 0.611079 0.111079 0.250000
O O3 0.626491 0.176262 0.176828
O O4 0.592651 0.252826 0.240255
O O5 0.876096 0.500000 0.500000
O O6 0.887671 0.425630 0.567421
O O7 0.000000 0.500000 0.541346
O O8 0.218379 0.370566 0.059066
O O9 0.143486 0.294432 0.112157
O O10 0.122031 0.259790 0.038458
O O11 0.867433 0.132568 0.000000
O O12 0.794211 0.000000 0.000000
O O13 0.796065 0.081026 0.500000
O O14 0.865918 0.134082 0.562564
O O15 0.796047 0.000000 0.564461
O O16 0.258111 0.258111 0.156900
O O17 0.240495 0.119824 0.181618
O O18 0.878558 0.878558 0.771874
O O19 0.000000 0.815290 0.792805
#
# Coordination Sequence:
#
# PCOD8319813 Si02
#       7
#    32  16  32  16  32  32  32
#     4   9  18  34  54  76 108 142 177 217 264 322
#     4  11  22  38  58  82 114 148 182 232 294 348
#     4  12  21  38  58  84 111 147 191 237 284 338
#     4  12  24  41  62  84 111 149 191 239 297 348
#     4  10  20  34  54  79 109 145 184 228 276 329
#     4  10  21  34  54  79 107 142 183 225 265 321
#     4   9  18  33  54  78 105 138 173 218 269 322
#
# _framework density 17.981838
#
# number of rings (size 3 to 8) (size 9 to 14) (size 15 to 20)
#    0.000    1.750    2.500    2.500    1.167    5.250 
#    0.000    0.833    0.000    0.000    0.000    2.333 
#    0.000    4.000    0.000    0.000    0.000    0.000 
#
# Total GULP energy -1190068.402788 kJ/mol
# GULP energy per Si atom -12396.545862 kJ/mol
# Density = 1.794091 g / cm^3
# Si number density = 17.981838 Si / 1000 Ang^3
#
#
#
# Elastic Constant Matrix: (Units=GPa)
#
#
# Indices 1 2 3 4 5 6 
#
# 1 67.8392 98.7334 35.5291 0.0000 0.0000 0.0000
# 2 98.7334 67.8395 35.5292 0.0000 0.0000 0.0000
# 3 35.5291 35.5292 99.9204 0.0000 0.0000 0.0000
# 4 0.0000 0.0000 0.0000 5.3683 0.0000 0.0000
# 5 0.0000 0.0000 0.0000 0.0000 5.3686 0.0000
# 6 0.0000 0.0000 0.0000 0.0000 0.0000 -9.0010
#
#
#
# Elastic Compliance Matrix: (Units=1/GPa)
#
#
# Indices 1 2 3 4 5 6 
#
# 1 -0.012646 0.019723 -0.002516 0.000000 0.000000 0.000000
# 2 0.019723 -0.012646 -0.002516 0.000000 0.000000 0.000000
# 3 -0.002516 -0.002516 0.011797 0.000000 0.000000 0.000000
# 4 0.000000 0.000000 0.000000 0.186278 0.000000 0.000000
# 5 0.000000 0.000000 0.000000 0.000000 0.186269 0.000000
# 6 0.000000 0.000000 0.000000 0.000000 0.000000 -0.111098
#
#
# Mechanical properties :
#
#
# Convention : Reuss Voigt Hill
#
# Bulk Modulus (GPa) = 62.94947 63.90916 63.42931
# Shear Modulus (GPa) = 22.33450 4.73434 13.53442
#
# Velocity S-wave (km/s) = 3.52811 1.62436 2.74646
# Velocity P-wave (km/s) = 7.18888 6.25589 6.73855
#
# Compressibility (1/GPa) = 0.01588576
#
# Stress axis : x y z
#
# Youngs Moduli (GPa) = -79.07665 -79.07703 84.76407
#
# Poissons Ratio (x) = 1.55962 0.21330
# Poissons Ratio (y) = 1.55961 0.21329
# Poissons Ratio (z) = -0.19898 -0.19898
#
# Static dielectric constant tensor:
#      x y z
#    x 3.582450 0.000000 0.000000 
#    y 0.000000 3.582450 0.000000 
#    z 0.000000 0.000000 0.284170 
# 
# 
# High freq. dielectric constant tensor:
#      x y z
#    x 1.700800 0.000000 0.000000 
#    y 0.000000 1.700800 0.000000 
#    z 0.000000 0.000000 1.684910 
# 
# From -- ./inp_files/14365.got.cif
#   From: 2010.03.12/outbox.cif.g09.slc.cpg/sg139_8_cif.got.tgz:14365.got - 2010.04.08 09:46:31.
