data_PCOD8319021
_publ_section_title
;
Structure prediction by ZEFSAII (Michael W. Deem and Ramdas Pophale) SiO2 
 PCOD8319021
Probable space group: P 42/N C M
;
_chemical_formula_sum "Si O2"
_cell_formula_units_Z 80
_cell_length_a 13.350615
_cell_length_b 13.350615
_cell_length_c 24.100840
_cell_angle_alpha 90.000000
_cell_angle_beta 90.000000
_cell_angle_gamma 90.000000
_cell_volume 4295.707714
_symmetry_space_group_name_H-M "P 42/N C M"
_symmetry_group_IT_number 138
_space_group.IT_coordinate_system_code '2'
_symmetry_cell_setting 'tetragonal'
loop_
_space_group_symop_operation_xyz
x,y,z
1/2-y,x,1/2+z
1/2-x,1/2-y,z
y,1/2-x,1/2+z
1/2+x,-y,1/2-z
-x,1/2+y,1/2-z
1/2+y,1/2+x,-z
-y,-x,-z
-x,-y,-z
1/2+y,-x,1/2-z
1/2+x,1/2+y,-z
-y,1/2+x,1/2-z
1/2-x,y,1/2+z
x,1/2-y,1/2+z
1/2-y,1/2-x,z
y,x,z
loop_
_atom_site_type_symbol
_atom_site_label
_atom_site_fract_x
_atom_site_fract_y
_atom_site_fract_z
Si Si1 0.226730 0.588619 0.756962
Si Si2 0.095267 0.740791 0.020172
Si Si3 0.365622 0.965943 0.870500
Si Si4 0.810957 0.970459 0.338865
Si Si5 0.906270 0.753170 0.451517
O O1 0.144131 0.667067 0.734831
O O2 0.192887 0.529677 0.812017
O O3 0.238859 0.504634 0.710246
O O4 0.061532 0.721357 0.084222
O O5 0.132219 0.632219 0.000000
O O6 0.178309 0.821692 0.000000
O O7 0.998903 0.776091 0.988231
O O8 0.439500 0.871830 0.867749
O O9 0.430061 0.069940 0.881121
O O10 0.887306 0.887306 0.315206
O O11 0.738775 0.927662 0.386344
O O12 0.821436 0.678565 0.470680
O O13 0.867374 0.867374 0.461866
#
# Coordination Sequence:
#
# PCOD8319021 Si02
#       5
#    16  16  16  16  16
#     4   9  19  32  55  80 111 143 182 232 282 332
#     4  11  23  35  59  85 112 146 191 241 291 340
#     4  10  20  35  56  83 112 148 189 232 286 347
#     4   9  18  34  56  81 111 146 186 228 277 335
#     4  10  21  37  57  81 112 150 189 232 282 336
#
# _framework density 18.623241
#
# number of rings (size 3 to 8) (size 9 to 14) (size 15 to 20)
#    0.000    2.200    2.000    0.600    2.800    3.600 
#    0.000    1.000    0.000    1.200    0.000    0.000 
#    0.000    0.000    0.000    0.000    0.000    0.000 
#
# Total GULP energy -991047.527416 kJ/mol
# GULP energy per Si atom -12388.094093 kJ/mol
# Density = 1.858085 g / cm^3
# Si number density = 18.623241 Si / 1000 Ang^3
#
#
#
# Elastic Constant Matrix: (Units=GPa)
#
#
# Indices 1 2 3 4 5 6 
#
# 1 70.5965 35.8299 52.1528 0.0000 0.0000 0.0000
# 2 35.8299 70.5985 52.1532 0.0000 0.0000 0.0000
# 3 52.1528 52.1532 100.9870 0.0000 0.0000 0.0000
# 4 0.0000 0.0000 0.0000 25.5943 0.0000 0.0000
# 5 0.0000 0.0000 0.0000 0.0000 25.5944 0.0000
# 6 0.0000 0.0000 0.0000 0.0000 0.0000 18.7385
#
#
#
# Elastic Compliance Matrix: (Units=1/GPa)
#
#
# Indices 1 2 3 4 5 6 
#
# 1 0.023895 -0.004868 -0.009826 0.000000 0.000000 0.000000
# 2 -0.004868 0.023894 -0.009825 0.000000 0.000000 0.000000
# 3 -0.009826 -0.009825 0.020051 0.000000 0.000000 0.000000
# 4 0.000000 0.000000 0.000000 0.039071 0.000000 0.000000
# 5 0.000000 0.000000 0.000000 0.000000 0.039071 0.000000
# 6 0.000000 0.000000 0.000000 0.000000 0.000000 0.053366
#
#
# Mechanical properties :
#
#
# Convention : Reuss Voigt Hill
#
# Bulk Modulus (GPa) = 53.19113 58.05042 55.62077
# Shear Modulus (GPa) = 19.63458 20.78850 20.21154
#
# Velocity S-wave (km/s) = 3.25053 3.34468 3.29794
# Velocity P-wave (km/s) = 6.53541 6.79371 6.66581
#
# Compressibility (1/GPa) = 0.01880013
#
# Stress axis : x y z
#
# Youngs Moduli (GPa) = 41.85059 41.85212 49.87355
#
# Poissons Ratio (x) = 0.20375 0.49004
# Poissons Ratio (y) = 0.20374 0.49003
# Poissons Ratio (z) = 0.41121 0.41121
#
# Static dielectric constant tensor:
#      x y z
#    x 3.423850 0.000000 0.000000 
#    y 0.000000 3.423840 0.000000 
#    z 0.000000 0.000000 3.407320 
# 
# 
# High freq. dielectric constant tensor:
#      x y z
#    x 1.713690 0.000000 0.000000 
#    y 0.000000 1.713690 0.000000 
#    z 0.000000 0.000000 1.721700 
# 
# From -- ./inp_files/6022.got.cif
#   From: 2010.03.12/outbox.cif.g09.slc.cpg/sg138_4_cif.got.tgz:6022.got - 2010.04.08 09:41:05.
