data_PCOD8319150
_publ_section_title
;
Structure prediction by ZEFSAII (Michael W. Deem and Ramdas Pophale) SiO2 
 PCOD8319150
Probable space group: P 42/N C M
;
_chemical_formula_sum "Si O2"
_cell_formula_units_Z 112
_cell_length_a 13.711514
_cell_length_b 13.711514
_cell_length_c 27.291879
_cell_angle_alpha 90.000000
_cell_angle_beta 90.000000
_cell_angle_gamma 90.000000
_cell_volume 5131.026528
_symmetry_space_group_name_H-M "P 42/N C M"
_symmetry_group_IT_number 138
_space_group.IT_coordinate_system_code '2'
_symmetry_cell_setting 'tetragonal'
loop_
_space_group_symop_operation_xyz
x,y,z
1/2-y,x,1/2+z
1/2-x,1/2-y,z
y,1/2-x,1/2+z
1/2+x,-y,1/2-z
-x,1/2+y,1/2-z
1/2+y,1/2+x,-z
-y,-x,-z
-x,-y,-z
1/2+y,-x,1/2-z
1/2+x,1/2+y,-z
-y,1/2+x,1/2-z
1/2-x,y,1/2+z
x,1/2-y,1/2+z
1/2-y,1/2-x,z
y,x,z
loop_
_atom_site_type_symbol
_atom_site_label
_atom_site_fract_x
_atom_site_fract_y
_atom_site_fract_z
Si Si1 0.047084 0.892522 0.917512
Si Si2 0.899332 0.272845 0.238680
Si Si3 0.410898 0.247769 0.803407
Si Si4 0.394932 0.545759 0.551006
Si Si5 0.273073 0.071131 0.514799
Si Si6 0.362611 0.781496 0.867361
Si Si7 0.704534 0.956969 0.591677
O O1 0.061734 0.803997 0.880297
O O2 0.011187 0.854237 0.970983
O O3 0.152415 0.941702 0.920681
O O4 0.966678 0.966678 0.895203
O O5 0.846260 0.168046 0.229782
O O6 0.901860 0.321057 0.184713
O O7 0.004310 0.260981 0.263417
O O8 0.348748 0.151253 0.790953
O O9 0.342961 0.342961 0.800766
O O10 0.458685 0.233735 0.857807
O O11 0.395003 0.604998 0.500000
O O12 0.501498 0.501498 0.562493
O O13 0.320549 0.453084 0.547945
O O14 0.368077 0.623896 0.592929
O O15 0.322062 0.177939 0.525289
O O16 0.236211 0.066302 0.458130
O O17 0.250000 0.750000 0.866136
O O18 0.626195 0.873806 0.599430
#
# Coordination Sequence:
#
# PCOD8319150 Si02
#       7
#    16  16  16  16  16  16  16
#     4   9  18  33  56  89 124 157 201 256 309 365
#     4  11  23  42  66  91 123 158 209 273 323 375
#     4  10  23  41  61  92 130 167 213 267 326 390
#     4  10  24  42  58  87 130 166 201 248 303 373
#     4   9  18  33  57  88 121 165 212 253 298 358
#     4  11  23  40  66  90 120 160 206 254 311 375
#     4   9  17  31  56  87 123 163 204 253 306 360
#
# _framework density 21.827988999999999
#
# number of rings (size 3 to 8) (size 9 to 14) (size 15 to 20)
#    0.000    2.143    1.429    1.286    2.000    4.571 
#    0.000    2.857    0.000    0.000    0.000    0.000 
#    0.000    0.000    0.000    0.000    0.000    0.000 
#
# Total GULP energy -1387589.861688 kJ/mol
# GULP energy per Si atom -12389.195194 kJ/mol
# Density = 2.177831 g / cm^3
# Si number density = 21.827989 Si / 1000 Ang^3
#
#
#
# Elastic Constant Matrix: (Units=GPa)
#
#
# Indices 1 2 3 4 5 6 
#
# 1 76.2988 37.3123 43.5969 0.0000 0.0000 0.0000
# 2 37.3123 76.2992 43.5970 0.0000 0.0000 0.0000
# 3 43.5969 43.5970 141.9874 0.0000 0.0000 0.0000
# 4 0.0000 0.0000 0.0000 26.1299 0.0000 0.0000
# 5 0.0000 0.0000 0.0000 0.0000 26.1300 0.0000
# 6 0.0000 0.0000 0.0000 0.0000 0.0000 28.5780
#
#
#
# Elastic Compliance Matrix: (Units=1/GPa)
#
#
# Indices 1 2 3 4 5 6 
#
# 1 0.018583 -0.007067 -0.003536 0.000000 0.000000 0.000000
# 2 -0.007067 0.018583 -0.003536 0.000000 0.000000 0.000000
# 3 -0.003536 -0.003536 0.009214 0.000000 0.000000 0.000000
# 4 0.000000 0.000000 0.000000 0.038270 0.000000 0.000000
# 5 0.000000 0.000000 0.000000 0.000000 0.038270 0.000000
# 6 0.000000 0.000000 0.000000 0.000000 0.000000 0.034992
#
#
# Mechanical properties :
#
#
# Convention : Reuss Voigt Hill
#
# Bulk Modulus (GPa) = 55.24229 60.39975 57.82102
# Shear Modulus (GPa) = 26.01137 27.50619 26.75878
#
# Velocity S-wave (km/s) = 3.45578 3.55369 3.50507
# Velocity P-wave (km/s) = 6.42543 6.67601 6.55192
#
# Compressibility (1/GPa) = 0.01810207
#
# Stress axis : x y z
#
# Youngs Moduli (GPa) = 53.81337 53.81361 108.52780
#
# Poissons Ratio (x) = 0.38031 0.38374
# Poissons Ratio (y) = 0.38030 0.38374
# Poissons Ratio (z) = 0.19028 0.19028
#
# Static dielectric constant tensor:
#      x y z
#    x 3.901860 0.000000 0.000000 
#    y 0.000000 3.901860 0.000000 
#    z 0.000000 0.000000 3.926240 
# 
# 
# High freq. dielectric constant tensor:
#      x y z
#    x 1.852320 0.000000 0.000000 
#    y 0.000000 1.852320 0.000000 
#    z 0.000000 0.000000 1.845910 
# 
# From -- ./inp_files/7563.got.cif
#   From: 2010.03.12/outbox.cif.g09.slc.cpg/sg138_4_cif.got.tgz:7563.got - 2010.04.08 09:41:05.
