data_PCOD8319852
_publ_section_title
;
Structure prediction by ZEFSAII (Michael W. Deem and Ramdas Pophale) SiO2 
 PCOD8319852
Probable space group: I 4/M M M
;
_chemical_formula_sum "Si O2"
_cell_formula_units_Z 160
_cell_length_a 32.198944
_cell_length_b 32.198944
_cell_length_c 8.700950
_cell_angle_alpha 90.000000
_cell_angle_beta 90.000000
_cell_angle_gamma 90.000000
_cell_volume 9020.901287
_symmetry_space_group_name_H-M "I 4/M M M"
_symmetry_group_IT_number 139
_symmetry_cell_setting 'tetragonal'
loop_
_space_group_symop_operation_xyz
x,y,z
-y,x,z
-x,-y,z
y,-x,z
x,-y,-z
-x,y,-z
y,x,-z
-y,-x,-z
-x,-y,-z
y,-x,-z
x,y,-z
-y,x,-z
-x,y,z
x,-y,z
-y,-x,z
y,x,z
1/2+x,1/2+y,1/2+z
1/2-y,1/2+x,1/2+z
1/2-x,1/2-y,1/2+z
1/2+y,1/2-x,1/2+z
1/2+x,1/2-y,1/2-z
1/2-x,1/2+y,1/2-z
1/2+y,1/2+x,1/2-z
1/2-y,1/2-x,1/2-z
1/2-x,1/2-y,1/2-z
1/2+y,1/2-x,1/2-z
1/2+x,1/2+y,1/2-z
1/2-y,1/2+x,1/2-z
1/2-x,1/2+y,1/2+z
1/2+x,1/2-y,1/2+z
1/2-y,1/2-x,1/2+z
1/2+y,1/2+x,1/2+z
loop_
_atom_site_type_symbol
_atom_site_label
_atom_site_fract_x
_atom_site_fract_y
_atom_site_fract_z
Si Si1 0.386491 0.824349 0.181987
Si Si2 0.394440 0.394440 0.832299
Si Si3 0.824804 0.175197 0.329780
Si Si4 0.047275 0.172317 0.315758
Si Si5 0.453272 0.891822 0.819141
Si Si6 0.612537 0.266065 0.681725
O O1 0.345312 0.845312 0.250000
O O2 0.426667 0.851513 0.228819
O O3 0.391895 0.780356 0.260445
O O4 0.382027 0.819399 0.000000
O O5 0.359507 0.359507 0.845597
O O6 0.433836 0.371904 0.751285
O O7 0.409288 0.409288 0.000000
O O8 0.810476 0.189525 0.500000
O O9 0.844055 0.214505 0.240716
O O10 0.051906 0.173879 0.500000
O O11 0.072159 0.210363 0.244824
O O12 0.000000 0.175465 0.261393
O O13 0.500000 0.886323 0.755180
O O14 0.433426 0.933426 0.750000
O O15 0.453414 0.897176 0.000000
O O16 0.612428 0.267978 0.500000
#
# Coordination Sequence:
#
# PCOD8319852 Si02
#       6
#    32  16  16  32  32  32
#     4  10  20  36  55  74 100 136 173 207 248 301
#     4   7  12  25  45  67  92 125 166 209 249 292
#     4   9  17  33  54  74  98 132 171 207 248 300
#     4   9  17  30  49  72  99 135 177 216 256 304
#     4   9  19  35  54  76 101 131 168 208 250 298
#     4  11  21  33  51  77 106 133 165 210 259 304
#
# _framework density 17.736587
#
# number of rings (size 3 to 8) (size 9 to 14) (size 15 to 20)
#    0.000    2.600    0.000    3.900    0.000    2.600 
#    0.000    3.500    0.000    0.300    0.000    2.100 
#    0.000    0.000    0.000    7.300    0.000    9.000 
#
# Total GULP energy -991555.547877 kJ/mol
# GULP energy per Si atom -12394.444348 kJ/mol
# Density = 1.769622 g / cm^3
# Si number density = 17.736587 Si / 1000 Ang^3
#
#
#
# Elastic Constant Matrix: (Units=GPa)
#
#
# Indices 1 2 3 4 5 6 
#
# 1 108.5977 105.2493 41.4734 0.0000 0.0000 0.0000
# 2 105.2493 108.5978 41.4737 0.0000 0.0000 0.0000
# 3 41.4734 41.4737 70.7017 0.0000 0.0000 0.0000
# 4 0.0000 0.0000 0.0000 24.7779 0.0000 0.0000
# 5 0.0000 0.0000 0.0000 0.0000 24.7779 0.0000
# 6 0.0000 0.0000 0.0000 0.0000 0.0000 18.1039
#
#
#
# Elastic Compliance Matrix: (Units=1/GPa)
#
#
# Indices 1 2 3 4 5 6 
#
# 1 0.152347 -0.146294 -0.003550 0.000000 0.000000 0.000000
# 2 -0.146294 0.152348 -0.003552 0.000000 0.000000 0.000000
# 3 -0.003550 -0.003552 0.018310 0.000000 0.000000 0.000000
# 4 0.000000 0.000000 0.000000 0.040359 0.000000 0.000000
# 5 0.000000 0.000000 0.000000 0.000000 0.040359 0.000000
# 6 0.000000 0.000000 0.000000 0.000000 0.000000 0.055237
#
#
# Mechanical properties :
#
#
# Convention : Reuss Voigt Hill
#
# Bulk Modulus (GPa) = 61.67864 73.81000 67.74432
# Shear Modulus (GPa) = 6.48378 20.17866 13.33122
#
# Velocity S-wave (km/s) = 1.91404 3.37662 2.74455
# Velocity P-wave (km/s) = 6.30357 7.54367 6.95133
#
# Compressibility (1/GPa) = 0.01621307
#
# Stress axis : x y z
#
# Youngs Moduli (GPa) = 6.56394 6.56393 54.61487
#
# Poissons Ratio (x) = 0.96026 0.19391
# Poissons Ratio (y) = 0.96027 0.19397
# Poissons Ratio (z) = 0.02331 0.02331
#
# Static dielectric constant tensor:
#      x y z
#    x 3.447020 0.000000 0.000000 
#    y 0.000000 3.447020 0.000000 
#    z 0.000000 0.000000 3.226690 
# 
# 
# High freq. dielectric constant tensor:
#      x y z
#    x 1.681640 0.000000 0.000000 
#    y 0.000000 1.681640 0.000000 
#    z 0.000000 0.000000 1.678750 
# 
# From -- ./inp_files/2200.got.cif
#   From: 2010.03.12/outbox.cif.g09.slc.cpg/sg139_2_cif.got.tgz:2200.got - 2010.04.08 09:46:31.
