data_PCOD8319146
_publ_section_title
;
Structure prediction by ZEFSAII (Michael W. Deem and Ramdas Pophale) SiO2 
 PCOD8319146
Probable space group: P 42/N C M
;
_chemical_formula_sum "Si O2"
_cell_formula_units_Z 88
_cell_length_a 11.381937
_cell_length_b 11.381937
_cell_length_c 32.723346
_cell_angle_alpha 90.000000
_cell_angle_beta 90.000000
_cell_angle_gamma 90.000000
_cell_volume 4239.260058
_symmetry_space_group_name_H-M "P 42/N C M"
_symmetry_group_IT_number 138
_space_group.IT_coordinate_system_code '2'
_symmetry_cell_setting 'tetragonal'
loop_
_space_group_symop_operation_xyz
x,y,z
1/2-y,x,1/2+z
1/2-x,1/2-y,z
y,1/2-x,1/2+z
1/2+x,-y,1/2-z
-x,1/2+y,1/2-z
1/2+y,1/2+x,-z
-y,-x,-z
-x,-y,-z
1/2+y,-x,1/2-z
1/2+x,1/2+y,-z
-y,1/2+x,1/2-z
1/2-x,y,1/2+z
x,1/2-y,1/2+z
1/2-y,1/2-x,z
y,x,z
loop_
_atom_site_type_symbol
_atom_site_label
_atom_site_fract_x
_atom_site_fract_y
_atom_site_fract_z
Si Si1 0.123783 0.559576 0.210815
Si Si2 0.472399 0.663172 0.964486
Si Si3 0.347878 0.152123 0.000895
Si Si4 0.454511 0.729986 0.645613
Si Si5 0.157348 0.157348 0.411284
Si Si6 0.884158 0.069542 0.799613
Si Si7 0.750000 0.250000 0.411873
O O1 0.038803 0.642166 0.184090
O O2 0.138638 0.606421 0.256858
O O3 0.248934 0.553578 0.188953
O O4 0.070792 0.429209 0.211966
O O5 0.571361 0.571361 0.945754
O O6 0.538373 0.786068 0.977386
O O7 0.362914 0.698318 0.935783
O O8 0.407964 0.592037 0.000000
O O9 0.250000 0.250000 0.998611
O O10 0.390715 0.109285 0.955196
O O11 0.565545 0.723886 0.616776
O O12 0.445708 0.860714 0.663711
O O13 0.347293 0.693731 0.617079
O O14 0.250000 0.250000 0.426773
O O15 0.942089 0.942089 0.795271
#
# Coordination Sequence:
#
# PCOD8319146 Si02
#       7
#    16  16   8  16   8  16   8
#     4  11  22  41  65  88 124 168 217 265 316 385
#     4  10  22  43  68  96 129 168 222 268 321 402
#     4   9  20  43  71  95 130 173 213 272 339 397
#     4  12  23  40  60  93 131 166 212 264 326 388
#     4  11  24  41  65  97 132 165 209 278 337 383
#     4  11  23  40  65  90 123 173 214 264 323 381
#     4  12  25  38  67  96 132 174 212 270 327 394
#
# _framework density 20.758337999999998
#
# number of rings (size 3 to 8) (size 9 to 14) (size 15 to 20)
#    0.000    1.091    4.545    1.909    0.000    4.000 
#    0.000    2.727    0.000    0.000    0.000    0.000 
#    0.000    0.000    0.000    0.000    0.000    0.000 
#
# Total GULP energy -1090224.837045 kJ/mol
# GULP energy per Si atom -12388.918603 kJ/mol
# Density = 2.071109 g / cm^3
# Si number density = 20.758338 Si / 1000 Ang^3
#
#
#
# Elastic Constant Matrix: (Units=GPa)
#
#
# Indices 1 2 3 4 5 6 
#
# 1 89.8382 44.5246 29.5435 0.0000 0.0000 0.0000
# 2 44.5246 89.8382 29.5435 0.0000 0.0000 0.0000
# 3 29.5435 29.5435 95.3661 0.0000 0.0000 0.0000
# 4 0.0000 0.0000 0.0000 35.2705 0.0000 0.0000
# 5 0.0000 0.0000 0.0000 0.0000 35.2708 0.0000
# 6 0.0000 0.0000 0.0000 0.0000 0.0000 34.1290
#
#
#
# Elastic Compliance Matrix: (Units=1/GPa)
#
#
# Indices 1 2 3 4 5 6 
#
# 1 0.015342 -0.006726 -0.002669 0.000000 0.000000 0.000000
# 2 -0.006726 0.015342 -0.002669 0.000000 0.000000 0.000000
# 3 -0.002669 -0.002669 0.012140 0.000000 0.000000 0.000000
# 4 0.000000 0.000000 0.000000 0.028352 0.000000 0.000000
# 5 0.000000 0.000000 0.000000 0.000000 0.028352 0.000000
# 6 0.000000 0.000000 0.000000 0.000000 0.000000 0.029301
#
#
# Mechanical properties :
#
#
# Convention : Reuss Voigt Hill
#
# Bulk Modulus (GPa) = 53.48912 53.58509 53.53710
# Shear Modulus (GPa) = 31.40893 32.36279 31.88586
#
# Velocity S-wave (km/s) = 3.89405 3.95273 3.92350
# Velocity P-wave (km/s) = 6.78540 6.83388 6.80968
#
# Compressibility (1/GPa) = 0.01869539
#
# Stress axis : x y z
#
# Youngs Moduli (GPa) = 65.17890 65.17886 82.37410
#
# Poissons Ratio (x) = 0.43839 0.21988
# Poissons Ratio (y) = 0.43840 0.21988
# Poissons Ratio (z) = 0.17398 0.17398
#
# Static dielectric constant tensor:
#      x y z
#    x 3.769030 0.000000 0.000000 
#    y 0.000000 3.769030 0.000000 
#    z 0.000000 0.000000 3.815700 
# 
# 
# High freq. dielectric constant tensor:
#      x y z
#    x 1.812100 0.000000 0.000000 
#    y 0.000000 1.812100 0.000000 
#    z 0.000000 0.000000 1.814190 
# 
# From -- ./inp_files/8139.got.cif
#   From: 2010.03.12/outbox.cif.g09.slc.cpg/sg138_5_cif.got.tgz:8139.got - 2010.04.08 09:41:05.
