data_PCOD8319691
_publ_section_title
;
Structure prediction by ZEFSAII (Michael W. Deem and Ramdas Pophale) SiO2 
 PCOD8319691
Probable space group: I 4/M M M
;
_chemical_formula_sum "Si O2"
_cell_formula_units_Z 96
_cell_length_a 13.677516
_cell_length_b 13.677516
_cell_length_c 30.429061
_cell_angle_alpha 90.000000
_cell_angle_beta 90.000000
_cell_angle_gamma 90.000000
_cell_volume 5692.499666
_symmetry_space_group_name_H-M "I 4/M M M"
_symmetry_group_IT_number 139
_symmetry_cell_setting 'tetragonal'
loop_
_space_group_symop_operation_xyz
x,y,z
-y,x,z
-x,-y,z
y,-x,z
x,-y,-z
-x,y,-z
y,x,-z
-y,-x,-z
-x,-y,-z
y,-x,-z
x,y,-z
-y,x,-z
-x,y,z
x,-y,z
-y,-x,z
y,x,z
1/2+x,1/2+y,1/2+z
1/2-y,1/2+x,1/2+z
1/2-x,1/2-y,1/2+z
1/2+y,1/2-x,1/2+z
1/2+x,1/2-y,1/2-z
1/2-x,1/2+y,1/2-z
1/2+y,1/2+x,1/2-z
1/2-y,1/2-x,1/2-z
1/2-x,1/2-y,1/2-z
1/2+y,1/2-x,1/2-z
1/2+x,1/2+y,1/2-z
1/2-y,1/2+x,1/2-z
1/2-x,1/2+y,1/2+z
1/2+x,1/2-y,1/2+z
1/2-y,1/2-x,1/2+z
1/2+y,1/2+x,1/2+z
loop_
_atom_site_type_symbol
_atom_site_label
_atom_site_fract_x
_atom_site_fract_y
_atom_site_fract_z
Si Si1 0.114714 0.271781 0.381512
Si Si2 0.108500 0.383850 0.798149
Si Si3 0.387879 0.770529 0.449393
O O1 0.168806 0.168806 0.388423
O O2 0.152714 0.318509 0.335854
O O3 0.140112 0.346199 0.420798
O O4 0.000000 0.251026 0.381529
O O5 0.101117 0.500000 0.799150
O O6 0.148492 0.351509 0.750000
O O7 0.000000 0.339853 0.806681
O O8 0.376557 0.801549 0.500000
O O9 0.500000 0.750508 0.436937
O O10 0.328667 0.671334 0.438973
#
# Coordination Sequence:
#
# PCOD8319691 Si02
#       3
#    32  32  32
#     4  10  20  32  46  65  90 122 160 198 232 266
#     4   8  14  26  45  68  91 113 141 182 231 280
#     4   9  18  32  50  73  98 121 146 178 220 273
#
# _framework density 16.864297000000001
#
# number of rings (size 3 to 8) (size 9 to 14) (size 15 to 20)
#    0.000    3.000    0.000    2.000    0.000    4.000 
#    0.000    3.333    0.000    0.000    0.000    4.667 
#    0.000    8.000    0.000    0.000    0.000    0.000 
#
# Total GULP energy -595063.329593 kJ/mol
# GULP energy per Si atom -12397.152700 kJ/mol
# Density = 1.682591 g / cm^3
# Si number density = 16.864297 Si / 1000 Ang^3
#
#
#
# Elastic Constant Matrix: (Units=GPa)
#
#
# Indices 1 2 3 4 5 6 
#
# 1 82.2246 35.2972 46.5757 0.0000 0.0000 0.0000
# 2 35.2972 82.2248 46.5756 0.0000 0.0000 0.0000
# 3 46.5757 46.5756 101.8966 0.0000 0.0000 0.0000
# 4 0.0000 0.0000 0.0000 23.7730 0.0000 0.0000
# 5 0.0000 0.0000 0.0000 0.0000 23.7728 0.0000
# 6 0.0000 0.0000 0.0000 0.0000 0.0000 12.2487
#
#
#
# Elastic Compliance Matrix: (Units=1/GPa)
#
#
# Indices 1 2 3 4 5 6 
#
# 1 0.017326 -0.003983 -0.006099 0.000000 0.000000 0.000000
# 2 -0.003983 0.017326 -0.006099 0.000000 0.000000 0.000000
# 3 -0.006099 -0.006099 0.015389 0.000000 0.000000 0.000000
# 4 0.000000 0.000000 0.000000 0.042065 0.000000 0.000000
# 5 0.000000 0.000000 0.000000 0.000000 0.042065 0.000000
# 6 0.000000 0.000000 0.000000 0.000000 0.000000 0.081641
#
#
# Mechanical properties :
#
#
# Convention : Reuss Voigt Hill
#
# Bulk Modulus (GPa) = 56.56143 58.13811 57.34977
# Shear Modulus (GPa) = 19.67971 21.15207 20.41589
#
# Velocity S-wave (km/s) = 3.41976 3.54538 3.48314
# Velocity P-wave (km/s) = 7.01463 7.16300 7.08920
#
# Compressibility (1/GPa) = 0.01767989
#
# Stress axis : x y z
#
# Youngs Moduli (GPa) = 57.71526 57.71550 64.97940
#
# Poissons Ratio (x) = 0.22988 0.39632
# Poissons Ratio (y) = 0.22988 0.39631
# Poissons Ratio (z) = 0.35201 0.35201
#
# Static dielectric constant tensor:
#      x y z
#    x 2.956280 0.000000 0.000000 
#    y 0.000000 2.956280 0.000000 
#    z 0.000000 0.000000 3.522500 
# 
# 
# High freq. dielectric constant tensor:
#      x y z
#    x 1.630160 0.000000 0.000000 
#    y 0.000000 1.630160 0.000000 
#    z 0.000000 0.000000 1.665820 
# 
# From -- ./inp_files/13640.got.cif
#   From: 2010.03.12/outbox.cif.g09.slc.cpg/sg139_7_cif.got.tgz:13640.got - 2010.04.08 09:46:31.
