data_PCOD8319464
_publ_section_title
;
Structure prediction by ZEFSAII (Michael W. Deem and Ramdas Pophale) SiO2 
 PCOD8319464
Probable space group: I 4/M M M
;
_chemical_formula_sum "Si O2"
_cell_formula_units_Z 176
_cell_length_a 17.814123
_cell_length_b 17.814123
_cell_length_c 35.301063
_cell_angle_alpha 90.000000
_cell_angle_beta 90.000000
_cell_angle_gamma 90.000000
_cell_volume 11202.544468
_symmetry_space_group_name_H-M "I 4/M M M"
_symmetry_group_IT_number 139
_symmetry_cell_setting 'tetragonal'
loop_
_space_group_symop_operation_xyz
x,y,z
-y,x,z
-x,-y,z
y,-x,z
x,-y,-z
-x,y,-z
y,x,-z
-y,-x,-z
-x,-y,-z
y,-x,-z
x,y,-z
-y,x,-z
-x,y,z
x,-y,z
-y,-x,z
y,x,z
1/2+x,1/2+y,1/2+z
1/2-y,1/2+x,1/2+z
1/2-x,1/2-y,1/2+z
1/2+y,1/2-x,1/2+z
1/2+x,1/2-y,1/2-z
1/2-x,1/2+y,1/2-z
1/2+y,1/2+x,1/2-z
1/2-y,1/2-x,1/2-z
1/2-x,1/2-y,1/2-z
1/2+y,1/2-x,1/2-z
1/2+x,1/2+y,1/2-z
1/2-y,1/2+x,1/2-z
1/2-x,1/2+y,1/2+z
1/2+x,1/2-y,1/2+z
1/2-y,1/2-x,1/2+z
1/2+y,1/2+x,1/2+z
loop_
_atom_site_type_symbol
_atom_site_label
_atom_site_fract_x
_atom_site_fract_y
_atom_site_fract_z
Si Si1 0.703881 0.415696 0.455889
Si Si2 0.201420 0.915911 0.793833
Si Si3 0.145074 0.587535 0.410551
Si Si4 0.085068 0.687995 0.273369
Si Si5 0.911504 0.500000 0.042342
Si Si6 0.306835 0.814141 0.842004
O O1 0.718313 0.402553 0.500000
O O2 0.675136 0.500000 0.448001
O O3 0.640644 0.359357 0.440011
O O4 0.781497 0.399963 0.435407
O O5 0.119219 0.880782 0.790121
O O6 0.238981 0.911026 0.752782
O O7 0.248755 0.873403 0.825354
O O8 0.192894 0.000000 0.808505
O O9 0.137310 0.500000 0.397591
O O10 0.149165 0.644784 0.375655
O O11 0.073874 0.614046 0.435038
O O12 0.117534 0.617534 0.250000
O O13 0.131930 0.707922 0.310659
O O14 0.000000 0.668010 0.284829
O O15 0.000000 0.500000 0.038067
O O16 0.875659 0.500000 0.000000
O O17 0.261087 0.738913 0.854606
#
# Coordination Sequence:
#
# PCOD8319464 Si02
#       6
#    32  32  32  32  16  32
#     4   9  17  29  45  64  87 116 149 184 221 263
#     4   9  17  30  46  64  87 117 153 189 225 263
#     4  10  19  30  45  65  89 117 151 187 228 272
#     4   9  18  31  46  64  88 118 152 188 230 277
#     4   9  18  32  48  66  90 120 153 187 233 289
#     4  10  19  30  46  65  90 121 152 186 225 273
#
# _framework density 15.710716
#
# number of rings (size 3 to 8) (size 9 to 14) (size 15 to 20)
#    0.000    2.636    0.000    2.182    1.273    5.636 
#    0.000    0.909    0.000    0.000    0.000    2.545 
#    0.000    0.000    0.000    0.000    0.000    0.909 
#
# Total GULP energy -1091054.904020 kJ/mol
# GULP energy per Si atom -12398.351182 kJ/mol
# Density = 1.567496 g / cm^3
# Si number density = 15.710716 Si / 1000 Ang^3
#
#
#
# Elastic Constant Matrix: (Units=GPa)
#
#
# Indices 1 2 3 4 5 6 
#
# 1 77.1389 34.8257 35.3814 0.0000 0.0000 0.0000
# 2 34.8257 77.1389 35.3814 0.0000 0.0000 0.0000
# 3 35.3814 35.3814 80.0022 0.0000 0.0000 0.0000
# 4 0.0000 0.0000 0.0000 19.7066 0.0000 0.0000
# 5 0.0000 0.0000 0.0000 0.0000 19.7066 0.0000
# 6 0.0000 0.0000 0.0000 0.0000 0.0000 17.7023
#
#
#
# Elastic Compliance Matrix: (Units=1/GPa)
#
#
# Indices 1 2 3 4 5 6 
#
# 1 0.018015 -0.005619 -0.005482 0.000000 0.000000 0.000000
# 2 -0.005619 0.018015 -0.005482 0.000000 0.000000 0.000000
# 3 -0.005482 -0.005482 0.017349 0.000000 0.000000 0.000000
# 4 0.000000 0.000000 0.000000 0.050744 0.000000 0.000000
# 5 0.000000 0.000000 0.000000 0.000000 0.050744 0.000000
# 6 0.000000 0.000000 0.000000 0.000000 0.000000 0.056490
#
#
# Mechanical properties :
#
#
# Convention : Reuss Voigt Hill
#
# Bulk Modulus (GPa) = 49.47531 49.49522 49.48526
# Shear Modulus (GPa) = 19.89964 20.00253 19.95108
#
# Velocity S-wave (km/s) = 3.56283 3.57203 3.56744
# Velocity P-wave (km/s) = 6.96311 6.97030 6.96670
#
# Compressibility (1/GPa) = 0.02021210
#
# Stress axis : x y z
#
# Youngs Moduli (GPa) = 55.50999 55.50999 57.64090
#
# Poissons Ratio (x) = 0.31188 0.31600
# Poissons Ratio (y) = 0.31188 0.31600
# Poissons Ratio (z) = 0.30432 0.30432
#
# Static dielectric constant tensor:
#      x y z
#    x 3.031290 0.000000 0.000000 
#    y 0.000000 3.031290 0.000000 
#    z 0.000000 0.000000 3.005080 
# 
# 
# High freq. dielectric constant tensor:
#      x y z
#    x 1.594050 0.000000 0.000000 
#    y 0.000000 1.594050 0.000000 
#    z 0.000000 0.000000 1.601220 
# 
# From -- ./inp_files/14237.got.cif
#   From: 2010.03.12/outbox.cif.g09.slc.cpg/sg139_8_cif.got.tgz:14237.got - 2010.04.08 09:46:31.
