data_PCOD8319186
_publ_section_title
;
Structure prediction by ZEFSAII (Michael W. Deem and Ramdas Pophale) SiO2 
 PCOD8319186
Probable space group: P 42/N C M
;
_chemical_formula_sum "Si O2"
_cell_formula_units_Z 64
_cell_length_a 14.525057
_cell_length_b 14.525057
_cell_length_c 13.257065
_cell_angle_alpha 90.000000
_cell_angle_beta 90.000000
_cell_angle_gamma 90.000000
_cell_volume 2796.939526
_symmetry_space_group_name_H-M "P 42/N C M"
_symmetry_group_IT_number 138
_space_group.IT_coordinate_system_code '2'
_symmetry_cell_setting 'tetragonal'
loop_
_space_group_symop_operation_xyz
x,y,z
1/2-y,x,1/2+z
1/2-x,1/2-y,z
y,1/2-x,1/2+z
1/2+x,-y,1/2-z
-x,1/2+y,1/2-z
1/2+y,1/2+x,-z
-y,-x,-z
-x,-y,-z
1/2+y,-x,1/2-z
1/2+x,1/2+y,-z
-y,1/2+x,1/2-z
1/2-x,y,1/2+z
x,1/2-y,1/2+z
1/2-y,1/2-x,z
y,x,z
loop_
_atom_site_type_symbol
_atom_site_label
_atom_site_fract_x
_atom_site_fract_y
_atom_site_fract_z
Si Si1 0.321133 0.178868 0.409908
Si Si2 0.750104 0.483463 0.850545
Si Si3 0.432761 0.914644 0.241220
Si Si4 0.820842 0.679159 0.350756
Si Si5 0.811194 0.964873 0.567715
O O1 0.250000 0.250000 0.360753
O O2 0.318281 0.181720 0.530297
O O3 0.423953 0.215569 0.382430
O O4 0.660727 0.418222 0.831105
O O5 0.834265 0.458777 0.778276
O O6 0.708943 0.580039 0.809960
O O7 0.784103 0.481888 0.965418
O O8 0.463852 0.860304 0.140589
O O9 0.505711 0.994290 0.270819
O O10 0.750000 0.750000 0.301957
O O11 0.879764 0.879764 0.539619
#
# Coordination Sequence:
#
# PCOD8319186 Si02
#       5
#     8  16  16   8  16
#     4   7  12  26  50  81 118 149 197 252 304 362
#     4  11  21  38  62  91 132 164 211 266 315 379
#     4  11  23  40  62  96 127 169 219 260 318 386
#     4   9  16  32  58  85 113 164 204 258 321 349
#     4   9  18  36  61  92 126 169 212 261 317 376
#
# _framework density 22.882154
#
# number of rings (size 3 to 8) (size 9 to 14) (size 15 to 20)
#    0.000    2.250    1.250    4.500    0.000    2.500 
#    6.750    1.250    0.000    4.500    0.000    0.000 
#    0.000    0.000    0.000    0.000    0.000    0.000 
#
# Total GULP energy -792907.915450 kJ/mol
# GULP energy per Si atom -12389.186179 kJ/mol
# Density = 2.283007 g / cm^3
# Si number density = 22.882154 Si / 1000 Ang^3
#
#
#
# Elastic Constant Matrix: (Units=GPa)
#
#
# Indices 1 2 3 4 5 6 
#
# 1 93.5973 42.0977 12.1009 0.0000 0.0000 0.0000
# 2 42.0977 93.5973 12.1009 0.0000 0.0000 0.0000
# 3 12.1009 12.1009 54.9515 0.0000 0.0000 0.0000
# 4 0.0000 0.0000 0.0000 27.8673 0.0000 0.0000
# 5 0.0000 0.0000 0.0000 0.0000 27.8673 0.0000
# 6 0.0000 0.0000 0.0000 0.0000 0.0000 47.7841
#
#
#
# Elastic Compliance Matrix: (Units=1/GPa)
#
#
# Indices 1 2 3 4 5 6 
#
# 1 0.013544 -0.005873 -0.001689 0.000000 0.000000 0.000000
# 2 -0.005873 0.013544 -0.001689 0.000000 0.000000 0.000000
# 3 -0.001689 -0.001689 0.018942 0.000000 0.000000 0.000000
# 4 0.000000 0.000000 0.000000 0.035884 0.000000 0.000000
# 5 0.000000 0.000000 0.000000 0.000000 0.035884 0.000000
# 6 0.000000 0.000000 0.000000 0.000000 0.000000 0.020927
#
#
# Mechanical properties :
#
#
# Convention : Reuss Voigt Hill
#
# Bulk Modulus (GPa) = 36.32851 41.63834 38.98343
# Shear Modulus (GPa) = 30.04707 32.42684 31.23695
#
# Velocity S-wave (km/s) = 3.62763 3.76855 3.69877
# Velocity P-wave (km/s) = 5.78421 6.09691 5.94262
#
# Compressibility (1/GPa) = 0.02752659
#
# Stress axis : x y z
#
# Youngs Moduli (GPa) = 73.83244 73.83244 52.79324
#
# Poissons Ratio (x) = 0.43365 0.08918
# Poissons Ratio (y) = 0.43365 0.08918
# Poissons Ratio (z) = 0.12472 0.12472
#
# Static dielectric constant tensor:
#      x y z
#    x 4.242780 0.000000 0.000000 
#    y 0.000000 4.242780 0.000000 
#    z 0.000000 0.000000 3.873910 
# 
# 
# High freq. dielectric constant tensor:
#      x y z
#    x 1.890270 0.000000 0.000000 
#    y 0.000000 1.890270 0.000000 
#    z 0.000000 0.000000 1.905970 
# 
# From -- ./inp_files/4929.got.cif
#   From: 2010.03.12/outbox.cif.g09.slc.cpg/sg138_3_cif.got.tgz:4929.got - 2010.04.08 09:41:05.
