data_PCOD8319602
_publ_section_title
;
Structure prediction by ZEFSAII (Michael W. Deem and Ramdas Pophale) SiO2 
 PCOD8319602
Probable space group: I 4/M M M
;
_chemical_formula_sum "Si O2"
_cell_formula_units_Z 136
_cell_length_a 16.321495
_cell_length_b 16.321495
_cell_length_c 29.767613
_cell_angle_alpha 90.000000
_cell_angle_beta 90.000000
_cell_angle_gamma 90.000000
_cell_volume 7929.830119
_symmetry_space_group_name_H-M "I 4/M M M"
_symmetry_group_IT_number 139
_symmetry_cell_setting 'tetragonal'
loop_
_space_group_symop_operation_xyz
x,y,z
-y,x,z
-x,-y,z
y,-x,z
x,-y,-z
-x,y,-z
y,x,-z
-y,-x,-z
-x,-y,-z
y,-x,-z
x,y,-z
-y,x,-z
-x,y,z
x,-y,z
-y,-x,z
y,x,z
1/2+x,1/2+y,1/2+z
1/2-y,1/2+x,1/2+z
1/2-x,1/2-y,1/2+z
1/2+y,1/2-x,1/2+z
1/2+x,1/2-y,1/2-z
1/2-x,1/2+y,1/2-z
1/2+y,1/2+x,1/2-z
1/2-y,1/2-x,1/2-z
1/2-x,1/2-y,1/2-z
1/2+y,1/2-x,1/2-z
1/2+x,1/2+y,1/2-z
1/2-y,1/2+x,1/2-z
1/2-x,1/2+y,1/2+z
1/2+x,1/2-y,1/2+z
1/2-y,1/2-x,1/2+z
1/2+y,1/2+x,1/2+z
loop_
_atom_site_type_symbol
_atom_site_label
_atom_site_fract_x
_atom_site_fract_y
_atom_site_fract_z
Si Si1 0.000000 0.369600 0.550331
Si Si2 0.094542 0.094542 0.266905
Si Si3 0.836947 0.836947 0.647380
Si Si4 0.286663 0.713338 0.390859
Si Si5 0.404800 0.595201 0.335972
Si Si6 0.000000 0.212326 0.597128
Si Si7 0.589399 0.817666 0.551132
Si Si8 0.000000 0.133781 0.500000
O O1 0.000000 0.309035 0.592408
O O2 0.084005 0.419779 0.556386
O O3 0.000000 0.329790 0.500000
O O4 0.150077 0.150077 0.299416
O O5 0.115766 0.115766 0.215621
O O6 0.000000 0.113448 0.276897
O O7 0.767567 0.767567 0.643055
O O8 0.921024 0.813593 0.624103
O O9 0.347626 0.652375 0.365740
O O10 0.338988 0.777166 0.419951
O O11 0.386058 0.500000 0.346338
O O12 0.000000 0.183882 0.545709
O O13 0.610046 0.794509 0.500000
O O14 0.500000 0.781716 0.564762
O O15 0.918586 0.081415 0.500000
#
# Coordination Sequence:
#
# PCOD8319602 Si02
#       8
#    16  16  16  16  16  16  32   8
#     4  10  19  33  52  72 102 145 187 219 246 291
#     4   9  18  35  58  78 102 136 176 214 255 312
#     4  12  23  32  53  77 110 147 176 216 254 305
#     4  12  22  34  54  82 110 131 168 220 273 317
#     4   9  20  40  63  82  99 127 165 216 279 335
#     4  12  21  33  46  76 111 146 190 211 256 299
#     4  10  21  36  53  74 103 142 182 217 255 303
#     4  11  22  30  42  66 107 158 192 222 251 290
#
# _framework density 17.150431000000001
#
# number of rings (size 3 to 8) (size 9 to 14) (size 15 to 20)
#    0.000    1.471    5.294    2.118    0.000    2.118 
#    2.118    0.000    0.000    0.000    0.000    4.941 
#    0.000    0.000    0.000    0.000    0.000    0.000 
#
# Total GULP energy -842646.347375 kJ/mol
# GULP energy per Si atom -12391.858050 kJ/mol
# Density = 1.711140 g / cm^3
# Si number density = 17.150431 Si / 1000 Ang^3
#
#
#
# Elastic Constant Matrix: (Units=GPa)
#
#
# Indices 1 2 3 4 5 6 
#
# 1 94.7307 42.6617 41.1410 0.0000 0.0000 0.0000
# 2 42.6617 94.7305 41.1410 0.0000 0.0000 0.0000
# 3 41.1410 41.1410 75.6804 0.0000 0.0000 0.0000
# 4 0.0000 0.0000 0.0000 26.8361 0.0000 0.0000
# 5 0.0000 0.0000 0.0000 0.0000 26.8360 0.0000
# 6 0.0000 0.0000 0.0000 0.0000 0.0000 29.3313
#
#
#
# Elastic Compliance Matrix: (Units=1/GPa)
#
#
# Indices 1 2 3 4 5 6 
#
# 1 0.014999 -0.004207 -0.005867 0.000000 0.000000 0.000000
# 2 -0.004207 0.014999 -0.005867 0.000000 0.000000 0.000000
# 3 -0.005867 -0.005867 0.019592 0.000000 0.000000 0.000000
# 4 0.000000 0.000000 0.000000 0.037263 0.000000 0.000000
# 5 0.000000 0.000000 0.000000 0.000000 0.037263 0.000000
# 6 0.000000 0.000000 0.000000 0.000000 0.000000 0.034093
#
#
# Mechanical properties :
#
#
# Convention : Reuss Voigt Hill
#
# Bulk Modulus (GPa) = 56.46824 57.22544 56.84684
# Shear Modulus (GPa) = 25.51128 25.94721 25.72925
#
# Velocity S-wave (km/s) = 3.86100 3.89385 3.87746
# Velocity P-wave (km/s) = 7.27139 7.32497 7.29823
#
# Compressibility (1/GPa) = 0.01770907
#
# Stress axis : x y z
#
# Youngs Moduli (GPa) = 66.67315 66.67292 51.04177
#
# Poissons Ratio (x) = 0.28048 0.29944
# Poissons Ratio (y) = 0.28048 0.29944
# Poissons Ratio (z) = 0.39114 0.39114
#
# Static dielectric constant tensor:
#      x y z
#    x 3.117080 0.000000 0.000000 
#    y 0.000000 3.116890 0.000000 
#    z 0.000000 0.000000 3.469500 
# 
# 
# High freq. dielectric constant tensor:
#      x y z
#    x 1.664550 0.000000 0.000000 
#    y 0.000000 1.664550 0.000000 
#    z 0.000000 0.000000 1.647160 
# 
# From -- ./inp_files/11596.got.cif
#   From: 2010.03.12/outbox.cif.g09.slc.cpg/sg139_6_cif.got.tgz:11596.got - 2010.04.08 09:46:31.
