data_PCOD8319631
_publ_section_title
;
Structure prediction by ZEFSAII (Michael W. Deem and Ramdas Pophale) SiO2 
 PCOD8319631
Probable space group: I 4/M M M
;
_chemical_formula_sum "Si O2"
_cell_formula_units_Z 176
_cell_length_a 18.883246
_cell_length_b 18.883246
_cell_length_c 24.671162
_cell_angle_alpha 90.000000
_cell_angle_beta 90.000000
_cell_angle_gamma 90.000000
_cell_volume 8797.168427
_symmetry_space_group_name_H-M "I 4/M M M"
_symmetry_group_IT_number 139
_symmetry_cell_setting 'tetragonal'
loop_
_space_group_symop_operation_xyz
x,y,z
-y,x,z
-x,-y,z
y,-x,z
x,-y,-z
-x,y,-z
y,x,-z
-y,-x,-z
-x,-y,-z
y,-x,-z
x,y,-z
-y,x,-z
-x,y,z
x,-y,z
-y,-x,z
y,x,z
1/2+x,1/2+y,1/2+z
1/2-y,1/2+x,1/2+z
1/2-x,1/2-y,1/2+z
1/2+y,1/2-x,1/2+z
1/2+x,1/2-y,1/2-z
1/2-x,1/2+y,1/2-z
1/2+y,1/2+x,1/2-z
1/2-y,1/2-x,1/2-z
1/2-x,1/2-y,1/2-z
1/2+y,1/2-x,1/2-z
1/2+x,1/2+y,1/2-z
1/2-y,1/2+x,1/2-z
1/2-x,1/2+y,1/2+z
1/2+x,1/2-y,1/2+z
1/2-y,1/2-x,1/2+z
1/2+y,1/2+x,1/2+z
loop_
_atom_site_type_symbol
_atom_site_label
_atom_site_fract_x
_atom_site_fract_y
_atom_site_fract_z
Si Si1 0.251866 0.921101 0.060037
Si Si2 0.922473 0.812508 0.170138
Si Si3 0.084320 0.798255 0.646748
Si Si4 0.302973 0.919717 0.746722
Si Si5 0.500000 0.078704 0.064455
Si Si6 0.681301 0.120726 0.437467
O O1 0.191296 0.914745 0.105142
O O2 0.303578 0.855125 0.069538
O O3 0.288332 0.000000 0.065012
O O4 0.218128 0.913944 0.000000
O O5 0.867656 0.867656 0.195002
O O6 0.909590 0.735563 0.195652
O O7 0.000000 0.840236 0.186830
O O8 0.127785 0.872216 0.649215
O O9 0.102018 0.751988 0.699774
O O10 0.112585 0.754010 0.595224
O O11 0.000000 0.814452 0.642015
O O12 0.371583 0.871583 0.750000
O O13 0.328815 0.000000 0.737787
O O14 0.567142 0.122364 0.085514
O O15 0.500000 0.000000 0.090270
O O16 0.500000 0.072256 0.000000
O O17 0.699787 0.104787 0.500000
#
# Coordination Sequence:
#
# PCOD8319631 Si02
#       6
#    32  32  32  32  16  32
#     4   9  18  32  52  81 117 151 183 222 272 337
#     4  10  21  37  57  81 109 144 187 235 284 333
#     4  11  24  41  60  82 111 147 194 249 297 342
#     4  10  22  40  62  87 118 150 186 226 274 339
#     4   9  16  28  50  78 111 149 181 219 277 341
#     4  10  19  33  54  81 114 148 188 236 285 343
#
# _framework density 20.006436999999998
#
# number of rings (size 3 to 8) (size 9 to 14) (size 15 to 20)
#    0.000    2.091    0.909    2.182    0.000    7.091 
#    0.000    2.727    0.000    3.273    0.000    3.818 
#    0.000    0.000    0.000    0.000    0.000    0.000 
#
# Total GULP energy -1090775.513177 kJ/mol
# GULP energy per Si atom -12395.176286 kJ/mol
# Density = 1.996090 g / cm^3
# Si number density = 20.006437 Si / 1000 Ang^3
#
#
#
# Elastic Constant Matrix: (Units=GPa)
#
#
# Indices 1 2 3 4 5 6 
#
# 1 105.9425 73.6763 31.7982 0.0000 0.0000 0.0000
# 2 73.6763 105.9425 31.7982 0.0000 0.0000 0.0000
# 3 31.7982 31.7982 82.8701 0.0000 0.0000 0.0000
# 4 0.0000 0.0000 0.0000 21.1344 0.0000 0.0000
# 5 0.0000 0.0000 0.0000 0.0000 21.1344 0.0000
# 6 0.0000 0.0000 0.0000 0.0000 0.0000 37.1391
#
#
#
# Elastic Compliance Matrix: (Units=1/GPa)
#
#
# Indices 1 2 3 4 5 6 
#
# 1 0.018717 -0.012275 -0.002472 0.000000 0.000000 0.000000
# 2 -0.012275 0.018717 -0.002472 0.000000 0.000000 0.000000
# 3 -0.002472 -0.002472 0.013964 0.000000 0.000000 0.000000
# 4 0.000000 0.000000 0.000000 0.047316 0.000000 0.000000
# 5 0.000000 0.000000 0.000000 0.000000 0.047316 0.000000
# 6 0.000000 0.000000 0.000000 0.000000 0.000000 0.026926
#
#
# Mechanical properties :
#
#
# Convention : Reuss Voigt Hill
#
# Bulk Modulus (GPa) = 58.95863 63.25563 61.10713
# Shear Modulus (GPa) = 23.46877 26.38039 24.92458
#
# Velocity S-wave (km/s) = 3.42871 3.63519 3.53346
# Velocity P-wave (km/s) = 6.72373 7.02180 6.87438
#
# Compressibility (1/GPa) = 0.01696105
#
# Stress axis : x y z
#
# Youngs Moduli (GPa) = 53.42626 53.42626 71.61147
#
# Poissons Ratio (x) = 0.65579 0.17703
# Poissons Ratio (y) = 0.65579 0.17703
# Poissons Ratio (z) = 0.13208 0.13208
#
# Static dielectric constant tensor:
#      x y z
#    x 3.510000 0.000000 0.000000 
#    y 0.000000 3.510000 0.000000 
#    z 0.000000 0.000000 3.788860 
# 
# 
# High freq. dielectric constant tensor:
#      x y z
#    x 1.768630 0.000000 0.000000 
#    y 0.000000 1.768630 0.000000 
#    z 0.000000 0.000000 1.785880 
# 
# From -- ./inp_files/13142.got.cif
#   From: 2010.03.12/outbox.cif.g09.slc.cpg/sg139_7_cif.got.tgz:13142.got - 2010.04.08 09:46:31.
