data_PCOD8319604
_publ_section_title
;
Structure prediction by ZEFSAII (Michael W. Deem and Ramdas Pophale) SiO2 
 PCOD8319604
Probable space group: I 4/M M M
;
_chemical_formula_sum "Si O2"
_cell_formula_units_Z 176
_cell_length_a 17.598420
_cell_length_b 17.598420
_cell_length_c 33.425963
_cell_angle_alpha 90.000000
_cell_angle_beta 90.000000
_cell_angle_gamma 90.000000
_cell_volume 10352.167364
_symmetry_space_group_name_H-M "I 4/M M M"
_symmetry_group_IT_number 139
_symmetry_cell_setting 'tetragonal'
loop_
_space_group_symop_operation_xyz
x,y,z
-y,x,z
-x,-y,z
y,-x,z
x,-y,-z
-x,y,-z
y,x,-z
-y,-x,-z
-x,-y,-z
y,-x,-z
x,y,-z
-y,x,-z
-x,y,z
x,-y,z
-y,-x,z
y,x,z
1/2+x,1/2+y,1/2+z
1/2-y,1/2+x,1/2+z
1/2-x,1/2-y,1/2+z
1/2+y,1/2-x,1/2+z
1/2+x,1/2-y,1/2-z
1/2-x,1/2+y,1/2-z
1/2+y,1/2+x,1/2-z
1/2-y,1/2-x,1/2-z
1/2-x,1/2-y,1/2-z
1/2+y,1/2-x,1/2-z
1/2+x,1/2+y,1/2-z
1/2-y,1/2+x,1/2-z
1/2-x,1/2+y,1/2+z
1/2+x,1/2-y,1/2+z
1/2-y,1/2-x,1/2+z
1/2+y,1/2+x,1/2+z
loop_
_atom_site_type_symbol
_atom_site_label
_atom_site_fract_x
_atom_site_fract_y
_atom_site_fract_z
Si Si1 0.587783 0.710972 0.047422
Si Si2 0.168831 0.705928 0.073654
Si Si3 0.293637 0.585861 0.727506
Si Si4 0.660291 0.085489 0.717245
Si Si5 0.716868 0.409088 0.500000
Si Si6 0.913111 0.687714 0.155879
O O1 0.500000 0.704286 0.062525
O O2 0.635804 0.635804 0.060706
O O3 0.626572 0.787684 0.064713
O O4 0.590066 0.718037 0.000000
O O5 0.231237 0.768764 0.083169
O O6 0.113231 0.699313 0.110993
O O7 0.114961 0.732270 0.037669
O O8 0.310472 0.500000 0.738841
O O9 0.372168 0.627833 0.732118
O O10 0.233386 0.619789 0.759355
O O11 0.264391 0.593322 0.681891
O O12 0.592238 0.092238 0.750000
O O13 0.642738 0.126749 0.675891
O O14 0.674627 0.000000 0.704964
O O15 0.701304 0.500000 0.500000
O O16 0.635998 0.364003 0.500000
O O17 0.000000 0.658152 0.156093
#
# Coordination Sequence:
#
# PCOD8319604 Si02
#       6
#    32  32  32  32  16  32
#     4   9  17  31  51  74 100 128 162 205 250 299
#     4  10  19  33  52  73  98 134 172 204 246 300
#     4   9  18  32  49  71  98 126 159 199 243 292
#     4   9  18  31  47  68  95 126 158 194 236 281
#     4  10  20  35  55  75  98 130 166 208 256 302
#     4  10  20  31  47  73  99 126 163 204 243 288
#
# _framework density 17.001270000000002
#
# number of rings (size 3 to 8) (size 9 to 14) (size 15 to 20)
#    0.000    2.545    0.909    2.727    0.000    6.455 
#    0.000    0.909    0.000    2.182    0.000    2.545 
#    0.000    2.909    0.000    0.000    0.000    0.000 
#
# Total GULP energy -1090604.284711 kJ/mol
# GULP energy per Si atom -12393.230508 kJ/mol
# Density = 1.696257 g / cm^3
# Si number density = 17.001270 Si / 1000 Ang^3
#
#
#
# Elastic Constant Matrix: (Units=GPa)
#
#
# Indices 1 2 3 4 5 6 
#
# 1 101.3806 61.5826 44.8288 0.0000 0.0000 0.0000
# 2 61.5826 101.3804 44.8288 0.0000 0.0000 0.0000
# 3 44.8288 44.8288 108.5328 0.0000 0.0000 0.0000
# 4 0.0000 0.0000 0.0000 20.4441 0.0000 0.0000
# 5 0.0000 0.0000 0.0000 0.0000 20.4442 0.0000
# 6 0.0000 0.0000 0.0000 0.0000 0.0000 20.7675
#
#
#
# Elastic Compliance Matrix: (Units=1/GPa)
#
#
# Indices 1 2 3 4 5 6 
#
# 1 0.016534 -0.008593 -0.003280 0.000000 0.000000 0.000000
# 2 -0.008593 0.016534 -0.003280 0.000000 0.000000 0.000000
# 3 -0.003280 -0.003280 0.011923 0.000000 0.000000 0.000000
# 4 0.000000 0.000000 0.000000 0.048914 0.000000 0.000000
# 5 0.000000 0.000000 0.000000 0.000000 0.048914 0.000000
# 6 0.000000 0.000000 0.000000 0.000000 0.000000 0.048152
#
#
# Mechanical properties :
#
#
# Convention : Reuss Voigt Hill
#
# Bulk Modulus (GPa) = 68.09507 68.19713 68.14610
# Shear Modulus (GPa) = 22.10708 23.00138 22.55423
#
# Velocity S-wave (km/s) = 3.60991 3.68220 3.64623
# Velocity P-wave (km/s) = 7.58387 7.63401 7.60898
#
# Compressibility (1/GPa) = 0.01468535
#
# Stress axis : x y z
#
# Youngs Moduli (GPa) = 60.48176 60.48161 83.86932
#
# Poissons Ratio (x) = 0.51972 0.27508
# Poissons Ratio (y) = 0.51972 0.27509
# Poissons Ratio (z) = 0.19838 0.19838
#
# Static dielectric constant tensor:
#      x y z
#    x 3.177490 0.000000 0.000000 
#    y 0.000000 3.177500 0.000000 
#    z 0.000000 0.000000 3.069120 
# 
# 
# High freq. dielectric constant tensor:
#      x y z
#    x 1.650690 0.000000 0.000000 
#    y 0.000000 1.650690 0.000000 
#    z 0.000000 0.000000 1.647830 
# 
# From -- ./inp_files/14283.got.cif
#   From: 2010.03.12/outbox.cif.g09.slc.cpg/sg139_8_cif.got.tgz:14283.got - 2010.04.08 09:46:31.
