data_PCOD8319639
_publ_section_title
;
Structure prediction by ZEFSAII (Michael W. Deem and Ramdas Pophale) SiO2 
 PCOD8319639
Probable space group: I 4/M M M
;
_chemical_formula_sum "Si O2"
_cell_formula_units_Z 164
_cell_length_a 21.584204
_cell_length_b 21.584204
_cell_length_c 18.726988
_cell_angle_alpha 90.000000
_cell_angle_beta 90.000000
_cell_angle_gamma 90.000000
_cell_volume 8724.489137
_symmetry_space_group_name_H-M "I 4/M M M"
_symmetry_group_IT_number 139
_symmetry_cell_setting 'tetragonal'
loop_
_space_group_symop_operation_xyz
x,y,z
-y,x,z
-x,-y,z
y,-x,z
x,-y,-z
-x,y,-z
y,x,-z
-y,-x,-z
-x,-y,-z
y,-x,-z
x,y,-z
-y,x,-z
-x,y,z
x,-y,z
-y,-x,z
y,x,z
1/2+x,1/2+y,1/2+z
1/2-y,1/2+x,1/2+z
1/2-x,1/2-y,1/2+z
1/2+y,1/2-x,1/2+z
1/2+x,1/2-y,1/2-z
1/2-x,1/2+y,1/2-z
1/2+y,1/2+x,1/2-z
1/2-y,1/2-x,1/2-z
1/2-x,1/2-y,1/2-z
1/2+y,1/2-x,1/2-z
1/2+x,1/2+y,1/2-z
1/2-y,1/2+x,1/2-z
1/2-x,1/2+y,1/2+z
1/2+x,1/2-y,1/2+z
1/2-y,1/2-x,1/2+z
1/2+y,1/2+x,1/2+z
loop_
_atom_site_type_symbol
_atom_site_label
_atom_site_fract_x
_atom_site_fract_y
_atom_site_fract_z
Si Si1 0.734003 0.070918 0.918395
Si Si2 0.500000 0.500000 0.860726
Si Si3 0.571114 0.328137 0.703334
Si Si4 0.930477 0.500000 0.915009
Si Si5 0.885158 0.649561 0.583902
Si Si6 0.070964 0.227694 0.352915
Si Si7 0.596441 0.596441 0.082609
O O1 0.792220 0.087182 0.869107
O O2 0.678773 0.116211 0.896846
O O3 0.712170 0.000000 0.906325
O O4 0.754740 0.081401 0.000000
O O5 0.552641 0.447360 0.871426
O O6 0.500000 0.349161 0.706521
O O7 0.608405 0.391596 0.706069
O O8 0.587849 0.285318 0.770552
O O9 0.894412 0.560306 0.886929
O O10 0.000000 0.500000 0.883097
O O11 0.934014 0.500000 0.000000
O O12 0.892714 0.660466 0.500000
O O13 0.885697 0.715980 0.622113
O O14 0.083172 0.168054 0.401024
O O15 0.000000 0.248813 0.361488
O O16 0.582987 0.582987 0.000000
#
# Coordination Sequence:
#
# PCOD8319639 Si02
#       7
#    32   4  32  16  32  32  16
#     4   9  19  38  63  87 113 147 188 235 288 351
#     4  12  25  36  56  84 108 160 209 242 297 344
#     4  10  22  41  62  86 112 145 187 235 295 352
#     4   9  16  27  50  85 118 147 191 245 287 327
#     4  10  19  33  55  84 117 156 195 235 283 331
#     4  11  22  37  54  81 117 155 191 238 291 339
#     4  12  23  36  54  77 112 154 202 246 283 338
#
# _framework density 18.797663
#
# number of rings (size 3 to 8) (size 9 to 14) (size 15 to 20)
#    0.000    1.854    2.927    1.610    0.000    4.488 
#    1.756    0.976    0.000    0.000    0.000    2.732 
#    0.000    0.000    0.000    0.000    0.000    0.000 
#
# Total GULP energy -1016234.540533 kJ/mol
# GULP energy per Si atom -12393.104153 kJ/mol
# Density = 1.875488 g / cm^3
# Si number density = 18.797663 Si / 1000 Ang^3
#
#
#
# Elastic Constant Matrix: (Units=GPa)
#
#
# Indices 1 2 3 4 5 6 
#
# 1 116.3995 61.9186 39.8676 0.0000 0.0000 0.0000
# 2 61.9186 116.3995 39.8676 0.0000 0.0000 0.0000
# 3 39.8676 39.8676 69.5582 0.0000 0.0000 0.0000
# 4 0.0000 0.0000 0.0000 21.5624 0.0000 0.0000
# 5 0.0000 0.0000 0.0000 0.0000 21.5624 0.0000
# 6 0.0000 0.0000 0.0000 0.0000 0.0000 33.2973
#
#
#
# Elastic Compliance Matrix: (Units=1/GPa)
#
#
# Indices 1 2 3 4 5 6 
#
# 1 0.012948 -0.005407 -0.004322 0.000000 0.000000 0.000000
# 2 -0.005407 0.012948 -0.004322 0.000000 0.000000 0.000000
# 3 -0.004322 -0.004322 0.019331 0.000000 0.000000 0.000000
# 4 0.000000 0.000000 0.000000 0.046377 0.000000 0.000000
# 5 0.000000 0.000000 0.000000 0.000000 0.046377 0.000000
# 6 0.000000 0.000000 0.000000 0.000000 0.000000 0.030032
#
#
# Mechanical properties :
#
#
# Convention : Reuss Voigt Hill
#
# Bulk Modulus (GPa) = 58.39707 65.07390 61.73549
# Shear Modulus (GPa) = 24.77423 25.99799 25.38611
#
# Velocity S-wave (km/s) = 3.63429 3.72296 3.67889
# Velocity P-wave (km/s) = 6.98171 7.29204 7.13856
#
# Compressibility (1/GPa) = 0.01712415
#
# Stress axis : x y z
#
# Youngs Moduli (GPa) = 77.23341 77.23341 51.73138
#
# Poissons Ratio (x) = 0.41762 0.22358
# Poissons Ratio (y) = 0.41762 0.22358
# Poissons Ratio (z) = 0.33379 0.33379
#
# Static dielectric constant tensor:
#      x y z
#    x 3.641530 0.000000 0.000000 
#    y 0.000000 3.641530 0.000000 
#    z 0.000000 0.000000 3.358940 
# 
# 
# High freq. dielectric constant tensor:
#      x y z
#    x 1.735000 0.000000 0.000000 
#    y 0.000000 1.735000 0.000000 
#    z 0.000000 0.000000 1.710860 
# 
# From -- ./inp_files/10394.got.cif
#   From: 2010.03.12/outbox.cif.g09.slc.cpg/sg139_6_cif.got.tgz:10394.got - 2010.04.08 09:46:31.
