data_PCOD8319790
_publ_section_title
;
Structure prediction by ZEFSAII (Michael W. Deem and Ramdas Pophale) SiO2 
 PCOD8319790
Probable space group: I 4/M M M
;
_chemical_formula_sum "Si O2"
_cell_formula_units_Z 160
_cell_length_a 32.317711
_cell_length_b 32.317711
_cell_length_c 8.247136
_cell_angle_alpha 90.000000
_cell_angle_beta 90.000000
_cell_angle_gamma 90.000000
_cell_volume 8613.592905
_symmetry_space_group_name_H-M "I 4/M M M"
_symmetry_group_IT_number 139
_symmetry_cell_setting 'tetragonal'
loop_
_space_group_symop_operation_xyz
x,y,z
-y,x,z
-x,-y,z
y,-x,z
x,-y,-z
-x,y,-z
y,x,-z
-y,-x,-z
-x,-y,-z
y,-x,-z
x,y,-z
-y,x,-z
-x,y,z
x,-y,z
-y,-x,z
y,x,z
1/2+x,1/2+y,1/2+z
1/2-y,1/2+x,1/2+z
1/2-x,1/2-y,1/2+z
1/2+y,1/2-x,1/2+z
1/2+x,1/2-y,1/2-z
1/2-x,1/2+y,1/2-z
1/2+y,1/2+x,1/2-z
1/2-y,1/2-x,1/2-z
1/2-x,1/2-y,1/2-z
1/2+y,1/2-x,1/2-z
1/2+x,1/2+y,1/2-z
1/2-y,1/2+x,1/2-z
1/2-x,1/2+y,1/2+z
1/2+x,1/2-y,1/2+z
1/2-y,1/2-x,1/2+z
1/2+y,1/2+x,1/2+z
loop_
_atom_site_type_symbol
_atom_site_label
_atom_site_fract_x
_atom_site_fract_y
_atom_site_fract_z
Si Si1 0.046322 0.390892 0.307997
Si Si2 0.282206 0.282206 0.816407
Si Si3 0.452722 0.384412 0.000000
Si Si4 0.762771 0.870947 0.815257
Si Si5 0.675025 0.112133 0.691297
Si Si6 0.653299 0.414812 0.315810
O O1 0.045289 0.390289 0.500000
O O2 0.065889 0.434112 0.250000
O O3 0.073980 0.352673 0.242098
O O4 0.000000 0.386904 0.236555
O O5 0.250000 0.250000 0.750000
O O6 0.329248 0.271362 0.779384
O O7 0.275627 0.275627 0.000000
O O8 0.445046 0.359200 0.167839
O O9 0.500000 0.398382 0.000000
O O10 0.425657 0.425657 0.000000
O O11 0.720844 0.893139 0.760006
O O12 0.798944 0.904114 0.786517
O O13 0.759721 0.857609 0.000000
O O14 0.676903 0.111892 0.500000
O O15 0.655435 0.155435 0.750000
O O16 0.647104 0.433769 0.500000
O O17 0.627353 0.372648 0.302412
#
# Coordination Sequence:
#
# PCOD8319790 Si02
#       6
#    32  16  16  32  32  32
#     4   9  19  36  56  78 104 134 171 218 273 333
#     4  12  24  34  50  76 112 150 194 245 284 327
#     4  10  22  39  64  92 122 152 192 234 285 351
#     4  11  21  35  54  77 109 147 191 236 281 329
#     4  10  20  34  52  74 105 144 185 226 276 335
#     4   9  19  36  59  85 116 155 195 237 285 336
#
# _framework density 18.575292000000001
#
# number of rings (size 3 to 8) (size 9 to 14) (size 15 to 20)
#    0.000    2.000    1.000    2.700    2.800    1.900 
#    0.000    2.000    0.000    1.200    0.000    2.800 
#    0.000    0.000    0.000    0.000    0.000    0.000 
#
# Total GULP energy -991788.568478 kJ/mol
# GULP energy per Si atom -12397.357106 kJ/mol
# Density = 1.853301 g / cm^3
# Si number density = 18.575292 Si / 1000 Ang^3
#
#
#
# Elastic Constant Matrix: (Units=GPa)
#
#
# Indices 1 2 3 4 5 6 
#
# 1 114.4376 42.5453 38.8108 0.0000 0.0000 0.0000
# 2 42.5453 114.4379 38.8128 0.0000 0.0000 0.0000
# 3 38.8108 38.8128 106.4778 0.0000 0.0000 0.0000
# 4 0.0000 0.0000 0.0000 23.7948 0.0000 0.0000
# 5 0.0000 0.0000 0.0000 0.0000 23.7954 0.0000
# 6 0.0000 0.0000 0.0000 0.0000 0.0000 14.8342
#
#
#
# Elastic Compliance Matrix: (Units=1/GPa)
#
#
# Indices 1 2 3 4 5 6 
#
# 1 0.010840 -0.003069 -0.002832 0.000000 0.000000 0.000000
# 2 -0.003069 0.010840 -0.002833 0.000000 0.000000 0.000000
# 3 -0.002832 -0.002833 0.011457 0.000000 0.000000 0.000000
# 4 0.000000 0.000000 0.000000 0.042026 0.000000 0.000000
# 5 0.000000 0.000000 0.000000 0.000000 0.042025 0.000000
# 6 0.000000 0.000000 0.000000 0.000000 0.000000 0.067412
#
#
# Mechanical properties :
#
#
# Convention : Reuss Voigt Hill
#
# Bulk Modulus (GPa) = 63.82414 63.96568 63.89491
# Shear Modulus (GPa) = 24.12070 26.83053 25.47561
#
# Velocity S-wave (km/s) = 3.60743 3.80468 3.70737
# Velocity P-wave (km/s) = 7.19623 7.33562 7.26626
#
# Compressibility (1/GPa) = 0.01566805
#
# Stress axis : x y z
#
# Youngs Moduli (GPa) = 92.24993 92.24889 87.28650
#
# Poissons Ratio (x) = 0.28316 0.24722
# Poissons Ratio (y) = 0.28316 0.24725
# Poissons Ratio (z) = 0.26128 0.26130
#
# Static dielectric constant tensor:
#      x y z
#    x 3.430980 0.000000 0.000000 
#    y 0.000000 3.431000 0.000000 
#    z 0.000000 0.000000 3.644290 
# 
# 
# High freq. dielectric constant tensor:
#      x y z
#    x 1.710010 0.000000 0.000000 
#    y 0.000000 1.710010 0.000000 
#    z 0.000000 0.000000 1.736430 
# 
# From -- ./inp_files/2196.got.cif
#   From: 2010.03.12/outbox.cif.g09.slc.cpg/sg139_2_cif.got.tgz:2196.got - 2010.04.08 09:46:31.
