data_PCOD8319099
_publ_section_title
;
Structure prediction by ZEFSAII (Michael W. Deem and Ramdas Pophale) SiO2 
 PCOD8319099
Probable space group: P 42/N C M
;
_chemical_formula_sum "Si O2"
_cell_formula_units_Z 96
_cell_length_a 18.832955
_cell_length_b 18.832955
_cell_length_c 13.725721
_cell_angle_alpha 90.000000
_cell_angle_beta 90.000000
_cell_angle_gamma 90.000000
_cell_volume 4868.241388
_symmetry_space_group_name_H-M "P 42/N C M"
_symmetry_group_IT_number 138
_space_group.IT_coordinate_system_code '2'
_symmetry_cell_setting 'tetragonal'
loop_
_space_group_symop_operation_xyz
x,y,z
1/2-y,x,1/2+z
1/2-x,1/2-y,z
y,1/2-x,1/2+z
1/2+x,-y,1/2-z
-x,1/2+y,1/2-z
1/2+y,1/2+x,-z
-y,-x,-z
-x,-y,-z
1/2+y,-x,1/2-z
1/2+x,1/2+y,-z
-y,1/2+x,1/2-z
1/2-x,y,1/2+z
x,1/2-y,1/2+z
1/2-y,1/2-x,z
y,x,z
loop_
_atom_site_type_symbol
_atom_site_label
_atom_site_fract_x
_atom_site_fract_y
_atom_site_fract_z
Si Si1 0.689758 0.151800 0.251741
Si Si2 0.694916 0.406826 0.548919
Si Si3 0.333459 0.048813 0.282439
Si Si4 0.249348 0.364082 0.923110
Si Si5 0.162074 0.454575 0.062724
Si Si6 0.582955 0.142942 0.412591
O O1 0.657422 0.227701 0.220972
O O2 0.677806 0.095976 0.164297
O O3 0.650495 0.123816 0.346683
O O4 0.665151 0.334850 0.500000
O O5 0.655609 0.474432 0.501477
O O6 0.779664 0.410403 0.537587
O O7 0.389902 0.110099 0.272117
O O8 0.263816 0.079645 0.336563
O O9 0.315269 0.023454 0.172846
O O10 0.366186 0.986610 0.347536
O O11 0.188281 0.311720 0.884017
O O12 0.320330 0.320330 0.950961
O O13 0.224331 0.404667 0.020114
O O14 0.086594 0.413407 0.059104
O O15 0.585158 0.085158 0.500000
#
# Coordination Sequence:
#
# PCOD8319099 Si02
#       6
#    16  16  16  16  16  16
#     4   9  19  35  55  80 111 145 190 241 288 335
#     4  11  21  36  57  85 112 152 192 240 286 338
#     4  10  21  38  58  84 118 153 186 227 283 342
#     4   9  18  36  62  91 118 145 183 231 283 341
#     4  10  21  38  60  87 119 152 188 231 283 342
#     4  11  22  37  57  84 112 153 193 239 285 337
#
# _framework density 19.719646999999998
#
# number of rings (size 3 to 8) (size 9 to 14) (size 15 to 20)
#    0.000    2.000    1.667    2.000    0.000    4.333 
#    0.000    4.167    0.000    0.000    0.000    0.000 
#    0.000    0.000    0.000    0.000    0.000    0.000 
#
# Total GULP energy -1190234.425965 kJ/mol
# GULP energy per Si atom -12398.275270 kJ/mol
# Density = 1.967476 g / cm^3
# Si number density = 19.719647 Si / 1000 Ang^3
#
#
#
# Elastic Constant Matrix: (Units=GPa)
#
#
# Indices 1 2 3 4 5 6 
#
# 1 57.1138 7.1690 51.7455 0.0000 0.0000 0.0000
# 2 7.1690 57.1154 51.7450 0.0000 0.0000 0.0000
# 3 51.7455 51.7450 145.0932 0.0000 0.0000 0.0000
# 4 0.0000 0.0000 0.0000 33.0101 0.0000 0.0000
# 5 0.0000 0.0000 0.0000 0.0000 33.0103 0.0000
# 6 0.0000 0.0000 0.0000 0.0000 0.0000 13.4651
#
#
#
# Elastic Compliance Matrix: (Units=1/GPa)
#
#
# Indices 1 2 3 4 5 6 
#
# 1 0.028276 0.008254 -0.013028 0.000000 0.000000 0.000000
# 2 0.008254 0.028275 -0.013027 0.000000 0.000000 0.000000
# 3 -0.013028 -0.013027 0.016184 0.000000 0.000000 0.000000
# 4 0.000000 0.000000 0.000000 0.030294 0.000000 0.000000
# 5 0.000000 0.000000 0.000000 0.000000 0.030294 0.000000
# 6 0.000000 0.000000 0.000000 0.000000 0.000000 0.074266
#
#
# Mechanical properties :
#
#
# Convention : Reuss Voigt Hill
#
# Bulk Modulus (GPa) = 26.93071 53.40459 40.16765
# Shear Modulus (GPa) = 19.56421 25.80797 22.68609
#
# Velocity S-wave (km/s) = 3.15321 3.62158 3.39548
# Velocity P-wave (km/s) = 5.19070 6.68046 5.98214
#
# Compressibility (1/GPa) = 0.03713234
#
# Stress axis : x y z
#
# Youngs Moduli (GPa) = 35.36546 35.36727 61.78846
#
# Poissons Ratio (x) = -0.29191 0.80497
# Poissons Ratio (y) = -0.29189 0.80493
# Poissons Ratio (z) = 0.46074 0.46074
#
# Static dielectric constant tensor:
#      x y z
#    x 3.519250 0.000000 0.000000 
#    y 0.000000 3.519250 0.000000 
#    z 0.000000 0.000000 3.822200 
# 
# 
# High freq. dielectric constant tensor:
#      x y z
#    x 1.757600 0.000000 0.000000 
#    y 0.000000 1.757600 0.000000 
#    z 0.000000 0.000000 1.777340 
# 
# From -- ./inp_files/3146.got.cif
#   From: 2010.03.12/outbox.cif.g09.slc.cpg/sg138_2_cif.got.tgz:3146.got - 2010.04.08 09:41:05.
