data_PCOD8319826
_publ_section_title
;
Structure prediction by ZEFSAII (Michael W. Deem and Ramdas Pophale) SiO2 
 PCOD8319826
Probable space group: I 4/M M M
;
_chemical_formula_sum "Si O2"
_cell_formula_units_Z 160
_cell_length_a 32.296878
_cell_length_b 32.296878
_cell_length_c 7.992960
_cell_angle_alpha 90.000000
_cell_angle_beta 90.000000
_cell_angle_gamma 90.000000
_cell_volume 8337.363287
_symmetry_space_group_name_H-M "I 4/M M M"
_symmetry_group_IT_number 139
_symmetry_cell_setting 'tetragonal'
loop_
_space_group_symop_operation_xyz
x,y,z
-y,x,z
-x,-y,z
y,-x,z
x,-y,-z
-x,y,-z
y,x,-z
-y,-x,-z
-x,-y,-z
y,-x,-z
x,y,-z
-y,x,-z
-x,y,z
x,-y,z
-y,-x,z
y,x,z
1/2+x,1/2+y,1/2+z
1/2-y,1/2+x,1/2+z
1/2-x,1/2-y,1/2+z
1/2+y,1/2-x,1/2+z
1/2+x,1/2-y,1/2-z
1/2-x,1/2+y,1/2-z
1/2+y,1/2+x,1/2-z
1/2-y,1/2-x,1/2-z
1/2-x,1/2-y,1/2-z
1/2+y,1/2-x,1/2-z
1/2+x,1/2+y,1/2-z
1/2-y,1/2+x,1/2-z
1/2-x,1/2+y,1/2+z
1/2+x,1/2-y,1/2+z
1/2-y,1/2-x,1/2+z
1/2+y,1/2+x,1/2+z
loop_
_atom_site_type_symbol
_atom_site_label
_atom_site_fract_x
_atom_site_fract_y
_atom_site_fract_z
Si Si1 0.046202 0.390038 0.197450
Si Si2 0.283273 0.283273 0.696701
Si Si3 0.453038 0.384369 0.000000
Si Si4 0.766445 0.874810 0.689953
Si Si5 0.676236 0.112061 0.802579
Si Si6 0.654278 0.413549 0.313286
O O1 0.066406 0.433595 0.250000
O O2 0.074112 0.352006 0.264896
O O3 0.000000 0.387013 0.274533
O O4 0.044079 0.387735 0.000000
O O5 0.287011 0.287011 0.500000
O O6 0.250000 0.250000 0.750000
O O7 0.326652 0.268412 0.768967
O O8 0.445980 0.357580 0.168533
O O9 0.500000 0.399659 0.000000
O O10 0.425016 0.425016 0.000000
O O11 0.780207 0.881707 0.500000
O O12 0.720498 0.892071 0.716351
O O13 0.797621 0.901369 0.803376
O O14 0.655291 0.155291 0.750000
O O15 0.682070 0.110807 0.000000
O O16 0.645936 0.432069 0.500000
O O17 0.628313 0.371688 0.284899
#
# Coordination Sequence:
#
# PCOD8319826 Si02
#       6
#    32  16  16  32  32  32
#     4   9  19  36  57  80 106 137 176 224 281 346
#     4  12  24  36  50  78 114 154 202 254 301 341
#     4  10  22  41  66  96 128 158 198 244 295 359
#     4  12  22  35  55  80 113 154 199 246 294 345
#     4  10  20  35  53  75 107 147 191 236 290 350
#     4  10  20  37  61  89 120 161 204 244 294 346
#
# _framework density 19.190719000000001
#
# number of rings (size 3 to 8) (size 9 to 14) (size 15 to 20)
#    0.000    1.600    2.000    3.900    0.000    1.900 
#    0.000    2.000    0.000    2.400    0.000    2.800 
#    0.000    0.000    0.000    0.000    0.000    0.000 
#
# Total GULP energy -992173.012832 kJ/mol
# GULP energy per Si atom -12402.162660 kJ/mol
# Density = 1.914704 g / cm^3
# Si number density = 19.190719 Si / 1000 Ang^3
#
#
#
# Elastic Constant Matrix: (Units=GPa)
#
#
# Indices 1 2 3 4 5 6 
#
# 1 111.6175 42.3873 24.0433 0.0000 0.0000 0.0000
# 2 42.3873 111.6181 24.0458 0.0000 0.0000 0.0000
# 3 24.0433 24.0458 105.0098 0.0000 0.0000 0.0000
# 4 0.0000 0.0000 0.0000 19.9367 0.0000 0.0000
# 5 0.0000 0.0000 0.0000 0.0000 19.9372 0.0000
# 6 0.0000 0.0000 0.0000 0.0000 0.0000 17.1921
#
#
#
# Elastic Compliance Matrix: (Units=1/GPa)
#
#
# Indices 1 2 3 4 5 6 
#
# 1 0.010719 -0.003726 -0.001601 0.000000 0.000000 0.000000
# 2 -0.003726 0.010719 -0.001601 0.000000 0.000000 0.000000
# 3 -0.001601 -0.001601 0.010256 0.000000 0.000000 0.000000
# 4 0.000000 0.000000 0.000000 0.050159 0.000000 0.000000
# 5 0.000000 0.000000 0.000000 0.000000 0.050158 0.000000
# 6 0.000000 0.000000 0.000000 0.000000 0.000000 0.058166
#
#
# Mechanical properties :
#
#
# Convention : Reuss Voigt Hill
#
# Bulk Modulus (GPa) = 56.06108 56.57758 56.31933
# Shear Modulus (GPa) = 23.81194 27.26447 25.53820
#
# Velocity S-wave (km/s) = 3.52633 3.77332 3.65191
# Velocity P-wave (km/s) = 6.77171 6.96632 6.86970
#
# Compressibility (1/GPa) = 0.01783769
#
# Stress axis : x y z
#
# Youngs Moduli (GPa) = 93.29332 93.29285 97.50176
#
# Poissons Ratio (x) = 0.34757 0.15611
# Poissons Ratio (y) = 0.34757 0.15615
# Poissons Ratio (z) = 0.14937 0.14941
#
# Static dielectric constant tensor:
#      x y z
#    x 3.515880 0.000000 0.000000 
#    y 0.000000 3.515900 0.000000 
#    z 0.000000 0.000000 3.656730 
# 
# 
# High freq. dielectric constant tensor:
#      x y z
#    x 1.734520 0.000000 0.000000 
#    y 0.000000 1.734520 0.000000 
#    z 0.000000 0.000000 1.760410 
# 
# From -- ./inp_files/2193.got.cif
#   From: 2010.03.12/outbox.cif.g09.slc.cpg/sg139_2_cif.got.tgz:2193.got - 2010.04.08 09:46:31.
