data_PCOD8319705
_publ_section_title
;
Structure prediction by ZEFSAII (Michael W. Deem and Ramdas Pophale) SiO2 
 PCOD8319705
Probable space group: I 4/M M M
;
_chemical_formula_sum "Si O2"
_cell_formula_units_Z 128
_cell_length_a 29.070502
_cell_length_b 29.070502
_cell_length_c 9.108900
_cell_angle_alpha 90.000000
_cell_angle_beta 90.000000
_cell_angle_gamma 90.000000
_cell_volume 7697.877525
_symmetry_space_group_name_H-M "I 4/M M M"
_symmetry_group_IT_number 139
_symmetry_cell_setting 'tetragonal'
loop_
_space_group_symop_operation_xyz
x,y,z
-y,x,z
-x,-y,z
y,-x,z
x,-y,-z
-x,y,-z
y,x,-z
-y,-x,-z
-x,-y,-z
y,-x,-z
x,y,-z
-y,x,-z
-x,y,z
x,-y,z
-y,-x,z
y,x,z
1/2+x,1/2+y,1/2+z
1/2-y,1/2+x,1/2+z
1/2-x,1/2-y,1/2+z
1/2+y,1/2-x,1/2+z
1/2+x,1/2-y,1/2-z
1/2-x,1/2+y,1/2-z
1/2+y,1/2+x,1/2-z
1/2-y,1/2-x,1/2-z
1/2-x,1/2-y,1/2-z
1/2+y,1/2-x,1/2-z
1/2+x,1/2+y,1/2-z
1/2-y,1/2+x,1/2-z
1/2-x,1/2+y,1/2+z
1/2+x,1/2-y,1/2+z
1/2-y,1/2-x,1/2+z
1/2+y,1/2+x,1/2+z
loop_
_atom_site_type_symbol
_atom_site_label
_atom_site_fract_x
_atom_site_fract_y
_atom_site_fract_z
Si Si1 0.113595 0.886406 0.828349
Si Si2 0.619982 0.054262 0.168410
Si Si3 0.947120 0.947120 0.659339
Si Si4 0.810933 0.053072 0.674436
Si Si5 0.792072 0.445840 0.838515
O O1 0.075163 0.924838 0.801535
O O2 0.159211 0.907384 0.753331
O O3 0.122200 0.877801 0.000000
O O4 0.577476 0.077476 0.250000
O O5 0.668591 0.073262 0.230671
O O6 0.615038 0.000000 0.191592
O O7 0.617946 0.068469 0.000000
O O8 0.928476 0.928476 0.500000
O O9 0.000000 0.935818 0.667252
O O10 0.816818 0.057179 0.500000
O O11 0.758813 0.065255 0.722297
O O12 0.823396 0.000000 0.721586
O O13 0.797175 0.500000 0.852818
O O14 0.798963 0.423638 0.000000
#
# Coordination Sequence:
#
# PCOD8319705 Si02
#       5
#    16  32  16  32  32
#     4  12  23  29  39  64  93 117 144 187 240 285
#     4  10  20  32  48  72 102 135 166 195 227 263
#     4   9  18  32  46  56  72 107 151 187 222 275
#     4   9  18  33  51  67  86 118 157 194 235 286
#     4   8  15  30  51  71  90 116 154 198 238 275
#
# _framework density 16.627960000000002
#
# number of rings (size 3 to 8) (size 9 to 14) (size 15 to 20)
#    0.000    2.625    0.000    4.500    0.000    6.750 
#    0.000    4.375    0.000    0.000    0.000    0.875 
#    0.000    0.000    0.000    0.000    0.000    0.000 
#
# Total GULP energy -792934.691033 kJ/mol
# GULP energy per Si atom -12389.604547 kJ/mol
# Density = 1.659011 g / cm^3
# Si number density = 16.627960 Si / 1000 Ang^3
#
#
#
# Elastic Constant Matrix: (Units=GPa)
#
#
# Indices 1 2 3 4 5 6 
#
# 1 61.4273 51.6020 48.2789 0.0000 0.0000 0.0000
# 2 51.6020 61.4274 48.2797 0.0000 0.0000 0.0000
# 3 48.2789 48.2797 99.2070 0.0000 0.0000 0.0000
# 4 0.0000 0.0000 0.0000 21.0230 0.0000 0.0000
# 5 0.0000 0.0000 0.0000 0.0000 21.0228 0.0000
# 6 0.0000 0.0000 0.0000 0.0000 0.0000 15.2218
#
#
#
# Elastic Compliance Matrix: (Units=1/GPa)
#
#
# Indices 1 2 3 4 5 6 
#
# 1 0.058460 -0.043318 -0.007369 0.000000 0.000000 0.000000
# 2 -0.043318 0.058461 -0.007370 0.000000 0.000000 0.000000
# 3 -0.007369 -0.007370 0.017252 0.000000 0.000000 0.000000
# 4 0.000000 0.000000 0.000000 0.047567 0.000000 0.000000
# 5 0.000000 0.000000 0.000000 0.000000 0.047567 0.000000
# 6 0.000000 0.000000 0.000000 0.000000 0.000000 0.065695
#
#
# Mechanical properties :
#
#
# Convention : Reuss Voigt Hill
#
# Bulk Modulus (GPa) = 55.36833 57.59810 56.48322
# Shear Modulus (GPa) = 11.98652 16.38025 14.18339
#
# Velocity S-wave (km/s) = 2.68781 3.14204 2.92376
# Velocity P-wave (km/s) = 6.55767 6.91937 6.74095
#
# Compressibility (1/GPa) = 0.01806087
#
# Stress axis : x y z
#
# Youngs Moduli (GPa) = 17.10575 17.10548 57.96300
#
# Poissons Ratio (x) = 0.74097 0.42710
# Poissons Ratio (y) = 0.74098 0.42717
# Poissons Ratio (z) = 0.12604 0.12606
#
# Static dielectric constant tensor:
#      x y z
#    x 3.115160 0.000000 0.000000 
#    y 0.000000 3.115160 0.000000 
#    z 0.000000 0.000000 3.255050 
# 
# 
# High freq. dielectric constant tensor:
#      x y z
#    x 1.622320 0.000000 0.000000 
#    y 0.000000 1.622320 0.000000 
#    z 0.000000 0.000000 1.637480 
# 
# From -- ./inp_files/1870.got.cif
#   From: 2010.03.12/outbox.cif.g09.slc.cpg/sg139_1_cif.got.tgz:1870.got - 2010.04.08 09:46:31.
