data_PCOD8319556
_publ_section_title
;
Structure prediction by ZEFSAII (Michael W. Deem and Ramdas Pophale) SiO2 
 PCOD8319556
Probable space group: I 4/M M M
;
_chemical_formula_sum "Si O2"
_cell_formula_units_Z 160
_cell_length_a 18.587869
_cell_length_b 18.587869
_cell_length_c 26.516634
_cell_angle_alpha 90.000000
_cell_angle_beta 90.000000
_cell_angle_gamma 90.000000
_cell_volume 9161.732355
_symmetry_space_group_name_H-M "I 4/M M M"
_symmetry_group_IT_number 139
_symmetry_cell_setting 'tetragonal'
loop_
_space_group_symop_operation_xyz
x,y,z
-y,x,z
-x,-y,z
y,-x,z
x,-y,-z
-x,y,-z
y,x,-z
-y,-x,-z
-x,-y,-z
y,-x,-z
x,y,-z
-y,x,-z
-x,y,z
x,-y,z
-y,-x,z
y,x,z
1/2+x,1/2+y,1/2+z
1/2-y,1/2+x,1/2+z
1/2-x,1/2-y,1/2+z
1/2+y,1/2-x,1/2+z
1/2+x,1/2-y,1/2-z
1/2-x,1/2+y,1/2-z
1/2+y,1/2+x,1/2-z
1/2-y,1/2-x,1/2-z
1/2-x,1/2-y,1/2-z
1/2+y,1/2-x,1/2-z
1/2+x,1/2+y,1/2-z
1/2-y,1/2+x,1/2-z
1/2-x,1/2+y,1/2+z
1/2+x,1/2-y,1/2+z
1/2-y,1/2-x,1/2+z
1/2+y,1/2+x,1/2+z
loop_
_atom_site_type_symbol
_atom_site_label
_atom_site_fract_x
_atom_site_fract_y
_atom_site_fract_z
Si Si1 0.796045 0.355487 0.557220
Si Si2 0.159009 0.583608 0.705083
Si Si3 0.305433 0.694568 0.940785
Si Si4 0.416405 0.077590 0.393815
Si Si5 0.919112 0.080889 0.560038
Si Si6 0.200630 0.916257 0.855287
O O1 0.766492 0.354440 0.500000
O O2 0.820371 0.276378 0.575961
O O3 0.869152 0.401403 0.559737
O O4 0.734093 0.388681 0.592073
O O5 0.142741 0.500000 0.718631
O O6 0.136549 0.636549 0.750000
O O7 0.112711 0.611347 0.657810
O O8 0.242869 0.593369 0.690638
O O9 0.362004 0.637997 0.915965
O O10 0.313985 0.686016 0.000000
O O11 0.500000 0.066115 0.389322
O O12 0.378774 0.000000 0.402435
O O13 0.916727 0.083274 0.500000
O O14 0.000000 0.100883 0.578377
O O15 0.129131 0.870870 0.842555
O O16 0.179954 0.000000 0.861479
#
# Coordination Sequence:
#
# PCOD8319556 Si02
#       6
#    32  32  16  32  16  32
#     4  10  19  32  48  67  94 130 169 211 255 300
#     4   9  17  30  51  77 104 132 158 189 234 286
#     4   9  17  28  45  64  84 119 162 199 248 298
#     4   9  18  30  44  68 101 133 164 197 238 293
#     4   8  14  25  40  60  88 118 153 202 247 282
#     4  10  21  36  53  74  99 128 164 207 254 302
#
# _framework density 17.463946
#
# number of rings (size 3 to 8) (size 9 to 14) (size 15 to 20)
#    0.000    2.700    1.000    2.700    0.000    4.400 
#    0.000    3.000    0.000    0.000    0.000    1.400 
#    0.000    0.000    0.000    0.000    0.000    0.000 
#
# Total GULP energy -991355.476843 kJ/mol
# GULP energy per Si atom -12391.943461 kJ/mol
# Density = 1.742420 g / cm^3
# Si number density = 17.463946 Si / 1000 Ang^3
#
#
#
# Elastic Constant Matrix: (Units=GPa)
#
#
# Indices 1 2 3 4 5 6 
#
# 1 180.2495 -21.7589 31.7199 0.0000 0.0000 0.0000
# 2 -21.7589 180.2480 31.7215 0.0000 0.0000 0.0000
# 3 31.7199 31.7215 59.5632 0.0000 0.0000 0.0000
# 4 0.0000 0.0000 0.0000 5.4474 0.0000 0.0000
# 5 0.0000 0.0000 0.0000 0.0000 5.4476 0.0000
# 6 0.0000 0.0000 0.0000 0.0000 0.0000 36.9938
#
#
#
# Elastic Compliance Matrix: (Units=1/GPa)
#
#
# Indices 1 2 3 4 5 6 
#
# 1 0.006485 0.001534 -0.004270 0.000000 0.000000 0.000000
# 2 0.001534 0.006485 -0.004271 0.000000 0.000000 0.000000
# 3 -0.004270 -0.004271 0.021337 0.000000 0.000000 0.000000
# 4 0.000000 0.000000 0.000000 0.183575 0.000000 0.000000
# 5 0.000000 0.000000 0.000000 0.000000 0.183566 0.000000
# 6 0.000000 0.000000 0.000000 0.000000 0.000000 0.027032
#
#
# Mechanical properties :
#
#
# Convention : Reuss Voigt Hill
#
# Bulk Modulus (GPa) = 49.27744 55.93619 52.60682
# Shear Modulus (GPa) = 11.12948 34.80297 22.96622
#
# Velocity S-wave (km/s) = 2.52719 4.46897 3.63032
# Velocity P-wave (km/s) = 6.06576 7.66342 6.91092
#
# Compressibility (1/GPa) = 0.02029326
#
# Stress axis : x y z
#
# Youngs Moduli (GPa) = 154.21175 154.20874 46.86588
#
# Poissons Ratio (x) = -0.23661 0.20014
# Poissons Ratio (y) = -0.23661 0.20015
# Poissons Ratio (z) = 0.65855 0.65857
#
# Static dielectric constant tensor:
#      x y z
#    x 3.348570 0.000000 0.000000 
#    y 0.000000 3.348560 0.000000 
#    z 0.000000 0.000000 2.937390 
# 
# 
# High freq. dielectric constant tensor:
#      x y z
#    x 1.673100 0.000000 0.000000 
#    y 0.000000 1.673100 0.000000 
#    z 0.000000 0.000000 1.639520 
# 
# From -- ./inp_files/12983.got.cif
#   From: 2010.03.12/outbox.cif.g09.slc.cpg/sg139_7_cif.got.tgz:12983.got - 2010.04.08 09:46:31.
