data_PCOD8319664
_publ_section_title
;
Structure prediction by ZEFSAII (Michael W. Deem and Ramdas Pophale) SiO2 
 PCOD8319664
Probable space group: I 4/M M M
;
_chemical_formula_sum "Si O2"
_cell_formula_units_Z 240
_cell_length_a 21.208485
_cell_length_b 21.208485
_cell_length_c 29.287048
_cell_angle_alpha 90.000000
_cell_angle_beta 90.000000
_cell_angle_gamma 90.000000
_cell_volume 13173.309387
_symmetry_space_group_name_H-M "I 4/M M M"
_symmetry_group_IT_number 139
_symmetry_cell_setting 'tetragonal'
loop_
_space_group_symop_operation_xyz
x,y,z
-y,x,z
-x,-y,z
y,-x,z
x,-y,-z
-x,y,-z
y,x,-z
-y,-x,-z
-x,-y,-z
y,-x,-z
x,y,-z
-y,x,-z
-x,y,z
x,-y,z
-y,-x,z
y,x,z
1/2+x,1/2+y,1/2+z
1/2-y,1/2+x,1/2+z
1/2-x,1/2-y,1/2+z
1/2+y,1/2-x,1/2+z
1/2+x,1/2-y,1/2-z
1/2-x,1/2+y,1/2-z
1/2+y,1/2+x,1/2-z
1/2-y,1/2-x,1/2-z
1/2-x,1/2-y,1/2-z
1/2+y,1/2-x,1/2-z
1/2+x,1/2+y,1/2-z
1/2-y,1/2+x,1/2-z
1/2-x,1/2+y,1/2+z
1/2+x,1/2-y,1/2+z
1/2-y,1/2-x,1/2+z
1/2+y,1/2+x,1/2+z
loop_
_atom_site_type_symbol
_atom_site_label
_atom_site_fract_x
_atom_site_fract_y
_atom_site_fract_z
Si Si1 0.848145 0.250762 0.232489
Si Si2 0.170159 0.071096 0.301287
Si Si3 0.742945 0.356478 0.575768
Si Si4 0.890774 0.574049 0.801653
Si Si5 0.723409 0.930712 0.633535
Si Si6 0.259759 0.839901 0.550194
Si Si7 0.193553 0.429658 0.654949
Si Si8 0.324789 0.427723 0.500000
O O1 0.794533 0.205468 0.210208
O O2 0.814272 0.314272 0.250000
O O3 0.883628 0.212929 0.271317
O O4 0.902173 0.269511 0.197764
O O5 0.100211 0.100211 0.306278
O O6 0.203994 0.069832 0.350530
O O7 0.164377 0.000000 0.281370
O O8 0.685196 0.314805 0.597072
O O9 0.785309 0.311374 0.544755
O O10 0.789203 0.385540 0.613060
O O11 0.715452 0.412292 0.544963
O O12 0.910329 0.500000 0.803958
O O13 0.900165 0.599836 0.750000
O O14 0.819905 0.585277 0.821612
O O15 0.932714 0.618045 0.835030
O O16 0.716874 0.885584 0.590269
O O17 0.703839 0.000000 0.616049
O O18 0.255375 0.873273 0.500000
O O19 0.192242 0.807759 0.562460
O O20 0.217906 0.500000 0.645641
O O21 0.343635 0.500000 0.500000
O O22 0.389263 0.389263 0.500000
#
# Coordination Sequence:
#
# PCOD8319664 Si02
#       8
#    32  32  32  32  32  32  32  16
#     4  10  21  35  52  76 103 134 173 220 273 322
#     4  10  20  34  52  75 106 143 180 221 267 320
#     4  10  20  35  54  78 105 133 168 216 266 316
#     4  11  23  37  52  73 106 147 187 230 275 322
#     4  10  20  35  54  78 110 142 179 227 276 328
#     4  10  19  34  58  83 107 138 177 222 275 330
#     4  12  22  33  52  75 101 136 175 217 264 316
#     4  10  20  37  58  82 111 139 171 213 266 324
#
# _framework density 18.218657
#
# number of rings (size 3 to 8) (size 9 to 14) (size 15 to 20)
#    0.000    1.600    2.000    4.000    0.000    2.467 
#    0.000    0.000    0.000    0.400    0.000    0.000 
#    0.000   13.867    0.000   12.400    0.000    0.000 
#
# Total GULP energy -1486805.270710 kJ/mol
# GULP energy per Si atom -12390.043923 kJ/mol
# Density = 1.817719 g / cm^3
# Si number density = 18.218657 Si / 1000 Ang^3
#
#
#
# Elastic Constant Matrix: (Units=GPa)
#
#
# Indices 1 2 3 4 5 6 
#
# 1 95.7903 44.1171 43.7939 0.0000 0.0000 0.0000
# 2 44.1171 95.7900 43.7939 0.0000 0.0000 0.0000
# 3 43.7939 43.7939 97.5062 0.0000 0.0000 0.0000
# 4 0.0000 0.0000 0.0000 21.9458 0.0000 0.0000
# 5 0.0000 0.0000 0.0000 0.0000 21.9459 0.0000
# 6 0.0000 0.0000 0.0000 0.0000 0.0000 22.4295
#
#
#
# Elastic Compliance Matrix: (Units=1/GPa)
#
#
# Indices 1 2 3 4 5 6 
#
# 1 0.014648 -0.004704 -0.004466 0.000000 0.000000 0.000000
# 2 -0.004704 0.014648 -0.004466 0.000000 0.000000 0.000000
# 3 -0.004466 -0.004466 0.014268 0.000000 0.000000 0.000000
# 4 0.000000 0.000000 0.000000 0.045567 0.000000 0.000000
# 5 0.000000 0.000000 0.000000 0.000000 0.045567 0.000000
# 6 0.000000 0.000000 0.000000 0.000000 0.000000 0.044584
#
#
# Mechanical properties :
#
#
# Convention : Reuss Voigt Hill
#
# Bulk Modulus (GPa) = 61.38577 61.38847 61.38712
# Shear Modulus (GPa) = 23.58666 23.75634 23.67150
#
# Velocity S-wave (km/s) = 3.60202 3.61495 3.60849
# Velocity P-wave (km/s) = 7.14608 7.15488 7.15048
#
# Compressibility (1/GPa) = 0.01629042
#
# Stress axis : x y z
#
# Youngs Moduli (GPa) = 68.26892 68.26863 70.08930
#
# Poissons Ratio (x) = 0.32117 0.31302
# Poissons Ratio (y) = 0.32117 0.31302
# Poissons Ratio (z) = 0.30489 0.30489
#
# Static dielectric constant tensor:
#      x y z
#    x 3.434680 0.000000 0.000000 
#    y 0.000000 3.434670 0.000000 
#    z 0.000000 0.000000 3.172570 
# 
# 
# High freq. dielectric constant tensor:
#      x y z
#    x 1.705320 0.000000 0.000000 
#    y 0.000000 1.705320 0.000000 
#    z 0.000000 0.000000 1.690380 
# 
# From -- ./inp_files/14652.got.cif
#   From: 2010.03.12/outbox.cif.g09.slc.cpg/sg139_8_cif.got.tgz:14652.got - 2010.04.08 09:46:31.
