data_PCOD8319105
_publ_section_title
;
Structure prediction by ZEFSAII (Michael W. Deem and Ramdas Pophale) SiO2 
 PCOD8319105
Probable space group: P 42/N C M
;
_chemical_formula_sum "Si O2"
_cell_formula_units_Z 96
_cell_length_a 14.101859
_cell_length_b 14.101859
_cell_length_c 22.162088
_cell_angle_alpha 90.000000
_cell_angle_beta 90.000000
_cell_angle_gamma 90.000000
_cell_volume 4407.206613
_symmetry_space_group_name_H-M "P 42/N C M"
_symmetry_group_IT_number 138
_space_group.IT_coordinate_system_code '2'
_symmetry_cell_setting 'tetragonal'
loop_
_space_group_symop_operation_xyz
x,y,z
1/2-y,x,1/2+z
1/2-x,1/2-y,z
y,1/2-x,1/2+z
1/2+x,-y,1/2-z
-x,1/2+y,1/2-z
1/2+y,1/2+x,-z
-y,-x,-z
-x,-y,-z
1/2+y,-x,1/2-z
1/2+x,1/2+y,-z
-y,1/2+x,1/2-z
1/2-x,y,1/2+z
x,1/2-y,1/2+z
1/2-y,1/2-x,z
y,x,z
loop_
_atom_site_type_symbol
_atom_site_label
_atom_site_fract_x
_atom_site_fract_y
_atom_site_fract_z
Si Si1 0.252897 0.102247 0.315101
Si Si2 0.792629 0.466141 0.584010
Si Si3 0.046752 0.830615 0.888158
Si Si4 0.028200 0.878664 0.752219
Si Si5 0.675961 0.172558 0.840267
Si Si6 0.747427 0.902669 0.476762
O O1 0.329312 0.170689 0.282744
O O2 0.164496 0.164496 0.340563
O O3 0.307645 0.052888 0.370262
O O4 0.216899 0.028164 0.265399
O O5 0.889646 0.405663 0.572602
O O6 0.713470 0.400661 0.614080
O O7 0.748520 0.508143 0.522370
O O8 0.038092 0.881684 0.823725
O O9 0.097005 0.730009 0.880940
O O10 0.945359 0.802986 0.916659
O O11 0.129422 0.876902 0.718533
O O12 0.972262 0.972262 0.730783
O O13 0.750000 0.250000 0.815586
O O14 0.676498 0.823503 0.502950
O O15 0.850571 0.850571 0.465657
#
# Coordination Sequence:
#
# PCOD8319105 Si02
#       6
#    16  16  16  16  16  16
#     4   9  18  34  57  86 119 156 202 260 319 374
#     4  10  21  39  63  91 116 156 212 262 308 370
#     4  11  24  39  61  92 126 163 206 258 319 377
#     4  10  22  37  57  90 127 164 211 257 309 381
#     4   9  22  39  64  91 124 165 203 255 319 377
#     4  11  25  44  64  87 123 168 210 261 324 380
#
# _framework density 21.782506000000001
#
# number of rings (size 3 to 8) (size 9 to 14) (size 15 to 20)
#    0.000    2.000    0.000    2.000    7.000    7.333 
#    0.000    5.000    0.000    0.000    0.000    0.000 
#    0.000    0.000    0.000    0.000    0.000    0.000 
#
# Total GULP energy -1189752.456287 kJ/mol
# GULP energy per Si atom -12393.254753 kJ/mol
# Density = 2.173293 g / cm^3
# Si number density = 21.782506 Si / 1000 Ang^3
#
#
#
# Elastic Constant Matrix: (Units=GPa)
#
#
# Indices 1 2 3 4 5 6 
#
# 1 108.5729 56.6330 36.7186 0.0000 0.0000 0.0000
# 2 56.6330 108.5729 36.7186 0.0000 0.0000 0.0000
# 3 36.7186 36.7186 85.8384 0.0000 0.0000 0.0000
# 4 0.0000 0.0000 0.0000 24.1891 0.0000 0.0000
# 5 0.0000 0.0000 0.0000 0.0000 24.1891 0.0000
# 6 0.0000 0.0000 0.0000 0.0000 0.0000 42.6222
#
#
#
# Elastic Compliance Matrix: (Units=1/GPa)
#
#
# Indices 1 2 3 4 5 6 
#
# 1 0.013364 -0.005889 -0.003197 0.000000 0.000000 0.000000
# 2 -0.005889 0.013364 -0.003197 0.000000 0.000000 0.000000
# 3 -0.003197 -0.003197 0.014385 0.000000 0.000000 0.000000
# 4 0.000000 0.000000 0.000000 0.041341 0.000000 0.000000
# 5 0.000000 0.000000 0.000000 0.000000 0.041341 0.000000
# 6 0.000000 0.000000 0.000000 0.000000 0.000000 0.023462
#
#
# Mechanical properties :
#
#
# Convention : Reuss Voigt Hill
#
# Bulk Modulus (GPa) = 60.44209 62.56940 61.50575
# Shear Modulus (GPa) = 28.19460 29.72767 28.96113
#
# Velocity S-wave (km/s) = 3.60164 3.69826 3.65027
# Velocity P-wave (km/s) = 6.71595 6.85734 6.78701
#
# Compressibility (1/GPa) = 0.01654476
#
# Stress axis : x y z
#
# Youngs Moduli (GPa) = 74.82983 74.82983 69.51623
#
# Poissons Ratio (x) = 0.44070 0.22226
# Poissons Ratio (y) = 0.44070 0.22226
# Poissons Ratio (z) = 0.23925 0.23925
#
# Static dielectric constant tensor:
#      x y z
#    x 4.162030 0.000000 0.000000 
#    y 0.000000 4.162030 0.000000 
#    z 0.000000 0.000000 3.632710 
# 
# 
# High freq. dielectric constant tensor:
#      x y z
#    x 1.863080 0.000000 0.000000 
#    y 0.000000 1.863080 0.000000 
#    z 0.000000 0.000000 1.832790 
# 
# From -- ./inp_files/6212.got.cif
#   From: 2010.03.12/outbox.cif.g09.slc.cpg/sg138_4_cif.got.tgz:6212.got - 2010.04.08 09:41:05.
