data_PCOD8319316
_publ_section_title
;
Structure prediction by ZEFSAII (Michael W. Deem and Ramdas Pophale) SiO2 
 PCOD8319316
Probable space group: I 4/M M M
;
_chemical_formula_sum "Si O2"
_cell_formula_units_Z 160
_cell_length_a 18.284674
_cell_length_b 18.284674
_cell_length_c 29.406464
_cell_angle_alpha 90.000000
_cell_angle_beta 90.000000
_cell_angle_gamma 90.000000
_cell_volume 9831.442621
_symmetry_space_group_name_H-M "I 4/M M M"
_symmetry_group_IT_number 139
_symmetry_cell_setting 'tetragonal'
loop_
_space_group_symop_operation_xyz
x,y,z
-y,x,z
-x,-y,z
y,-x,z
x,-y,-z
-x,y,-z
y,x,-z
-y,-x,-z
-x,-y,-z
y,-x,-z
x,y,-z
-y,x,-z
-x,y,z
x,-y,z
-y,-x,z
y,x,z
1/2+x,1/2+y,1/2+z
1/2-y,1/2+x,1/2+z
1/2-x,1/2-y,1/2+z
1/2+y,1/2-x,1/2+z
1/2+x,1/2-y,1/2-z
1/2-x,1/2+y,1/2-z
1/2+y,1/2+x,1/2-z
1/2-y,1/2-x,1/2-z
1/2-x,1/2-y,1/2-z
1/2+y,1/2-x,1/2-z
1/2+x,1/2+y,1/2-z
1/2-y,1/2+x,1/2-z
1/2-x,1/2+y,1/2+z
1/2+x,1/2-y,1/2+z
1/2-y,1/2-x,1/2+z
1/2+y,1/2+x,1/2+z
loop_
_atom_site_type_symbol
_atom_site_label
_atom_site_fract_x
_atom_site_fract_y
_atom_site_fract_z
Si Si1 0.776709 0.342087 0.948673
Si Si2 0.584652 0.702266 0.194283
Si Si3 0.694327 0.000000 0.450198
Si Si4 0.690116 0.084093 0.225319
Si Si5 0.000000 0.586261 0.371997
Si Si6 0.145181 0.336376 0.644152
O O1 0.703190 0.296811 0.941662
O O2 0.756352 0.427857 0.941907
O O3 0.835117 0.323982 0.908124
O O4 0.808986 0.327821 0.000000
O O5 0.500000 0.692417 0.180354
O O6 0.623384 0.623384 0.194759
O O7 0.591858 0.737490 0.244312
O O8 0.625715 0.753366 0.157688
O O9 0.620297 0.000000 0.421909
O O10 0.661335 0.000000 0.500000
O O11 0.620840 0.120840 0.250000
O O12 0.705134 0.126831 0.177487
O O13 0.671000 0.000000 0.215842
O O14 0.927357 0.614821 0.347063
O O15 0.000000 0.500000 0.375000
#
# Coordination Sequence:
#
# PCOD8319316 Si02
#       6
#    32  32  16  32  16  32
#     4   9  17  29  46  65  85 116 155 191 229 274
#     4  10  20  34  49  67  92 119 154 197 235 282
#     4   8  16  29  42  61  88 112 146 192 228 268
#     4   9  19  31  46  69  95 121 154 186 227 279
#     4  10  18  27  44  64  88 122 150 180 223 272
#     4  10  18  31  46  66  95 121 152 189 235 274
#
# _framework density 16.274315000000001
#
# number of rings (size 3 to 8) (size 9 to 14) (size 15 to 20)
#    0.000    2.600    1.000    1.200    1.400    5.000 
#    0.000    0.000    0.000    2.100    0.000    2.100 
#    0.000    0.000    0.000    0.000    0.000    0.000 
#
# Total GULP energy -991180.830922 kJ/mol
# GULP energy per Si atom -12389.760387 kJ/mol
# Density = 1.623727 g / cm^3
# Si number density = 16.274315 Si / 1000 Ang^3
#
#
#
# Elastic Constant Matrix: (Units=GPa)
#
#
# Indices 1 2 3 4 5 6 
#
# 1 46.9726 34.4366 19.4780 0.0000 0.0000 0.0000
# 2 34.4366 46.9726 19.4780 0.0000 0.0000 0.0000
# 3 19.4780 19.4780 106.8739 0.0000 0.0000 0.0000
# 4 0.0000 0.0000 0.0000 17.0668 0.0000 0.0000
# 5 0.0000 0.0000 0.0000 0.0000 17.0668 0.0000
# 6 0.0000 0.0000 0.0000 0.0000 0.0000 25.0435
#
#
#
# Elastic Compliance Matrix: (Units=1/GPa)
#
#
# Indices 1 2 3 4 5 6 
#
# 1 0.046614 -0.033157 -0.002453 0.000000 0.000000 0.000000
# 2 -0.033157 0.046614 -0.002453 0.000000 0.000000 0.000000
# 3 -0.002453 -0.002453 0.010251 0.000000 0.000000 0.000000
# 4 0.000000 0.000000 0.000000 0.058593 0.000000 0.000000
# 5 0.000000 0.000000 0.000000 0.000000 0.058593 0.000000
# 6 0.000000 0.000000 0.000000 0.000000 0.000000 0.039931
#
#
# Mechanical properties :
#
#
# Convention : Reuss Voigt Hill
#
# Bulk Modulus (GPa) = 36.55660 38.62272 37.58966
# Shear Modulus (GPa) = 14.45764 20.33049 17.39407
#
# Velocity S-wave (km/s) = 2.98379 3.53829 3.27280
# Velocity P-wave (km/s) = 5.86363 6.36211 6.11795
#
# Compressibility (1/GPa) = 0.02735484
#
# Stress axis : x y z
#
# Youngs Moduli (GPa) = 21.45285 21.45285 97.55322
#
# Poissons Ratio (x) = 0.71130 0.23926
# Poissons Ratio (y) = 0.71130 0.23926
# Poissons Ratio (z) = 0.05262 0.05262
#
# Static dielectric constant tensor:
#      x y z
#    x 2.903160 0.000000 0.000000 
#    y 0.000000 2.903160 0.000000 
#    z 0.000000 0.000000 3.500840 
# 
# 
# High freq. dielectric constant tensor:
#      x y z
#    x 1.598150 0.000000 0.000000 
#    y 0.000000 1.598150 0.000000 
#    z 0.000000 0.000000 1.645740 
# 
# From -- ./inp_files/14096.got.cif
#   From: 2010.03.12/outbox.cif.g09.slc.cpg/sg139_8_cif.got.tgz:14096.got - 2010.04.08 09:46:31.
