data_PCOD8319925
_publ_section_title
;
Structure prediction by ZEFSAII (Michael W. Deem and Ramdas Pophale) SiO2 
 PCOD8319925
Probable space group: I 4/M M M
;
_chemical_formula_sum "Si O2"
_cell_formula_units_Z 160
_cell_length_a 31.057222
_cell_length_b 31.057222
_cell_length_c 8.423187
_cell_angle_alpha 90.000000
_cell_angle_beta 90.000000
_cell_angle_gamma 90.000000
_cell_volume 8124.593767
_symmetry_space_group_name_H-M "I 4/M M M"
_symmetry_group_IT_number 139
_symmetry_cell_setting 'tetragonal'
loop_
_space_group_symop_operation_xyz
x,y,z
-y,x,z
-x,-y,z
y,-x,z
x,-y,-z
-x,y,-z
y,x,-z
-y,-x,-z
-x,-y,-z
y,-x,-z
x,y,-z
-y,x,-z
-x,y,z
x,-y,z
-y,-x,z
y,x,z
1/2+x,1/2+y,1/2+z
1/2-y,1/2+x,1/2+z
1/2-x,1/2-y,1/2+z
1/2+y,1/2-x,1/2+z
1/2+x,1/2-y,1/2-z
1/2-x,1/2+y,1/2-z
1/2+y,1/2+x,1/2-z
1/2-y,1/2-x,1/2-z
1/2-x,1/2-y,1/2-z
1/2+y,1/2-x,1/2-z
1/2+x,1/2+y,1/2-z
1/2-y,1/2+x,1/2-z
1/2-x,1/2+y,1/2+z
1/2+x,1/2-y,1/2+z
1/2-y,1/2-x,1/2+z
1/2+y,1/2+x,1/2+z
loop_
_atom_site_type_symbol
_atom_site_label
_atom_site_fract_x
_atom_site_fract_y
_atom_site_fract_z
Si Si1 0.000000 0.113027 0.682816
Si Si2 0.149625 0.149625 0.682094
Si Si3 0.769584 0.903061 0.184346
Si Si4 0.500000 0.297887 0.316560
Si Si5 0.548096 0.885923 0.313102
Si Si6 0.385753 0.821125 0.184472
Si Si7 0.913041 0.086960 0.181270
O O1 0.000000 0.164323 0.688706
O O2 0.037919 0.094990 0.787128
O O3 0.000000 0.097373 0.500000
O O4 0.160826 0.160826 0.500000
O O5 0.127858 0.190736 0.767345
O O6 0.113406 0.113406 0.688683
O O7 0.773503 0.954711 0.217747
O O8 0.729475 0.885591 0.283523
O O9 0.760942 0.895650 0.000000
O O10 0.500000 0.313759 0.500000
O O11 0.546333 0.888553 0.500000
O O12 0.500000 0.884368 0.241296
O O13 0.571793 0.928208 0.250000
O O14 0.572746 0.842541 0.265423
O O15 0.341671 0.841671 0.250000
O O16 0.388305 0.831009 0.000000
O O17 0.900411 0.099590 0.000000
#
# Coordination Sequence:
#
# PCOD8319925 Si02
#       7
#    16  16  32  16  32  32  16
#     4  12  24  39  61  88 120 156 205 259 305 360
#     4  12  24  40  62  94 126 158 201 252 305 360
#     4  11  23  41  65  94 126 164 205 249 305 366
#     4  10  22  38  61  91 126 164 203 245 305 370
#     4  10  21  37  58  85 120 162 207 253 304 361
#     4  11  23  41  64  91 124 162 204 253 307 364
#     4  12  24  41  61  83 119 164 204 246 309 374
#
# _framework density 19.693293000000001
#
# number of rings (size 3 to 8) (size 9 to 14) (size 15 to 20)
#    0.000    1.000    2.000    6.900    1.400    2.800 
#    0.000    2.500    0.000    0.000    0.000    0.000 
#    0.000    0.000    0.000    0.000    0.000    0.000 
#
# Total GULP energy -991726.499426 kJ/mol
# GULP energy per Si atom -12396.581243 kJ/mol
# Density = 1.964847 g / cm^3
# Si number density = 19.693293 Si / 1000 Ang^3
#
#
#
# Elastic Constant Matrix: (Units=GPa)
#
#
# Indices 1 2 3 4 5 6 
#
# 1 125.9326 54.4075 15.4400 0.0000 0.0000 0.0000
# 2 54.4075 125.9329 15.4409 0.0000 0.0000 0.0000
# 3 15.4400 15.4409 82.4945 0.0000 0.0000 0.0000
# 4 0.0000 0.0000 0.0000 32.0229 0.0000 0.0000
# 5 0.0000 0.0000 0.0000 0.0000 32.0236 0.0000
# 6 0.0000 0.0000 0.0000 0.0000 0.0000 25.5932
#
#
#
# Elastic Compliance Matrix: (Units=1/GPa)
#
#
# Indices 1 2 3 4 5 6 
#
# 1 0.009855 -0.004126 -0.001072 0.000000 0.000000 0.000000
# 2 -0.004126 0.009855 -0.001072 0.000000 0.000000 0.000000
# 3 -0.001072 -0.001072 0.012523 0.000000 0.000000 0.000000
# 4 0.000000 0.000000 0.000000 0.031228 0.000000 0.000000
# 5 0.000000 0.000000 0.000000 0.000000 0.031227 0.000000
# 6 0.000000 0.000000 0.000000 0.000000 0.000000 0.039073
#
#
# Mechanical properties :
#
#
# Convention : Reuss Voigt Hill
#
# Bulk Modulus (GPa) = 50.78249 56.10409 53.44329
# Shear Modulus (GPa) = 32.70838 34.53270 33.62054
#
# Velocity S-wave (km/s) = 4.07982 4.19206 4.13632
# Velocity P-wave (km/s) = 6.93080 7.20985 7.07170
#
# Compressibility (1/GPa) = 0.01969183
#
# Stress axis : x y z
#
# Youngs Moduli (GPa) = 101.47267 101.47263 79.85049
#
# Poissons Ratio (x) = 0.41870 0.08561
# Poissons Ratio (y) = 0.41870 0.08562
# Poissons Ratio (z) = 0.10879 0.10881
#
# Static dielectric constant tensor:
#      x y z
#    x 3.707280 0.000000 0.000000 
#    y 0.000000 3.707280 0.000000 
#    z 0.000000 0.000000 3.624020 
# 
# 
# High freq. dielectric constant tensor:
#      x y z
#    x 1.768650 0.000000 0.000000 
#    y 0.000000 1.768650 0.000000 
#    z 0.000000 0.000000 1.780960 
# 
# From -- ./inp_files/2311.got.cif
#   From: 2010.03.12/outbox.cif.g09.slc.cpg/sg139_2_cif.got.tgz:2311.got - 2010.04.08 09:46:31.
