data_PCOD8319323
_publ_section_title
;
Structure prediction by ZEFSAII (Michael W. Deem and Ramdas Pophale) SiO2 
 PCOD8319323
Probable space group: I 4/M M M
;
_chemical_formula_sum "Si O2"
_cell_formula_units_Z 224
_cell_length_a 25.779981
_cell_length_b 25.779981
_cell_length_c 21.451021
_cell_angle_alpha 90.000000
_cell_angle_beta 90.000000
_cell_angle_gamma 90.000000
_cell_volume 14256.507731
_symmetry_space_group_name_H-M "I 4/M M M"
_symmetry_group_IT_number 139
_symmetry_cell_setting 'tetragonal'
loop_
_space_group_symop_operation_xyz
x,y,z
-y,x,z
-x,-y,z
y,-x,z
x,-y,-z
-x,y,-z
y,x,-z
-y,-x,-z
-x,-y,-z
y,-x,-z
x,y,-z
-y,x,-z
-x,y,z
x,-y,z
-y,-x,z
y,x,z
1/2+x,1/2+y,1/2+z
1/2-y,1/2+x,1/2+z
1/2-x,1/2-y,1/2+z
1/2+y,1/2-x,1/2+z
1/2+x,1/2-y,1/2-z
1/2-x,1/2+y,1/2-z
1/2+y,1/2+x,1/2-z
1/2-y,1/2-x,1/2-z
1/2-x,1/2-y,1/2-z
1/2+y,1/2-x,1/2-z
1/2+x,1/2+y,1/2-z
1/2-y,1/2+x,1/2-z
1/2-x,1/2+y,1/2+z
1/2+x,1/2-y,1/2+z
1/2-y,1/2-x,1/2+z
1/2+y,1/2+x,1/2+z
loop_
_atom_site_type_symbol
_atom_site_label
_atom_site_fract_x
_atom_site_fract_y
_atom_site_fract_z
Si Si1 0.059513 0.142679 0.282691
Si Si2 0.740172 0.582325 0.429980
Si Si3 0.760735 0.558466 0.210763
Si Si4 0.556298 0.636757 0.364015
Si Si5 0.777181 0.693026 0.569792
Si Si6 0.332878 0.148257 0.318362
Si Si7 0.320145 0.943177 0.165956
O O1 0.099822 0.099822 0.311366
O O2 0.075428 0.201218 0.303261
O O3 0.064337 0.141492 0.209122
O O4 0.000000 0.130033 0.303638
O O5 0.737848 0.561858 0.500000
O O6 0.692811 0.558563 0.393390
O O7 0.738073 0.644614 0.425755
O O8 0.793934 0.561313 0.401511
O O9 0.769181 0.500000 0.186439
O O10 0.801975 0.594531 0.174965
O O11 0.773229 0.562163 0.284300
O O12 0.500000 0.612485 0.378044
O O13 0.599075 0.599075 0.394168
O O14 0.803081 0.693116 0.500000
O O15 0.745389 0.745389 0.579917
O O16 0.818005 0.689746 0.625516
O O17 0.324548 0.175453 0.250000
O O18 0.395479 0.139304 0.325316
O O19 0.347666 0.000000 0.172416
#
# Coordination Sequence:
#
# PCOD8319323 Si02
#       7
#    32  32  32  32  32  32  32
#     4   9  17  28  42  59  81 111 143 179 223 265
#     4  10  18  28  42  59  78 105 144 181 217 264
#     4   9  16  29  46  63  87 112 136 173 223 269
#     4  10  19  29  39  51  70  99 138 181 222 260
#     4   9  18  31  44  61  91 123 143 171 223 275
#     4   9  18  29  44  69  89 112 150 185 217 260
#     4   9  16  28  43  60  85 112 138 174 219 260
#
# _framework density 15.712123
#
# number of rings (size 3 to 8) (size 9 to 14) (size 15 to 20)
#    0.000    2.714    1.429    0.857    0.000    3.143 
#    0.000    1.429    0.000    0.857    0.000    4.000 
#    0.000    0.000    0.000    7.143    0.000    7.429 
#
# Total GULP energy -1387635.157914 kJ/mol
# GULP energy per Si atom -12389.599624 kJ/mol
# Density = 1.567636 g / cm^3
# Si number density = 15.712123 Si / 1000 Ang^3
#
#
#
# Elastic Constant Matrix: (Units=GPa)
#
#
# Indices 1 2 3 4 5 6 
#
# 1 96.3897 64.9782 23.8039 0.0000 0.0000 0.0000
# 2 64.9782 96.3896 23.8039 0.0000 0.0000 0.0000
# 3 23.8039 23.8039 45.6982 0.0000 0.0000 0.0000
# 4 0.0000 0.0000 0.0000 10.3853 0.0000 0.0000
# 5 0.0000 0.0000 0.0000 0.0000 10.3852 0.0000
# 6 0.0000 0.0000 0.0000 0.0000 0.0000 23.6019
#
#
#
# Elastic Compliance Matrix: (Units=1/GPa)
#
#
# Indices 1 2 3 4 5 6 
#
# 1 0.019579 -0.012257 -0.003814 0.000000 0.000000 0.000000
# 2 -0.012257 0.019579 -0.003814 0.000000 0.000000 0.000000
# 3 -0.003814 -0.003814 0.025856 0.000000 0.000000 0.000000
# 4 0.000000 0.000000 0.000000 0.096290 0.000000 0.000000
# 5 0.000000 0.000000 0.000000 0.000000 0.096291 0.000000
# 6 0.000000 0.000000 0.000000 0.000000 0.000000 0.042369
#
#
# Mechanical properties :
#
#
# Convention : Reuss Voigt Hill
#
# Bulk Modulus (GPa) = 39.61299 51.51663 45.56481
# Shear Modulus (GPa) = 14.36168 17.26726 15.81447
#
# Velocity S-wave (km/s) = 3.02661 3.31868 3.17600
# Velocity P-wave (km/s) = 6.12211 6.89520 6.52013
#
# Compressibility (1/GPa) = 0.02524424
#
# Stress axis : x y z
#
# Youngs Moduli (GPa) = 51.07539 51.07530 38.67547
#
# Poissons Ratio (x) = 0.62601 0.14751
# Poissons Ratio (y) = 0.62601 0.14751
# Poissons Ratio (z) = 0.19481 0.19481
#
# Static dielectric constant tensor:
#      x y z
#    x 3.078770 0.000000 0.000000 
#    y 0.000000 3.078770 0.000000 
#    z 0.000000 0.000000 2.810870 
# 
# 
# High freq. dielectric constant tensor:
#      x y z
#    x 1.592150 0.000000 0.000000 
#    y 0.000000 1.592150 0.000000 
#    z 0.000000 0.000000 1.572660 
# 
# From -- ./inp_files/12231.got.cif
#   From: 2010.03.12/outbox.cif.g09.slc.cpg/sg139_7_cif.got.tgz:12231.got - 2010.04.08 09:46:31.
