data_PCOD8319930
_publ_section_title
;
Structure prediction by ZEFSAII (Michael W. Deem and Ramdas Pophale) SiO2 
 PCOD8319930
Probable space group: I 4/M M M
;
_chemical_formula_sum "Si O2"
_cell_formula_units_Z 96
_cell_length_a 24.161119
_cell_length_b 24.161119
_cell_length_c 8.481332
_cell_angle_alpha 90.000000
_cell_angle_beta 90.000000
_cell_angle_gamma 90.000000
_cell_volume 4951.059581
_symmetry_space_group_name_H-M "I 4/M M M"
_symmetry_group_IT_number 139
_symmetry_cell_setting 'tetragonal'
loop_
_space_group_symop_operation_xyz
x,y,z
-y,x,z
-x,-y,z
y,-x,z
x,-y,-z
-x,y,-z
y,x,-z
-y,-x,-z
-x,-y,-z
y,-x,-z
x,y,-z
-y,x,-z
-x,y,z
x,-y,z
-y,-x,z
y,x,z
1/2+x,1/2+y,1/2+z
1/2-y,1/2+x,1/2+z
1/2-x,1/2-y,1/2+z
1/2+y,1/2-x,1/2+z
1/2+x,1/2-y,1/2-z
1/2-x,1/2+y,1/2-z
1/2+y,1/2+x,1/2-z
1/2-y,1/2-x,1/2-z
1/2-x,1/2-y,1/2-z
1/2+y,1/2-x,1/2-z
1/2+x,1/2+y,1/2-z
1/2-y,1/2+x,1/2-z
1/2-x,1/2+y,1/2+z
1/2+x,1/2-y,1/2+z
1/2-y,1/2-x,1/2+z
1/2+y,1/2+x,1/2+z
loop_
_atom_site_type_symbol
_atom_site_label
_atom_site_fract_x
_atom_site_fract_y
_atom_site_fract_z
Si Si1 0.121130 0.296292 0.316104
Si Si2 0.273338 0.000000 0.180222
Si Si3 0.500000 0.341808 0.180627
Si Si4 0.602332 0.602332 0.682019
Si Si5 0.183353 0.816648 0.315610
O O1 0.115141 0.301122 0.500000
O O2 0.147698 0.352302 0.250000
O O3 0.164079 0.246041 0.274696
O O4 0.058079 0.293434 0.254146
O O5 0.207707 0.000000 0.195600
O O6 0.291762 0.000000 0.000000
O O7 0.551505 0.379258 0.214771
O O8 0.500000 0.319885 0.000000
O O9 0.588299 0.588299 0.500000
O O10 0.648741 0.648741 0.690117
O O11 0.170473 0.829528 0.500000
#
# Coordination Sequence:
#
# PCOD8319930 Si02
#       5
#    32  16  16  16  16
#     4  11  23  40  63  93 128 166 207 253 309 368
#     4  12  24  40  63  92 123 162 208 253 305 367
#     4  12  24  41  61  84 119 163 209 255 312 367
#     4  12  24  38  60  88 118 157 211 262 306 358
#     4  10  21  37  60  89 127 167 202 247 310 365
#
# _framework density 19.389787999999999
#
# number of rings (size 3 to 8) (size 9 to 14) (size 15 to 20)
#    0.000    0.667    3.333    6.000    0.000    1.667 
#    0.000    1.667    0.000    0.500    0.000    3.500 
#    0.000    0.000    0.000    0.000    0.000    0.000 
#
# Total GULP energy -594711.647589 kJ/mol
# GULP energy per Si atom -12389.825991 kJ/mol
# Density = 1.934566 g / cm^3
# Si number density = 19.389788 Si / 1000 Ang^3
#
#
#
# Elastic Constant Matrix: (Units=GPa)
#
#
# Indices 1 2 3 4 5 6 
#
# 1 94.5480 117.1400 39.5803 0.0000 0.0000 0.0000
# 2 117.1400 94.4679 39.6854 0.0000 0.0000 0.0000
# 3 39.5803 39.6854 99.8148 0.0000 0.0000 0.0000
# 4 0.0000 0.0000 0.0000 33.4546 0.0000 0.0000
# 5 0.0000 0.0000 0.0000 0.0000 33.4549 0.0000
# 6 0.0000 0.0000 0.0000 0.0000 0.0000 39.8904
#
#
#
# Elastic Compliance Matrix: (Units=1/GPa)
#
#
# Indices 1 2 3 4 5 6 
#
# 1 -0.019297 0.024868 -0.002235 0.000000 0.000000 0.000000
# 2 0.024868 -0.019337 -0.002173 0.000000 0.000000 0.000000
# 3 -0.002235 -0.002173 0.011769 0.000000 0.000000 0.000000
# 4 0.000000 0.000000 0.000000 0.029891 0.000000 0.000000
# 5 0.000000 0.000000 0.000000 0.000000 0.029891 0.000000
# 6 0.000000 0.000000 0.000000 0.000000 0.000000 0.025069
#
#
# Mechanical properties :
#
#
# Convention : Reuss Voigt Hill
#
# Bulk Modulus (GPa) = 71.15474 75.73803 73.44638
# Shear Modulus (GPa) = 229.89288 27.52164 128.70726
#
# Velocity S-wave (km/s) = 10.90052 3.77156 8.15616
# Velocity P-wave (km/s) = 13.97158 7.62311 11.25426
#
# Compressibility (1/GPa) = 0.01405388
#
# Stress axis : x y z
#
# Youngs Moduli (GPa) = -51.82057 -51.71308 84.97198
#
# Poissons Ratio (x) = 1.28598 0.18991
# Poissons Ratio (y) = 1.28865 0.18461
# Poissons Ratio (z) = -0.11582 -0.11235
#
# Static dielectric constant tensor:
#      x y z
#    x 3.564850 0.000000 0.000000 
#    y 0.000000 3.564860 0.000000 
#    z 0.000000 0.000000 3.548560 
# 
# 
# High freq. dielectric constant tensor:
#      x y z
#    x 1.751420 0.000000 0.000000 
#    y 0.000000 1.751430 0.000000 
#    z 0.000000 0.000000 1.767650 
# 
# From -- ./inp_files/1170.got.cif
#   From: 2010.03.12/outbox.cif.g09.slc.cpg/sg139_1_cif.got.tgz:1170.got - 2010.04.08 09:46:31.
