data_PCOD8319260
_publ_section_title
;
Structure prediction by ZEFSAII (Michael W. Deem and Ramdas Pophale) SiO2 
 PCOD8319260
Probable space group: I 4/M M M
;
_chemical_formula_sum "Si O2"
_cell_formula_units_Z 208
_cell_length_a 28.300546
_cell_length_b 28.300546
_cell_length_c 17.303244
_cell_angle_alpha 90.000000
_cell_angle_beta 90.000000
_cell_angle_gamma 90.000000
_cell_volume 13858.529825
_symmetry_space_group_name_H-M "I 4/M M M"
_symmetry_group_IT_number 139
_symmetry_cell_setting 'tetragonal'
loop_
_space_group_symop_operation_xyz
x,y,z
-y,x,z
-x,-y,z
y,-x,z
x,-y,-z
-x,y,-z
y,x,-z
-y,-x,-z
-x,-y,-z
y,-x,-z
x,y,-z
-y,x,-z
-x,y,z
x,-y,z
-y,-x,z
y,x,z
1/2+x,1/2+y,1/2+z
1/2-y,1/2+x,1/2+z
1/2-x,1/2-y,1/2+z
1/2+y,1/2-x,1/2+z
1/2+x,1/2-y,1/2-z
1/2-x,1/2+y,1/2-z
1/2+y,1/2+x,1/2-z
1/2-y,1/2-x,1/2-z
1/2-x,1/2-y,1/2-z
1/2+y,1/2-x,1/2-z
1/2+x,1/2+y,1/2-z
1/2-y,1/2+x,1/2-z
1/2-x,1/2+y,1/2+z
1/2+x,1/2-y,1/2+z
1/2-y,1/2-x,1/2+z
1/2+y,1/2+x,1/2+z
loop_
_atom_site_type_symbol
_atom_site_label
_atom_site_fract_x
_atom_site_fract_y
_atom_site_fract_z
Si Si1 0.819850 0.895742 0.361813
Si Si2 0.268161 0.444334 0.718870
Si Si3 0.226379 0.354449 0.086169
Si Si4 0.383577 0.692257 0.412167
Si Si5 0.882562 0.688478 0.737585
Si Si6 0.811862 0.261805 0.846605
Si Si7 0.945412 0.867698 0.500000
O O1 0.863312 0.863312 0.332547
O O2 0.795981 0.922461 0.290768
O O3 0.782123 0.861805 0.403227
O O4 0.837433 0.934120 0.423630
O O5 0.269078 0.500000 0.722749
O O6 0.296578 0.428097 0.642779
O O7 0.211887 0.428441 0.720737
O O8 0.196801 0.387204 0.145794
O O9 0.213714 0.300318 0.100803
O O10 0.211047 0.369184 0.000000
O O11 0.402118 0.689984 0.500000
O O12 0.357109 0.642892 0.390183
O O13 0.347193 0.735312 0.404476
O O14 0.867654 0.632347 0.750000
O O15 0.838738 0.718602 0.771605
O O16 0.774126 0.225875 0.810869
O O17 0.915887 0.915887 0.500000
O O18 0.000000 0.881556 0.500000
#
# Coordination Sequence:
#
# PCOD8319260 Si02
#       7
#    32  32  32  32  32  32  16
#     4  10  19  30  42  59  82 107 133 166 207 245
#     4  10  19  30  45  62  82 110 142 173 206 249
#     4  10  17  24  37  59  83 107 138 168 192 228
#     4   9  17  29  43  61  85 112 139 169 206 243
#     4   8  17  29  40  54  79 110 139 169 205 243
#     4   9  16  25  37  55  80 112 141 164 188 225
#     4  10  20  33  46  58  74  96 128 170 213 251
#
# _framework density 15.008806999999999
#
# number of rings (size 3 to 8) (size 9 to 14) (size 15 to 20)
#    0.000    2.615    0.769    1.846    0.000    8.385 
#    0.000    0.000    0.000    0.000    0.000    0.000 
#    0.000    3.077    0.000    6.769    0.000    0.000 
#
# Total GULP energy -1288409.671540 kJ/mol
# GULP energy per Si atom -12388.554534 kJ/mol
# Density = 1.497465 g / cm^3
# Si number density = 15.008807 Si / 1000 Ang^3
#
#
#
# Elastic Constant Matrix: (Units=GPa)
#
#
# Indices 1 2 3 4 5 6 
#
# 1 60.2172 37.0803 27.5389 0.0000 0.0000 0.0000
# 2 37.0803 60.2178 27.5390 0.0000 0.0000 0.0000
# 3 27.5389 27.5390 96.7715 0.0000 0.0000 0.0000
# 4 0.0000 0.0000 0.0000 14.3467 0.0000 0.0000
# 5 0.0000 0.0000 0.0000 0.0000 14.3466 0.0000
# 6 0.0000 0.0000 0.0000 0.0000 0.0000 11.7263
#
#
#
# Elastic Compliance Matrix: (Units=1/GPa)
#
#
# Indices 1 2 3 4 5 6 
#
# 1 0.027736 -0.015485 -0.003486 0.000000 0.000000 0.000000
# 2 -0.015485 0.027736 -0.003486 0.000000 0.000000 0.000000
# 3 -0.003486 -0.003486 0.012318 0.000000 0.000000 0.000000
# 4 0.000000 0.000000 0.000000 0.069703 0.000000 0.000000
# 5 0.000000 0.000000 0.000000 0.000000 0.069703 0.000000
# 6 0.000000 0.000000 0.000000 0.000000 0.000000 0.085278
#
#
# Mechanical properties :
#
#
# Convention : Reuss Voigt Hill
#
# Bulk Modulus (GPa) = 43.71623 44.61365 44.16494
# Shear Modulus (GPa) = 14.49218 16.42047 15.45633
#
# Velocity S-wave (km/s) = 3.11075 3.31124 3.21256
# Velocity P-wave (km/s) = 6.48788 6.66398 6.57652
#
# Compressibility (1/GPa) = 0.02287480
#
# Stress axis : x y z
#
# Youngs Moduli (GPa) = 36.05420 36.05454 81.18245
#
# Poissons Ratio (x) = 0.55829 0.28304
# Poissons Ratio (y) = 0.55828 0.28304
# Poissons Ratio (z) = 0.12570 0.12570
#
# Static dielectric constant tensor:
#      x y z
#    x 2.791440 0.000000 0.000000 
#    y 0.000000 2.791430 0.000000 
#    z 0.000000 0.000000 2.968010 
# 
# 
# High freq. dielectric constant tensor:
#      x y z
#    x 1.543630 0.000000 0.000000 
#    y 0.000000 1.543630 0.000000 
#    z 0.000000 0.000000 1.586700 
# 
# From -- ./inp_files/9000.got.cif
#   From: 2010.03.12/outbox.cif.g09.slc.cpg/sg139_5_cif.got.tgz:9000.got - 2010.04.08 09:46:31.
