data_PCOD8319742
_publ_section_title
;
Structure prediction by ZEFSAII (Michael W. Deem and Ramdas Pophale) SiO2 
 PCOD8319742
Probable space group: I 4/M M M
;
_chemical_formula_sum "Si O2"
_cell_formula_units_Z 192
_cell_length_a 20.745481
_cell_length_b 20.745481
_cell_length_c 25.414363
_cell_angle_alpha 90.000000
_cell_angle_beta 90.000000
_cell_angle_gamma 90.000000
_cell_volume 10937.706017
_symmetry_space_group_name_H-M "I 4/M M M"
_symmetry_group_IT_number 139
_symmetry_cell_setting 'tetragonal'
loop_
_space_group_symop_operation_xyz
x,y,z
-y,x,z
-x,-y,z
y,-x,z
x,-y,-z
-x,y,-z
y,x,-z
-y,-x,-z
-x,-y,-z
y,-x,-z
x,y,-z
-y,x,-z
-x,y,z
x,-y,z
-y,-x,z
y,x,z
1/2+x,1/2+y,1/2+z
1/2-y,1/2+x,1/2+z
1/2-x,1/2-y,1/2+z
1/2+y,1/2-x,1/2+z
1/2+x,1/2-y,1/2-z
1/2-x,1/2+y,1/2-z
1/2+y,1/2+x,1/2-z
1/2-y,1/2-x,1/2-z
1/2-x,1/2-y,1/2-z
1/2+y,1/2-x,1/2-z
1/2+x,1/2+y,1/2-z
1/2-y,1/2+x,1/2-z
1/2-x,1/2+y,1/2+z
1/2+x,1/2-y,1/2+z
1/2-y,1/2-x,1/2+z
1/2+y,1/2+x,1/2+z
loop_
_atom_site_type_symbol
_atom_site_label
_atom_site_fract_x
_atom_site_fract_y
_atom_site_fract_z
Si Si1 0.777468 0.326282 0.059858
Si Si2 0.426526 0.680519 0.335472
Si Si3 0.751119 0.855723 0.256242
Si Si4 0.424699 0.200878 0.854471
Si Si5 0.075978 0.429672 0.308320
Si Si6 0.618219 0.726248 0.557530
O O1 0.724296 0.275705 0.079983
O O2 0.770780 0.389698 0.094840
O O3 0.848674 0.295774 0.066085
O O4 0.764306 0.346591 0.000000
O O5 0.500000 0.665588 0.318321
O O6 0.385854 0.614147 0.333413
O O7 0.394605 0.734240 0.297557
O O8 0.429305 0.709857 0.394534
O O9 0.811844 0.811844 0.271463
O O10 0.687951 0.812050 0.250000
O O11 0.741229 0.906616 0.302741
O O12 0.500000 0.207790 0.864016
O O13 0.403033 0.125717 0.848816
O O14 0.107627 0.500000 0.321863
O O15 0.095208 0.404793 0.250000
O O16 0.000000 0.438150 0.308866
O O17 0.582719 0.724841 0.500000
O O18 0.675348 0.675348 0.556617
#
# Coordination Sequence:
#
# PCOD8319742 Si02
#       6
#    32  32  32  32  32  32
#     4   9  18  34  53  69  89 120 157 197 243 292
#     4  10  20  33  50  73 102 133 163 198 241 292
#     4  10  20  34  51  70  95 127 164 206 249 288
#     4  11  20  29  47  73  99 125 155 195 240 289
#     4   8  15  28  43  60  88 127 162 184 209 256
#     4   8  15  30  51  70  89 121 165 206 240 274
#
# _framework density 17.553954999999998
#
# number of rings (size 3 to 8) (size 9 to 14) (size 15 to 20)
#    0.000    2.667    0.000    4.000    0.000    3.500 
#    0.000    5.000    0.000    1.500    0.000    4.667 
#    0.000    3.000    0.000    7.333    0.000    0.000 
#
# Total GULP energy -1189810.880498 kJ/mol
# GULP energy per Si atom -12393.863339 kJ/mol
# Density = 1.751400 g / cm^3
# Si number density = 17.553955 Si / 1000 Ang^3
#
#
#
# Elastic Constant Matrix: (Units=GPa)
#
#
# Indices 1 2 3 4 5 6 
#
# 1 82.3315 36.3157 46.9886 0.0000 0.0000 0.0000
# 2 36.3157 82.3319 46.9880 0.0000 0.0000 0.0000
# 3 46.9886 46.9880 94.7436 0.0000 0.0000 0.0000
# 4 0.0000 0.0000 0.0000 19.3331 0.0000 0.0000
# 5 0.0000 0.0000 0.0000 0.0000 19.3322 0.0000
# 6 0.0000 0.0000 0.0000 0.0000 0.0000 17.4960
#
#
#
# Elastic Compliance Matrix: (Units=1/GPa)
#
#
# Indices 1 2 3 4 5 6 
#
# 1 0.017807 -0.003925 -0.006885 0.000000 0.000000 0.000000
# 2 -0.003925 0.017806 -0.006884 0.000000 0.000000 0.000000
# 3 -0.006885 -0.006884 0.017384 0.000000 0.000000 0.000000
# 4 0.000000 0.000000 0.000000 0.051725 0.000000 0.000000
# 5 0.000000 0.000000 0.000000 0.000000 0.051727 0.000000
# 6 0.000000 0.000000 0.000000 0.000000 0.000000 0.057156
#
#
# Mechanical properties :
#
#
# Convention : Reuss Voigt Hill
#
# Bulk Modulus (GPa) = 56.79150 57.77685 57.28418
# Shear Modulus (GPa) = 19.61846 19.83989 19.72917
#
# Velocity S-wave (km/s) = 3.34669 3.36553 3.35612
# Velocity P-wave (km/s) = 6.88161 6.93453 6.90812
#
# Compressibility (1/GPa) = 0.01760827
#
# Stress axis : x y z
#
# Youngs Moduli (GPa) = 56.15899 56.16001 57.52570
#
# Poissons Ratio (x) = 0.22044 0.39604
# Poissons Ratio (y) = 0.22043 0.39602
# Poissons Ratio (z) = 0.38663 0.38662
#
# Static dielectric constant tensor:
#      x y z
#    x 3.176660 0.000000 0.000000 
#    y 0.000000 3.176640 0.000000 
#    z 0.000000 0.000000 3.342560 
# 
# 
# High freq. dielectric constant tensor:
#      x y z
#    x 1.663160 0.000000 0.000000 
#    y 0.000000 1.663160 0.000000 
#    z 0.000000 0.000000 1.674690 
# 
# From -- ./inp_files/11909.got.cif
#   From: 2010.03.12/outbox.cif.g09.slc.cpg/sg139_6_cif.got.tgz:11909.got - 2010.04.08 09:46:31.
