data_PCOD8319197
_publ_section_title
;
Structure prediction by ZEFSAII (Michael W. Deem and Ramdas Pophale) SiO2 
 PCOD8319197
Probable space group: P 42/N C M
;
_chemical_formula_sum "Si O2"
_cell_formula_units_Z 80
_cell_length_a 16.622743
_cell_length_b 16.622743
_cell_length_c 14.855907
_cell_angle_alpha 90.000000
_cell_angle_beta 90.000000
_cell_angle_gamma 90.000000
_cell_volume 4104.918631
_symmetry_space_group_name_H-M "P 42/N C M"
_symmetry_group_IT_number 138
_space_group.IT_coordinate_system_code '2'
_symmetry_cell_setting 'tetragonal'
loop_
_space_group_symop_operation_xyz
x,y,z
1/2-y,x,1/2+z
1/2-x,1/2-y,z
y,1/2-x,1/2+z
1/2+x,-y,1/2-z
-x,1/2+y,1/2-z
1/2+y,1/2+x,-z
-y,-x,-z
-x,-y,-z
1/2+y,-x,1/2-z
1/2+x,1/2+y,-z
-y,1/2+x,1/2-z
1/2-x,y,1/2+z
x,1/2-y,1/2+z
1/2-y,1/2-x,z
y,x,z
loop_
_atom_site_type_symbol
_atom_site_label
_atom_site_fract_x
_atom_site_fract_y
_atom_site_fract_z
Si Si1 0.947558 0.812828 0.649695
Si Si2 0.463710 0.907432 0.413799
Si Si3 0.934191 0.431085 0.780135
Si Si4 0.719704 0.590059 0.973928
Si Si5 0.187474 0.061818 0.694474
O O1 0.872157 0.872157 0.639606
O O2 0.947190 0.750968 0.567158
O O3 0.939201 0.765038 0.742698
O O4 0.032966 0.860789 0.653269
O O5 0.403862 0.903862 0.500000
O O6 0.416234 0.895141 0.319862
O O7 0.529354 0.839114 0.424085
O O8 0.504440 0.995561 0.411715
O O9 0.852826 0.472892 0.816713
O O10 0.006521 0.493480 0.772188
O O11 0.675502 0.675502 0.991802
O O12 0.792500 0.598168 0.903696
O O13 0.121203 0.121203 0.738463
#
# Coordination Sequence:
#
# PCOD8319197 Si02
#       5
#    16  16  16  16  16
#     4  11  22  37  56  82 120 157 190 235 291 351
#     4   9  16  31  55  80 107 141 191 244 278 326
#     4   9  19  36  55  79 112 151 197 241 284 339
#     4  11  22  35  54  86 119 153 192 232 293 359
#     4  11  22  36  57  84 115 153 193 239 292 345
#
# _framework density 19.488814999999999
#
# number of rings (size 3 to 8) (size 9 to 14) (size 15 to 20)
#    0.000    1.800    2.000    3.000    0.000    7.600 
#    0.000    3.000    0.000    0.600    0.000    1.400 
#    0.000    0.000    0.000    0.000    0.000    0.000 
#
# Total GULP energy -991556.993806 kJ/mol
# GULP energy per Si atom -12394.462423 kJ/mol
# Density = 1.944446 g / cm^3
# Si number density = 19.488815 Si / 1000 Ang^3
#
#
#
# Elastic Constant Matrix: (Units=GPa)
#
#
# Indices 1 2 3 4 5 6 
#
# 1 44.6178 40.8655 29.1990 0.0000 0.0000 0.0000
# 2 40.8655 44.6178 29.1990 0.0000 0.0000 0.0000
# 3 29.1990 29.1990 119.4808 0.0000 0.0000 0.0000
# 4 0.0000 0.0000 0.0000 32.0817 0.0000 0.0000
# 5 0.0000 0.0000 0.0000 0.0000 32.0817 0.0000
# 6 0.0000 0.0000 0.0000 0.0000 0.0000 34.4971
#
#
#
# Elastic Compliance Matrix: (Units=1/GPa)
#
#
# Indices 1 2 3 4 5 6 
#
# 1 0.140275 -0.126233 -0.003432 0.000000 0.000000 0.000000
# 2 -0.126233 0.140275 -0.003432 0.000000 0.000000 0.000000
# 3 -0.003432 -0.003432 0.010047 0.000000 0.000000 0.000000
# 4 0.000000 0.000000 0.000000 0.031170 0.000000 0.000000
# 5 0.000000 0.000000 0.000000 0.000000 0.031170 0.000000
# 6 0.000000 0.000000 0.000000 0.000000 0.000000 0.028988
#
#
# Mechanical properties :
#
#
# Convention : Reuss Voigt Hill
#
# Bulk Modulus (GPa) = 40.97518 45.24928 43.11223
# Shear Modulus (GPa) = 7.61900 27.02893 17.32396
#
# Velocity S-wave (km/s) = 1.97937 3.72814 2.98471
# Velocity P-wave (km/s) = 5.12782 6.46533 5.83503
#
# Compressibility (1/GPa) = 0.02440502
#
# Stress axis : x y z
#
# Youngs Moduli (GPa) = 7.12883 7.12883 99.53341
#
# Poissons Ratio (x) = 0.89989 0.34158
# Poissons Ratio (y) = 0.89989 0.34158
# Poissons Ratio (z) = 0.02446 0.02446
#
# Static dielectric constant tensor:
#      x y z
#    x 3.462680 0.000000 0.000000 
#    y 0.000000 3.462680 0.000000 
#    z 0.000000 0.000000 3.633520 
# 
# 
# High freq. dielectric constant tensor:
#      x y z
#    x 1.736760 0.000000 0.000000 
#    y 0.000000 1.736760 0.000000 
#    z 0.000000 0.000000 1.767570 
# 
# From -- ./inp_files/4069.got.cif
#   From: 2010.03.12/outbox.cif.g09.slc.cpg/sg138_3_cif.got.tgz:4069.got - 2010.04.08 09:41:05.
