data_PCOD8319138
_publ_section_title
;
Structure prediction by ZEFSAII (Michael W. Deem and Ramdas Pophale) SiO2 
 PCOD8319138
Probable space group: P 42/N C M
;
_chemical_formula_sum "Si O2"
_cell_formula_units_Z 88
_cell_length_a 11.119443
_cell_length_b 11.119443
_cell_length_c 33.806635
_cell_angle_alpha 90.000000
_cell_angle_beta 90.000000
_cell_angle_gamma 90.000000
_cell_volume 4179.920392
_symmetry_space_group_name_H-M "P 42/N C M"
_symmetry_group_IT_number 138
_space_group.IT_coordinate_system_code '2'
_symmetry_cell_setting 'tetragonal'
loop_
_space_group_symop_operation_xyz
x,y,z
1/2-y,x,1/2+z
1/2-x,1/2-y,z
y,1/2-x,1/2+z
1/2+x,-y,1/2-z
-x,1/2+y,1/2-z
1/2+y,1/2+x,-z
-y,-x,-z
-x,-y,-z
1/2+y,-x,1/2-z
1/2+x,1/2+y,-z
-y,1/2+x,1/2-z
1/2-x,y,1/2+z
x,1/2-y,1/2+z
1/2-y,1/2-x,z
y,x,z
loop_
_atom_site_type_symbol
_atom_site_label
_atom_site_fract_x
_atom_site_fract_y
_atom_site_fract_z
Si Si1 0.848046 0.651955 0.523655
Si Si2 0.790989 0.385662 0.399536
Si Si3 0.851207 0.648794 0.691497
Si Si4 0.515550 0.312987 0.521071
Si Si5 0.249210 0.058080 0.167451
Si Si6 0.945842 0.275419 0.250613
Si Si7 0.428108 0.428108 0.894839
O O1 0.750000 0.750000 0.512963
O O2 0.802855 0.527127 0.504240
O O3 0.858719 0.641282 0.570555
O O4 0.750000 0.250000 0.401976
O O5 0.731012 0.458905 0.434907
O O6 0.742021 0.437417 0.358054
O O7 0.933047 0.398704 0.400531
O O8 0.750000 0.750000 0.695935
O O9 0.805890 0.524967 0.711066
O O10 0.877403 0.622598 0.645980
O O11 0.635041 0.364960 0.500000
O O12 0.415300 0.415300 0.523494
O O13 0.351623 0.148378 0.152754
O O14 0.118442 0.118442 0.160806
O O15 0.267184 0.032995 0.213437
O O16 0.880888 0.149013 0.257688
#
# Coordination Sequence:
#
# PCOD8319138 Si02
#       7
#     8  16   8  16  16  16   8
#     4  10  22  41  68  94 132 180 227 275 339 409
#     4  12  26  42  67  99 138 177 227 288 352 409
#     4  12  27  47  73 100 139 183 231 283 354 421
#     4  10  22  43  68  98 133 180 233 285 345 415
#     4  11  24  44  68  96 130 174 230 284 340 403
#     4  11  26  45  72 102 135 176 225 284 347 416
#     4  12  26  44  64 101 142 180 230 286 347 426
#
# _framework density 21.053032000000002
#
# number of rings (size 3 to 8) (size 9 to 14) (size 15 to 20)
#    0.000    0.909    1.818    4.091    7.636    3.273 
#    0.000    1.818    0.000    0.000    0.000    0.000 
#    0.000    0.000    0.000    0.000    0.000    0.000 
#
# Total GULP energy -1091681.609749 kJ/mol
# GULP energy per Si atom -12405.472838 kJ/mol
# Density = 2.100511 g / cm^3
# Si number density = 21.053032 Si / 1000 Ang^3
#
#
#
# Elastic Constant Matrix: (Units=GPa)
#
#
# Indices 1 2 3 4 5 6 
#
# 1 101.5196 59.8384 34.4330 0.0000 0.0000 0.0000
# 2 59.8384 101.5203 34.4333 0.0000 0.0000 0.0000
# 3 34.4330 34.4333 129.7910 0.0000 0.0000 0.0000
# 4 0.0000 0.0000 0.0000 39.2073 0.0000 0.0000
# 5 0.0000 0.0000 0.0000 0.0000 39.2072 0.0000
# 6 0.0000 0.0000 0.0000 0.0000 0.0000 33.9470
#
#
#
# Elastic Compliance Matrix: (Units=1/GPa)
#
#
# Indices 1 2 3 4 5 6 
#
# 1 0.015490 -0.008501 -0.001854 0.000000 0.000000 0.000000
# 2 -0.008501 0.015490 -0.001854 0.000000 0.000000 0.000000
# 3 -0.001854 -0.001854 0.008688 0.000000 0.000000 0.000000
# 4 0.000000 0.000000 0.000000 0.025505 0.000000 0.000000
# 5 0.000000 0.000000 0.000000 0.000000 0.025506 0.000000
# 6 0.000000 0.000000 0.000000 0.000000 0.000000 0.029458
#
#
# Mechanical properties :
#
#
# Convention : Reuss Voigt Hill
#
# Bulk Modulus (GPa) = 65.57582 65.58226 65.57904
# Shear Modulus (GPa) = 33.41364 36.08072 34.74718
#
# Velocity S-wave (km/s) = 3.98819 4.14430 4.06699
# Velocity P-wave (km/s) = 7.24038 7.35656 7.29870
#
# Compressibility (1/GPa) = 0.01524952
#
# Stress axis : x y z
#
# Youngs Moduli (GPa) = 64.55729 64.55764 115.09528
#
# Poissons Ratio (x) = 0.54883 0.21339
# Poissons Ratio (y) = 0.54883 0.21340
# Poissons Ratio (z) = 0.11969 0.11970
#
# Static dielectric constant tensor:
#      x y z
#    x 3.965460 0.000000 0.000000 
#    y 0.000000 3.965450 0.000000 
#    z 0.000000 0.000000 3.874780 
# 
# 
# High freq. dielectric constant tensor:
#      x y z
#    x 1.835600 0.000000 0.000000 
#    y 0.000000 1.835600 0.000000 
#    z 0.000000 0.000000 1.835570 
# 
# From -- ./inp_files/8128.got.cif
#   From: 2010.03.12/outbox.cif.g09.slc.cpg/sg138_5_cif.got.tgz:8128.got - 2010.04.08 09:41:05.
