data_PCOD8319803
_publ_section_title
;
Structure prediction by ZEFSAII (Michael W. Deem and Ramdas Pophale) SiO2 
 PCOD8319803
Probable space group: I 4/M M M
;
_chemical_formula_sum "Si O2"
_cell_formula_units_Z 160
_cell_length_a 21.596846
_cell_length_b 21.596846
_cell_length_c 17.807075
_cell_angle_alpha 90.000000
_cell_angle_beta 90.000000
_cell_angle_gamma 90.000000
_cell_volume 8305.642825
_symmetry_space_group_name_H-M "I 4/M M M"
_symmetry_group_IT_number 139
_symmetry_cell_setting 'tetragonal'
loop_
_space_group_symop_operation_xyz
x,y,z
-y,x,z
-x,-y,z
y,-x,z
x,-y,-z
-x,y,-z
y,x,-z
-y,-x,-z
-x,-y,-z
y,-x,-z
x,y,-z
-y,x,-z
-x,y,z
x,-y,z
-y,-x,z
y,x,z
1/2+x,1/2+y,1/2+z
1/2-y,1/2+x,1/2+z
1/2-x,1/2-y,1/2+z
1/2+y,1/2-x,1/2+z
1/2+x,1/2-y,1/2-z
1/2-x,1/2+y,1/2-z
1/2+y,1/2+x,1/2-z
1/2-y,1/2-x,1/2-z
1/2-x,1/2-y,1/2-z
1/2+y,1/2-x,1/2-z
1/2+x,1/2+y,1/2-z
1/2-y,1/2+x,1/2-z
1/2-x,1/2+y,1/2+z
1/2+x,1/2-y,1/2+z
1/2-y,1/2-x,1/2+z
1/2+y,1/2+x,1/2+z
loop_
_atom_site_type_symbol
_atom_site_label
_atom_site_fract_x
_atom_site_fract_y
_atom_site_fract_z
Si Si1 0.163632 0.931622 0.588069
Si Si2 0.127447 0.293109 0.412391
Si Si3 0.665836 0.568534 0.588631
Si Si4 0.161883 0.429056 0.226226
Si Si5 0.756193 0.344008 0.669190
O O1 0.155555 0.940152 0.500000
O O2 0.103230 0.896770 0.621603
O O3 0.221953 0.888212 0.604359
O O4 0.170377 0.000000 0.625539
O O5 0.119974 0.310035 0.500000
O O6 0.077924 0.332987 0.364014
O O7 0.196438 0.307518 0.384385
O O8 0.671600 0.565762 0.500000
O O9 0.663790 0.500000 0.623677
O O10 0.603169 0.603169 0.613540
O O11 0.725446 0.604030 0.618095
O O12 0.172738 0.500000 0.251259
O O13 0.092845 0.407156 0.250000
O O14 0.211255 0.380530 0.262452
O O15 0.705475 0.294526 0.700461
#
# Coordination Sequence:
#
# PCOD8319803 Si02
#       5
#    32  32  32  32  32
#     4   9  17  28  43  65  94 129 167 206 249 298
#     4  10  20  34  54  80 108 135 169 217 271 323
#     4   9  17  29  47  72 102 137 174 211 254 306
#     4  10  22  38  57  80 106 140 180 221 268 320
#     4  10  20  34  53  78 108 139 174 218 269 324
#
# _framework density 19.264011
#
# number of rings (size 3 to 8) (size 9 to 14) (size 15 to 20)
#    0.000    2.400    0.000    2.400    0.000    8.200 
#    0.000    2.000    0.000    5.400    0.000    5.600 
#    0.000    4.800    0.000    0.200    0.000    0.000 
#
# Total GULP energy -991437.834868 kJ/mol
# GULP energy per Si atom -12392.972936 kJ/mol
# Density = 1.922017 g / cm^3
# Si number density = 19.264011 Si / 1000 Ang^3
#
#
#
# Elastic Constant Matrix: (Units=GPa)
#
#
# Indices 1 2 3 4 5 6 
#
# 1 139.3246 84.7960 42.7007 0.0000 0.0000 0.0000
# 2 84.7960 139.3218 42.7005 0.0000 0.0000 0.0000
# 3 42.7007 42.7005 64.0788 0.0000 0.0000 0.0000
# 4 0.0000 0.0000 0.0000 16.8438 0.0000 0.0000
# 5 0.0000 0.0000 0.0000 0.0000 16.8443 0.0000
# 6 0.0000 0.0000 0.0000 0.0000 0.0000 16.5802
#
#
#
# Elastic Compliance Matrix: (Units=1/GPa)
#
#
# Indices 1 2 3 4 5 6 
#
# 1 0.012160 -0.006179 -0.003985 0.000000 0.000000 0.000000
# 2 -0.006179 0.012160 -0.003985 0.000000 0.000000 0.000000
# 3 -0.003985 -0.003985 0.020917 0.000000 0.000000 0.000000
# 4 0.000000 0.000000 0.000000 0.059369 0.000000 0.000000
# 5 0.000000 0.000000 0.000000 0.000000 0.059367 0.000000
# 6 0.000000 0.000000 0.000000 0.000000 0.000000 0.060313
#
#
# Mechanical properties :
#
#
# Convention : Reuss Voigt Hill
#
# Bulk Modulus (GPa) = 59.04196 75.90216 67.47206
# Shear Modulus (GPa) = 19.36242 21.55553 20.45898
#
# Velocity S-wave (km/s) = 3.17378 3.34870 3.26242
# Velocity P-wave (km/s) = 6.64424 7.37823 7.02083
#
# Compressibility (1/GPa) = 0.01693711
#
# Stress axis : x y z
#
# Youngs Moduli (GPa) = 82.23789 82.23606 47.80764
#
# Poissons Ratio (x) = 0.50818 0.19052
# Poissons Ratio (y) = 0.50819 0.19053
# Poissons Ratio (z) = 0.32773 0.32774
#
# Static dielectric constant tensor:
#      x y z
#    x 3.723270 0.000000 0.000000 
#    y 0.000000 3.723280 0.000000 
#    z 0.000000 0.000000 3.419820 
# 
# 
# High freq. dielectric constant tensor:
#      x y z
#    x 1.750130 0.000000 0.000000 
#    y 0.000000 1.750130 0.000000 
#    z 0.000000 0.000000 1.731330 
# 
# From -- ./inp_files/8376.got.cif
#   From: 2010.03.12/outbox.cif.g09.slc.cpg/sg139_5_cif.got.tgz:8376.got - 2010.04.08 09:46:31.
