data_PCOD8319233
_publ_section_title
;
Structure prediction by ZEFSAII (Michael W. Deem and Ramdas Pophale) SiO2 
 PCOD8319233
Probable space group: P 42/N C M
;
_chemical_formula_sum "Si O2"
_cell_formula_units_Z 96
_cell_length_a 13.734222
_cell_length_b 13.734222
_cell_length_c 31.598504
_cell_angle_alpha 90.000000
_cell_angle_beta 90.000000
_cell_angle_gamma 90.000000
_cell_volume 5960.389596
_symmetry_space_group_name_H-M "P 42/N C M"
_symmetry_group_IT_number 138
_space_group.IT_coordinate_system_code '2'
_symmetry_cell_setting 'tetragonal'
loop_
_space_group_symop_operation_xyz
x,y,z
1/2-y,x,1/2+z
1/2-x,1/2-y,z
y,1/2-x,1/2+z
1/2+x,-y,1/2-z
-x,1/2+y,1/2-z
1/2+y,1/2+x,-z
-y,-x,-z
-x,-y,-z
1/2+y,-x,1/2-z
1/2+x,1/2+y,-z
-y,1/2+x,1/2-z
1/2-x,y,1/2+z
x,1/2-y,1/2+z
1/2-y,1/2-x,z
y,x,z
loop_
_atom_site_type_symbol
_atom_site_label
_atom_site_fract_x
_atom_site_fract_y
_atom_site_fract_z
Si Si1 0.667642 0.667642 0.042950
Si Si2 0.951671 0.795725 0.694171
Si Si3 0.476422 0.187410 0.988342
Si Si4 0.331489 0.168512 0.362728
Si Si5 0.101473 0.938063 0.566542
Si Si6 0.767809 0.097255 0.260845
Si Si7 0.553030 0.395351 0.661123
O O1 0.750000 0.750000 0.043207
O O2 0.706893 0.571045 0.019357
O O3 0.637169 0.637169 0.090320
O O4 0.856699 0.856699 0.708699
O O5 0.924415 0.710121 0.661888
O O6 0.997875 0.745982 0.735260
O O7 0.026433 0.864134 0.670013
O O8 0.394557 0.105444 0.986633
O O9 0.555858 0.162491 0.951832
O O10 0.526222 0.186444 0.034705
O O11 0.250000 0.250000 0.366551
O O12 0.145076 0.927551 0.613708
O O13 0.015811 0.015811 0.568937
O O14 0.845882 0.165116 0.236153
O O15 0.804585 0.065529 0.307190
O O16 0.446891 0.446891 0.666179
#
# Coordination Sequence:
#
# PCOD8319233 Si02
#       7
#     8  16  16   8  16  16  16
#     4   9  14  20  32  54  83 113 135 162 214 254
#     4   9  17  28  42  62  84 110 139 176 217 258
#     4   8  13  20  33  52  79 112 140 173 206 247
#     4   9  16  24  38  62  91 113 134 175 218 260
#     4   8  13  22  35  54  78 107 142 172 205 245
#     4   9  18  31  45  62  85 111 142 178 216 251
#     4   9  16  26  43  62  84 114 146 176 210 257
#
# _framework density 16.106328999999999
#
# number of rings (size 3 to 8) (size 9 to 14) (size 15 to 20)
#    0.000    3.333    0.000    2.000    1.167    4.000 
#    0.000    0.000    1.833    0.000    0.000    0.000 
#    0.000   66.667    0.000    0.667    0.000    0.000 
#
# Total GULP energy -1189752.886593 kJ/mol
# GULP energy per Si atom -12393.259235 kJ/mol
# Density = 1.606967 g / cm^3
# Si number density = 16.106329 Si / 1000 Ang^3
#
#
#
# Elastic Constant Matrix: (Units=GPa)
#
#
# Indices 1 2 3 4 5 6 
#
# 1 53.3646 33.7284 52.5018 0.0000 0.0000 0.0000
# 2 33.7284 53.3646 52.5018 0.0000 0.0000 0.0000
# 3 52.5018 52.5018 156.5357 0.0000 0.0000 0.0000
# 4 0.0000 0.0000 0.0000 12.7992 0.0000 0.0000
# 5 0.0000 0.0000 0.0000 0.0000 12.7992 0.0000
# 6 0.0000 0.0000 0.0000 0.0000 0.0000 20.3982
#
#
#
# Elastic Compliance Matrix: (Units=1/GPa)
#
#
# Indices 1 2 3 4 5 6 
#
# 1 0.035102 -0.015825 -0.006466 0.000000 0.000000 0.000000
# 2 -0.015825 0.035102 -0.006466 0.000000 0.000000 0.000000
# 3 -0.006466 -0.006466 0.010725 0.000000 0.000000 0.000000
# 4 0.000000 0.000000 0.000000 0.078130 0.000000 0.000000
# 5 0.000000 0.000000 0.000000 0.000000 0.078130 0.000000
# 6 0.000000 0.000000 0.000000 0.000000 0.000000 0.049024
#
#
# Mechanical properties :
#
#
# Convention : Reuss Voigt Hill
#
# Bulk Modulus (GPa) = 42.70299 60.08095 51.39197
# Shear Modulus (GPa) = 14.22355 17.50152 15.86253
#
# Velocity S-wave (km/s) = 2.97493 3.29997 3.14166
# Velocity P-wave (km/s) = 6.19443 7.20440 6.71842
#
# Compressibility (1/GPa) = 0.02341756
#
# Stress axis : x y z
#
# Youngs Moduli (GPa) = 28.48865 28.48865 93.23700
#
# Poissons Ratio (x) = 0.45082 0.60282
# Poissons Ratio (y) = 0.45082 0.60282
# Poissons Ratio (z) = 0.18419 0.18419
#
# Static dielectric constant tensor:
#      x y z
#    x 2.903510 0.000000 0.000000 
#    y 0.000000 2.903510 0.000000 
#    z 0.000000 0.000000 3.235590 
# 
# 
# High freq. dielectric constant tensor:
#      x y z
#    x 1.588150 0.000000 0.000000 
#    y 0.000000 1.588150 0.000000 
#    z 0.000000 0.000000 1.622260 
# 
# From -- ./inp_files/8218.got.cif
#   From: 2010.03.12/outbox.cif.g09.slc.cpg/sg138_5_cif.got.tgz:8218.got - 2010.04.08 09:41:05.
