data_PCOD8319524
_publ_section_title
;
Structure prediction by ZEFSAII (Michael W. Deem and Ramdas Pophale) SiO2 
 PCOD8319524
Probable space group: I 4/M M M
;
_chemical_formula_sum "Si O2"
_cell_formula_units_Z 160
_cell_length_a 32.378778
_cell_length_b 32.378778
_cell_length_c 8.855304
_cell_angle_alpha 90.000000
_cell_angle_beta 90.000000
_cell_angle_gamma 90.000000
_cell_volume 9283.770229
_symmetry_space_group_name_H-M "I 4/M M M"
_symmetry_group_IT_number 139
_symmetry_cell_setting 'tetragonal'
loop_
_space_group_symop_operation_xyz
x,y,z
-y,x,z
-x,-y,z
y,-x,z
x,-y,-z
-x,y,-z
y,x,-z
-y,-x,-z
-x,-y,-z
y,-x,-z
x,y,-z
-y,x,-z
-x,y,z
x,-y,z
-y,-x,z
y,x,z
1/2+x,1/2+y,1/2+z
1/2-y,1/2+x,1/2+z
1/2-x,1/2-y,1/2+z
1/2+y,1/2-x,1/2+z
1/2+x,1/2-y,1/2-z
1/2-x,1/2+y,1/2-z
1/2+y,1/2+x,1/2-z
1/2-y,1/2-x,1/2-z
1/2-x,1/2-y,1/2-z
1/2+y,1/2-x,1/2-z
1/2+x,1/2+y,1/2-z
1/2-y,1/2+x,1/2-z
1/2-x,1/2+y,1/2+z
1/2+x,1/2-y,1/2+z
1/2-y,1/2-x,1/2+z
1/2+y,1/2+x,1/2+z
loop_
_atom_site_type_symbol
_atom_site_label
_atom_site_fract_x
_atom_site_fract_y
_atom_site_fract_z
Si Si1 0.244452 0.910117 0.327897
Si Si2 0.500000 0.349770 0.328189
Si Si3 0.000000 0.231123 0.333062
Si Si4 0.174192 0.386407 0.322357
Si Si5 0.411118 0.655723 0.319701
Si Si6 0.046991 0.608093 0.178266
O O1 0.243897 0.894366 0.500000
O O2 0.278903 0.886120 0.234771
O O3 0.199444 0.902033 0.257541
O O4 0.257813 0.958452 0.318932
O O5 0.500000 0.363120 0.500000
O O6 0.500000 0.300519 0.305997
O O7 0.544625 0.363938 0.260649
O O8 0.000000 0.208935 0.500000
O O9 0.174251 0.381348 0.500000
O O10 0.153557 0.346444 0.250000
O O11 0.148971 0.427493 0.272643
O O12 0.412635 0.661975 0.500000
O O13 0.375576 0.624425 0.269365
O O14 0.067367 0.567367 0.250000
O O15 0.000000 0.612692 0.236961
O O16 0.048197 0.602438 0.000000
#
# Coordination Sequence:
#
# PCOD8319524 Si02
#       6
#    32  16  16  32  32  32
#     4  10  19  31  48  72  99 126 159 198 244 293
#     4   8  14  26  44  67  96 130 164 197 233 274
#     4   8  16  28  42  66  97 123 150 191 238 288
#     4  10  20  34  51  69  94 126 161 201 246 297
#     4   9  17  30  49  73 101 133 168 203 239 281
#     4   9  19  34  49  68  93 123 161 202 245 294
#
# _framework density 17.234378
#
# number of rings (size 3 to 8) (size 9 to 14) (size 15 to 20)
#    0.000    2.800    0.000    1.200    1.400    2.600 
#    0.000    1.000    0.000    0.900    0.000    2.100 
#    0.000    0.000    0.000   14.700    0.000   10.200 
#
# Total GULP energy -991103.931535 kJ/mol
# GULP energy per Si atom -12388.799144 kJ/mol
# Density = 1.719515 g / cm^3
# Si number density = 17.234378 Si / 1000 Ang^3
#
#
#
# Elastic Constant Matrix: (Units=GPa)
#
#
# Indices 1 2 3 4 5 6 
#
# 1 80.5602 102.3150 35.2696 0.0000 0.0000 0.0000
# 2 102.3150 80.6174 35.2191 0.0000 0.0000 0.0000
# 3 35.2696 35.2191 50.5574 0.0000 0.0000 0.0000
# 4 0.0000 0.0000 0.0000 21.7194 0.0000 0.0000
# 5 0.0000 0.0000 0.0000 0.0000 21.7191 0.0000
# 6 0.0000 0.0000 0.0000 0.0000 0.0000 19.7797
#
#
#
# Elastic Compliance Matrix: (Units=1/GPa)
#
#
# Indices 1 2 3 4 5 6 
#
# 1 -0.019298 0.026751 -0.005173 0.000000 0.000000 0.000000
# 2 0.026751 -0.019254 -0.005250 0.000000 0.000000 0.000000
# 3 -0.005173 -0.005250 0.027045 0.000000 0.000000 0.000000
# 4 0.000000 0.000000 0.000000 0.046042 0.000000 0.000000
# 5 0.000000 0.000000 0.000000 0.000000 0.046042 0.000000
# 6 0.000000 0.000000 0.000000 0.000000 0.000000 0.050557
#
#
# Mechanical properties :
#
#
# Convention : Reuss Voigt Hill
#
# Bulk Modulus (GPa) = 47.27879 61.92695 54.60287
# Shear Modulus (GPa) = 47.38045 15.23904 31.30974
#
# Velocity S-wave (km/s) = 5.24895 2.97682 4.26690
# Velocity P-wave (km/s) = 8.01422 6.91560 7.48509
#
# Compressibility (1/GPa) = 0.02115113
#
# Stress axis : x y z
#
# Youngs Moduli (GPa) = -51.81982 -51.93803 36.97475
#
# Poissons Ratio (x) = 1.38942 0.19128
# Poissons Ratio (y) = 1.38626 0.19411
# Poissons Ratio (z) = -0.26807 -0.27266
#
# Static dielectric constant tensor:
#      x y z
#    x 3.024290 0.000000 0.000000 
#    y 0.000000 3.024330 0.000000 
#    z 0.000000 0.000000 3.203170 
# 
# 
# High freq. dielectric constant tensor:
#      x y z
#    x 1.648780 0.000000 0.000000 
#    y 0.000000 1.648780 0.000000 
#    z 0.000000 0.000000 1.666410 
# 
# From -- ./inp_files/2170.got.cif
#   From: 2010.03.12/outbox.cif.g09.slc.cpg/sg139_2_cif.got.tgz:2170.got - 2010.04.08 09:46:31.
