data_PCOD8319829
_publ_section_title
;
Structure prediction by ZEFSAII (Michael W. Deem and Ramdas Pophale) SiO2 
 PCOD8319829
Probable space group: I 4/M M M
;
_chemical_formula_sum "Si O2"
_cell_formula_units_Z 176
_cell_length_a 23.069088
_cell_length_b 23.069088
_cell_length_c 17.616569
_cell_angle_alpha 90.000000
_cell_angle_beta 90.000000
_cell_angle_gamma 90.000000
_cell_volume 9375.235389
_symmetry_space_group_name_H-M "I 4/M M M"
_symmetry_group_IT_number 139
_symmetry_cell_setting 'tetragonal'
loop_
_space_group_symop_operation_xyz
x,y,z
-y,x,z
-x,-y,z
y,-x,z
x,-y,-z
-x,y,-z
y,x,-z
-y,-x,-z
-x,-y,-z
y,-x,-z
x,y,-z
-y,x,-z
-x,y,z
x,-y,z
-y,-x,z
y,x,z
1/2+x,1/2+y,1/2+z
1/2-y,1/2+x,1/2+z
1/2-x,1/2-y,1/2+z
1/2+y,1/2-x,1/2+z
1/2+x,1/2-y,1/2-z
1/2-x,1/2+y,1/2-z
1/2+y,1/2+x,1/2-z
1/2-y,1/2-x,1/2-z
1/2-x,1/2-y,1/2-z
1/2+y,1/2-x,1/2-z
1/2+x,1/2+y,1/2-z
1/2-y,1/2+x,1/2-z
1/2-x,1/2+y,1/2+z
1/2+x,1/2-y,1/2+z
1/2-y,1/2-x,1/2+z
1/2+y,1/2+x,1/2+z
loop_
_atom_site_type_symbol
_atom_site_label
_atom_site_fract_x
_atom_site_fract_y
_atom_site_fract_z
Si Si1 0.734757 0.432725 0.644490
Si Si2 0.066577 0.159559 0.000000
Si Si3 0.137669 0.339315 0.911595
Si Si4 0.566190 0.067429 0.663765
Si Si5 0.136757 0.231706 0.413160
Si Si6 0.336455 0.567595 0.795040
O O1 0.753937 0.500000 0.642262
O O2 0.695689 0.415928 0.573374
O O3 0.791383 0.392586 0.641501
O O4 0.698409 0.417998 0.718949
O O5 0.099252 0.099252 0.000000
O O6 0.000000 0.142410 0.000000
O O7 0.106355 0.400053 0.896279
O O8 0.204095 0.346169 0.886532
O O9 0.131665 0.322564 0.000000
O O10 0.500000 0.085187 0.648645
O O11 0.583540 0.083540 0.750000
O O12 0.575578 0.000000 0.649293
O O13 0.115535 0.231620 0.500000
O O14 0.194115 0.194115 0.401159
O O15 0.084088 0.205564 0.364558
O O16 0.353065 0.500000 0.800487
O O17 0.395964 0.604037 0.797039
#
# Coordination Sequence:
#
# PCOD8319829 Si02
#       6
#    32  16  32  32  32  32
#     4  10  21  36  54  83 117 150 191 241 288 330
#     4  10  20  35  54  78 113 151 191 241 292 342
#     4  11  22  36  57  85 111 151 199 235 278 337
#     4   9  20  37  55  78 111 149 188 235 286 332
#     4   9  21  40  58  82 116 148 182 229 285 338
#     4  10  22  40  62  87 115 148 187 234 289 348
#
# _framework density 18.772860999999999
#
# number of rings (size 3 to 8) (size 9 to 14) (size 15 to 20)
#    0.000    2.182    0.909    1.636    2.545    4.273 
#    0.000    4.545    0.000    3.273    0.000    2.545 
#    0.000    0.000    0.000    0.000    0.000    0.000 
#
# Total GULP energy -1091483.525599 kJ/mol
# GULP energy per Si atom -12403.221882 kJ/mol
# Density = 1.873013 g / cm^3
# Si number density = 18.772861 Si / 1000 Ang^3
#
#
#
# Elastic Constant Matrix: (Units=GPa)
#
#
# Indices 1 2 3 4 5 6 
#
# 1 105.4060 64.7051 53.7797 0.0000 0.0000 0.0000
# 2 64.7051 105.4060 53.7797 0.0000 0.0000 0.0000
# 3 53.7797 53.7797 88.5784 0.0000 0.0000 0.0000
# 4 0.0000 0.0000 0.0000 26.7129 0.0000 0.0000
# 5 0.0000 0.0000 0.0000 0.0000 26.7129 0.0000
# 6 0.0000 0.0000 0.0000 0.0000 0.0000 25.8102
#
#
#
# Elastic Compliance Matrix: (Units=1/GPa)
#
#
# Indices 1 2 3 4 5 6 
#
# 1 0.017055 -0.007514 -0.005793 0.000000 0.000000 0.000000
# 2 -0.007514 0.017055 -0.005793 0.000000 0.000000 0.000000
# 3 -0.005793 -0.005793 0.018324 0.000000 0.000000 0.000000
# 4 0.000000 0.000000 0.000000 0.037435 0.000000 0.000000
# 5 0.000000 0.000000 0.000000 0.000000 0.037435 0.000000
# 6 0.000000 0.000000 0.000000 0.000000 0.000000 0.038744
#
#
# Mechanical properties :
#
#
# Convention : Reuss Voigt Hill
#
# Bulk Modulus (GPa) = 70.25137 71.54658 70.89898
# Shear Modulus (GPa) = 23.92413 24.32225 24.12319
#
# Velocity S-wave (km/s) = 3.57375 3.60336 3.58858
# Velocity P-wave (km/s) = 7.38457 7.45028 7.41750
#
# Compressibility (1/GPa) = 0.01423460
#
# Stress axis : x y z
#
# Youngs Moduli (GPa) = 58.63241 58.63241 54.57405
#
# Poissons Ratio (x) = 0.44057 0.31614
# Poissons Ratio (y) = 0.44057 0.31614
# Poissons Ratio (z) = 0.33965 0.33965
#
# Static dielectric constant tensor:
#      x y z
#    x 3.368770 0.000000 0.000000 
#    y 0.000000 3.368770 0.000000 
#    z 0.000000 0.000000 3.516050 
# 
# 
# High freq. dielectric constant tensor:
#      x y z
#    x 1.729470 0.000000 0.000000 
#    y 0.000000 1.729470 0.000000 
#    z 0.000000 0.000000 1.733560 
# 
# From -- ./inp_files/6127.got.cif
#   From: 2010.03.12/outbox.cif.g09.slc.cpg/sg139_4_cif.got.tgz:6127.got - 2010.04.08 09:46:31.
