data_PCOD8319708
_publ_section_title
;
Structure prediction by ZEFSAII (Michael W. Deem and Ramdas Pophale) SiO2 
 PCOD8319708
Probable space group: I 4/M M M
;
_chemical_formula_sum "Si O2"
_cell_formula_units_Z 160
_cell_length_a 18.161285
_cell_length_b 18.161285
_cell_length_c 27.856949
_cell_angle_alpha 90.000000
_cell_angle_beta 90.000000
_cell_angle_gamma 90.000000
_cell_volume 9188.120803
_symmetry_space_group_name_H-M "I 4/M M M"
_symmetry_group_IT_number 139
_symmetry_cell_setting 'tetragonal'
loop_
_space_group_symop_operation_xyz
x,y,z
-y,x,z
-x,-y,z
y,-x,z
x,-y,-z
-x,y,-z
y,x,-z
-y,-x,-z
-x,-y,-z
y,-x,-z
x,y,-z
-y,x,-z
-x,y,z
x,-y,z
-y,-x,z
y,x,z
1/2+x,1/2+y,1/2+z
1/2-y,1/2+x,1/2+z
1/2-x,1/2-y,1/2+z
1/2+y,1/2-x,1/2+z
1/2+x,1/2-y,1/2-z
1/2-x,1/2+y,1/2-z
1/2+y,1/2+x,1/2-z
1/2-y,1/2-x,1/2-z
1/2-x,1/2-y,1/2-z
1/2+y,1/2-x,1/2-z
1/2+x,1/2+y,1/2-z
1/2-y,1/2+x,1/2-z
1/2-x,1/2+y,1/2+z
1/2+x,1/2-y,1/2+z
1/2-y,1/2-x,1/2+z
1/2+y,1/2+x,1/2+z
loop_
_atom_site_type_symbol
_atom_site_label
_atom_site_fract_x
_atom_site_fract_y
_atom_site_fract_z
Si Si1 0.685837 0.193958 0.054411
Si Si2 0.314939 0.915700 0.357445
Si Si3 0.203838 0.915231 0.094606
Si Si4 0.416100 0.203878 0.312392
Si Si5 0.203901 0.083675 0.723271
O O1 0.736165 0.263836 0.067865
O O2 0.615307 0.194107 0.088923
O O3 0.734278 0.120047 0.060118
O O4 0.656825 0.198350 0.000000
O O5 0.372988 0.869240 0.326856
O O6 0.237119 0.910505 0.330100
O O7 0.342342 0.000000 0.360615
O O8 0.125964 0.874037 0.088608
O O9 0.231133 0.905946 0.149047
O O10 0.192824 0.000000 0.079890
O O11 0.500000 0.178431 0.308180
O O12 0.387296 0.235991 0.261809
O O13 0.130090 0.130090 0.726053
O O14 0.182458 0.000000 0.736175
#
# Coordination Sequence:
#
# PCOD8319708 Si02
#       5
#    32  32  32  32  32
#     4   9  18  33  51  68  90 124 161 197 242 292
#     4  10  20  32  49  74  98 122 157 199 241 285
#     4   9  17  29  46  69  96 126 161 198 236 281
#     4   9  18  32  48  68  97 131 163 194 230 275
#     4  10  20  33  50  73 100 129 161 195 231 274
#
# _framework density 17.413789000000001
#
# number of rings (size 3 to 8) (size 9 to 14) (size 15 to 20)
#    0.000    2.600    0.000    1.800    0.000    4.800 
#    0.000    0.000    0.000    7.200    0.000    8.400 
#    0.000    0.000    0.000   18.600    0.000    0.000 
#
# Total GULP energy -992016.069548 kJ/mol
# GULP energy per Si atom -12400.200869 kJ/mol
# Density = 1.737415 g / cm^3
# Si number density = 17.413789 Si / 1000 Ang^3
#
#
#
# Elastic Constant Matrix: (Units=GPa)
#
#
# Indices 1 2 3 4 5 6 
#
# 1 108.2167 57.5373 43.2554 0.0000 0.0000 0.0000
# 2 57.5373 108.2167 43.2554 0.0000 0.0000 0.0000
# 3 43.2554 43.2554 94.8711 0.0000 0.0000 0.0000
# 4 0.0000 0.0000 0.0000 20.8861 0.0000 0.0000
# 5 0.0000 0.0000 0.0000 0.0000 20.8861 0.0000
# 6 0.0000 0.0000 0.0000 0.0000 0.0000 23.0614
#
#
#
# Elastic Compliance Matrix: (Units=1/GPa)
#
#
# Indices 1 2 3 4 5 6 
#
# 1 0.013824 -0.005907 -0.003610 0.000000 0.000000 0.000000
# 2 -0.005907 0.013824 -0.003610 0.000000 0.000000 0.000000
# 3 -0.003610 -0.003610 0.013832 0.000000 0.000000 0.000000
# 4 0.000000 0.000000 0.000000 0.047879 0.000000 0.000000
# 5 0.000000 0.000000 0.000000 0.000000 0.047879 0.000000
# 6 0.000000 0.000000 0.000000 0.000000 0.000000 0.043362
#
#
# Mechanical properties :
#
#
# Convention : Reuss Voigt Hill
#
# Bulk Modulus (GPa) = 65.67055 66.60008 66.13532
# Shear Modulus (GPa) = 23.59263 24.11713 23.85488
#
# Velocity S-wave (km/s) = 3.68479 3.72552 3.70521
# Velocity P-wave (km/s) = 7.47644 7.53888 7.50772
#
# Compressibility (1/GPa) = 0.01522753
#
# Stress axis : x y z
#
# Youngs Moduli (GPa) = 72.33565 72.33565 72.29511
#
# Poissons Ratio (x) = 0.42732 0.26096
# Poissons Ratio (y) = 0.42732 0.26096
# Poissons Ratio (z) = 0.26111 0.26111
#
# Static dielectric constant tensor:
#      x y z
#    x 3.124560 0.000000 0.000000 
#    y 0.000000 3.124560 0.000000 
#    z 0.000000 0.000000 3.280650 
# 
# 
# High freq. dielectric constant tensor:
#      x y z
#    x 1.662700 0.000000 0.000000 
#    y 0.000000 1.662700 0.000000 
#    z 0.000000 0.000000 1.675550 
# 
# From -- ./inp_files/12899.got.cif
#   From: 2010.03.12/outbox.cif.g09.slc.cpg/sg139_7_cif.got.tgz:12899.got - 2010.04.08 09:46:31.
