data_PCOD8319721
_publ_section_title
;
Structure prediction by ZEFSAII (Michael W. Deem and Ramdas Pophale) SiO2 
 PCOD8319721
Probable space group: I 4/M M M
;
_chemical_formula_sum "Si O2"
_cell_formula_units_Z 192
_cell_length_a 27.519342
_cell_length_b 27.519342
_cell_length_c 14.324657
_cell_angle_alpha 90.000000
_cell_angle_beta 90.000000
_cell_angle_gamma 90.000000
_cell_volume 10848.265929
_symmetry_space_group_name_H-M "I 4/M M M"
_symmetry_group_IT_number 139
_symmetry_cell_setting 'tetragonal'
loop_
_space_group_symop_operation_xyz
x,y,z
-y,x,z
-x,-y,z
y,-x,z
x,-y,-z
-x,y,-z
y,x,-z
-y,-x,-z
-x,-y,-z
y,-x,-z
x,y,-z
-y,x,-z
-x,y,z
x,-y,z
-y,-x,z
y,x,z
1/2+x,1/2+y,1/2+z
1/2-y,1/2+x,1/2+z
1/2-x,1/2-y,1/2+z
1/2+y,1/2-x,1/2+z
1/2+x,1/2-y,1/2-z
1/2-x,1/2+y,1/2-z
1/2+y,1/2+x,1/2-z
1/2-y,1/2-x,1/2-z
1/2-x,1/2-y,1/2-z
1/2+y,1/2-x,1/2-z
1/2+x,1/2+y,1/2-z
1/2-y,1/2+x,1/2-z
1/2-x,1/2+y,1/2+z
1/2+x,1/2-y,1/2+z
1/2-y,1/2-x,1/2+z
1/2+y,1/2+x,1/2+z
loop_
_atom_site_type_symbol
_atom_site_label
_atom_site_fract_x
_atom_site_fract_y
_atom_site_fract_z
Si Si1 0.282951 0.092122 0.105475
Si Si2 0.796729 0.721104 0.110349
Si Si3 0.056595 0.353220 0.605247
Si Si4 0.278728 0.357012 0.892277
Si Si5 0.555164 0.245456 0.209285
Si Si6 0.553607 0.109093 0.606174
O O1 0.283375 0.147687 0.141917
O O2 0.250640 0.061881 0.178779
O O3 0.335175 0.068097 0.109200
O O4 0.261468 0.088489 0.000000
O O5 0.771820 0.771820 0.144994
O O6 0.765429 0.675736 0.150087
O O7 0.792773 0.718481 0.000000
O O8 0.078152 0.344314 0.500000
O O9 0.069529 0.308298 0.671996
O O10 0.078369 0.402389 0.652289
O O11 0.000000 0.360853 0.598144
O O12 0.329501 0.329501 0.878186
O O13 0.283141 0.408312 0.839117
O O14 0.268920 0.368322 0.000000
O O15 0.500000 0.258970 0.182324
O O16 0.548987 0.091160 0.500000
O O17 0.500000 0.102031 0.654591
#
# Coordination Sequence:
#
# PCOD8319721 Si02
#       6
#    32  32  32  32  32  32
#     4  10  20  33  47  63  88 122 160 201 239 276
#     4   8  15  29  49  72  96 122 154 193 237 287
#     4   9  18  31  45  63  87 112 143 190 245 296
#     4   9  18  33  52  75 103 129 153 188 237 293
#     4  11  22  33  48  70  94 124 161 196 236 287
#     4   9  17  29  44  60  81 114 155 197 240 284
#
# _framework density 17.698681000000001
#
# number of rings (size 3 to 8) (size 9 to 14) (size 15 to 20)
#    0.000    2.667    0.000    3.000    0.000    8.333 
#    0.000    3.333    0.000    0.000    0.000    2.333 
#    0.000    0.333    0.000    1.833    0.000    0.000 
#
# Total GULP energy -1189741.986654 kJ/mol
# GULP energy per Si atom -12393.145694 kJ/mol
# Density = 1.765840 g / cm^3
# Si number density = 17.698681 Si / 1000 Ang^3
#
#
#
# Elastic Constant Matrix: (Units=GPa)
#
#
# Indices 1 2 3 4 5 6 
#
# 1 67.9720 36.2162 21.1514 0.0000 0.0000 0.0000
# 2 36.2162 67.9720 21.1514 0.0000 0.0000 0.0000
# 3 21.1514 21.1514 57.4671 0.0000 0.0000 0.0000
# 4 0.0000 0.0000 0.0000 13.5385 0.0000 0.0000
# 5 0.0000 0.0000 0.0000 0.0000 13.5385 0.0000
# 6 0.0000 0.0000 0.0000 0.0000 0.0000 22.6294
#
#
#
# Elastic Compliance Matrix: (Units=1/GPa)
#
#
# Indices 1 2 3 4 5 6 
#
# 1 0.021387 -0.010103 -0.004153 0.000000 0.000000 0.000000
# 2 -0.010103 0.021387 -0.004153 0.000000 0.000000 0.000000
# 3 -0.004153 -0.004153 0.020459 0.000000 0.000000 0.000000
# 4 0.000000 0.000000 0.000000 0.073863 0.000000 0.000000
# 5 0.000000 0.000000 0.000000 0.000000 0.073863 0.000000
# 6 0.000000 0.000000 0.000000 0.000000 0.000000 0.044190
#
#
# Mechanical properties :
#
#
# Convention : Reuss Voigt Hill
#
# Bulk Modulus (GPa) = 37.85866 38.93876 38.39871
# Shear Modulus (GPa) = 16.62375 17.60074 17.11225
#
# Velocity S-wave (km/s) = 3.06807 3.15694 3.11282
# Velocity P-wave (km/s) = 5.82991 5.94450 5.88748
#
# Compressibility (1/GPa) = 0.02641403
#
# Stress axis : x y z
#
# Youngs Moduli (GPa) = 46.75661 46.75661 48.87913
#
# Poissons Ratio (x) = 0.47238 0.20301
# Poissons Ratio (y) = 0.47238 0.20301
# Poissons Ratio (z) = 0.19420 0.19420
#
# Static dielectric constant tensor:
#      x y z
#    x 3.229900 0.000000 0.000000 
#    y 0.000000 3.229900 0.000000 
#    z 0.000000 0.000000 3.410830 
# 
# 
# High freq. dielectric constant tensor:
#      x y z
#    x 1.653760 0.000000 0.000000 
#    y 0.000000 1.653760 0.000000 
#    z 0.000000 0.000000 1.689650 
# 
# From -- ./inp_files/6617.got.cif
#   From: 2010.03.12/outbox.cif.g09.slc.cpg/sg139_4_cif.got.tgz:6617.got - 2010.04.08 09:46:31.
