data_PCOD8319120
_publ_section_title
;
Structure prediction by ZEFSAII (Michael W. Deem and Ramdas Pophale) SiO2 
 PCOD8319120
Probable space group: P 42/N C M
;
_chemical_formula_sum "Si O2"
_cell_formula_units_Z 80
_cell_length_a 17.829011
_cell_length_b 17.829011
_cell_length_c 12.871353
_cell_angle_alpha 90.000000
_cell_angle_beta 90.000000
_cell_angle_gamma 90.000000
_cell_volume 4091.463743
_symmetry_space_group_name_H-M "P 42/N C M"
_symmetry_group_IT_number 138
_space_group.IT_coordinate_system_code '2'
_symmetry_cell_setting 'tetragonal'
loop_
_space_group_symop_operation_xyz
x,y,z
1/2-y,x,1/2+z
1/2-x,1/2-y,z
y,1/2-x,1/2+z
1/2+x,-y,1/2-z
-x,1/2+y,1/2-z
1/2+y,1/2+x,-z
-y,-x,-z
-x,-y,-z
1/2+y,-x,1/2-z
1/2+x,1/2+y,-z
-y,1/2+x,1/2-z
1/2-x,y,1/2+z
x,1/2-y,1/2+z
1/2-y,1/2-x,z
y,x,z
loop_
_atom_site_type_symbol
_atom_site_label
_atom_site_fract_x
_atom_site_fract_y
_atom_site_fract_z
Si Si1 0.350416 0.473174 0.590402
Si Si2 0.034174 0.157884 0.358389
Si Si3 0.722184 0.172281 0.614073
Si Si4 0.120054 0.628567 0.199110
Si Si5 0.629893 0.748932 0.278826
O O1 0.431425 0.431425 0.600381
O O2 0.329243 0.496718 0.474015
O O3 0.349275 0.550946 0.653141
O O4 0.284397 0.416971 0.625445
O O5 0.098837 0.098837 0.366549
O O6 0.070032 0.233398 0.311446
O O7 0.969326 0.124441 0.283844
O O8 0.750000 0.250000 0.661800
O O9 0.685331 0.185331 0.500000
O O10 0.799860 0.125400 0.619259
O O11 0.658570 0.139334 0.689253
O O12 0.677154 0.822847 0.314958
O O13 0.686614 0.686614 0.233852
#
# Coordination Sequence:
#
# PCOD8319120 Si02
#       5
#    16  16  16  16  16
#     4  10  22  37  57  87 115 149 191 233 287 345
#     4  10  22  36  58  87 114 150 192 233 287 345
#     4  11  25  39  55  84 113 143 195 233 281 335
#     4  12  21  39  59  82 116 152 187 235 284 338
#     4   9  19  37  59  83 113 147 190 242 288 337
#
# _framework density 19.552904000000002
#
# number of rings (size 3 to 8) (size 9 to 14) (size 15 to 20)
#    0.000    1.600    2.000    2.400    5.600    2.400 
#    0.000    4.000    0.000    4.800    0.000    0.000 
#    0.000    0.800    0.000    0.000    0.000    0.000 
#
# Total GULP energy -991151.931465 kJ/mol
# GULP energy per Si atom -12389.399143 kJ/mol
# Density = 1.950840 g / cm^3
# Si number density = 19.552904 Si / 1000 Ang^3
#
#
#
# Elastic Constant Matrix: (Units=GPa)
#
#
# Indices 1 2 3 4 5 6 
#
# 1 79.5906 4.3977 53.8761 0.0000 0.0000 0.0000
# 2 4.3977 79.5906 53.8761 0.0000 0.0000 0.0000
# 3 53.8761 53.8761 102.5138 0.0000 0.0000 0.0000
# 4 0.0000 0.0000 0.0000 -404.9716 0.0000 0.0000
# 5 0.0000 0.0000 0.0000 0.0000 -404.9716 0.0000
# 6 0.0000 0.0000 0.0000 0.0000 0.0000 18.2933
#
#
#
# Elastic Compliance Matrix: (Units=1/GPa)
#
#
# Indices 1 2 3 4 5 6 
#
# 1 0.024925 0.011626 -0.019209 0.000000 0.000000 0.000000
# 2 0.011626 0.024925 -0.019209 0.000000 0.000000 0.000000
# 3 -0.019209 -0.019209 0.029946 0.000000 0.000000 0.000000
# 4 0.000000 0.000000 0.000000 -0.002469 0.000000 0.000000
# 5 0.000000 0.000000 0.000000 0.000000 -0.002469 0.000000
# 6 0.000000 0.000000 0.000000 0.000000 0.000000 0.054665
#
#
# Mechanical properties :
#
#
# Convention : Reuss Voigt Hill
#
# Bulk Modulus (GPa) = 38.15300 53.99942 46.07621
# Shear Modulus (GPa) = 26.06273 -148.36032 -61.14879
#
# Velocity S-wave (km/s) = 3.65490 -8.72015 -5.59834
# Velocity P-wave (km/s) = 6.11278 8.58551 4.26292
#
# Compressibility (1/GPa) = 0.02621026
#
# Stress axis : x y z
#
# Youngs Moduli (GPa) = 40.12020 40.12020 33.39364
#
# Poissons Ratio (x) = -0.46644 0.64147
# Poissons Ratio (y) = -0.46644 0.64147
# Poissons Ratio (z) = 0.77069 0.77069
#
# Static dielectric constant tensor:
#      x y z
#    x 3.874710 0.000000 0.000000 
#    y 0.000000 3.874710 0.000000 
#    z 0.000000 0.000000 3.647860 
# 
# 
# High freq. dielectric constant tensor:
#      x y z
#    x 1.771230 0.000000 0.000000 
#    y 0.000000 1.771230 0.000000 
#    z 0.000000 0.000000 1.744450 
# 
# From -- ./inp_files/4116.got.cif
#   From: 2010.03.12/outbox.cif.g09.slc.cpg/sg138_3_cif.got.tgz:4116.got - 2010.04.08 09:41:05.
