data_PCOD8319040
_publ_section_title
;
Structure prediction by ZEFSAII (Michael W. Deem and Ramdas Pophale) SiO2 
 PCOD8319040
Probable space group: P 42/N C M
;
_chemical_formula_sum "Si O2"
_cell_formula_units_Z 128
_cell_length_a 19.347121
_cell_length_b 19.347121
_cell_length_c 19.695281
_cell_angle_alpha 90.000000
_cell_angle_beta 90.000000
_cell_angle_gamma 90.000000
_cell_volume 7372.162118
_symmetry_space_group_name_H-M "P 42/N C M"
_symmetry_group_IT_number 138
_space_group.IT_coordinate_system_code '2'
_symmetry_cell_setting 'tetragonal'
loop_
_space_group_symop_operation_xyz
x,y,z
1/2-y,x,1/2+z
1/2-x,1/2-y,z
y,1/2-x,1/2+z
1/2+x,-y,1/2-z
-x,1/2+y,1/2-z
1/2+y,1/2+x,-z
-y,-x,-z
-x,-y,-z
1/2+y,-x,1/2-z
1/2+x,1/2+y,-z
-y,1/2+x,1/2-z
1/2-x,y,1/2+z
x,1/2-y,1/2+z
1/2-y,1/2-x,z
y,x,z
loop_
_atom_site_type_symbol
_atom_site_label
_atom_site_fract_x
_atom_site_fract_y
_atom_site_fract_z
Si Si1 0.747743 0.046019 0.234431
Si Si2 0.429604 0.960967 0.572853
Si Si3 0.485762 0.596090 0.704370
Si Si4 0.290908 0.597454 0.487142
Si Si5 0.226677 0.829951 0.858913
Si Si6 0.492154 0.902972 0.050861
Si Si7 0.292887 0.923386 0.622412
Si Si8 0.103701 0.993297 0.800433
O O1 0.742915 0.123459 0.202168
O O2 0.754571 0.050267 0.316157
O O3 0.813443 0.002369 0.207873
O O4 0.677972 0.004705 0.216367
O O5 0.423223 0.923223 0.500000
O O6 0.353511 0.976828 0.602770
O O7 0.474932 0.912340 0.621697
O O8 0.464394 0.035607 0.563887
O O9 0.557577 0.557577 0.723473
O O10 0.464540 0.582060 0.626782
O O11 0.424741 0.567244 0.751700
O O12 0.358359 0.641642 0.500000
O O13 0.245371 0.634703 0.430415
O O14 0.321286 0.521707 0.464991
O O15 0.252067 0.592626 0.557351
O O16 0.250000 0.750000 0.853919
O O17 0.144705 0.833537 0.853190
O O18 0.573755 0.926246 0.046556
O O19 0.451164 0.951164 0.000000
O O20 0.066557 0.066557 0.782051
#
# Coordination Sequence:
#
# PCOD8319040 Si02
#       8
#    16  16  16  16  16  16  16  16
#     4  12  24  37  54  82 105 146 189 230 273 331
#     4  10  20  37  58  77 103 145 191 236 278 322
#     4  10  20  38  59  80 108 143 182 229 279 325
#     4  11  22  35  49  70 108 147 179 213 269 318
#     4  12  24  34  47  72 112 149 181 215 263 322
#     4   9  19  34  55  77 101 139 185 227 265 318
#     4  12  25  34  52  76 112 146 186 224 269 325
#     4  10  22  39  56  79 111 145 184 232 280 332
#
# _framework density 17.362613
#
# number of rings (size 3 to 8) (size 9 to 14) (size 15 to 20)
#    0.000    1.250    5.000    1.125    7.000    0.000 
#    0.000    0.000    0.000    0.375    0.000    0.000 
#    0.000    1.500    0.000    0.000    0.000    0.000 
#
# Total GULP energy -1586492.190507 kJ/mol
# GULP energy per Si atom -12394.470238 kJ/mol
# Density = 1.732310 g / cm^3
# Si number density = 17.362613 Si / 1000 Ang^3
#
#
#
# Elastic Constant Matrix: (Units=GPa)
#
#
# Indices 1 2 3 4 5 6 
#
# 1 83.7293 36.9640 31.4931 0.0000 0.0000 0.0000
# 2 36.9640 83.7310 31.4921 0.0000 0.0000 0.0000
# 3 31.4931 31.4921 121.8655 0.0000 0.0000 0.0000
# 4 0.0000 0.0000 0.0000 25.8379 0.0000 0.0000
# 5 0.0000 0.0000 0.0000 0.0000 25.8369 0.0000
# 6 0.0000 0.0000 0.0000 0.0000 0.0000 27.1797
#
#
#
# Elastic Compliance Matrix: (Units=1/GPa)
#
#
# Indices 1 2 3 4 5 6 
#
# 1 0.015480 -0.005903 -0.002475 0.000000 0.000000 0.000000
# 2 -0.005903 0.015480 -0.002475 0.000000 0.000000 0.000000
# 3 -0.002475 -0.002475 0.009485 0.000000 0.000000 0.000000
# 4 0.000000 0.000000 0.000000 0.038703 0.000000 0.000000
# 5 0.000000 0.000000 0.000000 0.000000 0.038704 0.000000
# 6 0.000000 0.000000 0.000000 0.000000 0.000000 0.036792
#
#
# Mechanical properties :
#
#
# Convention : Reuss Voigt Hill
#
# Bulk Modulus (GPa) = 53.36394 54.35824 53.86109
# Shear Modulus (GPa) = 27.38283 28.39600 27.88941
#
# Velocity S-wave (km/s) = 3.97560 4.04848 4.01220
# Velocity P-wave (km/s) = 7.20247 7.29583 7.24930
#
# Compressibility (1/GPa) = 0.01873925
#
# Stress axis : x y z
#
# Youngs Moduli (GPa) = 64.59868 64.60055 105.43080
#
# Poissons Ratio (x) = 0.38134 0.26094
# Poissons Ratio (y) = 0.38133 0.26091
# Poissons Ratio (z) = 0.15988 0.15987
#
# Static dielectric constant tensor:
#      x y z
#    x 3.297480 0.000000 0.000000 
#    y 0.000000 3.297460 0.000000 
#    z 0.000000 0.000000 3.495240 
# 
# 
# High freq. dielectric constant tensor:
#      x y z
#    x 1.646190 0.000000 0.000000 
#    y 0.000000 1.646190 0.000000 
#    z 0.000000 0.000000 1.698660 
# 
# From -- ./inp_files/5498.got.cif
#   From: 2010.03.12/outbox.cif.g09.slc.cpg/sg138_3_cif.got.tgz:5498.got - 2010.04.08 09:41:05.
