data_PCOD8319591
_publ_section_title
;
Structure prediction by ZEFSAII (Michael W. Deem and Ramdas Pophale) SiO2 
 PCOD8319591
Probable space group: I 4/M M M
;
_chemical_formula_sum "Si O2"
_cell_formula_units_Z 176
_cell_length_a 19.518052
_cell_length_b 19.518052
_cell_length_c 27.081230
_cell_angle_alpha 90.000000
_cell_angle_beta 90.000000
_cell_angle_gamma 90.000000
_cell_volume 10316.712477
_symmetry_space_group_name_H-M "I 4/M M M"
_symmetry_group_IT_number 139
_symmetry_cell_setting 'tetragonal'
loop_
_space_group_symop_operation_xyz
x,y,z
-y,x,z
-x,-y,z
y,-x,z
x,-y,-z
-x,y,-z
y,x,-z
-y,-x,-z
-x,-y,-z
y,-x,-z
x,y,-z
-y,x,-z
-x,y,z
x,-y,z
-y,-x,z
y,x,z
1/2+x,1/2+y,1/2+z
1/2-y,1/2+x,1/2+z
1/2-x,1/2-y,1/2+z
1/2+y,1/2-x,1/2+z
1/2+x,1/2-y,1/2-z
1/2-x,1/2+y,1/2-z
1/2+y,1/2+x,1/2-z
1/2-y,1/2-x,1/2-z
1/2-x,1/2-y,1/2-z
1/2+y,1/2-x,1/2-z
1/2+x,1/2+y,1/2-z
1/2-y,1/2+x,1/2-z
1/2-x,1/2+y,1/2+z
1/2+x,1/2-y,1/2+z
1/2-y,1/2-x,1/2+z
1/2+y,1/2+x,1/2+z
loop_
_atom_site_type_symbol
_atom_site_label
_atom_site_fract_x
_atom_site_fract_y
_atom_site_fract_z
Si Si1 0.580594 0.813287 0.267910
Si Si2 0.577998 0.312393 0.443516
Si Si3 0.271813 0.841933 0.134790
Si Si4 0.761344 0.127918 0.598716
Si Si5 0.076814 0.807565 0.500000
Si Si6 0.812256 0.923205 0.301575
O O1 0.500000 0.828434 0.272662
O O2 0.617395 0.882606 0.250000
O O3 0.608889 0.784887 0.319274
O O4 0.597342 0.755980 0.227330
O O5 0.583981 0.287333 0.500000
O O6 0.500000 0.322698 0.427025
O O7 0.614631 0.385370 0.436034
O O8 0.612999 0.255148 0.410257
O O9 0.218243 0.781757 0.149762
O O10 0.345343 0.812356 0.117175
O O11 0.804367 0.195634 0.587696
O O12 0.758473 0.086100 0.547676
O O13 0.797001 0.081375 0.640249
O O14 0.127201 0.872800 0.500000
O O15 0.000000 0.837269 0.500000
O O16 0.872816 0.872816 0.285117
O O17 0.835869 0.000000 0.288593
#
# Coordination Sequence:
#
# PCOD8319591 Si02
#       6
#    32  32  32  32  16  32
#     4  11  22  36  55  77 102 133 171 215 264 314
#     4   9  18  31  48  73 105 138 172 210 252 303
#     4  10  19  32  53  77 103 132 169 215 260 304
#     4   9  18  31  50  74 100 133 171 212 253 293
#     4  10  20  33  50  74 105 137 170 206 246 298
#     4  10  20  34  53  78 107 138 173 210 252 306
#
# _framework density 17.059698000000001
#
# number of rings (size 3 to 8) (size 9 to 14) (size 15 to 20)
#    0.000    2.182    1.818    1.636    1.273    1.364 
#    0.000    0.909    0.000    3.273    0.000    2.545 
#    0.000    1.455    0.000    0.000    0.000    0.000 
#
# Total GULP energy -1091154.542500 kJ/mol
# GULP energy per Si atom -12399.483437 kJ/mol
# Density = 1.702087 g / cm^3
# Si number density = 17.059698 Si / 1000 Ang^3
#
#
#
# Elastic Constant Matrix: (Units=GPa)
#
#
# Indices 1 2 3 4 5 6 
#
# 1 95.2310 57.7212 39.8084 0.0000 0.0000 0.0000
# 2 57.7212 95.2278 39.8079 0.0000 0.0000 0.0000
# 3 39.8084 39.8079 92.3015 0.0000 0.0000 0.0000
# 4 0.0000 0.0000 0.0000 24.7985 0.0000 0.0000
# 5 0.0000 0.0000 0.0000 0.0000 24.7987 0.0000
# 6 0.0000 0.0000 0.0000 0.0000 0.0000 20.5762
#
#
#
# Elastic Compliance Matrix: (Units=1/GPa)
#
#
# Indices 1 2 3 4 5 6 
#
# 1 0.017545 -0.009115 -0.003636 0.000000 0.000000 0.000000
# 2 -0.009115 0.017546 -0.003636 0.000000 0.000000 0.000000
# 3 -0.003636 -0.003636 0.013970 0.000000 0.000000 0.000000
# 4 0.000000 0.000000 0.000000 0.040325 0.000000 0.000000
# 5 0.000000 0.000000 0.000000 0.000000 0.040325 0.000000
# 6 0.000000 0.000000 0.000000 0.000000 0.000000 0.048600
#
#
# Mechanical properties :
#
#
# Convention : Reuss Voigt Hill
#
# Bulk Modulus (GPa) = 61.39595 61.93723 61.66659
# Shear Modulus (GPa) = 23.09307 23.72952 23.41129
#
# Velocity S-wave (km/s) = 3.68321 3.73362 3.70850
# Velocity P-wave (km/s) = 7.35901 7.41428 7.38670
#
# Compressibility (1/GPa) = 0.01628772
#
# Stress axis : x y z
#
# Youngs Moduli (GPa) = 56.99477 56.99279 71.57996
#
# Poissons Ratio (x) = 0.51949 0.26026
# Poissons Ratio (y) = 0.51951 0.26027
# Poissons Ratio (z) = 0.20723 0.20723
#
# Static dielectric constant tensor:
#      x y z
#    x 3.113360 0.000000 0.000000 
#    y 0.000000 3.113360 0.000000 
#    z 0.000000 0.000000 3.327050 
# 
# 
# High freq. dielectric constant tensor:
#      x y z
#    x 1.647020 0.000000 0.000000 
#    y 0.000000 1.647020 0.000000 
#    z 0.000000 0.000000 1.671230 
# 
# From -- ./inp_files/14261.got.cif
#   From: 2010.03.12/outbox.cif.g09.slc.cpg/sg139_8_cif.got.tgz:14261.got - 2010.04.08 09:46:31.
