data_PCOD8319642
_publ_section_title
;
Structure prediction by ZEFSAII (Michael W. Deem and Ramdas Pophale) SiO2 
 PCOD8319642
Probable space group: I 4/M M M
;
_chemical_formula_sum "Si O2"
_cell_formula_units_Z 112
_cell_length_a 25.442361
_cell_length_b 25.442361
_cell_length_c 9.384781
_cell_angle_alpha 90.000000
_cell_angle_beta 90.000000
_cell_angle_gamma 90.000000
_cell_volume 6074.897625
_symmetry_space_group_name_H-M "I 4/M M M"
_symmetry_group_IT_number 139
_symmetry_cell_setting 'tetragonal'
loop_
_space_group_symop_operation_xyz
x,y,z
-y,x,z
-x,-y,z
y,-x,z
x,-y,-z
-x,y,-z
y,x,-z
-y,-x,-z
-x,-y,-z
y,-x,-z
x,y,-z
-y,x,-z
-x,y,z
x,-y,z
-y,-x,z
y,x,z
1/2+x,1/2+y,1/2+z
1/2-y,1/2+x,1/2+z
1/2-x,1/2-y,1/2+z
1/2+y,1/2-x,1/2+z
1/2+x,1/2-y,1/2-z
1/2-x,1/2+y,1/2-z
1/2+y,1/2+x,1/2-z
1/2-y,1/2-x,1/2-z
1/2-x,1/2-y,1/2-z
1/2+y,1/2-x,1/2-z
1/2+x,1/2+y,1/2-z
1/2-y,1/2+x,1/2-z
1/2-x,1/2+y,1/2+z
1/2+x,1/2-y,1/2+z
1/2-y,1/2-x,1/2+z
1/2+y,1/2+x,1/2+z
loop_
_atom_site_type_symbol
_atom_site_label
_atom_site_fract_x
_atom_site_fract_y
_atom_site_fract_z
Si Si1 0.189035 0.000000 0.669521
Si Si2 0.134736 0.561447 0.167098
Si Si3 0.414037 0.500000 0.659447
Si Si4 0.211700 0.211700 0.330666
Si Si5 0.098878 0.747275 0.331316
O O1 0.129968 0.000000 0.721813
O O2 0.218178 0.948654 0.731160
O O3 0.188944 0.000000 0.500000
O O4 0.140256 0.500000 0.203567
O O5 0.085009 0.585009 0.250000
O O6 0.187189 0.591836 0.220690
O O7 0.125582 0.569864 0.000000
O O8 0.448398 0.448398 0.683080
O O9 0.390079 0.500000 0.500000
O O10 0.218146 0.218146 0.500000
O O11 0.250000 0.250000 0.250000
O O12 0.226731 0.153163 0.279101
O O13 0.095633 0.747954 0.500000
#
# Coordination Sequence:
#
# PCOD8319642 Si02
#       5
#    16  32  16  16  32
#     4  10  19  33  57  84 105 133 182 228 264 315
#     4  10  20  36  56  77 105 142 178 217 269 323
#     4   9  20  38  54  72 108 151 179 211 268 320
#     4  10  20  34  54  80 109 140 173 213 264 317
#     4   9  18  34  55  79 109 141 172 215 271 321
#
# _framework density 18.436523999999999
#
# number of rings (size 3 to 8) (size 9 to 14) (size 15 to 20)
#    0.000    2.429    1.429    1.286    2.000    1.429 
#    0.000    5.000    0.000    0.000    0.000    0.000 
#    0.000    0.000    0.000    0.000    0.000    0.000 
#
# Total GULP energy -694366.909819 kJ/mol
# GULP energy per Si atom -12399.409104 kJ/mol
# Density = 1.839456 g / cm^3
# Si number density = 18.436524 Si / 1000 Ang^3
#
#
#
# Elastic Constant Matrix: (Units=GPa)
#
#
# Indices 1 2 3 4 5 6 
#
# 1 139.6114 81.1841 36.8386 0.0000 0.0000 0.0000
# 2 81.1841 139.6114 36.8386 0.0000 0.0000 0.0000
# 3 36.8386 36.8386 27.0189 0.0000 0.0000 0.0000
# 4 0.0000 0.0000 0.0000 27.3588 0.0000 0.0000
# 5 0.0000 0.0000 0.0000 0.0000 27.3588 0.0000
# 6 0.0000 0.0000 0.0000 0.0000 0.0000 24.9716
#
#
#
# Elastic Compliance Matrix: (Units=1/GPa)
#
#
# Indices 1 2 3 4 5 6 
#
# 1 0.012712 -0.004403 -0.011330 0.000000 0.000000 0.000000
# 2 -0.004403 0.012712 -0.011330 0.000000 0.000000 0.000000
# 3 -0.011330 -0.011330 0.067906 0.000000 0.000000 0.000000
# 4 0.000000 0.000000 0.000000 0.036551 0.000000 0.000000
# 5 0.000000 0.000000 0.000000 0.000000 0.036551 0.000000
# 6 0.000000 0.000000 0.000000 0.000000 0.000000 0.040046
#
#
# Mechanical properties :
#
#
# Convention : Reuss Voigt Hill
#
# Bulk Modulus (GPa) = 25.50609 68.44045 46.97327
# Shear Modulus (GPa) = 18.27001 26.02984 22.14992
#
# Velocity S-wave (km/s) = 3.15138 3.76155 3.46990
# Velocity P-wave (km/s) = 5.20636 7.48789 6.44882
#
# Compressibility (1/GPa) = 0.03920632
#
# Stress axis : x y z
#
# Youngs Moduli (GPa) = 78.66277 78.66277 14.72625
#
# Poissons Ratio (x) = 0.34634 0.16684
# Poissons Ratio (y) = 0.34634 0.16684
# Poissons Ratio (z) = 0.89123 0.89123
#
# Static dielectric constant tensor:
#      x y z
#    x 3.730110 0.000000 0.000000 
#    y 0.000000 3.730110 0.000000 
#    z 0.000000 0.000000 2.996440 
# 
# 
# High freq. dielectric constant tensor:
#      x y z
#    x 1.726860 0.000000 0.000000 
#    y 0.000000 1.726860 0.000000 
#    z 0.000000 0.000000 1.677160 
# 
# From -- ./inp_files/3292.got.cif
#   From: 2010.03.12/outbox.cif.g09.slc.cpg/sg139_2_cif.got.tgz:3292.got - 2010.04.08 09:46:31.
