data_PCOD8319478
_publ_section_title
;
Structure prediction by ZEFSAII (Michael W. Deem and Ramdas Pophale) SiO2 
 PCOD8319478
Probable space group: I 4/M M M
;
_chemical_formula_sum "Si O2"
_cell_formula_units_Z 96
_cell_length_a 15.473285
_cell_length_b 15.473285
_cell_length_c 23.863039
_cell_angle_alpha 90.000000
_cell_angle_beta 90.000000
_cell_angle_gamma 90.000000
_cell_volume 5713.349617
_symmetry_space_group_name_H-M "I 4/M M M"
_symmetry_group_IT_number 139
_symmetry_cell_setting 'tetragonal'
loop_
_space_group_symop_operation_xyz
x,y,z
-y,x,z
-x,-y,z
y,-x,z
x,-y,-z
-x,y,-z
y,x,-z
-y,-x,-z
-x,-y,-z
y,-x,-z
x,y,-z
-y,x,-z
-x,y,z
x,-y,z
-y,-x,z
y,x,z
1/2+x,1/2+y,1/2+z
1/2-y,1/2+x,1/2+z
1/2-x,1/2-y,1/2+z
1/2+y,1/2-x,1/2+z
1/2+x,1/2-y,1/2-z
1/2-x,1/2+y,1/2-z
1/2+y,1/2+x,1/2-z
1/2-y,1/2-x,1/2-z
1/2-x,1/2-y,1/2-z
1/2+y,1/2-x,1/2-z
1/2+x,1/2+y,1/2-z
1/2-y,1/2+x,1/2-z
1/2-x,1/2+y,1/2+z
1/2+x,1/2-y,1/2+z
1/2-y,1/2-x,1/2+z
1/2+y,1/2+x,1/2+z
loop_
_atom_site_type_symbol
_atom_site_label
_atom_site_fract_x
_atom_site_fract_y
_atom_site_fract_z
Si Si1 0.097897 0.238180 0.562535
Si Si2 0.265172 0.594379 0.277701
Si Si3 0.662264 0.902285 0.671375
O O1 0.115424 0.275473 0.500000
O O2 0.155834 0.155834 0.575394
O O3 0.117422 0.313027 0.607220
O O4 0.000000 0.205801 0.568849
O O5 0.306018 0.500000 0.289888
O O6 0.331574 0.668427 0.297956
O O7 0.173032 0.596896 0.310111
O O8 0.246757 0.604699 0.211385
O O9 0.622481 0.000000 0.676725
#
# Coordination Sequence:
#
# PCOD8319478 Si02
#       3
#    32  32  32
#     4   9  16  25  39  60  87 119 150 179 213 257
#     4  10  19  30  46  66  90 120 150 185 225 263
#     4   9  17  30  47  66  89 116 147 182 221 262
#
# _framework density 16.802752999999999
#
# number of rings (size 3 to 8) (size 9 to 14) (size 15 to 20)
#    0.000    2.667    0.000    4.000    0.000    1.333 
#    0.000    5.000    0.000    7.000    0.000    4.667 
#    0.000    0.000    0.000    7.000    0.000    0.000 
#
# Total GULP energy -594757.801085 kJ/mol
# GULP energy per Si atom -12390.787523 kJ/mol
# Density = 1.676451 g / cm^3
# Si number density = 16.802753 Si / 1000 Ang^3
#
#
#
# Elastic Constant Matrix: (Units=GPa)
#
#
# Indices 1 2 3 4 5 6 
#
# 1 73.5263 38.9535 28.5291 0.0000 0.0000 0.0000
# 2 38.9535 73.5263 28.5291 0.0000 0.0000 0.0000
# 3 28.5291 28.5291 96.2892 0.0000 0.0000 0.0000
# 4 0.0000 0.0000 0.0000 17.0403 0.0000 0.0000
# 5 0.0000 0.0000 0.0000 0.0000 17.0403 0.0000
# 6 0.0000 0.0000 0.0000 0.0000 0.0000 13.4970
#
#
#
# Elastic Compliance Matrix: (Units=1/GPa)
#
#
# Indices 1 2 3 4 5 6 
#
# 1 0.019694 -0.009231 -0.003100 0.000000 0.000000 0.000000
# 2 -0.009231 0.019694 -0.003100 0.000000 0.000000 0.000000
# 3 -0.003100 -0.003100 0.012222 0.000000 0.000000 0.000000
# 4 0.000000 0.000000 0.000000 0.058685 0.000000 0.000000
# 5 0.000000 0.000000 0.000000 0.000000 0.058685 0.000000
# 6 0.000000 0.000000 0.000000 0.000000 0.000000 0.074091
#
#
# Mechanical properties :
#
#
# Convention : Reuss Voigt Hill
#
# Bulk Modulus (GPa) = 48.19674 48.37392 48.28533
# Shear Modulus (GPa) = 17.80328 19.33753 18.57040
#
# Velocity S-wave (km/s) = 3.25860 3.39611 3.32806
# Velocity P-wave (km/s) = 6.55012 6.65055 6.60053
#
# Compressibility (1/GPa) = 0.02074829
#
# Stress axis : x y z
#
# Youngs Moduli (GPa) = 50.77756 50.77756 81.81716
#
# Poissons Ratio (x) = 0.46871 0.25364
# Poissons Ratio (y) = 0.46871 0.25364
# Poissons Ratio (z) = 0.15741 0.15741
#
# Static dielectric constant tensor:
#      x y z
#    x 2.959020 0.000000 0.000000 
#    y 0.000000 2.959020 0.000000 
#    z 0.000000 0.000000 3.327750 
# 
# 
# High freq. dielectric constant tensor:
#      x y z
#    x 1.628100 0.000000 0.000000 
#    y 0.000000 1.628100 0.000000 
#    z 0.000000 0.000000 1.642670 
# 
# From -- ./inp_files/9424.got.cif
#   From: 2010.03.12/outbox.cif.g09.slc.cpg/sg139_5_cif.got.tgz:9424.got - 2010.04.08 09:46:31.
