data_PCOD8319508
_publ_section_title
;
Structure prediction by ZEFSAII (Michael W. Deem and Ramdas Pophale) SiO2 
 PCOD8319508
Probable space group: I 4/M M M
;
_chemical_formula_sum "Si O2"
_cell_formula_units_Z 144
_cell_length_a 16.896159
_cell_length_b 16.896159
_cell_length_c 29.100404
_cell_angle_alpha 90.000000
_cell_angle_beta 90.000000
_cell_angle_gamma 90.000000
_cell_volume 8307.588833
_symmetry_space_group_name_H-M "I 4/M M M"
_symmetry_group_IT_number 139
_symmetry_cell_setting 'tetragonal'
loop_
_space_group_symop_operation_xyz
x,y,z
-y,x,z
-x,-y,z
y,-x,z
x,-y,-z
-x,y,-z
y,x,-z
-y,-x,-z
-x,-y,-z
y,-x,-z
x,y,-z
-y,x,-z
-x,y,z
x,-y,z
-y,-x,z
y,x,z
1/2+x,1/2+y,1/2+z
1/2-y,1/2+x,1/2+z
1/2-x,1/2-y,1/2+z
1/2+y,1/2-x,1/2+z
1/2+x,1/2-y,1/2-z
1/2-x,1/2+y,1/2-z
1/2+y,1/2+x,1/2-z
1/2-y,1/2-x,1/2-z
1/2-x,1/2-y,1/2-z
1/2+y,1/2-x,1/2-z
1/2+x,1/2+y,1/2-z
1/2-y,1/2+x,1/2-z
1/2-x,1/2+y,1/2+z
1/2+x,1/2-y,1/2+z
1/2-y,1/2-x,1/2+z
1/2+y,1/2+x,1/2+z
loop_
_atom_site_type_symbol
_atom_site_label
_atom_site_fract_x
_atom_site_fract_y
_atom_site_fract_z
Si Si1 0.090251 0.781758 0.447102
Si Si2 0.373402 0.500000 0.636644
Si Si3 0.000000 0.302702 0.862008
Si Si4 0.500000 0.288537 0.274325
Si Si5 0.234647 0.361624 0.215855
Si Si6 0.649372 0.909755 0.375261
O O1 0.102914 0.758045 0.500000
O O2 0.144095 0.855906 0.432820
O O3 0.113984 0.705990 0.417225
O O4 0.000000 0.807284 0.437240
O O5 0.421611 0.421611 0.621473
O O6 0.285285 0.500000 0.614164
O O7 0.364906 0.500000 0.692363
O O8 0.000000 0.290858 0.806657
O O9 0.076617 0.350094 0.877990
O O10 0.576829 0.290465 0.242319
O O11 0.286702 0.286702 0.199909
O O12 0.165400 0.334601 0.250000
O O13 0.196599 0.402638 0.172034
O O14 0.619031 0.000000 0.380032
#
# Coordination Sequence:
#
# PCOD8319508 Si02
#       6
#    32  16  16  16  32  32
#     4   9  19  36  58  83 109 138 174 216 262 311
#     4   9  18  33  52  72  98 134 176 219 259 306
#     4  10  22  34  51  74 103 136 177 216 258 310
#     4  10  19  31  46  69 100 136 173 214 254 306
#     4  11  20  31  49  73 102 139 179 215 259 308
#     4  11  21  35  52  75 105 141 177 216 260 308
#
# _framework density 17.333549999999999
#
# number of rings (size 3 to 8) (size 9 to 14) (size 15 to 20)
#    0.667    1.222    3.333    1.667    0.000    2.000 
#    0.000    1.667    0.000    2.667    0.000    0.000 
#    0.000    0.000    0.000    4.889    0.000    0.000 
#
# Total GULP energy -892633.499977 kJ/mol
# GULP energy per Si atom -12397.687500 kJ/mol
# Density = 1.729410 g / cm^3
# Si number density = 17.333550 Si / 1000 Ang^3
#
#
#
# Elastic Constant Matrix: (Units=GPa)
#
#
# Indices 1 2 3 4 5 6 
#
# 1 109.7139 65.4599 38.1088 0.0000 0.0000 0.0000
# 2 65.4599 109.7129 38.1087 0.0000 0.0000 0.0000
# 3 38.1088 38.1087 59.6406 0.0000 0.0000 0.0000
# 4 0.0000 0.0000 0.0000 20.3936 0.0000 0.0000
# 5 0.0000 0.0000 0.0000 0.0000 20.3943 0.0000
# 6 0.0000 0.0000 0.0000 0.0000 0.0000 32.7957
#
#
#
# Elastic Compliance Matrix: (Units=1/GPa)
#
#
# Indices 1 2 3 4 5 6 
#
# 1 0.015252 -0.007345 -0.005052 0.000000 0.000000 0.000000
# 2 -0.007345 0.015252 -0.005052 0.000000 0.000000 0.000000
# 3 -0.005052 -0.005052 0.023224 0.000000 0.000000 0.000000
# 4 0.000000 0.000000 0.000000 0.049035 0.000000 0.000000
# 5 0.000000 0.000000 0.000000 0.000000 0.049033 0.000000
# 6 0.000000 0.000000 0.000000 0.000000 0.000000 0.030492
#
#
# Mechanical properties :
#
#
# Convention : Reuss Voigt Hill
#
# Bulk Modulus (GPa) = 53.11162 62.49134 57.80148
# Shear Modulus (GPa) = 22.37509 23.87608 23.12558
#
# Velocity S-wave (km/s) = 3.59674 3.71543 3.65657
# Velocity P-wave (km/s) = 6.92504 7.38487 7.15865
#
# Compressibility (1/GPa) = 0.01882827
#
# Stress axis : x y z
#
# Youngs Moduli (GPa) = 65.56566 65.56493 43.05961
#
# Poissons Ratio (x) = 0.48158 0.21755
# Poissons Ratio (y) = 0.48159 0.21755
# Poissons Ratio (z) = 0.33125 0.33125
#
# Static dielectric constant tensor:
#      x y z
#    x 3.182110 0.000000 0.000000 
#    y 0.000000 3.182110 0.000000 
#    z 0.000000 0.000000 3.058000 
# 
# 
# High freq. dielectric constant tensor:
#      x y z
#    x 1.671210 0.000000 0.000000 
#    y 0.000000 1.671210 0.000000 
#    z 0.000000 0.000000 1.644830 
# 
# From -- ./inp_files/12847.got.cif
#   From: 2010.03.12/outbox.cif.g09.slc.cpg/sg139_7_cif.got.tgz:12847.got - 2010.04.08 09:46:31.
