data_PCOD8319946
_publ_section_title
;
Structure prediction by ZEFSAII (Michael W. Deem and Ramdas Pophale) SiO2 
 PCOD8319946
Probable space group: I 4/M M M
;
_chemical_formula_sum "Si O2"
_cell_formula_units_Z 160
_cell_length_a 31.269991
_cell_length_b 31.269991
_cell_length_c 8.639954
_cell_angle_alpha 90.000000
_cell_angle_beta 90.000000
_cell_angle_gamma 90.000000
_cell_volume 8448.253614
_symmetry_space_group_name_H-M "I 4/M M M"
_symmetry_group_IT_number 139
_symmetry_cell_setting 'tetragonal'
loop_
_space_group_symop_operation_xyz
x,y,z
-y,x,z
-x,-y,z
y,-x,z
x,-y,-z
-x,y,-z
y,x,-z
-y,-x,-z
-x,-y,-z
y,-x,-z
x,y,-z
-y,x,-z
-x,y,z
x,-y,z
-y,-x,z
y,x,z
1/2+x,1/2+y,1/2+z
1/2-y,1/2+x,1/2+z
1/2-x,1/2-y,1/2+z
1/2+y,1/2-x,1/2+z
1/2+x,1/2-y,1/2-z
1/2-x,1/2+y,1/2-z
1/2+y,1/2+x,1/2-z
1/2-y,1/2-x,1/2-z
1/2-x,1/2-y,1/2-z
1/2+y,1/2-x,1/2-z
1/2+x,1/2+y,1/2-z
1/2-y,1/2+x,1/2-z
1/2-x,1/2+y,1/2+z
1/2+x,1/2-y,1/2+z
1/2-y,1/2-x,1/2+z
1/2+y,1/2+x,1/2+z
loop_
_atom_site_type_symbol
_atom_site_label
_atom_site_fract_x
_atom_site_fract_y
_atom_site_fract_z
Si Si1 0.000000 0.117991 0.680436
Si Si2 0.147914 0.147914 0.684766
Si Si3 0.771787 0.902932 0.183054
Si Si4 0.500000 0.290447 0.317829
Si Si5 0.548047 0.888133 0.182172
Si Si6 0.383463 0.818676 0.183838
Si Si7 0.917101 0.082900 0.180713
O O1 0.039055 0.093285 0.744820
O O2 0.000000 0.118297 0.500000
O O3 0.000000 0.164983 0.739284
O O4 0.144384 0.144384 0.500000
O O5 0.130135 0.194810 0.735032
O O6 0.117303 0.117303 0.776213
O O7 0.726035 0.885094 0.229548
O O8 0.770810 0.953714 0.235402
O O9 0.779765 0.899975 0.000000
O O10 0.500000 0.294591 0.500000
O O11 0.500000 0.883194 0.248273
O O12 0.569180 0.930821 0.250000
O O13 0.574700 0.846179 0.230633
O O14 0.547523 0.893371 0.000000
O O15 0.341663 0.841663 0.250000
O O16 0.380003 0.812453 0.000000
O O17 0.920938 0.079062 0.000000
#
# Coordination Sequence:
#
# PCOD8319946 Si02
#       7
#    16  16  32  16  32  32  16
#     4  12  24  39  61  88 118 156 205 253 299 358
#     4  12  24  40  62  92 122 156 199 246 299 356
#     4  11  23  40  63  92 124 160 200 244 299 360
#     4  10  22  38  59  89 126 162 197 243 303 362
#     4   9  19  35  54  80 115 156 199 245 295 347
#     4  10  21  39  62  87 120 159 200 249 302 358
#     4  12  24  41  61  83 119 162 200 246 307 364
#
# _framework density 18.938825000000001
#
# number of rings (size 3 to 8) (size 9 to 14) (size 15 to 20)
#    0.000    1.400    2.000    3.900    1.400    2.400 
#    0.000    2.500    0.000    0.000    0.000    0.000 
#    0.000    0.000    0.000    0.000    0.000    0.000 
#
# Total GULP energy -991233.180175 kJ/mol
# GULP energy per Si atom -12390.414752 kJ/mol
# Density = 1.889572 g / cm^3
# Si number density = 18.938825 Si / 1000 Ang^3
#
#
#
# Elastic Constant Matrix: (Units=GPa)
#
#
# Indices 1 2 3 4 5 6 
#
# 1 232.8858 157.0917 74.4113 0.0000 0.0000 0.0000
# 2 157.0917 232.8805 74.4126 0.0000 0.0000 0.0000
# 3 74.4113 74.4126 134.5595 0.0000 0.0000 0.0000
# 4 0.0000 0.0000 0.0000 32.1948 0.0000 0.0000
# 5 0.0000 0.0000 0.0000 0.0000 32.1952 0.0000
# 6 0.0000 0.0000 0.0000 0.0000 0.0000 27.0870
#
#
#
# Elastic Compliance Matrix: (Units=1/GPa)
#
#
# Indices 1 2 3 4 5 6 
#
# 1 0.008222 -0.004972 -0.001797 0.000000 0.000000 0.000000
# 2 -0.004972 0.008222 -0.001798 0.000000 0.000000 0.000000
# 3 -0.001797 -0.001798 0.009420 0.000000 0.000000 0.000000
# 4 0.000000 0.000000 0.000000 0.031061 0.000000 0.000000
# 5 0.000000 0.000000 0.000000 0.000000 0.031061 0.000000
# 6 0.000000 0.000000 0.000000 0.000000 0.000000 0.036918
#
#
# Mechanical properties :
#
#
# Convention : Reuss Voigt Hill
#
# Bulk Modulus (GPa) = 114.54141 134.68411 124.61276
# Shear Modulus (GPa) = 34.49539 37.92274 36.20907
#
# Velocity S-wave (km/s) = 4.27243 4.47965 4.37727
# Velocity P-wave (km/s) = 9.21679 9.90081 9.56492
#
# Compressibility (1/GPa) = 0.00873047
#
# Stress axis : x y z
#
# Youngs Moduli (GPa) = 121.62494 121.62069 106.16204
#
# Poissons Ratio (x) = 0.60469 0.19080
# Poissons Ratio (y) = 0.60471 0.19083
# Poissons Ratio (z) = 0.21859 0.21861
#
# Static dielectric constant tensor:
#      x y z
#    x 3.790510 0.000000 0.000000 
#    y 0.000000 3.790530 0.000000 
#    z 0.000000 0.000000 3.591710 
# 
# 
# High freq. dielectric constant tensor:
#      x y z
#    x 1.743090 0.000000 0.000000 
#    y 0.000000 1.743090 0.000000 
#    z 0.000000 0.000000 1.745600 
# 
# From -- ./inp_files/2312.got.cif
#   From: 2010.03.12/outbox.cif.g09.slc.cpg/sg139_2_cif.got.tgz:2312.got - 2010.04.08 09:46:31.
