data_PCOD8319845
_publ_section_title
;
Structure prediction by ZEFSAII (Michael W. Deem and Ramdas Pophale) SiO2 
 PCOD8319845
Probable space group: I 4/M M M
;
_chemical_formula_sum "Si O2"
_cell_formula_units_Z 116
_cell_length_a 26.952276
_cell_length_b 26.952276
_cell_length_c 8.898427
_cell_angle_alpha 90.000000
_cell_angle_beta 90.000000
_cell_angle_gamma 90.000000
_cell_volume 6464.041449
_symmetry_space_group_name_H-M "I 4/M M M"
_symmetry_group_IT_number 139
_symmetry_cell_setting 'tetragonal'
loop_
_space_group_symop_operation_xyz
x,y,z
-y,x,z
-x,-y,z
y,-x,z
x,-y,-z
-x,y,-z
y,x,-z
-y,-x,-z
-x,-y,-z
y,-x,-z
x,y,-z
-y,x,-z
-x,y,z
x,-y,z
-y,-x,z
y,x,z
1/2+x,1/2+y,1/2+z
1/2-y,1/2+x,1/2+z
1/2-x,1/2-y,1/2+z
1/2+y,1/2-x,1/2+z
1/2+x,1/2-y,1/2-z
1/2-x,1/2+y,1/2-z
1/2+y,1/2+x,1/2-z
1/2-y,1/2-x,1/2-z
1/2-x,1/2-y,1/2-z
1/2+y,1/2-x,1/2-z
1/2+x,1/2+y,1/2-z
1/2-y,1/2+x,1/2-z
1/2-x,1/2+y,1/2+z
1/2+x,1/2-y,1/2+z
1/2-y,1/2-x,1/2+z
1/2+y,1/2+x,1/2+z
loop_
_atom_site_type_symbol
_atom_site_label
_atom_site_fract_x
_atom_site_fract_y
_atom_site_fract_z
Si Si1 0.169800 0.090163 0.325657
Si Si2 0.000000 0.000000 0.789354
Si Si3 0.942417 0.265946 0.824280
Si Si4 0.631443 0.057674 0.674739
Si Si5 0.383933 0.500000 0.671659
O O1 0.177435 0.077531 0.500000
O O2 0.143427 0.143427 0.304030
O O3 0.222813 0.091710 0.244081
O O4 0.135293 0.048459 0.255004
O O5 0.000000 0.057891 0.818852
O O6 0.925595 0.317007 0.748531
O O7 0.000000 0.253771 0.788932
O O8 0.932513 0.270331 0.000000
O O9 0.633807 0.070398 0.500000
O O10 0.586446 0.086446 0.750000
O O11 0.621582 0.000000 0.704938
O O12 0.364497 0.500000 0.500000
#
# Coordination Sequence:
#
# PCOD8319845 Si02
#       5
#    32   4  32  32  16
#     4  11  23  36  51  75 105 140 183 235 289 340
#     4  12  25  36  49  70 105 148 189 234 293 360
#     4  10  20  35  57  82 108 144 189 235 280 334
#     4  10  21  37  59  88 122 157 189 226 269 321
#     4  12  22  35  50  69  98 139 185 232 284 342
#
# _framework density 17.945428
#
# number of rings (size 3 to 8) (size 9 to 14) (size 15 to 20)
#    0.000    1.379    2.759    3.517    0.000    4.690 
#    0.000    2.759    0.000    0.828    0.000    0.000 
#    0.000    0.000    0.000    0.000    0.000    0.000 
#
# Total GULP energy -718524.282886 kJ/mol
# GULP energy per Si atom -12388.349705 kJ/mol
# Density = 1.790458 g / cm^3
# Si number density = 17.945428 Si / 1000 Ang^3
#
#
#
# Elastic Constant Matrix: (Units=GPa)
#
#
# Indices 1 2 3 4 5 6 
#
# 1 96.6421 59.9120 63.1299 0.0000 0.0000 0.0000
# 2 59.9120 96.6421 63.1299 0.0000 0.0000 0.0000
# 3 63.1299 63.1299 134.6804 0.0000 0.0000 0.0000
# 4 0.0000 0.0000 0.0000 44.1977 0.0000 0.0000
# 5 0.0000 0.0000 0.0000 0.0000 44.1977 0.0000
# 6 0.0000 0.0000 0.0000 0.0000 0.0000 24.1501
#
#
#
# Elastic Compliance Matrix: (Units=1/GPa)
#
#
# Indices 1 2 3 4 5 6 
#
# 1 0.018748 -0.008478 -0.004814 0.000000 0.000000 0.000000
# 2 -0.008478 0.018748 -0.004814 0.000000 0.000000 0.000000
# 3 -0.004814 -0.004814 0.011938 0.000000 0.000000 0.000000
# 4 0.000000 0.000000 0.000000 0.022626 0.000000 0.000000
# 5 0.000000 0.000000 0.000000 0.000000 0.022626 0.000000
# 6 0.000000 0.000000 0.000000 0.000000 0.000000 0.041408
#
#
# Mechanical properties :
#
#
# Convention : Reuss Voigt Hill
#
# Bulk Modulus (GPa) = 75.63065 77.81203 76.72134
# Shear Modulus (GPa) = 28.29473 31.96192 30.12833
#
# Velocity S-wave (km/s) = 3.97509 4.22484 4.10187
# Velocity P-wave (km/s) = 7.95643 8.20083 8.07955
#
# Compressibility (1/GPa) = 0.01322215
#
# Stress axis : x y z
#
# Youngs Moduli (GPa) = 53.33959 53.33959 83.76646
#
# Poissons Ratio (x) = 0.45220 0.40325
# Poissons Ratio (y) = 0.45220 0.40325
# Poissons Ratio (z) = 0.25677 0.25677
#
# Static dielectric constant tensor:
#      x y z
#    x 4.592230 0.000000 0.000000 
#    y 0.000000 4.592230 0.000000 
#    z 0.000000 0.000000 3.479580 
# 
# 
# High freq. dielectric constant tensor:
#      x y z
#    x 1.689890 0.000000 0.000000 
#    y 0.000000 1.689890 0.000000 
#    z 0.000000 0.000000 1.707510 
# 
# From -- ./inp_files/1523.got.cif
#   From: 2010.03.12/outbox.cif.g09.slc.cpg/sg139_1_cif.got.tgz:1523.got - 2010.04.08 09:46:31.
