data_PCOD8319711
_publ_section_title
;
Structure prediction by ZEFSAII (Michael W. Deem and Ramdas Pophale) SiO2 
 PCOD8319711
Probable space group: I 4/M M M
;
_chemical_formula_sum "Si O2"
_cell_formula_units_Z 160
_cell_length_a 18.293899
_cell_length_b 18.293899
_cell_length_c 26.959305
_cell_angle_alpha 90.000000
_cell_angle_beta 90.000000
_cell_angle_gamma 90.000000
_cell_volume 9022.382734
_symmetry_space_group_name_H-M "I 4/M M M"
_symmetry_group_IT_number 139
_symmetry_cell_setting 'tetragonal'
loop_
_space_group_symop_operation_xyz
x,y,z
-y,x,z
-x,-y,z
y,-x,z
x,-y,-z
-x,y,-z
y,x,-z
-y,-x,-z
-x,-y,-z
y,-x,-z
x,y,-z
-y,x,-z
-x,y,z
x,-y,z
-y,-x,z
y,x,z
1/2+x,1/2+y,1/2+z
1/2-y,1/2+x,1/2+z
1/2-x,1/2-y,1/2+z
1/2+y,1/2-x,1/2+z
1/2+x,1/2-y,1/2-z
1/2-x,1/2+y,1/2-z
1/2+y,1/2+x,1/2-z
1/2-y,1/2-x,1/2-z
1/2-x,1/2-y,1/2-z
1/2+y,1/2-x,1/2-z
1/2+x,1/2+y,1/2-z
1/2-y,1/2+x,1/2-z
1/2-x,1/2+y,1/2+z
1/2+x,1/2-y,1/2+z
1/2-y,1/2-x,1/2+z
1/2+y,1/2+x,1/2+z
loop_
_atom_site_type_symbol
_atom_site_label
_atom_site_fract_x
_atom_site_fract_y
_atom_site_fract_z
Si Si1 0.914805 0.716569 0.801512
Si Si2 0.343525 0.917333 0.350467
Si Si3 0.797702 0.083218 0.296620
Si Si4 0.645550 0.916046 0.056017
Si Si5 0.701339 0.416685 0.400933
O O1 0.879493 0.637458 0.810952
O O2 0.886266 0.753453 0.751100
O O3 0.895615 0.771398 0.846109
O O4 0.000000 0.701366 0.798155
O O5 0.255743 0.911520 0.344184
O O6 0.363635 0.898613 0.407101
O O7 0.369103 0.000000 0.337915
O O8 0.868874 0.131127 0.306957
O O9 0.823678 0.000000 0.287280
O O10 0.732349 0.903985 0.060882
O O11 0.626763 0.000000 0.069824
O O12 0.621576 0.897574 0.000000
O O13 0.673399 0.500000 0.402829
O O14 0.634471 0.365530 0.416780
#
# Coordination Sequence:
#
# PCOD8319711 Si02
#       5
#    32  32  32  32  32
#     4   9  18  32  49  71 101 136 169 199 235 282
#     4  10  20  32  49  76 104 128 160 200 240 289
#     4  10  21  36  53  74 100 130 166 205 243 285
#     4   9  19  35  52  70  95 129 166 202 243 292
#     4   9  17  29  46  69  97 129 167 209 249 291
#
# _framework density 17.733675000000002
#
# number of rings (size 3 to 8) (size 9 to 14) (size 15 to 20)
#    0.000    2.600    0.000    3.000    0.000    7.600 
#    0.000    2.000    0.000   10.800    0.000    2.800 
#    0.000    0.000    0.000    4.400    0.000    0.000 
#
# Total GULP energy -991860.545610 kJ/mol
# GULP energy per Si atom -12398.256820 kJ/mol
# Density = 1.769331 g / cm^3
# Si number density = 17.733675 Si / 1000 Ang^3
#
#
#
# Elastic Constant Matrix: (Units=GPa)
#
#
# Indices 1 2 3 4 5 6 
#
# 1 89.8338 60.3473 33.2834 0.0000 0.0000 0.0000
# 2 60.3473 89.8338 33.2834 0.0000 0.0000 0.0000
# 3 33.2834 33.2834 89.2895 0.0000 0.0000 0.0000
# 4 0.0000 0.0000 0.0000 17.1702 0.0000 0.0000
# 5 0.0000 0.0000 0.0000 0.0000 17.1702 0.0000
# 6 0.0000 0.0000 0.0000 0.0000 0.0000 31.8142
#
#
#
# Elastic Compliance Matrix: (Units=1/GPa)
#
#
# Indices 1 2 3 4 5 6 
#
# 1 0.020945 -0.012969 -0.002973 0.000000 0.000000 0.000000
# 2 -0.012969 0.020945 -0.002973 0.000000 0.000000 0.000000
# 3 -0.002973 -0.002973 0.013416 0.000000 0.000000 0.000000
# 4 0.000000 0.000000 0.000000 0.058241 0.000000 0.000000
# 5 0.000000 0.000000 0.000000 0.000000 0.058241 0.000000
# 6 0.000000 0.000000 0.000000 0.000000 0.000000 0.031432
#
#
# Mechanical properties :
#
#
# Convention : Reuss Voigt Hill
#
# Bulk Modulus (GPa) = 57.22143 58.08727 57.65435
# Shear Modulus (GPa) = 20.25309 22.70045 21.47677
#
# Velocity S-wave (km/s) = 3.38312 3.58170 3.48382
# Velocity P-wave (km/s) = 6.89912 7.06620 6.98316
#
# Compressibility (1/GPa) = 0.01747597
#
# Stress axis : x y z
#
# Youngs Moduli (GPa) = 47.74371 47.74371 74.53682
#
# Poissons Ratio (x) = 0.61917 0.22162
# Poissons Ratio (y) = 0.61917 0.22162
# Poissons Ratio (z) = 0.14196 0.14196
#
# Static dielectric constant tensor:
#      x y z
#    x 3.151150 0.000000 0.000000 
#    y 0.000000 3.151150 0.000000 
#    z 0.000000 0.000000 3.317650 
# 
# 
# High freq. dielectric constant tensor:
#      x y z
#    x 1.675430 0.000000 0.000000 
#    y 0.000000 1.675430 0.000000 
#    z 0.000000 0.000000 1.676160 
# 
# From -- ./inp_files/12902.got.cif
#   From: 2010.03.12/outbox.cif.g09.slc.cpg/sg139_7_cif.got.tgz:12902.got - 2010.04.08 09:46:31.
