data_PCOD8319001
_publ_section_title
;
Structure prediction by ZEFSAII (Michael W. Deem and Ramdas Pophale) SiO2 
 PCOD8319001
Probable space group: P 42/N C M
;
_chemical_formula_sum "Si O2"
_cell_formula_units_Z 96
_cell_length_a 16.143809
_cell_length_b 16.143809
_cell_length_c 20.339849
_cell_angle_alpha 90.000000
_cell_angle_beta 90.000000
_cell_angle_gamma 90.000000
_cell_volume 5301.023700
_symmetry_space_group_name_H-M "P 42/N C M"
_symmetry_group_IT_number 138
_space_group.IT_coordinate_system_code '2'
_symmetry_cell_setting 'tetragonal'
loop_
_space_group_symop_operation_xyz
x,y,z
1/2-y,x,1/2+z
1/2-x,1/2-y,z
y,1/2-x,1/2+z
1/2+x,-y,1/2-z
-x,1/2+y,1/2-z
1/2+y,1/2+x,-z
-y,-x,-z
-x,-y,-z
1/2+y,-x,1/2-z
1/2+x,1/2+y,-z
-y,1/2+x,1/2-z
1/2-x,y,1/2+z
x,1/2-y,1/2+z
1/2-y,1/2-x,z
y,x,z
loop_
_atom_site_type_symbol
_atom_site_label
_atom_site_fract_x
_atom_site_fract_y
_atom_site_fract_z
Si Si1 0.451643 0.183414 0.200094
Si Si2 0.749326 0.615501 0.538746
Si Si3 0.951989 0.415111 0.789852
Si Si4 0.816575 0.953085 0.912496
Si Si5 0.003781 0.253692 0.340049
Si Si6 0.572337 0.438913 0.141292
O O1 0.368609 0.131392 0.188959
O O2 0.532451 0.127381 0.187966
O O3 0.455149 0.256730 0.149096
O O4 0.449441 0.218121 0.274128
O O5 0.831285 0.668716 0.551570
O O6 0.672720 0.672720 0.517095
O O7 0.765661 0.549248 0.480536
O O8 0.726540 0.569898 0.605818
O O9 0.947225 0.326467 0.825680
O O10 0.949177 0.400328 0.711927
O O11 0.036435 0.463566 0.808682
O O12 0.870409 0.870409 0.905149
O O13 0.875626 0.034426 0.912398
O O14 0.947936 0.329098 0.368389
O O15 0.529697 0.529697 0.134687
#
# Coordination Sequence:
#
# PCOD8319001 Si02
#       6
#    16  16  16  16  16  16
#     4  10  20  34  55  80 106 140 184 225 265 320
#     4  10  21  34  50  80 115 141 175 226 277 326
#     4   9  18  33  52  78 110 138 175 228 270 316
#     4  10  20  36  55  75 109 146 178 221 270 324
#     4  11  19  33  55  77 106 142 177 224 275 317
#     4   9  18  33  53  78 105 139 185 225 262 316
#
# _framework density 18.10971
#
# number of rings (size 3 to 8) (size 9 to 14) (size 15 to 20)
#    0.000    2.167    1.667    3.500    0.000    2.333 
#    0.000    4.167    0.000    3.000    0.000    2.333 
#    0.000    0.000    0.000    0.000    0.000    0.000 
#
# Total GULP energy -1190440.877661 kJ/mol
# GULP energy per Si atom -12400.425809 kJ/mol
# Density = 1.806849 g / cm^3
# Si number density = 18.109710 Si / 1000 Ang^3
#
#
#
# Elastic Constant Matrix: (Units=GPa)
#
#
# Indices 1 2 3 4 5 6 
#
# 1 91.9755 27.0226 32.6446 0.0000 0.0000 0.0000
# 2 27.0226 91.9755 32.6446 0.0000 0.0000 0.0000
# 3 32.6446 32.6446 67.0451 0.0000 0.0000 0.0000
# 4 0.0000 0.0000 0.0000 23.1085 0.0000 0.0000
# 5 0.0000 0.0000 0.0000 0.0000 23.1085 0.0000
# 6 0.0000 0.0000 0.0000 0.0000 0.0000 18.3836
#
#
#
# Elastic Compliance Matrix: (Units=1/GPa)
#
#
# Indices 1 2 3 4 5 6 
#
# 1 0.013431 -0.001964 -0.005583 0.000000 0.000000 0.000000
# 2 -0.001964 0.013431 -0.005583 0.000000 0.000000 0.000000
# 3 -0.005583 -0.005583 0.020352 0.000000 0.000000 0.000000
# 4 0.000000 0.000000 0.000000 0.043274 0.000000 0.000000
# 5 0.000000 0.000000 0.000000 0.000000 0.043274 0.000000
# 6 0.000000 0.000000 0.000000 0.000000 0.000000 0.054396
#
#
# Mechanical properties :
#
#
# Convention : Reuss Voigt Hill
#
# Bulk Modulus (GPa) = 47.72591 48.40217 48.06404
# Shear Modulus (GPa) = 22.58298 23.49908 23.04103
#
# Velocity S-wave (km/s) = 3.53513 3.60612 3.57080
# Velocity P-wave (km/s) = 6.56307 6.64259 6.60295
#
# Compressibility (1/GPa) = 0.02095298
#
# Stress axis : x y z
#
# Youngs Moduli (GPa) = 74.45310 74.45310 49.13437
#
# Poissons Ratio (x) = 0.14626 0.27433
# Poissons Ratio (y) = 0.14626 0.27433
# Poissons Ratio (z) = 0.41569 0.41569
#
# Static dielectric constant tensor:
#      x y z
#    x 3.292230 0.000000 0.000000 
#    y 0.000000 3.292230 0.000000 
#    z 0.000000 0.000000 3.277290 
# 
# 
# High freq. dielectric constant tensor:
#      x y z
#    x 1.692610 0.000000 0.000000 
#    y 0.000000 1.692610 0.000000 
#    z 0.000000 0.000000 1.694500 
# 
# From -- ./inp_files/6240.got.cif
#   From: 2010.03.12/outbox.cif.g09.slc.cpg/sg138_4_cif.got.tgz:6240.got - 2010.04.08 09:41:05.
