data_PCOD8319065
_publ_section_title
;
Structure prediction by ZEFSAII (Michael W. Deem and Ramdas Pophale) SiO2 
 PCOD8319065
Probable space group: P 42/N C M
;
_chemical_formula_sum "Si O2"
_cell_formula_units_Z 96
_cell_length_a 14.306709
_cell_length_b 14.306709
_cell_length_c 24.659384
_cell_angle_alpha 90.000000
_cell_angle_beta 90.000000
_cell_angle_gamma 90.000000
_cell_volume 5047.330123
_symmetry_space_group_name_H-M "P 42/N C M"
_symmetry_group_IT_number 138
_space_group.IT_coordinate_system_code '2'
_symmetry_cell_setting 'tetragonal'
loop_
_space_group_symop_operation_xyz
x,y,z
1/2-y,x,1/2+z
1/2-x,1/2-y,z
y,1/2-x,1/2+z
1/2+x,-y,1/2-z
-x,1/2+y,1/2-z
1/2+y,1/2+x,-z
-y,-x,-z
-x,-y,-z
1/2+y,-x,1/2-z
1/2+x,1/2+y,-z
-y,1/2+x,1/2-z
1/2-x,y,1/2+z
x,1/2-y,1/2+z
1/2-y,1/2-x,z
y,x,z
loop_
_atom_site_type_symbol
_atom_site_label
_atom_site_fract_x
_atom_site_fract_y
_atom_site_fract_z
Si Si1 0.173632 0.173632 0.789862
Si Si2 0.919346 0.580655 0.554598
Si Si3 0.170996 0.329005 0.170157
Si Si4 0.571066 0.571066 0.936769
Si Si5 0.495730 0.694789 0.145831
Si Si6 0.056069 0.907826 0.771466
Si Si7 0.996730 0.274406 0.642124
Si Si8 0.176279 0.669507 0.826458
O O1 0.250000 0.250000 0.781394
O O2 0.140390 0.140390 0.730643
O O3 0.086911 0.223061 0.819948
O O4 0.887587 0.612414 0.493903
O O5 0.831974 0.533648 0.586352
O O6 0.996300 0.503700 0.546890
O O7 0.250000 0.250000 0.168540
O O8 0.202308 0.419460 0.137694
O O9 0.515656 0.650299 0.904162
O O10 0.451135 0.605828 0.175746
O O11 0.418789 0.777177 0.142694
O O12 0.001363 0.819404 0.797004
O O13 0.131951 0.875461 0.727510
O O14 0.982318 0.982318 0.746626
O O15 0.899156 0.218403 0.633689
O O16 0.250000 0.750000 0.809759
#
# Coordination Sequence:
#
# PCOD8319065 Si02
#       8
#     8   8   8   8  16  16  16  16
#     4  10  21  37  57  80 118 162 199 250 290 365
#     4  10  20  40  69  83 109 150 217 270 311 348
#     4  11  21  37  57  85 125 157 200 243 303 366
#     4  11  20  41  64  88 106 156 211 275 314 341
#     4  11  21  38  56  87 119 161 200 253 299 373
#     4  12  21  36  57  86 126 168 205 235 300 375
#     4  12  23  37  57  89 122 161 204 259 302 379
#     4  12  25  35  57  90 135 169 198 239 317 385
#
# _framework density 19.019957999999999
#
# number of rings (size 3 to 8) (size 9 to 14) (size 15 to 20)
#    0.000    0.667    6.667    3.000    3.500    2.000 
#    0.000    0.833    7.333    3.000    0.000    1.167 
#    0.000    0.000    0.000    0.000    0.000    0.000 
#
# Total GULP energy -1189958.393195 kJ/mol
# GULP energy per Si atom -12395.399929 kJ/mol
# Density = 1.897667 g / cm^3
# Si number density = 19.019958 Si / 1000 Ang^3
#
#
#
# Elastic Constant Matrix: (Units=GPa)
#
#
# Indices 1 2 3 4 5 6 
#
# 1 -26.7740 183.5457 33.2901 0.0000 0.0000 0.0000
# 2 183.5457 -26.7740 33.2901 0.0000 0.0000 0.0000
# 3 33.2901 33.2901 94.1469 0.0000 0.0000 0.0000
# 4 0.0000 0.0000 0.0000 34.1261 0.0000 0.0000
# 5 0.0000 0.0000 0.0000 0.0000 34.1261 0.0000
# 6 0.0000 0.0000 0.0000 0.0000 0.0000 50.2101
#
#
#
# Elastic Compliance Matrix: (Units=1/GPa)
#
#
# Indices 1 2 3 4 5 6 
#
# 1 0.001376 0.006130 -0.002654 0.000000 0.000000 0.000000
# 2 0.006130 0.001376 -0.002654 0.000000 0.000000 0.000000
# 3 -0.002654 -0.002654 0.012499 0.000000 0.000000 0.000000
# 4 0.000000 0.000000 0.000000 0.029303 0.000000 0.000000
# 5 0.000000 0.000000 0.000000 0.000000 0.029303 0.000000
# 6 0.000000 0.000000 0.000000 0.000000 0.000000 0.019916
#
#
# Mechanical properties :
#
#
# Convention : Reuss Voigt Hill
#
# Bulk Modulus (GPa) = 59.19211 60.09453 59.64332
# Shear Modulus (GPa) = 51.14600 9.72399 30.43499
#
# Velocity S-wave (km/s) = 5.19125 2.26354 4.00454
# Velocity P-wave (km/s) = 8.19272 6.20448 7.26692
#
# Compressibility (1/GPa) = 0.01689414
#
# Stress axis : x y z
#
# Youngs Moduli (GPa) = 726.95505 726.95505 80.00878
#
# Poissons Ratio (x) = -4.45643 0.21235
# Poissons Ratio (y) = -4.45643 0.21235
# Poissons Ratio (z) = 1.92938 1.92938
#
# Static dielectric constant tensor:
#      x y z
#    x 3.930180 0.000000 0.000000 
#    y 0.000000 3.930180 0.000000 
#    z 0.000000 0.000000 3.392940 
# 
# 
# High freq. dielectric constant tensor:
#      x y z
#    x 1.746780 0.000000 0.000000 
#    y 0.000000 1.746780 0.000000 
#    z 0.000000 0.000000 1.694130 
# 
# From -- ./inp_files/7547.got.cif
#   From: 2010.03.12/outbox.cif.g09.slc.cpg/sg138_4_cif.got.tgz:7547.got - 2010.04.08 09:41:05.
