data_PCOD8319076
_publ_section_title
;
Structure prediction by ZEFSAII (Michael W. Deem and Ramdas Pophale) SiO2 
 PCOD8319076
Probable space group: P 42/N C M
;
_chemical_formula_sum "Si O2"
_cell_formula_units_Z 80
_cell_length_a 16.649551
_cell_length_b 16.649551
_cell_length_c 14.966218
_cell_angle_alpha 90.000000
_cell_angle_beta 90.000000
_cell_angle_gamma 90.000000
_cell_volume 4148.748602
_symmetry_space_group_name_H-M "P 42/N C M"
_symmetry_group_IT_number 138
_space_group.IT_coordinate_system_code '2'
_symmetry_cell_setting 'tetragonal'
loop_
_space_group_symop_operation_xyz
x,y,z
1/2-y,x,1/2+z
1/2-x,1/2-y,z
y,1/2-x,1/2+z
1/2+x,-y,1/2-z
-x,1/2+y,1/2-z
1/2+y,1/2+x,-z
-y,-x,-z
-x,-y,-z
1/2+y,-x,1/2-z
1/2+x,1/2+y,-z
-y,1/2+x,1/2-z
1/2-x,y,1/2+z
x,1/2-y,1/2+z
1/2-y,1/2-x,z
y,x,z
loop_
_atom_site_type_symbol
_atom_site_label
_atom_site_fract_x
_atom_site_fract_y
_atom_site_fract_z
Si Si1 0.050770 0.580901 0.212841
Si Si2 0.748293 0.622565 0.988502
Si Si3 0.456496 0.321857 0.668784
Si Si4 0.481038 0.242111 0.848434
Si Si5 0.409126 0.539618 0.903581
O O1 0.133264 0.542670 0.173719
O O2 0.057682 0.592795 0.320702
O O3 0.975010 0.524991 0.189574
O O4 0.038814 0.665513 0.163678
O O5 0.804274 0.695727 0.960436
O O6 0.655678 0.655678 0.986494
O O7 0.763550 0.550681 0.917339
O O8 0.775365 0.592823 0.085789
O O9 0.389519 0.389519 0.669442
O O10 0.443285 0.265390 0.753830
O O11 0.531142 0.314131 0.892512
O O12 0.452533 0.452533 0.898985
O O13 0.421036 0.578965 0.000000
#
# Coordination Sequence:
#
# PCOD8319076 Si02
#       5
#    16  16  16  16  16
#     4   9  19  35  56  84 113 153 196 236 293 353
#     4  10  21  34  52  83 117 152 190 233 298 364
#     4   9  20  38  54  77 118 155 192 240 292 356
#     4  11  20  33  57  85 112 146 192 245 295 344
#     4   9  19  36  58  84 114 149 200 255 296 349
#
# _framework density 19.282923
#
# number of rings (size 3 to 8) (size 9 to 14) (size 15 to 20)
#    0.000    2.400    0.000    3.600    2.800    2.400 
#    0.000    5.000    0.000    9.600    0.000    0.000 
#    0.000    0.000    0.000    0.000    0.000    0.000 
#
# Total GULP energy -991589.699965 kJ/mol
# GULP energy per Si atom -12394.871250 kJ/mol
# Density = 1.923903 g / cm^3
# Si number density = 19.282923 Si / 1000 Ang^3
#
#
#
# Elastic Constant Matrix: (Units=GPa)
#
#
# Indices 1 2 3 4 5 6 
#
# 1 93.8210 36.5419 64.1566 0.0000 0.0000 0.0000
# 2 36.5419 93.8209 64.1564 0.0000 0.0000 0.0000
# 3 64.1566 64.1564 135.6056 0.0000 0.0000 0.0000
# 4 0.0000 0.0000 0.0000 29.0498 0.0000 0.0000
# 5 0.0000 0.0000 0.0000 0.0000 29.0494 0.0000
# 6 0.0000 0.0000 0.0000 0.0000 0.0000 22.0928
#
#
#
# Elastic Compliance Matrix: (Units=1/GPa)
#
#
# Indices 1 2 3 4 5 6 
#
# 1 0.015907 -0.001551 -0.006792 0.000000 0.000000 0.000000
# 2 -0.001551 0.015907 -0.006792 0.000000 0.000000 0.000000
# 3 -0.006792 -0.006792 0.013801 0.000000 0.000000 0.000000
# 4 0.000000 0.000000 0.000000 0.034424 0.000000 0.000000
# 5 0.000000 0.000000 0.000000 0.000000 0.034424 0.000000
# 6 0.000000 0.000000 0.000000 0.000000 0.000000 0.045264
#
#
# Mechanical properties :
#
#
# Convention : Reuss Voigt Hill
#
# Bulk Modulus (GPa) = 65.16693 72.55082 68.85888
# Shear Modulus (GPa) = 25.62622 26.59789 26.11206
#
# Velocity S-wave (km/s) = 3.64944 3.71799 3.68388
# Velocity P-wave (km/s) = 7.18515 7.49248 7.34043
#
# Compressibility (1/GPa) = 0.01534521
#
# Stress axis : x y z
#
# Youngs Moduli (GPa) = 62.86431 62.86435 72.45787
#
# Poissons Ratio (x) = 0.09751 0.49214
# Poissons Ratio (y) = 0.09751 0.49214
# Poissons Ratio (z) = 0.42698 0.42698
#
# Static dielectric constant tensor:
#      x y z
#    x 3.413240 0.000000 0.000000 
#    y 0.000000 3.413240 0.000000 
#    z 0.000000 0.000000 3.755270 
# 
# 
# High freq. dielectric constant tensor:
#      x y z
#    x 1.731390 0.000000 0.000000 
#    y 0.000000 1.731390 0.000000 
#    z 0.000000 0.000000 1.762980 
# 
# From -- ./inp_files/4068.got.cif
#   From: 2010.03.12/outbox.cif.g09.slc.cpg/sg138_3_cif.got.tgz:4068.got - 2010.04.08 09:41:05.
