data_PCOD8319624
_publ_section_title
;
Structure prediction by ZEFSAII (Michael W. Deem and Ramdas Pophale) SiO2 
 PCOD8319624
Probable space group: I 4/M M M
;
_chemical_formula_sum "Si O2"
_cell_formula_units_Z 176
_cell_length_a 18.481375
_cell_length_b 18.481375
_cell_length_c 27.205789
_cell_angle_alpha 90.000000
_cell_angle_beta 90.000000
_cell_angle_gamma 90.000000
_cell_volume 9292.442533
_symmetry_space_group_name_H-M "I 4/M M M"
_symmetry_group_IT_number 139
_symmetry_cell_setting 'tetragonal'
loop_
_space_group_symop_operation_xyz
x,y,z
-y,x,z
-x,-y,z
y,-x,z
x,-y,-z
-x,y,-z
y,x,-z
-y,-x,-z
-x,-y,-z
y,-x,-z
x,y,-z
-y,x,-z
-x,y,z
x,-y,z
-y,-x,z
y,x,z
1/2+x,1/2+y,1/2+z
1/2-y,1/2+x,1/2+z
1/2-x,1/2-y,1/2+z
1/2+y,1/2-x,1/2+z
1/2+x,1/2-y,1/2-z
1/2-x,1/2+y,1/2-z
1/2+y,1/2+x,1/2-z
1/2-y,1/2-x,1/2-z
1/2-x,1/2-y,1/2-z
1/2+y,1/2-x,1/2-z
1/2+x,1/2+y,1/2-z
1/2-y,1/2+x,1/2-z
1/2-x,1/2+y,1/2+z
1/2+x,1/2-y,1/2+z
1/2-y,1/2-x,1/2+z
1/2+y,1/2+x,1/2+z
loop_
_atom_site_type_symbol
_atom_site_label
_atom_site_fract_x
_atom_site_fract_y
_atom_site_fract_z
Si Si1 0.581203 0.781636 0.943685
Si Si2 0.802536 0.080939 0.650312
Si Si3 0.697610 0.582289 0.500000
Si Si4 0.773976 0.344323 0.587460
Si Si5 0.301288 0.917827 0.265649
Si Si6 0.916661 0.201527 0.824603
O O1 0.500000 0.815696 0.939662
O O2 0.586103 0.712020 0.908096
O O3 0.640874 0.838094 0.924395
O O4 0.597445 0.758121 0.000000
O O5 0.867052 0.132948 0.665707
O O6 0.729288 0.102360 0.680152
O O7 0.825863 0.000000 0.665455
O O8 0.677178 0.500000 0.500000
O O9 0.621509 0.621509 0.500000
O O10 0.742616 0.601169 0.452061
O O11 0.734398 0.265603 0.584358
O O12 0.761851 0.380908 0.640130
O O13 0.366275 0.866275 0.250000
O O14 0.232675 0.909086 0.229917
O O15 0.330999 0.000000 0.264278
O O16 0.874270 0.125731 0.829252
O O17 0.000000 0.187289 0.838939
#
# Coordination Sequence:
#
# PCOD8319624 Si02
#       6
#    32  32  16  32  32  32
#     4  10  20  34  54  80 108 138 178 231 279 323
#     4  10  21  35  53  79 110 144 182 225 273 325
#     4  10  20  33  51  75 103 135 172 214 260 312
#     4  10  19  33  54  78 104 139 180 220 265 318
#     4  10  21  37  56  81 112 144 181 225 269 319
#     4  10  21  36  56  82 111 144 182 224 270 319
#
# _framework density 18.940121999999999
#
# number of rings (size 3 to 8) (size 9 to 14) (size 15 to 20)
#    0.000    2.000    0.909    2.727    0.000    4.636 
#    0.000    0.000    0.000   10.364    0.000    2.545 
#    0.000    0.000    0.000    0.000    0.000    0.000 
#
# Total GULP energy -1091038.454272 kJ/mol
# GULP energy per Si atom -12398.164253 kJ/mol
# Density = 1.889701 g / cm^3
# Si number density = 18.940122 Si / 1000 Ang^3
#
#
#
# Elastic Constant Matrix: (Units=GPa)
#
#
# Indices 1 2 3 4 5 6 
#
# 1 126.6870 69.6317 37.0385 0.0000 0.0000 0.0000
# 2 69.6317 126.6870 37.0385 0.0000 0.0000 0.0000
# 3 37.0385 37.0385 102.3915 0.0000 0.0000 0.0000
# 4 0.0000 0.0000 0.0000 29.3523 0.0000 0.0000
# 5 0.0000 0.0000 0.0000 0.0000 29.3523 0.0000
# 6 0.0000 0.0000 0.0000 0.0000 0.0000 22.2912
#
#
#
# Elastic Compliance Matrix: (Units=1/GPa)
#
#
# Indices 1 2 3 4 5 6 
#
# 1 0.011713 -0.005814 -0.002134 0.000000 0.000000 0.000000
# 2 -0.005814 0.011713 -0.002134 0.000000 0.000000 0.000000
# 3 -0.002134 -0.002134 0.011310 0.000000 0.000000 0.000000
# 4 0.000000 0.000000 0.000000 0.034069 0.000000 0.000000
# 5 0.000000 0.000000 0.000000 0.000000 0.034069 0.000000
# 6 0.000000 0.000000 0.000000 0.000000 0.000000 0.044861
#
#
# Mechanical properties :
#
#
# Convention : Reuss Voigt Hill
#
# Bulk Modulus (GPa) = 68.62157 71.46477 70.04317
# Shear Modulus (GPa) = 28.94266 30.33627 29.63947
#
# Velocity S-wave (km/s) = 3.91335 4.00646 3.96018
# Velocity P-wave (km/s) = 7.53183 7.69520 7.61396
#
# Compressibility (1/GPa) = 0.01457268
#
# Stress axis : x y z
#
# Youngs Moduli (GPa) = 85.37607 85.37607 88.41574
#
# Poissons Ratio (x) = 0.49637 0.18867
# Poissons Ratio (y) = 0.49637 0.18867
# Poissons Ratio (z) = 0.18218 0.18218
#
# Static dielectric constant tensor:
#      x y z
#    x 3.329820 0.000000 0.000000 
#    y 0.000000 3.329820 0.000000 
#    z 0.000000 0.000000 3.757900 
# 
# 
# High freq. dielectric constant tensor:
#      x y z
#    x 1.722220 0.000000 0.000000 
#    y 0.000000 1.722220 0.000000 
#    z 0.000000 0.000000 1.759350 
# 
# From -- ./inp_files/13134.got.cif
#   From: 2010.03.12/outbox.cif.g09.slc.cpg/sg139_7_cif.got.tgz:13134.got - 2010.04.08 09:46:31.
