data_PCOD8319932
_publ_section_title
;
Structure prediction by ZEFSAII (Michael W. Deem and Ramdas Pophale) SiO2 
 PCOD8319932
Probable space group: I 4/M M M
;
_chemical_formula_sum "Si O2"
_cell_formula_units_Z 160
_cell_length_a 22.308032
_cell_length_b 22.308032
_cell_length_c 17.467329
_cell_angle_alpha 90.000000
_cell_angle_beta 90.000000
_cell_angle_gamma 90.000000
_cell_volume 8692.586438
_symmetry_space_group_name_H-M "I 4/M M M"
_symmetry_group_IT_number 139
_symmetry_cell_setting 'tetragonal'
loop_
_space_group_symop_operation_xyz
x,y,z
-y,x,z
-x,-y,z
y,-x,z
x,-y,-z
-x,y,-z
y,x,-z
-y,-x,-z
-x,-y,-z
y,-x,-z
x,y,-z
-y,x,-z
-x,y,z
x,-y,z
-y,-x,z
y,x,z
1/2+x,1/2+y,1/2+z
1/2-y,1/2+x,1/2+z
1/2-x,1/2-y,1/2+z
1/2+y,1/2-x,1/2+z
1/2+x,1/2-y,1/2-z
1/2-x,1/2+y,1/2-z
1/2+y,1/2+x,1/2-z
1/2-y,1/2-x,1/2-z
1/2-x,1/2-y,1/2-z
1/2+y,1/2-x,1/2-z
1/2+x,1/2+y,1/2-z
1/2-y,1/2+x,1/2-z
1/2-x,1/2+y,1/2+z
1/2+x,1/2-y,1/2+z
1/2-y,1/2-x,1/2+z
1/2+y,1/2+x,1/2+z
loop_
_atom_site_type_symbol
_atom_site_label
_atom_site_fract_x
_atom_site_fract_y
_atom_site_fract_z
Si Si1 0.630426 0.887331 0.336891
Si Si2 0.332666 0.569366 0.000000
Si Si3 0.568890 0.224174 0.411184
Si Si4 0.333433 0.431100 0.302834
Si Si5 0.000000 0.432505 0.409515
Si Si6 0.430316 0.261086 0.847671
O O1 0.608421 0.891579 0.250000
O O2 0.611387 0.825213 0.374491
O O3 0.702005 0.890262 0.341286
O O4 0.601343 0.941214 0.382849
O O5 0.293722 0.586005 0.073751
O O6 0.351368 0.500000 0.000000
O O7 0.393963 0.606037 0.000000
O O8 0.584176 0.231609 0.500000
O O9 0.500000 0.204408 0.398183
O O10 0.581889 0.287144 0.370907
O O11 0.353885 0.500000 0.302392
O O12 0.392196 0.392196 0.317446
O O13 0.304344 0.413345 0.221958
O O14 0.000000 0.500000 0.376852
O O15 0.000000 0.432869 0.500000
O O16 0.500000 0.242475 0.843977
#
# Coordination Sequence:
#
# PCOD8319932 Si02
#       6
#    32  16  32  32  16  32
#     4  12  23  36  61  86 119 164 209 250 295 349
#     4  10  22  39  64  90 120 156 196 248 307 371
#     4  10  22  40  61  85 120 163 202 242 296 356
#     4  10  21  40  65  90 119 151 192 245 304 367
#     4  11  26  38  54  88 126 158 206 266 303 344
#     4  10  21  38  58  86 121 163 201 241 300 362
#
# _framework density 18.406489000000001
#
# number of rings (size 3 to 8) (size 9 to 14) (size 15 to 20)
#    0.000    1.500    3.000    1.800    5.600    2.300 
#    0.000    3.000    0.000    3.600    0.000    2.800 
#    0.000    0.000    0.000    0.000    0.000    0.000 
#
# Total GULP energy -992466.751754 kJ/mol
# GULP energy per Si atom -12405.834397 kJ/mol
# Density = 1.836460 g / cm^3
# Si number density = 18.406489 Si / 1000 Ang^3
#
#
#
# Elastic Constant Matrix: (Units=GPa)
#
#
# Indices 1 2 3 4 5 6 
#
# 1 100.1894 78.8416 39.1173 0.0000 0.0000 0.0000
# 2 78.8416 100.1898 39.1180 0.0000 0.0000 0.0000
# 3 39.1173 39.1180 123.3929 0.0000 0.0000 0.0000
# 4 0.0000 0.0000 0.0000 22.9527 0.0000 0.0000
# 5 0.0000 0.0000 0.0000 0.0000 22.9531 0.0000
# 6 0.0000 0.0000 0.0000 0.0000 0.0000 39.9311
#
#
#
# Elastic Compliance Matrix: (Units=1/GPa)
#
#
# Indices 1 2 3 4 5 6 
#
# 1 0.026663 -0.020179 -0.002055 0.000000 0.000000 0.000000
# 2 -0.020179 0.026663 -0.002056 0.000000 0.000000 0.000000
# 3 -0.002055 -0.002056 0.009407 0.000000 0.000000 0.000000
# 4 0.000000 0.000000 0.000000 0.043568 0.000000 0.000000
# 5 0.000000 0.000000 0.000000 0.000000 0.043567 0.000000
# 6 0.000000 0.000000 0.000000 0.000000 0.000000 0.025043
#
#
# Mechanical properties :
#
#
# Convention : Reuss Voigt Hill
#
# Bulk Modulus (GPa) = 70.65547 70.88065 70.76806
# Shear Modulus (GPa) = 21.90957 28.28040 25.09498
#
# Velocity S-wave (km/s) = 3.45384 3.92399 3.69640
# Velocity P-wave (km/s) = 7.37393 7.68911 7.53317
#
# Compressibility (1/GPa) = 0.01415319
#
# Stress axis : x y z
#
# Youngs Moduli (GPa) = 37.50469 37.50464 106.29874
#
# Poissons Ratio (x) = 0.75682 0.21848
# Poissons Ratio (y) = 0.75683 0.21851
# Poissons Ratio (z) = 0.07709 0.07710
#
# Static dielectric constant tensor:
#      x y z
#    x 3.294810 0.000000 0.000000 
#    y 0.000000 3.294800 0.000000 
#    z 0.000000 0.000000 3.621310 
# 
# 
# High freq. dielectric constant tensor:
#      x y z
#    x 1.708110 0.000000 0.000000 
#    y 0.000000 1.708110 0.000000 
#    z 0.000000 0.000000 1.734650 
# 
# From -- ./inp_files/8422.got.cif
#   From: 2010.03.12/outbox.cif.g09.slc.cpg/sg139_5_cif.got.tgz:8422.got - 2010.04.08 09:46:31.
