data_PCOD8319643
_publ_section_title
;
Structure prediction by ZEFSAII (Michael W. Deem and Ramdas Pophale) SiO2 
 PCOD8319643
Probable space group: I 4/M M M
;
_chemical_formula_sum "Si O2"
_cell_formula_units_Z 104
_cell_length_a 16.837618
_cell_length_b 16.837618
_cell_length_c 20.026555
_cell_angle_alpha 90.000000
_cell_angle_beta 90.000000
_cell_angle_gamma 90.000000
_cell_volume 5677.636084
_symmetry_space_group_name_H-M "I 4/M M M"
_symmetry_group_IT_number 139
_symmetry_cell_setting 'tetragonal'
loop_
_space_group_symop_operation_xyz
x,y,z
-y,x,z
-x,-y,z
y,-x,z
x,-y,-z
-x,y,-z
y,x,-z
-y,-x,-z
-x,-y,-z
y,-x,-z
x,y,-z
-y,x,-z
-x,y,z
x,-y,z
-y,-x,z
y,x,z
1/2+x,1/2+y,1/2+z
1/2-y,1/2+x,1/2+z
1/2-x,1/2-y,1/2+z
1/2+y,1/2-x,1/2+z
1/2+x,1/2-y,1/2-z
1/2-x,1/2+y,1/2-z
1/2+y,1/2+x,1/2-z
1/2-y,1/2-x,1/2-z
1/2-x,1/2-y,1/2-z
1/2+y,1/2-x,1/2-z
1/2+x,1/2+y,1/2-z
1/2-y,1/2+x,1/2-z
1/2-x,1/2+y,1/2+z
1/2+x,1/2-y,1/2+z
1/2-y,1/2-x,1/2+z
1/2+y,1/2+x,1/2+z
loop_
_atom_site_type_symbol
_atom_site_label
_atom_site_fract_x
_atom_site_fract_y
_atom_site_fract_z
Si Si1 0.822717 0.587416 0.922846
Si Si2 0.129563 0.000000 0.000000
Si Si3 0.636669 0.000000 0.923450
Si Si4 0.161286 0.161286 0.788513
Si Si5 0.784103 0.215898 0.652574
Si Si6 0.000000 0.206600 0.144164
O O1 0.795009 0.500000 0.898541
O O2 0.769148 0.653925 0.888251
O O3 0.918092 0.589535 0.910716
O O4 0.804721 0.599368 0.000000
O O5 0.178331 0.000000 0.932201
O O6 0.079055 0.920946 0.000000
O O7 0.699837 0.000000 0.863988
O O8 0.669861 0.000000 0.000000
O O9 0.167099 0.167099 0.708388
O O10 0.222607 0.222607 0.818171
O O11 0.073806 0.179374 0.812958
#
# Coordination Sequence:
#
# PCOD8319643 Si02
#       6
#    32   8  16  16  16  16
#     4  10  21  38  63  92 121 153 197 250 302 354
#     4  11  22  34  54  86 123 156 194 238 291 362
#     4  10  19  33  60  94 124 152 187 242 303 354
#     4  11  26  38  59  85 119 162 205 241 286 362
#     4  11  23  42  59  86 116 161 204 246 296 349
#     4  12  21  39  58  88 122 159 198 240 294 355
#
# _framework density 18.317484
#
# number of rings (size 3 to 8) (size 9 to 14) (size 15 to 20)
#    0.000    1.308    5.385    0.923    2.154    2.154 
#    2.769    0.000    0.000    0.462    0.000    2.154 
#    0.000    0.000    0.000    0.000    0.000    0.000 
#
# Total GULP energy -644273.653453 kJ/mol
# GULP energy per Si atom -12389.877951 kJ/mol
# Density = 1.827579 g / cm^3
# Si number density = 18.317484 Si / 1000 Ang^3
#
#
#
# Elastic Constant Matrix: (Units=GPa)
#
#
# Indices 1 2 3 4 5 6 
#
# 1 120.2302 43.7776 53.4225 0.0000 0.0000 0.0000
# 2 43.7776 120.2305 53.4224 0.0000 0.0000 0.0000
# 3 53.4225 53.4224 87.2188 0.0000 0.0000 0.0000
# 4 0.0000 0.0000 0.0000 35.3432 0.0000 0.0000
# 5 0.0000 0.0000 0.0000 0.0000 35.3475 0.0000
# 6 0.0000 0.0000 0.0000 0.0000 0.0000 28.2763
#
#
#
# Elastic Compliance Matrix: (Units=1/GPa)
#
#
# Indices 1 2 3 4 5 6 
#
# 1 0.011613 -0.001467 -0.006214 0.000000 0.000000 0.000000
# 2 -0.001467 0.011613 -0.006214 0.000000 0.000000 0.000000
# 3 -0.006214 -0.006214 0.019078 0.000000 0.000000 0.000000
# 4 0.000000 0.000000 0.000000 0.028294 0.000000 0.000000
# 5 0.000000 0.000000 0.000000 0.000000 0.028291 0.000000
# 6 0.000000 0.000000 0.000000 0.000000 0.000000 0.035365
#
#
# Mechanical properties :
#
#
# Convention : Reuss Voigt Hill
#
# Bulk Modulus (GPa) = 68.90793 69.88049 69.39421
# Shear Modulus (GPa) = 29.96120 31.59721 30.77920
#
# Velocity S-wave (km/s) = 4.04872 4.15779 4.10362
# Velocity P-wave (km/s) = 7.71729 7.82828 7.77298
#
# Compressibility (1/GPa) = 0.01451212
#
# Stress axis : x y z
#
# Youngs Moduli (GPa) = 86.11161 86.11196 52.41616
#
# Poissons Ratio (x) = 0.12634 0.32573
# Poissons Ratio (y) = 0.12634 0.32573
# Poissons Ratio (z) = 0.53513 0.53513
#
# Static dielectric constant tensor:
#      x y z
#    x 3.449870 0.000000 0.000000 
#    y 0.000000 3.449860 0.000000 
#    z 0.000000 0.000000 3.140050 
# 
# 
# High freq. dielectric constant tensor:
#      x y z
#    x 1.717590 0.000000 0.000000 
#    y 0.000000 1.717590 0.000000 
#    z 0.000000 0.000000 1.702230 
# 
# From -- ./inp_files/7488.got.cif
#   From: 2010.03.12/outbox.cif.g09.slc.cpg/sg139_4_cif.got.tgz:7488.got - 2010.04.08 09:46:31.
