data_PCOD8319669
_publ_section_title
;
Structure prediction by ZEFSAII (Michael W. Deem and Ramdas Pophale) SiO2 
 PCOD8319669
Probable space group: I 4/M M M
;
_chemical_formula_sum "Si O2"
_cell_formula_units_Z 144
_cell_length_a 28.672349
_cell_length_b 28.672349
_cell_length_c 9.266522
_cell_angle_alpha 90.000000
_cell_angle_beta 90.000000
_cell_angle_gamma 90.000000
_cell_volume 7618.041070
_symmetry_space_group_name_H-M "I 4/M M M"
_symmetry_group_IT_number 139
_symmetry_cell_setting 'tetragonal'
loop_
_space_group_symop_operation_xyz
x,y,z
-y,x,z
-x,-y,z
y,-x,z
x,-y,-z
-x,y,-z
y,x,-z
-y,-x,-z
-x,-y,-z
y,-x,-z
x,y,-z
-y,x,-z
-x,y,z
x,-y,z
-y,-x,z
y,x,z
1/2+x,1/2+y,1/2+z
1/2-y,1/2+x,1/2+z
1/2-x,1/2-y,1/2+z
1/2+y,1/2-x,1/2+z
1/2+x,1/2-y,1/2-z
1/2-x,1/2+y,1/2-z
1/2+y,1/2+x,1/2-z
1/2-y,1/2-x,1/2-z
1/2-x,1/2-y,1/2-z
1/2+y,1/2-x,1/2-z
1/2+x,1/2+y,1/2-z
1/2-y,1/2+x,1/2-z
1/2-x,1/2+y,1/2+z
1/2+x,1/2-y,1/2+z
1/2-y,1/2-x,1/2+z
1/2+y,1/2+x,1/2+z
loop_
_atom_site_type_symbol
_atom_site_label
_atom_site_fract_x
_atom_site_fract_y
_atom_site_fract_z
Si Si1 0.555268 0.203938 0.664746
Si Si2 0.947769 0.124583 0.670528
Si Si3 0.285080 0.285080 0.831623
Si Si4 0.115421 0.445067 0.161194
Si Si5 0.893209 0.783198 0.330802
O O1 0.571714 0.198878 0.500000
O O2 0.500000 0.207692 0.676145
O O3 0.574599 0.160042 0.754040
O O4 0.576803 0.249126 0.734661
O O5 0.952789 0.123695 0.500000
O O6 0.923514 0.076487 0.724628
O O7 0.912707 0.166201 0.713728
O O8 0.000000 0.129575 0.738706
O O9 0.250000 0.250000 0.750000
O O10 0.338988 0.275942 0.790943
O O11 0.276701 0.276701 0.000000
O O12 0.116057 0.500000 0.154315
O O13 0.069875 0.430126 0.250000
O O14 0.114738 0.423947 0.000000
O O15 0.901576 0.773636 0.500000
#
# Coordination Sequence:
#
# PCOD8319669 Si02
#       5
#    32  32  16  32  32
#     4  10  21  36  55  81 111 142 182 232 279 326
#     4   9  16  27  47  76 109 145 184 226 275 331
#     4  10  22  38  56  78 107 141 183 231 280 338
#     4  10  21  37  57  81 110 145 184 226 276 333
#     4  10  19  35  56  78 107 144 186 231 279 337
#
# _framework density 18.902497
#
# number of rings (size 3 to 8) (size 9 to 14) (size 15 to 20)
#    0.000    2.222    1.111    2.000    0.000    5.778 
#    0.000    4.444    0.000    0.000    0.000    0.000 
#    0.000    0.000    0.000    4.667    0.000    4.444 
#
# Total GULP energy -892527.890815 kJ/mol
# GULP energy per Si atom -12396.220706 kJ/mol
# Density = 1.885947 g / cm^3
# Si number density = 18.902497 Si / 1000 Ang^3
#
#
#
# Elastic Constant Matrix: (Units=GPa)
#
#
# Indices 1 2 3 4 5 6 
#
# 1 -37.0763 162.0000 36.1544 0.0000 0.0000 0.0000
# 2 162.0000 -37.1383 36.1391 0.0000 0.0000 0.0000
# 3 36.1544 36.1391 97.3827 0.0000 0.0000 0.0000
# 4 0.0000 0.0000 0.0000 25.5189 0.0000 0.0000
# 5 0.0000 0.0000 0.0000 0.0000 25.5190 0.0000
# 6 0.0000 0.0000 0.0000 0.0000 0.0000 39.3114
#
#
#
# Elastic Compliance Matrix: (Units=1/GPa)
#
#
# Indices 1 2 3 4 5 6 
#
# 1 0.002589 0.007610 -0.003785 0.000000 0.000000 0.000000
# 2 0.007610 0.002586 -0.003785 0.000000 0.000000 0.000000
# 3 -0.003785 -0.003785 0.013079 0.000000 0.000000 0.000000
# 4 0.000000 0.000000 0.000000 0.039187 0.000000 0.000000
# 5 0.000000 0.000000 0.000000 0.000000 0.039187 0.000000
# 6 0.000000 0.000000 0.000000 0.000000 0.000000 0.025438
#
#
# Mechanical properties :
#
#
# Convention : Reuss Voigt Hill
#
# Bulk Modulus (GPa) = 54.54476 54.63944 54.59210
# Shear Modulus (GPa) = 39.03279 3.99485 21.51382
#
# Velocity S-wave (km/s) = 4.54911 1.45533 3.37730
# Velocity P-wave (km/s) = 7.51738 5.63850 6.64468
#
# Compressibility (1/GPa) = 0.01833357
#
# Stress axis : x y z
#
# Youngs Moduli (GPa) = 386.23765 386.62548 76.45935
#
# Poissons Ratio (x) = -2.94230 0.28943
# Poissons Ratio (y) = -2.93935 0.28942
# Poissons Ratio (z) = 1.46206 1.46346
#
# Static dielectric constant tensor:
#      x y z
#    x 3.605420 0.000000 0.000000 
#    y 0.000000 3.605430 0.000000 
#    z 0.000000 0.000000 3.399510 
# 
# 
# High freq. dielectric constant tensor:
#      x y z
#    x 1.738010 0.000000 0.000000 
#    y 0.000000 1.738010 0.000000 
#    z 0.000000 0.000000 1.712990 
# 
# From -- ./inp_files/2003.got.cif
#   From: 2010.03.12/outbox.cif.g09.slc.cpg/sg139_2_cif.got.tgz:2003.got - 2010.04.08 09:46:31.
