data_PCOD8319522
_publ_section_title
;
Structure prediction by ZEFSAII (Michael W. Deem and Ramdas Pophale) SiO2 
 PCOD8319522
Probable space group: I 4/M M M
;
_chemical_formula_sum "Si O2"
_cell_formula_units_Z 176
_cell_length_a 26.516661
_cell_length_b 26.516661
_cell_length_c 14.693431
_cell_angle_alpha 90.000000
_cell_angle_beta 90.000000
_cell_angle_gamma 90.000000
_cell_volume 10331.440783
_symmetry_space_group_name_H-M "I 4/M M M"
_symmetry_group_IT_number 139
_symmetry_cell_setting 'tetragonal'
loop_
_space_group_symop_operation_xyz
x,y,z
-y,x,z
-x,-y,z
y,-x,z
x,-y,-z
-x,y,-z
y,x,-z
-y,-x,-z
-x,-y,-z
y,-x,-z
x,y,-z
-y,x,-z
-x,y,z
x,-y,z
-y,-x,z
y,x,z
1/2+x,1/2+y,1/2+z
1/2-y,1/2+x,1/2+z
1/2-x,1/2-y,1/2+z
1/2+y,1/2-x,1/2+z
1/2+x,1/2-y,1/2-z
1/2-x,1/2+y,1/2-z
1/2+y,1/2+x,1/2-z
1/2-y,1/2-x,1/2-z
1/2-x,1/2-y,1/2-z
1/2+y,1/2-x,1/2-z
1/2+x,1/2+y,1/2-z
1/2-y,1/2+x,1/2-z
1/2-x,1/2+y,1/2+z
1/2+x,1/2-y,1/2+z
1/2-y,1/2-x,1/2+z
1/2+y,1/2+x,1/2+z
loop_
_atom_site_type_symbol
_atom_site_label
_atom_site_fract_x
_atom_site_fract_y
_atom_site_fract_z
Si Si1 0.812176 0.891188 0.825204
Si Si2 0.270530 0.943606 0.733961
Si Si3 0.940632 0.142648 0.000000
Si Si4 0.188676 0.266335 0.894873
Si Si5 0.844106 0.555557 0.603901
Si Si6 0.663194 0.123460 0.605926
O O1 0.863257 0.863257 0.791339
O O2 0.786697 0.922562 0.742575
O O3 0.824816 0.926611 0.911028
O O4 0.770979 0.849639 0.848156
O O5 0.294696 0.939746 0.834378
O O6 0.306537 0.917705 0.661060
O O7 0.266198 0.000000 0.698385
O O8 0.909906 0.090095 0.000000
O O9 0.000000 0.130468 0.000000
O O10 0.245813 0.245813 0.878526
O O11 0.182697 0.322608 0.856360
O O12 0.174539 0.266998 0.000000
O O13 0.825167 0.560556 0.500000
O O14 0.870039 0.500000 0.619561
O O15 0.881756 0.602543 0.624624
O O16 0.675639 0.115978 0.500000
#
# Coordination Sequence:
#
# PCOD8319522 Si02
#       6
#    32  32  16  32  32  32
#     4  10  19  31  48  72 101 132 166 205 247 290
#     4  11  22  33  49  73  98 131 169 206 253 300
#     4  10  20  33  50  74 106 142 177 215 255 293
#     4   9  16  28  47  71 100 130 160 194 240 294
#     4   9  18  31  48  71  97 125 162 206 248 294
#     4  10  20  34  50  69  98 130 167 209 249 300
#
# _framework density 17.035378000000001
#
# number of rings (size 3 to 8) (size 9 to 14) (size 15 to 20)
#    0.000    2.182    2.727    1.091    1.273    1.182 
#    0.000    1.818    0.000    0.545    0.000    5.091 
#    0.000    0.000    0.000    0.000    0.000    0.000 
#
# Total GULP energy -1090491.002898 kJ/mol
# GULP energy per Si atom -12391.943215 kJ/mol
# Density = 1.699661 g / cm^3
# Si number density = 17.035378 Si / 1000 Ang^3
#
#
#
# Elastic Constant Matrix: (Units=GPa)
#
#
# Indices 1 2 3 4 5 6 
#
# 1 109.0199 62.1790 40.0204 0.0000 0.0000 0.0000
# 2 62.1790 109.0197 40.0203 0.0000 0.0000 0.0000
# 3 40.0204 40.0203 48.9042 0.0000 0.0000 0.0000
# 4 0.0000 0.0000 0.0000 18.0302 0.0000 0.0000
# 5 0.0000 0.0000 0.0000 0.0000 18.0302 0.0000
# 6 0.0000 0.0000 0.0000 0.0000 0.0000 14.8852
#
#
#
# Elastic Compliance Matrix: (Units=1/GPa)
#
#
# Indices 1 2 3 4 5 6 
#
# 1 0.015405 -0.005944 -0.007742 0.000000 0.000000 0.000000
# 2 -0.005944 0.015405 -0.007742 0.000000 0.000000 0.000000
# 3 -0.007742 -0.007742 0.033120 0.000000 0.000000 0.000000
# 4 0.000000 0.000000 0.000000 0.055462 0.000000 0.000000
# 5 0.000000 0.000000 0.000000 0.000000 0.055462 0.000000
# 6 0.000000 0.000000 0.000000 0.000000 0.000000 0.067181
#
#
# Mechanical properties :
#
#
# Convention : Reuss Voigt Hill
#
# Bulk Modulus (GPa) = 47.45512 61.26482 54.35997
# Shear Modulus (GPa) = 17.12819 18.50407 17.81613
#
# Velocity S-wave (km/s) = 3.17432 3.29935 3.23744
# Velocity P-wave (km/s) = 6.43058 7.11025 6.77894
#
# Compressibility (1/GPa) = 0.02107254
#
# Stress axis : x y z
#
# Youngs Moduli (GPa) = 64.91440 64.91429 30.19346
#
# Poissons Ratio (x) = 0.38585 0.23377
# Poissons Ratio (y) = 0.38585 0.23377
# Poissons Ratio (z) = 0.50258 0.50258
#
# Static dielectric constant tensor:
#      x y z
#    x 3.341420 0.000000 0.000000 
#    y 0.000000 3.341420 0.000000 
#    z 0.000000 0.000000 2.974600 
# 
# 
# High freq. dielectric constant tensor:
#      x y z
#    x 1.646800 0.000000 0.000000 
#    y 0.000000 1.646800 0.000000 
#    z 0.000000 0.000000 1.635000 
# 
# From -- ./inp_files/6373.got.cif
#   From: 2010.03.12/outbox.cif.g09.slc.cpg/sg139_4_cif.got.tgz:6373.got - 2010.04.08 09:46:31.
