data_PCOD8319209
_publ_section_title
;
Structure prediction by ZEFSAII (Michael W. Deem and Ramdas Pophale) SiO2 
 PCOD8319209
Probable space group: P 42/N C M
;
_chemical_formula_sum "Si O2"
_cell_formula_units_Z 80
_cell_length_a 10.851246
_cell_length_b 10.851246
_cell_length_c 32.422004
_cell_angle_alpha 90.000000
_cell_angle_beta 90.000000
_cell_angle_gamma 90.000000
_cell_volume 3817.676049
_symmetry_space_group_name_H-M "P 42/N C M"
_symmetry_group_IT_number 138
_space_group.IT_coordinate_system_code '2'
_symmetry_cell_setting 'tetragonal'
loop_
_space_group_symop_operation_xyz
x,y,z
1/2-y,x,1/2+z
1/2-x,1/2-y,z
y,1/2-x,1/2+z
1/2+x,-y,1/2-z
-x,1/2+y,1/2-z
1/2+y,1/2+x,-z
-y,-x,-z
-x,-y,-z
1/2+y,-x,1/2-z
1/2+x,1/2+y,-z
-y,1/2+x,1/2-z
1/2-x,y,1/2+z
x,1/2-y,1/2+z
1/2-y,1/2-x,z
y,x,z
loop_
_atom_site_type_symbol
_atom_site_label
_atom_site_fract_x
_atom_site_fract_y
_atom_site_fract_z
Si Si1 0.497696 0.295873 0.997981
Si Si2 0.985979 0.174136 0.797022
Si Si3 0.712407 0.519867 0.786981
Si Si4 0.907657 0.400415 0.845886
Si Si5 0.355776 0.649935 0.439056
O O1 0.358717 0.358717 0.997464
O O2 0.524530 0.203769 0.036581
O O3 0.592726 0.407275 0.000000
O O4 0.525212 0.206380 0.958419
O O5 0.088577 0.088577 0.819811
O O6 0.878007 0.092665 0.777998
O O7 0.052044 0.235402 0.757953
O O8 0.919895 0.261859 0.829826
O O9 0.639840 0.639840 0.803745
O O10 0.811689 0.483667 0.820991
O O11 0.871706 0.402063 0.893299
O O12 0.041892 0.458109 0.840050
O O13 0.250000 0.750000 0.440268
#
# Coordination Sequence:
#
# PCOD8319209 Si02
#       5
#    16  16  16  16  16
#     4   8  15  31  58  86 112 146 192 247 304 361
#     4  11  23  40  62  86 113 152 202 254 308 366
#     4  11  23  40  62  86 113 152 202 254 308 366
#     4  12  25  39  57  86 124 164 202 247 303 365
#     4   9  18  34  56  84 114 148 196 248 296 355
#
# _framework density 20.955158000000001
#
# number of rings (size 3 to 8) (size 9 to 14) (size 15 to 20)
#    0.000    1.800    2.000    4.200    0.000    4.400 
#    0.000    6.000    0.000    1.200    0.000    0.000 
#    0.000    0.000    0.000    0.000    0.000    0.000 
#
# Total GULP energy -991255.610375 kJ/mol
# GULP energy per Si atom -12390.695130 kJ/mol
# Density = 2.090746 g / cm^3
# Si number density = 20.955158 Si / 1000 Ang^3
#
#
#
# Elastic Constant Matrix: (Units=GPa)
#
#
# Indices 1 2 3 4 5 6 
#
# 1 -28.6525 149.4695 35.4397 0.0000 0.0000 0.0000
# 2 149.4695 -28.6590 35.4401 0.0000 0.0000 0.0000
# 3 35.4397 35.4401 123.6908 0.0000 0.0000 0.0000
# 4 0.0000 0.0000 0.0000 -34.9633 0.0000 0.0000
# 5 0.0000 0.0000 0.0000 0.0000 -34.9625 0.0000
# 6 0.0000 0.0000 0.0000 0.0000 0.0000 40.1577
#
#
#
# Elastic Compliance Matrix: (Units=1/GPa)
#
#
# Indices 1 2 3 4 5 6 
#
# 1 0.002168 0.007782 -0.002851 0.000000 0.000000 0.000000
# 2 0.007782 0.002168 -0.002851 0.000000 0.000000 0.000000
# 3 -0.002851 -0.002851 0.009718 0.000000 0.000000 0.000000
# 4 0.000000 0.000000 0.000000 -0.028601 0.000000 0.000000
# 5 0.000000 0.000000 0.000000 0.000000 -0.028602 0.000000
# 6 0.000000 0.000000 0.000000 0.000000 0.000000 0.024902
#
#
# Mechanical properties :
#
#
# Convention : Reuss Voigt Hill
#
# Bulk Modulus (GPa) = 54.90111 56.34199 55.62155
# Shear Modulus (GPa) = -306.05989 -16.21830 -161.13909
#
# Velocity S-wave (km/s) = -12.09842 -2.78502 -8.77861
# Velocity P-wave (km/s) = 12.99639 4.07474 8.72647
#
# Compressibility (1/GPa) = 0.01821457
#
# Stress axis : x y z
#
# Youngs Moduli (GPa) = 461.24594 461.32566 102.89866
#
# Poissons Ratio (x) = -3.58998 0.29335
# Poissons Ratio (y) = -3.58936 0.29334
# Poissons Ratio (z) = 1.31495 1.31512
#
# Static dielectric constant tensor:
#      x y z
#    x 3.959250 0.000000 0.000000 
#    y 0.000000 3.959250 0.000000 
#    z 0.000000 0.000000 3.060830 
# 
# 
# High freq. dielectric constant tensor:
#      x y z
#    x 1.824060 0.000000 0.000000 
#    y 0.000000 1.824060 0.000000 
#    z 0.000000 0.000000 1.803390 
# 
# From -- ./inp_files/7920.got.cif
#   From: 2010.03.12/outbox.cif.g09.slc.cpg/sg138_4_cif.got.tgz:7920.got - 2010.04.08 09:41:05.
