data_PCOD8319528
_publ_section_title
;
Structure prediction by ZEFSAII (Michael W. Deem and Ramdas Pophale) SiO2 
 PCOD8319528
Probable space group: I 4/M M M
;
_chemical_formula_sum "Si O2"
_cell_formula_units_Z 112
_cell_length_a 27.330316
_cell_length_b 27.330316
_cell_length_c 9.306245
_cell_angle_alpha 90.000000
_cell_angle_beta 90.000000
_cell_angle_gamma 90.000000
_cell_volume 6951.264085
_symmetry_space_group_name_H-M "I 4/M M M"
_symmetry_group_IT_number 139
_symmetry_cell_setting 'tetragonal'
loop_
_space_group_symop_operation_xyz
x,y,z
-y,x,z
-x,-y,z
y,-x,z
x,-y,-z
-x,y,-z
y,x,-z
-y,-x,-z
-x,-y,-z
y,-x,-z
x,y,-z
-y,x,-z
-x,y,z
x,-y,z
-y,-x,z
y,x,z
1/2+x,1/2+y,1/2+z
1/2-y,1/2+x,1/2+z
1/2-x,1/2-y,1/2+z
1/2+y,1/2-x,1/2+z
1/2+x,1/2-y,1/2-z
1/2-x,1/2+y,1/2-z
1/2+y,1/2+x,1/2-z
1/2-y,1/2-x,1/2-z
1/2-x,1/2-y,1/2-z
1/2+y,1/2-x,1/2-z
1/2+x,1/2+y,1/2-z
1/2-y,1/2+x,1/2-z
1/2-x,1/2+y,1/2+z
1/2+x,1/2-y,1/2+z
1/2-y,1/2-x,1/2+z
1/2+y,1/2+x,1/2+z
loop_
_atom_site_type_symbol
_atom_site_label
_atom_site_fract_x
_atom_site_fract_y
_atom_site_fract_z
Si Si1 0.444984 0.878924 0.833631
Si Si2 0.137505 0.941982 0.000000
Si Si3 0.624977 0.703018 0.658544
Si Si4 0.133417 0.298185 0.331313
O O1 0.500000 0.866622 0.786074
O O2 0.426664 0.926664 0.750000
O O3 0.412421 0.832298 0.793442
O O4 0.441329 0.891719 0.000000
O O5 0.168453 0.923573 0.859324
O O6 0.084288 0.915713 0.000000
O O7 0.130496 0.000000 0.000000
O O8 0.637101 0.725446 0.500000
O O9 0.670029 0.670029 0.712199
O O10 0.617612 0.745119 0.774961
O O11 0.144528 0.295687 0.500000
O O12 0.181655 0.318345 0.250000
#
# Coordination Sequence:
#
# PCOD8319528 Si02
#       4
#    32  16  32  32
#     4   9  19  34  48  65  90 117 151 198 245 288
#     4   8  16  31  52  76 104 132 161 203 249 299
#     4   8  17  32  47  68 100 129 158 197 238 280
#     4  10  19  31  49  69  96 130 167 207 244 288
#
# _framework density 16.112176999999999
#
# number of rings (size 3 to 8) (size 9 to 14) (size 15 to 20)
#    0.857    2.286    0.000    0.857    0.000    4.429 
#    0.000    1.429    0.000    0.000    0.000    0.000 
#    0.000    0.000    0.000    6.286    0.000    0.000 
#
# Total GULP energy -693907.704046 kJ/mol
# GULP energy per Si atom -12391.209001 kJ/mol
# Density = 1.607550 g / cm^3
# Si number density = 16.112177 Si / 1000 Ang^3
#
#
#
# Elastic Constant Matrix: (Units=GPa)
#
#
# Indices 1 2 3 4 5 6 
#
# 1 108.8652 54.0820 45.0566 0.0000 0.0000 0.0000
# 2 54.0820 108.8729 45.0598 0.0000 0.0000 0.0000
# 3 45.0566 45.0598 57.9718 0.0000 0.0000 0.0000
# 4 0.0000 0.0000 0.0000 18.4185 0.0000 0.0000
# 5 0.0000 0.0000 0.0000 0.0000 18.4194 0.0000
# 6 0.0000 0.0000 0.0000 0.0000 0.0000 12.7829
#
#
#
# Elastic Compliance Matrix: (Units=1/GPa)
#
#
# Indices 1 2 3 4 5 6 
#
# 1 0.014508 -0.003745 -0.008365 0.000000 0.000000 0.000000
# 2 -0.003745 0.014508 -0.008366 0.000000 0.000000 0.000000
# 3 -0.008365 -0.008366 0.030254 0.000000 0.000000 0.000000
# 4 0.000000 0.000000 0.000000 0.054293 0.000000 0.000000
# 5 0.000000 0.000000 0.000000 0.000000 0.054291 0.000000
# 6 0.000000 0.000000 0.000000 0.000000 0.000000 0.078230
#
#
# Mechanical properties :
#
#
# Convention : Reuss Voigt Hill
#
# Bulk Modulus (GPa) = 54.59133 62.67852 58.63493
# Shear Modulus (GPa) = 17.05662 18.69159 17.87411
#
# Velocity S-wave (km/s) = 3.25717 3.40971 3.33431
# Velocity P-wave (km/s) = 6.93550 7.38155 7.16200
#
# Compressibility (1/GPa) = 0.01831793
#
# Stress axis : x y z
#
# Youngs Moduli (GPa) = 68.92675 68.92942 33.05335
#
# Poissons Ratio (x) = 0.25811 0.27650
# Poissons Ratio (y) = 0.25810 0.27652
# Poissons Ratio (z) = 0.57660 0.57666
#
# Static dielectric constant tensor:
#      x y z
#    x 2.965110 0.000000 0.000000 
#    y 0.000000 2.965100 0.000000 
#    z 0.000000 0.000000 2.870110 
# 
# 
# High freq. dielectric constant tensor:
#      x y z
#    x 1.612560 0.000000 0.000000 
#    y 0.000000 1.612560 0.000000 
#    z 0.000000 0.000000 1.603810 
# 
# From -- ./inp_files/3228.got.cif
#   From: 2010.03.12/outbox.cif.g09.slc.cpg/sg139_2_cif.got.tgz:3228.got - 2010.04.08 09:46:31.
