data_PCOD8319052
_publ_section_title
;
Structure prediction by ZEFSAII (Michael W. Deem and Ramdas Pophale) SiO2 
 PCOD8319052
Probable space group: P 42/N C M
;
_chemical_formula_sum "Si O2"
_cell_formula_units_Z 80
_cell_length_a 17.577222
_cell_length_b 17.577222
_cell_length_c 14.316274
_cell_angle_alpha 90.000000
_cell_angle_beta 90.000000
_cell_angle_gamma 90.000000
_cell_volume 4423.137880
_symmetry_space_group_name_H-M "P 42/N C M"
_symmetry_group_IT_number 138
_space_group.IT_coordinate_system_code '2'
_symmetry_cell_setting 'tetragonal'
loop_
_space_group_symop_operation_xyz
x,y,z
1/2-y,x,1/2+z
1/2-x,1/2-y,z
y,1/2-x,1/2+z
1/2+x,-y,1/2-z
-x,1/2+y,1/2-z
1/2+y,1/2+x,-z
-y,-x,-z
-x,-y,-z
1/2+y,-x,1/2-z
1/2+x,1/2+y,-z
-y,1/2+x,1/2-z
1/2-x,y,1/2+z
x,1/2-y,1/2+z
1/2-y,1/2-x,z
y,x,z
loop_
_atom_site_type_symbol
_atom_site_label
_atom_site_fract_x
_atom_site_fract_y
_atom_site_fract_z
Si Si1 0.812711 0.687289 0.896111
Si Si2 0.749443 0.971541 0.854388
Si Si3 0.501019 0.374311 0.996277
Si Si4 0.123709 0.996950 0.505200
Si Si5 0.741236 0.970372 0.146413
Si Si6 0.688402 0.688402 0.603172
O O1 0.750000 0.750000 0.904520
O O2 0.774698 0.616533 0.843899
O O3 0.840342 0.659659 0.000191
O O4 0.829405 0.984196 0.907588
O O5 0.682797 0.013125 0.910305
O O6 0.756017 0.005957 0.750206
O O7 0.436159 0.436159 0.980933
O O8 0.583498 0.416503 0.000000
O O9 0.496001 0.316709 0.908918
O O10 0.065253 0.065253 0.525164
O O11 0.165563 0.003298 0.406090
O O12 0.082577 0.917424 0.500000
O O13 0.730313 0.879397 0.157660
O O14 0.750000 0.750000 0.581410
#
# Coordination Sequence:
#
# PCOD8319052 Si02
#       6
#     8  16  16  16  16   8
#     4  11  20  32  50  79 116 151 177 218 277 342
#     4  11  22  35  55  84 113 146 188 230 279 336
#     4  10  22  39  56  78 115 157 189 227 275 331
#     4  10  20  38  57  79 114 151 190 233 279 331
#     4  11  22  35  55  84 113 146 188 230 279 336
#     4  11  20  32  50  79 116 151 177 218 277 342
#
# _framework density 18.086706
#
# number of rings (size 3 to 8) (size 9 to 14) (size 15 to 20)
#    0.000    1.400    6.000    1.200    5.600    1.600 
#    0.000    4.000    0.000    9.600    0.000   11.200 
#    0.000    0.000    0.000    0.000    0.000    0.000 
#
# Total GULP energy -991617.789429 kJ/mol
# GULP energy per Si atom -12395.222368 kJ/mol
# Density = 1.804554 g / cm^3
# Si number density = 18.086706 Si / 1000 Ang^3
#
#
#
# Elastic Constant Matrix: (Units=GPa)
#
#
# Indices 1 2 3 4 5 6 
#
# 1 -205.3762 311.1252 18.6370 0.0000 0.0000 0.0000
# 2 311.1252 -205.4485 18.6166 0.0000 0.0000 0.0000
# 3 18.6370 18.6166 132.2635 0.0000 0.0000 0.0000
# 4 0.0000 0.0000 0.0000 13.4147 0.0000 0.0000
# 5 0.0000 0.0000 0.0000 0.0000 13.4187 0.0000
# 6 0.0000 0.0000 0.0000 0.0000 0.0000 43.7561
#
#
#
# Elastic Compliance Matrix: (Units=1/GPa)
#
#
# Indices 1 2 3 4 5 6 
#
# 1 0.004009 0.005945 -0.001402 0.000000 0.000000 0.000000
# 2 0.005945 0.004008 -0.001402 0.000000 0.000000 0.000000
# 3 -0.001402 -0.001402 0.007955 0.000000 0.000000 0.000000
# 4 0.000000 0.000000 0.000000 0.074545 0.000000 0.000000
# 5 0.000000 0.000000 0.000000 0.000000 0.074523 0.000000
# 6 0.000000 0.000000 0.000000 0.000000 0.000000 0.022854
#
#
# Mechanical properties :
#
#
# Convention : Reuss Voigt Hill
#
# Bulk Modulus (GPa) = 44.93260 46.46627 45.69943
# Shear Modulus (GPa) = 26.45067 -27.67810 -0.61371
#
# Velocity S-wave (km/s) = 3.82833 -3.91615 -0.58314
# Velocity P-wave (km/s) = 6.66621 2.30181 4.98681
#
# Compressibility (1/GPa) = 0.02225556
#
# Stress axis : x y z
#
# Youngs Moduli (GPa) = 249.41092 249.49084 125.69938
#
# Poissons Ratio (x) = -1.48317 0.17619
# Poissons Ratio (y) = -1.48269 0.17621
# Poissons Ratio (z) = 0.34960 0.34974
#
# Static dielectric constant tensor:
#      x y z
#    x 3.353290 0.000000 0.000000 
#    y 0.000000 3.353280 0.000000 
#    z 0.000000 0.000000 3.405800 
# 
# 
# High freq. dielectric constant tensor:
#      x y z
#    x 1.690480 0.000000 0.000000 
#    y 0.000000 1.690480 0.000000 
#    z 0.000000 0.000000 1.702200 
# 
# From -- ./inp_files/4154.got.cif
#   From: 2010.03.12/outbox.cif.g09.slc.cpg/sg138_3_cif.got.tgz:4154.got - 2010.04.08 09:41:05.
