data_PCOD8319872
_publ_section_title
;
Structure prediction by ZEFSAII (Michael W. Deem and Ramdas Pophale) SiO2 
 PCOD8319872
Probable space group: I 4/M M M
;
_chemical_formula_sum "Si O2"
_cell_formula_units_Z 160
_cell_length_a 29.582234
_cell_length_b 29.582234
_cell_length_c 9.553348
_cell_angle_alpha 90.000000
_cell_angle_beta 90.000000
_cell_angle_gamma 90.000000
_cell_volume 8360.216692
_symmetry_space_group_name_H-M "I 4/M M M"
_symmetry_group_IT_number 139
_symmetry_cell_setting 'tetragonal'
loop_
_space_group_symop_operation_xyz
x,y,z
-y,x,z
-x,-y,z
y,-x,z
x,-y,-z
-x,y,-z
y,x,-z
-y,-x,-z
-x,-y,-z
y,-x,-z
x,y,-z
-y,x,-z
-x,y,z
x,-y,z
-y,-x,z
y,x,z
1/2+x,1/2+y,1/2+z
1/2-y,1/2+x,1/2+z
1/2-x,1/2-y,1/2+z
1/2+y,1/2-x,1/2+z
1/2+x,1/2-y,1/2-z
1/2-x,1/2+y,1/2-z
1/2+y,1/2+x,1/2-z
1/2-y,1/2-x,1/2-z
1/2-x,1/2-y,1/2-z
1/2+y,1/2-x,1/2-z
1/2+x,1/2+y,1/2-z
1/2-y,1/2+x,1/2-z
1/2-x,1/2+y,1/2+z
1/2+x,1/2-y,1/2+z
1/2-y,1/2-x,1/2+z
1/2+y,1/2+x,1/2+z
loop_
_atom_site_type_symbol
_atom_site_label
_atom_site_fract_x
_atom_site_fract_y
_atom_site_fract_z
Si Si1 0.888892 0.552208 0.500000
Si Si2 0.590145 0.731590 0.337174
Si Si3 0.654773 0.345228 0.652155
Si Si4 0.831354 0.595947 0.730307
Si Si5 0.500000 0.281495 0.842480
Si Si6 0.000000 0.886379 0.343882
Si Si7 0.359970 0.947361 0.500000
Si Si8 0.080245 0.080245 0.843796
O O1 0.906458 0.500000 0.500000
O O2 0.858006 0.560858 0.633520
O O3 0.929772 0.588142 0.500000
O O4 0.579925 0.718332 0.500000
O O5 0.629684 0.698007 0.274423
O O6 0.608764 0.782456 0.329859
O O7 0.544475 0.731026 0.246288
O O8 0.671696 0.328305 0.500000
O O9 0.617361 0.382640 0.633068
O O10 0.856702 0.643299 0.750000
O O11 0.828920 0.569573 0.874540
O O12 0.500000 0.333957 0.868731
O O13 0.500000 0.258822 0.000000
O O14 0.958421 0.899404 0.249715
O O15 0.000000 0.909462 0.500000
O O16 0.364891 0.000000 0.500000
O O17 0.064015 0.064015 0.000000
#
# Coordination Sequence:
#
# PCOD8319872 Si02
#       8
#    16  32  16  32  16  16  16  16
#     4  10  20  37  58  87 117 157 209 242 284 350
#     4  11  22  39  63  88 116 154 202 246 295 356
#     4   9  20  37  59  87 114 146 192 250 299 346
#     4  10  22  38  58  86 120 156 195 244 297 348
#     4  11  25  37  56  94 123 153 188 243 304 356
#     4  11  23  40  58  83 123 159 190 237 307 366
#     4  10  22  37  56  83 125 163 193 246 298 340
#     4  11  21  38  60  84 116 154 201 249 290 351
#
# _framework density 19.138261
#
# number of rings (size 3 to 8) (size 9 to 14) (size 15 to 20)
#    0.000    1.600    3.000    1.500    4.200    1.200 
#    0.000    2.000    0.000    3.600    0.000    0.000 
#    0.000    0.000    0.000    0.000    0.000    0.000 
#
# Total GULP energy -991185.463223 kJ/mol
# GULP energy per Si atom -12389.818290 kJ/mol
# Density = 1.909470 g / cm^3
# Si number density = 19.138261 Si / 1000 Ang^3
#
#
#
# Elastic Constant Matrix: (Units=GPa)
#
#
# Indices 1 2 3 4 5 6 
#
# 1 95.2767 41.4396 27.0353 0.0000 0.0000 0.0000
# 2 41.4396 95.2695 27.0322 0.0000 0.0000 0.0000
# 3 27.0353 27.0322 129.3866 0.0000 0.0000 0.0000
# 4 0.0000 0.0000 0.0000 26.3522 0.0000 0.0000
# 5 0.0000 0.0000 0.0000 0.0000 26.3537 0.0000
# 6 0.0000 0.0000 0.0000 0.0000 0.0000 20.8725
#
#
#
# Elastic Compliance Matrix: (Units=1/GPa)
#
#
# Indices 1 2 3 4 5 6 
#
# 1 0.013274 -0.005301 -0.001666 0.000000 0.000000 0.000000
# 2 -0.005301 0.013275 -0.001666 0.000000 0.000000 0.000000
# 3 -0.001666 -0.001666 0.008425 0.000000 0.000000 0.000000
# 4 0.000000 0.000000 0.000000 0.037948 0.000000 0.000000
# 5 0.000000 0.000000 0.000000 0.000000 0.037945 0.000000
# 6 0.000000 0.000000 0.000000 0.000000 0.000000 0.047910
#
#
# Mechanical properties :
#
#
# Convention : Reuss Voigt Hill
#
# Bulk Modulus (GPa) = 56.47154 56.77190 56.62172
# Shear Modulus (GPa) = 27.48072 29.67740 28.57906
#
# Velocity S-wave (km/s) = 3.79344 3.94214 3.86851
# Velocity P-wave (km/s) = 6.98270 7.10276 7.04299
#
# Compressibility (1/GPa) = 0.01770804
#
# Stress axis : x y z
#
# Youngs Moduli (GPa) = 75.33417 75.32913 118.69524
#
# Poissons Ratio (x) = 0.39933 0.19776
# Poissons Ratio (y) = 0.39936 0.19773
# Poissons Ratio (z) = 0.12551 0.12549
#
# Static dielectric constant tensor:
#      x y z
#    x 3.625040 0.000000 0.000000 
#    y 0.000000 3.625050 0.000000 
#    z 0.000000 0.000000 4.368500 
# 
# 
# High freq. dielectric constant tensor:
#      x y z
#    x 1.738710 0.000000 0.000000 
#    y 0.000000 1.738710 0.000000 
#    z 0.000000 0.000000 1.754890 
# 
# From -- ./inp_files/2362.got.cif
#   From: 2010.03.12/outbox.cif.g09.slc.cpg/sg139_2_cif.got.tgz:2362.got - 2010.04.08 09:46:31.
