data_PCOD8319794
_publ_section_title
;
Structure prediction by ZEFSAII (Michael W. Deem and Ramdas Pophale) SiO2 
 PCOD8319794
Probable space group: I 4/M M M
;
_chemical_formula_sum "Si O2"
_cell_formula_units_Z 176
_cell_length_a 18.620642
_cell_length_b 18.620642
_cell_length_c 28.590780
_cell_angle_alpha 90.000000
_cell_angle_beta 90.000000
_cell_angle_gamma 90.000000
_cell_volume 9913.232788
_symmetry_space_group_name_H-M "I 4/M M M"
_symmetry_group_IT_number 139
_symmetry_cell_setting 'tetragonal'
loop_
_space_group_symop_operation_xyz
x,y,z
-y,x,z
-x,-y,z
y,-x,z
x,-y,-z
-x,y,-z
y,x,-z
-y,-x,-z
-x,-y,-z
y,-x,-z
x,y,-z
-y,x,-z
-x,y,z
x,-y,z
-y,-x,z
y,x,z
1/2+x,1/2+y,1/2+z
1/2-y,1/2+x,1/2+z
1/2-x,1/2-y,1/2+z
1/2+y,1/2-x,1/2+z
1/2+x,1/2-y,1/2-z
1/2-x,1/2+y,1/2-z
1/2+y,1/2+x,1/2-z
1/2-y,1/2-x,1/2-z
1/2-x,1/2-y,1/2-z
1/2+y,1/2-x,1/2-z
1/2+x,1/2+y,1/2-z
1/2-y,1/2+x,1/2-z
1/2-x,1/2+y,1/2+z
1/2+x,1/2-y,1/2+z
1/2-y,1/2-x,1/2+z
1/2+y,1/2+x,1/2+z
loop_
_atom_site_type_symbol
_atom_site_label
_atom_site_fract_x
_atom_site_fract_y
_atom_site_fract_z
Si Si1 0.270745 0.154074 0.362070
Si Si2 0.500000 0.617634 0.444747
Si Si3 0.079936 0.801393 0.716667
Si Si4 0.500000 0.081486 0.583026
Si Si5 0.419069 0.156591 0.051537
Si Si6 0.755923 0.500000 0.380214
Si Si7 0.244782 0.127654 0.188415
O O1 0.211337 0.211337 0.377769
O O2 0.236405 0.087819 0.333929
O O3 0.310395 0.131372 0.409097
O O4 0.324571 0.186540 0.323800
O O5 0.428733 0.571268 0.430251
O O6 0.500000 0.629371 0.500000
O O7 0.500000 0.699336 0.423631
O O8 0.130785 0.869216 0.720022
O O9 0.096366 0.746048 0.759162
O O10 0.000000 0.830769 0.721114
O O11 0.570533 0.084629 0.551398
O O12 0.500000 0.156688 0.612188
O O13 0.500000 0.000000 0.608796
O O14 0.500000 0.183256 0.060690
O O15 0.393331 0.182105 0.000000
O O16 0.735623 0.431631 0.350494
O O17 0.172464 0.172464 0.186040
#
# Coordination Sequence:
#
# PCOD8319794 Si02
#       7
#    32  16  32  16  32  16  32
#     4  10  20  35  54  76 103 136 172 214 260 311
#     4   9  20  38  56  79 115 157 199 239 279 326
#     4  10  20  35  55  78 106 138 174 213 265 323
#     4  10  21  36  54  76 106 140 178 220 271 317
#     4  10  20  35  54  76 102 134 171 212 262 316
#     4  12  19  34  58  80 110 144 188 229 269 327
#     4  10  20  34  52  80 109 138 177 222 266 315
#
# _framework density 17.754045999999999
#
# number of rings (size 3 to 8) (size 9 to 14) (size 15 to 20)
#    0.000    1.909    2.727    2.182    0.000    4.545 
#    0.000    0.000    0.000    0.000    0.000    0.000 
#    0.000    0.000    0.000   16.909    0.000    0.000 
#
# Total GULP energy -1090177.884146 kJ/mol
# GULP energy per Si atom -12388.385047 kJ/mol
# Density = 1.771364 g / cm^3
# Si number density = 17.754046 Si / 1000 Ang^3
#
#
#
# Elastic Constant Matrix: (Units=GPa)
#
#
# Indices 1 2 3 4 5 6 
#
# 1 90.3258 26.0994 44.0211 0.0000 0.0000 0.0000
# 2 26.0994 90.3258 44.0211 0.0000 0.0000 0.0000
# 3 44.0211 44.0211 102.7235 0.0000 0.0000 0.0000
# 4 0.0000 0.0000 0.0000 21.4650 0.0000 0.0000
# 5 0.0000 0.0000 0.0000 0.0000 21.4650 0.0000
# 6 0.0000 0.0000 0.0000 0.0000 0.0000 -6.3158
#
#
#
# Elastic Compliance Matrix: (Units=1/GPa)
#
#
# Indices 1 2 3 4 5 6 
#
# 1 0.014139 -0.001431 -0.005446 0.000000 0.000000 0.000000
# 2 -0.001431 0.014139 -0.005446 0.000000 0.000000 0.000000
# 3 -0.005446 -0.005446 0.014402 0.000000 0.000000 0.000000
# 4 0.000000 0.000000 0.000000 0.046587 0.000000 0.000000
# 5 0.000000 0.000000 0.000000 0.000000 0.046587 0.000000
# 6 0.000000 0.000000 0.000000 0.000000 0.000000 -0.158334
#
#
# Mechanical properties :
#
#
# Convention : Reuss Voigt Hill
#
# Bulk Modulus (GPa) = 55.44969 56.85091 56.15030
# Shear Modulus (GPa) = 611.50661 18.60509 315.05585
#
# Velocity S-wave (km/s) = 18.57902 3.24069 13.33571
# Velocity P-wave (km/s) = 22.17070 6.78923 16.39563
#
# Compressibility (1/GPa) = 0.01803437
#
# Stress axis : x y z
#
# Youngs Moduli (GPa) = 70.72860 70.72860 69.43429
#
# Poissons Ratio (x) = 0.10124 0.37811
# Poissons Ratio (y) = 0.10124 0.37811
# Poissons Ratio (z) = 0.38515 0.38515
#
# Static dielectric constant tensor:
#      x y z
#    x 3.275360 0.000000 0.000000 
#    y 0.000000 3.275360 0.000000 
#    z 0.000000 0.000000 3.265450 
# 
# 
# High freq. dielectric constant tensor:
#      x y z
#    x 1.684290 0.000000 0.000000 
#    y 0.000000 1.684290 0.000000 
#    z 0.000000 0.000000 1.683410 
# 
# From -- ./inp_files/13179.got.cif
#   From: 2010.03.12/outbox.cif.g09.slc.cpg/sg139_7_cif.got.tgz:13179.got - 2010.04.08 09:46:31.
