data_PCOD8319470
_publ_section_title
;
Structure prediction by ZEFSAII (Michael W. Deem and Ramdas Pophale) SiO2 
 PCOD8319470
Probable space group: I 4/M M M
;
_chemical_formula_sum "Si O2"
_cell_formula_units_Z 112
_cell_length_a 13.480242
_cell_length_b 13.480242
_cell_length_c 36.267752
_cell_angle_alpha 90.000000
_cell_angle_beta 90.000000
_cell_angle_gamma 90.000000
_cell_volume 6590.464348
_symmetry_space_group_name_H-M "I 4/M M M"
_symmetry_group_IT_number 139
_symmetry_cell_setting 'tetragonal'
loop_
_space_group_symop_operation_xyz
x,y,z
-y,x,z
-x,-y,z
y,-x,z
x,-y,-z
-x,y,-z
y,x,-z
-y,-x,-z
-x,-y,-z
y,-x,-z
x,y,-z
-y,x,-z
-x,y,z
x,-y,z
-y,-x,z
y,x,z
1/2+x,1/2+y,1/2+z
1/2-y,1/2+x,1/2+z
1/2-x,1/2-y,1/2+z
1/2+y,1/2-x,1/2+z
1/2+x,1/2-y,1/2-z
1/2-x,1/2+y,1/2-z
1/2+y,1/2+x,1/2-z
1/2-y,1/2-x,1/2-z
1/2-x,1/2-y,1/2-z
1/2+y,1/2-x,1/2-z
1/2+x,1/2+y,1/2-z
1/2-y,1/2+x,1/2-z
1/2-x,1/2+y,1/2+z
1/2+x,1/2-y,1/2+z
1/2-y,1/2-x,1/2+z
1/2+y,1/2+x,1/2+z
loop_
_atom_site_type_symbol
_atom_site_label
_atom_site_fract_x
_atom_site_fract_y
_atom_site_fract_z
Si Si1 0.616803 0.222487 0.718196
Si Si2 0.889515 0.382570 0.645108
Si Si3 0.275196 0.882918 0.072584
Si Si4 0.117610 0.389482 0.000000
O O1 0.500000 0.244556 0.718935
O O2 0.673730 0.326271 0.724222
O O3 0.644222 0.144222 0.750000
O O4 0.652645 0.175378 0.679702
O O5 0.897759 0.500000 0.645208
O O6 0.838680 0.346488 0.607504
O O7 0.000000 0.336236 0.647574
O O8 0.167690 0.832311 0.073708
O O9 0.256650 0.000000 0.072817
O O10 0.332672 0.846089 0.036329
O O11 0.163357 0.500000 0.000000
O O12 0.000000 0.396380 0.000000
#
# Coordination Sequence:
#
# PCOD8319470 Si02
#       4
#    32  32  32  16
#     4  10  20  33  50  73 100 130 164 201 243 292
#     4   9  17  30  48  68  91 121 157 198 240 277
#     4  10  19  30  45  67  96 127 157 189 228 279
#     4   9  17  30  47  65  87 117 153 195 239 274
#
# _framework density 16.994249
#
# number of rings (size 3 to 8) (size 9 to 14) (size 15 to 20)
#    0.000    2.429    0.000    3.000    0.000    5.429 
#    0.000    0.000    0.000    7.714    0.000    0.000 
#    0.000   41.714    0.000    0.000    0.000    0.000 
#
# Total GULP energy -694408.009768 kJ/mol
# GULP energy per Si atom -12400.143032 kJ/mol
# Density = 1.695557 g / cm^3
# Si number density = 16.994249 Si / 1000 Ang^3
#
#
#
# Elastic Constant Matrix: (Units=GPa)
#
#
# Indices 1 2 3 4 5 6 
#
# 1 80.8377 43.2841 37.9760 0.0000 0.0000 0.0000
# 2 43.2841 80.8377 37.9760 0.0000 0.0000 0.0000
# 3 37.9760 37.9760 148.1411 0.0000 0.0000 0.0000
# 4 0.0000 0.0000 0.0000 20.2049 0.0000 0.0000
# 5 0.0000 0.0000 0.0000 0.0000 20.2049 0.0000
# 6 0.0000 0.0000 0.0000 0.0000 0.0000 14.2994
#
#
#
# Elastic Compliance Matrix: (Units=1/GPa)
#
#
# Indices 1 2 3 4 5 6 
#
# 1 0.018092 -0.008537 -0.002450 0.000000 0.000000 0.000000
# 2 -0.008537 0.018092 -0.002450 0.000000 0.000000 0.000000
# 3 -0.002450 -0.002450 0.008006 0.000000 0.000000 0.000000
# 4 0.000000 0.000000 0.000000 0.049493 0.000000 0.000000
# 5 0.000000 0.000000 0.000000 0.000000 0.049493 0.000000
# 6 0.000000 0.000000 0.000000 0.000000 0.000000 0.069933
#
#
# Mechanical properties :
#
#
# Convention : Reuss Voigt Hill
#
# Bulk Modulus (GPa) = 57.73999 60.92097 59.33048
# Shear Modulus (GPa) = 20.34559 23.64720 21.99639
#
# Velocity S-wave (km/s) = 3.46382 3.73430 3.60160
# Velocity P-wave (km/s) = 7.07441 7.38371 7.23072
#
# Compressibility (1/GPa) = 0.01731902
#
# Stress axis : x y z
#
# Youngs Moduli (GPa) = 55.27280 55.27280 124.90305
#
# Poissons Ratio (x) = 0.47184 0.30596
# Poissons Ratio (y) = 0.47184 0.30596
# Poissons Ratio (z) = 0.13539 0.13539
#
# Static dielectric constant tensor:
#      x y z
#    x 2.983840 0.000000 0.000000 
#    y 0.000000 2.983840 0.000000 
#    z 0.000000 0.000000 3.495160 
# 
# 
# High freq. dielectric constant tensor:
#      x y z
#    x 1.633890 0.000000 0.000000 
#    y 0.000000 1.633890 0.000000 
#    z 0.000000 0.000000 1.679160 
# 
# From -- ./inp_files/13728.got.cif
#   From: 2010.03.12/outbox.cif.g09.slc.cpg/sg139_7_cif.got.tgz:13728.got - 2010.04.08 09:46:31.
