data_PCOD8319188
_publ_section_title
;
Structure prediction by ZEFSAII (Michael W. Deem and Ramdas Pophale) SiO2 
 PCOD8319188
Probable space group: P 42/N C M
;
_chemical_formula_sum "Si O2"
_cell_formula_units_Z 72
_cell_length_a 11.388390
_cell_length_b 11.388390
_cell_length_c 27.610102
_cell_angle_alpha 90.000000
_cell_angle_beta 90.000000
_cell_angle_gamma 90.000000
_cell_volume 3580.903963
_symmetry_space_group_name_H-M "P 42/N C M"
_symmetry_group_IT_number 138
_space_group.IT_coordinate_system_code '2'
_symmetry_cell_setting 'tetragonal'
loop_
_space_group_symop_operation_xyz
x,y,z
1/2-y,x,1/2+z
1/2-x,1/2-y,z
y,1/2-x,1/2+z
1/2+x,-y,1/2-z
-x,1/2+y,1/2-z
1/2+y,1/2+x,-z
-y,-x,-z
-x,-y,-z
1/2+y,-x,1/2-z
1/2+x,1/2+y,-z
-y,1/2+x,1/2-z
1/2-x,y,1/2+z
x,1/2-y,1/2+z
1/2-y,1/2-x,z
y,x,z
loop_
_atom_site_type_symbol
_atom_site_label
_atom_site_fract_x
_atom_site_fract_y
_atom_site_fract_z
Si Si1 0.777162 0.113978 0.876254
Si Si2 0.657057 0.842944 0.534238
Si Si3 0.275228 0.926209 0.229462
Si Si4 0.546545 0.953456 0.627956
Si Si5 0.343904 0.156097 0.278797
Si Si6 0.065936 0.744116 0.982702
O O1 0.750000 0.250000 0.885326
O O2 0.704988 0.076285 0.828498
O O3 0.735546 0.049012 0.924765
O O4 0.910974 0.078592 0.867166
O O5 0.750000 0.750000 0.555240
O O6 0.591292 0.908709 0.576805
O O7 0.562715 0.770242 0.503041
O O8 0.375662 0.851896 0.256393
O O9 0.281632 0.058500 0.246414
O O10 0.610456 0.889545 0.670908
O O11 0.250000 0.250000 0.294101
O O12 0.118916 0.618916 0.000000
O O13 0.151688 0.848313 0.000000
#
# Coordination Sequence:
#
# PCOD8319188 Si02
#       6
#    16   8  16   8   8  16
#     4  12  21  39  69  96 119 167 219 267 325 383
#     4  12  25  42  62  96 137 173 204 262 333 388
#     4  11  23  44  68  90 129 169 218 269 325 383
#     4  12  22  40  70  91 128 167 217 266 320 388
#     4  12  27  41  63  96 132 168 214 269 329 383
#     4  11  21  40  68  92 125 161 217 266 311 380
#
# _framework density 20.106653999999999
#
# number of rings (size 3 to 8) (size 9 to 14) (size 15 to 20)
#    0.000    0.444    8.889    1.333    3.111    0.444 
#    2.000    0.000    0.000    0.000    0.000    0.000 
#    0.000    0.000    0.000    0.000    0.000    0.000 
#
# Total GULP energy -892805.132637 kJ/mol
# GULP energy per Si atom -12400.071287 kJ/mol
# Density = 2.006089 g / cm^3
# Si number density = 20.106654 Si / 1000 Ang^3
#
#
#
# Elastic Constant Matrix: (Units=GPa)
#
#
# Indices 1 2 3 4 5 6 
#
# 1 74.4812 41.9514 10.2260 0.0000 0.0000 0.0000
# 2 41.9514 74.4810 10.2255 0.0000 0.0000 0.0000
# 3 10.2260 10.2255 154.0552 0.0000 0.0000 0.0000
# 4 0.0000 0.0000 0.0000 -41.6796 0.0000 0.0000
# 5 0.0000 0.0000 0.0000 0.0000 -41.6868 0.0000
# 6 0.0000 0.0000 0.0000 0.0000 0.0000 31.2691
#
#
#
# Elastic Compliance Matrix: (Units=1/GPa)
#
#
# Indices 1 2 3 4 5 6 
#
# 1 0.019716 -0.011026 -0.000577 0.000000 0.000000 0.000000
# 2 -0.011026 0.019716 -0.000577 0.000000 0.000000 0.000000
# 3 -0.000577 -0.000577 0.006568 0.000000 0.000000 0.000000
# 4 0.000000 0.000000 0.000000 -0.023993 0.000000 0.000000
# 5 0.000000 0.000000 0.000000 0.000000 -0.023988 0.000000
# 6 0.000000 0.000000 0.000000 0.000000 0.000000 0.031980
#
#
# Mechanical properties :
#
#
# Convention : Reuss Voigt Hill
#
# Bulk Modulus (GPa) = 46.20973 47.53590 46.87281
# Shear Modulus (GPa) = 81.20802 5.62152 43.41477
#
# Velocity S-wave (km/s) = 6.36210 1.67389 4.65179
# Velocity P-wave (km/s) = 8.77500 5.23728 7.22598
#
# Compressibility (1/GPa) = 0.02164047
#
# Stress axis : x y z
#
# Youngs Moduli (GPa) = 50.72136 50.72127 152.25908
#
# Poissons Ratio (x) = 0.55923 0.08783
# Poissons Ratio (y) = 0.55923 0.08782
# Poissons Ratio (z) = 0.02926 0.02925
#
# Static dielectric constant tensor:
#      x y z
#    x 3.603150 0.000000 0.000000 
#    y 0.000000 3.603150 0.000000 
#    z 0.000000 0.000000 4.010400 
# 
# 
# High freq. dielectric constant tensor:
#      x y z
#    x 1.776030 0.000000 0.000000 
#    y 0.000000 1.776030 0.000000 
#    z 0.000000 0.000000 1.809580 
# 
# From -- ./inp_files/7453.got.cif
#   From: 2010.03.12/outbox.cif.g09.slc.cpg/sg138_4_cif.got.tgz:7453.got - 2010.04.08 09:41:05.
