data_PCOD8319430
_publ_section_title
;
Structure prediction by ZEFSAII (Michael W. Deem and Ramdas Pophale) SiO2 
 PCOD8319430
Probable space group: I 4/M M M
;
_chemical_formula_sum "Si O2"
_cell_formula_units_Z 132
_cell_length_a 31.201485
_cell_length_b 31.201485
_cell_length_c 8.020726
_cell_angle_alpha 90.000000
_cell_angle_beta 90.000000
_cell_angle_gamma 90.000000
_cell_volume 7808.438768
_symmetry_space_group_name_H-M "I 4/M M M"
_symmetry_group_IT_number 139
_symmetry_cell_setting 'tetragonal'
loop_
_space_group_symop_operation_xyz
x,y,z
-y,x,z
-x,-y,z
y,-x,z
x,-y,-z
-x,y,-z
y,x,-z
-y,-x,-z
-x,-y,-z
y,-x,-z
x,y,-z
-y,x,-z
-x,y,z
x,-y,z
-y,-x,z
y,x,z
1/2+x,1/2+y,1/2+z
1/2-y,1/2+x,1/2+z
1/2-x,1/2-y,1/2+z
1/2+y,1/2-x,1/2+z
1/2+x,1/2-y,1/2-z
1/2-x,1/2+y,1/2-z
1/2+y,1/2+x,1/2-z
1/2-y,1/2-x,1/2-z
1/2-x,1/2-y,1/2-z
1/2+y,1/2-x,1/2-z
1/2+x,1/2+y,1/2-z
1/2-y,1/2+x,1/2-z
1/2-x,1/2+y,1/2+z
1/2+x,1/2-y,1/2+z
1/2-y,1/2-x,1/2+z
1/2+y,1/2+x,1/2+z
loop_
_atom_site_type_symbol
_atom_site_label
_atom_site_fract_x
_atom_site_fract_y
_atom_site_fract_z
Si Si1 0.050952 0.119317 0.500000
Si Si2 0.500000 0.000000 0.250000
Si Si3 0.500000 0.096077 0.182158
Si Si4 0.325378 0.550804 0.685287
Si Si5 0.765060 0.549582 0.195220
Si Si6 0.419570 0.144808 0.196488
O O1 0.072671 0.072671 0.500000
O O2 0.067358 0.143929 0.333459
O O3 0.000000 0.112807 0.500000
O O4 0.500000 0.955211 0.151778
O O5 0.457225 0.114016 0.273696
O O6 0.500000 0.117526 0.000000
O O7 0.341430 0.565298 0.500000
O O8 0.324090 0.500000 0.698675
O O9 0.276917 0.567779 0.711499
O O10 0.773386 0.500000 0.237128
O O11 0.806534 0.575517 0.261776
O O12 0.757150 0.556023 0.000000
O O13 0.373521 0.126480 0.250000
O O14 0.422753 0.144914 0.000000
#
# Coordination Sequence:
#
# PCOD8319430 Si02
#       6
#    16   4  16  32  32  32
#     4  10  20  35  54  80 116 152 182 208 234 264
#     4  12  18  28  44  42  68 116 166 220 250 292
#     4  10  19  29  37  52  71 107 158 202 252 305
#     4   9  17  30  50  76 102 133 174 215 255 293
#     4   9  15  27  47  64  85 121 160 206 265 321
#     4  10  19  30  41  57  83 114 152 201 259 319
#
# _framework density 16.904788
#
# number of rings (size 3 to 8) (size 9 to 14) (size 15 to 20)
#    0.000    2.424    3.636    0.182    0.000    1.576 
#    0.000    0.606    0.000    0.000    0.000    3.394 
#    0.000    0.970    0.485    0.000    0.000    0.000 
#
# Total GULP energy -817684.432309 kJ/mol
# GULP energy per Si atom -12389.158065 kJ/mol
# Density = 1.686631 g / cm^3
# Si number density = 16.904788 Si / 1000 Ang^3
#
#
#
# Elastic Constant Matrix: (Units=GPa)
#
#
# Indices 1 2 3 4 5 6 
#
# 1 67.4168 41.9376 30.5852 0.0000 0.0000 0.0000
# 2 41.9376 67.4148 30.5889 0.0000 0.0000 0.0000
# 3 30.5852 30.5889 80.2456 0.0000 0.0000 0.0000
# 4 0.0000 0.0000 0.0000 11.6313 0.0000 0.0000
# 5 0.0000 0.0000 0.0000 0.0000 11.6318 0.0000
# 6 0.0000 0.0000 0.0000 0.0000 0.0000 15.9676
#
#
#
# Elastic Compliance Matrix: (Units=1/GPa)
#
#
# Indices 1 2 3 4 5 6 
#
# 1 0.025435 -0.013813 -0.004429 0.000000 0.000000 0.000000
# 2 -0.013813 0.025437 -0.004432 0.000000 0.000000 0.000000
# 3 -0.004429 -0.004432 0.015839 0.000000 0.000000 0.000000
# 4 0.000000 0.000000 0.000000 0.085975 0.000000 0.000000
# 5 0.000000 0.000000 0.000000 0.000000 0.085971 0.000000
# 6 0.000000 0.000000 0.000000 0.000000 0.000000 0.062627
#
#
# Mechanical properties :
#
#
# Convention : Reuss Voigt Hill
#
# Bulk Modulus (GPa) = 46.80788 46.81118 46.80953
# Shear Modulus (GPa) = 14.13416 15.31051 14.72233
#
# Velocity S-wave (km/s) = 2.89468 3.01273 2.95430
# Velocity P-wave (km/s) = 6.23871 6.31295 6.27594
#
# Compressibility (1/GPa) = 0.02136392
#
# Stress axis : x y z
#
# Youngs Moduli (GPa) = 39.31579 39.31237 63.13473
#
# Poissons Ratio (x) = 0.54303 0.27962
# Poissons Ratio (y) = 0.54307 0.27979
# Poissons Ratio (z) = 0.17413 0.17422
#
# Static dielectric constant tensor:
#      x y z
#    x 3.078390 0.000000 0.000000 
#    y 0.000000 3.078410 0.000000 
#    z 0.000000 0.000000 3.147940 
# 
# 
# High freq. dielectric constant tensor:
#      x y z
#    x 1.617830 0.000000 0.000000 
#    y 0.000000 1.617830 0.000000 
#    z 0.000000 0.000000 1.648950 
# 
# From -- ./inp_files/1892.got.cif
#   From: 2010.03.12/outbox.cif.g09.slc.cpg/sg139_1_cif.got.tgz:1892.got - 2010.04.08 09:46:31.
