data_PCOD8319173
_publ_section_title
;
Structure prediction by ZEFSAII (Michael W. Deem and Ramdas Pophale) SiO2 
 PCOD8319173
Probable space group: P 42/N C M
;
_chemical_formula_sum "Si O2"
_cell_formula_units_Z 96
_cell_length_a 23.429677
_cell_length_b 23.429677
_cell_length_c 11.725366
_cell_angle_alpha 90.000000
_cell_angle_beta 90.000000
_cell_angle_gamma 90.000000
_cell_volume 6436.636902
_symmetry_space_group_name_H-M "P 42/N C M"
_symmetry_group_IT_number 138
_space_group.IT_coordinate_system_code '2'
_symmetry_cell_setting 'tetragonal'
loop_
_space_group_symop_operation_xyz
x,y,z
1/2-y,x,1/2+z
1/2-x,1/2-y,z
y,1/2-x,1/2+z
1/2+x,-y,1/2-z
-x,1/2+y,1/2-z
1/2+y,1/2+x,-z
-y,-x,-z
-x,-y,-z
1/2+y,-x,1/2-z
1/2+x,1/2+y,-z
-y,1/2+x,1/2-z
1/2-x,y,1/2+z
x,1/2-y,1/2+z
1/2-y,1/2-x,z
y,x,z
loop_
_atom_site_type_symbol
_atom_site_label
_atom_site_fract_x
_atom_site_fract_y
_atom_site_fract_z
Si Si1 0.429240 0.682296 0.234203
Si Si2 0.219795 0.630719 0.485011
Si Si3 0.422237 0.988850 0.340049
Si Si4 0.301037 0.950853 0.695162
Si Si5 0.154734 0.875141 0.387389
Si Si6 0.013860 0.102978 0.090054
O O1 0.406506 0.684286 0.105652
O O2 0.469922 0.626899 0.248105
O O3 0.467773 0.737975 0.261297
O O4 0.374419 0.677113 0.318140
O O5 0.193175 0.693175 0.500000
O O6 0.210740 0.598458 0.603950
O O7 0.283751 0.641163 0.440219
O O8 0.460497 0.934448 0.369662
O O9 0.461535 0.038466 0.284346
O O10 0.392839 0.013638 0.453785
O O11 0.338773 0.928585 0.802588
O O12 0.333835 0.005928 0.643958
O O13 0.114382 0.885619 0.500000
O O14 0.073338 0.073338 0.130345
#
# Coordination Sequence:
#
# PCOD8319173 Si02
#       6
#    16  16  16  16  16  16
#     4  11  20  32  47  65  93 120 154 195 234 280
#     4  11  20  32  46  59  83 122 165 195 230 254
#     4   9  16  28  50  71  88 112 151 203 237 268
#     4  11  20  32  49  63  91 125 147 195 239 269
#     4  11  22  32  40  63  87 121 159 190 225 277
#     4   9  16  28  49  74  90 110 155 202 241 272
#
# _framework density 14.914621
#
# number of rings (size 3 to 8) (size 9 to 14) (size 15 to 20)
#    0.000    1.667    6.667    1.000    0.000    0.333 
#    0.000    0.000    0.000    2.000    0.000    0.000 
#    0.000    0.667    0.000    3.667    0.000    0.000 
#
# Total GULP energy -1189329.043944 kJ/mol
# GULP energy per Si atom -12388.844208 kJ/mol
# Density = 1.488067 g / cm^3
# Si number density = 14.914621 Si / 1000 Ang^3
#
#
#
# Elastic Constant Matrix: (Units=GPa)
#
#
# Indices 1 2 3 4 5 6 
#
# 1 65.9839 41.7702 20.1068 0.0000 0.0000 0.0000
# 2 41.7702 65.9838 20.1067 0.0000 0.0000 0.0000
# 3 20.1068 20.1067 63.8363 0.0000 0.0000 0.0000
# 4 0.0000 0.0000 0.0000 16.0155 0.0000 0.0000
# 5 0.0000 0.0000 0.0000 0.0000 16.0156 0.0000
# 6 0.0000 0.0000 0.0000 0.0000 0.0000 24.8324
#
#
#
# Elastic Compliance Matrix: (Units=1/GPa)
#
#
# Indices 1 2 3 4 5 6 
#
# 1 0.025908 -0.015391 -0.003312 0.000000 0.000000 0.000000
# 2 -0.015391 0.025908 -0.003312 0.000000 0.000000 0.000000
# 3 -0.003312 -0.003312 0.017752 0.000000 0.000000 0.000000
# 4 0.000000 0.000000 0.000000 0.062440 0.000000 0.000000
# 5 0.000000 0.000000 0.000000 0.000000 0.062439 0.000000
# 6 0.000000 0.000000 0.000000 0.000000 0.000000 0.040270
#
#
# Mechanical properties :
#
#
# Convention : Reuss Voigt Hill
#
# Bulk Modulus (GPa) = 39.16175 39.97459 39.56817
# Shear Modulus (GPa) = 17.40583 18.96070 18.18327
#
# Velocity S-wave (km/s) = 3.41989 3.56937 3.49543
# Velocity P-wave (km/s) = 6.47368 6.62176 6.54814
#
# Compressibility (1/GPa) = 0.02553512
#
# Stress axis : x y z
#
# Youngs Moduli (GPa) = 38.59850 38.59842 56.33254
#
# Poissons Ratio (x) = 0.59407 0.18660
# Poissons Ratio (y) = 0.59408 0.18660
# Poissons Ratio (z) = 0.12786 0.12786
#
# Static dielectric constant tensor:
#      x y z
#    x 2.751540 0.000000 0.000000 
#    y 0.000000 2.751540 0.000000 
#    z 0.000000 0.000000 3.095140 
# 
# 
# High freq. dielectric constant tensor:
#      x y z
#    x 1.538400 0.000000 0.000000 
#    y 0.000000 1.538400 0.000000 
#    z 0.000000 0.000000 1.576990 
# 
# From -- ./inp_files/3205.got.cif
#   From: 2010.03.12/outbox.cif.g09.slc.cpg/sg138_2_cif.got.tgz:3205.got - 2010.04.08 09:41:05.
