data_PCOD8319896
_publ_section_title
;
Structure prediction by ZEFSAII (Michael W. Deem and Ramdas Pophale) SiO2 
 PCOD8319896
Probable space group: I 4/M M M
;
_chemical_formula_sum "Si O2"
_cell_formula_units_Z 160
_cell_length_a 31.382145
_cell_length_b 31.382145
_cell_length_c 9.236451
_cell_angle_alpha 90.000000
_cell_angle_beta 90.000000
_cell_angle_gamma 90.000000
_cell_volume 9096.417395
_symmetry_space_group_name_H-M "I 4/M M M"
_symmetry_group_IT_number 139
_symmetry_cell_setting 'tetragonal'
loop_
_space_group_symop_operation_xyz
x,y,z
-y,x,z
-x,-y,z
y,-x,z
x,-y,-z
-x,y,-z
y,x,-z
-y,-x,-z
-x,-y,-z
y,-x,-z
x,y,-z
-y,x,-z
-x,y,z
x,-y,z
-y,-x,z
y,x,z
1/2+x,1/2+y,1/2+z
1/2-y,1/2+x,1/2+z
1/2-x,1/2-y,1/2+z
1/2+y,1/2-x,1/2+z
1/2+x,1/2-y,1/2-z
1/2-x,1/2+y,1/2-z
1/2+y,1/2+x,1/2-z
1/2-y,1/2-x,1/2-z
1/2-x,1/2-y,1/2-z
1/2+y,1/2-x,1/2-z
1/2+x,1/2+y,1/2-z
1/2-y,1/2+x,1/2-z
1/2-x,1/2+y,1/2+z
1/2+x,1/2-y,1/2+z
1/2-y,1/2-x,1/2+z
1/2+y,1/2+x,1/2+z
loop_
_atom_site_type_symbol
_atom_site_label
_atom_site_fract_x
_atom_site_fract_y
_atom_site_fract_z
Si Si1 0.896134 0.339240 0.662897
Si Si2 0.951352 0.951352 0.329578
Si Si3 0.612044 0.387957 0.331315
Si Si4 0.548515 0.220302 0.333880
Si Si5 0.267056 0.175154 0.664065
Si Si6 0.208959 0.884532 0.168503
O O1 0.907407 0.352917 0.500000
O O2 0.880882 0.380882 0.750000
O O3 0.938029 0.320101 0.738023
O O4 0.859636 0.303986 0.666390
O O5 0.945925 0.945925 0.500000
O O6 0.919115 0.919115 0.253717
O O7 0.000000 0.940554 0.283961
O O8 0.603973 0.396028 0.500000
O O9 0.602703 0.338985 0.288671
O O10 0.556448 0.207539 0.500000
O O11 0.500000 0.231581 0.300960
O O12 0.574771 0.262383 0.292882
O O13 0.255494 0.188100 0.500000
O O14 0.283011 0.216990 0.750000
O O15 0.224979 0.156356 0.741090
O O16 0.211799 0.871927 0.000000
#
# Coordination Sequence:
#
# PCOD8319896 Si02
#       6
#    32  16  16  32  32  32
#     4   9  16  26  42  64  90 120 155 195 236 278
#     4   9  20  40  62  81 101 125 154 191 238 293
#     4  10  21  35  54  79 104 129 159 199 244 291
#     4   9  17  29  45  65  92 126 159 192 235 286
#     4   9  16  27  45  67  90 122 164 206 244 281
#     4   9  18  32  47  67  97 129 161 199 243 291
#
# _framework density 17.589341999999998
#
# number of rings (size 3 to 8) (size 9 to 14) (size 15 to 20)
#    0.000    2.900    0.000    1.500    0.000    7.200 
#    0.000    3.000    0.000    0.000    0.000    0.000 
#    0.000    0.400    0.000    4.200    0.000    2.200 
#
# Total GULP energy -991881.396403 kJ/mol
# GULP energy per Si atom -12398.517455 kJ/mol
# Density = 1.754931 g / cm^3
# Si number density = 17.589342 Si / 1000 Ang^3
#
#
#
# Elastic Constant Matrix: (Units=GPa)
#
#
# Indices 1 2 3 4 5 6 
#
# 1 75.0873 91.8128 59.4577 0.0000 0.0000 0.0000
# 2 91.8128 75.0861 59.4582 0.0000 0.0000 0.0000
# 3 59.4577 59.4582 108.3379 0.0000 0.0000 0.0000
# 4 0.0000 0.0000 0.0000 22.6559 0.0000 0.0000
# 5 0.0000 0.0000 0.0000 0.0000 22.6561 0.0000
# 6 0.0000 0.0000 0.0000 0.0000 0.0000 31.4693
#
#
#
# Elastic Compliance Matrix: (Units=1/GPa)
#
#
# Indices 1 2 3 4 5 6 
#
# 1 -0.024973 0.034813 -0.005400 0.000000 0.000000 0.000000
# 2 0.034813 -0.024974 -0.005399 0.000000 0.000000 0.000000
# 3 -0.005400 -0.005399 0.015157 0.000000 0.000000 0.000000
# 4 0.000000 0.000000 0.000000 0.044139 0.000000 0.000000
# 5 0.000000 0.000000 0.000000 0.000000 0.044138 0.000000
# 6 0.000000 0.000000 0.000000 0.000000 0.000000 0.031777
#
#
# Mechanical properties :
#
#
# Convention : Reuss Voigt Hill
#
# Bulk Modulus (GPa) = 75.55083 75.55206 75.55145
# Shear Modulus (GPa) = 120.05162 18.54177 69.29669
#
# Velocity S-wave (km/s) = 8.27047 3.25029 6.28351
# Velocity P-wave (km/s) = 11.58649 7.55860 9.78210
#
# Compressibility (1/GPa) = 0.01323612
#
# Stress axis : x y z
#
# Youngs Moduli (GPa) = -40.04247 -40.04091 65.97410
#
# Poissons Ratio (x) = 1.39394 0.35628
# Poissons Ratio (y) = 1.39400 0.35622
# Poissons Ratio (z) = -0.21624 -0.21620
#
# Static dielectric constant tensor:
#      x y z
#    x 3.144590 0.000000 0.000000 
#    y 0.000000 3.144590 0.000000 
#    z 0.000000 0.000000 3.364730 
# 
# 
# High freq. dielectric constant tensor:
#      x y z
#    x 1.662670 0.000000 0.000000 
#    y 0.000000 1.662670 0.000000 
#    z 0.000000 0.000000 1.683780 
# 
# From -- ./inp_files/2220.got.cif
#   From: 2010.03.12/outbox.cif.g09.slc.cpg/sg139_2_cif.got.tgz:2220.got - 2010.04.08 09:46:31.
