data_PCOD8319456
_publ_section_title
;
Structure prediction by ZEFSAII (Michael W. Deem and Ramdas Pophale) SiO2 
 PCOD8319456
Probable space group: I 4/M M M
;
_chemical_formula_sum "Si O2"
_cell_formula_units_Z 224
_cell_length_a 23.618118
_cell_length_b 23.618118
_cell_length_c 23.622125
_cell_angle_alpha 90.000000
_cell_angle_beta 90.000000
_cell_angle_gamma 90.000000
_cell_volume 13176.787417
_symmetry_space_group_name_H-M "I 4/M M M"
_symmetry_group_IT_number 139
_symmetry_cell_setting 'tetragonal'
loop_
_space_group_symop_operation_xyz
x,y,z
-y,x,z
-x,-y,z
y,-x,z
x,-y,-z
-x,y,-z
y,x,-z
-y,-x,-z
-x,-y,-z
y,-x,-z
x,y,-z
-y,x,-z
-x,y,z
x,-y,z
-y,-x,z
y,x,z
1/2+x,1/2+y,1/2+z
1/2-y,1/2+x,1/2+z
1/2-x,1/2-y,1/2+z
1/2+y,1/2-x,1/2+z
1/2+x,1/2-y,1/2-z
1/2-x,1/2+y,1/2-z
1/2+y,1/2+x,1/2-z
1/2-y,1/2-x,1/2-z
1/2-x,1/2-y,1/2-z
1/2+y,1/2-x,1/2-z
1/2+x,1/2+y,1/2-z
1/2-y,1/2+x,1/2-z
1/2-x,1/2+y,1/2+z
1/2+x,1/2-y,1/2+z
1/2-y,1/2-x,1/2+z
1/2+y,1/2+x,1/2+z
loop_
_atom_site_type_symbol
_atom_site_label
_atom_site_fract_x
_atom_site_fract_y
_atom_site_fract_z
Si Si1 0.661853 0.146383 0.565941
Si Si2 0.340587 0.566554 0.222059
Si Si3 0.563434 0.937204 0.067051
Si Si4 0.343610 0.435337 0.350866
Si Si5 0.223966 0.867029 0.629172
Si Si6 0.367525 0.276090 0.436352
Si Si7 0.145936 0.060541 0.434595
O O1 0.679460 0.133153 0.500000
O O2 0.610856 0.106646 0.587863
O O3 0.710522 0.138407 0.613237
O O4 0.641991 0.210176 0.570940
O O5 0.349458 0.500000 0.207877
O O6 0.399300 0.600701 0.210621
O O7 0.321677 0.574198 0.286984
O O8 0.290162 0.593993 0.184046
O O9 0.500000 0.922175 0.088409
O O10 0.580977 0.000000 0.089764
O O11 0.564330 0.938792 0.000000
O O12 0.359205 0.500000 0.362439
O O13 0.400319 0.400319 0.363432
O O14 0.294002 0.416417 0.393047
O O15 0.194884 0.805117 0.636011
O O16 0.199601 0.899811 0.574734
O O17 0.388065 0.289880 0.500000
O O18 0.309141 0.309141 0.422800
O O19 0.136578 0.051789 0.500000
O O20 0.090912 0.090912 0.407247
O O21 0.153553 0.000000 0.404175
#
# Coordination Sequence:
#
# PCOD8319456 Si02
#       7
#    32  32  32  32  32  32  32
#     4  10  19  30  48  71  92 122 162 195 232 293
#     4   9  18  32  49  69  95 129 168 209 249 286
#     4   8  15  28  43  61  88 116 142 181 232 280
#     4   9  18  33  52  74 101 131 162 197 237 281
#     4  10  19  30  43  62  90 121 155 199 244 277
#     4   9  18  32  49  71  99 126 152 187 231 279
#     4   9  17  27  38  54  79 113 152 195 242 287
#
# _framework density 16.999592
#
# number of rings (size 3 to 8) (size 9 to 14) (size 15 to 20)
#    0.000    2.857    0.000    1.714    0.000    3.857 
#    0.000    5.714    0.000    6.000    0.000    2.000 
#    0.000    0.000    0.000    6.286    0.000    2.714 
#
# Total GULP energy -1387582.988309 kJ/mol
# GULP energy per Si atom -12389.133824 kJ/mol
# Density = 1.696090 g / cm^3
# Si number density = 16.999592 Si / 1000 Ang^3
#
#
#
# Elastic Constant Matrix: (Units=GPa)
#
#
# Indices 1 2 3 4 5 6 
#
# 1 50.4474 114.3268 45.7803 0.0000 0.0000 0.0000
# 2 114.3268 50.4474 45.7803 0.0000 0.0000 0.0000
# 3 45.7803 45.7803 77.8684 0.0000 0.0000 0.0000
# 4 0.0000 0.0000 0.0000 20.3946 0.0000 0.0000
# 5 0.0000 0.0000 0.0000 0.0000 20.3946 0.0000
# 6 0.0000 0.0000 0.0000 0.0000 0.0000 18.7480
#
#
#
# Elastic Compliance Matrix: (Units=1/GPa)
#
#
# Indices 1 2 3 4 5 6 
#
# 1 -0.003320 0.012334 -0.005299 0.000000 0.000000 0.000000
# 2 0.012334 -0.003320 -0.005299 0.000000 0.000000 0.000000
# 3 -0.005299 -0.005299 0.019073 0.000000 0.000000 0.000000
# 4 0.000000 0.000000 0.000000 0.049033 0.000000 0.000000
# 5 0.000000 0.000000 0.000000 0.000000 0.049033 0.000000
# 6 0.000000 0.000000 0.000000 0.000000 0.000000 0.053339
#
#
# Mechanical properties :
#
#
# Convention : Reuss Voigt Hill
#
# Bulk Modulus (GPa) = 62.87972 65.61534 64.24753
# Shear Modulus (GPa) = 30.18110 10.09916 20.14013
#
# Velocity S-wave (km/s) = 4.21812 2.44002 3.44574
# Velocity P-wave (km/s) = 7.79697 6.82790 7.32847
#
# Compressibility (1/GPa) = 0.01590338
#
# Stress axis : x y z
#
# Youngs Moduli (GPa) = -301.16146 -301.16150 52.42958
#
# Poissons Ratio (x) = 3.71453 0.27784
# Poissons Ratio (y) = 3.71453 0.27784
# Poissons Ratio (z) = -1.59592 -1.59592
#
# Static dielectric constant tensor:
#      x y z
#    x 3.280740 0.000000 0.000000 
#    y 0.000000 3.280740 0.000000 
#    z 0.000000 0.000000 3.119350 
# 
# 
# High freq. dielectric constant tensor:
#      x y z
#    x 1.650140 0.000000 0.000000 
#    y 0.000000 1.650140 0.000000 
#    z 0.000000 0.000000 1.635770 
# 
# From -- ./inp_files/12238.got.cif
#   From: 2010.03.12/outbox.cif.g09.slc.cpg/sg139_7_cif.got.tgz:12238.got - 2010.04.08 09:46:31.
