data_PCOD8319610
_publ_section_title
;
Structure prediction by ZEFSAII (Michael W. Deem and Ramdas Pophale) SiO2 
 PCOD8319610
Probable space group: I 4/M M M
;
_chemical_formula_sum "Si O2"
_cell_formula_units_Z 240
_cell_length_a 20.280835
_cell_length_b 20.280835
_cell_length_c 32.155487
_cell_angle_alpha 90.000000
_cell_angle_beta 90.000000
_cell_angle_gamma 90.000000
_cell_volume 13225.946296
_symmetry_space_group_name_H-M "I 4/M M M"
_symmetry_group_IT_number 139
_symmetry_cell_setting 'tetragonal'
loop_
_space_group_symop_operation_xyz
x,y,z
-y,x,z
-x,-y,z
y,-x,z
x,-y,-z
-x,y,-z
y,x,-z
-y,-x,-z
-x,-y,-z
y,-x,-z
x,y,-z
-y,x,-z
-x,y,z
x,-y,z
-y,-x,z
y,x,z
1/2+x,1/2+y,1/2+z
1/2-y,1/2+x,1/2+z
1/2-x,1/2-y,1/2+z
1/2+y,1/2-x,1/2+z
1/2+x,1/2-y,1/2-z
1/2-x,1/2+y,1/2-z
1/2+y,1/2+x,1/2-z
1/2-y,1/2-x,1/2-z
1/2-x,1/2-y,1/2-z
1/2+y,1/2-x,1/2-z
1/2+x,1/2+y,1/2-z
1/2-y,1/2+x,1/2-z
1/2-x,1/2+y,1/2+z
1/2+x,1/2-y,1/2+z
1/2-y,1/2-x,1/2+z
1/2+y,1/2+x,1/2+z
loop_
_atom_site_type_symbol
_atom_site_label
_atom_site_fract_x
_atom_site_fract_y
_atom_site_fract_z
Si Si1 0.573355 0.314708 0.500000
Si Si2 0.814863 0.576923 0.257481
Si Si3 0.762106 0.132565 0.317285
Si Si4 0.928729 0.573545 0.049339
Si Si5 0.236915 0.654259 0.665819
Si Si6 0.923774 0.816903 0.601090
Si Si7 0.640334 0.202449 0.048637
Si Si8 0.738391 0.636700 0.423862
O O1 0.500000 0.344915 0.500000
O O2 0.626445 0.373556 0.500000
O O3 0.580431 0.266908 0.459397
O O4 0.832986 0.500000 0.262034
O O5 0.882095 0.617906 0.250000
O O6 0.765080 0.587131 0.219376
O O7 0.775674 0.601775 0.297975
O O8 0.818547 0.181454 0.299492
O O9 0.704278 0.175731 0.337800
O O10 0.791805 0.084596 0.351971
O O11 0.921925 0.500000 0.067263
O O12 0.867930 0.614941 0.067003
O O13 0.000000 0.603185 0.063548
O O14 0.925338 0.571843 0.000000
O O15 0.303905 0.696096 0.674277
O O16 0.239695 0.613410 0.622281
O O17 0.884996 0.884996 0.593981
O O18 0.895862 0.763013 0.569618
O O19 0.000000 0.829944 0.591476
O O20 0.717133 0.198062 0.059621
O O21 0.627307 0.210520 0.000000
O O22 0.665314 0.665314 0.418547
#
# Coordination Sequence:
#
# PCOD8319610 Si02
#       8
#    16  32  32  32  32  32  32  32
#     4  10  22  37  54  78 109 149 188 224 270 320
#     4  10  20  33  52  78 109 144 178 209 248 307
#     4   9  17  33  57  81 103 129 170 221 271 321
#     4   8  15  28  44  64  93 126 161 202 245 295
#     4   9  17  32  55  81 106 132 167 220 277 317
#     4  11  23  37  55  78 105 140 183 231 281 332
#     4  11  20  32  53  78 102 137 175 219 271 334
#     4  10  19  33  52  77 107 133 167 222 273 313
#
# _framework density 18.146149000000001
#
# number of rings (size 3 to 8) (size 9 to 14) (size 15 to 20)
#    0.000    2.267    2.000    2.000    0.000    4.600 
#    0.000    0.000    0.000    0.000    0.000    0.933 
#    0.000    2.400    0.000    0.533    0.000    0.000 
#
# Total GULP energy -1487091.720347 kJ/mol
# GULP energy per Si atom -12392.431003 kJ/mol
# Density = 1.810485 g / cm^3
# Si number density = 18.146149 Si / 1000 Ang^3
#
#
#
# Elastic Constant Matrix: (Units=GPa)
#
#
# Indices 1 2 3 4 5 6 
#
# 1 90.3760 37.8814 45.3591 0.0000 0.0000 0.0000
# 2 37.8814 90.3786 45.3598 0.0000 0.0000 0.0000
# 3 45.3591 45.3598 109.4957 0.0000 0.0000 0.0000
# 4 0.0000 0.0000 0.0000 16.2724 0.0000 0.0000
# 5 0.0000 0.0000 0.0000 0.0000 16.2722 0.0000
# 6 0.0000 0.0000 0.0000 0.0000 0.0000 20.7574
#
#
#
# Elastic Compliance Matrix: (Units=1/GPa)
#
#
# Indices 1 2 3 4 5 6 
#
# 1 0.015039 -0.004011 -0.004568 0.000000 0.000000 0.000000
# 2 -0.004011 0.015038 -0.004568 0.000000 0.000000 0.000000
# 3 -0.004568 -0.004568 0.012918 0.000000 0.000000 0.000000
# 4 0.000000 0.000000 0.000000 0.061454 0.000000 0.000000
# 5 0.000000 0.000000 0.000000 0.000000 0.061454 0.000000
# 6 0.000000 0.000000 0.000000 0.000000 0.000000 0.048176
#
#
# Mechanical properties :
#
#
# Convention : Reuss Voigt Hill
#
# Bulk Modulus (GPa) = 59.87985 60.82787 60.35386
# Shear Modulus (GPa) = 20.33014 21.43708 20.88361
#
# Velocity S-wave (km/s) = 3.35080 3.44082 3.39611
# Velocity P-wave (km/s) = 6.93115 7.02705 6.97926
#
# Compressibility (1/GPa) = 0.01670011
#
# Stress axis : x y z
#
# Youngs Moduli (GPa) = 66.49472 66.49652 77.41243
#
# Poissons Ratio (x) = 0.26668 0.35366
# Poissons Ratio (y) = 0.26668 0.35365
# Poissons Ratio (z) = 0.30378 0.30379
#
# Static dielectric constant tensor:
#      x y z
#    x 3.276090 0.000000 0.000000 
#    y 0.000000 3.276090 0.000000 
#    z 0.000000 0.000000 3.344730 
# 
# 
# High freq. dielectric constant tensor:
#      x y z
#    x 1.689310 0.000000 0.000000 
#    y 0.000000 1.689310 0.000000 
#    z 0.000000 0.000000 1.699150 
# 
# From -- ./inp_files/14666.got.cif
#   From: 2010.03.12/outbox.cif.g09.slc.cpg/sg139_8_cif.got.tgz:14666.got - 2010.04.08 09:46:31.
