data_PCOD8319408
_publ_section_title
;
Structure prediction by ZEFSAII (Michael W. Deem and Ramdas Pophale) SiO2 
 PCOD8319408
Probable space group: I 4/M M M
;
_chemical_formula_sum "Si O2"
_cell_formula_units_Z 176
_cell_length_a 23.780876
_cell_length_b 23.780876
_cell_length_c 15.498712
_cell_angle_alpha 90.000000
_cell_angle_beta 90.000000
_cell_angle_gamma 90.000000
_cell_volume 8764.987579
_symmetry_space_group_name_H-M "I 4/M M M"
_symmetry_group_IT_number 139
_symmetry_cell_setting 'tetragonal'
loop_
_space_group_symop_operation_xyz
x,y,z
-y,x,z
-x,-y,z
y,-x,z
x,-y,-z
-x,y,-z
y,x,-z
-y,-x,-z
-x,-y,-z
y,-x,-z
x,y,-z
-y,x,-z
-x,y,z
x,-y,z
-y,-x,z
y,x,z
1/2+x,1/2+y,1/2+z
1/2-y,1/2+x,1/2+z
1/2-x,1/2-y,1/2+z
1/2+y,1/2-x,1/2+z
1/2+x,1/2-y,1/2-z
1/2-x,1/2+y,1/2-z
1/2+y,1/2+x,1/2-z
1/2-y,1/2-x,1/2-z
1/2-x,1/2-y,1/2-z
1/2+y,1/2-x,1/2-z
1/2+x,1/2+y,1/2-z
1/2-y,1/2+x,1/2-z
1/2-x,1/2+y,1/2+z
1/2+x,1/2-y,1/2+z
1/2-y,1/2-x,1/2+z
1/2+y,1/2+x,1/2+z
loop_
_atom_site_type_symbol
_atom_site_label
_atom_site_fract_x
_atom_site_fract_y
_atom_site_fract_z
Si Si1 0.293149 0.387644 0.094783
Si Si2 0.434211 0.065790 0.750000
Si Si3 0.063709 0.363711 0.093744
Si Si4 0.788190 0.302776 0.842806
Si Si5 0.342339 0.434844 0.738809
Si Si6 0.104776 0.755228 0.903144
O O1 0.338694 0.338694 0.094263
O O2 0.231127 0.360974 0.112273
O O3 0.309433 0.431472 0.169960
O O4 0.291985 0.417132 0.000000
O O5 0.500000 0.078313 0.762194
O O6 0.402344 0.092017 0.833097
O O7 0.065424 0.297996 0.119072
O O8 0.000000 0.383475 0.086312
O O9 0.093427 0.372808 0.000000
O O10 0.731786 0.268215 0.826564
O O11 0.816370 0.316370 0.750000
O O12 0.831173 0.266975 0.900315
O O13 0.354926 0.500000 0.718228
O O14 0.401280 0.401280 0.742493
O O15 0.304743 0.407141 0.663826
O O16 0.093161 0.777999 0.000000
#
# Coordination Sequence:
#
# PCOD8319408 Si02
#       6
#    32  16  32  32  32  32
#     4   9  18  34  56  83 116 150 182 223 280 346
#     4   9  18  32  52  78 107 146 194 236 277 330
#     4   9  19  34  50  72 104 141 182 229 278 327
#     4  10  18  31  53  83 117 147 177 215 264 330
#     4  11  24  41  61  85 113 149 197 254 314 376
#     4  11  22  36  57  84 114 149 188 232 287 351
#
# _framework density 20.079892000000001
#
# number of rings (size 3 to 8) (size 9 to 14) (size 15 to 20)
#    0.000    2.091    1.818    1.636    1.273    4.182 
#    0.000    1.818    0.000    0.000    0.000    8.909 
#    0.000    0.000    0.000    0.000    0.000    0.000 
#
# Total GULP energy -1090587.665293 kJ/mol
# GULP energy per Si atom -12393.041651 kJ/mol
# Density = 2.003419 g / cm^3
# Si number density = 20.079892 Si / 1000 Ang^3
#
#
#
# Elastic Constant Matrix: (Units=GPa)
#
#
# Indices 1 2 3 4 5 6 
#
# 1 70.8270 23.6389 35.3512 0.0000 0.0000 0.0000
# 2 23.6389 70.8254 35.3518 0.0000 0.0000 0.0000
# 3 35.3512 35.3518 137.9654 0.0000 0.0000 0.0000
# 4 0.0000 0.0000 0.0000 20.6006 0.0000 0.0000
# 5 0.0000 0.0000 0.0000 0.0000 20.6006 0.0000
# 6 0.0000 0.0000 0.0000 0.0000 0.0000 23.0441
#
#
#
# Elastic Compliance Matrix: (Units=1/GPa)
#
#
# Indices 1 2 3 4 5 6 
#
# 1 0.017145 -0.004047 -0.003356 0.000000 0.000000 0.000000
# 2 -0.004047 0.017145 -0.003356 0.000000 0.000000 0.000000
# 3 -0.003356 -0.003356 0.008968 0.000000 0.000000 0.000000
# 4 0.000000 0.000000 0.000000 0.048542 0.000000 0.000000
# 5 0.000000 0.000000 0.000000 0.000000 0.048542 0.000000
# 6 0.000000 0.000000 0.000000 0.000000 0.000000 0.043395
#
#
# Mechanical properties :
#
#
# Convention : Reuss Voigt Hill
#
# Bulk Modulus (GPa) = 45.99968 52.03353 49.01660
# Shear Modulus (GPa) = 23.52909 25.20078 24.36493
#
# Velocity S-wave (km/s) = 3.42683 3.54648 3.48717
# Velocity P-wave (km/s) = 6.21415 6.53755 6.37790
#
# Compressibility (1/GPa) = 0.02173928
#
# Stress axis : x y z
#
# Youngs Moduli (GPa) = 58.32697 58.32524 111.50628
#
# Poissons Ratio (x) = 0.23605 0.37422
# Poissons Ratio (y) = 0.23606 0.37424
# Poissons Ratio (z) = 0.19575 0.19575
#
# Static dielectric constant tensor:
#      x y z
#    x 3.406460 0.000000 0.000000 
#    y 0.000000 3.406490 0.000000 
#    z 0.000000 0.000000 4.140170 
# 
# 
# High freq. dielectric constant tensor:
#      x y z
#    x 1.757440 0.000000 0.000000 
#    y 0.000000 1.757440 0.000000 
#    z 0.000000 0.000000 1.802890 
# 
# From -- ./inp_files/6088.got.cif
#   From: 2010.03.12/outbox.cif.g09.slc.cpg/sg139_4_cif.got.tgz:6088.got - 2010.04.08 09:46:31.
