data_PCOD8319938
_publ_section_title
;
Structure prediction by ZEFSAII (Michael W. Deem and Ramdas Pophale) SiO2 
 PCOD8319938
Probable space group: I 4/M M M
;
_chemical_formula_sum "Si O2"
_cell_formula_units_Z 160
_cell_length_a 21.616400
_cell_length_b 21.616400
_cell_length_c 17.154162
_cell_angle_alpha 90.000000
_cell_angle_beta 90.000000
_cell_angle_gamma 90.000000
_cell_volume 8015.603817
_symmetry_space_group_name_H-M "I 4/M M M"
_symmetry_group_IT_number 139
_symmetry_cell_setting 'tetragonal'
loop_
_space_group_symop_operation_xyz
x,y,z
-y,x,z
-x,-y,z
y,-x,z
x,-y,-z
-x,y,-z
y,x,-z
-y,-x,-z
-x,-y,-z
y,-x,-z
x,y,-z
-y,x,-z
-x,y,z
x,-y,z
-y,-x,z
y,x,z
1/2+x,1/2+y,1/2+z
1/2-y,1/2+x,1/2+z
1/2-x,1/2-y,1/2+z
1/2+y,1/2-x,1/2+z
1/2+x,1/2-y,1/2-z
1/2-x,1/2+y,1/2-z
1/2+y,1/2+x,1/2-z
1/2-y,1/2-x,1/2-z
1/2-x,1/2-y,1/2-z
1/2+y,1/2-x,1/2-z
1/2+x,1/2+y,1/2-z
1/2-y,1/2+x,1/2-z
1/2-x,1/2+y,1/2+z
1/2+x,1/2-y,1/2+z
1/2-y,1/2-x,1/2+z
1/2+y,1/2+x,1/2+z
loop_
_atom_site_type_symbol
_atom_site_label
_atom_site_fract_x
_atom_site_fract_y
_atom_site_fract_z
Si Si1 0.387617 0.289165 0.337335
Si Si2 0.072842 0.500000 0.407475
Si Si3 0.570208 0.668349 0.500000
Si Si4 0.654078 0.245992 0.909848
Si Si5 0.930982 0.834862 0.682598
Si Si6 0.648109 0.886544 0.166062
O O1 0.316829 0.316829 0.333204
O O2 0.412222 0.292319 0.424810
O O3 0.428681 0.328250 0.276470
O O4 0.398861 0.219064 0.312782
O O5 0.074663 0.500000 0.500000
O O6 0.110181 0.560377 0.378689
O O7 0.000000 0.500000 0.379786
O O8 0.500000 0.650846 0.500000
O O9 0.602882 0.602882 0.500000
O O10 0.721131 0.278870 0.894295
O O11 0.602310 0.277273 0.857260
O O12 0.652215 0.174501 0.886977
O O13 0.636085 0.252650 0.000000
O O14 0.898051 0.898051 0.656379
O O15 0.000000 0.838010 0.651464
O O16 0.616689 0.883311 0.250000
#
# Coordination Sequence:
#
# PCOD8319938 Si02
#       6
#    32  16  16  32  32  32
#     4  10  22  38  59  94 130 161 205 261 313 370
#     4  11  30  52  66  90 128 168 216 268 311 380
#     4  10  22  37  58  88 128 170 212 260 303 367
#     4  10  22  40  63  94 128 162 207 261 319 378
#     4  10  21  38  60  88 125 163 205 255 306 367
#     4  12  25  40  70  94 122 166 203 257 323 381
#
# _framework density 19.961067
#
# number of rings (size 3 to 8) (size 9 to 14) (size 15 to 20)
#    0.000    1.500    2.000    1.800    7.000    2.300 
#    0.000    0.000    0.000    3.600    0.000    2.800 
#    0.000    0.000    0.000    0.000    0.000    0.000 
#
# Total GULP energy -991441.622121 kJ/mol
# GULP energy per Si atom -12393.020277 kJ/mol
# Density = 1.991563 g / cm^3
# Si number density = 19.961067 Si / 1000 Ang^3
#
#
#
# Elastic Constant Matrix: (Units=GPa)
#
#
# Indices 1 2 3 4 5 6 
#
# 1 141.5001 48.5718 26.3517 0.0000 0.0000 0.0000
# 2 48.5718 141.5001 26.3517 0.0000 0.0000 0.0000
# 3 26.3517 26.3517 104.4588 0.0000 0.0000 0.0000
# 4 0.0000 0.0000 0.0000 16.9644 0.0000 0.0000
# 5 0.0000 0.0000 0.0000 0.0000 16.9644 0.0000
# 6 0.0000 0.0000 0.0000 0.0000 0.0000 18.1584
#
#
#
# Elastic Compliance Matrix: (Units=1/GPa)
#
#
# Indices 1 2 3 4 5 6 
#
# 1 0.008209 -0.002552 -0.001427 0.000000 0.000000 0.000000
# 2 -0.002552 0.008209 -0.001427 0.000000 0.000000 0.000000
# 3 -0.001427 -0.001427 0.010293 0.000000 0.000000 0.000000
# 4 0.000000 0.000000 0.000000 0.058947 0.000000 0.000000
# 5 0.000000 0.000000 0.000000 0.000000 0.058947 0.000000
# 6 0.000000 0.000000 0.000000 0.000000 0.000000 0.055071
#
#
# Mechanical properties :
#
#
# Convention : Reuss Voigt Hill
#
# Bulk Modulus (GPa) = 62.89831 65.55660 64.22746
# Shear Modulus (GPa) = 23.17094 29.49637 26.33366
#
# Velocity S-wave (km/s) = 3.41076 3.84825 3.63609
# Velocity P-wave (km/s) = 6.86221 7.25665 7.06218
#
# Compressibility (1/GPa) = 0.01589868
#
# Stress axis : x y z
#
# Youngs Moduli (GPa) = 121.81868 121.81868 97.15193
#
# Poissons Ratio (x) = 0.31089 0.13864
# Poissons Ratio (y) = 0.31089 0.13864
# Poissons Ratio (z) = 0.17384 0.17384
#
# Static dielectric constant tensor:
#      x y z
#    x 3.635620 0.000000 0.000000 
#    y 0.000000 3.635620 0.000000 
#    z 0.000000 0.000000 4.041080 
# 
# 
# High freq. dielectric constant tensor:
#      x y z
#    x 1.774860 0.000000 0.000000 
#    y 0.000000 1.774860 0.000000 
#    z 0.000000 0.000000 1.795280 
# 
# From -- ./inp_files/8492.got.cif
#   From: 2010.03.12/outbox.cif.g09.slc.cpg/sg139_5_cif.got.tgz:8492.got - 2010.04.08 09:46:31.
