data_PCOD8319108
_publ_section_title
;
Structure prediction by ZEFSAII (Michael W. Deem and Ramdas Pophale) SiO2 
 PCOD8319108
Probable space group: P 42/N C M
;
_chemical_formula_sum "Si O2"
_cell_formula_units_Z 84
_cell_length_a 11.439624
_cell_length_b 11.439624
_cell_length_c 32.814576
_cell_angle_alpha 90.000000
_cell_angle_beta 90.000000
_cell_angle_gamma 90.000000
_cell_volume 4294.279398
_symmetry_space_group_name_H-M "P 42/N C M"
_symmetry_group_IT_number 138
_space_group.IT_coordinate_system_code '2'
_symmetry_cell_setting 'tetragonal'
loop_
_space_group_symop_operation_xyz
x,y,z
1/2-y,x,1/2+z
1/2-x,1/2-y,z
y,1/2-x,1/2+z
1/2+x,-y,1/2-z
-x,1/2+y,1/2-z
1/2+y,1/2+x,-z
-y,-x,-z
-x,-y,-z
1/2+y,-x,1/2-z
1/2+x,1/2+y,-z
-y,1/2+x,1/2-z
1/2-x,y,1/2+z
x,1/2-y,1/2+z
1/2-y,1/2-x,z
y,x,z
loop_
_atom_site_type_symbol
_atom_site_label
_atom_site_fract_x
_atom_site_fract_y
_atom_site_fract_z
Si Si1 0.658681 0.658681 0.731380
Si Si2 0.539512 0.539512 0.807353
Si Si3 0.347769 0.347769 0.024014
Si Si4 0.817703 0.486729 0.020426
Si Si5 0.050692 0.050692 0.102471
Si Si6 0.443869 0.766339 0.690125
Si Si7 0.250000 0.750000 0.750000
Si Si8 0.615593 0.220233 0.400431
O O1 0.750000 0.750000 0.749468
O O2 0.603070 0.603070 0.770958
O O3 0.571133 0.723654 0.701368
O O4 0.585610 0.585610 0.851246
O O5 0.567373 0.403877 0.803781
O O6 0.250000 0.250000 0.022230
O O7 0.373816 0.373816 0.071171
O O8 0.466159 0.299540 0.002385
O O9 0.914857 0.585144 0.018339
O O10 0.789243 0.462661 0.067271
O O11 0.867414 0.367414 0.000000
O O12 0.915087 0.080935 0.095644
O O13 0.353414 0.704102 0.720812
O O14 0.415877 0.729492 0.644007
O O15 0.750000 0.250000 0.409639
#
# Coordination Sequence:
#
# PCOD8319108 Si02
#       8
#     8   8   8  16   8  16   4  16
#     4  12  24  39  66  96 123 163 216 258 314 387
#     4  10  22  41  58  89 131 153 207 262 310 365
#     4  10  21  40  62  84 117 165 202 239 323 364
#     4  10  22  39  59  87 122 157 199 256 301 371
#     4  10  23  39  61  88 121 156 204 263 290 371
#     4  11  23  39  61  91 121 168 203 258 313 377
#     4  12  20  40  68  80 130 168 200 248 320 376
#     4  11  23  39  60  90 121 158 206 250 313 366
#
# _framework density 19.560905999999999
#
# number of rings (size 3 to 8) (size 9 to 14) (size 15 to 20)
#    0.000    1.333    3.810    1.714    1.333    3.810 
#    0.000    0.000    0.000    1.143    0.000    0.000 
#    0.000    0.000    0.000    0.000    0.000    0.000 
#
# Total GULP energy -1041589.209271 kJ/mol
# GULP energy per Si atom -12399.871539 kJ/mol
# Density = 1.951638 g / cm^3
# Si number density = 19.560906 Si / 1000 Ang^3
#
#
#
# Elastic Constant Matrix: (Units=GPa)
#
#
# Indices 1 2 3 4 5 6 
#
# 1 80.9522 36.5764 43.9583 0.0000 0.0000 0.0000
# 2 36.5764 80.9522 43.9583 0.0000 0.0000 0.0000
# 3 43.9583 43.9583 155.5210 0.0000 0.0000 0.0000
# 4 0.0000 0.0000 0.0000 15.3910 0.0000 0.0000
# 5 0.0000 0.0000 0.0000 0.0000 15.3910 0.0000
# 6 0.0000 0.0000 0.0000 0.0000 0.0000 34.3596
#
#
#
# Elastic Compliance Matrix: (Units=1/GPa)
#
#
# Indices 1 2 3 4 5 6 
#
# 1 0.016662 -0.005872 -0.003050 0.000000 0.000000 0.000000
# 2 -0.005872 0.016662 -0.003050 0.000000 0.000000 0.000000
# 3 -0.003050 -0.003050 0.008154 0.000000 0.000000 0.000000
# 4 0.000000 0.000000 0.000000 0.064973 0.000000 0.000000
# 5 0.000000 0.000000 0.000000 0.000000 0.064973 0.000000
# 6 0.000000 0.000000 0.000000 0.000000 0.000000 0.029104
#
#
# Mechanical properties :
#
#
# Convention : Reuss Voigt Hill
#
# Bulk Modulus (GPa) = 57.02952 62.93458 59.98205
# Shear Modulus (GPa) = 21.70910 25.89046 23.79978
#
# Velocity S-wave (km/s) = 3.33501 3.64205 3.49191
# Velocity P-wave (km/s) = 6.63686 7.06609 6.85483
#
# Compressibility (1/GPa) = 0.01753478
#
# Stress axis : x y z
#
# Youngs Moduli (GPa) = 60.01541 60.01541 122.63828
#
# Poissons Ratio (x) = 0.35244 0.37402
# Poissons Ratio (y) = 0.35244 0.37402
# Poissons Ratio (z) = 0.18303 0.18303
#
# Static dielectric constant tensor:
#      x y z
#    x 3.637550 0.000000 0.000000 
#    y 0.000000 3.637550 0.000000 
#    z 0.000000 0.000000 3.728050 
# 
# 
# High freq. dielectric constant tensor:
#      x y z
#    x 1.761200 0.000000 0.000000 
#    y 0.000000 1.761200 0.000000 
#    z 0.000000 0.000000 1.779140 
# 
# From -- ./inp_files/8161.got.cif
#   From: 2010.03.12/outbox.cif.g09.slc.cpg/sg138_5_cif.got.tgz:8161.got - 2010.04.08 09:41:05.
