data_PCOD8319140
_publ_section_title
;
Structure prediction by ZEFSAII (Michael W. Deem and Ramdas Pophale) SiO2 
 PCOD8319140
Probable space group: P 42/N C M
;
_chemical_formula_sum "Si O2"
_cell_formula_units_Z 60
_cell_length_a 15.012508
_cell_length_b 15.012508
_cell_length_c 10.958677
_cell_angle_alpha 90.000000
_cell_angle_beta 90.000000
_cell_angle_gamma 90.000000
_cell_volume 2469.816173
_symmetry_space_group_name_H-M "P 42/N C M"
_symmetry_group_IT_number 138
_space_group.IT_coordinate_system_code '2'
_symmetry_cell_setting 'tetragonal'
loop_
_space_group_symop_operation_xyz
x,y,z
1/2-y,x,1/2+z
1/2-x,1/2-y,z
y,1/2-x,1/2+z
1/2+x,-y,1/2-z
-x,1/2+y,1/2-z
1/2+y,1/2+x,-z
-y,-x,-z
-x,-y,-z
1/2+y,-x,1/2-z
1/2+x,1/2+y,-z
-y,1/2+x,1/2-z
1/2-x,y,1/2+z
x,1/2-y,1/2+z
1/2-y,1/2-x,z
y,x,z
loop_
_atom_site_type_symbol
_atom_site_label
_atom_site_fract_x
_atom_site_fract_y
_atom_site_fract_z
Si Si1 0.682576 0.418505 0.398041
Si Si2 0.250000 0.250000 0.664984
Si Si3 0.584012 0.124036 0.664731
Si Si4 0.388544 0.388544 0.183831
Si Si5 0.386600 0.113401 0.138368
Si Si6 0.926968 0.926968 0.090168
O O1 0.641418 0.358583 0.500000
O O2 0.788488 0.409448 0.419792
O O3 0.660216 0.377812 0.266321
O O4 0.642925 0.517874 0.411821
O O5 0.182720 0.317281 0.738322
O O6 0.314887 0.314887 0.588075
O O7 0.487427 0.133601 0.731945
O O8 0.589124 0.033330 0.586929
O O9 0.385880 0.385880 0.033578
O O10 0.384794 0.115207 0.287115
#
# Coordination Sequence:
#
# PCOD8319140 Si02
#       6
#    16   4  16   8   8   8
#     4  11  24  43  68  94 134 176 214 269 328 384
#     4  12  22  42  72 100 130 160 222 282 306 390
#     4  10  22  42  65  96 129 171 221 264 315 393
#     4  11  22  43  68 100 131 169 215 275 337 374
#     4  10  22  44  64  99 134 164 218 274 336 379
#     4   9  22  42  69  90 136 178 207 268 336 380
#
# _framework density 24.293305
#
# number of rings (size 3 to 8) (size 9 to 14) (size 15 to 20)
#    0.000    1.600    2.667    2.800    0.000    7.467 
#    0.000    4.000    0.000    0.000    0.000    0.000 
#    0.000    0.000    0.000    0.000    0.000    0.000 
#
# Total GULP energy -743567.020616 kJ/mol
# GULP energy per Si atom -12392.783677 kJ/mol
# Density = 2.423801 g / cm^3
# Si number density = 24.293305 Si / 1000 Ang^3
#
#
#
# Elastic Constant Matrix: (Units=GPa)
#
#
# Indices 1 2 3 4 5 6 
#
# 1 147.1000 53.5605 17.4335 0.0000 0.0000 0.0000
# 2 53.5605 147.1004 17.4348 0.0000 0.0000 0.0000
# 3 17.4335 17.4348 70.5964 0.0000 0.0000 0.0000
# 4 0.0000 0.0000 0.0000 23.8456 0.0000 0.0000
# 5 0.0000 0.0000 0.0000 0.0000 23.8452 0.0000
# 6 0.0000 0.0000 0.0000 0.0000 0.0000 48.4987
#
#
#
# Elastic Compliance Matrix: (Units=1/GPa)
#
#
# Indices 1 2 3 4 5 6 
#
# 1 0.007949 -0.002742 -0.001286 0.000000 0.000000 0.000000
# 2 -0.002742 0.007949 -0.001286 0.000000 0.000000 0.000000
# 3 -0.001286 -0.001286 0.014800 0.000000 0.000000 0.000000
# 4 0.000000 0.000000 0.000000 0.041937 0.000000 0.000000
# 5 0.000000 0.000000 0.000000 0.000000 0.041937 0.000000
# 6 0.000000 0.000000 0.000000 0.000000 0.000000 0.020619
#
#
# Mechanical properties :
#
#
# Convention : Reuss Voigt Hill
#
# Bulk Modulus (GPa) = 49.82425 60.18382 55.00403
# Shear Modulus (GPa) = 32.78514 37.66240 35.22377
#
# Velocity S-wave (km/s) = 3.67761 3.94168 3.81194
# Velocity P-wave (km/s) = 6.21185 6.74859 6.48577
#
# Compressibility (1/GPa) = 0.02007055
#
# Stress axis : x y z
#
# Youngs Moduli (GPa) = 125.80499 125.80472 67.56686
#
# Poissons Ratio (x) = 0.34494 0.08688
# Poissons Ratio (y) = 0.34494 0.08689
# Poissons Ratio (z) = 0.16176 0.16178
#
# Static dielectric constant tensor:
#      x y z
#    x 4.044900 0.000000 0.000000 
#    y 0.000000 4.044920 0.000000 
#    z 0.000000 0.000000 4.190030 
# 
# 
# High freq. dielectric constant tensor:
#      x y z
#    x 1.979770 0.000000 0.000000 
#    y 0.000000 1.979770 0.000000 
#    z 0.000000 0.000000 1.923730 
# 
# From -- ./inp_files/3959.got.cif
#   From: 2010.03.12/outbox.cif.g09.slc.cpg/sg138_2_cif.got.tgz:3959.got - 2010.04.08 09:41:05.
