data_PCOD8319712
_publ_section_title
;
Structure prediction by ZEFSAII (Michael W. Deem and Ramdas Pophale) SiO2 
 PCOD8319712
Probable space group: I 4/M M M
;
_chemical_formula_sum "Si O2"
_cell_formula_units_Z 144
_cell_length_a 22.007941
_cell_length_b 22.007941
_cell_length_c 17.339128
_cell_angle_alpha 90.000000
_cell_angle_beta 90.000000
_cell_angle_gamma 90.000000
_cell_volume 8398.197406
_symmetry_space_group_name_H-M "I 4/M M M"
_symmetry_group_IT_number 139
_symmetry_cell_setting 'tetragonal'
loop_
_space_group_symop_operation_xyz
x,y,z
-y,x,z
-x,-y,z
y,-x,z
x,-y,-z
-x,y,-z
y,x,-z
-y,-x,-z
-x,-y,-z
y,-x,-z
x,y,-z
-y,x,-z
-x,y,z
x,-y,z
-y,-x,z
y,x,z
1/2+x,1/2+y,1/2+z
1/2-y,1/2+x,1/2+z
1/2-x,1/2-y,1/2+z
1/2+y,1/2-x,1/2+z
1/2+x,1/2-y,1/2-z
1/2-x,1/2+y,1/2-z
1/2+y,1/2+x,1/2-z
1/2-y,1/2-x,1/2-z
1/2-x,1/2-y,1/2-z
1/2+y,1/2-x,1/2-z
1/2+x,1/2+y,1/2-z
1/2-y,1/2+x,1/2-z
1/2-x,1/2+y,1/2+z
1/2+x,1/2-y,1/2+z
1/2-y,1/2-x,1/2+z
1/2+y,1/2+x,1/2+z
loop_
_atom_site_type_symbol
_atom_site_label
_atom_site_fract_x
_atom_site_fract_y
_atom_site_fract_z
Si Si1 0.253816 0.431193 0.283047
Si Si2 0.273004 0.273004 0.911967
Si Si3 0.851776 0.148225 0.702744
Si Si4 0.068992 0.635462 0.684579
Si Si5 0.570517 0.429484 0.086506
Si Si6 0.314277 0.136874 0.088696
O O1 0.275766 0.500000 0.292695
O O2 0.311285 0.391855 0.259180
O O3 0.203073 0.425104 0.217442
O O4 0.226920 0.409882 0.364411
O O5 0.311740 0.311740 0.853479
O O6 0.203123 0.287168 0.894963
O O7 0.290000 0.290000 0.000000
O O8 0.893457 0.106544 0.650323
O O9 0.086607 0.586607 0.750000
O O10 0.114956 0.631548 0.612822
O O11 0.000000 0.622216 0.656859
O O12 0.584674 0.500000 0.098160
O O13 0.590307 0.409694 0.000000
O O14 0.309816 0.118545 0.000000
#
# Coordination Sequence:
#
# PCOD8319712 Si02
#       6
#    32  16  16  32  16  32
#     4  10  21  34  52  78 103 136 178 217 260 307
#     4  10  20  32  50  81 110 134 168 206 257 318
#     4  12  19  32  56  76 108 140 176 217 254 303
#     4   9  18  33  51  74 104 135 172 218 263 309
#     4   9  19  35  52  74 109 149 182 211 250 301
#     4  10  20  35  53  74 105 140 172 213 266 317
#
# _framework density 17.146536000000001
#
# number of rings (size 3 to 8) (size 9 to 14) (size 15 to 20)
#    0.000    2.111    2.222    2.000    0.000    2.000 
#    0.000    0.000    0.000    0.000    0.000    6.222 
#    0.000    0.000    0.000   10.667    0.000    0.000 
#
# Total GULP energy -892874.305191 kJ/mol
# GULP energy per Si atom -12401.032017 kJ/mol
# Density = 1.710751 g / cm^3
# Si number density = 17.146536 Si / 1000 Ang^3
#
#
#
# Elastic Constant Matrix: (Units=GPa)
#
#
# Indices 1 2 3 4 5 6 
#
# 1 96.5987 62.1376 48.9547 0.0000 0.0000 0.0000
# 2 62.1376 96.5985 48.9550 0.0000 0.0000 0.0000
# 3 48.9547 48.9550 92.5400 0.0000 0.0000 0.0000
# 4 0.0000 0.0000 0.0000 26.9006 0.0000 0.0000
# 5 0.0000 0.0000 0.0000 0.0000 26.9005 0.0000
# 6 0.0000 0.0000 0.0000 0.0000 0.0000 25.3558
#
#
#
# Elastic Compliance Matrix: (Units=1/GPa)
#
#
# Indices 1 2 3 4 5 6 
#
# 1 0.019185 -0.009834 -0.004947 0.000000 0.000000 0.000000
# 2 -0.009834 0.019185 -0.004947 0.000000 0.000000 0.000000
# 3 -0.004947 -0.004947 0.016040 0.000000 0.000000 0.000000
# 4 0.000000 0.000000 0.000000 0.037174 0.000000 0.000000
# 5 0.000000 0.000000 0.000000 0.000000 0.037174 0.000000
# 6 0.000000 0.000000 0.000000 0.000000 0.000000 0.039439
#
#
# Mechanical properties :
#
#
# Convention : Reuss Voigt Hill
#
# Bulk Modulus (GPa) = 66.86828 67.31464 67.09146
# Shear Modulus (GPa) = 23.51443 24.21070 23.86256
#
# Velocity S-wave (km/s) = 3.70723 3.76172 3.73458
# Velocity P-wave (km/s) = 7.57678 7.62962 7.60324
#
# Compressibility (1/GPa) = 0.01495477
#
# Stress axis : x y z
#
# Youngs Moduli (GPa) = 52.12515 52.12479 62.34427
#
# Poissons Ratio (x) = 0.51258 0.30840
# Poissons Ratio (y) = 0.51258 0.30841
# Poissons Ratio (z) = 0.25785 0.25785
#
# Static dielectric constant tensor:
#      x y z
#    x 3.277580 0.000000 0.000000 
#    y 0.000000 3.277580 0.000000 
#    z 0.000000 0.000000 3.117590 
# 
# 
# High freq. dielectric constant tensor:
#      x y z
#    x 1.664040 0.000000 0.000000 
#    y 0.000000 1.664040 0.000000 
#    z 0.000000 0.000000 1.653540 
# 
# From -- ./inp_files/8293.got.cif
#   From: 2010.03.12/outbox.cif.g09.slc.cpg/sg139_5_cif.got.tgz:8293.got - 2010.04.08 09:46:31.
