data_PCOD8319058
_publ_section_title
;
Structure prediction by ZEFSAII (Michael W. Deem and Ramdas Pophale) SiO2 
 PCOD8319058
Probable space group: P 42/N C M
;
_chemical_formula_sum "Si O2"
_cell_formula_units_Z 56
_cell_length_a 16.678459
_cell_length_b 16.678459
_cell_length_c 9.727259
_cell_angle_alpha 90.000000
_cell_angle_beta 90.000000
_cell_angle_gamma 90.000000
_cell_volume 2705.841311
_symmetry_space_group_name_H-M "P 42/N C M"
_symmetry_group_IT_number 138
_space_group.IT_coordinate_system_code '2'
_symmetry_cell_setting 'tetragonal'
loop_
_space_group_symop_operation_xyz
x,y,z
1/2-y,x,1/2+z
1/2-x,1/2-y,z
y,1/2-x,1/2+z
1/2+x,-y,1/2-z
-x,1/2+y,1/2-z
1/2+y,1/2+x,-z
-y,-x,-z
-x,-y,-z
1/2+y,-x,1/2-z
1/2+x,1/2+y,-z
-y,1/2+x,1/2-z
1/2-x,y,1/2+z
x,1/2-y,1/2+z
1/2-y,1/2-x,z
y,x,z
loop_
_atom_site_type_symbol
_atom_site_label
_atom_site_fract_x
_atom_site_fract_y
_atom_site_fract_z
Si Si1 0.601610 0.101610 0.000000
Si Si2 0.751319 0.622026 0.643184
Si Si3 0.483581 0.209488 0.107217
Si Si4 0.626966 0.220698 0.764700
O O1 0.598879 0.180523 0.905557
O O2 0.617286 0.019550 0.912918
O O3 0.813732 0.686269 0.582387
O O4 0.665934 0.665934 0.671574
O O5 0.789637 0.587852 0.783277
O O6 0.741348 0.550134 0.536692
O O7 0.553812 0.268957 0.158544
O O8 0.664267 0.306564 0.806619
#
# Coordination Sequence:
#
# PCOD8319058 Si02
#       4
#     8  16  16  16
#     4  10  20  39  61  96 136 174 203 263 318 400
#     4  11  24  44  68  90 119 167 226 279 322 380
#     4  11  21  40  65  96 127 160 212 267 327 379
#     4   9  19  34  60  91 126 169 209 248 304 383
#
# _framework density 20.695965999999999
#
# number of rings (size 3 to 8) (size 9 to 14) (size 15 to 20)
#    0.000    1.714    2.857    1.714    0.000   11.429 
#    0.000    2.857    0.000    6.857    0.000    0.000 
#    0.000    0.000    0.000    0.000    0.000    0.000 
#
# Total GULP energy -693893.073629 kJ/mol
# GULP energy per Si atom -12390.947743 kJ/mol
# Density = 2.064886 g / cm^3
# Si number density = 20.695966 Si / 1000 Ang^3
#
#
#
# Elastic Constant Matrix: (Units=GPa)
#
#
# Indices 1 2 3 4 5 6 
#
# 1 104.7883 56.5705 41.7855 0.0000 0.0000 0.0000
# 2 56.5705 104.7883 41.7855 0.0000 0.0000 0.0000
# 3 41.7855 41.7855 96.6450 0.0000 0.0000 0.0000
# 4 0.0000 0.0000 0.0000 31.1021 0.0000 0.0000
# 5 0.0000 0.0000 0.0000 0.0000 31.1021 0.0000
# 6 0.0000 0.0000 0.0000 0.0000 0.0000 31.3087
#
#
#
# Elastic Compliance Matrix: (Units=1/GPa)
#
#
# Indices 1 2 3 4 5 6 
#
# 1 0.014362 -0.006377 -0.003453 0.000000 0.000000 0.000000
# 2 -0.006377 0.014362 -0.003453 0.000000 0.000000 0.000000
# 3 -0.003453 -0.003453 0.013333 0.000000 0.000000 0.000000
# 4 0.000000 0.000000 0.000000 0.032152 0.000000 0.000000
# 5 0.000000 0.000000 0.000000 0.000000 0.032152 0.000000
# 6 0.000000 0.000000 0.000000 0.000000 0.000000 0.031940
#
#
# Mechanical properties :
#
#
# Convention : Reuss Voigt Hill
#
# Bulk Modulus (GPa) = 64.54414 65.16718 64.85566
# Shear Modulus (GPa) = 29.40648 29.77458 29.59053
#
# Velocity S-wave (km/s) = 3.77355 3.79709 3.78534
# Velocity P-wave (km/s) = 7.08807 7.12601 7.10707
#
# Compressibility (1/GPa) = 0.01549327
#
# Stress axis : x y z
#
# Youngs Moduli (GPa) = 69.62629 69.62629 75.00349
#
# Poissons Ratio (x) = 0.44400 0.25896
# Poissons Ratio (y) = 0.44400 0.25896
# Poissons Ratio (z) = 0.24039 0.24039
#
# Static dielectric constant tensor:
#      x y z
#    x 3.764680 0.000000 0.000000 
#    y 0.000000 3.764680 0.000000 
#    z 0.000000 0.000000 3.697560 
# 
# 
# High freq. dielectric constant tensor:
#      x y z
#    x 1.805590 0.000000 0.000000 
#    y 0.000000 1.805590 0.000000 
#    z 0.000000 0.000000 1.809020 
# 
# From -- ./inp_files/1094.got.cif
#   From: 2010.03.12/outbox.cif.g09.slc.cpg/sg138_1_cif.got.tgz:1094.got - 2010.04.08 09:41:05.
