data_PCOD8319734
_publ_section_title
;
Structure prediction by ZEFSAII (Michael W. Deem and Ramdas Pophale) SiO2 
 PCOD8319734
Probable space group: I 4/M M M
;
_chemical_formula_sum "Si O2"
_cell_formula_units_Z 240
_cell_length_a 30.832958
_cell_length_b 30.832958
_cell_length_c 14.999283
_cell_angle_alpha 90.000000
_cell_angle_beta 90.000000
_cell_angle_gamma 90.000000
_cell_volume 14259.387854
_symmetry_space_group_name_H-M "I 4/M M M"
_symmetry_group_IT_number 139
_symmetry_cell_setting 'tetragonal'
loop_
_space_group_symop_operation_xyz
x,y,z
-y,x,z
-x,-y,z
y,-x,z
x,-y,-z
-x,y,-z
y,x,-z
-y,-x,-z
-x,-y,-z
y,-x,-z
x,y,-z
-y,x,-z
-x,y,z
x,-y,z
-y,-x,z
y,x,z
1/2+x,1/2+y,1/2+z
1/2-y,1/2+x,1/2+z
1/2-x,1/2-y,1/2+z
1/2+y,1/2-x,1/2+z
1/2+x,1/2-y,1/2-z
1/2-x,1/2+y,1/2-z
1/2+y,1/2+x,1/2-z
1/2-y,1/2-x,1/2-z
1/2-x,1/2-y,1/2-z
1/2+y,1/2-x,1/2-z
1/2+x,1/2+y,1/2-z
1/2-y,1/2+x,1/2-z
1/2-x,1/2+y,1/2+z
1/2+x,1/2-y,1/2+z
1/2-y,1/2-x,1/2+z
1/2+y,1/2+x,1/2+z
loop_
_atom_site_type_symbol
_atom_site_label
_atom_site_fract_x
_atom_site_fract_y
_atom_site_fract_z
Si Si1 0.048657 0.753157 0.252237
Si Si2 0.598136 0.093131 0.149116
Si Si3 0.184748 0.450585 0.603060
Si Si4 0.136185 0.204960 0.250050
Si Si5 0.180216 0.749350 0.097804
Si Si6 0.262798 0.830285 0.600690
Si Si7 0.580965 0.190585 0.099806
Si Si8 0.049790 0.453401 0.000000
O O1 0.056557 0.728539 0.159156
O O2 0.083772 0.792737 0.263432
O O3 0.052102 0.718312 0.332207
O O4 0.000000 0.773212 0.255201
O O5 0.584566 0.084566 0.250000
O O6 0.649522 0.084873 0.135623
O O7 0.581374 0.140246 0.122151
O O8 0.573464 0.059372 0.088120
O O9 0.196110 0.442152 0.500000
O O10 0.167530 0.500000 0.617222
O O11 0.156380 0.156380 0.231553
O O12 0.143505 0.239289 0.169690
O O13 0.161236 0.221437 0.337568
O O14 0.207597 0.792404 0.086252
O O15 0.210746 0.711274 0.135238
O O16 0.160448 0.736668 0.000000
O O17 0.245846 0.822421 0.500000
O O18 0.295649 0.869583 0.606509
O O19 0.562463 0.197896 0.000000
O O20 0.074504 0.500000 0.000000
O O21 0.000000 0.463061 0.000000
#
# Coordination Sequence:
#
# PCOD8319734 Si02
#       8
#    32  32  32  32  32  32  32  16
#     4  10  22  37  53  75 101 128 164 205 244 292
#     4  12  22  35  56  78  96 120 161 208 260 310
#     4  10  20  35  55  74  96 126 160 204 255 301
#     4  10  20  33  50  71  98 131 163 197 240 286
#     4   9  17  28  43  66  95 129 161 192 230 272
#     4   9  18  29  46  69 100 128 162 196 230 274
#     4  10  20  34  49  74  98 129 161 197 244 293
#     4  11  26  44  56  68  90 120 157 210 272 328
#
# _framework density 16.831018
#
# number of rings (size 3 to 8) (size 9 to 14) (size 15 to 20)
#    0.000    1.933    2.667    1.200    1.867    4.267 
#    0.000    0.667    0.000    0.000    0.000    0.000 
#    0.000    0.267    0.000    0.000    0.000    0.000 
#
# Total GULP energy -1487319.503832 kJ/mol
# GULP energy per Si atom -12394.329199 kJ/mol
# Density = 1.679271 g / cm^3
# Si number density = 16.831018 Si / 1000 Ang^3
#
#
#
# Elastic Constant Matrix: (Units=GPa)
#
#
# Indices 1 2 3 4 5 6 
#
# 1 66.9744 39.9145 22.4164 0.0000 0.0000 0.0000
# 2 39.9145 66.9744 22.4164 0.0000 0.0000 0.0000
# 3 22.4164 22.4164 108.7475 0.0000 0.0000 0.0000
# 4 0.0000 0.0000 0.0000 6.0471 0.0000 0.0000
# 5 0.0000 0.0000 0.0000 0.0000 6.0471 0.0000
# 6 0.0000 0.0000 0.0000 0.0000 0.0000 18.5101
#
#
#
# Elastic Compliance Matrix: (Units=1/GPa)
#
#
# Indices 1 2 3 4 5 6 
#
# 1 0.023598 -0.013357 -0.002111 0.000000 0.000000 0.000000
# 2 -0.013357 0.023598 -0.002111 0.000000 0.000000 0.000000
# 3 -0.002111 -0.002111 0.010066 0.000000 0.000000 0.000000
# 4 0.000000 0.000000 0.000000 0.165369 0.000000 0.000000
# 5 0.000000 0.000000 0.000000 0.000000 0.165369 0.000000
# 6 0.000000 0.000000 0.000000 0.000000 0.000000 0.054025
#
#
# Mechanical properties :
#
#
# Convention : Reuss Voigt Hill
#
# Bulk Modulus (GPa) = 45.24108 45.79898 45.52003
# Shear Modulus (GPa) = 10.31882 16.65079 13.48481
#
# Velocity S-wave (km/s) = 2.47874 3.14871 2.83360
# Velocity P-wave (km/s) = 5.92707 6.36312 6.14896
#
# Compressibility (1/GPa) = 0.02210380
#
# Stress axis : x y z
#
# Youngs Moduli (GPa) = 42.37645 42.37645 99.34537
#
# Poissons Ratio (x) = 0.56603 0.20972
# Poissons Ratio (y) = 0.56603 0.20972
# Poissons Ratio (z) = 0.08946 0.08946
#
# Static dielectric constant tensor:
#      x y z
#    x 2.961140 0.000000 0.000000 
#    y 0.000000 2.961140 0.000000 
#    z 0.000000 0.000000 3.644780 
# 
# 
# High freq. dielectric constant tensor:
#      x y z
#    x 1.618020 0.000000 0.000000 
#    y 0.000000 1.618020 0.000000 
#    z 0.000000 0.000000 1.670540 
# 
# From -- ./inp_files/6789.got.cif
#   From: 2010.03.12/outbox.cif.g09.slc.cpg/sg139_4_cif.got.tgz:6789.got - 2010.04.08 09:46:31.
