data_PCOD8319475
_publ_section_title
;
Structure prediction by ZEFSAII (Michael W. Deem and Ramdas Pophale) SiO2 
 PCOD8319475
Probable space group: I 4/M M M
;
_chemical_formula_sum "Si O2"
_cell_formula_units_Z 176
_cell_length_a 17.651158
_cell_length_b 17.651158
_cell_length_c 35.870998
_cell_angle_alpha 90.000000
_cell_angle_beta 90.000000
_cell_angle_gamma 90.000000
_cell_volume 11176.089336
_symmetry_space_group_name_H-M "I 4/M M M"
_symmetry_group_IT_number 139
_symmetry_cell_setting 'tetragonal'
loop_
_space_group_symop_operation_xyz
x,y,z
-y,x,z
-x,-y,z
y,-x,z
x,-y,-z
-x,y,-z
y,x,-z
-y,-x,-z
-x,-y,-z
y,-x,-z
x,y,-z
-y,x,-z
-x,y,z
x,-y,z
-y,-x,z
y,x,z
1/2+x,1/2+y,1/2+z
1/2-y,1/2+x,1/2+z
1/2-x,1/2-y,1/2+z
1/2+y,1/2-x,1/2+z
1/2+x,1/2-y,1/2-z
1/2-x,1/2+y,1/2-z
1/2+y,1/2+x,1/2-z
1/2-y,1/2-x,1/2-z
1/2-x,1/2-y,1/2-z
1/2+y,1/2-x,1/2-z
1/2+x,1/2+y,1/2-z
1/2-y,1/2+x,1/2-z
1/2-x,1/2+y,1/2+z
1/2+x,1/2-y,1/2+z
1/2-y,1/2-x,1/2+z
1/2+y,1/2+x,1/2+z
loop_
_atom_site_type_symbol
_atom_site_label
_atom_site_fract_x
_atom_site_fract_y
_atom_site_fract_z
Si Si1 0.704949 0.415066 0.456801
Si Si2 0.207810 0.913735 0.790245
Si Si3 0.144530 0.588058 0.411098
Si Si4 0.086355 0.791817 0.295618
Si Si5 0.910364 0.500000 0.041939
Si Si6 0.309405 0.814656 0.841802
O O1 0.721240 0.400564 0.500000
O O2 0.675477 0.500000 0.449736
O O3 0.640485 0.359516 0.441133
O O4 0.781887 0.399284 0.435714
O O5 0.128001 0.872000 0.796830
O O6 0.233245 0.907622 0.747373
O O7 0.273088 0.876394 0.814665
O O8 0.196622 0.000000 0.803068
O O9 0.135169 0.500000 0.399137
O O10 0.151366 0.641836 0.375608
O O11 0.073734 0.616728 0.435478
O O12 0.128672 0.871329 0.302213
O O13 0.123396 0.726185 0.319956
O O14 0.000000 0.803274 0.308179
O O15 0.000000 0.500000 0.038346
O O16 0.875348 0.500000 0.000000
O O17 0.246030 0.753971 0.855219
#
# Coordination Sequence:
#
# PCOD8319475 Si02
#       6
#    32  32  32  32  16  32
#     4   9  17  29  45  65  90 119 150 183 220 266
#     4   9  17  30  47  67  92 124 161 196 231 269
#     4  10  19  30  46  66  88 117 151 188 230 269
#     4   9  18  31  48  68  90 119 153 192 236 280
#     4   9  18  32  48  66  88 114 149 189 235 283
#     4  10  19  30  46  67  93 123 152 186 227 277
#
# _framework density 15.747904999999999
#
# number of rings (size 3 to 8) (size 9 to 14) (size 15 to 20)
#    0.000    2.636    0.000    2.182    1.273    4.909 
#    0.000    2.727    0.000    0.000    0.000    5.091 
#    0.000    0.000    0.000    0.000    0.000    8.000 
#
# Total GULP energy -1091164.002131 kJ/mol
# GULP energy per Si atom -12399.590933 kJ/mol
# Density = 1.571206 g / cm^3
# Si number density = 15.747905 Si / 1000 Ang^3
#
#
#
# Elastic Constant Matrix: (Units=GPa)
#
#
# Indices 1 2 3 4 5 6 
#
# 1 108.1850 66.1436 64.8352 0.0000 0.0000 0.0000
# 2 66.1436 108.1850 64.8352 0.0000 0.0000 0.0000
# 3 64.8352 64.8352 89.0224 0.0000 0.0000 0.0000
# 4 0.0000 0.0000 0.0000 25.0052 0.0000 0.0000
# 5 0.0000 0.0000 0.0000 0.0000 25.0052 0.0000
# 6 0.0000 0.0000 0.0000 0.0000 0.0000 12.5125
#
#
#
# Elastic Compliance Matrix: (Units=1/GPa)
#
#
# Indices 1 2 3 4 5 6 
#
# 1 0.018152 -0.005634 -0.009116 0.000000 0.000000 0.000000
# 2 -0.005634 0.018152 -0.009116 0.000000 0.000000 0.000000
# 3 -0.009116 -0.009116 0.024512 0.000000 0.000000 0.000000
# 4 0.000000 0.000000 0.000000 0.039992 0.000000 0.000000
# 5 0.000000 0.000000 0.000000 0.000000 0.039992 0.000000
# 6 0.000000 0.000000 0.000000 0.000000 0.000000 0.079920
#
#
# Mechanical properties :
#
#
# Convention : Reuss Voigt Hill
#
# Bulk Modulus (GPa) = 76.44571 77.44670 76.94620
# Shear Modulus (GPa) = 18.32751 19.80979 19.06865
#
# Velocity S-wave (km/s) = 3.41516 3.55058 3.48353
# Velocity P-wave (km/s) = 8.01248 8.12986 8.07139
#
# Compressibility (1/GPa) = 0.01308118
#
# Stress axis : x y z
#
# Youngs Moduli (GPa) = 55.09134 55.09134 40.79626
#
# Poissons Ratio (x) = 0.31041 0.37191
# Poissons Ratio (y) = 0.31041 0.37191
# Poissons Ratio (z) = 0.50223 0.50223
#
# Static dielectric constant tensor:
#      x y z
#    x 3.024390 0.000000 0.000000 
#    y 0.000000 3.024390 0.000000 
#    z 0.000000 0.000000 3.023880 
# 
# 
# High freq. dielectric constant tensor:
#      x y z
#    x 1.600560 0.000000 0.000000 
#    y 0.000000 1.600560 0.000000 
#    z 0.000000 0.000000 1.602390 
# 
# From -- ./inp_files/14236.got.cif
#   From: 2010.03.12/outbox.cif.g09.slc.cpg/sg139_8_cif.got.tgz:14236.got - 2010.04.08 09:46:31.
