data_PCOD8319592
_publ_section_title
;
Structure prediction by ZEFSAII (Michael W. Deem and Ramdas Pophale) SiO2 
 PCOD8319592
Probable space group: I 4/M M M
;
_chemical_formula_sum "Si O2"
_cell_formula_units_Z 164
_cell_length_a 22.149564
_cell_length_b 22.149564
_cell_length_c 18.969875
_cell_angle_alpha 90.000000
_cell_angle_beta 90.000000
_cell_angle_gamma 90.000000
_cell_volume 9306.681101
_symmetry_space_group_name_H-M "I 4/M M M"
_symmetry_group_IT_number 139
_symmetry_cell_setting 'tetragonal'
loop_
_space_group_symop_operation_xyz
x,y,z
-y,x,z
-x,-y,z
y,-x,z
x,-y,-z
-x,y,-z
y,x,-z
-y,-x,-z
-x,-y,-z
y,-x,-z
x,y,-z
-y,x,-z
-x,y,z
x,-y,z
-y,-x,z
y,x,z
1/2+x,1/2+y,1/2+z
1/2-y,1/2+x,1/2+z
1/2-x,1/2-y,1/2+z
1/2+y,1/2-x,1/2+z
1/2+x,1/2-y,1/2-z
1/2-x,1/2+y,1/2-z
1/2+y,1/2+x,1/2-z
1/2-y,1/2-x,1/2-z
1/2-x,1/2-y,1/2-z
1/2+y,1/2-x,1/2-z
1/2+x,1/2+y,1/2-z
1/2-y,1/2+x,1/2-z
1/2-x,1/2+y,1/2+z
1/2+x,1/2-y,1/2+z
1/2-y,1/2-x,1/2+z
1/2+y,1/2+x,1/2+z
loop_
_atom_site_type_symbol
_atom_site_label
_atom_site_fract_x
_atom_site_fract_y
_atom_site_fract_z
Si Si1 0.898813 0.898813 0.795642
Si Si2 0.431150 0.282722 0.206896
Si Si3 0.162069 0.429715 0.283565
Si Si4 0.131334 0.301535 0.080553
Si Si5 0.258520 0.354092 0.077439
Si Si6 0.500000 0.500000 0.713931
Si Si7 0.835834 0.164167 0.918647
O O1 0.923846 0.840944 0.754770
O O2 0.879439 0.879439 0.874158
O O3 0.949314 0.949314 0.799264
O O4 0.500000 0.273762 0.186110
O O5 0.406956 0.223369 0.246476
O O6 0.396172 0.291060 0.133907
O O7 0.149015 0.500000 0.271164
O O8 0.106495 0.393506 0.250000
O O9 0.171810 0.419129 0.367166
O O10 0.188035 0.345612 0.091691
O O11 0.149627 0.233366 0.100259
O O12 0.107464 0.304818 0.000000
O O13 0.287836 0.287836 0.080354
O O14 0.268817 0.383152 0.000000
O O15 0.849478 0.150523 0.000000
#
# Coordination Sequence:
#
# PCOD8319592 Si02
#       7
#    16  32  32  32  32   4  16
#     4  12  22  39  60  84 112 158 205 240 291 336
#     4  11  22  35  57  84 108 147 203 247 281 344
#     4  11  23  38  58  86 115 149 196 241 290 346
#     4  10  19  34  57  88 123 151 184 237 298 352
#     4  10  19  32  55  87 118 148 181 232 308 361
#     4  12  28  44  61  76 129 172 196 250 288 332
#     4  10  20  35  58  87 120 153 193 246 292 342
#
# _framework density 17.621748
#
# number of rings (size 3 to 8) (size 9 to 14) (size 15 to 20)
#    0.000    1.366    6.829    0.000    0.000    0.976 
#    0.000    3.659    0.000    0.585    0.000    2.049 
#    0.000    0.000    0.000    0.000    0.000    0.000 
#
# Total GULP energy -1015831.847537 kJ/mol
# GULP energy per Si atom -12388.193263 kJ/mol
# Density = 1.758164 g / cm^3
# Si number density = 17.621748 Si / 1000 Ang^3
#
#
#
# Elastic Constant Matrix: (Units=GPa)
#
#
# Indices 1 2 3 4 5 6 
#
# 1 90.7768 40.4971 49.3189 0.0000 0.0000 0.0000
# 2 40.4971 90.7733 49.3184 0.0000 0.0000 0.0000
# 3 49.3189 49.3184 117.7608 0.0000 0.0000 0.0000
# 4 0.0000 0.0000 0.0000 15.9695 0.0000 0.0000
# 5 0.0000 0.0000 0.0000 0.0000 15.9699 0.0000
# 6 0.0000 0.0000 0.0000 0.0000 0.0000 35.3161
#
#
#
# Elastic Compliance Matrix: (Units=1/GPa)
#
#
# Indices 1 2 3 4 5 6 
#
# 1 0.015502 -0.004387 -0.004655 0.000000 0.000000 0.000000
# 2 -0.004387 0.015503 -0.004655 0.000000 0.000000 0.000000
# 3 -0.004655 -0.004655 0.012391 0.000000 0.000000 0.000000
# 4 0.000000 0.000000 0.000000 0.062619 0.000000 0.000000
# 5 0.000000 0.000000 0.000000 0.000000 0.062618 0.000000
# 6 0.000000 0.000000 0.000000 0.000000 0.000000 0.028316
#
#
# Mechanical properties :
#
#
# Convention : Reuss Voigt Hill
#
# Bulk Modulus (GPa) = 62.49472 64.17551 63.33511
# Shear Modulus (GPa) = 21.76962 24.12953 22.94958
#
# Velocity S-wave (km/s) = 3.51862 3.70443 3.61272
# Velocity P-wave (km/s) = 7.21450 7.40233 7.30902
#
# Compressibility (1/GPa) = 0.01600135
#
# Stress axis : x y z
#
# Youngs Moduli (GPa) = 64.50674 64.50387 80.70295
#
# Poissons Ratio (x) = 0.28297 0.37569
# Poissons Ratio (y) = 0.28298 0.37571
# Poissons Ratio (z) = 0.30029 0.30029
#
# Static dielectric constant tensor:
#      x y z
#    x 4.871810 0.000000 0.000000 
#    y 0.000000 4.871730 0.000000 
#    z 0.000000 0.000000 3.316740 
# 
# 
# High freq. dielectric constant tensor:
#      x y z
#    x 1.677160 0.000000 0.000000 
#    y 0.000000 1.677160 0.000000 
#    z 0.000000 0.000000 1.684580 
# 
# From -- ./inp_files/10386.got.cif
#   From: 2010.03.12/outbox.cif.g09.slc.cpg/sg139_6_cif.got.tgz:10386.got - 2010.04.08 09:46:31.
