data_PCOD8319351
_publ_section_title
;
Structure prediction by ZEFSAII (Michael W. Deem and Ramdas Pophale) SiO2 
 PCOD8319351
Probable space group: I 4/M M M
;
_chemical_formula_sum "Si O2"
_cell_formula_units_Z 176
_cell_length_a 23.058616
_cell_length_b 23.058616
_cell_length_c 17.735295
_cell_angle_alpha 90.000000
_cell_angle_beta 90.000000
_cell_angle_gamma 90.000000
_cell_volume 9429.852305
_symmetry_space_group_name_H-M "I 4/M M M"
_symmetry_group_IT_number 139
_symmetry_cell_setting 'tetragonal'
loop_
_space_group_symop_operation_xyz
x,y,z
-y,x,z
-x,-y,z
y,-x,z
x,-y,-z
-x,y,-z
y,x,-z
-y,-x,-z
-x,-y,-z
y,-x,-z
x,y,-z
-y,x,-z
-x,y,z
x,-y,z
-y,-x,z
y,x,z
1/2+x,1/2+y,1/2+z
1/2-y,1/2+x,1/2+z
1/2-x,1/2-y,1/2+z
1/2+y,1/2-x,1/2+z
1/2+x,1/2-y,1/2-z
1/2-x,1/2+y,1/2-z
1/2+y,1/2+x,1/2-z
1/2-y,1/2-x,1/2-z
1/2-x,1/2-y,1/2-z
1/2+y,1/2-x,1/2-z
1/2+x,1/2+y,1/2-z
1/2-y,1/2+x,1/2-z
1/2-x,1/2+y,1/2+z
1/2+x,1/2-y,1/2+z
1/2-y,1/2-x,1/2+z
1/2+y,1/2+x,1/2+z
loop_
_atom_site_type_symbol
_atom_site_label
_atom_site_fract_x
_atom_site_fract_y
_atom_site_fract_z
Si Si1 0.933718 0.158347 0.726449
Si Si2 0.170883 0.564517 0.088604
Si Si3 0.119544 0.210720 0.586342
Si Si4 0.568108 0.736444 0.361634
Si Si5 0.339395 0.568793 0.500000
Si Si6 0.860031 0.433926 0.410648
O O1 0.897903 0.102098 0.750655
O O2 0.923273 0.174145 0.639343
O O3 0.914291 0.212012 0.779613
O O4 0.000000 0.142223 0.740174
O O5 0.181875 0.500000 0.124349
O O6 0.221813 0.610798 0.108940
O O7 0.109032 0.588915 0.117196
O O8 0.167792 0.557155 0.000000
O O9 0.099842 0.200685 0.500000
O O10 0.185885 0.185885 0.597751
O O11 0.500000 0.739167 0.373308
O O12 0.592495 0.695167 0.427162
O O13 0.590422 0.802185 0.370208
O O14 0.348194 0.500000 0.500000
O O15 0.402855 0.597146 0.500000
O O16 0.849974 0.430236 0.500000
O O17 0.875870 0.500000 0.387018
#
# Coordination Sequence:
#
# PCOD8319351 Si02
#       6
#    32  32  32  32  16  32
#     4  10  20  33  51  74  99 129 167 211 260 314
#     4   9  17  29  49  77 106 135 169 209 256 309
#     4   9  18  34  54  74  99 131 166 204 249 305
#     4   9  17  31  48  67  94 130 169 205 245 296
#     4  10  18  29  46  66  93 129 167 211 258 302
#     4   9  16  29  50  73 101 137 175 215 255 297
#
# _framework density 18.664131999999999
#
# number of rings (size 3 to 8) (size 9 to 14) (size 15 to 20)
#    0.000    2.727    0.909    1.091    0.000    1.727 
#    0.000    4.545    0.000    5.455    0.000    2.545 
#    0.000    4.364    0.000    0.182    0.000    0.000 
#
# Total GULP energy -1090462.778052 kJ/mol
# GULP energy per Si atom -12391.622478 kJ/mol
# Density = 1.862165 g / cm^3
# Si number density = 18.664132 Si / 1000 Ang^3
#
#
#
# Elastic Constant Matrix: (Units=GPa)
#
#
# Indices 1 2 3 4 5 6 
#
# 1 119.9986 76.4245 23.4707 0.0000 0.0000 0.0000
# 2 76.4245 119.9999 23.4706 0.0000 0.0000 0.0000
# 3 23.4707 23.4706 61.6565 0.0000 0.0000 0.0000
# 4 0.0000 0.0000 0.0000 16.9043 0.0000 0.0000
# 5 0.0000 0.0000 0.0000 0.0000 16.9046 0.0000
# 6 0.0000 0.0000 0.0000 0.0000 0.0000 30.2909
#
#
#
# Elastic Compliance Matrix: (Units=1/GPa)
#
#
# Indices 1 2 3 4 5 6 
#
# 1 0.014275 -0.008674 -0.002132 0.000000 0.000000 0.000000
# 2 -0.008674 0.014275 -0.002132 0.000000 0.000000 0.000000
# 3 -0.002132 -0.002132 0.017842 0.000000 0.000000 0.000000
# 4 0.000000 0.000000 0.000000 0.059156 0.000000 0.000000
# 5 0.000000 0.000000 0.000000 0.000000 0.059156 0.000000
# 6 0.000000 0.000000 0.000000 0.000000 0.000000 0.033013
#
#
# Mechanical properties :
#
#
# Convention : Reuss Voigt Hill
#
# Bulk Modulus (GPa) = 48.74409 60.93183 54.83796
# Shear Modulus (GPa) = 21.69841 24.70591 23.20216
#
# Velocity S-wave (km/s) = 3.41335 3.64223 3.52965
# Velocity P-wave (km/s) = 6.45816 7.09966 6.78649
#
# Compressibility (1/GPa) = 0.02051531
#
# Stress axis : x y z
#
# Youngs Moduli (GPa) = 70.05310 70.05395 56.04747
#
# Poissons Ratio (x) = 0.60767 0.11949
# Poissons Ratio (y) = 0.60766 0.11949
# Poissons Ratio (z) = 0.14935 0.14935
#
# Static dielectric constant tensor:
#      x y z
#    x 3.485100 0.000000 0.000000 
#    y 0.000000 3.485100 0.000000 
#    z 0.000000 0.000000 3.330850 
# 
# 
# High freq. dielectric constant tensor:
#      x y z
#    x 1.712120 0.000000 0.000000 
#    y 0.000000 1.712120 0.000000 
#    z 0.000000 0.000000 1.709070 
# 
# From -- ./inp_files/6105.got.cif
#   From: 2010.03.12/outbox.cif.g09.slc.cpg/sg139_4_cif.got.tgz:6105.got - 2010.04.08 09:46:31.
