data_PCOD8319242
_publ_section_title
;
Structure prediction by ZEFSAII (Michael W. Deem and Ramdas Pophale) SiO2 
 PCOD8319242
Probable space group: P 42/N C M
;
_chemical_formula_sum "Si O2"
_cell_formula_units_Z 80
_cell_length_a 13.593732
_cell_length_b 13.593732
_cell_length_c 25.385995
_cell_angle_alpha 90.000000
_cell_angle_beta 90.000000
_cell_angle_gamma 90.000000
_cell_volume 4691.066584
_symmetry_space_group_name_H-M "P 42/N C M"
_symmetry_group_IT_number 138
_space_group.IT_coordinate_system_code '2'
_symmetry_cell_setting 'tetragonal'
loop_
_space_group_symop_operation_xyz
x,y,z
1/2-y,x,1/2+z
1/2-x,1/2-y,z
y,1/2-x,1/2+z
1/2+x,-y,1/2-z
-x,1/2+y,1/2-z
1/2+y,1/2+x,-z
-y,-x,-z
-x,-y,-z
1/2+y,-x,1/2-z
1/2+x,1/2+y,-z
-y,1/2+x,1/2-z
1/2-x,y,1/2+z
x,1/2-y,1/2+z
1/2-y,1/2-x,z
y,x,z
loop_
_atom_site_type_symbol
_atom_site_label
_atom_site_fract_x
_atom_site_fract_y
_atom_site_fract_z
Si Si1 0.172027 0.006699 0.835111
Si Si2 0.750938 0.588095 0.768452
Si Si3 0.910815 0.744922 0.064134
Si Si4 0.981701 0.146977 0.142818
Si Si5 0.653892 0.011737 0.474762
O O1 0.091010 0.091010 0.837292
O O2 0.235036 0.018156 0.782012
O O3 0.243493 0.018307 0.885382
O O4 0.120801 0.899737 0.836848
O O5 0.847520 0.652481 0.780662
O O6 0.658061 0.658061 0.757052
O O7 0.733008 0.517076 0.818201
O O8 0.863223 0.636777 0.064672
O O9 0.826943 0.826943 0.066241
O O10 0.973686 0.756167 0.010598
O O11 0.967722 0.192355 0.084416
O O12 0.062602 0.062602 0.140674
O O13 0.611781 0.111781 0.500000
O O14 0.568136 0.931865 0.473369
#
# Coordination Sequence:
#
# PCOD8319242 Si02
#       5
#    16  16  16  16  16
#     4   9  15  25  39  54  77 111 148 182 219 268
#     4   9  17  27  39  58  84 112 144 184 226 266
#     4   9  15  21  33  54  78 109 148 188 227 264
#     4   9  16  25  39  56  79 115 150 178 220 273
#     4   9  14  22  34  51  78 111 146 179 214 268
#
# _framework density 17.053692000000002
#
# number of rings (size 3 to 8) (size 9 to 14) (size 15 to 20)
#    0.000    3.000    2.000    0.600    0.000    3.200 
#    0.000    4.000    0.000    0.600    0.000    0.000 
#    0.000    1.600    1.200   12.000    0.400   12.400 
#
# Total GULP energy -991651.459236 kJ/mol
# GULP energy per Si atom -12395.643240 kJ/mol
# Density = 1.701488 g / cm^3
# Si number density = 17.053692 Si / 1000 Ang^3
#
#
#
# Elastic Constant Matrix: (Units=GPa)
#
#
# Indices 1 2 3 4 5 6 
#
# 1 47.0424 38.7059 55.9940 0.0000 0.0000 0.0000
# 2 38.7059 47.0424 55.9940 0.0000 0.0000 0.0000
# 3 55.9940 55.9940 189.4255 0.0000 0.0000 0.0000
# 4 0.0000 0.0000 0.0000 12.5009 0.0000 0.0000
# 5 0.0000 0.0000 0.0000 0.0000 12.5009 0.0000
# 6 0.0000 0.0000 0.0000 0.0000 0.0000 25.0431
#
#
#
# Elastic Compliance Matrix: (Units=1/GPa)
#
#
# Indices 1 2 3 4 5 6 
#
# 1 0.069475 -0.050480 -0.005615 0.000000 0.000000 0.000000
# 2 -0.050480 0.069475 -0.005615 0.000000 0.000000 0.000000
# 3 -0.005615 -0.005615 0.008599 0.000000 0.000000 0.000000
# 4 0.000000 0.000000 0.000000 0.079994 0.000000 0.000000
# 5 0.000000 0.000000 0.000000 0.000000 0.079994 0.000000
# 6 0.000000 0.000000 0.000000 0.000000 0.000000 0.039931
#
#
# Mechanical properties :
#
#
# Convention : Reuss Voigt Hill
#
# Bulk Modulus (GPa) = 41.44340 64.98867 53.21604
# Shear Modulus (GPa) = 10.43991 18.86339 14.65165
#
# Velocity S-wave (km/s) = 2.47691 3.32944 2.93430
# Velocity P-wave (km/s) = 5.70391 7.27813 6.53857
#
# Compressibility (1/GPa) = 0.02412929
#
# Stress axis : x y z
#
# Youngs Moduli (GPa) = 14.39366 14.39366 116.29673
#
# Poissons Ratio (x) = 0.72659 0.65300
# Poissons Ratio (y) = 0.72659 0.65300
# Poissons Ratio (z) = 0.08082 0.08082
#
# Static dielectric constant tensor:
#      x y z
#    x 2.869800 0.000000 0.000000 
#    y 0.000000 2.869800 0.000000 
#    z 0.000000 0.000000 3.497760 
# 
# 
# High freq. dielectric constant tensor:
#      x y z
#    x 1.611950 0.000000 0.000000 
#    y 0.000000 1.611950 0.000000 
#    z 0.000000 0.000000 1.675720 
# 
# From -- ./inp_files/6009.got.cif
#   From: 2010.03.12/outbox.cif.g09.slc.cpg/sg138_4_cif.got.tgz:6009.got - 2010.04.08 09:41:05.
