data_PCOD8319922
_publ_section_title
;
Structure prediction by ZEFSAII (Michael W. Deem and Ramdas Pophale) SiO2 
 PCOD8319922
Probable space group: I 4/M M M
;
_chemical_formula_sum "Si O2"
_cell_formula_units_Z 160
_cell_length_a 23.317537
_cell_length_b 23.317537
_cell_length_c 15.088982
_cell_angle_alpha 90.000000
_cell_angle_beta 90.000000
_cell_angle_gamma 90.000000
_cell_volume 8203.993160
_symmetry_space_group_name_H-M "I 4/M M M"
_symmetry_group_IT_number 139
_symmetry_cell_setting 'tetragonal'
loop_
_space_group_symop_operation_xyz
x,y,z
-y,x,z
-x,-y,z
y,-x,z
x,-y,-z
-x,y,-z
y,x,-z
-y,-x,-z
-x,-y,-z
y,-x,-z
x,y,-z
-y,x,-z
-x,y,z
x,-y,z
-y,-x,z
y,x,z
1/2+x,1/2+y,1/2+z
1/2-y,1/2+x,1/2+z
1/2-x,1/2-y,1/2+z
1/2+y,1/2-x,1/2+z
1/2+x,1/2-y,1/2-z
1/2-x,1/2+y,1/2-z
1/2+y,1/2+x,1/2-z
1/2-y,1/2-x,1/2-z
1/2-x,1/2-y,1/2-z
1/2+y,1/2-x,1/2-z
1/2+x,1/2+y,1/2-z
1/2-y,1/2+x,1/2-z
1/2-x,1/2+y,1/2+z
1/2+x,1/2-y,1/2+z
1/2-y,1/2-x,1/2+z
1/2+y,1/2+x,1/2+z
loop_
_atom_site_type_symbol
_atom_site_label
_atom_site_fract_x
_atom_site_fract_y
_atom_site_fract_z
Si Si1 0.772888 0.865299 0.099135
Si Si2 0.646201 0.840493 0.145998
Si Si3 0.263502 0.564777 0.101016
Si Si4 0.563228 0.936376 0.355424
Si Si5 0.160325 0.934114 0.765001
O O1 0.810204 0.810204 0.125181
O O2 0.707740 0.843995 0.101280
O O3 0.788316 0.915956 0.167859
O O4 0.786944 0.887120 0.000000
O O5 0.653895 0.846106 0.250000
O O6 0.613639 0.782318 0.122706
O O7 0.608681 0.892085 0.104999
O O8 0.238606 0.500000 0.116840
O O9 0.317933 0.574362 0.164588
O O10 0.284624 0.571726 0.000000
O O11 0.500000 0.919194 0.389356
O O12 0.564776 0.935224 0.250000
O O13 0.579143 0.000000 0.389486
O O14 0.103629 0.896371 0.781176
O O15 0.144231 0.000000 0.783962
#
# Coordination Sequence:
#
# PCOD8319922 Si02
#       5
#    32  32  32  32  32
#     4  10  22  39  57  81 115 151 187 231 284 340
#     4  11  19  31  55  85 112 151 199 242 281 332
#     4  10  21  37  57  84 120 159 197 238 284 336
#     4   8  15  27  44  71 107 145 185 230 276 318
#     4  10  22  41  64  89 116 146 183 231 289 351
#
# _framework density 19.502697000000001
#
# number of rings (size 3 to 8) (size 9 to 14) (size 15 to 20)
#    0.000    2.200    2.000    1.800    0.000    3.800 
#    0.000    0.000    0.000    1.800    0.000   12.600 
#    0.000    0.000    0.000    0.000    0.000    0.000 
#
# Total GULP energy -991836.614789 kJ/mol
# GULP energy per Si atom -12397.957685 kJ/mol
# Density = 1.945831 g / cm^3
# Si number density = 19.502697 Si / 1000 Ang^3
#
#
#
# Elastic Constant Matrix: (Units=GPa)
#
#
# Indices 1 2 3 4 5 6 
#
# 1 108.7705 52.0472 27.9814 0.0000 0.0000 0.0000
# 2 52.0472 108.7706 27.9814 0.0000 0.0000 0.0000
# 3 27.9814 27.9814 91.7969 0.0000 0.0000 0.0000
# 4 0.0000 0.0000 0.0000 18.2357 0.0000 0.0000
# 5 0.0000 0.0000 0.0000 0.0000 18.2357 0.0000
# 6 0.0000 0.0000 0.0000 0.0000 0.0000 26.4955
#
#
#
# Elastic Compliance Matrix: (Units=1/GPa)
#
#
# Indices 1 2 3 4 5 6 
#
# 1 0.012293 -0.005337 -0.002120 0.000000 0.000000 0.000000
# 2 -0.005337 0.012293 -0.002120 0.000000 0.000000 0.000000
# 3 -0.002120 -0.002120 0.012186 0.000000 0.000000 0.000000
# 4 0.000000 0.000000 0.000000 0.054837 0.000000 0.000000
# 5 0.000000 0.000000 0.000000 0.000000 0.054837 0.000000
# 6 0.000000 0.000000 0.000000 0.000000 0.000000 0.037742
#
#
# Mechanical properties :
#
#
# Convention : Reuss Voigt Hill
#
# Bulk Modulus (GPa) = 56.76323 58.37311 57.56817
# Shear Modulus (GPa) = 23.89875 26.01525 24.95700
#
# Velocity S-wave (km/s) = 3.50438 3.65626 3.58113
# Velocity P-wave (km/s) = 6.74854 6.91521 6.83238
#
# Compressibility (1/GPa) = 0.01761704
#
# Stress axis : x y z
#
# Youngs Moduli (GPa) = 81.34873 81.34879 82.05967
#
# Poissons Ratio (x) = 0.43413 0.17400
# Poissons Ratio (y) = 0.43413 0.17399
# Poissons Ratio (z) = 0.17249 0.17249
#
# Static dielectric constant tensor:
#      x y z
#    x 3.569140 0.000000 0.000000 
#    y 0.000000 3.569150 0.000000 
#    z 0.000000 0.000000 3.600460 
# 
# 
# High freq. dielectric constant tensor:
#      x y z
#    x 1.751710 0.000000 0.000000 
#    y 0.000000 1.751710 0.000000 
#    z 0.000000 0.000000 1.762310 
# 
# From -- ./inp_files/5923.got.cif
#   From: 2010.03.12/outbox.cif.g09.slc.cpg/sg139_3_cif.got.tgz:5923.got - 2010.04.08 09:46:31.
