data_PCOD8319995
_publ_section_title
;
Structure prediction by ZEFSAII (Michael W. Deem and Ramdas Pophale) SiO2 
 PCOD8319995
Probable space group: I 4/M M M
;
_chemical_formula_sum "Si O2"
_cell_formula_units_Z 136
_cell_length_a 17.652625
_cell_length_b 17.652625
_cell_length_c 23.051582
_cell_angle_alpha 90.000000
_cell_angle_beta 90.000000
_cell_angle_gamma 90.000000
_cell_volume 7183.222630
_symmetry_space_group_name_H-M "I 4/M M M"
_symmetry_group_IT_number 139
_symmetry_cell_setting 'tetragonal'
loop_
_space_group_symop_operation_xyz
x,y,z
-y,x,z
-x,-y,z
y,-x,z
x,-y,-z
-x,y,-z
y,x,-z
-y,-x,-z
-x,-y,-z
y,-x,-z
x,y,-z
-y,x,-z
-x,y,z
x,-y,z
-y,-x,z
y,x,z
1/2+x,1/2+y,1/2+z
1/2-y,1/2+x,1/2+z
1/2-x,1/2-y,1/2+z
1/2+y,1/2-x,1/2+z
1/2+x,1/2-y,1/2-z
1/2-x,1/2+y,1/2-z
1/2+y,1/2+x,1/2-z
1/2-y,1/2-x,1/2-z
1/2-x,1/2-y,1/2-z
1/2+y,1/2-x,1/2-z
1/2+x,1/2+y,1/2-z
1/2-y,1/2+x,1/2-z
1/2-x,1/2+y,1/2+z
1/2+x,1/2-y,1/2+z
1/2-y,1/2-x,1/2+z
1/2+y,1/2+x,1/2+z
loop_
_atom_site_type_symbol
_atom_site_label
_atom_site_fract_x
_atom_site_fract_y
_atom_site_fract_z
Si Si1 0.612182 0.000000 0.723947
Si Si2 0.500000 0.277062 0.727326
Si Si3 0.087793 0.500000 0.089530
Si Si4 0.349557 0.839637 0.564063
Si Si5 0.500000 0.375828 0.500000
Si Si6 0.662593 0.337408 0.257369
Si Si7 0.255816 0.744185 0.152356
Si Si8 0.000000 0.250789 0.908204
O O1 0.576457 0.923544 0.750000
O O2 0.700863 0.000000 0.734998
O O3 0.590190 0.000000 0.657920
O O4 0.426919 0.325355 0.743895
O O5 0.500000 0.258494 0.660078
O O6 0.133435 0.571619 0.066143
O O7 0.000000 0.500000 0.068562
O O8 0.317265 0.820096 0.500000
O O9 0.289894 0.815076 0.612916
O O10 0.427204 0.796268 0.572771
O O11 0.575290 0.424711 0.500000
O O12 0.500000 0.329069 0.440601
O O13 0.698166 0.301835 0.199958
O O14 0.698327 0.301673 0.315794
#
# Coordination Sequence:
#
# PCOD8319995 Si02
#       8
#    16  16  16  32   8  16  16  16
#     4  11  22  37  61  93 128 173 210 251 320 386
#     4  12  25  42  64  92 126 165 208 270 316 387
#     4  12  23  38  60  94 130 165 211 260 317 385
#     4  12  24  41  62  91 129 172 214 262 321 381
#     4  11  28  44  60  85 124 178 236 269 304 372
#     4  11  26  43  66  92 126 162 210 265 328 378
#     4  11  25  42  64  94 121 164 215 265 314 385
#     4  12  23  38  61  89 125 171 214 266 319 372
#
# _framework density 18.933005999999999
#
# number of rings (size 3 to 8) (size 9 to 14) (size 15 to 20)
#    0.000    0.412    5.882    3.529    6.588    0.706 
#    0.000    0.000    0.000    0.000    0.000    0.000 
#    0.000    0.000    0.000    9.176    0.000    0.000 
#
# Total GULP energy -843459.114536 kJ/mol
# GULP energy per Si atom -12403.810508 kJ/mol
# Density = 1.888991 g / cm^3
# Si number density = 18.933006 Si / 1000 Ang^3
#
#
#
# Elastic Constant Matrix: (Units=GPa)
#
#
# Indices 1 2 3 4 5 6 
#
# 1 126.2369 66.5976 33.0049 0.0000 0.0000 0.0000
# 2 66.5976 126.2393 33.0057 0.0000 0.0000 0.0000
# 3 33.0049 33.0057 113.2043 0.0000 0.0000 0.0000
# 4 0.0000 0.0000 0.0000 5.3674 0.0000 0.0000
# 5 0.0000 0.0000 0.0000 0.0000 5.3395 0.0000
# 6 0.0000 0.0000 0.0000 0.0000 0.0000 33.2301
#
#
#
# Elastic Compliance Matrix: (Units=1/GPa)
#
#
# Indices 1 2 3 4 5 6 
#
# 1 0.011264 -0.005503 -0.001680 0.000000 0.000000 0.000000
# 2 -0.005503 0.011264 -0.001680 0.000000 0.000000 0.000000
# 3 -0.001680 -0.001680 0.009813 0.000000 0.000000 0.000000
# 4 0.000000 0.000000 0.000000 0.186310 0.000000 0.000000
# 5 0.000000 0.000000 0.000000 0.000000 0.187283 0.000000
# 6 0.000000 0.000000 0.000000 0.000000 0.000000 0.030093
#
#
# Mechanical properties :
#
#
# Convention : Reuss Voigt Hill
#
# Bulk Modulus (GPa) = 68.41765 70.09965 69.25865
# Shear Modulus (GPa) = 10.90218 24.32555 17.61386
#
# Velocity S-wave (km/s) = 2.40225 3.58833 3.05343
# Velocity P-wave (km/s) = 6.62643 7.36706 7.00654
#
# Compressibility (1/GPa) = 0.01461611
#
# Stress axis : x y z
#
# Youngs Moduli (GPa) = 88.77842 88.77988 101.90604
#
# Poissons Ratio (x) = 0.48857 0.17115
# Poissons Ratio (y) = 0.48857 0.17116
# Poissons Ratio (z) = 0.14911 0.14911
#
# Static dielectric constant tensor:
#      x y z
#    x 3.393770 0.000000 0.000000 
#    y 0.000000 3.393910 0.000000 
#    z 0.000000 0.000000 3.485220 
# 
# 
# High freq. dielectric constant tensor:
#      x y z
#    x 1.734420 0.000000 0.000000 
#    y 0.000000 1.734420 0.000000 
#    z 0.000000 0.000000 1.755450 
# 
# From -- ./inp_files/11606.got.cif
#   From: 2010.03.12/outbox.cif.g09.slc.cpg/sg139_6_cif.got.tgz:11606.got - 2010.04.08 09:46:31.
