data_PCOD8319800
_publ_section_title
;
Structure prediction by ZEFSAII (Michael W. Deem and Ramdas Pophale) SiO2 
 PCOD8319800
Probable space group: I 4/M M M
;
_chemical_formula_sum "Si O2"
_cell_formula_units_Z 176
_cell_length_a 19.724809
_cell_length_b 19.724809
_cell_length_c 23.856448
_cell_angle_alpha 90.000000
_cell_angle_beta 90.000000
_cell_angle_gamma 90.000000
_cell_volume 9281.782660
_symmetry_space_group_name_H-M "I 4/M M M"
_symmetry_group_IT_number 139
_symmetry_cell_setting 'tetragonal'
loop_
_space_group_symop_operation_xyz
x,y,z
-y,x,z
-x,-y,z
y,-x,z
x,-y,-z
-x,y,-z
y,x,-z
-y,-x,-z
-x,-y,-z
y,-x,-z
x,y,-z
-y,x,-z
-x,y,z
x,-y,z
-y,-x,z
y,x,z
1/2+x,1/2+y,1/2+z
1/2-y,1/2+x,1/2+z
1/2-x,1/2-y,1/2+z
1/2+y,1/2-x,1/2+z
1/2+x,1/2-y,1/2-z
1/2-x,1/2+y,1/2-z
1/2+y,1/2+x,1/2-z
1/2-y,1/2-x,1/2-z
1/2-x,1/2-y,1/2-z
1/2+y,1/2-x,1/2-z
1/2+x,1/2+y,1/2-z
1/2-y,1/2+x,1/2-z
1/2-x,1/2+y,1/2+z
1/2+x,1/2-y,1/2+z
1/2-y,1/2-x,1/2+z
1/2+y,1/2+x,1/2+z
loop_
_atom_site_type_symbol
_atom_site_label
_atom_site_fract_x
_atom_site_fract_y
_atom_site_fract_z
Si Si1 0.321061 0.920839 0.780114
Si Si2 0.574992 0.319627 0.106614
Si Si3 0.578775 0.809002 0.409433
Si Si4 0.075129 0.321341 0.563141
Si Si5 0.195865 0.919690 0.000000
Si Si6 0.678789 0.425695 0.237108
O O1 0.382640 0.882640 0.750000
O O2 0.304852 0.900499 0.844263
O O3 0.254511 0.899395 0.746225
O O4 0.338195 0.000000 0.775047
O O5 0.500000 0.327772 0.079374
O O6 0.627154 0.372847 0.078327
O O7 0.601728 0.242963 0.098626
O O8 0.570317 0.335392 0.171786
O O9 0.500000 0.824125 0.417245
O O10 0.616466 0.873919 0.433959
O O11 0.597275 0.740745 0.444321
O O12 0.070441 0.295410 0.500000
O O13 0.000000 0.344119 0.584512
O O14 0.128731 0.871270 0.000000
O O15 0.174691 0.000000 0.000000
O O16 0.669424 0.500000 0.265099
O O17 0.625416 0.374585 0.265957
#
# Coordination Sequence:
#
# PCOD8319800 Si02
#       6
#    32  32  32  32  16  32
#     4  10  21  36  56  81 113 151 187 228 276 330
#     4   9  18  32  50  73 103 138 177 222 267 315
#     4  10  21  38  58  82 112 146 186 230 279 334
#     4  10  20  34  53  77 105 139 179 221 265 315
#     4  10  22  41  63  87 115 147 188 238 292 348
#     4   9  18  33  52  75 103 135 173 218 269 322
#
# _framework density 18.961874000000002
#
# number of rings (size 3 to 8) (size 9 to 14) (size 15 to 20)
#    0.000    2.364    0.909    1.091    0.000    5.364 
#    0.000    4.545    0.000    0.000    0.000    7.636 
#    0.000    0.000    0.000    0.000    0.000    0.000 
#
# Total GULP energy -1090640.806469 kJ/mol
# GULP energy per Si atom -12393.645528 kJ/mol
# Density = 1.891872 g / cm^3
# Si number density = 18.961874 Si / 1000 Ang^3
#
#
#
# Elastic Constant Matrix: (Units=GPa)
#
#
# Indices 1 2 3 4 5 6 
#
# 1 108.5412 84.5967 31.2711 0.0000 0.0000 0.0000
# 2 84.5967 108.5396 31.2708 0.0000 0.0000 0.0000
# 3 31.2711 31.2708 69.5800 0.0000 0.0000 0.0000
# 4 0.0000 0.0000 0.0000 20.4833 0.0000 0.0000
# 5 0.0000 0.0000 0.0000 0.0000 20.4832 0.0000
# 6 0.0000 0.0000 0.0000 0.0000 0.0000 42.4139
#
#
#
# Elastic Compliance Matrix: (Units=1/GPa)
#
#
# Indices 1 2 3 4 5 6 
#
# 1 0.023912 -0.017853 -0.002723 0.000000 0.000000 0.000000
# 2 -0.017853 0.023912 -0.002723 0.000000 0.000000 0.000000
# 3 -0.002723 -0.002723 0.016820 0.000000 0.000000 0.000000
# 4 0.000000 0.000000 0.000000 0.048820 0.000000 0.000000
# 5 0.000000 0.000000 0.000000 0.000000 0.048820 0.000000
# 6 0.000000 0.000000 0.000000 0.000000 0.000000 0.023577
#
#
# Mechanical properties :
#
#
# Convention : Reuss Voigt Hill
#
# Bulk Modulus (GPa) = 55.41506 64.54867 59.98187
# Shear Modulus (GPa) = 20.96652 25.97756 23.47204
#
# Velocity S-wave (km/s) = 3.32884 3.70535 3.52213
# Velocity P-wave (km/s) = 6.63798 7.24026 6.94565
#
# Compressibility (1/GPa) = 0.01804564
#
# Stress axis : x y z
#
# Youngs Moduli (GPa) = 41.82013 41.81953 59.45382
#
# Poissons Ratio (x) = 0.74659 0.16191
# Poissons Ratio (y) = 0.74660 0.16191
# Poissons Ratio (z) = 0.11389 0.11389
#
# Static dielectric constant tensor:
#      x y z
#    x 3.559240 0.000000 0.000000 
#    y 0.000000 3.559240 0.000000 
#    z 0.000000 0.000000 3.497540 
# 
# 
# High freq. dielectric constant tensor:
#      x y z
#    x 1.734460 0.000000 0.000000 
#    y 0.000000 1.734460 0.000000 
#    z 0.000000 0.000000 1.730160 
# 
# From -- ./inp_files/13099.got.cif
#   From: 2010.03.12/outbox.cif.g09.slc.cpg/sg139_7_cif.got.tgz:13099.got - 2010.04.08 09:46:31.
