data_PCOD8319392
_publ_section_title
;
Structure prediction by ZEFSAII (Michael W. Deem and Ramdas Pophale) SiO2 
 PCOD8319392
Probable space group: I 4/M M M
;
_chemical_formula_sum "Si O2"
_cell_formula_units_Z 144
_cell_length_a 22.061478
_cell_length_b 22.061478
_cell_length_c 18.434681
_cell_angle_alpha 90.000000
_cell_angle_beta 90.000000
_cell_angle_gamma 90.000000
_cell_volume 8972.321681
_symmetry_space_group_name_H-M "I 4/M M M"
_symmetry_group_IT_number 139
_symmetry_cell_setting 'tetragonal'
loop_
_space_group_symop_operation_xyz
x,y,z
-y,x,z
-x,-y,z
y,-x,z
x,-y,-z
-x,y,-z
y,x,-z
-y,-x,-z
-x,-y,-z
y,-x,-z
x,y,-z
-y,x,-z
-x,y,z
x,-y,z
-y,-x,z
y,x,z
1/2+x,1/2+y,1/2+z
1/2-y,1/2+x,1/2+z
1/2-x,1/2-y,1/2+z
1/2+y,1/2-x,1/2+z
1/2+x,1/2-y,1/2-z
1/2-x,1/2+y,1/2-z
1/2+y,1/2+x,1/2-z
1/2-y,1/2-x,1/2-z
1/2-x,1/2-y,1/2-z
1/2+y,1/2-x,1/2-z
1/2+x,1/2+y,1/2-z
1/2-y,1/2+x,1/2-z
1/2-x,1/2+y,1/2+z
1/2+x,1/2-y,1/2+z
1/2-y,1/2-x,1/2+z
1/2+y,1/2+x,1/2+z
loop_
_atom_site_type_symbol
_atom_site_label
_atom_site_fract_x
_atom_site_fract_y
_atom_site_fract_z
Si Si1 0.431570 0.201591 0.226928
Si Si2 0.831275 0.930994 0.784739
Si Si3 0.428837 0.931639 0.500000
Si Si4 0.619323 0.853710 0.632629
Si Si5 0.125555 0.222109 0.080439
O O1 0.500000 0.193338 0.199583
O O2 0.415814 0.272593 0.236062
O O3 0.426127 0.163355 0.301776
O O4 0.386399 0.178257 0.165275
O O5 0.886029 0.886029 0.763573
O O6 0.809515 0.923569 0.867676
O O7 0.853467 0.000000 0.773437
O O8 0.500000 0.935456 0.500000
O O9 0.410349 0.897241 0.426696
O O10 0.401386 0.000000 0.500000
O O11 0.639696 0.792008 0.594923
O O12 0.190209 0.190209 0.090297
O O13 0.098815 0.214063 0.000000
#
# Coordination Sequence:
#
# PCOD8319392 Si02
#       5
#    32  32  16  32  32
#     4   9  18  31  47  66  90 120 154 189 227 276
#     4   9  18  31  47  69  94 121 153 188 228 274
#     4  11  22  32  43  64  92 120 155 196 230 265
#     4  10  18  31  48  66  88 120 155 188 233 275
#     4   9  17  30  46  67  92 116 150 191 228 270
#
# _framework density 16.049358000000002
#
# number of rings (size 3 to 8) (size 9 to 14) (size 15 to 20)
#    0.000    2.556    1.111    1.333    0.000    2.444 
#    0.000    4.444    0.000    5.333    0.000    3.111 
#    0.000    0.000    0.000    0.000    0.000   10.222 
#
# Total GULP energy -892453.500034 kJ/mol
# GULP energy per Si atom -12395.187500 kJ/mol
# Density = 1.601283 g / cm^3
# Si number density = 16.049358 Si / 1000 Ang^3
#
#
#
# Elastic Constant Matrix: (Units=GPa)
#
#
# Indices 1 2 3 4 5 6 
#
# 1 95.9359 48.6416 22.0669 0.0000 0.0000 0.0000
# 2 48.6416 95.9359 22.0669 0.0000 0.0000 0.0000
# 3 22.0669 22.0669 45.6674 0.0000 0.0000 0.0000
# 4 0.0000 0.0000 0.0000 18.3797 0.0000 0.0000
# 5 0.0000 0.0000 0.0000 0.0000 18.3797 0.0000
# 6 0.0000 0.0000 0.0000 0.0000 0.0000 24.3068
#
#
#
# Elastic Compliance Matrix: (Units=1/GPa)
#
#
# Indices 1 2 3 4 5 6 
#
# 1 0.014629 -0.006515 -0.003920 0.000000 0.000000 0.000000
# 2 -0.006515 0.014629 -0.003920 0.000000 0.000000 0.000000
# 3 -0.003920 -0.003920 0.025686 0.000000 0.000000 0.000000
# 4 0.000000 0.000000 0.000000 0.054408 0.000000 0.000000
# 5 0.000000 0.000000 0.000000 0.000000 0.054408 0.000000
# 6 0.000000 0.000000 0.000000 0.000000 0.000000 0.041141
#
#
# Mechanical properties :
#
#
# Convention : Reuss Voigt Hill
#
# Bulk Modulus (GPa) = 38.12248 47.01000 42.56624
# Shear Modulus (GPa) = 20.63076 21.86419 21.24747
#
# Velocity S-wave (km/s) = 3.58922 3.69495 3.64247
# Velocity P-wave (km/s) = 6.40168 6.89623 6.65355
#
# Compressibility (1/GPa) = 0.02623124
#
# Stress axis : x y z
#
# Youngs Moduli (GPa) = 68.35814 68.35814 38.93127
#
# Poissons Ratio (x) = 0.44538 0.15263
# Poissons Ratio (y) = 0.44538 0.15263
# Poissons Ratio (z) = 0.26800 0.26800
#
# Static dielectric constant tensor:
#      x y z
#    x 3.047430 0.000000 0.000000 
#    y 0.000000 3.047430 0.000000 
#    z 0.000000 0.000000 3.044770 
# 
# 
# High freq. dielectric constant tensor:
#      x y z
#    x 1.614670 0.000000 0.000000 
#    y 0.000000 1.614670 0.000000 
#    z 0.000000 0.000000 1.605080 
# 
# From -- ./inp_files/8185.got.cif
#   From: 2010.03.12/outbox.cif.g09.slc.cpg/sg139_5_cif.got.tgz:8185.got - 2010.04.08 09:46:31.
