data_PCOD8319986
_publ_section_title
;
Structure prediction by ZEFSAII (Michael W. Deem and Ramdas Pophale) SiO2 
 PCOD8319986
Probable space group: I 4/M M M
;
_chemical_formula_sum "Si O2"
_cell_formula_units_Z 96
_cell_length_a 17.175102
_cell_length_b 17.175102
_cell_length_c 17.537328
_cell_angle_alpha 90.000000
_cell_angle_beta 90.000000
_cell_angle_gamma 90.000000
_cell_volume 5173.233420
_symmetry_space_group_name_H-M "I 4/M M M"
_symmetry_group_IT_number 139
_symmetry_cell_setting 'tetragonal'
loop_
_space_group_symop_operation_xyz
x,y,z
-y,x,z
-x,-y,z
y,-x,z
x,-y,-z
-x,y,-z
y,x,-z
-y,-x,-z
-x,-y,-z
y,-x,-z
x,y,-z
-y,x,-z
-x,y,z
x,-y,z
-y,-x,z
y,x,z
1/2+x,1/2+y,1/2+z
1/2-y,1/2+x,1/2+z
1/2-x,1/2-y,1/2+z
1/2+y,1/2-x,1/2+z
1/2+x,1/2-y,1/2-z
1/2-x,1/2+y,1/2-z
1/2+y,1/2+x,1/2-z
1/2-y,1/2-x,1/2-z
1/2-x,1/2-y,1/2-z
1/2+y,1/2-x,1/2-z
1/2+x,1/2+y,1/2-z
1/2-y,1/2+x,1/2-z
1/2-x,1/2+y,1/2+z
1/2+x,1/2-y,1/2+z
1/2-y,1/2-x,1/2+z
1/2+y,1/2+x,1/2+z
loop_
_atom_site_type_symbol
_atom_site_label
_atom_site_fract_x
_atom_site_fract_y
_atom_site_fract_z
Si Si1 0.858148 0.858148 0.584395
Si Si2 0.677553 0.850125 0.587297
Si Si3 0.793622 0.206379 0.182796
Si Si4 0.911881 0.500000 0.090783
Si Si5 0.588223 0.411778 0.240495
O O1 0.885631 0.885631 0.500000
O O2 0.767021 0.874753 0.594306
O O3 0.904324 0.904324 0.648958
O O4 0.654082 0.833644 0.500000
O O5 0.660364 0.770804 0.633155
O O6 0.628532 0.921698 0.622624
O O7 0.750000 0.250000 0.250000
O O8 0.854896 0.145105 0.214479
O O9 0.000000 0.500000 0.119645
O O10 0.904589 0.500000 0.000000
O O11 0.608592 0.500000 0.263651
#
# Coordination Sequence:
#
# PCOD8319986 Si02
#       5
#    16  32  16  16  16
#     4   9  18  33  57  83 106 141 183 229 275 332
#     4   9  18  33  57  86 113 142 181 224 275 333
#     4  11  20  36  57  81 108 149 193 230 273 333
#     4   9  18  32  54  86 119 145 172 218 278 335
#     4  11  25  40  54  78 114 154 190 233 285 333
#
# _framework density 18.55706
#
# number of rings (size 3 to 8) (size 9 to 14) (size 15 to 20)
#    0.000    2.333    3.333    1.500    2.333    2.000 
#    0.000    0.833    0.000    3.000    0.000    4.667 
#    0.000    0.000    0.000    0.000    0.000    0.000 
#
# Total GULP energy -595141.075381 kJ/mol
# GULP energy per Si atom -12398.772404 kJ/mol
# Density = 1.851482 g / cm^3
# Si number density = 18.557060 Si / 1000 Ang^3
#
#
#
# Elastic Constant Matrix: (Units=GPa)
#
#
# Indices 1 2 3 4 5 6 
#
# 1 128.6759 95.6759 48.3392 0.0000 0.0000 0.0000
# 2 95.6759 128.6759 48.3392 0.0000 0.0000 0.0000
# 3 48.3392 48.3392 77.2767 0.0000 0.0000 0.0000
# 4 0.0000 0.0000 0.0000 23.2756 0.0000 0.0000
# 5 0.0000 0.0000 0.0000 0.0000 23.2756 0.0000
# 6 0.0000 0.0000 0.0000 0.0000 0.0000 41.5986
#
#
#
# Elastic Compliance Matrix: (Units=1/GPa)
#
#
# Indices 1 2 3 4 5 6 
#
# 1 0.018203 -0.012100 -0.003817 0.000000 0.000000 0.000000
# 2 -0.012100 0.018203 -0.003817 0.000000 0.000000 0.000000
# 3 -0.003817 -0.003817 0.017716 0.000000 0.000000 0.000000
# 4 0.000000 0.000000 0.000000 0.042963 0.000000 0.000000
# 5 0.000000 0.000000 0.000000 0.000000 0.042963 0.000000
# 6 0.000000 0.000000 0.000000 0.000000 0.000000 0.024039
#
#
# Mechanical properties :
#
#
# Convention : Reuss Voigt Hill
#
# Bulk Modulus (GPa) = 68.25071 79.92635 74.08853
# Shear Modulus (GPa) = 23.98766 27.11492 25.55129
#
# Velocity S-wave (km/s) = 3.59924 3.82667 3.71469
# Velocity P-wave (km/s) = 7.35740 7.91761 7.64264
#
# Compressibility (1/GPa) = 0.01465186
#
# Stress axis : x y z
#
# Youngs Moduli (GPa) = 54.93728 54.93728 56.44613
#
# Poissons Ratio (x) = 0.66476 0.21546
# Poissons Ratio (y) = 0.66476 0.21546
# Poissons Ratio (z) = 0.20970 0.20970
#
# Static dielectric constant tensor:
#      x y z
#    x 3.431620 0.000000 0.000000 
#    y 0.000000 3.431620 0.000000 
#    z 0.000000 0.000000 3.448310 
# 
# 
# High freq. dielectric constant tensor:
#      x y z
#    x 1.714770 0.000000 0.000000 
#    y 0.000000 1.714770 0.000000 
#    z 0.000000 0.000000 1.702250 
# 
# From -- ./inp_files/7368.got.cif
#   From: 2010.03.12/outbox.cif.g09.slc.cpg/sg139_4_cif.got.tgz:7368.got - 2010.04.08 09:46:31.
