data_PCOD8319365
_publ_section_title
;
Structure prediction by ZEFSAII (Michael W. Deem and Ramdas Pophale) SiO2 
 PCOD8319365
Probable space group: I 4/M M M
;
_chemical_formula_sum "Si O2"
_cell_formula_units_Z 112
_cell_length_a 27.346261
_cell_length_b 27.346261
_cell_length_c 8.704240
_cell_angle_alpha 90.000000
_cell_angle_beta 90.000000
_cell_angle_gamma 90.000000
_cell_volume 6509.187267
_symmetry_space_group_name_H-M "I 4/M M M"
_symmetry_group_IT_number 139
_symmetry_cell_setting 'tetragonal'
loop_
_space_group_symop_operation_xyz
x,y,z
-y,x,z
-x,-y,z
y,-x,z
x,-y,-z
-x,y,-z
y,x,-z
-y,-x,-z
-x,-y,-z
y,-x,-z
x,y,-z
-y,x,-z
-x,y,z
x,-y,z
-y,-x,z
y,x,z
1/2+x,1/2+y,1/2+z
1/2-y,1/2+x,1/2+z
1/2-x,1/2-y,1/2+z
1/2+y,1/2-x,1/2+z
1/2+x,1/2-y,1/2-z
1/2-x,1/2+y,1/2-z
1/2+y,1/2+x,1/2-z
1/2-y,1/2-x,1/2-z
1/2-x,1/2-y,1/2-z
1/2+y,1/2-x,1/2-z
1/2+x,1/2+y,1/2-z
1/2-y,1/2+x,1/2-z
1/2-x,1/2+y,1/2+z
1/2+x,1/2-y,1/2+z
1/2-y,1/2-x,1/2+z
1/2+y,1/2+x,1/2+z
loop_
_atom_site_type_symbol
_atom_site_label
_atom_site_fract_x
_atom_site_fract_y
_atom_site_fract_z
Si Si1 0.357369 0.782538 0.680509
Si Si2 0.944284 0.865022 0.179149
Si Si3 0.943824 0.761565 0.321633
Si Si4 0.711937 0.711937 0.182631
O O1 0.349540 0.784103 0.500000
O O2 0.329375 0.829375 0.750000
O O3 0.414199 0.780685 0.728497
O O4 0.339505 0.730269 0.750842
O O5 0.908917 0.908917 0.233145
O O6 0.929967 0.816321 0.270516
O O7 0.000000 0.881004 0.215726
O O8 0.937574 0.853561 0.000000
O O9 0.931636 0.756134 0.500000
O O10 0.000000 0.750711 0.284230
O O11 0.750000 0.750000 0.250000
O O12 0.711459 0.711459 0.000000
#
# Coordination Sequence:
#
# PCOD8319365 Si02
#       4
#    32  32  32  16
#     4  11  21  34  52  74 101 130 164 203 246 295
#     4   9  18  32  49  69  93 123 163 210 259 308
#     4  10  21  36  52  71  98 132 168 206 250 299
#     4  10  18  30  46  68  98 128 161 198 241 288
#
# _framework density 17.206448000000002
#
# number of rings (size 3 to 8) (size 9 to 14) (size 15 to 20)
#    0.000    2.000    0.000    6.429    2.000    2.571 
#    0.000    1.429    0.000    0.000    0.000    4.000 
#    0.000    0.571    0.000    6.000    0.000    2.571 
#
# Total GULP energy -694209.501170 kJ/mol
# GULP energy per Si atom -12396.598235 kJ/mol
# Density = 1.716729 g / cm^3
# Si number density = 17.206448 Si / 1000 Ang^3
#
#
#
# Elastic Constant Matrix: (Units=GPa)
#
#
# Indices 1 2 3 4 5 6 
#
# 1 85.5396 59.5856 46.5936 0.0000 0.0000 0.0000
# 2 59.5856 85.5396 46.5936 0.0000 0.0000 0.0000
# 3 46.5936 46.5936 123.7542 0.0000 0.0000 0.0000
# 4 0.0000 0.0000 0.0000 26.1938 0.0000 0.0000
# 5 0.0000 0.0000 0.0000 0.0000 26.1938 0.0000
# 6 0.0000 0.0000 0.0000 0.0000 0.0000 33.0071
#
#
#
# Elastic Compliance Matrix: (Units=1/GPa)
#
#
# Indices 1 2 3 4 5 6 
#
# 1 0.023809 -0.014721 -0.003421 0.000000 0.000000 0.000000
# 2 -0.014721 0.023809 -0.003421 0.000000 0.000000 0.000000
# 3 -0.003421 -0.003421 0.010657 0.000000 0.000000 0.000000
# 4 0.000000 0.000000 0.000000 0.038177 0.000000 0.000000
# 5 0.000000 0.000000 0.000000 0.000000 0.038177 0.000000
# 6 0.000000 0.000000 0.000000 0.000000 0.000000 0.030296
#
#
# Mechanical properties :
#
#
# Convention : Reuss Voigt Hill
#
# Bulk Modulus (GPa) = 66.02334 66.70875 66.36604
# Shear Modulus (GPa) = 23.46299 26.54964 25.00632
#
# Velocity S-wave (km/s) = 3.69672 3.93237 3.81637
# Velocity P-wave (km/s) = 7.52832 7.71180 7.62061
#
# Compressibility (1/GPa) = 0.01514616
#
# Stress axis : x y z
#
# Youngs Moduli (GPa) = 42.00154 42.00154 93.83569
#
# Poissons Ratio (x) = 0.61831 0.32106
# Poissons Ratio (y) = 0.61831 0.32106
# Poissons Ratio (z) = 0.14371 0.14371
#
# Static dielectric constant tensor:
#      x y z
#    x 3.504180 0.000000 0.000000 
#    y 0.000000 3.504180 0.000000 
#    z 0.000000 0.000000 3.256910 
# 
# 
# High freq. dielectric constant tensor:
#      x y z
#    x 1.647980 0.000000 0.000000 
#    y 0.000000 1.647980 0.000000 
#    z 0.000000 0.000000 1.677270 
# 
# From -- ./inp_files/1677.got.cif
#   From: 2010.03.12/outbox.cif.g09.slc.cpg/sg139_1_cif.got.tgz:1677.got - 2010.04.08 09:46:31.
