data_PCOD8319770
_publ_section_title
;
Structure prediction by ZEFSAII (Michael W. Deem and Ramdas Pophale) SiO2 
 PCOD8319770
Probable space group: I 4/M M M
;
_chemical_formula_sum "Si O2"
_cell_formula_units_Z 192
_cell_length_a 17.517508
_cell_length_b 17.517508
_cell_length_c 32.525002
_cell_angle_alpha 90.000000
_cell_angle_beta 90.000000
_cell_angle_gamma 90.000000
_cell_volume 9980.722503
_symmetry_space_group_name_H-M "I 4/M M M"
_symmetry_group_IT_number 139
_symmetry_cell_setting 'tetragonal'
loop_
_space_group_symop_operation_xyz
x,y,z
-y,x,z
-x,-y,z
y,-x,z
x,-y,-z
-x,y,-z
y,x,-z
-y,-x,-z
-x,-y,-z
y,-x,-z
x,y,-z
-y,x,-z
-x,y,z
x,-y,z
-y,-x,z
y,x,z
1/2+x,1/2+y,1/2+z
1/2-y,1/2+x,1/2+z
1/2-x,1/2-y,1/2+z
1/2+y,1/2-x,1/2+z
1/2+x,1/2-y,1/2-z
1/2-x,1/2+y,1/2-z
1/2+y,1/2+x,1/2-z
1/2-y,1/2-x,1/2-z
1/2-x,1/2-y,1/2-z
1/2+y,1/2-x,1/2-z
1/2+x,1/2+y,1/2-z
1/2-y,1/2+x,1/2-z
1/2-x,1/2+y,1/2+z
1/2+x,1/2-y,1/2+z
1/2-y,1/2-x,1/2+z
1/2+y,1/2+x,1/2+z
loop_
_atom_site_type_symbol
_atom_site_label
_atom_site_fract_x
_atom_site_fract_y
_atom_site_fract_z
Si Si1 0.285690 0.409865 0.401006
Si Si2 0.910392 0.500000 0.046384
Si Si3 0.820711 0.359182 0.926625
Si Si4 0.906932 0.785936 0.500000
Si Si5 0.586677 0.204298 0.684237
Si Si6 0.912099 0.793788 0.738858
Si Si7 0.588606 0.202415 0.158851
O O1 0.291991 0.500000 0.413778
O O2 0.367101 0.367101 0.407877
O O3 0.221806 0.365475 0.428655
O O4 0.263351 0.402561 0.353263
O O5 0.884609 0.575252 0.070347
O O6 0.000000 0.500000 0.043875
O O7 0.874865 0.500000 0.000000
O O8 0.757555 0.371218 0.961184
O O9 0.775489 0.368697 0.883499
O O10 0.872165 0.872165 0.500000
O O11 0.000000 0.789510 0.500000
O O12 0.500000 0.183914 0.692158
O O13 0.623149 0.238849 0.725956
O O14 0.623476 0.122878 0.675026
O O15 0.876786 0.876786 0.743332
O O16 0.894894 0.765960 0.692882
O O17 0.000000 0.803805 0.748264
O O18 0.500000 0.190754 0.150611
#
# Coordination Sequence:
#
# PCOD8319770 Si02
#       7
#    32  16  32  16  32  32  32
#     4  10  21  36  56  84 117 154 195 239 286 339
#     4  11  20  34  62  92 120 146 178 232 290 342
#     4  11  20  40  58  87 118 148 191 234 285 343
#     4  12  24  41  64  88 119 155 191 237 291 346
#     4   9  19  34  52  77 109 142 184 231 271 324
#     4  10  21  36  53  74 100 135 181 231 279 327
#     4  10  20  33  53  79 111 144 178 216 271 337
#
# _framework density 19.237083999999999
#
# number of rings (size 3 to 8) (size 9 to 14) (size 15 to 20)
#    0.000    1.750    2.500    2.000    0.000    6.083 
#    0.000    0.000    0.000    6.000    0.000    2.333 
#    0.000    2.000    0.000    0.000    0.000    0.167 
#
# Total GULP energy -1189919.547470 kJ/mol
# GULP energy per Si atom -12394.995286 kJ/mol
# Density = 1.919330 g / cm^3
# Si number density = 19.237084 Si / 1000 Ang^3
#
#
#
# Elastic Constant Matrix: (Units=GPa)
#
#
# Indices 1 2 3 4 5 6 
#
# 1 76.2912 58.9185 27.5732 0.0000 0.0000 0.0000
# 2 58.9185 76.2912 27.5732 0.0000 0.0000 0.0000
# 3 27.5732 27.5732 98.2521 0.0000 0.0000 0.0000
# 4 0.0000 0.0000 0.0000 15.6340 0.0000 0.0000
# 5 0.0000 0.0000 0.0000 0.0000 15.6340 0.0000
# 6 0.0000 0.0000 0.0000 0.0000 0.0000 34.4974
#
#
#
# Elastic Compliance Matrix: (Units=1/GPa)
#
#
# Indices 1 2 3 4 5 6 
#
# 1 0.032957 -0.024605 -0.002344 0.000000 0.000000 0.000000
# 2 -0.024605 0.032957 -0.002344 0.000000 0.000000 0.000000
# 3 -0.002344 -0.002344 0.011493 0.000000 0.000000 0.000000
# 4 0.000000 0.000000 0.000000 0.063963 0.000000 0.000000
# 5 0.000000 0.000000 0.000000 0.000000 0.063963 0.000000
# 6 0.000000 0.000000 0.000000 0.000000 0.000000 0.028988
#
#
# Mechanical properties :
#
#
# Convention : Reuss Voigt Hill
#
# Bulk Modulus (GPa) = 53.12989 53.21828 53.17409
# Shear Modulus (GPa) = 16.71237 22.27108 19.49172
#
# Velocity S-wave (km/s) = 2.95067 3.40621 3.18659
# Velocity P-wave (km/s) = 6.26794 6.57223 6.42189
#
# Compressibility (1/GPa) = 0.01882180
#
# Stress axis : x y z
#
# Youngs Moduli (GPa) = 30.34279 30.34279 87.00617
#
# Poissons Ratio (x) = 0.74658 0.20393
# Poissons Ratio (y) = 0.74658 0.20393
# Poissons Ratio (z) = 0.07112 0.07112
#
# Static dielectric constant tensor:
#      x y z
#    x 3.440890 0.000000 0.000000 
#    y 0.000000 3.440890 0.000000 
#    z 0.000000 0.000000 3.789940 
# 
# 
# High freq. dielectric constant tensor:
#      x y z
#    x 1.740190 0.000000 0.000000 
#    y 0.000000 1.740190 0.000000 
#    z 0.000000 0.000000 1.756570 
# 
# From -- ./inp_files/14391.got.cif
#   From: 2010.03.12/outbox.cif.g09.slc.cpg/sg139_8_cif.got.tgz:14391.got - 2010.04.08 09:46:31.
