data_PCOD8319174
_publ_section_title
;
Structure prediction by ZEFSAII (Michael W. Deem and Ramdas Pophale) SiO2 
 PCOD8319174
Probable space group: P 42/N C M
;
_chemical_formula_sum "Si O2"
_cell_formula_units_Z 96
_cell_length_a 15.671099
_cell_length_b 15.671099
_cell_length_c 19.630395
_cell_angle_alpha 90.000000
_cell_angle_beta 90.000000
_cell_angle_gamma 90.000000
_cell_volume 4820.898046
_symmetry_space_group_name_H-M "P 42/N C M"
_symmetry_group_IT_number 138
_space_group.IT_coordinate_system_code '2'
_symmetry_cell_setting 'tetragonal'
loop_
_space_group_symop_operation_xyz
x,y,z
1/2-y,x,1/2+z
1/2-x,1/2-y,z
y,1/2-x,1/2+z
1/2+x,-y,1/2-z
-x,1/2+y,1/2-z
1/2+y,1/2+x,-z
-y,-x,-z
-x,-y,-z
1/2+y,-x,1/2-z
1/2+x,1/2+y,-z
-y,1/2+x,1/2-z
1/2-x,y,1/2+z
x,1/2-y,1/2+z
1/2-y,1/2-x,z
y,x,z
loop_
_atom_site_type_symbol
_atom_site_label
_atom_site_fract_x
_atom_site_fract_y
_atom_site_fract_z
Si Si1 0.178127 0.178127 0.919151
Si Si2 0.005677 0.242586 0.368506
Si Si3 0.256546 0.004599 0.113293
Si Si4 0.891239 0.252217 0.741850
Si Si5 0.178697 0.321304 0.580890
Si Si6 0.612826 0.253044 0.489471
Si Si7 0.431095 0.431095 0.575803
Si Si8 0.070799 0.070799 0.423851
O O1 0.250000 0.250000 0.902233
O O2 0.200242 0.087864 0.884793
O O3 0.167730 0.167730 0.999946
O O4 0.031770 0.145514 0.379501
O O5 0.971383 0.258068 0.292583
O O6 0.923615 0.262456 0.414699
O O7 0.231811 0.933928 0.168722
O O8 0.238560 0.964991 0.039849
O O9 0.201853 0.090565 0.117988
O O10 0.355213 0.029767 0.120011
O O11 0.833798 0.166872 0.739629
O O12 0.250000 0.250000 0.596666
O O13 0.686221 0.186221 0.500000
O O14 0.651638 0.348363 0.500000
O O15 0.398452 0.398452 0.500112
O O16 0.500932 0.500932 0.563619
#
# Coordination Sequence:
#
# PCOD8319174 Si02
#       8
#     8  16  16  16   8  16   8   8
#     4  11  22  43  68  98 137 176 214 275 337 392
#     4  12  23  41  66  98 130 177 224 270 332 399
#     4  12  23  41  66  98 130 177 224 270 332 399
#     4  11  26  48  69  94 136 182 223 276 338 399
#     4  11  22  43  68  98 137 176 214 275 337 392
#     4  11  22  38  63  94 128 170 224 283 336 387
#     4  11  20  34  63 101 132 162 222 287 326 381
#     4  11  20  34  63 101 132 162 222 287 326 381
#
# _framework density 19.913302000000002
#
# number of rings (size 3 to 8) (size 9 to 14) (size 15 to 20)
#    0.000    0.667    5.000    4.000    0.000    4.000 
#    0.000    5.833    0.000    0.000    0.000    0.000 
#    0.000    0.000    0.000    0.000    0.000    0.000 
#
# Total GULP energy -1190559.794279 kJ/mol
# GULP energy per Si atom -12401.664524 kJ/mol
# Density = 1.986798 g / cm^3
# Si number density = 19.913302 Si / 1000 Ang^3
#
#
#
# Elastic Constant Matrix: (Units=GPa)
#
#
# Indices 1 2 3 4 5 6 
#
# 1 145.6477 11.5691 20.9109 0.0000 0.0000 0.0000
# 2 11.5691 145.6191 20.9078 0.0000 0.0000 0.0000
# 3 20.9109 20.9078 54.8613 0.0000 0.0000 0.0000
# 4 0.0000 0.0000 0.0000 33.0553 0.0000 0.0000
# 5 0.0000 0.0000 0.0000 0.0000 33.0556 0.0000
# 6 0.0000 0.0000 0.0000 0.0000 0.0000 39.4024
#
#
#
# Elastic Compliance Matrix: (Units=1/GPa)
#
#
# Indices 1 2 3 4 5 6 
#
# 1 0.007268 -0.000190 -0.002698 0.000000 0.000000 0.000000
# 2 -0.000190 0.007270 -0.002698 0.000000 0.000000 0.000000
# 3 -0.002698 -0.002698 0.020284 0.000000 0.000000 0.000000
# 4 0.000000 0.000000 0.000000 0.030252 0.000000 0.000000
# 5 0.000000 0.000000 0.000000 0.000000 0.030252 0.000000
# 6 0.000000 0.000000 0.000000 0.000000 0.000000 0.025379
#
#
# Mechanical properties :
#
#
# Convention : Reuss Voigt Hill
#
# Bulk Modulus (GPa) = 42.28290 50.32264 46.30277
# Shear Modulus (GPa) = 35.77522 40.61868 38.19695
#
# Velocity S-wave (km/s) = 4.24317 4.52129 4.38443
# Velocity P-wave (km/s) = 6.72946 7.25133 6.99526
#
# Compressibility (1/GPa) = 0.02365022
#
# Stress axis : x y z
#
# Youngs Moduli (GPa) = 137.58313 137.55692 49.29904
#
# Poissons Ratio (x) = 0.02615 0.13301
# Poissons Ratio (y) = 0.02615 0.13301
# Poissons Ratio (z) = 0.37119 0.37114
#
# Static dielectric constant tensor:
#      x y z
#    x 3.684990 0.000000 0.000000 
#    y 0.000000 3.685000 0.000000 
#    z 0.000000 0.000000 3.491310 
# 
# 
# High freq. dielectric constant tensor:
#      x y z
#    x 1.786890 0.000000 0.000000 
#    y 0.000000 1.786890 0.000000 
#    z 0.000000 0.000000 1.763260 
# 
# From -- ./inp_files/6321.got.cif
#   From: 2010.03.12/outbox.cif.g09.slc.cpg/sg138_4_cif.got.tgz:6321.got - 2010.04.08 09:41:05.
