data_PCOD8319340
_publ_section_title
;
Structure prediction by ZEFSAII (Michael W. Deem and Ramdas Pophale) SiO2 
 PCOD8319340
Probable space group: I 4/M M M
;
_chemical_formula_sum "Si O2"
_cell_formula_units_Z 128
_cell_length_a 29.151636
_cell_length_b 29.151636
_cell_length_c 10.432627
_cell_angle_alpha 90.000000
_cell_angle_beta 90.000000
_cell_angle_gamma 90.000000
_cell_volume 8865.832975
_symmetry_space_group_name_H-M "I 4/M M M"
_symmetry_group_IT_number 139
_symmetry_cell_setting 'tetragonal'
loop_
_space_group_symop_operation_xyz
x,y,z
-y,x,z
-x,-y,z
y,-x,z
x,-y,-z
-x,y,-z
y,x,-z
-y,-x,-z
-x,-y,-z
y,-x,-z
x,y,-z
-y,x,-z
-x,y,z
x,-y,z
-y,-x,z
y,x,z
1/2+x,1/2+y,1/2+z
1/2-y,1/2+x,1/2+z
1/2-x,1/2-y,1/2+z
1/2+y,1/2-x,1/2+z
1/2+x,1/2-y,1/2-z
1/2-x,1/2+y,1/2-z
1/2+y,1/2+x,1/2-z
1/2-y,1/2-x,1/2-z
1/2-x,1/2-y,1/2-z
1/2+y,1/2-x,1/2-z
1/2+x,1/2+y,1/2-z
1/2-y,1/2+x,1/2-z
1/2-x,1/2+y,1/2+z
1/2+x,1/2-y,1/2+z
1/2-y,1/2-x,1/2+z
1/2+y,1/2+x,1/2+z
loop_
_atom_site_type_symbol
_atom_site_label
_atom_site_fract_x
_atom_site_fract_y
_atom_site_fract_z
Si Si1 0.875946 0.948637 0.153183
Si Si2 0.945484 0.224599 0.142656
Si Si3 0.868067 0.445406 0.000000
Si Si4 0.446088 0.876690 0.500000
Si Si5 0.681656 0.945765 0.246403
O O1 0.914045 0.914045 0.209355
O O2 0.825372 0.932135 0.200250
O O3 0.887041 0.000000 0.203401
O O4 0.876198 0.948652 0.000000
O O5 0.926702 0.266161 0.231167
O O6 0.000000 0.227306 0.132374
O O7 0.924739 0.230667 0.000000
O O8 0.840480 0.426621 0.123426
O O9 0.873820 0.500000 0.000000
O O10 0.919096 0.424664 0.000000
O O11 0.500000 0.888134 0.500000
O O12 0.430875 0.848175 0.624395
O O13 0.683217 0.000000 0.254785
#
# Coordination Sequence:
#
# PCOD8319340 Si02
#       5
#    32  32  16  16  32
#     4   8  13  19  29  50  81 112 139 166 193 227
#     4   8  12  21  37  53  70  98 135 168 197 229
#     4  10  20  29  38  58  83  99 122 162 198 230
#     4  10  18  29  44  56  73 105 134 150 182 242
#     4   9  16  27  41  56  74  99 129 164 200 229
#
# _framework density 14.437447000000001
#
# number of rings (size 3 to 8) (size 9 to 14) (size 15 to 20)
#    0.000    3.250    1.250    2.250    0.000    0.500 
#    0.000    1.250    0.000    4.500    0.000    0.875 
#    0.000    6.000    0.000    0.000    0.000   22.500 
#
# Total GULP energy -792975.607961 kJ/mol
# GULP energy per Si atom -12390.243874 kJ/mol
# Density = 1.440459 g / cm^3
# Si number density = 14.437447 Si / 1000 Ang^3
#
#
#
# Elastic Constant Matrix: (Units=GPa)
#
#
# Indices 1 2 3 4 5 6 
#
# 1 81.2165 51.2660 31.4357 0.0000 0.0000 0.0000
# 2 51.2660 81.2165 31.4357 0.0000 0.0000 0.0000
# 3 31.4357 31.4357 78.0951 0.0000 0.0000 0.0000
# 4 0.0000 0.0000 0.0000 7.7386 0.0000 0.0000
# 5 0.0000 0.0000 0.0000 0.0000 7.7386 0.0000
# 6 0.0000 0.0000 0.0000 0.0000 0.0000 3.9644
#
#
#
# Elastic Compliance Matrix: (Units=1/GPa)
#
#
# Indices 1 2 3 4 5 6 
#
# 1 0.021360 -0.012029 -0.003756 0.000000 0.000000 0.000000
# 2 -0.012029 0.021360 -0.003756 0.000000 0.000000 0.000000
# 3 -0.003756 -0.003756 0.015829 0.000000 0.000000 0.000000
# 4 0.000000 0.000000 0.000000 0.129222 0.000000 0.000000
# 5 0.000000 0.000000 0.000000 0.000000 0.129222 0.000000
# 6 0.000000 0.000000 0.000000 0.000000 0.000000 0.252246
#
#
# Mechanical properties :
#
#
# Convention : Reuss Voigt Hill
#
# Bulk Modulus (GPa) = 51.37073 52.08921 51.72997
# Shear Modulus (GPa) = 8.13262 12.31437 10.22349
#
# Velocity S-wave (km/s) = 2.37597 2.92369 2.66395
# Velocity P-wave (km/s) = 6.57159 6.89600 6.73575
#
# Compressibility (1/GPa) = 0.01946634
#
# Stress axis : x y z
#
# Youngs Moduli (GPa) = 46.81757 46.81757 63.17687
#
# Poissons Ratio (x) = 0.56317 0.23728
# Poissons Ratio (y) = 0.56317 0.23728
# Poissons Ratio (z) = 0.17584 0.17584
#
# Static dielectric constant tensor:
#      x y z
#    x 2.845110 0.000000 0.000000 
#    y 0.000000 2.845110 0.000000 
#    z 0.000000 0.000000 2.833620 
# 
# 
# High freq. dielectric constant tensor:
#      x y z
#    x 1.529990 0.000000 0.000000 
#    y 0.000000 1.529990 0.000000 
#    z 0.000000 0.000000 1.522590 
# 
# From -- ./inp_files/1785.got.cif
#   From: 2010.03.12/outbox.cif.g09.slc.cpg/sg139_1_cif.got.tgz:1785.got - 2010.04.08 09:46:31.
