data_PCOD8319796
_publ_section_title
;
Structure prediction by ZEFSAII (Michael W. Deem and Ramdas Pophale) SiO2 
 PCOD8319796
Probable space group: I 4/M M M
;
_chemical_formula_sum "Si O2"
_cell_formula_units_Z 192
_cell_length_a 20.153290
_cell_length_b 20.153290
_cell_length_c 25.096540
_cell_angle_alpha 90.000000
_cell_angle_beta 90.000000
_cell_angle_gamma 90.000000
_cell_volume 10193.087659
_symmetry_space_group_name_H-M "I 4/M M M"
_symmetry_group_IT_number 139
_symmetry_cell_setting 'tetragonal'
loop_
_space_group_symop_operation_xyz
x,y,z
-y,x,z
-x,-y,z
y,-x,z
x,-y,-z
-x,y,-z
y,x,-z
-y,-x,-z
-x,-y,-z
y,-x,-z
x,y,-z
-y,x,-z
-x,y,z
x,-y,z
-y,-x,z
y,x,z
1/2+x,1/2+y,1/2+z
1/2-y,1/2+x,1/2+z
1/2-x,1/2-y,1/2+z
1/2+y,1/2-x,1/2+z
1/2+x,1/2-y,1/2-z
1/2-x,1/2+y,1/2-z
1/2+y,1/2+x,1/2-z
1/2-y,1/2-x,1/2-z
1/2-x,1/2-y,1/2-z
1/2+y,1/2-x,1/2-z
1/2+x,1/2+y,1/2-z
1/2-y,1/2+x,1/2-z
1/2-x,1/2+y,1/2+z
1/2+x,1/2-y,1/2+z
1/2-y,1/2-x,1/2+z
1/2+y,1/2+x,1/2+z
loop_
_atom_site_type_symbol
_atom_site_label
_atom_site_fract_x
_atom_site_fract_y
_atom_site_fract_z
Si Si1 0.394272 0.195903 0.559805
Si Si2 0.076511 0.711502 0.336211
Si Si3 0.316367 0.577199 0.246028
Si Si4 0.681548 0.574154 0.367683
Si Si5 0.076520 0.572936 0.627984
Si Si6 0.854473 0.746945 0.440668
O O1 0.418601 0.209859 0.500000
O O2 0.422124 0.253260 0.596868
O O3 0.423562 0.124231 0.576763
O O4 0.314663 0.196114 0.563683
O O5 0.108807 0.756671 0.289852
O O6 0.098060 0.633442 0.332457
O O7 0.090417 0.740965 0.394994
O O8 0.000000 0.716624 0.325101
O O9 0.329980 0.500000 0.233565
O O10 0.383934 0.616067 0.232356
O O11 0.296147 0.588922 0.307252
O O12 0.651507 0.500000 0.371982
O O13 0.625442 0.625442 0.387381
O O14 0.084357 0.500000 0.655546
O O15 0.000000 0.583461 0.609410
O O16 0.887363 0.747384 0.500000
O O17 0.813914 0.813914 0.431055
#
# Coordination Sequence:
#
# PCOD8319796 Si02
#       6
#    32  32  32  32  32  32
#     4  10  20  34  53  75  99 129 165 206 251 296
#     4   9  17  30  49  71  97 130 165 203 245 288
#     4   9  18  33  53  76 101 129 162 202 247 294
#     4  10  21  36  54  76 101 129 163 204 249 298
#     4   9  18  32  50  74 102 131 166 205 244 289
#     4   9  17  29  46  69  98 130 163 201 243 289
#
# _framework density 18.836293999999999
#
# number of rings (size 3 to 8) (size 9 to 14) (size 15 to 20)
#    0.000    2.667    0.000    1.500    0.000    3.333 
#    0.000    9.167    0.000   12.000    0.000    8.167 
#    0.000    0.000    0.000   15.500    0.000    0.500 
#
# Total GULP energy -1189627.074273 kJ/mol
# GULP energy per Si atom -12391.948690 kJ/mol
# Density = 1.879342 g / cm^3
# Si number density = 18.836294 Si / 1000 Ang^3
#
#
#
# Elastic Constant Matrix: (Units=GPa)
#
#
# Indices 1 2 3 4 5 6 
#
# 1 78.1518 47.5077 48.6662 0.0000 0.0000 0.0000
# 2 47.5077 78.1518 48.6662 0.0000 0.0000 0.0000
# 3 48.6662 48.6662 91.7154 0.0000 0.0000 0.0000
# 4 0.0000 0.0000 0.0000 22.6933 0.0000 0.0000
# 5 0.0000 0.0000 0.0000 0.0000 22.6933 0.0000
# 6 0.0000 0.0000 0.0000 0.0000 0.0000 22.6937
#
#
#
# Elastic Compliance Matrix: (Units=1/GPa)
#
#
# Indices 1 2 3 4 5 6 
#
# 1 0.023072 -0.009561 -0.007169 0.000000 0.000000 0.000000
# 2 -0.009561 0.023072 -0.007169 0.000000 0.000000 0.000000
# 3 -0.007169 -0.007169 0.018512 0.000000 0.000000 0.000000
# 4 0.000000 0.000000 0.000000 0.044066 0.000000 0.000000
# 5 0.000000 0.000000 0.000000 0.000000 0.044066 0.000000
# 6 0.000000 0.000000 0.000000 0.000000 0.000000 0.044065
#
#
# Mechanical properties :
#
#
# Convention : Reuss Voigt Hill
#
# Bulk Modulus (GPa) = 59.32344 59.74437 59.53391
# Shear Modulus (GPa) = 19.97842 20.49466 20.23654
#
# Velocity S-wave (km/s) = 3.26027 3.30213 3.28127
# Velocity P-wave (km/s) = 6.76277 6.80627 6.78455
#
# Compressibility (1/GPa) = 0.01685674
#
# Stress axis : x y z
#
# Youngs Moduli (GPa) = 43.34274 43.34274 54.01979
#
# Poissons Ratio (x) = 0.41439 0.38729
# Poissons Ratio (y) = 0.41439 0.38729
# Poissons Ratio (z) = 0.31074 0.31074
#
# Static dielectric constant tensor:
#      x y z
#    x 3.518580 0.000000 0.000000 
#    y 0.000000 3.518580 0.000000 
#    z 0.000000 0.000000 3.440330 
# 
# 
# High freq. dielectric constant tensor:
#      x y z
#    x 1.727820 0.000000 0.000000 
#    y 0.000000 1.727820 0.000000 
#    z 0.000000 0.000000 1.718650 
# 
# From -- ./inp_files/11918.got.cif
#   From: 2010.03.12/outbox.cif.g09.slc.cpg/sg139_6_cif.got.tgz:11918.got - 2010.04.08 09:46:31.
