data_PCOD8319106
_publ_section_title
;
Structure prediction by ZEFSAII (Michael W. Deem and Ramdas Pophale) SiO2 
 PCOD8319106
Probable space group: P 42/N C M
;
_chemical_formula_sum "Si O2"
_cell_formula_units_Z 48
_cell_length_a 11.613344
_cell_length_b 11.613344
_cell_length_c 14.926324
_cell_angle_alpha 90.000000
_cell_angle_beta 90.000000
_cell_angle_gamma 90.000000
_cell_volume 2013.109719
_symmetry_space_group_name_H-M "P 42/N C M"
_symmetry_group_IT_number 138
_space_group.IT_coordinate_system_code '2'
_symmetry_cell_setting 'tetragonal'
loop_
_space_group_symop_operation_xyz
x,y,z
1/2-y,x,1/2+z
1/2-x,1/2-y,z
y,1/2-x,1/2+z
1/2+x,-y,1/2-z
-x,1/2+y,1/2-z
1/2+y,1/2+x,-z
-y,-x,-z
-x,-y,-z
1/2+y,-x,1/2-z
1/2+x,1/2+y,-z
-y,1/2+x,1/2-z
1/2-x,y,1/2+z
x,1/2-y,1/2+z
1/2-y,1/2-x,z
y,x,z
loop_
_atom_site_type_symbol
_atom_site_label
_atom_site_fract_x
_atom_site_fract_y
_atom_site_fract_z
Si Si1 0.753047 0.934408 0.256116
Si Si2 0.384703 0.782066 0.611488
Si Si3 0.012521 0.304370 0.556407
O O1 0.631425 0.868576 0.247146
O O2 0.856152 0.856152 0.216820
O O3 0.780574 0.957738 0.360950
O O4 0.743343 0.055209 0.203434
O O5 0.250000 0.750000 0.610258
O O6 0.457136 0.731116 0.526150
O O7 0.394474 0.919362 0.597328
O O8 0.126122 0.373879 0.525068
#
# Coordination Sequence:
#
# PCOD8319106 Si02
#       3
#    16  16  16
#     4  10  23  42  67  99 132 176 229 278 336 403
#     4  11  23  39  64  95 133 174 221 273 338 398
#     4  10  21  39  63  91 129 179 225 273 331 393
#
# _framework density 23.843706999999998
#
# number of rings (size 3 to 8) (size 9 to 14) (size 15 to 20)
#    0.000    1.667    0.000    6.000    4.667    2.667 
#    0.000    3.333    0.000   12.000    0.000    0.000 
#    0.000    0.000    0.000    0.000    0.000    0.000 
#
# Total GULP energy -594789.294057 kJ/mol
# GULP energy per Si atom -12391.443626 kJ/mol
# Density = 2.378944 g / cm^3
# Si number density = 23.843707 Si / 1000 Ang^3
#
#
#
# Elastic Constant Matrix: (Units=GPa)
#
#
# Indices 1 2 3 4 5 6 
#
# 1 86.5664 40.9612 62.7954 0.0000 0.0000 0.0000
# 2 40.9612 86.5664 62.7954 0.0000 0.0000 0.0000
# 3 62.7954 62.7954 132.1777 0.0000 0.0000 0.0000
# 4 0.0000 0.0000 0.0000 42.1270 0.0000 0.0000
# 5 0.0000 0.0000 0.0000 0.0000 42.1270 0.0000
# 6 0.0000 0.0000 0.0000 0.0000 0.0000 28.3193
#
#
#
# Elastic Compliance Matrix: (Units=1/GPa)
#
#
# Indices 1 2 3 4 5 6 
#
# 1 0.018332 -0.003596 -0.007001 0.000000 0.000000 0.000000
# 2 -0.003596 0.018332 -0.007001 0.000000 0.000000 0.000000
# 3 -0.007001 -0.007001 0.014217 0.000000 0.000000 0.000000
# 4 0.000000 0.000000 0.000000 0.023738 0.000000 0.000000
# 5 0.000000 0.000000 0.000000 0.000000 0.023738 0.000000
# 6 0.000000 0.000000 0.000000 0.000000 0.000000 0.035312
#
#
# Mechanical properties :
#
#
# Convention : Reuss Voigt Hill
#
# Bulk Modulus (GPa) = 63.75048 70.93494 67.34271
# Shear Modulus (GPa) = 28.72062 31.76524 30.24293
#
# Velocity S-wave (km/s) = 3.47441 3.65393 3.56530
# Velocity P-wave (km/s) = 6.54906 6.90044 6.72705
#
# Compressibility (1/GPa) = 0.01568616
#
# Stress axis : x y z
#
# Youngs Moduli (GPa) = 54.55064 54.55064 70.33599
#
# Poissons Ratio (x) = 0.19615 0.49241
# Poissons Ratio (y) = 0.19615 0.49241
# Poissons Ratio (z) = 0.38190 0.38190
#
# Static dielectric constant tensor:
#      x y z
#    x 4.128510 0.000000 0.000000 
#    y 0.000000 4.128510 0.000000 
#    z 0.000000 0.000000 4.544180 
# 
# 
# High freq. dielectric constant tensor:
#      x y z
#    x 1.923580 0.000000 0.000000 
#    y 0.000000 1.923580 0.000000 
#    z 0.000000 0.000000 1.957280 
# 
# From -- ./inp_files/4725.got.cif
#   From: 2010.03.12/outbox.cif.g09.slc.cpg/sg138_3_cif.got.tgz:4725.got - 2010.04.08 09:41:05.
