data_PCOD8319101
_publ_section_title
;
Structure prediction by ZEFSAII (Michael W. Deem and Ramdas Pophale) SiO2 
 PCOD8319101
Probable space group: P 42/N C M
;
_chemical_formula_sum "Si O2"
_cell_formula_units_Z 80
_cell_length_a 12.177249
_cell_length_b 12.177249
_cell_length_c 27.736798
_cell_angle_alpha 90.000000
_cell_angle_beta 90.000000
_cell_angle_gamma 90.000000
_cell_volume 4112.961998
_symmetry_space_group_name_H-M "P 42/N C M"
_symmetry_group_IT_number 138
_space_group.IT_coordinate_system_code '2'
_symmetry_cell_setting 'tetragonal'
loop_
_space_group_symop_operation_xyz
x,y,z
1/2-y,x,1/2+z
1/2-x,1/2-y,z
y,1/2-x,1/2+z
1/2+x,-y,1/2-z
-x,1/2+y,1/2-z
1/2+y,1/2+x,-z
-y,-x,-z
-x,-y,-z
1/2+y,-x,1/2-z
1/2+x,1/2+y,-z
-y,1/2+x,1/2-z
1/2-x,y,1/2+z
x,1/2-y,1/2+z
1/2-y,1/2-x,z
y,x,z
loop_
_atom_site_type_symbol
_atom_site_label
_atom_site_fract_x
_atom_site_fract_y
_atom_site_fract_z
Si Si1 0.262069 0.550019 0.695000
Si Si2 0.532715 0.350138 0.356393
Si Si3 0.356018 0.675781 0.445411
Si Si4 0.927408 0.748523 0.400114
Si Si5 0.972173 0.149884 0.796493
O O1 0.363010 0.623299 0.676851
O O2 0.238256 0.454210 0.656540
O O3 0.157212 0.627774 0.701036
O O4 0.292899 0.495860 0.745979
O O5 0.438303 0.438303 0.347816
O O6 0.567622 0.348825 0.412303
O O7 0.490919 0.230703 0.339793
O O8 0.250000 0.750000 0.436408
O O9 0.364970 0.635031 0.500000
O O10 0.462640 0.748287 0.432103
O O11 0.856741 0.643260 0.416291
O O12 0.860482 0.860482 0.408884
O O13 0.036374 0.036374 0.802914
#
# Coordination Sequence:
#
# PCOD8319101 Si02
#       5
#    16  16  16  16  16
#     4  11  21  37  58  82 115 159 206 245 285 346
#     4  11  23  39  60  87 120 158 198 244 298 354
#     4  10  21  40  65  91 118 155 202 247 296 357
#     4  10  21  38  61  88 118 153 199 254 301 347
#     4  12  24  37  58  86 119 160 199 242 297 355
#
# _framework density 19.450704000000002
#
# number of rings (size 3 to 8) (size 9 to 14) (size 15 to 20)
#    0.000    1.200    2.000    7.200    0.000    2.800 
#    0.000    3.000    0.000    0.000    0.000    0.000 
#    0.000    0.000    0.000    0.000    0.000    0.000 
#
# Total GULP energy -992316.075073 kJ/mol
# GULP energy per Si atom -12403.950938 kJ/mol
# Density = 1.940643 g / cm^3
# Si number density = 19.450704 Si / 1000 Ang^3
#
#
#
# Elastic Constant Matrix: (Units=GPa)
#
#
# Indices 1 2 3 4 5 6 
#
# 1 113.0333 52.3431 43.2040 0.0000 0.0000 0.0000
# 2 52.3431 113.0335 43.2039 0.0000 0.0000 0.0000
# 3 43.2040 43.2039 109.3833 0.0000 0.0000 0.0000
# 4 0.0000 0.0000 0.0000 20.3541 0.0000 0.0000
# 5 0.0000 0.0000 0.0000 0.0000 20.3541 0.0000
# 6 0.0000 0.0000 0.0000 0.0000 0.0000 19.9613
#
#
#
# Elastic Compliance Matrix: (Units=1/GPa)
#
#
# Indices 1 2 3 4 5 6 
#
# 1 0.012048 -0.004429 -0.003009 0.000000 0.000000 0.000000
# 2 -0.004429 0.012048 -0.003009 0.000000 0.000000 0.000000
# 3 -0.003009 -0.003009 0.011519 0.000000 0.000000 0.000000
# 4 0.000000 0.000000 0.000000 0.049130 0.000000 0.000000
# 5 0.000000 0.000000 0.000000 0.000000 0.049130 0.000000
# 6 0.000000 0.000000 0.000000 0.000000 0.000000 0.050097
#
#
# Mechanical properties :
#
#
# Convention : Reuss Voigt Hill
#
# Bulk Modulus (GPa) = 67.93379 68.10579 68.01979
# Shear Modulus (GPa) = 23.83501 25.24717 24.54109
#
# Velocity S-wave (km/s) = 3.50438 3.60670 3.55591
# Velocity P-wave (km/s) = 7.16772 7.24120 7.20455
#
# Compressibility (1/GPa) = 0.01472021
#
# Stress axis : x y z
#
# Youngs Moduli (GPa) = 83.00018 83.00041 86.80960
#
# Poissons Ratio (x) = 0.36760 0.26125
# Poissons Ratio (y) = 0.36760 0.26124
# Poissons Ratio (z) = 0.24978 0.24978
#
# Static dielectric constant tensor:
#      x y z
#    x 3.484730 0.000000 0.000000 
#    y 0.000000 3.484730 0.000000 
#    z 0.000000 0.000000 3.630920 
# 
# 
# High freq. dielectric constant tensor:
#      x y z
#    x 1.756800 0.000000 0.000000 
#    y 0.000000 1.756800 0.000000 
#    z 0.000000 0.000000 1.751940 
# 
# From -- ./inp_files/7850.got.cif
#   From: 2010.03.12/outbox.cif.g09.slc.cpg/sg138_4_cif.got.tgz:7850.got - 2010.04.08 09:41:05.
