data_PCOD8319570
_publ_section_title
;
Structure prediction by ZEFSAII (Michael W. Deem and Ramdas Pophale) SiO2 
 PCOD8319570
Probable space group: I 4/M M M
;
_chemical_formula_sum "Si O2"
_cell_formula_units_Z 208
_cell_length_a 25.585781
_cell_length_b 25.585781
_cell_length_c 17.514919
_cell_angle_alpha 90.000000
_cell_angle_beta 90.000000
_cell_angle_gamma 90.000000
_cell_volume 11465.829772
_symmetry_space_group_name_H-M "I 4/M M M"
_symmetry_group_IT_number 139
_symmetry_cell_setting 'tetragonal'
loop_
_space_group_symop_operation_xyz
x,y,z
-y,x,z
-x,-y,z
y,-x,z
x,-y,-z
-x,y,-z
y,x,-z
-y,-x,-z
-x,-y,-z
y,-x,-z
x,y,-z
-y,x,-z
-x,y,z
x,-y,z
-y,-x,z
y,x,z
1/2+x,1/2+y,1/2+z
1/2-y,1/2+x,1/2+z
1/2-x,1/2-y,1/2+z
1/2+y,1/2-x,1/2+z
1/2+x,1/2-y,1/2-z
1/2-x,1/2+y,1/2-z
1/2+y,1/2+x,1/2-z
1/2-y,1/2-x,1/2-z
1/2-x,1/2-y,1/2-z
1/2+y,1/2-x,1/2-z
1/2+x,1/2+y,1/2-z
1/2-y,1/2+x,1/2-z
1/2-x,1/2+y,1/2+z
1/2+x,1/2-y,1/2+z
1/2-y,1/2-x,1/2+z
1/2+y,1/2+x,1/2+z
loop_
_atom_site_type_symbol
_atom_site_label
_atom_site_fract_x
_atom_site_fract_y
_atom_site_fract_z
Si Si1 0.355550 0.559959 0.000000
Si Si2 0.941010 0.291807 0.319933
Si Si3 0.738964 0.437859 0.414610
Si Si4 0.899592 0.816549 0.343120
Si Si5 0.940897 0.388229 0.412316
Si Si6 0.342917 0.939176 0.837355
Si Si7 0.060048 0.143563 0.189225
O O1 0.322293 0.573723 0.925286
O O2 0.370387 0.500000 0.000000
O O3 0.410123 0.589878 0.000000
O O4 0.899025 0.245074 0.324371
O O5 0.938206 0.326037 0.396762
O O6 0.926503 0.330443 0.250614
O O7 0.000000 0.268791 0.307936
O O8 0.727391 0.417430 0.500000
O O9 0.740697 0.500000 0.411588
O O10 0.795166 0.415555 0.387615
O O11 0.693542 0.418355 0.357759
O O12 0.840735 0.840735 0.343842
O O13 0.933645 0.846218 0.279346
O O14 0.927095 0.398967 0.500000
O O15 0.898852 0.416233 0.359310
O O16 0.000000 0.408246 0.393248
O O17 0.347318 0.000000 0.852864
O O18 0.093351 0.093351 0.163565
O O19 0.000000 0.131517 0.169888
#
# Coordination Sequence:
#
# PCOD8319570 Si02
#       7
#    16  32  32  32  32  32  32
#     4  10  20  31  48  76 108 144 183 225 277 335
#     4  10  19  34  56  79 106 143 186 228 269 319
#     4   9  17  30  50  75  99 132 181 228 269 313
#     4  10  20  34  54  80 107 139 182 232 282 326
#     4  10  22  36  52  82 115 143 177 216 269 333
#     4  10  19  34  57  80 107 143 180 221 268 319
#     4  10  19  32  50  74 106 141 179 226 278 333
#
# _framework density 18.140858999999999
#
# number of rings (size 3 to 8) (size 9 to 14) (size 15 to 20)
#    0.000    2.154    1.538    2.308    1.077    1.769 
#    0.000    0.769    0.000    8.308    0.000    2.154 
#    0.000    0.000    0.000    0.000    0.000    0.000 
#
# Total GULP energy -1289313.070282 kJ/mol
# GULP energy per Si atom -12397.241060 kJ/mol
# Density = 1.809957 g / cm^3
# Si number density = 18.140859 Si / 1000 Ang^3
#
#
#
# Elastic Constant Matrix: (Units=GPa)
#
#
# Indices 1 2 3 4 5 6 
#
# 1 102.2261 54.0260 39.9860 0.0000 0.0000 0.0000
# 2 54.0260 102.2258 39.9859 0.0000 0.0000 0.0000
# 3 39.9860 39.9859 99.1143 0.0000 0.0000 0.0000
# 4 0.0000 0.0000 0.0000 24.4601 0.0000 0.0000
# 5 0.0000 0.0000 0.0000 0.0000 24.4596 0.0000
# 6 0.0000 0.0000 0.0000 0.0000 0.0000 24.1402
#
#
#
# Elastic Compliance Matrix: (Units=1/GPa)
#
#
# Indices 1 2 3 4 5 6 
#
# 1 0.014406 -0.006341 -0.003254 0.000000 0.000000 0.000000
# 2 -0.006341 0.014406 -0.003254 0.000000 0.000000 0.000000
# 3 -0.003254 -0.003254 0.012715 0.000000 0.000000 0.000000
# 4 0.000000 0.000000 0.000000 0.040883 0.000000 0.000000
# 5 0.000000 0.000000 0.000000 0.000000 0.040884 0.000000
# 6 0.000000 0.000000 0.000000 0.000000 0.000000 0.041425
#
#
# Mechanical properties :
#
#
# Convention : Reuss Voigt Hill
#
# Bulk Modulus (GPa) = 63.17086 63.50691 63.33888
# Shear Modulus (GPa) = 25.55039 25.91653 25.73346
#
# Velocity S-wave (km/s) = 3.75700 3.78382 3.77043
# Velocity P-wave (km/s) = 7.32926 7.36026 7.34477
#
# Compressibility (1/GPa) = 0.01583008
#
# Stress axis : x y z
#
# Youngs Moduli (GPa) = 69.41522 69.41503 78.64894
#
# Poissons Ratio (x) = 0.44015 0.25591
# Poissons Ratio (y) = 0.44015 0.25591
# Poissons Ratio (z) = 0.22586 0.22586
#
# Static dielectric constant tensor:
#      x y z
#    x 3.208290 0.000000 0.000000 
#    y 0.000000 3.208290 0.000000 
#    z 0.000000 0.000000 3.561690 
# 
# 
# High freq. dielectric constant tensor:
#      x y z
#    x 1.682880 0.000000 0.000000 
#    y 0.000000 1.682880 0.000000 
#    z 0.000000 0.000000 1.718210 
# 
# From -- ./inp_files/8996.got.cif
#   From: 2010.03.12/outbox.cif.g09.slc.cpg/sg139_5_cif.got.tgz:8996.got - 2010.04.08 09:46:31.
