data_PCOD8319531
_publ_section_title
;
Structure prediction by ZEFSAII (Michael W. Deem and Ramdas Pophale) SiO2 
 PCOD8319531
Probable space group: I 4/M M M
;
_chemical_formula_sum "Si O2"
_cell_formula_units_Z 176
_cell_length_a 19.699772
_cell_length_b 19.699772
_cell_length_c 25.731752
_cell_angle_alpha 90.000000
_cell_angle_beta 90.000000
_cell_angle_gamma 90.000000
_cell_volume 9986.004482
_symmetry_space_group_name_H-M "I 4/M M M"
_symmetry_group_IT_number 139
_symmetry_cell_setting 'tetragonal'
loop_
_space_group_symop_operation_xyz
x,y,z
-y,x,z
-x,-y,z
y,-x,z
x,-y,-z
-x,y,-z
y,x,-z
-y,-x,-z
-x,-y,-z
y,-x,-z
x,y,-z
-y,x,-z
-x,y,z
x,-y,z
-y,-x,z
y,x,z
1/2+x,1/2+y,1/2+z
1/2-y,1/2+x,1/2+z
1/2-x,1/2-y,1/2+z
1/2+y,1/2-x,1/2+z
1/2+x,1/2-y,1/2-z
1/2-x,1/2+y,1/2-z
1/2+y,1/2+x,1/2-z
1/2-y,1/2-x,1/2-z
1/2-x,1/2-y,1/2-z
1/2+y,1/2-x,1/2-z
1/2+x,1/2+y,1/2-z
1/2-y,1/2+x,1/2-z
1/2-x,1/2+y,1/2+z
1/2+x,1/2-y,1/2+z
1/2-y,1/2-x,1/2+z
1/2+y,1/2+x,1/2+z
loop_
_atom_site_type_symbol
_atom_site_label
_atom_site_fract_x
_atom_site_fract_y
_atom_site_fract_z
Si Si1 0.261400 0.369442 0.904517
Si Si2 0.074305 0.309506 0.500000
Si Si3 0.216459 0.422403 0.702330
Si Si4 0.308828 0.421437 0.202819
Si Si5 0.243681 0.648611 0.597832
Si Si6 0.421206 0.188932 0.500000
Si Si7 0.923195 0.423195 0.250000
O O1 0.330357 0.330357 0.920092
O O2 0.272432 0.412304 0.852451
O O3 0.201778 0.316261 0.896509
O O4 0.239760 0.418679 0.950667
O O5 0.123135 0.373935 0.500000
O O6 0.000000 0.341733 0.500000
O O7 0.233752 0.500000 0.694314
O O8 0.254064 0.396558 0.754419
O O9 0.249133 0.386409 0.653291
O O10 0.134497 0.411750 0.706153
O O11 0.329444 0.500000 0.209970
O O12 0.376580 0.376580 0.207676
O O13 0.314216 0.685785 0.585096
O O14 0.231932 0.594744 0.551725
O O15 0.500000 0.167641 0.500000
O O16 0.914992 0.500000 0.226355
#
# Coordination Sequence:
#
# PCOD8319531 Si02
#       7
#    32  16  32  32  32  16  16
#     4   9  18  31  49  72  96 124 161 206 249 289
#     4  10  19  32  51  71  96 132 167 199 238 287
#     4  10  19  31  49  73 101 131 164 204 246 291
#     4  10  20  33  49  71  99 130 166 209 257 307
#     4  10  19  33  53  74  96 124 160 202 249 296
#     4  10  21  36  51  71 100 128 159 199 242 295
#     4   9  18  32  49  72 104 142 177 202 234 289
#
# _framework density 17.624666999999999
#
# number of rings (size 3 to 8) (size 9 to 14) (size 15 to 20)
#    0.000    2.273    0.000    3.273    0.000    2.545 
#    0.000    7.273    0.000    4.364    0.000    0.000 
#    0.000   20.364    0.000    0.000    0.000    0.000 
#
# Total GULP energy -1090904.857065 kJ/mol
# GULP energy per Si atom -12396.646103 kJ/mol
# Density = 1.758455 g / cm^3
# Si number density = 17.624667 Si / 1000 Ang^3
#
#
#
# Elastic Constant Matrix: (Units=GPa)
#
#
# Indices 1 2 3 4 5 6 
#
# 1 80.9834 41.3921 53.7041 0.0000 0.0000 0.0000
# 2 41.3921 80.9834 53.7041 0.0000 0.0000 0.0000
# 3 53.7041 53.7041 131.8754 0.0000 0.0000 0.0000
# 4 0.0000 0.0000 0.0000 22.6464 0.0000 0.0000
# 5 0.0000 0.0000 0.0000 0.0000 22.6464 0.0000
# 6 0.0000 0.0000 0.0000 0.0000 0.0000 9.8502
#
#
#
# Elastic Compliance Matrix: (Units=1/GPa)
#
#
# Indices 1 2 3 4 5 6 
#
# 1 0.018988 -0.006271 -0.005179 0.000000 0.000000 0.000000
# 2 -0.006271 0.018988 -0.005179 0.000000 0.000000 0.000000
# 3 -0.005179 -0.005179 0.011801 0.000000 0.000000 0.000000
# 4 0.000000 0.000000 0.000000 0.044157 0.000000 0.000000
# 5 0.000000 0.000000 0.000000 0.000000 0.044157 0.000000
# 6 0.000000 0.000000 0.000000 0.000000 0.000000 0.101520
#
#
# Mechanical properties :
#
#
# Convention : Reuss Voigt Hill
#
# Bulk Modulus (GPa) = 60.53393 65.71590 63.12491
# Shear Modulus (GPa) = 17.96148 20.69805 19.32977
#
# Velocity S-wave (km/s) = 3.19581 3.43064 3.31531
# Velocity P-wave (km/s) = 6.93097 7.28421 7.10978
#
# Compressibility (1/GPa) = 0.01651966
#
# Stress axis : x y z
#
# Youngs Moduli (GPa) = 52.66618 52.66618 84.73962
#
# Poissons Ratio (x) = 0.33025 0.43885
# Poissons Ratio (y) = 0.33025 0.43885
# Poissons Ratio (z) = 0.27275 0.27275
#
# Static dielectric constant tensor:
#      x y z
#    x 3.240770 0.000000 0.000000 
#    y 0.000000 3.240770 0.000000 
#    z 0.000000 0.000000 3.387710 
# 
# 
# High freq. dielectric constant tensor:
#      x y z
#    x 1.675860 0.000000 0.000000 
#    y 0.000000 1.675860 0.000000 
#    z 0.000000 0.000000 1.683950 
# 
# From -- ./inp_files/13173.got.cif
#   From: 2010.03.12/outbox.cif.g09.slc.cpg/sg139_7_cif.got.tgz:13173.got - 2010.04.08 09:46:31.
