data_PCOD8319630
_publ_section_title
;
Structure prediction by ZEFSAII (Michael W. Deem and Ramdas Pophale) SiO2 
 PCOD8319630
Probable space group: I 4/M M M
;
_chemical_formula_sum "Si O2"
_cell_formula_units_Z 192
_cell_length_a 17.287165
_cell_length_b 17.287165
_cell_length_c 33.506752
_cell_angle_alpha 90.000000
_cell_angle_beta 90.000000
_cell_angle_gamma 90.000000
_cell_volume 10013.361279
_symmetry_space_group_name_H-M "I 4/M M M"
_symmetry_group_IT_number 139
_symmetry_cell_setting 'tetragonal'
loop_
_space_group_symop_operation_xyz
x,y,z
-y,x,z
-x,-y,z
y,-x,z
x,-y,-z
-x,y,-z
y,x,-z
-y,-x,-z
-x,-y,-z
y,-x,-z
x,y,-z
-y,x,-z
-x,y,z
x,-y,z
-y,-x,z
y,x,z
1/2+x,1/2+y,1/2+z
1/2-y,1/2+x,1/2+z
1/2-x,1/2-y,1/2+z
1/2+y,1/2-x,1/2+z
1/2+x,1/2-y,1/2-z
1/2-x,1/2+y,1/2-z
1/2+y,1/2+x,1/2-z
1/2-y,1/2-x,1/2-z
1/2-x,1/2-y,1/2-z
1/2+y,1/2-x,1/2-z
1/2+x,1/2+y,1/2-z
1/2-y,1/2+x,1/2-z
1/2-x,1/2+y,1/2+z
1/2+x,1/2-y,1/2+z
1/2-y,1/2-x,1/2+z
1/2+y,1/2+x,1/2+z
loop_
_atom_site_type_symbol
_atom_site_label
_atom_site_fract_x
_atom_site_fract_y
_atom_site_fract_z
Si Si1 0.290325 0.587132 0.320867
Si Si2 0.700997 0.172339 0.115268
Si Si3 0.361787 0.088979 0.954566
Si Si4 0.123481 0.000000 0.452527
Si Si5 0.788325 0.587162 0.760891
Si Si6 0.500000 0.202778 0.953865
Si Si7 0.783509 0.091088 0.345375
O O1 0.301061 0.500000 0.335253
O O2 0.369413 0.630588 0.331257
O O3 0.218893 0.624539 0.344738
O O4 0.274860 0.593488 0.273904
O O5 0.767320 0.232681 0.104920
O O6 0.701891 0.112266 0.078058
O O7 0.620732 0.218757 0.123080
O O8 0.427945 0.149504 0.943148
O O9 0.389047 0.000000 0.948920
O O10 0.332043 0.101068 0.000000
O O11 0.077086 0.077086 0.438126
O O12 0.126497 0.000000 0.500000
O O13 0.210825 0.000000 0.433406
O O14 0.819996 0.500000 0.764946
O O15 0.860855 0.639146 0.750000
O O16 0.746621 0.612955 0.801353
O O17 0.500000 0.222316 0.000000
O O18 0.864550 0.135451 0.352185
O O19 0.797227 0.000000 0.351231
#
# Coordination Sequence:
#
# PCOD8319630 Si02
#       7
#    32  32  32  16  32  16  32
#     4  10  20  34  55  82 112 146 180 220 269 320
#     4  10  21  36  57  81 107 142 184 228 275 335
#     4  10  21  37  56  78 107 141 179 229 285 340
#     4   8  14  26  46  74 107 139 172 216 268 320
#     4  10  19  33  54  80 114 151 188 228 271 321
#     4   9  18  32  52  75  99 133 177 220 274 336
#     4  10  21  36  56  82 111 147 190 231 277 332
#
# _framework density 19.174379999999999
#
# number of rings (size 3 to 8) (size 9 to 14) (size 15 to 20)
#    0.000    2.250    1.667    1.500    1.167    3.167 
#    0.000    1.667    0.000    3.000    0.000    0.000 
#    0.000    0.000    0.000   15.500    0.000    0.167 
#
# Total GULP energy -1189879.415443 kJ/mol
# GULP energy per Si atom -12394.577244 kJ/mol
# Density = 1.913074 g / cm^3
# Si number density = 19.174380 Si / 1000 Ang^3
#
#
#
# Elastic Constant Matrix: (Units=GPa)
#
#
# Indices 1 2 3 4 5 6 
#
# 1 121.2038 57.5577 33.4151 0.0000 0.0000 0.0000
# 2 57.5577 121.2066 33.4145 0.0000 0.0000 0.0000
# 3 33.4151 33.4145 89.2134 0.0000 0.0000 0.0000
# 4 0.0000 0.0000 0.0000 24.0491 0.0000 0.0000
# 5 0.0000 0.0000 0.0000 0.0000 24.0491 0.0000
# 6 0.0000 0.0000 0.0000 0.0000 0.0000 23.3764
#
#
#
# Elastic Compliance Matrix: (Units=1/GPa)
#
#
# Indices 1 2 3 4 5 6 
#
# 1 0.011108 -0.004603 -0.002436 0.000000 0.000000 0.000000
# 2 -0.004603 0.011108 -0.002436 0.000000 0.000000 0.000000
# 3 -0.002436 -0.002436 0.013034 0.000000 0.000000 0.000000
# 4 0.000000 0.000000 0.000000 0.041582 0.000000 0.000000
# 5 0.000000 0.000000 0.000000 0.000000 0.041582 0.000000
# 6 0.000000 0.000000 0.000000 0.000000 0.000000 0.042778
#
#
# Mechanical properties :
#
#
# Convention : Reuss Voigt Hill
#
# Bulk Modulus (GPa) = 61.35605 64.48872 62.92238
# Shear Modulus (GPa) = 26.94301 28.11068 27.52684
#
# Velocity S-wave (km/s) = 3.75261 3.83306 3.79305
# Velocity P-wave (km/s) = 7.13054 7.30038 7.21596
#
# Compressibility (1/GPa) = 0.01629831
#
# Stress axis : x y z
#
# Youngs Moduli (GPa) = 90.02232 90.02501 76.72139
#
# Poissons Ratio (x) = 0.41442 0.18693
# Poissons Ratio (y) = 0.41441 0.18691
# Poissons Ratio (z) = 0.21934 0.21933
#
# Static dielectric constant tensor:
#      x y z
#    x 3.448460 0.000000 0.000000 
#    y 0.000000 3.448460 0.000000 
#    z 0.000000 0.000000 3.533930 
# 
# 
# High freq. dielectric constant tensor:
#      x y z
#    x 1.738600 0.000000 0.000000 
#    y 0.000000 1.738600 0.000000 
#    z 0.000000 0.000000 1.753370 
# 
# From -- ./inp_files/14377.got.cif
#   From: 2010.03.12/outbox.cif.g09.slc.cpg/sg139_8_cif.got.tgz:14377.got - 2010.04.08 09:46:31.
