data_PCOD8319690
_publ_section_title
;
Structure prediction by ZEFSAII (Michael W. Deem and Ramdas Pophale) SiO2 
 PCOD8319690
Probable space group: I 4/M M M
;
_chemical_formula_sum "Si O2"
_cell_formula_units_Z 192
_cell_length_a 29.993527
_cell_length_b 29.993527
_cell_length_c 15.340873
_cell_angle_alpha 90.000000
_cell_angle_beta 90.000000
_cell_angle_gamma 90.000000
_cell_volume 13800.828255
_symmetry_space_group_name_H-M "I 4/M M M"
_symmetry_group_IT_number 139
_symmetry_cell_setting 'tetragonal'
loop_
_space_group_symop_operation_xyz
x,y,z
-y,x,z
-x,-y,z
y,-x,z
x,-y,-z
-x,y,-z
y,x,-z
-y,-x,-z
-x,-y,-z
y,-x,-z
x,y,-z
-y,x,-z
-x,y,z
x,-y,z
-y,-x,z
y,x,z
1/2+x,1/2+y,1/2+z
1/2-y,1/2+x,1/2+z
1/2-x,1/2-y,1/2+z
1/2+y,1/2-x,1/2+z
1/2+x,1/2-y,1/2-z
1/2-x,1/2+y,1/2-z
1/2+y,1/2+x,1/2-z
1/2-y,1/2-x,1/2-z
1/2-x,1/2-y,1/2-z
1/2+y,1/2-x,1/2-z
1/2+x,1/2+y,1/2-z
1/2-y,1/2+x,1/2-z
1/2-x,1/2+y,1/2+z
1/2+x,1/2-y,1/2+z
1/2-y,1/2-x,1/2+z
1/2+y,1/2+x,1/2+z
loop_
_atom_site_type_symbol
_atom_site_label
_atom_site_fract_x
_atom_site_fract_y
_atom_site_fract_z
Si Si1 0.864614 0.719814 0.097850
Si Si2 0.642769 0.048271 0.401144
Si Si3 0.328486 0.950916 0.900783
Si Si4 0.247774 0.177830 0.261395
Si Si5 0.304545 0.133266 0.600321
Si Si6 0.924345 0.450184 0.344289
O O1 0.916324 0.710814 0.119468
O O2 0.847595 0.755472 0.168568
O O3 0.840199 0.672576 0.107429
O O4 0.857724 0.739176 0.000000
O O5 0.658329 0.045628 0.500000
O O6 0.671588 0.088825 0.360024
O O7 0.589524 0.056271 0.402458
O O8 0.653155 0.000000 0.355793
O O9 0.370821 0.944524 0.837335
O O10 0.307646 0.000000 0.888769
O O11 0.346009 0.943718 0.000000
O O12 0.199736 0.199736 0.282893
O O13 0.283856 0.216145 0.250000
O O14 0.261632 0.144625 0.339854
O O15 0.288783 0.127477 0.500000
O O16 0.935634 0.500000 0.381615
O O17 0.945785 0.445785 0.250000
#
# Coordination Sequence:
#
# PCOD8319690 Si02
#       6
#    32  32  32  32  32  32
#     4   9  16  27  43  60  78  98 120 150 189 231
#     4  10  20  32  44  56  71  96 128 159 197 240
#     4   9  17  29  44  58  71  94 128 159 190 230
#     4   9  18  29  42  60  77  95 117 144 186 237
#     4   9  17  29  43  58  76  97 123 154 189 231
#     4  11  22  31  39  53  72  94 125 164 201 237
#
# _framework density 13.912208
#
# number of rings (size 3 to 8) (size 9 to 14) (size 15 to 20)
#    0.000    2.500    1.667    1.000    2.333    2.833 
#    0.000    4.167    0.000    0.000    0.000    0.000 
#    0.000    0.000    0.000    0.000    0.000    0.000 
#
# Total GULP energy -1189546.609058 kJ/mol
# GULP energy per Si atom -12391.110511 kJ/mol
# Density = 1.388054 g / cm^3
# Si number density = 13.912208 Si / 1000 Ang^3
#
#
#
# Elastic Constant Matrix: (Units=GPa)
#
#
# Indices 1 2 3 4 5 6 
#
# 1 58.6772 45.5307 29.7560 0.0000 0.0000 0.0000
# 2 45.5307 58.6768 29.7557 0.0000 0.0000 0.0000
# 3 29.7560 29.7557 56.3459 0.0000 0.0000 0.0000
# 4 0.0000 0.0000 0.0000 16.2411 0.0000 0.0000
# 5 0.0000 0.0000 0.0000 0.0000 16.2411 0.0000
# 6 0.0000 0.0000 0.0000 0.0000 0.0000 20.8302
#
#
#
# Elastic Compliance Matrix: (Units=1/GPa)
#
#
# Indices 1 2 3 4 5 6 
#
# 1 0.044904 -0.031164 -0.007256 0.000000 0.000000 0.000000
# 2 -0.031164 0.044904 -0.007256 0.000000 0.000000 0.000000
# 3 -0.007256 -0.007256 0.025411 0.000000 0.000000 0.000000
# 4 0.000000 0.000000 0.000000 0.061572 0.000000 0.000000
# 5 0.000000 0.000000 0.000000 0.000000 0.061572 0.000000
# 6 0.000000 0.000000 0.000000 0.000000 0.000000 0.048007
#
#
# Mechanical properties :
#
#
# Convention : Reuss Voigt Hill
#
# Bulk Modulus (GPa) = 41.89846 42.64277 42.27061
# Shear Modulus (GPa) = 12.96422 15.23964 14.10193
#
# Velocity S-wave (km/s) = 3.05595 3.31330 3.18722
# Velocity P-wave (km/s) = 6.52943 6.73462 6.63282
#
# Compressibility (1/GPa) = 0.02386723
#
# Stress axis : x y z
#
# Youngs Moduli (GPa) = 22.26998 22.26990 39.35266
#
# Poissons Ratio (x) = 0.69401 0.28555
# Poissons Ratio (y) = 0.69401 0.28554
# Poissons Ratio (z) = 0.16159 0.16159
#
# Static dielectric constant tensor:
#      x y z
#    x 2.657390 0.000000 0.000000 
#    y 0.000000 2.657390 0.000000 
#    z 0.000000 0.000000 2.850740 
# 
# 
# High freq. dielectric constant tensor:
#      x y z
#    x 1.490600 0.000000 0.000000 
#    y 0.000000 1.490600 0.000000 
#    z 0.000000 0.000000 1.539430 
# 
# From -- ./inp_files/6623.got.cif
#   From: 2010.03.12/outbox.cif.g09.slc.cpg/sg139_4_cif.got.tgz:6623.got - 2010.04.08 09:46:31.
