data_PCOD8319102
_publ_section_title
;
Structure prediction by ZEFSAII (Michael W. Deem and Ramdas Pophale) SiO2 
 PCOD8319102
Probable space group: P 42/N C M
;
_chemical_formula_sum "Si O2"
_cell_formula_units_Z 48
_cell_length_a 12.646012
_cell_length_b 12.646012
_cell_length_c 12.227744
_cell_angle_alpha 90.000000
_cell_angle_beta 90.000000
_cell_angle_gamma 90.000000
_cell_volume 1955.480623
_symmetry_space_group_name_H-M "P 42/N C M"
_symmetry_group_IT_number 138
_space_group.IT_coordinate_system_code '2'
_symmetry_cell_setting 'tetragonal'
loop_
_space_group_symop_operation_xyz
x,y,z
1/2-y,x,1/2+z
1/2-x,1/2-y,z
y,1/2-x,1/2+z
1/2+x,-y,1/2-z
-x,1/2+y,1/2-z
1/2+y,1/2+x,-z
-y,-x,-z
-x,-y,-z
1/2+y,-x,1/2-z
1/2+x,1/2+y,-z
-y,1/2+x,1/2-z
1/2-x,y,1/2+z
x,1/2-y,1/2+z
1/2-y,1/2-x,z
y,x,z
loop_
_atom_site_type_symbol
_atom_site_label
_atom_site_fract_x
_atom_site_fract_y
_atom_site_fract_z
Si Si1 0.051367 0.618696 0.248816
Si Si2 0.247465 0.419778 0.406479
Si Si3 0.596754 0.274017 0.578354
O O1 0.974920 0.525081 0.290885
O O2 0.981975 0.716402 0.202012
O O3 0.125394 0.571784 0.154426
O O4 0.121965 0.668956 0.347967
O O5 0.132758 0.367243 0.383727
O O6 0.331284 0.331284 0.437674
O O7 0.241439 0.494269 0.511220
O O8 0.695698 0.304303 0.500000
#
# Coordination Sequence:
#
# PCOD8319102 Si02
#       3
#    16  16  16
#     4  10  21  38  62  92 125 162 204 250 302 362
#     4   9  18  34  59  92 125 157 198 249 304 361
#     4  10  21  39  62  86 122 164 204 250 305 361
#
# _framework density 24.546396000000001
#
# number of rings (size 3 to 8) (size 9 to 14) (size 15 to 20)
#    0.000    2.333    0.000    2.000    0.000    7.333 
#    0.000   15.000    0.000   10.000    0.000    0.000 
#    0.000    0.000    0.000    0.000    0.000    0.000 
#
# Total GULP energy -595002.266343 kJ/mol
# GULP energy per Si atom -12395.880549 kJ/mol
# Density = 2.449053 g / cm^3
# Si number density = 24.546396 Si / 1000 Ang^3
#
#
#
# Elastic Constant Matrix: (Units=GPa)
#
#
# Indices 1 2 3 4 5 6 
#
# 1 76.8547 74.8173 51.9035 0.0000 0.0000 0.0000
# 2 74.8173 76.8555 51.9025 0.0000 0.0000 0.0000
# 3 51.9035 51.9025 107.2984 0.0000 0.0000 0.0000
# 4 0.0000 0.0000 0.0000 33.0233 0.0000 0.0000
# 5 0.0000 0.0000 0.0000 0.0000 33.0236 0.0000
# 6 0.0000 0.0000 0.0000 0.0000 0.0000 52.7347
#
#
#
# Elastic Compliance Matrix: (Units=1/GPa)
#
#
# Indices 1 2 3 4 5 6 
#
# 1 0.250287 -0.240427 -0.004772 0.000000 0.000000 0.000000
# 2 -0.240427 0.250279 -0.004763 0.000000 0.000000 0.000000
# 3 -0.004772 -0.004763 0.013932 0.000000 0.000000 0.000000
# 4 0.000000 0.000000 0.000000 0.030282 0.000000 0.000000
# 5 0.000000 0.000000 0.000000 0.000000 0.030281 0.000000
# 6 0.000000 0.000000 0.000000 0.000000 0.000000 0.018963
#
#
# Mechanical properties :
#
#
# Convention : Reuss Voigt Hill
#
# Bulk Modulus (GPa) = 68.61562 68.69502 68.65532
# Shear Modulus (GPa) = 4.55039 29.24868 16.89954
#
# Velocity S-wave (km/s) = 1.36302 3.45565 2.62672
# Velocity P-wave (km/s) = 5.52189 6.63088 6.10163
#
# Compressibility (1/GPa) = 0.01457394
#
# Stress axis : x y z
#
# Youngs Moduli (GPa) = 3.99541 3.99555 71.77545
#
# Poissons Ratio (x) = 0.96064 0.34251
# Poissons Ratio (y) = 0.96060 0.34190
# Poissons Ratio (z) = 0.01907 0.01903
#
# Static dielectric constant tensor:
#      x y z
#    x 4.473940 0.000000 0.000000 
#    y 0.000000 4.473940 0.000000 
#    z 0.000000 0.000000 4.456820 
# 
# 
# High freq. dielectric constant tensor:
#      x y z
#    x 1.983350 0.000000 0.000000 
#    y 0.000000 1.983350 0.000000 
#    z 0.000000 0.000000 1.973140 
# 
# From -- ./inp_files/2275.got.cif
#   From: 2010.03.12/outbox.cif.g09.slc.cpg/sg138_2_cif.got.tgz:2275.got - 2010.04.08 09:41:05.
