data_PCOD8319466
_publ_section_title
;
Structure prediction by ZEFSAII (Michael W. Deem and Ramdas Pophale) SiO2 
 PCOD8319466
Probable space group: I 4/M M M
;
_chemical_formula_sum "Si O2"
_cell_formula_units_Z 160
_cell_length_a 21.014499
_cell_length_b 21.014499
_cell_length_c 20.777390
_cell_angle_alpha 90.000000
_cell_angle_beta 90.000000
_cell_angle_gamma 90.000000
_cell_volume 9175.485916
_symmetry_space_group_name_H-M "I 4/M M M"
_symmetry_group_IT_number 139
_symmetry_cell_setting 'tetragonal'
loop_
_space_group_symop_operation_xyz
x,y,z
-y,x,z
-x,-y,z
y,-x,z
x,-y,-z
-x,y,-z
y,x,-z
-y,-x,-z
-x,-y,-z
y,-x,-z
x,y,-z
-y,x,-z
-x,y,z
x,-y,z
-y,-x,z
y,x,z
1/2+x,1/2+y,1/2+z
1/2-y,1/2+x,1/2+z
1/2-x,1/2-y,1/2+z
1/2+y,1/2-x,1/2+z
1/2+x,1/2-y,1/2-z
1/2-x,1/2+y,1/2-z
1/2+y,1/2+x,1/2-z
1/2-y,1/2-x,1/2-z
1/2-x,1/2-y,1/2-z
1/2+y,1/2-x,1/2-z
1/2+x,1/2+y,1/2-z
1/2-y,1/2+x,1/2-z
1/2-x,1/2+y,1/2+z
1/2+x,1/2-y,1/2+z
1/2-y,1/2-x,1/2+z
1/2+y,1/2+x,1/2+z
loop_
_atom_site_type_symbol
_atom_site_label
_atom_site_fract_x
_atom_site_fract_y
_atom_site_fract_z
Si Si1 0.426508 0.143075 0.572762
Si Si2 0.120121 0.779439 0.927628
Si Si3 0.747890 0.154402 0.714927
Si Si4 0.864793 0.575140 0.814617
Si Si5 0.570739 0.330499 0.695823
O O1 0.415570 0.117560 0.500000
O O2 0.500000 0.163170 0.582477
O O3 0.381372 0.204021 0.586560
O O4 0.409068 0.088088 0.623505
O O5 0.192026 0.807975 0.917917
O O6 0.072199 0.816213 0.880405
O O7 0.095721 0.792082 0.000000
O O8 0.806362 0.193639 0.679674
O O9 0.705446 0.205446 0.750000
O O10 0.703639 0.109179 0.670575
O O11 0.774854 0.109372 0.770320
O O12 0.855465 0.500000 0.806154
O O13 0.896622 0.603379 0.750000
O O14 0.500000 0.331592 0.722896
O O15 0.600946 0.399054 0.710860
#
# Coordination Sequence:
#
# PCOD8319466 Si02
#       5
#    32  32  32  32  32
#     4  10  21  35  50  69  96 131 165 196 235 285
#     4   9  17  29  46  67  89 117 158 205 248 286
#     4   9  18  32  50  71  92 114 145 190 242 286
#     4  11  22  34  51  74  98 126 162 201 238 279
#     4  10  19  30  45  65  92 125 157 192 235 282
#
# _framework density 17.437768999999999
#
# number of rings (size 3 to 8) (size 9 to 14) (size 15 to 20)
#    0.000    2.200    0.000    4.200    0.000    5.600 
#    0.000    1.000    0.000    0.000    0.000    2.800 
#    0.000    0.000    0.000    0.000    0.000    0.000 
#
# Total GULP energy -991295.010045 kJ/mol
# GULP energy per Si atom -12391.187626 kJ/mol
# Density = 1.739808 g / cm^3
# Si number density = 17.437769 Si / 1000 Ang^3
#
#
#
# Elastic Constant Matrix: (Units=GPa)
#
#
# Indices 1 2 3 4 5 6 
#
# 1 105.4825 53.1634 33.5467 0.0000 0.0000 0.0000
# 2 53.1634 105.4816 33.5469 0.0000 0.0000 0.0000
# 3 33.5467 33.5469 65.6449 0.0000 0.0000 0.0000
# 4 0.0000 0.0000 0.0000 20.2432 0.0000 0.0000
# 5 0.0000 0.0000 0.0000 0.0000 20.2434 0.0000
# 6 0.0000 0.0000 0.0000 0.0000 0.0000 17.5981
#
#
#
# Elastic Compliance Matrix: (Units=1/GPa)
#
#
# Indices 1 2 3 4 5 6 
#
# 1 0.013577 -0.005536 -0.004109 0.000000 0.000000 0.000000
# 2 -0.005536 0.013578 -0.004109 0.000000 0.000000 0.000000
# 3 -0.004109 -0.004109 0.019434 0.000000 0.000000 0.000000
# 4 0.000000 0.000000 0.000000 0.049399 0.000000 0.000000
# 5 0.000000 0.000000 0.000000 0.000000 0.049399 0.000000
# 6 0.000000 0.000000 0.000000 0.000000 0.000000 0.056824
#
#
# Mechanical properties :
#
#
# Convention : Reuss Voigt Hill
#
# Bulk Modulus (GPa) = 52.41471 57.45812 54.93642
# Shear Modulus (GPa) = 21.17925 22.04041 21.60983
#
# Velocity S-wave (km/s) = 3.48884 3.55906 3.52412
# Velocity P-wave (km/s) = 6.80828 7.06478 6.93772
#
# Compressibility (1/GPa) = 0.01907861
#
# Stress axis : x y z
#
# Youngs Moduli (GPa) = 73.65192 73.65099 51.45742
#
# Poissons Ratio (x) = 0.40775 0.21145
# Poissons Ratio (y) = 0.40775 0.21146
# Poissons Ratio (z) = 0.30266 0.30266
#
# Static dielectric constant tensor:
#      x y z
#    x 3.386430 0.000000 0.000000 
#    y 0.000000 3.386430 0.000000 
#    z 0.000000 0.000000 3.125740 
# 
# 
# High freq. dielectric constant tensor:
#      x y z
#    x 1.669910 0.000000 0.000000 
#    y 0.000000 1.669910 0.000000 
#    z 0.000000 0.000000 1.648820 
# 
# From -- ./inp_files/8398.got.cif
#   From: 2010.03.12/outbox.cif.g09.slc.cpg/sg139_5_cif.got.tgz:8398.got - 2010.04.08 09:46:31.
