data_PCOD8319816
_publ_section_title
;
Structure prediction by ZEFSAII (Michael W. Deem and Ramdas Pophale) SiO2 
 PCOD8319816
Probable space group: I 4/M M M
;
_chemical_formula_sum "Si O2"
_cell_formula_units_Z 240
_cell_length_a 21.464559
_cell_length_b 21.464559
_cell_length_c 25.989515
_cell_angle_alpha 90.000000
_cell_angle_beta 90.000000
_cell_angle_gamma 90.000000
_cell_volume 11974.078894
_symmetry_space_group_name_H-M "I 4/M M M"
_symmetry_group_IT_number 139
_symmetry_cell_setting 'tetragonal'
loop_
_space_group_symop_operation_xyz
x,y,z
-y,x,z
-x,-y,z
y,-x,z
x,-y,-z
-x,y,-z
y,x,-z
-y,-x,-z
-x,-y,-z
y,-x,-z
x,y,-z
-y,x,-z
-x,y,z
x,-y,z
-y,-x,z
y,x,z
1/2+x,1/2+y,1/2+z
1/2-y,1/2+x,1/2+z
1/2-x,1/2-y,1/2+z
1/2+y,1/2-x,1/2+z
1/2+x,1/2-y,1/2-z
1/2-x,1/2+y,1/2-z
1/2+y,1/2+x,1/2-z
1/2-y,1/2-x,1/2-z
1/2-x,1/2-y,1/2-z
1/2+y,1/2-x,1/2-z
1/2+x,1/2+y,1/2-z
1/2-y,1/2+x,1/2-z
1/2-x,1/2+y,1/2+z
1/2+x,1/2-y,1/2+z
1/2-y,1/2-x,1/2+z
1/2+y,1/2+x,1/2+z
loop_
_atom_site_type_symbol
_atom_site_label
_atom_site_fract_x
_atom_site_fract_y
_atom_site_fract_z
Si Si1 0.106211 0.794932 0.718978
Si Si2 0.070486 0.829771 0.168128
Si Si3 0.425835 0.068236 0.500000
Si Si4 0.329390 0.570929 0.110153
Si Si5 0.764786 0.664161 0.635462
Si Si6 0.264234 0.159847 0.442633
Si Si7 0.652428 0.121373 0.697823
Si Si8 0.927186 0.568757 0.609390
O O1 0.177155 0.822846 0.721450
O O2 0.072060 0.807878 0.772661
O O3 0.070620 0.828929 0.672196
O O4 0.100606 0.722808 0.705256
O O5 0.103254 0.896747 0.162796
O O6 0.104617 0.780587 0.129644
O O7 0.000000 0.836044 0.149097
O O8 0.500000 0.062732 0.500000
O O9 0.407018 0.101974 0.445677
O O10 0.394442 0.000000 0.500000
O O11 0.335263 0.500000 0.089901
O O12 0.388954 0.611047 0.090329
O O13 0.265378 0.601529 0.088081
O O14 0.725708 0.725708 0.646778
O O15 0.811566 0.675809 0.587538
O O16 0.805042 0.651265 0.686190
O O17 0.285656 0.138863 0.500000
O O18 0.213304 0.213304 0.447275
O O19 0.612655 0.112655 0.750000
O O20 0.619314 0.083228 0.653106
O O21 0.899573 0.500000 0.624210
O O22 0.000000 0.561188 0.600369
#
# Coordination Sequence:
#
# PCOD8319816 Si02
#       8
#    32  32  16  32  32  32  32  32
#     4  10  20  36  56  79 111 149 191 237 287 340
#     4  10  21  36  58  86 117 153 189 231 282 343
#     4   7  12  32  62  76  89 132 188 236 277 330
#     4  10  20  34  54  80 114 155 199 249 301 352
#     4  10  20  37  58  81 108 143 188 235 285 341
#     4   9  18  35  59  83 109 144 186 237 299 355
#     4  12  22  33  52  82 110 148 185 239 287 348
#     4   9  20  38  56  76 105 144 190 235 287 347
#
# _framework density 20.043296000000002
#
# number of rings (size 3 to 8) (size 9 to 14) (size 15 to 20)
#    0.000    2.200    2.667    1.600    0.000    3.200 
#    1.200    0.667    0.000    2.800    0.000    1.867 
#    0.000    0.000    0.000    5.333    0.000    0.000 
#
# Total GULP energy -1486803.131009 kJ/mol
# GULP energy per Si atom -12390.026092 kJ/mol
# Density = 1.999768 g / cm^3
# Si number density = 20.043296 Si / 1000 Ang^3
#
#
#
# Elastic Constant Matrix: (Units=GPa)
#
#
# Indices 1 2 3 4 5 6 
#
# 1 95.5898 42.1383 39.9247 0.0000 0.0000 0.0000
# 2 42.1383 95.5898 39.9247 0.0000 0.0000 0.0000
# 3 39.9247 39.9247 116.2388 0.0000 0.0000 0.0000
# 4 0.0000 0.0000 0.0000 22.0976 0.0000 0.0000
# 5 0.0000 0.0000 0.0000 0.0000 22.0976 0.0000
# 6 0.0000 0.0000 0.0000 0.0000 0.0000 20.3512
#
#
#
# Elastic Compliance Matrix: (Units=1/GPa)
#
#
# Indices 1 2 3 4 5 6 
#
# 1 0.013887 -0.004821 -0.003114 0.000000 0.000000 0.000000
# 2 -0.004821 0.013887 -0.003114 0.000000 0.000000 0.000000
# 3 -0.003114 -0.003114 0.010742 0.000000 0.000000 0.000000
# 4 0.000000 0.000000 0.000000 0.045254 0.000000 0.000000
# 5 0.000000 0.000000 0.000000 0.000000 0.045254 0.000000
# 6 0.000000 0.000000 0.000000 0.000000 0.000000 0.049137
#
#
# Mechanical properties :
#
#
# Convention : Reuss Voigt Hill
#
# Bulk Modulus (GPa) = 60.90720 61.26598 61.08659
# Shear Modulus (GPa) = 24.30339 25.27130 24.78734
#
# Velocity S-wave (km/s) = 3.48594 3.55468 3.52048
# Velocity P-wave (km/s) = 6.83053 6.89063 6.86065
#
# Compressibility (1/GPa) = 0.01641842
#
# Stress axis : x y z
#
# Youngs Moduli (GPa) = 72.00832 72.00832 93.09204
#
# Poissons Ratio (x) = 0.34717 0.28988
# Poissons Ratio (y) = 0.34717 0.28988
# Poissons Ratio (z) = 0.22423 0.22423
#
# Static dielectric constant tensor:
#      x y z
#    x 3.476260 0.000000 0.000000 
#    y 0.000000 3.476260 0.000000 
#    z 0.000000 0.000000 3.883310 
# 
# 
# High freq. dielectric constant tensor:
#      x y z
#    x 1.765950 0.000000 0.000000 
#    y 0.000000 1.765950 0.000000 
#    z 0.000000 0.000000 1.777720 
# 
# From -- ./inp_files/13397.got.cif
#   From: 2010.03.12/outbox.cif.g09.slc.cpg/sg139_7_cif.got.tgz:13397.got - 2010.04.08 09:46:31.
