data_PCOD8319075
_publ_section_title
;
Structure prediction by ZEFSAII (Michael W. Deem and Ramdas Pophale) SiO2 
 PCOD8319075
Probable space group: P 42/N C M
;
_chemical_formula_sum "Si O2"
_cell_formula_units_Z 80
_cell_length_a 12.427678
_cell_length_b 12.427678
_cell_length_c 27.717635
_cell_angle_alpha 90.000000
_cell_angle_beta 90.000000
_cell_angle_gamma 90.000000
_cell_volume 4280.910575
_symmetry_space_group_name_H-M "P 42/N C M"
_symmetry_group_IT_number 138
_space_group.IT_coordinate_system_code '2'
_symmetry_cell_setting 'tetragonal'
loop_
_space_group_symop_operation_xyz
x,y,z
1/2-y,x,1/2+z
1/2-x,1/2-y,z
y,1/2-x,1/2+z
1/2+x,-y,1/2-z
-x,1/2+y,1/2-z
1/2+y,1/2+x,-z
-y,-x,-z
-x,-y,-z
1/2+y,-x,1/2-z
1/2+x,1/2+y,-z
-y,1/2+x,1/2-z
1/2-x,y,1/2+z
x,1/2-y,1/2+z
1/2-y,1/2-x,z
y,x,z
loop_
_atom_site_type_symbol
_atom_site_label
_atom_site_fract_x
_atom_site_fract_y
_atom_site_fract_z
Si Si1 0.237039 0.873267 0.876088
Si Si2 0.887920 0.065246 0.445804
Si Si3 0.494886 0.828384 0.402348
Si Si4 0.192807 0.021582 0.207351
Si Si5 0.480983 0.848415 0.710905
O O1 0.250000 0.750000 0.858965
O O2 0.332528 0.905824 0.911537
O O3 0.241027 0.952051 0.829556
O O4 0.121193 0.887502 0.902321
O O5 0.892397 0.107604 0.500000
O O6 0.772411 0.007687 0.438638
O O7 0.981143 0.981143 0.434128
O O8 0.586063 0.913938 0.418511
O O9 0.520142 0.780345 0.349375
O O10 0.129510 0.129510 0.220859
O O11 0.300107 0.020857 0.238742
O O12 0.125213 0.916821 0.221683
O O13 0.573657 0.926344 0.689950
#
# Coordination Sequence:
#
# PCOD8319075 Si02
#       5
#    16  16  16  16  16
#     4   9  19  35  56  82 109 143 184 232 274 327
#     4  10  22  39  58  84 115 145 183 232 285 342
#     4   9  19  38  60  82 109 144 188 237 280 327
#     4   9  20  34  51  78 110 144 184 225 269 322
#     4  10  21  34  51  78 112 146 183 225 269 326
#
# _framework density 18.687612000000001
#
# number of rings (size 3 to 8) (size 9 to 14) (size 15 to 20)
#    0.000    2.600    0.000    1.800    8.400    6.000 
#    0.000    5.000    0.000    4.200    0.000    0.000 
#    0.000    0.000    0.000    0.000    0.000    0.000 
#
# Total GULP energy -991901.613048 kJ/mol
# GULP energy per Si atom -12398.770163 kJ/mol
# Density = 1.864508 g / cm^3
# Si number density = 18.687612 Si / 1000 Ang^3
#
#
#
# Elastic Constant Matrix: (Units=GPa)
#
#
# Indices 1 2 3 4 5 6 
#
# 1 91.2309 55.1083 54.2465 0.0000 0.0000 0.0000
# 2 55.1083 91.2310 54.2463 0.0000 0.0000 0.0000
# 3 54.2465 54.2463 77.1135 0.0000 0.0000 0.0000
# 4 0.0000 0.0000 0.0000 28.4814 0.0000 0.0000
# 5 0.0000 0.0000 0.0000 0.0000 28.4812 0.0000
# 6 0.0000 0.0000 0.0000 0.0000 0.0000 24.4448
#
#
#
# Elastic Compliance Matrix: (Units=1/GPa)
#
#
# Indices 1 2 3 4 5 6 
#
# 1 0.020983 -0.006701 -0.010047 0.000000 0.000000 0.000000
# 2 -0.006701 0.020983 -0.010047 0.000000 0.000000 0.000000
# 3 -0.010047 -0.010047 0.027103 0.000000 0.000000 0.000000
# 4 0.000000 0.000000 0.000000 0.035111 0.000000 0.000000
# 5 0.000000 0.000000 0.000000 0.000000 0.035111 0.000000
# 6 0.000000 0.000000 0.000000 0.000000 0.000000 0.040909
#
#
# Mechanical properties :
#
#
# Convention : Reuss Voigt Hill
#
# Bulk Modulus (GPa) = 64.60095 65.19752 64.89923
# Shear Modulus (GPa) = 20.92516 22.67977 21.80246
#
# Velocity S-wave (km/s) = 3.34987 3.48749 3.41938
# Velocity P-wave (km/s) = 7.04316 7.15406 7.09883
#
# Compressibility (1/GPa) = 0.01547965
#
# Stress axis : x y z
#
# Youngs Moduli (GPa) = 47.65821 47.65854 36.89637
#
# Poissons Ratio (x) = 0.31935 0.37069
# Poissons Ratio (y) = 0.31935 0.37069
# Poissons Ratio (z) = 0.47882 0.47881
#
# Static dielectric constant tensor:
#      x y z
#    x 3.450260 0.000000 0.000000 
#    y 0.000000 3.450260 0.000000 
#    z 0.000000 0.000000 3.306090 
# 
# 
# High freq. dielectric constant tensor:
#      x y z
#    x 1.723940 0.000000 0.000000 
#    y 0.000000 1.723940 0.000000 
#    z 0.000000 0.000000 1.710110 
# 
# From -- ./inp_files/7875.got.cif
#   From: 2010.03.12/outbox.cif.g09.slc.cpg/sg138_4_cif.got.tgz:7875.got - 2010.04.08 09:41:05.
