data_PCOD8319878
_publ_section_title
;
Structure prediction by ZEFSAII (Michael W. Deem and Ramdas Pophale) SiO2 
 PCOD8319878
Probable space group: I 4/M M M
;
_chemical_formula_sum "Si O2"
_cell_formula_units_Z 176
_cell_length_a 24.564263
_cell_length_b 24.564263
_cell_length_c 14.203996
_cell_angle_alpha 90.000000
_cell_angle_beta 90.000000
_cell_angle_gamma 90.000000
_cell_volume 8570.734036
_symmetry_space_group_name_H-M "I 4/M M M"
_symmetry_group_IT_number 139
_symmetry_cell_setting 'tetragonal'
loop_
_space_group_symop_operation_xyz
x,y,z
-y,x,z
-x,-y,z
y,-x,z
x,-y,-z
-x,y,-z
y,x,-z
-y,-x,-z
-x,-y,-z
y,-x,-z
x,y,-z
-y,x,-z
-x,y,z
x,-y,z
-y,-x,z
y,x,z
1/2+x,1/2+y,1/2+z
1/2-y,1/2+x,1/2+z
1/2-x,1/2-y,1/2+z
1/2+y,1/2-x,1/2+z
1/2+x,1/2-y,1/2-z
1/2-x,1/2+y,1/2-z
1/2+y,1/2+x,1/2-z
1/2-y,1/2-x,1/2-z
1/2-x,1/2-y,1/2-z
1/2+y,1/2-x,1/2-z
1/2+x,1/2+y,1/2-z
1/2-y,1/2+x,1/2-z
1/2-x,1/2+y,1/2+z
1/2+x,1/2-y,1/2+z
1/2-y,1/2-x,1/2+z
1/2+y,1/2+x,1/2+z
loop_
_atom_site_type_symbol
_atom_site_label
_atom_site_fract_x
_atom_site_fract_y
_atom_site_fract_z
Si Si1 0.682297 0.597846 0.000000
Si Si2 0.738397 0.353437 0.500000
Si Si3 0.150534 0.940075 0.310116
Si Si4 0.564065 0.060437 0.104818
Si Si5 0.438398 0.745361 0.330195
Si Si6 0.168913 0.395051 0.809848
Si Si7 0.288721 0.848410 0.500000
O O1 0.687303 0.562502 0.094990
O O2 0.723567 0.649037 0.000000
O O3 0.621656 0.621656 0.000000
O O4 0.681135 0.318866 0.500000
O O5 0.746356 0.392432 0.589654
O O6 0.786919 0.309504 0.500000
O O7 0.102314 0.897686 0.307491
O O8 0.188822 0.928237 0.221982
O O9 0.124797 0.000000 0.302769
O O10 0.500000 0.062242 0.096802
O O11 0.582731 0.107689 0.174488
O O12 0.582245 0.000000 0.141957
O O13 0.589261 0.069559 0.000000
O O14 0.500000 0.747851 0.372260
O O15 0.434266 0.794410 0.254684
O O16 0.160899 0.339102 0.750000
O O17 0.194671 0.383281 0.909756
#
# Coordination Sequence:
#
# PCOD8319878 Si02
#       7
#    16  16  32  32  32  32  16
#     4  10  20  37  62  90 124 163 200 250 309 375
#     4  12  26  47  69  94 128 170 218 275 339 401
#     4  10  21  38  62  94 130 168 209 255 316 390
#     4   9  19  36  57  83 117 164 218 266 316 369
#     4  11  24  43  67  97 129 168 217 274 334 395
#     4  12  23  40  61  91 129 164 217 267 325 386
#     4  12  23  42  60  94 128 165 214 261 319 394
#
# _framework density 20.534997000000001
#
# number of rings (size 3 to 8) (size 9 to 14) (size 15 to 20)
#    0.000    1.273    4.545    2.455    0.000    1.636 
#    0.000    1.818    0.000    1.636    0.000    0.000 
#    0.000    6.545    0.000    0.000    0.000    0.000 
#
# Total GULP energy -1090304.219906 kJ/mol
# GULP energy per Si atom -12389.820681 kJ/mol
# Density = 2.048826 g / cm^3
# Si number density = 20.534997 Si / 1000 Ang^3
#
#
#
# Elastic Constant Matrix: (Units=GPa)
#
#
# Indices 1 2 3 4 5 6 
#
# 1 105.6884 55.2634 45.3262 0.0000 0.0000 0.0000
# 2 55.2634 105.6867 45.3253 0.0000 0.0000 0.0000
# 3 45.3262 45.3253 114.3753 0.0000 0.0000 0.0000
# 4 0.0000 0.0000 0.0000 23.0748 0.0000 0.0000
# 5 0.0000 0.0000 0.0000 0.0000 23.0759 0.0000
# 6 0.0000 0.0000 0.0000 0.0000 0.0000 30.1800
#
#
#
# Elastic Compliance Matrix: (Units=1/GPa)
#
#
# Indices 1 2 3 4 5 6 
#
# 1 0.013915 -0.005917 -0.003170 0.000000 0.000000 0.000000
# 2 -0.005917 0.013915 -0.003170 0.000000 0.000000 0.000000
# 3 -0.003170 -0.003170 0.011255 0.000000 0.000000 0.000000
# 4 0.000000 0.000000 0.000000 0.043337 0.000000 0.000000
# 5 0.000000 0.000000 0.000000 0.000000 0.043335 0.000000
# 6 0.000000 0.000000 0.000000 0.000000 0.000000 0.033135
#
#
# Mechanical properties :
#
#
# Convention : Reuss Voigt Hill
#
# Bulk Modulus (GPa) = 68.61837 68.62003 68.61920
# Shear Modulus (GPa) = 26.55869 27.25518 26.90693
#
# Velocity S-wave (km/s) = 3.60020 3.64710 3.62373
# Velocity P-wave (km/s) = 7.12529 7.15708 7.14121
#
# Compressibility (1/GPa) = 0.01457336
#
# Stress axis : x y z
#
# Youngs Moduli (GPa) = 71.86516 71.86441 88.84670
#
# Poissons Ratio (x) = 0.42520 0.28162
# Poissons Ratio (y) = 0.42521 0.28161
# Poissons Ratio (z) = 0.22779 0.22778
#
# Static dielectric constant tensor:
#      x y z
#    x 3.645450 0.000000 0.000000 
#    y 0.000000 3.645450 0.000000 
#    z 0.000000 0.000000 4.895690 
# 
# 
# High freq. dielectric constant tensor:
#      x y z
#    x 1.796080 0.000000 0.000000 
#    y 0.000000 1.796080 0.000000 
#    z 0.000000 0.000000 1.820090 
# 
# From -- ./inp_files/6172.got.cif
#   From: 2010.03.12/outbox.cif.g09.slc.cpg/sg139_4_cif.got.tgz:6172.got - 2010.04.08 09:46:31.
