data_PCOD8319389
_publ_section_title
;
Structure prediction by ZEFSAII (Michael W. Deem and Ramdas Pophale) SiO2 
 PCOD8319389
Probable space group: I 4/M M M
;
_chemical_formula_sum "Si O2"
_cell_formula_units_Z 160
_cell_length_a 17.960942
_cell_length_b 17.960942
_cell_length_c 27.571776
_cell_angle_alpha 90.000000
_cell_angle_beta 90.000000
_cell_angle_gamma 90.000000
_cell_volume 8894.529142
_symmetry_space_group_name_H-M "I 4/M M M"
_symmetry_group_IT_number 139
_symmetry_cell_setting 'tetragonal'
loop_
_space_group_symop_operation_xyz
x,y,z
-y,x,z
-x,-y,z
y,-x,z
x,-y,-z
-x,y,-z
y,x,-z
-y,-x,-z
-x,-y,-z
y,-x,-z
x,y,-z
-y,x,-z
-x,y,z
x,-y,z
-y,-x,z
y,x,z
1/2+x,1/2+y,1/2+z
1/2-y,1/2+x,1/2+z
1/2-x,1/2-y,1/2+z
1/2+y,1/2-x,1/2+z
1/2+x,1/2-y,1/2-z
1/2-x,1/2+y,1/2-z
1/2+y,1/2+x,1/2-z
1/2-y,1/2-x,1/2-z
1/2-x,1/2-y,1/2-z
1/2+y,1/2-x,1/2-z
1/2+x,1/2+y,1/2-z
1/2-y,1/2+x,1/2-z
1/2-x,1/2+y,1/2+z
1/2+x,1/2-y,1/2+z
1/2-y,1/2-x,1/2+z
1/2+y,1/2+x,1/2+z
loop_
_atom_site_type_symbol
_atom_site_label
_atom_site_fract_x
_atom_site_fract_y
_atom_site_fract_z
Si Si1 0.585194 0.795705 0.605968
Si Si2 0.236792 0.356162 0.784048
Si Si3 0.687452 0.312549 0.445701
Si Si4 0.199702 0.918117 0.192993
Si Si5 0.812460 0.187541 0.555453
Si Si6 0.206693 0.413401 0.888473
O O1 0.500000 0.811971 0.590979
O O2 0.613472 0.721169 0.578781
O O3 0.593205 0.777091 0.663363
O O4 0.633960 0.868402 0.592982
O O5 0.281799 0.281799 0.800707
O O6 0.167596 0.332405 0.750000
O O7 0.287592 0.408688 0.750393
O O8 0.213573 0.402660 0.830812
O O9 0.665907 0.334094 0.500000
O O10 0.750112 0.249889 0.443105
O O11 0.140537 0.859464 0.172779
O O12 0.167403 0.000000 0.183298
O O13 0.833613 0.166388 0.500000
O O14 0.780658 0.115108 0.583566
O O15 0.195292 0.500000 0.900477
#
# Coordination Sequence:
#
# PCOD8319389 Si02
#       6
#    32  32  16  32  16  32
#     4  10  20  34  52  78 112 145 181 223 269 320
#     4  10  18  30  53  79 107 143 182 229 270 318
#     4   9  18  34  57  78 100 135 181 228 273 318
#     4  10  19  31  50  75 105 142 179 218 264 317
#     4   9  20  38  58  83 107 132 181 242 291 332
#     4  11  21  35  58  83 111 147 188 228 277 340
#
# _framework density 17.988586000000002
#
# number of rings (size 3 to 8) (size 9 to 14) (size 15 to 20)
#    0.000    2.000    4.000    0.600    0.000    1.400 
#    0.000    0.000    0.000    0.600    0.000    7.000 
#    0.000    0.000    0.000    0.000    0.000    0.000 
#
# Total GULP energy -991694.137590 kJ/mol
# GULP energy per Si atom -12396.176720 kJ/mol
# Density = 1.794764 g / cm^3
# Si number density = 17.988586 Si / 1000 Ang^3
#
#
#
# Elastic Constant Matrix: (Units=GPa)
#
#
# Indices 1 2 3 4 5 6 
#
# 1 103.9054 55.1267 27.7692 0.0000 0.0000 0.0000
# 2 55.1267 103.9053 27.7694 0.0000 0.0000 0.0000
# 3 27.7692 27.7694 87.0585 0.0000 0.0000 0.0000
# 4 0.0000 0.0000 0.0000 15.7443 0.0000 0.0000
# 5 0.0000 0.0000 0.0000 0.0000 15.7445 0.0000
# 6 0.0000 0.0000 0.0000 0.0000 0.0000 17.1088
#
#
#
# Elastic Compliance Matrix: (Units=1/GPa)
#
#
# Indices 1 2 3 4 5 6 
#
# 1 0.013789 -0.006712 -0.002257 0.000000 0.000000 0.000000
# 2 -0.006712 0.013789 -0.002257 0.000000 0.000000 0.000000
# 3 -0.002257 -0.002257 0.012926 0.000000 0.000000 0.000000
# 4 0.000000 0.000000 0.000000 0.063515 0.000000 0.000000
# 5 0.000000 0.000000 0.000000 0.000000 0.063514 0.000000
# 6 0.000000 0.000000 0.000000 0.000000 0.000000 0.058449
#
#
# Mechanical properties :
#
#
# Convention : Reuss Voigt Hill
#
# Bulk Modulus (GPa) = 55.40017 57.35551 56.37784
# Shear Modulus (GPa) = 19.65006 21.99978 20.82492
#
# Velocity S-wave (km/s) = 3.30868 3.50091 3.40615
# Velocity P-wave (km/s) = 6.74246 6.94950 6.84676
#
# Compressibility (1/GPa) = 0.01805048
#
# Stress axis : x y z
#
# Youngs Moduli (GPa) = 72.52407 72.52396 77.36061
#
# Poissons Ratio (x) = 0.48680 0.17461
# Poissons Ratio (y) = 0.48680 0.17462
# Poissons Ratio (z) = 0.16370 0.16370
#
# Static dielectric constant tensor:
#      x y z
#    x 3.150380 0.000000 0.000000 
#    y 0.000000 3.150380 0.000000 
#    z 0.000000 0.000000 3.367920 
# 
# 
# High freq. dielectric constant tensor:
#      x y z
#    x 1.675360 0.000000 0.000000 
#    y 0.000000 1.675360 0.000000 
#    z 0.000000 0.000000 1.697910 
# 
# From -- ./inp_files/12969.got.cif
#   From: 2010.03.12/outbox.cif.g09.slc.cpg/sg139_7_cif.got.tgz:12969.got - 2010.04.08 09:46:31.
