data_PCOD8319191
_publ_section_title
;
Structure prediction by ZEFSAII (Michael W. Deem and Ramdas Pophale) SiO2 
 PCOD8319191
Probable space group: P 42/N C M
;
_chemical_formula_sum "Si O2"
_cell_formula_units_Z 60
_cell_length_a 18.579399
_cell_length_b 18.579399
_cell_length_c 7.967508
_cell_angle_alpha 90.000000
_cell_angle_beta 90.000000
_cell_angle_gamma 90.000000
_cell_volume 2750.336492
_symmetry_space_group_name_H-M "P 42/N C M"
_symmetry_group_IT_number 138
_space_group.IT_coordinate_system_code '2'
_symmetry_cell_setting 'tetragonal'
loop_
_space_group_symop_operation_xyz
x,y,z
1/2-y,x,1/2+z
1/2-x,1/2-y,z
y,1/2-x,1/2+z
1/2+x,-y,1/2-z
-x,1/2+y,1/2-z
1/2+y,1/2+x,-z
-y,-x,-z
-x,-y,-z
1/2+y,-x,1/2-z
1/2+x,1/2+y,-z
-y,1/2+x,1/2-z
1/2-x,y,1/2+z
x,1/2-y,1/2+z
1/2-y,1/2-x,z
y,x,z
loop_
_atom_site_type_symbol
_atom_site_label
_atom_site_fract_x
_atom_site_fract_y
_atom_site_fract_z
Si Si1 0.169287 0.330714 0.715871
Si Si2 0.592493 0.592493 0.483448
Si Si3 0.168805 0.168805 0.815665
Si Si4 0.337153 0.946046 0.945096
Si Si5 0.697700 0.396676 0.898912
Si Si6 0.750000 0.250000 0.250000
O O1 0.121823 0.378178 0.839794
O O2 0.150242 0.249727 0.764992
O O3 0.155702 0.344299 0.515938
O O4 0.620316 0.620316 0.304241
O O5 0.612026 0.508443 0.481935
O O6 0.333110 0.947740 0.745176
O O7 0.370424 0.870424 0.000000
O O8 0.253784 0.947850 0.003494
O O9 0.739997 0.323397 0.852873
O O10 0.626377 0.373624 0.000000
#
# Coordination Sequence:
#
# PCOD8319191 Si02
#       6
#     8   8   8  16  16   4
#     4  11  21  42  69  98 124 166 238 313 349 403
#     4  12  29  43  69  98 146 194 232 280 367 445
#     4  11  21  42  71  95 129 166 236 316 357 390
#     4  12  25  45  64 100 148 185 228 289 367 436
#     4  12  22  40  74 105 134 181 240 302 354 410
#     4  12  18  36  70 108 134 160 246 308 346 380
#
# _framework density 21.815511999999998
#
# number of rings (size 3 to 8) (size 9 to 14) (size 15 to 20)
#    0.000    0.267    8.000    1.600    3.733    0.000 
#    4.800    0.667    0.000    0.000    0.000    0.000 
#    0.000    0.000    0.000    0.000    0.000    0.000 
#
# Total GULP energy -743518.763371 kJ/mol
# GULP energy per Si atom -12391.979390 kJ/mol
# Density = 2.176586 g / cm^3
# Si number density = 21.815512 Si / 1000 Ang^3
#
#
#
# Elastic Constant Matrix: (Units=GPa)
#
#
# Indices 1 2 3 4 5 6 
#
# 1 43.2375 22.4294 14.9453 0.0000 0.0000 0.0000
# 2 22.4294 43.2335 14.9457 0.0000 0.0000 0.0000
# 3 14.9453 14.9457 152.9566 0.0000 0.0000 0.0000
# 4 0.0000 0.0000 0.0000 23.4063 0.0000 0.0000
# 5 0.0000 0.0000 0.0000 0.0000 23.4086 0.0000
# 6 0.0000 0.0000 0.0000 0.0000 0.0000 43.8618
#
#
#
# Elastic Compliance Matrix: (Units=1/GPa)
#
#
# Indices 1 2 3 4 5 6 
#
# 1 0.031999 -0.016063 -0.001557 0.000000 0.000000 0.000000
# 2 -0.016063 0.032002 -0.001557 0.000000 0.000000 0.000000
# 3 -0.001557 -0.001557 0.006842 0.000000 0.000000 0.000000
# 4 0.000000 0.000000 0.000000 0.042723 0.000000 0.000000
# 5 0.000000 0.000000 0.000000 0.000000 0.042719 0.000000
# 6 0.000000 0.000000 0.000000 0.000000 0.000000 0.022799
#
#
# Mechanical properties :
#
#
# Convention : Reuss Voigt Hill
#
# Bulk Modulus (GPa) = 30.78022 38.22985 34.50503
# Shear Modulus (GPa) = 21.90407 30.60915 26.25661
#
# Velocity S-wave (km/s) = 3.17213 3.74985 3.47302
# Velocity P-wave (km/s) = 5.24943 6.02584 5.65098
#
# Compressibility (1/GPa) = 0.03248840
#
# Stress axis : x y z
#
# Youngs Moduli (GPa) = 31.25128 31.24823 146.15334
#
# Poissons Ratio (x) = 0.50193 0.22757
# Poissons Ratio (y) = 0.50197 0.22763
# Poissons Ratio (z) = 0.04866 0.04867
#
# Static dielectric constant tensor:
#      x y z
#    x 3.934250 0.000000 0.000000 
#    y 0.000000 3.934270 0.000000 
#    z 0.000000 0.000000 4.204890 
# 
# 
# High freq. dielectric constant tensor:
#      x y z
#    x 1.844530 0.000000 0.000000 
#    y 0.000000 1.844530 0.000000 
#    z 0.000000 0.000000 1.871050 
# 
# From -- ./inp_files/1250.got.cif
#   From: 2010.03.12/outbox.cif.g09.slc.cpg/sg138_1_cif.got.tgz:1250.got - 2010.04.08 09:41:05.
