data_PCOD8319480
_publ_section_title
;
Structure prediction by ZEFSAII (Michael W. Deem and Ramdas Pophale) SiO2 
 PCOD8319480
Probable space group: I 4/M M M
;
_chemical_formula_sum "Si O2"
_cell_formula_units_Z 120
_cell_length_a 17.971728
_cell_length_b 17.971728
_cell_length_c 24.556943
_cell_angle_alpha 90.000000
_cell_angle_beta 90.000000
_cell_angle_gamma 90.000000
_cell_volume 7931.475300
_symmetry_space_group_name_H-M "I 4/M M M"
_symmetry_group_IT_number 139
_symmetry_cell_setting 'tetragonal'
loop_
_space_group_symop_operation_xyz
x,y,z
-y,x,z
-x,-y,z
y,-x,z
x,-y,-z
-x,y,-z
y,x,-z
-y,-x,-z
-x,-y,-z
y,-x,-z
x,y,-z
-y,x,-z
-x,y,z
x,-y,z
-y,-x,z
y,x,z
1/2+x,1/2+y,1/2+z
1/2-y,1/2+x,1/2+z
1/2-x,1/2-y,1/2+z
1/2+y,1/2-x,1/2+z
1/2+x,1/2-y,1/2-z
1/2-x,1/2+y,1/2-z
1/2+y,1/2+x,1/2-z
1/2-y,1/2-x,1/2-z
1/2-x,1/2-y,1/2-z
1/2+y,1/2-x,1/2-z
1/2+x,1/2+y,1/2-z
1/2-y,1/2+x,1/2-z
1/2-x,1/2+y,1/2+z
1/2+x,1/2-y,1/2+z
1/2-y,1/2-x,1/2+z
1/2+y,1/2+x,1/2+z
loop_
_atom_site_type_symbol
_atom_site_label
_atom_site_fract_x
_atom_site_fract_y
_atom_site_fract_z
Si Si1 0.084018 0.639248 0.195219
Si Si2 0.585191 0.585191 0.000000
Si Si3 0.085533 0.722241 0.363404
Si Si4 0.316452 0.316452 0.060722
Si Si5 0.415191 0.294122 0.747128
O O1 0.090734 0.590734 0.250000
O O2 0.136781 0.606020 0.148779
O O3 0.105788 0.724549 0.208840
O O4 0.000000 0.633946 0.173437
O O5 0.500000 0.604319 0.000000
O O6 0.620163 0.620163 0.945358
O O7 0.145018 0.748189 0.408273
O O8 0.096266 0.771938 0.309813
O O9 0.000000 0.726788 0.384258
O O10 0.290058 0.290058 0.000000
O O11 0.500000 0.319085 0.737041
O O12 0.362329 0.362329 0.731351
#
# Coordination Sequence:
#
# PCOD8319480 Si02
#       5
#    32   8  32  16  32
#     4   9  18  29  46  70  95 122 150 184 221 266
#     4   9  18  32  48  62  82 112 142 186 237 266
#     4  10  19  30  46  67  89 119 154 187 226 269
#     4  10  21  32  47  63  88 115 151 197 228 266
#     4   9  17  28  42  64  95 125 154 181 216 267
#
# _framework density 15.129594000000001
#
# number of rings (size 3 to 8) (size 9 to 14) (size 15 to 20)
#    0.400    2.200    1.333    3.200    1.867    3.733 
#    0.000    0.000    0.000    0.800    0.000    1.867 
#    0.000    0.000    0.000    0.000    0.000   11.733 
#
# Total GULP energy -743765.011767 kJ/mol
# GULP energy per Si atom -12396.083529 kJ/mol
# Density = 1.509516 g / cm^3
# Si number density = 15.129594 Si / 1000 Ang^3
#
#
#
# Elastic Constant Matrix: (Units=GPa)
#
#
# Indices 1 2 3 4 5 6 
#
# 1 80.2543 43.7816 26.5974 0.0000 0.0000 0.0000
# 2 43.7816 80.2543 26.5974 0.0000 0.0000 0.0000
# 3 26.5974 26.5974 55.3032 0.0000 0.0000 0.0000
# 4 0.0000 0.0000 0.0000 8.3663 0.0000 0.0000
# 5 0.0000 0.0000 0.0000 0.0000 8.3663 0.0000
# 6 0.0000 0.0000 0.0000 0.0000 0.0000 30.3452
#
#
#
# Elastic Compliance Matrix: (Units=1/GPa)
#
#
# Indices 1 2 3 4 5 6 
#
# 1 0.018787 -0.008630 -0.004885 0.000000 0.000000 0.000000
# 2 -0.008630 0.018787 -0.004885 0.000000 0.000000 0.000000
# 3 -0.004885 -0.004885 0.022781 0.000000 0.000000 0.000000
# 4 0.000000 0.000000 0.000000 0.119527 0.000000 0.000000
# 5 0.000000 0.000000 0.000000 0.000000 0.119527 0.000000
# 6 0.000000 0.000000 0.000000 0.000000 0.000000 0.032954
#
#
# Mechanical properties :
#
#
# Convention : Reuss Voigt Hill
#
# Bulk Modulus (GPa) = 42.45322 45.52941 43.99131
# Shear Modulus (GPa) = 13.26205 17.33792 15.29999
#
# Velocity S-wave (km/s) = 2.96389 3.38888 3.18348
# Velocity P-wave (km/s) = 6.31138 6.74321 6.53087
#
# Compressibility (1/GPa) = 0.02355534
#
# Stress axis : x y z
#
# Youngs Moduli (GPa) = 53.22695 53.22695 43.89642
#
# Poissons Ratio (x) = 0.45936 0.21443
# Poissons Ratio (y) = 0.45936 0.21443
# Poissons Ratio (z) = 0.26001 0.26001
#
# Static dielectric constant tensor:
#      x y z
#    x 2.894990 0.000000 0.000000 
#    y 0.000000 2.894990 0.000000 
#    z 0.000000 0.000000 2.600570 
# 
# 
# High freq. dielectric constant tensor:
#      x y z
#    x 1.581650 0.000000 0.000000 
#    y 0.000000 1.581650 0.000000 
#    z 0.000000 0.000000 1.532170 
# 
# From -- ./inp_files/12694.got.cif
#   From: 2010.03.12/outbox.cif.g09.slc.cpg/sg139_7_cif.got.tgz:12694.got - 2010.04.08 09:46:31.
