data_PCOD8319278
_publ_section_title
;
Structure prediction by ZEFSAII (Michael W. Deem and Ramdas Pophale) SiO2 
 PCOD8319278
Probable space group: I 4/M M M
;
_chemical_formula_sum "Si O2"
_cell_formula_units_Z 144
_cell_length_a 22.891714
_cell_length_b 22.891714
_cell_length_c 17.730919
_cell_angle_alpha 90.000000
_cell_angle_beta 90.000000
_cell_angle_gamma 90.000000
_cell_volume 9291.543588
_symmetry_space_group_name_H-M "I 4/M M M"
_symmetry_group_IT_number 139
_symmetry_cell_setting 'tetragonal'
loop_
_space_group_symop_operation_xyz
x,y,z
-y,x,z
-x,-y,z
y,-x,z
x,-y,-z
-x,y,-z
y,x,-z
-y,-x,-z
-x,-y,-z
y,-x,-z
x,y,-z
-y,x,-z
-x,y,z
x,-y,z
-y,-x,z
y,x,z
1/2+x,1/2+y,1/2+z
1/2-y,1/2+x,1/2+z
1/2-x,1/2-y,1/2+z
1/2+y,1/2-x,1/2+z
1/2+x,1/2-y,1/2-z
1/2-x,1/2+y,1/2-z
1/2+y,1/2+x,1/2-z
1/2-y,1/2-x,1/2-z
1/2-x,1/2-y,1/2-z
1/2+y,1/2-x,1/2-z
1/2+x,1/2+y,1/2-z
1/2-y,1/2+x,1/2-z
1/2-x,1/2+y,1/2+z
1/2+x,1/2-y,1/2+z
1/2-y,1/2-x,1/2+z
1/2+y,1/2+x,1/2+z
loop_
_atom_site_type_symbol
_atom_site_label
_atom_site_fract_x
_atom_site_fract_y
_atom_site_fract_z
Si Si1 0.066303 0.161763 0.694342
Si Si2 0.363469 0.265370 0.915507
Si Si3 0.219744 0.686279 0.333707
Si Si4 0.934601 0.160428 0.000000
Si Si5 0.066019 0.227420 0.153018
O O1 0.104968 0.104968 0.677705
O O2 0.084515 0.215938 0.640582
O O3 0.073753 0.179875 0.781185
O O4 0.000000 0.144888 0.675589
O O5 0.315255 0.315255 0.912576
O O6 0.332943 0.205497 0.888622
O O7 0.388267 0.256869 0.000000
O O8 0.280928 0.719073 0.355509
O O9 0.203815 0.703815 0.250000
O O10 0.223772 0.616064 0.338531
O O11 0.921680 0.198491 0.926875
O O12 0.896516 0.103485 0.000000
O O13 0.000000 0.136864 0.000000
O O14 0.000000 0.254350 0.156509
#
# Coordination Sequence:
#
# PCOD8319278 Si02
#       5
#    32  32  32  16  32
#     4  10  19  32  48  65  92 127 161 198 235 272
#     4   9  18  30  45  69  93 115 148 191 237 280
#     4  10  17  28  48  69  90 117 151 189 233 285
#     4  10  20  31  44  62  88 124 163 199 230 266
#     4  10  20  32  45  65  94 124 154 193 239 282
#
# _framework density 15.497963
#
# number of rings (size 3 to 8) (size 9 to 14) (size 15 to 20)
#    0.000    2.222    2.222    2.000    1.556    0.778 
#    0.000    0.000    0.000    4.000    0.000    3.111 
#    0.000    3.111    0.000    2.000    0.000    0.000 
#
# Total GULP energy -892588.750617 kJ/mol
# GULP energy per Si atom -12397.065981 kJ/mol
# Density = 1.546269 g / cm^3
# Si number density = 15.497963 Si / 1000 Ang^3
#
#
#
# Elastic Constant Matrix: (Units=GPa)
#
#
# Indices 1 2 3 4 5 6 
#
# 1 88.0918 55.4654 33.6043 0.0000 0.0000 0.0000
# 2 55.4654 88.0937 33.6048 0.0000 0.0000 0.0000
# 3 33.6043 33.6048 97.5146 0.0000 0.0000 0.0000
# 4 0.0000 0.0000 0.0000 38.6496 0.0000 0.0000
# 5 0.0000 0.0000 0.0000 0.0000 38.6461 0.0000
# 6 0.0000 0.0000 0.0000 0.0000 0.0000 22.1195
#
#
#
# Elastic Compliance Matrix: (Units=1/GPa)
#
#
# Indices 1 2 3 4 5 6 
#
# 1 0.019478 -0.011172 -0.002862 0.000000 0.000000 0.000000
# 2 -0.011172 0.019477 -0.002862 0.000000 0.000000 0.000000
# 3 -0.002862 -0.002862 0.012228 0.000000 0.000000 0.000000
# 4 0.000000 0.000000 0.000000 0.025873 0.000000 0.000000
# 5 0.000000 0.000000 0.000000 0.000000 0.025876 0.000000
# 6 0.000000 0.000000 0.000000 0.000000 0.000000 0.045209
#
#
# Mechanical properties :
#
#
# Convention : Reuss Voigt Hill
#
# Bulk Modulus (GPa) = 57.50373 57.67214 57.58794
# Shear Modulus (GPa) = 26.63397 29.95140 28.29269
#
# Velocity S-wave (km/s) = 4.15003 4.40091 4.27731
# Velocity P-wave (km/s) = 7.75553 7.94465 7.85066
#
# Compressibility (1/GPa) = 0.01739018
#
# Stress axis : x y z
#
# Youngs Moduli (GPa) = 51.34080 51.34180 81.78207
#
# Poissons Ratio (x) = 0.57357 0.23408
# Poissons Ratio (y) = 0.57356 0.23408
# Poissons Ratio (z) = 0.14695 0.14696
#
# Static dielectric constant tensor:
#      x y z
#    x 2.897210 0.000000 0.000000 
#    y 0.000000 2.897220 0.000000 
#    z 0.000000 0.000000 3.245880 
# 
# 
# High freq. dielectric constant tensor:
#      x y z
#    x 1.568810 0.000000 0.000000 
#    y 0.000000 1.568810 0.000000 
#    z 0.000000 0.000000 1.614590 
# 
# From -- ./inp_files/8182.got.cif
#   From: 2010.03.12/outbox.cif.g09.slc.cpg/sg139_5_cif.got.tgz:8182.got - 2010.04.08 09:46:31.
