data_PCOD8319941
_publ_section_title
;
Structure prediction by ZEFSAII (Michael W. Deem and Ramdas Pophale) SiO2 
 PCOD8319941
Probable space group: I 4/M M M
;
_chemical_formula_sum "Si O2"
_cell_formula_units_Z 112
_cell_length_a 16.185674
_cell_length_b 16.185674
_cell_length_c 22.213515
_cell_angle_alpha 90.000000
_cell_angle_beta 90.000000
_cell_angle_gamma 90.000000
_cell_volume 5819.408757
_symmetry_space_group_name_H-M "I 4/M M M"
_symmetry_group_IT_number 139
_symmetry_cell_setting 'tetragonal'
loop_
_space_group_symop_operation_xyz
x,y,z
-y,x,z
-x,-y,z
y,-x,z
x,-y,-z
-x,y,-z
y,x,-z
-y,-x,-z
-x,-y,-z
y,-x,-z
x,y,-z
-y,x,-z
-x,y,z
x,-y,z
-y,-x,z
y,x,z
1/2+x,1/2+y,1/2+z
1/2-y,1/2+x,1/2+z
1/2-x,1/2-y,1/2+z
1/2+y,1/2-x,1/2+z
1/2+x,1/2-y,1/2-z
1/2-x,1/2+y,1/2-z
1/2+y,1/2+x,1/2-z
1/2-y,1/2-x,1/2-z
1/2-x,1/2-y,1/2-z
1/2+y,1/2-x,1/2-z
1/2+x,1/2+y,1/2-z
1/2-y,1/2+x,1/2-z
1/2-x,1/2+y,1/2+z
1/2+x,1/2-y,1/2+z
1/2-y,1/2-x,1/2+z
1/2+y,1/2+x,1/2+z
loop_
_atom_site_type_symbol
_atom_site_label
_atom_site_fract_x
_atom_site_fract_y
_atom_site_fract_z
Si Si1 0.717287 0.282714 0.648858
Si Si2 0.666381 0.666381 0.226294
Si Si3 0.406961 0.000000 0.630762
Si Si4 0.634892 0.500000 0.931860
Si Si5 0.263753 0.500000 0.179760
Si Si6 0.094595 0.674156 0.069590
O O1 0.670101 0.329900 0.701579
O O2 0.777036 0.222965 0.685043
O O3 0.653570 0.232619 0.608054
O O4 0.691991 0.574459 0.212046
O O5 0.394190 0.079784 0.589461
O O6 0.500000 0.000000 0.659339
O O7 0.336897 0.000000 0.683893
O O8 0.581080 0.581080 0.918112
O O9 0.716132 0.500000 0.891394
O O10 0.666013 0.500000 0.000000
O O11 0.000000 0.702714 0.079335
O O12 0.120180 0.681551 0.000000
#
# Coordination Sequence:
#
# PCOD8319941 Si02
#       6
#    16  16  16  16  16  32
#     4  11  23  44  60  90 121 164 212 257 304 362
#     4  11  26  39  64  87 123 165 217 260 295 374
#     4  10  21  38  62  94 126 161 200 248 313 370
#     4   9  18  32  52  83 123 160 195 238 293 365
#     4  12  21  42  60  92 123 167 204 257 306 363
#     4  10  21  39  66  95 126 159 201 257 315 372
#
# _framework density 19.245941999999999
#
# number of rings (size 3 to 8) (size 9 to 14) (size 15 to 20)
#    0.000    1.571    4.286    1.286    2.000    3.143 
#    0.000    0.000    3.143    0.429    0.000    2.000 
#    0.000    0.000    0.000    0.000    0.000    0.000 
#
# Total GULP energy -694188.438590 kJ/mol
# GULP energy per Si atom -12396.222118 kJ/mol
# Density = 1.920214 g / cm^3
# Si number density = 19.245942 Si / 1000 Ang^3
#
#
#
# Elastic Constant Matrix: (Units=GPa)
#
#
# Indices 1 2 3 4 5 6 
#
# 1 104.3221 88.3767 76.7402 0.0000 0.0000 0.0000
# 2 88.3767 104.3221 76.7403 0.0000 0.0000 0.0000
# 3 76.7402 76.7403 121.9186 0.0000 0.0000 0.0000
# 4 0.0000 0.0000 0.0000 24.3776 0.0000 0.0000
# 5 0.0000 0.0000 0.0000 0.0000 24.3776 0.0000
# 6 0.0000 0.0000 0.0000 0.0000 0.0000 -24.3514
#
#
#
# Elastic Compliance Matrix: (Units=1/GPa)
#
#
# Indices 1 2 3 4 5 6 
#
# 1 0.036560 -0.026154 -0.006550 0.000000 0.000000 0.000000
# 2 -0.026154 0.036560 -0.006550 0.000000 0.000000 0.000000
# 3 -0.006550 -0.006550 0.016448 0.000000 0.000000 0.000000
# 4 0.000000 0.000000 0.000000 0.041021 0.000000 0.000000
# 5 0.000000 0.000000 0.000000 0.000000 0.041021 0.000000
# 6 0.000000 0.000000 0.000000 0.000000 0.000000 -0.041065
#
#
# Mechanical properties :
#
#
# Convention : Reuss Voigt Hill
#
# Bulk Modulus (GPa) = 90.41433 90.47525 90.44479
# Shear Modulus (GPa) = 23.50270 10.79448 17.14859
#
# Velocity S-wave (km/s) = 3.49833 2.37084 2.98824
# Velocity P-wave (km/s) = 7.96229 7.38963 7.68130
#
# Compressibility (1/GPa) = 0.01106019
#
# Stress axis : x y z
#
# Youngs Moduli (GPa) = 27.35204 27.35204 60.79666
#
# Poissons Ratio (x) = 0.71536 0.39824
# Poissons Ratio (y) = 0.71536 0.39824
# Poissons Ratio (z) = 0.17917 0.17917
#
# Static dielectric constant tensor:
#      x y z
#    x 3.511180 0.000000 0.000000 
#    y 0.000000 3.511180 0.000000 
#    z 0.000000 0.000000 3.511960 
# 
# 
# High freq. dielectric constant tensor:
#      x y z
#    x 1.754850 0.000000 0.000000 
#    y 0.000000 1.754850 0.000000 
#    z 0.000000 0.000000 1.744540 
# 
# From -- ./inp_files/11133.got.cif
#   From: 2010.03.12/outbox.cif.g09.slc.cpg/sg139_6_cif.got.tgz:11133.got - 2010.04.08 09:46:31.
