data_PCOD8319301
_publ_section_title
;
Structure prediction by ZEFSAII (Michael W. Deem and Ramdas Pophale) SiO2 
 PCOD8319301
Probable space group: I 4/M M M
;
_chemical_formula_sum "Si O2"
_cell_formula_units_Z 144
_cell_length_a 23.485168
_cell_length_b 23.485168
_cell_length_c 18.086017
_cell_angle_alpha 90.000000
_cell_angle_beta 90.000000
_cell_angle_gamma 90.000000
_cell_volume 9975.399032
_symmetry_space_group_name_H-M "I 4/M M M"
_symmetry_group_IT_number 139
_symmetry_cell_setting 'tetragonal'
loop_
_space_group_symop_operation_xyz
x,y,z
-y,x,z
-x,-y,z
y,-x,z
x,-y,-z
-x,y,-z
y,x,-z
-y,-x,-z
-x,-y,-z
y,-x,-z
x,y,-z
-y,x,-z
-x,y,z
x,-y,z
-y,-x,z
y,x,z
1/2+x,1/2+y,1/2+z
1/2-y,1/2+x,1/2+z
1/2-x,1/2-y,1/2+z
1/2+y,1/2-x,1/2+z
1/2+x,1/2-y,1/2-z
1/2-x,1/2+y,1/2-z
1/2+y,1/2+x,1/2-z
1/2-y,1/2-x,1/2-z
1/2-x,1/2-y,1/2-z
1/2+y,1/2-x,1/2-z
1/2+x,1/2+y,1/2-z
1/2-y,1/2+x,1/2-z
1/2-x,1/2+y,1/2+z
1/2+x,1/2-y,1/2+z
1/2-y,1/2-x,1/2+z
1/2+y,1/2+x,1/2+z
loop_
_atom_site_type_symbol
_atom_site_label
_atom_site_fract_x
_atom_site_fract_y
_atom_site_fract_z
Si Si1 0.121450 0.217116 0.082775
Si Si2 0.339512 0.564790 0.713508
Si Si3 0.805795 0.289884 0.416564
Si Si4 0.341245 0.563882 0.000000
Si Si5 0.112459 0.792091 0.357036
O O1 0.170294 0.170294 0.082877
O O2 0.072920 0.198395 0.139910
O O3 0.149967 0.277418 0.107744
O O4 0.095420 0.222327 0.000000
O O5 0.361446 0.500000 0.715969
O O6 0.394900 0.605101 0.715157
O O7 0.297323 0.576299 0.782215
O O8 0.829244 0.294944 0.500000
O O9 0.758005 0.241996 0.413900
O O10 0.858107 0.270623 0.363503
O O11 0.302370 0.572855 0.072082
O O12 0.364956 0.500000 0.000000
O O13 0.395700 0.604301 0.000000
O O14 0.161230 0.838771 0.355842
#
# Coordination Sequence:
#
# PCOD8319301 Si02
#       5
#    32  32  32  16  32
#     4   8  15  27  43  61  78  96 121 161 211 259
#     4  10  20  31  41  55  76 105 145 185 212 234
#     4   8  12  22  41  62  81  97 117 153 204 257
#     4  10  18  27  38  52  74 108 147 181 206 226
#     4   9  16  26  40  57  76 100 131 168 206 246
#
# _framework density 14.435513
#
# number of rings (size 3 to 8) (size 9 to 14) (size 15 to 20)
#    0.000    3.111    1.111    2.000    0.000    1.667 
#    0.000    4.444    0.000    4.000    0.000    3.111 
#    0.000    0.000    0.000    0.000    0.000   20.000 
#
# Total GULP energy -892063.308241 kJ/mol
# GULP energy per Si atom -12389.768170 kJ/mol
# Density = 1.440266 g / cm^3
# Si number density = 14.435513 Si / 1000 Ang^3
#
#
#
# Elastic Constant Matrix: (Units=GPa)
#
#
# Indices 1 2 3 4 5 6 
#
# 1 42.6354 37.8205 34.8670 0.0000 0.0000 0.0000
# 2 37.8205 42.6357 34.8670 0.0000 0.0000 0.0000
# 3 34.8670 34.8670 101.6846 0.0000 0.0000 0.0000
# 4 0.0000 0.0000 0.0000 14.0282 0.0000 0.0000
# 5 0.0000 0.0000 0.0000 0.0000 14.0280 0.0000
# 6 0.0000 0.0000 0.0000 0.0000 0.0000 12.5045
#
#
#
# Elastic Compliance Matrix: (Units=1/GPa)
#
#
# Indices 1 2 3 4 5 6 
#
# 1 0.112684 -0.094998 -0.006064 0.000000 0.000000 0.000000
# 2 -0.094998 0.112683 -0.006064 0.000000 0.000000 0.000000
# 3 -0.006064 -0.006064 0.013993 0.000000 0.000000 0.000000
# 4 0.000000 0.000000 0.000000 0.071285 0.000000 0.000000
# 5 0.000000 0.000000 0.000000 0.000000 0.071286 0.000000
# 6 0.000000 0.000000 0.000000 0.000000 0.000000 0.079971
#
#
# Mechanical properties :
#
#
# Convention : Reuss Voigt Hill
#
# Bulk Modulus (GPa) = 39.82983 44.67386 42.25185
# Shear Modulus (GPa) = 7.30435 13.40556 10.35495
#
# Velocity S-wave (km/s) = 2.25188 3.05068 2.68120
# Velocity P-wave (km/s) = 5.86624 6.58963 6.23843
#
# Compressibility (1/GPa) = 0.02510681
#
# Stress axis : x y z
#
# Youngs Moduli (GPa) = 8.87436 8.87447 71.46417
#
# Poissons Ratio (x) = 0.84306 0.43339
# Poissons Ratio (y) = 0.84305 0.43335
# Poissons Ratio (z) = 0.05382 0.05381
#
# Static dielectric constant tensor:
#      x y z
#    x 2.633890 0.000000 0.000000 
#    y 0.000000 2.633890 0.000000 
#    z 0.000000 0.000000 3.152760 
# 
# 
# High freq. dielectric constant tensor:
#      x y z
#    x 1.513630 0.000000 0.000000 
#    y 0.000000 1.513630 0.000000 
#    z 0.000000 0.000000 1.562150 
# 
# From -- ./inp_files/8570.got.cif
#   From: 2010.03.12/outbox.cif.g09.slc.cpg/sg139_5_cif.got.tgz:8570.got - 2010.04.08 09:46:31.
