data_PCOD8319489
_publ_section_title
;
Structure prediction by ZEFSAII (Michael W. Deem and Ramdas Pophale) SiO2 
 PCOD8319489
Probable space group: I 4/M M M
;
_chemical_formula_sum "Si O2"
_cell_formula_units_Z 160
_cell_length_a 26.182381
_cell_length_b 26.182381
_cell_length_c 13.789510
_cell_angle_alpha 90.000000
_cell_angle_beta 90.000000
_cell_angle_gamma 90.000000
_cell_volume 9452.944559
_symmetry_space_group_name_H-M "I 4/M M M"
_symmetry_group_IT_number 139
_symmetry_cell_setting 'tetragonal'
loop_
_space_group_symop_operation_xyz
x,y,z
-y,x,z
-x,-y,z
y,-x,z
x,-y,-z
-x,y,-z
y,x,-z
-y,-x,-z
-x,-y,-z
y,-x,-z
x,y,-z
-y,x,-z
-x,y,z
x,-y,z
-y,-x,z
y,x,z
1/2+x,1/2+y,1/2+z
1/2-y,1/2+x,1/2+z
1/2-x,1/2-y,1/2+z
1/2+y,1/2-x,1/2+z
1/2+x,1/2-y,1/2-z
1/2-x,1/2+y,1/2-z
1/2+y,1/2+x,1/2-z
1/2-y,1/2-x,1/2-z
1/2-x,1/2-y,1/2-z
1/2+y,1/2-x,1/2-z
1/2+x,1/2+y,1/2-z
1/2-y,1/2+x,1/2-z
1/2-x,1/2+y,1/2+z
1/2+x,1/2-y,1/2+z
1/2-y,1/2-x,1/2+z
1/2+y,1/2+x,1/2+z
loop_
_atom_site_type_symbol
_atom_site_label
_atom_site_fract_x
_atom_site_fract_y
_atom_site_fract_z
Si Si1 0.602766 0.789850 0.389272
Si Si2 0.696588 0.137430 0.610194
Si Si3 0.941449 0.639998 0.261998
Si Si4 0.558438 0.641177 0.111133
Si Si5 0.289797 0.373560 0.238278
O O1 0.585566 0.782147 0.500000
O O2 0.658720 0.814806 0.380596
O O3 0.562416 0.827421 0.337368
O O4 0.604623 0.734793 0.337168
O O5 0.711790 0.126418 0.500000
O O6 0.671076 0.086222 0.652472
O O7 0.746802 0.152019 0.670424
O O8 0.915313 0.584688 0.250000
O O9 0.000000 0.631301 0.290303
O O10 0.500000 0.630427 0.138121
O O11 0.588706 0.588706 0.128818
O O12 0.579428 0.685480 0.180345
O O13 0.564480 0.659537 0.000000
O O14 0.331229 0.331229 0.265908
#
# Coordination Sequence:
#
# PCOD8319489 Si02
#       5
#    32  32  32  32  32
#     4   9  19  34  48  64  90 126 163 191 221 268
#     4   9  18  32  48  66  92 126 157 185 224 277
#     4   9  18  32  49  69  92 118 152 195 238 279
#     4   9  18  32  49  70  96 123 150 183 225 273
#     4  10  19  30  46  71  99 121 149 192 233 266
#
# _framework density 16.925943
#
# number of rings (size 3 to 8) (size 9 to 14) (size 15 to 20)
#    0.000    2.800    0.000    2.400    0.000    7.600 
#    0.000    3.000    0.000    0.000    0.000    5.600 
#    0.000    0.000    0.000    4.400    0.000    0.200 
#
# Total GULP energy -992011.907956 kJ/mol
# GULP energy per Si atom -12400.148849 kJ/mol
# Density = 1.688742 g / cm^3
# Si number density = 16.925943 Si / 1000 Ang^3
#
#
#
# Elastic Constant Matrix: (Units=GPa)
#
#
# Indices 1 2 3 4 5 6 
#
# 1 87.8691 22.5277 25.8858 0.0000 0.0000 0.0000
# 2 22.5277 87.8708 25.8864 0.0000 0.0000 0.0000
# 3 25.8858 25.8864 100.9677 0.0000 0.0000 0.0000
# 4 0.0000 0.0000 0.0000 18.9898 0.0000 0.0000
# 5 0.0000 0.0000 0.0000 0.0000 18.9895 0.0000
# 6 0.0000 0.0000 0.0000 0.0000 0.0000 11.4135
#
#
#
# Elastic Compliance Matrix: (Units=1/GPa)
#
#
# Indices 1 2 3 4 5 6 
#
# 1 0.012800 -0.002504 -0.002640 0.000000 0.000000 0.000000
# 2 -0.002504 0.012800 -0.002640 0.000000 0.000000 0.000000
# 3 -0.002640 -0.002640 0.011258 0.000000 0.000000 0.000000
# 4 0.000000 0.000000 0.000000 0.052660 0.000000 0.000000
# 5 0.000000 0.000000 0.000000 0.000000 0.052661 0.000000
# 6 0.000000 0.000000 0.000000 0.000000 0.000000 0.087615
#
#
# Mechanical properties :
#
#
# Convention : Reuss Voigt Hill
#
# Bulk Modulus (GPa) = 46.96816 47.25639 47.11227
# Shear Modulus (GPa) = 19.80532 23.37242 21.58887
#
# Velocity S-wave (km/s) = 3.42441 3.72003 3.57527
# Velocity P-wave (km/s) = 6.59127 6.81407 6.70360
#
# Compressibility (1/GPa) = 0.02129102
#
# Stress axis : x y z
#
# Youngs Moduli (GPa) = 78.12398 78.12535 88.82814
#
# Poissons Ratio (x) = 0.19562 0.23448
# Poissons Ratio (y) = 0.19562 0.23448
# Poissons Ratio (z) = 0.20622 0.20623
#
# Static dielectric constant tensor:
#      x y z
#    x 3.035240 0.000000 0.000000 
#    y 0.000000 3.035240 0.000000 
#    z 0.000000 0.000000 3.296640 
# 
# 
# High freq. dielectric constant tensor:
#      x y z
#    x 1.641610 0.000000 0.000000 
#    y 0.000000 1.641610 0.000000 
#    z 0.000000 0.000000 1.651020 
# 
# From -- ./inp_files/5955.got.cif
#   From: 2010.03.12/outbox.cif.g09.slc.cpg/sg139_3_cif.got.tgz:5955.got - 2010.04.08 09:46:31.
