data_PCOD8319226
_publ_section_title
;
Structure prediction by ZEFSAII (Michael W. Deem and Ramdas Pophale) SiO2 
 PCOD8319226
Probable space group: P 42/N C M
;
_chemical_formula_sum "Si O2"
_cell_formula_units_Z 60
_cell_length_a 11.521565
_cell_length_b 11.521565
_cell_length_c 22.097143
_cell_angle_alpha 90.000000
_cell_angle_beta 90.000000
_cell_angle_gamma 90.000000
_cell_volume 2933.317510
_symmetry_space_group_name_H-M "P 42/N C M"
_symmetry_group_IT_number 138
_space_group.IT_coordinate_system_code '2'
_symmetry_cell_setting 'tetragonal'
loop_
_space_group_symop_operation_xyz
x,y,z
1/2-y,x,1/2+z
1/2-x,1/2-y,z
y,1/2-x,1/2+z
1/2+x,-y,1/2-z
-x,1/2+y,1/2-z
1/2+y,1/2+x,-z
-y,-x,-z
-x,-y,-z
1/2+y,-x,1/2-z
1/2+x,1/2+y,-z
-y,1/2+x,1/2-z
1/2-x,y,1/2+z
x,1/2-y,1/2+z
1/2-y,1/2-x,z
y,x,z
loop_
_atom_site_type_symbol
_atom_site_label
_atom_site_fract_x
_atom_site_fract_y
_atom_site_fract_z
Si Si1 0.591436 0.591436 0.475315
Si Si2 0.538981 0.961020 0.841836
Si Si3 0.487092 0.678634 0.033856
Si Si4 0.750000 0.250000 0.250000
Si Si5 0.232423 0.548625 0.836406
Si Si6 0.339423 0.339423 0.769025
O O1 0.500000 0.500000 0.500000
O O2 0.593026 0.593026 0.402687
O O3 0.718589 0.552760 0.497945
O O4 0.404272 0.934147 0.838209
O O5 0.596778 0.903223 0.784422
O O6 0.579786 0.579786 0.047725
O O7 0.433187 0.722857 0.096117
O O8 0.375957 0.624044 0.000000
O O9 0.856069 0.289577 0.292492
O O10 0.267334 0.423489 0.812388
O O11 0.250000 0.250000 0.738622
#
# Coordination Sequence:
#
# PCOD8319226 Si02
#       6
#     8   8  16   4  16   8
#     4  12  25  43  70 102 140 179 234 289 347 425
#     4  12  26  46  66 107 139 184 236 287 355 415
#     4  11  26  45  71 105 139 185 234 291 358 424
#     4  12  28  40  66 108 140 176 232 302 336 408
#     4  12  24  44  71  99 141 183 236 288 349 422
#     4  12  26  44  73 102 137 189 232 285 353 415
#
# _framework density 20.454656
#
# number of rings (size 3 to 8) (size 9 to 14) (size 15 to 20)
#    0.000    0.267    8.000    0.400    3.733    1.600 
#    0.000    2.667    0.000    0.000    0.000    0.000 
#    0.000    0.000    0.000    0.000    0.000    0.000 
#
# Total GULP energy -744234.851900 kJ/mol
# GULP energy per Si atom -12403.914198 kJ/mol
# Density = 2.040810 g / cm^3
# Si number density = 20.454656 Si / 1000 Ang^3
#
#
#
# Elastic Constant Matrix: (Units=GPa)
#
#
# Indices 1 2 3 4 5 6 
#
# 1 133.7344 35.6122 61.7136 0.0000 0.0000 0.0000
# 2 35.6122 133.7320 61.7146 0.0000 0.0000 0.0000
# 3 61.7136 61.7146 166.5208 0.0000 0.0000 0.0000
# 4 0.0000 0.0000 0.0000 27.1700 0.0000 0.0000
# 5 0.0000 0.0000 0.0000 0.0000 27.1571 0.0000
# 6 0.0000 0.0000 0.0000 0.0000 0.0000 41.8124
#
#
#
# Elastic Compliance Matrix: (Units=1/GPa)
#
#
# Indices 1 2 3 4 5 6 
#
# 1 0.009141 -0.001051 -0.002998 0.000000 0.000000 0.000000
# 2 -0.001051 0.009141 -0.002998 0.000000 0.000000 0.000000
# 3 -0.002998 -0.002998 0.008228 0.000000 0.000000 0.000000
# 4 0.000000 0.000000 0.000000 0.036805 0.000000 0.000000
# 5 0.000000 0.000000 0.000000 0.000000 0.036823 0.000000
# 6 0.000000 0.000000 0.000000 0.000000 0.000000 0.023916
#
#
# Mechanical properties :
#
#
# Convention : Reuss Voigt Hill
#
# Bulk Modulus (GPa) = 80.54721 83.56314 82.05518
# Shear Modulus (GPa) = 35.14021 37.55769 36.34895
#
# Velocity S-wave (km/s) = 4.14932 4.28967 4.22008
# Velocity P-wave (km/s) = 7.90062 8.09176 7.99676
#
# Compressibility (1/GPa) = 0.01241508
#
# Stress axis : x y z
#
# Youngs Moduli (GPa) = 109.39881 109.39568 121.54022
#
# Poissons Ratio (x) = 0.11492 0.36442
# Poissons Ratio (y) = 0.11492 0.36444
# Poissons Ratio (z) = 0.32801 0.32802
#
# Static dielectric constant tensor:
#      x y z
#    x 4.051010 0.000000 0.000000 
#    y 0.000000 4.051000 0.000000 
#    z 0.000000 0.000000 3.873050 
# 
# 
# High freq. dielectric constant tensor:
#      x y z
#    x 1.809800 0.000000 0.000000 
#    y 0.000000 1.809800 0.000000 
#    z 0.000000 0.000000 1.814360 
# 
# From -- ./inp_files/5900.got.cif
#   From: 2010.03.12/outbox.cif.g09.slc.cpg/sg138_3_cif.got.tgz:5900.got - 2010.04.08 09:41:05.
