data_PCOD8319161
_publ_section_title
;
Structure prediction by ZEFSAII (Michael W. Deem and Ramdas Pophale) SiO2 
 PCOD8319161
Probable space group: P 42/N C M
;
_chemical_formula_sum "Si O2"
_cell_formula_units_Z 80
_cell_length_a 12.207007
_cell_length_b 12.207007
_cell_length_c 26.846674
_cell_angle_alpha 90.000000
_cell_angle_beta 90.000000
_cell_angle_gamma 90.000000
_cell_volume 4000.450274
_symmetry_space_group_name_H-M "P 42/N C M"
_symmetry_group_IT_number 138
_space_group.IT_coordinate_system_code '2'
_symmetry_cell_setting 'tetragonal'
loop_
_space_group_symop_operation_xyz
x,y,z
1/2-y,x,1/2+z
1/2-x,1/2-y,z
y,1/2-x,1/2+z
1/2+x,-y,1/2-z
-x,1/2+y,1/2-z
1/2+y,1/2+x,-z
-y,-x,-z
-x,-y,-z
1/2+y,-x,1/2-z
1/2+x,1/2+y,-z
-y,1/2+x,1/2-z
1/2-x,y,1/2+z
x,1/2-y,1/2+z
1/2-y,1/2-x,z
y,x,z
loop_
_atom_site_type_symbol
_atom_site_label
_atom_site_fract_x
_atom_site_fract_y
_atom_site_fract_z
Si Si1 0.455864 0.634328 0.051700
Si Si2 0.723022 0.417926 0.768194
Si Si3 0.661315 0.661315 0.765537
Si Si4 0.877459 0.050982 0.554128
Si Si5 0.164421 0.164421 0.116158
Si Si6 0.427313 0.735645 0.885700
O O1 0.552864 0.552864 0.067863
O O2 0.501826 0.757046 0.049010
O O3 0.363553 0.645943 0.094307
O O4 0.401619 0.598382 0.000000
O O5 0.834792 0.376931 0.742334
O O6 0.693273 0.538874 0.747130
O O7 0.744240 0.420833 0.826723
O O8 0.750000 0.750000 0.745151
O O9 0.661833 0.661833 0.824670
O O10 0.909456 0.090545 0.500000
O O11 0.885954 0.150391 0.592680
O O12 0.956611 0.956611 0.574372
O O13 0.250000 0.250000 0.094661
O O14 0.048326 0.202978 0.094782
#
# Coordination Sequence:
#
# PCOD8319161 Si02
#       6
#    16  16   8  16   8  16
#     4  11  23  40  63  91 124 166 209 245 306 376
#     4  10  24  41  62  94 122 164 217 266 314 374
#     4   9  20  40  66  88 124 160 199 267 327 374
#     4  11  24  40  62  95 127 160 204 255 312 372
#     4   9  18  36  61  93 119 153 204 251 306 360
#     4  11  21  40  64  89 122 163 205 254 313 371
#
# _framework density 19.997748000000001
#
# number of rings (size 3 to 8) (size 9 to 14) (size 15 to 20)
#    0.000    1.600    3.000    1.200    7.000    1.200 
#    0.000    0.000    0.000    0.000    0.000    0.000 
#    0.000    0.000    0.000    0.000    0.000    0.000 
#
# Total GULP energy -991955.936682 kJ/mol
# GULP energy per Si atom -12399.449209 kJ/mol
# Density = 1.995223 g / cm^3
# Si number density = 19.997748 Si / 1000 Ang^3
#
#
#
# Elastic Constant Matrix: (Units=GPa)
#
#
# Indices 1 2 3 4 5 6 
#
# 1 134.7192 99.0461 26.0318 0.0000 0.0000 0.0000
# 2 99.0461 134.7207 26.0300 0.0000 0.0000 0.0000
# 3 26.0318 26.0300 56.2668 0.0000 0.0000 0.0000
# 4 0.0000 0.0000 0.0000 8.0671 0.0000 0.0000
# 5 0.0000 0.0000 0.0000 0.0000 8.0862 0.0000
# 6 0.0000 0.0000 0.0000 0.0000 0.0000 22.7956
#
#
#
# Elastic Compliance Matrix: (Units=1/GPa)
#
#
# Indices 1 2 3 4 5 6 
#
# 1 0.016401 -0.011631 -0.002207 0.000000 0.000000 0.000000
# 2 -0.011631 0.016400 -0.002206 0.000000 0.000000 0.000000
# 3 -0.002207 -0.002206 0.019814 0.000000 0.000000 0.000000
# 4 0.000000 0.000000 0.000000 0.123961 0.000000 0.000000
# 5 0.000000 0.000000 0.000000 0.000000 0.123668 0.000000
# 6 0.000000 0.000000 0.000000 0.000000 0.000000 0.043868
#
#
# Mechanical properties :
#
#
# Convention : Reuss Voigt Hill
#
# Bulk Modulus (GPa) = 48.71681 69.76915 59.24298
# Shear Modulus (GPa) = 13.05338 19.42968 16.24153
#
# Velocity S-wave (km/s) = 2.55765 3.12042 2.85295
# Velocity P-wave (km/s) = 5.75640 6.92437 6.36722
#
# Compressibility (1/GPa) = 0.02052680
#
# Stress axis : x y z
#
# Youngs Moduli (GPa) = 60.97308 60.97468 50.46946
#
# Poissons Ratio (x) = 0.70922 0.11138
# Poissons Ratio (y) = 0.70920 0.11133
# Poissons Ratio (z) = 0.13456 0.13450
#
# Static dielectric constant tensor:
#      x y z
#    x 3.871400 0.000000 0.000000 
#    y 0.000000 3.871400 0.000000 
#    z 0.000000 0.000000 3.382090 
# 
# 
# High freq. dielectric constant tensor:
#      x y z
#    x 1.789200 0.000000 0.000000 
#    y 0.000000 1.789200 0.000000 
#    z 0.000000 0.000000 1.761490 
# 
# From -- ./inp_files/7979.got.cif
#   From: 2010.03.12/outbox.cif.g09.slc.cpg/sg138_4_cif.got.tgz:7979.got - 2010.04.08 09:41:05.
