data_PCOD8319696
_publ_section_title
;
Structure prediction by ZEFSAII (Michael W. Deem and Ramdas Pophale) SiO2 
 PCOD8319696
Probable space group: I 4/M M M
;
_chemical_formula_sum "Si O2"
_cell_formula_units_Z 192
_cell_length_a 19.084221
_cell_length_b 19.084221
_cell_length_c 31.827684
_cell_angle_alpha 90.000000
_cell_angle_beta 90.000000
_cell_angle_gamma 90.000000
_cell_volume 11591.880940
_symmetry_space_group_name_H-M "I 4/M M M"
_symmetry_group_IT_number 139
_symmetry_cell_setting 'tetragonal'
loop_
_space_group_symop_operation_xyz
x,y,z
-y,x,z
-x,-y,z
y,-x,z
x,-y,-z
-x,y,-z
y,x,-z
-y,-x,-z
-x,-y,-z
y,-x,-z
x,y,-z
-y,x,-z
-x,y,z
x,-y,z
-y,-x,z
y,x,z
1/2+x,1/2+y,1/2+z
1/2-y,1/2+x,1/2+z
1/2-x,1/2-y,1/2+z
1/2+y,1/2-x,1/2+z
1/2+x,1/2-y,1/2-z
1/2-x,1/2+y,1/2-z
1/2+y,1/2+x,1/2-z
1/2-y,1/2-x,1/2-z
1/2-x,1/2-y,1/2-z
1/2+y,1/2-x,1/2-z
1/2+x,1/2+y,1/2-z
1/2-y,1/2+x,1/2-z
1/2-x,1/2+y,1/2+z
1/2+x,1/2-y,1/2+z
1/2-y,1/2-x,1/2+z
1/2+y,1/2+x,1/2+z
loop_
_atom_site_type_symbol
_atom_site_label
_atom_site_fract_x
_atom_site_fract_y
_atom_site_fract_z
Si Si1 0.828983 0.286822 0.381608
Si Si2 0.418994 0.918994 0.250000
Si Si3 0.579467 0.176013 0.673275
Si Si4 0.080942 0.500000 0.451187
Si Si5 0.576267 0.687671 0.727528
Si Si6 0.691529 0.419340 0.177649
Si Si7 0.347601 0.082444 0.549513
O O1 0.755777 0.244224 0.386931
O O2 0.817738 0.365630 0.364690
O O3 0.880138 0.248134 0.349975
O O4 0.869268 0.291534 0.426254
O O5 0.500000 0.902734 0.241779
O O6 0.394045 0.880157 0.292265
O O7 0.500000 0.157500 0.657032
O O8 0.578546 0.250261 0.695160
O O9 0.095804 0.500000 0.500000
O O10 0.108981 0.425128 0.434158
O O11 0.000000 0.500000 0.441200
O O12 0.500000 0.651444 0.727531
O O13 0.631326 0.631326 0.711824
O O14 0.591585 0.716214 0.774318
O O15 0.687043 0.500000 0.164093
O O16 0.614693 0.385308 0.171248
O O17 0.338106 0.095121 0.500000
O O18 0.336618 0.000000 0.559863
#
# Coordination Sequence:
#
# PCOD8319696 Si02
#       7
#    32  16  32  16  32  32  32
#     4  11  22  32  46  69  98 128 159 196 234 282
#     4   9  18  32  47  66  92 122 161 206 245 280
#     4  10  20  32  47  65  90 127 163 195 236 284
#     4   7  12  26  48  72  92 112 141 177 221 273
#     4   9  17  30  47  65  88 118 155 198 240 280
#     4   9  18  31  47  68  92 122 158 197 239 278
#     4   9  18  33  53  73  94 121 151 187 232 282
#
# _framework density 16.563317999999999
#
# number of rings (size 3 to 8) (size 9 to 14) (size 15 to 20)
#    0.000    2.667    0.000    3.000    1.167    3.333 
#    0.000    5.000    0.000    0.000    0.000    0.000 
#    0.000    0.000    0.000   15.500    0.000    4.833 
#
# Total GULP energy -1189529.563813 kJ/mol
# GULP energy per Si atom -12390.932956 kJ/mol
# Density = 1.652562 g / cm^3
# Si number density = 16.563318 Si / 1000 Ang^3
#
#
#
# Elastic Constant Matrix: (Units=GPa)
#
#
# Indices 1 2 3 4 5 6 
#
# 1 76.1458 35.7388 35.5298 0.0000 0.0000 0.0000
# 2 35.7388 76.1458 35.5298 0.0000 0.0000 0.0000
# 3 35.5298 35.5298 59.5633 0.0000 0.0000 0.0000
# 4 0.0000 0.0000 0.0000 21.4812 0.0000 0.0000
# 5 0.0000 0.0000 0.0000 0.0000 21.4812 0.0000
# 6 0.0000 0.0000 0.0000 0.0000 0.0000 22.4411
#
#
#
# Elastic Compliance Matrix: (Units=1/GPa)
#
#
# Indices 1 2 3 4 5 6 
#
# 1 0.019569 -0.005180 -0.008583 0.000000 0.000000 0.000000
# 2 -0.005180 0.019569 -0.008583 0.000000 0.000000 0.000000
# 3 -0.008583 -0.008583 0.027029 0.000000 0.000000 0.000000
# 4 0.000000 0.000000 0.000000 0.046552 0.000000 0.000000
# 5 0.000000 0.000000 0.000000 0.000000 0.046552 0.000000
# 6 0.000000 0.000000 0.000000 0.000000 0.000000 0.044561
#
#
# Mechanical properties :
#
#
# Convention : Reuss Voigt Hill
#
# Bulk Modulus (GPa) = 46.56754 47.27241 46.91998
# Shear Modulus (GPa) = 19.55559 20.08447 19.82003
#
# Velocity S-wave (km/s) = 3.43980 3.48600 3.46298
# Velocity P-wave (km/s) = 6.62964 6.69368 6.66174
#
# Compressibility (1/GPa) = 0.02147418
#
# Stress axis : x y z
#
# Youngs Moduli (GPa) = 51.10218 51.10218 36.99781
#
# Poissons Ratio (x) = 0.26469 0.31756
# Poissons Ratio (y) = 0.26469 0.31756
# Poissons Ratio (z) = 0.43862 0.43862
#
# Static dielectric constant tensor:
#      x y z
#    x 3.205020 0.000000 0.000000 
#    y 0.000000 3.205020 0.000000 
#    z 0.000000 0.000000 2.904540 
# 
# 
# High freq. dielectric constant tensor:
#      x y z
#    x 1.634470 0.000000 0.000000 
#    y 0.000000 1.634470 0.000000 
#    z 0.000000 0.000000 1.618380 
# 
# From -- ./inp_files/14394.got.cif
#   From: 2010.03.12/outbox.cif.g09.slc.cpg/sg139_8_cif.got.tgz:14394.got - 2010.04.08 09:46:31.
