data_PCOD8319179
_publ_section_title
;
Structure prediction by ZEFSAII (Michael W. Deem and Ramdas Pophale) SiO2 
 PCOD8319179
Probable space group: P 42/N C M
;
_chemical_formula_sum "Si O2"
_cell_formula_units_Z 84
_cell_length_a 24.440231
_cell_length_b 24.440231
_cell_length_c 8.829079
_cell_angle_alpha 90.000000
_cell_angle_beta 90.000000
_cell_angle_gamma 90.000000
_cell_volume 5273.828654
_symmetry_space_group_name_H-M "P 42/N C M"
_symmetry_group_IT_number 138
_space_group.IT_coordinate_system_code '2'
_symmetry_cell_setting 'tetragonal'
loop_
_space_group_symop_operation_xyz
x,y,z
1/2-y,x,1/2+z
1/2-x,1/2-y,z
y,1/2-x,1/2+z
1/2+x,-y,1/2-z
-x,1/2+y,1/2-z
1/2+y,1/2+x,-z
-y,-x,-z
-x,-y,-z
1/2+y,-x,1/2-z
1/2+x,1/2+y,-z
-y,1/2+x,1/2-z
1/2-x,y,1/2+z
x,1/2-y,1/2+z
1/2-y,1/2-x,z
y,x,z
loop_
_atom_site_type_symbol
_atom_site_label
_atom_site_fract_x
_atom_site_fract_y
_atom_site_fract_z
Si Si1 0.449033 0.305223 0.819804
Si Si2 0.550967 0.694776 0.819794
Si Si3 0.750000 0.750000 0.749994
Si Si4 0.998496 0.414646 0.320327
Si Si5 0.663952 0.663952 0.330517
Si Si6 0.663952 0.663952 0.669472
Si Si7 0.498495 0.914647 0.320326
O O1 0.473973 0.249999 0.750006
O O2 0.490186 0.353201 0.763345
O O3 0.388074 0.313539 0.759060
O O4 0.445974 0.301387 0.000005
O O5 0.611926 0.686460 0.759048
O O6 0.509813 0.646798 0.763341
O O7 0.789481 0.710520 0.847125
O O8 0.710519 0.710519 0.652865
O O9 0.046952 0.453049 0.256743
O O10 0.000746 0.415410 0.500000
O O11 0.939725 0.439724 0.265617
O O12 0.646735 0.646735 0.499994
O O13 0.546951 0.953050 0.256742
#
# Coordination Sequence:
#
# PCOD8319179 Si02
#       7
#    16  16   4  16   8   8  16
#     4  11  21  33  49  69  94 121 153 194 237 279
#     4  11  21  33  49  69  94 121 153 194 237 279
#     4  12  26  36  48  58  82 128 170 204 222 252
#     4   8  14  27  48  70  89 115 154 194 230 274
#     4  12  24  35  47  62  87 122 166 204 233 268
#     4  12  24  35  47  62  87 122 166 204 233 268
#     4   8  14  27  48  70  89 115 154 194 230 274
#
# _framework density 15.927708000000001
#
# number of rings (size 3 to 8) (size 9 to 14) (size 15 to 20)
#    0.000    1.905    3.810    3.143    0.000    1.524 
#    0.000    0.000    0.000    5.714    0.000    0.000 
#    0.000    0.762    0.000    9.524    0.000    0.000 
#
# Total GULP energy -1040830.001729 kJ/mol
# GULP energy per Si atom -12390.833354 kJ/mol
# Density = 1.589146 g / cm^3
# Si number density = 15.927708 Si / 1000 Ang^3
#
#
#
# Elastic Constant Matrix: (Units=GPa)
#
#
# Indices 1 2 3 4 5 6 
#
# 1 115.8910 82.1271 27.0713 0.0000 0.0000 0.0000
# 2 82.1271 115.8910 27.0713 0.0000 0.0000 0.0000
# 3 27.0713 27.0713 60.9784 0.0000 0.0000 0.0000
# 4 0.0000 0.0000 0.0000 5.1664 0.0000 0.0000
# 5 0.0000 0.0000 0.0000 0.0000 5.1664 0.0000
# 6 0.0000 0.0000 0.0000 0.0000 0.0000 33.0485
#
#
#
# Elastic Compliance Matrix: (Units=1/GPa)
#
#
# Indices 1 2 3 4 5 6 
#
# 1 0.017683 -0.011935 -0.002552 0.000000 0.000000 0.000000
# 2 -0.011935 0.017683 -0.002552 0.000000 0.000000 0.000000
# 3 -0.002552 -0.002552 0.018665 0.000000 0.000000 0.000000
# 4 0.000000 0.000000 0.000000 0.193559 0.000000 0.000000
# 5 0.000000 0.000000 0.000000 0.000000 0.193559 0.000000
# 6 0.000000 0.000000 0.000000 0.000000 0.000000 0.030259
#
#
# Mechanical properties :
#
#
# Convention : Reuss Voigt Hill
#
# Bulk Modulus (GPa) = 50.11633 62.81108 56.46370
# Shear Modulus (GPa) = 9.76307 19.10898 14.43602
#
# Velocity S-wave (km/s) = 2.47849 3.46747 3.01383
# Velocity P-wave (km/s) = 6.30268 7.45331 6.90201
#
# Compressibility (1/GPa) = 0.01995358
#
# Stress axis : x y z
#
# Youngs Moduli (GPa) = 56.55279 56.55279 53.57650
#
# Poissons Ratio (x) = 0.67495 0.13671
# Poissons Ratio (y) = 0.67495 0.13671
# Poissons Ratio (z) = 0.14431 0.14431
#
# Static dielectric constant tensor:
#      x y z
#    x 3.299860 0.000000 0.000000 
#    y 0.000000 3.299860 0.000000 
#    z 0.000000 0.000000 2.799730 
# 
# 
# High freq. dielectric constant tensor:
#      x y z
#    x 1.595540 0.000000 0.000000 
#    y 0.000000 1.595540 0.000000 
#    z 0.000000 0.000000 1.593610 
# 
# From -- ./inp_files/1671.got.cif
#   From: 2010.03.12/outbox.cif.g09.slc.cpg/sg138_1_cif.got.tgz:1671.got - 2010.04.08 09:41:05.
