data_PCOD8319876
_publ_section_title
;
Structure prediction by ZEFSAII (Michael W. Deem and Ramdas Pophale) SiO2 
 PCOD8319876
Probable space group: I 4/M M M
;
_chemical_formula_sum "Si O2"
_cell_formula_units_Z 160
_cell_length_a 30.965259
_cell_length_b 30.965259
_cell_length_c 8.860502
_cell_angle_alpha 90.000000
_cell_angle_beta 90.000000
_cell_angle_gamma 90.000000
_cell_volume 8495.868109
_symmetry_space_group_name_H-M "I 4/M M M"
_symmetry_group_IT_number 139
_symmetry_cell_setting 'tetragonal'
loop_
_space_group_symop_operation_xyz
x,y,z
-y,x,z
-x,-y,z
y,-x,z
x,-y,-z
-x,y,-z
y,x,-z
-y,-x,-z
-x,-y,-z
y,-x,-z
x,y,-z
-y,x,-z
-x,y,z
x,-y,z
-y,-x,z
y,x,z
1/2+x,1/2+y,1/2+z
1/2-y,1/2+x,1/2+z
1/2-x,1/2-y,1/2+z
1/2+y,1/2-x,1/2+z
1/2+x,1/2-y,1/2-z
1/2-x,1/2+y,1/2-z
1/2+y,1/2+x,1/2-z
1/2-y,1/2-x,1/2-z
1/2-x,1/2-y,1/2-z
1/2+y,1/2-x,1/2-z
1/2+x,1/2+y,1/2-z
1/2-y,1/2+x,1/2-z
1/2-x,1/2+y,1/2+z
1/2+x,1/2-y,1/2+z
1/2-y,1/2-x,1/2+z
1/2+y,1/2+x,1/2+z
loop_
_atom_site_type_symbol
_atom_site_label
_atom_site_fract_x
_atom_site_fract_y
_atom_site_fract_z
Si Si1 0.000000 0.112537 0.164229
Si Si2 0.145221 0.145221 0.828008
Si Si3 0.766860 0.904282 0.176818
Si Si4 0.500000 0.286615 0.664269
Si Si5 0.550388 0.885917 0.322500
Si Si6 0.386648 0.821693 0.820474
Si Si7 0.916027 0.083974 0.672995
O O1 0.959716 0.098577 0.256651
O O2 0.000000 0.162959 0.143186
O O3 0.000000 0.090221 0.000000
O O4 0.131021 0.194832 0.800446
O O5 0.119620 0.119620 0.702275
O O6 0.132039 0.132039 0.000000
O O7 0.727826 0.884535 0.271376
O O8 0.774865 0.953577 0.242361
O O9 0.755851 0.907566 0.000000
O O10 0.500000 0.264132 0.500000
O O11 0.560518 0.884748 0.500000
O O12 0.500000 0.887167 0.287983
O O13 0.571513 0.928488 0.250000
O O14 0.569799 0.843254 0.244792
O O15 0.345262 0.845262 0.750000
O O16 0.385758 0.825930 0.000000
O O17 0.923531 0.076470 0.500000
#
# Coordination Sequence:
#
# PCOD8319876 Si02
#       7
#    16  16  32  16  32  32  16
#     4  11  21  40  62  81 109 159 208 237 285 360
#     4  10  20  38  64  88 116 158 198 232 284 360
#     4  10  20  37  61  92 120 152 196 241 287 342
#     4   9  18  33  60  90 117 149 194 241 282 338
#     4  10  21  37  58  84 116 156 197 240 288 340
#     4  11  23  40  61  86 117 156 195 242 296 349
#     4  12  24  37  55  85 121 152 188 250 308 344
#
# _framework density 18.832682999999999
#
# number of rings (size 3 to 8) (size 9 to 14) (size 15 to 20)
#    0.000    1.600    2.000    4.800    1.400    2.800 
#    0.000    2.500    0.000    0.000    0.000    0.000 
#    0.000    0.000    0.000    0.000    0.000    0.000 
#
# Total GULP energy -991438.724754 kJ/mol
# GULP energy per Si atom -12392.984059 kJ/mol
# Density = 1.878982 g / cm^3
# Si number density = 18.832683 Si / 1000 Ang^3
#
#
#
# Elastic Constant Matrix: (Units=GPa)
#
#
# Indices 1 2 3 4 5 6 
#
# 1 132.3448 60.0607 56.6087 0.0000 0.0000 0.0000
# 2 60.0607 132.3440 56.6113 0.0000 0.0000 0.0000
# 3 56.6087 56.6113 133.4965 0.0000 0.0000 0.0000
# 4 0.0000 0.0000 0.0000 31.0599 0.0000 0.0000
# 5 0.0000 0.0000 0.0000 0.0000 31.0602 0.0000
# 6 0.0000 0.0000 0.0000 0.0000 0.0000 22.5015
#
#
#
# Elastic Compliance Matrix: (Units=1/GPa)
#
#
# Indices 1 2 3 4 5 6 
#
# 1 0.010380 -0.003454 -0.002937 0.000000 0.000000 0.000000
# 2 -0.003454 0.010380 -0.002937 0.000000 0.000000 0.000000
# 3 -0.002937 -0.002937 0.009982 0.000000 0.000000 0.000000
# 4 0.000000 0.000000 0.000000 0.032196 0.000000 0.000000
# 5 0.000000 0.000000 0.000000 0.000000 0.032196 0.000000
# 6 0.000000 0.000000 0.000000 0.000000 0.000000 0.044442
#
#
# Mechanical properties :
#
#
# Convention : Reuss Voigt Hill
#
# Bulk Modulus (GPa) = 82.74460 82.74964 82.74712
# Shear Modulus (GPa) = 30.81495 31.91797 31.36646
#
# Velocity S-wave (km/s) = 4.04945 4.12128 4.08552
# Velocity P-wave (km/s) = 8.11764 8.16587 8.14179
#
# Compressibility (1/GPa) = 0.01208538
#
# Stress axis : x y z
#
# Youngs Moduli (GPa) = 96.34093 96.33829 100.18465
#
# Poissons Ratio (x) = 0.33279 0.29420
# Poissons Ratio (y) = 0.33280 0.29424
# Poissons Ratio (z) = 0.28292 0.28295
#
# Static dielectric constant tensor:
#      x y z
#    x 3.510470 0.000000 0.000000 
#    y 0.000000 3.510470 0.000000 
#    z 0.000000 0.000000 3.473390 
# 
# 
# High freq. dielectric constant tensor:
#      x y z
#    x 1.733920 0.000000 0.000000 
#    y 0.000000 1.733920 0.000000 
#    z 0.000000 0.000000 1.727690 
# 
# From -- ./inp_files/2308.got.cif
#   From: 2010.03.12/outbox.cif.g09.slc.cpg/sg139_2_cif.got.tgz:2308.got - 2010.04.08 09:46:31.
