data_PCOD8319322
_publ_section_title
;
Structure prediction by ZEFSAII (Michael W. Deem and Ramdas Pophale) SiO2 
 PCOD8319322
Probable space group: I 4/M M M
;
_chemical_formula_sum "Si O2"
_cell_formula_units_Z 128
_cell_length_a 30.280117
_cell_length_b 30.280117
_cell_length_c 9.106968
_cell_angle_alpha 90.000000
_cell_angle_beta 90.000000
_cell_angle_gamma 90.000000
_cell_volume 8350.046776
_symmetry_space_group_name_H-M "I 4/M M M"
_symmetry_group_IT_number 139
_symmetry_cell_setting 'tetragonal'
loop_
_space_group_symop_operation_xyz
x,y,z
-y,x,z
-x,-y,z
y,-x,z
x,-y,-z
-x,y,-z
y,x,-z
-y,-x,-z
-x,-y,-z
y,-x,-z
x,y,-z
-y,x,-z
-x,y,z
x,-y,z
-y,-x,z
y,x,z
1/2+x,1/2+y,1/2+z
1/2-y,1/2+x,1/2+z
1/2-x,1/2-y,1/2+z
1/2+y,1/2-x,1/2+z
1/2+x,1/2-y,1/2-z
1/2-x,1/2+y,1/2-z
1/2+y,1/2+x,1/2-z
1/2-y,1/2-x,1/2-z
1/2-x,1/2-y,1/2-z
1/2+y,1/2-x,1/2-z
1/2+x,1/2+y,1/2-z
1/2-y,1/2+x,1/2-z
1/2-x,1/2+y,1/2+z
1/2+x,1/2-y,1/2+z
1/2-y,1/2-x,1/2+z
1/2+y,1/2+x,1/2+z
loop_
_atom_site_type_symbol
_atom_site_label
_atom_site_fract_x
_atom_site_fract_y
_atom_site_fract_z
Si Si1 0.817951 0.254894 0.669605
Si Si2 0.355794 0.085135 0.164362
Si Si3 0.500000 0.758818 0.671971
Si Si4 0.850351 0.500000 0.826175
Si Si5 0.405206 0.248258 0.338517
O O1 0.821340 0.267473 0.500000
O O2 0.786703 0.213298 0.698568
O O3 0.798164 0.298164 0.750000
O O4 0.866408 0.240284 0.725098
O O5 0.371427 0.128574 0.250000
O O6 0.303507 0.086173 0.160096
O O7 0.373324 0.042853 0.254767
O O8 0.375280 0.083975 0.000000
O O9 0.500000 0.775110 0.500000
O O10 0.500000 0.798830 0.786015
O O11 0.454096 0.731065 0.700554
O O12 0.856794 0.500000 0.000000
O O13 0.389958 0.264594 0.500000
#
# Coordination Sequence:
#
# PCOD8319322 Si02
#       5
#    32  32  16  16  32
#     4  10  20  31  42  58  82 112 145 178 209 243
#     4  10  19  30  43  60  79  98 122 155 194 235
#     4   8  16  30  44  60  81 103 128 163 205 244
#     4  10  18  28  42  59  77  98 122 150 189 235
#     4   9  17  29  45  62  81 104 131 165 203 241
#
# _framework density 15.329255
#
# number of rings (size 3 to 8) (size 9 to 14) (size 15 to 20)
#    0.000    2.500    0.000    4.875    0.000    8.500 
#    0.000    0.000    0.000    0.375    0.000    2.625 
#    0.000    0.000    0.000    0.000    0.000    0.625 
#
# Total GULP energy -792996.329424 kJ/mol
# GULP energy per Si atom -12390.567647 kJ/mol
# Density = 1.529437 g / cm^3
# Si number density = 15.329255 Si / 1000 Ang^3
#
#
#
# Elastic Constant Matrix: (Units=GPa)
#
#
# Indices 1 2 3 4 5 6 
#
# 1 59.9042 11.2214 31.8044 0.0000 0.0000 0.0000
# 2 11.2214 59.9028 31.8040 0.0000 0.0000 0.0000
# 3 31.8044 31.8040 113.0414 0.0000 0.0000 0.0000
# 4 0.0000 0.0000 0.0000 22.6503 0.0000 0.0000
# 5 0.0000 0.0000 0.0000 0.0000 22.6507 0.0000
# 6 0.0000 0.0000 0.0000 0.0000 0.0000 10.3347
#
#
#
# Elastic Compliance Matrix: (Units=1/GPa)
#
#
# Indices 1 2 3 4 5 6 
#
# 1 0.019664 -0.000877 -0.005286 0.000000 0.000000 0.000000
# 2 -0.000877 0.019664 -0.005286 0.000000 0.000000 0.000000
# 3 -0.005286 -0.005286 0.011821 0.000000 0.000000 0.000000
# 4 0.000000 0.000000 0.000000 0.044149 0.000000 0.000000
# 5 0.000000 0.000000 0.000000 0.000000 0.044149 0.000000
# 6 0.000000 0.000000 0.000000 0.000000 0.000000 0.096762
#
#
# Mechanical properties :
#
#
# Convention : Reuss Voigt Hill
#
# Bulk Modulus (GPa) = 35.39626 42.50089 38.94858
# Shear Modulus (GPa) = 18.62036 21.66170 20.14103
#
# Velocity S-wave (km/s) = 3.48903 3.76319 3.62870
# Velocity P-wave (km/s) = 6.27470 6.83138 6.55895
#
# Compressibility (1/GPa) = 0.02825157
#
# Stress axis : x y z
#
# Youngs Moduli (GPa) = 50.85451 50.85332 84.59824
#
# Poissons Ratio (x) = 0.04461 0.44716
# Poissons Ratio (y) = 0.04461 0.44716
# Poissons Ratio (z) = 0.26880 0.26880
#
# Static dielectric constant tensor:
#      x y z
#    x 2.904750 0.000000 0.000000 
#    y 0.000000 2.904750 0.000000 
#    z 0.000000 0.000000 3.060100 
# 
# 
# High freq. dielectric constant tensor:
#      x y z
#    x 1.553240 0.000000 0.000000 
#    y 0.000000 1.553240 0.000000 
#    z 0.000000 0.000000 1.601970 
# 
# From -- ./inp_files/1805.got.cif
#   From: 2010.03.12/outbox.cif.g09.slc.cpg/sg139_1_cif.got.tgz:1805.got - 2010.04.08 09:46:31.
