data_PCOD8319593
_publ_section_title
;
Structure prediction by ZEFSAII (Michael W. Deem and Ramdas Pophale) SiO2 
 PCOD8319593
Probable space group: I 4/M M M
;
_chemical_formula_sum "Si O2"
_cell_formula_units_Z 160
_cell_length_a 32.114507
_cell_length_b 32.114507
_cell_length_c 7.837483
_cell_angle_alpha 90.000000
_cell_angle_beta 90.000000
_cell_angle_gamma 90.000000
_cell_volume 8083.121943
_symmetry_space_group_name_H-M "I 4/M M M"
_symmetry_group_IT_number 139
_symmetry_cell_setting 'tetragonal'
loop_
_space_group_symop_operation_xyz
x,y,z
-y,x,z
-x,-y,z
y,-x,z
x,-y,-z
-x,y,-z
y,x,-z
-y,-x,-z
-x,-y,-z
y,-x,-z
x,y,-z
-y,x,-z
-x,y,z
x,-y,z
-y,-x,z
y,x,z
1/2+x,1/2+y,1/2+z
1/2-y,1/2+x,1/2+z
1/2-x,1/2-y,1/2+z
1/2+y,1/2-x,1/2+z
1/2+x,1/2-y,1/2-z
1/2-x,1/2+y,1/2-z
1/2+y,1/2+x,1/2-z
1/2-y,1/2-x,1/2-z
1/2-x,1/2-y,1/2-z
1/2+y,1/2-x,1/2-z
1/2+x,1/2+y,1/2-z
1/2-y,1/2+x,1/2-z
1/2-x,1/2+y,1/2+z
1/2+x,1/2-y,1/2+z
1/2-y,1/2-x,1/2+z
1/2+y,1/2+x,1/2+z
loop_
_atom_site_type_symbol
_atom_site_label
_atom_site_fract_x
_atom_site_fract_y
_atom_site_fract_z
Si Si1 0.046199 0.046199 0.197928
Si Si2 0.548938 0.742065 0.500000
Si Si3 0.451081 0.888983 0.808465
Si Si4 0.209785 0.100606 0.298854
Si Si5 0.748674 0.185924 0.299879
Si Si6 0.613699 0.386302 0.804798
Si Si7 0.665773 0.950461 0.000000
O O1 0.081458 0.081458 0.221083
O O2 0.000000 0.059052 0.272538
O O3 0.040724 0.040724 0.000000
O O4 0.500000 0.741309 0.500000
O O5 0.562492 0.721440 0.322347
O O6 0.567456 0.788284 0.500000
O O7 0.500000 0.893362 0.798745
O O8 0.433359 0.933359 0.750000
O O9 0.433608 0.855354 0.673715
O O10 0.436837 0.876396 0.000000
O O11 0.216856 0.090449 0.500000
O O12 0.238330 0.139825 0.237729
O O13 0.161472 0.106609 0.256039
O O14 0.753773 0.185832 0.500000
O O15 0.781495 0.218506 0.217346
O O16 0.701705 0.201705 0.250000
O O17 0.605864 0.394137 0.000000
O O18 0.664425 0.000000 0.000000
#
# Coordination Sequence:
#
# PCOD8319593 Si02
#       7
#    16  16  32  32  32  16  16
#     4   9  20  38  58  85 123 163 205 258 315 367
#     4  11  26  43  63  86 112 157 211 259 306 356
#     4  10  19  32  56  85 114 151 190 236 298 362
#     4  10  22  41  63  91 127 160 200 250 306 368
#     4   9  17  32  56  86 120 157 193 234 292 367
#     4  10  21  39  62  89 125 164 199 246 299 365
#     4   9  20  40  56  75 108 148 200 246 286 350
#
# _framework density 19.794333000000002
#
# number of rings (size 3 to 8) (size 9 to 14) (size 15 to 20)
#    0.000    2.300    2.000    0.300    2.800    2.600 
#    0.000    6.500    0.000    0.000    0.000    0.000 
#    0.000    0.000    0.000    0.000    0.000    0.000 
#
# Total GULP energy -991093.846149 kJ/mol
# GULP energy per Si atom -12388.673077 kJ/mol
# Density = 1.974928 g / cm^3
# Si number density = 19.794333 Si / 1000 Ang^3
#
#
#
# Elastic Constant Matrix: (Units=GPa)
#
#
# Indices 1 2 3 4 5 6 
#
# 1 105.9226 49.0462 48.9913 0.0000 0.0000 0.0000
# 2 49.0462 105.9214 48.9924 0.0000 0.0000 0.0000
# 3 48.9913 48.9924 123.5739 0.0000 0.0000 0.0000
# 4 0.0000 0.0000 0.0000 21.2794 0.0000 0.0000
# 5 0.0000 0.0000 0.0000 0.0000 21.2798 0.0000
# 6 0.0000 0.0000 0.0000 0.0000 0.0000 35.2246
#
#
#
# Elastic Compliance Matrix: (Units=1/GPa)
#
#
# Indices 1 2 3 4 5 6 
#
# 1 0.013097 -0.004485 -0.003414 0.000000 0.000000 0.000000
# 2 -0.004485 0.013097 -0.003414 0.000000 0.000000 0.000000
# 3 -0.003414 -0.003414 0.010799 0.000000 0.000000 0.000000
# 4 0.000000 0.000000 0.000000 0.046994 0.000000 0.000000
# 5 0.000000 0.000000 0.000000 0.000000 0.046993 0.000000
# 6 0.000000 0.000000 0.000000 0.000000 0.000000 0.028389
#
#
# Mechanical properties :
#
#
# Convention : Reuss Voigt Hill
#
# Bulk Modulus (GPa) = 69.60813 69.94195 69.77504
# Shear Modulus (GPa) = 26.76872 28.11595 27.44234
#
# Velocity S-wave (km/s) = 3.68141 3.77291 3.72744
# Velocity P-wave (km/s) = 7.30153 7.37502 7.33837
#
# Compressibility (1/GPa) = 0.01436614
#
# Stress axis : x y z
#
# Youngs Moduli (GPa) = 76.35481 76.35301 92.59722
#
# Poissons Ratio (x) = 0.34246 0.31613
# Poissons Ratio (y) = 0.34247 0.31615
# Poissons Ratio (z) = 0.26068 0.26069
#
# Static dielectric constant tensor:
#      x y z
#    x 3.858880 0.000000 0.000000 
#    y 0.000000 3.858510 0.000000 
#    z 0.000000 0.000000 3.735040 
# 
# 
# High freq. dielectric constant tensor:
#      x y z
#    x 1.761560 0.000000 0.000000 
#    y 0.000000 1.761560 0.000000 
#    z 0.000000 0.000000 1.778350 
# 
# From -- ./inp_files/2318.got.cif
#   From: 2010.03.12/outbox.cif.g09.slc.cpg/sg139_2_cif.got.tgz:2318.got - 2010.04.08 09:46:31.
