data_PCOD8319295
_publ_section_title
;
Structure prediction by ZEFSAII (Michael W. Deem and Ramdas Pophale) SiO2 
 PCOD8319295
Probable space group: I 4/M M M
;
_chemical_formula_sum "Si O2"
_cell_formula_units_Z 104
_cell_length_a 29.538044
_cell_length_b 29.538044
_cell_length_c 7.931191
_cell_angle_alpha 90.000000
_cell_angle_beta 90.000000
_cell_angle_gamma 90.000000
_cell_volume 6919.932767
_symmetry_space_group_name_H-M "I 4/M M M"
_symmetry_group_IT_number 139
_symmetry_cell_setting 'tetragonal'
loop_
_space_group_symop_operation_xyz
x,y,z
-y,x,z
-x,-y,z
y,-x,z
x,-y,-z
-x,y,-z
y,x,-z
-y,-x,-z
-x,-y,-z
y,-x,-z
x,y,-z
-y,x,-z
-x,y,z
x,-y,z
-y,-x,z
y,x,z
1/2+x,1/2+y,1/2+z
1/2-y,1/2+x,1/2+z
1/2-x,1/2-y,1/2+z
1/2+y,1/2-x,1/2+z
1/2+x,1/2-y,1/2-z
1/2-x,1/2+y,1/2-z
1/2+y,1/2+x,1/2-z
1/2-y,1/2-x,1/2-z
1/2-x,1/2-y,1/2-z
1/2+y,1/2-x,1/2-z
1/2+x,1/2+y,1/2-z
1/2-y,1/2+x,1/2-z
1/2-x,1/2+y,1/2+z
1/2+x,1/2-y,1/2+z
1/2-y,1/2-x,1/2+z
1/2+y,1/2+x,1/2+z
loop_
_atom_site_type_symbol
_atom_site_label
_atom_site_fract_x
_atom_site_fract_y
_atom_site_fract_z
Si Si1 0.642061 0.500000 0.000000
Si Si2 0.771431 0.949677 0.500000
Si Si3 0.376607 0.051268 0.303118
Si Si4 0.574460 0.500000 0.308805
Si Si5 0.446121 0.220450 0.316435
O O1 0.673765 0.545200 0.000000
O O2 0.613713 0.500000 0.828708
O O3 0.753357 0.925291 0.329275
O O4 0.749075 0.000000 0.500000
O O5 0.367494 0.054302 0.500000
O O6 0.418880 0.081121 0.250000
O O7 0.331229 0.069120 0.213195
O O8 0.387705 0.000000 0.247296
O O9 0.544404 0.544404 0.280404
O O10 0.594365 0.500000 0.500000
O O11 0.427330 0.235859 0.500000
O O12 0.500000 0.224056 0.316290
#
# Coordination Sequence:
#
# PCOD8319295 Si02
#       5
#     8  16  32  16  32
#     4  10  18  25  46  68  92 114 169 204 228 244
#     4   8  16  26  37  60  81 102 134 186 228 263
#     4  10  19  29  40  52  70  93 131 183 228 285
#     4   9  18  32  48  68 100 142 178 199 210 224
#     4   9  15  26  41  52  71  99 126 166 225 281
#
# _framework density 15.029048
#
# number of rings (size 3 to 8) (size 9 to 14) (size 15 to 20)
#    0.462    2.308    1.538    1.846    0.000    4.000 
#    0.000    1.538    0.000    0.000    0.000    0.000 
#    0.000    0.000    0.000    0.000    0.000    6.154 
#
# Total GULP energy -644282.019135 kJ/mol
# GULP energy per Si atom -12390.038830 kJ/mol
# Density = 1.499484 g / cm^3
# Si number density = 15.029048 Si / 1000 Ang^3
#
#
#
# Elastic Constant Matrix: (Units=GPa)
#
#
# Indices 1 2 3 4 5 6 
#
# 1 60.0861 24.4323 46.6296 0.0000 0.0000 0.0000
# 2 24.4323 60.0916 46.6258 0.0000 0.0000 0.0000
# 3 46.6296 46.6258 144.7044 0.0000 0.0000 0.0000
# 4 0.0000 0.0000 0.0000 19.4358 0.0000 0.0000
# 5 0.0000 0.0000 0.0000 0.0000 19.4359 0.0000
# 6 0.0000 0.0000 0.0000 0.0000 0.0000 -0.0213
#
#
#
# Elastic Compliance Matrix: (Units=1/GPa)
#
#
# Indices 1 2 3 4 5 6 
#
# 1 0.023204 -0.004844 -0.005917 0.000000 0.000000 0.000000
# 2 -0.004844 0.023200 -0.005914 0.000000 0.000000 0.000000
# 3 -0.005917 -0.005914 0.010723 0.000000 0.000000 0.000000
# 4 0.000000 0.000000 0.000000 0.051452 0.000000 0.000000
# 5 0.000000 0.000000 0.000000 0.000000 0.051451 0.000000
# 6 0.000000 0.000000 0.000000 0.000000 0.000000-46.954368
#
#
# Mechanical properties :
#
#
# Convention : Reuss Voigt Hill
#
# Bulk Modulus (GPa) = 42.05705 55.58418 48.82061
# Shear Modulus (GPa) = -0.10694 17.58303 8.73804
#
# Velocity S-wave (km/s) = -0.26705 3.42414 2.41386
# Velocity P-wave (km/s) = 5.28673 7.25932 6.35009
#
# Compressibility (1/GPa) = 0.02377723
#
# Stress axis : x y z
#
# Youngs Moduli (GPa) = 43.09636 43.10395 93.25816
#
# Poissons Ratio (x) = 0.20878 0.55177
# Poissons Ratio (y) = 0.20874 0.55157
# Poissons Ratio (z) = 0.25498 0.25494
#
# Static dielectric constant tensor:
#      x y z
#    x 2.919530 0.000000 0.000000 
#    y 0.000000 2.919420 0.000000 
#    z 0.000000 0.000000 3.341500 
# 
# 
# High freq. dielectric constant tensor:
#      x y z
#    x 1.527690 0.000000 0.000000 
#    y 0.000000 1.527690 0.000000 
#    z 0.000000 0.000000 1.606760 
# 
# From -- ./inp_files/1453.got.cif
#   From: 2010.03.12/outbox.cif.g09.slc.cpg/sg139_1_cif.got.tgz:1453.got - 2010.04.08 09:46:31.
