data_PCOD8319961
_publ_section_title
;
Structure prediction by ZEFSAII (Michael W. Deem and Ramdas Pophale) SiO2 
 PCOD8319961
Probable space group: I 4/M M M
;
_chemical_formula_sum "Si O2"
_cell_formula_units_Z 144
_cell_length_a 22.324629
_cell_length_b 22.324629
_cell_length_c 14.833330
_cell_angle_alpha 90.000000
_cell_angle_beta 90.000000
_cell_angle_gamma 90.000000
_cell_volume 7392.769395
_symmetry_space_group_name_H-M "I 4/M M M"
_symmetry_group_IT_number 139
_symmetry_cell_setting 'tetragonal'
loop_
_space_group_symop_operation_xyz
x,y,z
-y,x,z
-x,-y,z
y,-x,z
x,-y,-z
-x,y,-z
y,x,-z
-y,-x,-z
-x,-y,-z
y,-x,-z
x,y,-z
-y,x,-z
-x,y,z
x,-y,z
-y,-x,z
y,x,z
1/2+x,1/2+y,1/2+z
1/2-y,1/2+x,1/2+z
1/2-x,1/2-y,1/2+z
1/2+y,1/2-x,1/2+z
1/2+x,1/2-y,1/2-z
1/2-x,1/2+y,1/2-z
1/2+y,1/2+x,1/2-z
1/2-y,1/2-x,1/2-z
1/2-x,1/2-y,1/2-z
1/2+y,1/2-x,1/2-z
1/2+x,1/2+y,1/2-z
1/2-y,1/2+x,1/2-z
1/2-x,1/2+y,1/2+z
1/2+x,1/2-y,1/2+z
1/2-y,1/2-x,1/2+z
1/2+y,1/2+x,1/2+z
loop_
_atom_site_type_symbol
_atom_site_label
_atom_site_fract_x
_atom_site_fract_y
_atom_site_fract_z
Si Si1 0.569150 0.000000 0.392302
Si Si2 0.630148 0.274130 0.896051
Si Si3 0.733607 0.070276 0.102947
Si Si4 0.069105 0.164342 0.761708
Si Si5 0.362489 0.882564 0.606685
O O1 0.605751 0.942414 0.354780
O O2 0.500000 0.000000 0.356970
O O3 0.568381 0.000000 0.500000
O O4 0.696849 0.303152 0.882785
O O5 0.582381 0.311328 0.838270
O O6 0.626552 0.205891 0.861504
O O7 0.610265 0.278705 0.000000
O O8 0.788703 0.091660 0.163544
O O9 0.674334 0.101106 0.142948
O O10 0.722996 0.000000 0.110067
O O11 0.746224 0.090104 0.000000
O O12 0.102664 0.102664 0.780457
O O13 0.000000 0.150112 0.772027
O O14 0.365824 0.884911 0.500000
#
# Coordination Sequence:
#
# PCOD8319961 Si02
#       5
#    16  32  32  32  32
#     4   9  16  26  44  76 112 144 186 228 262 315
#     4   9  19  35  54  79 108 136 174 223 272 325
#     4   9  18  34  54  77 108 144 181 220 262 312
#     4  10  22  38  57  81 105 136 175 220 275 332
#     4   9  17  29  50  78 107 145 183 221 269 316
#
# _framework density 19.478491000000002
#
# number of rings (size 3 to 8) (size 9 to 14) (size 15 to 20)
#    0.000    2.778    0.000    0.667    1.556    5.556 
#    0.000    4.444    0.000    0.000    0.000    6.222 
#    0.000    0.000    0.000    0.000    0.000    0.000 
#
# Total GULP energy -892674.288814 kJ/mol
# GULP energy per Si atom -12398.254011 kJ/mol
# Density = 1.943416 g / cm^3
# Si number density = 19.478491 Si / 1000 Ang^3
#
#
#
# Elastic Constant Matrix: (Units=GPa)
#
#
# Indices 1 2 3 4 5 6 
#
# 1 127.6127 91.4690 38.0791 0.0000 0.0000 0.0000
# 2 91.4690 127.6127 38.0791 0.0000 0.0000 0.0000
# 3 38.0791 38.0791 55.0672 0.0000 0.0000 0.0000
# 4 0.0000 0.0000 0.0000 19.1591 0.0000 0.0000
# 5 0.0000 0.0000 0.0000 0.0000 19.1591 0.0000
# 6 0.0000 0.0000 0.0000 0.0000 0.0000 32.5671
#
#
#
# Elastic Compliance Matrix: (Units=1/GPa)
#
#
# Indices 1 2 3 4 5 6 
#
# 1 0.016838 -0.010829 -0.004155 0.000000 0.000000 0.000000
# 2 -0.010829 0.016838 -0.004155 0.000000 0.000000 0.000000
# 3 -0.004155 -0.004155 0.023906 0.000000 0.000000 0.000000
# 4 0.000000 0.000000 0.000000 0.052195 0.000000 0.000000
# 5 0.000000 0.000000 0.000000 0.000000 0.052195 0.000000
# 6 0.000000 0.000000 0.000000 0.000000 0.000000 0.030706
#
#
# Mechanical properties :
#
#
# Convention : Reuss Voigt Hill
#
# Bulk Modulus (GPa) = 51.80437 71.72744 61.76590
# Shear Modulus (GPa) = 21.06228 23.68808 22.37518
#
# Velocity S-wave (km/s) = 3.29189 3.49107 3.39294
# Velocity P-wave (km/s) = 6.41110 7.29067 6.86499
#
# Compressibility (1/GPa) = 0.01930339
#
# Stress axis : x y z
#
# Youngs Moduli (GPa) = 59.38894 59.38894 41.82996
#
# Poissons Ratio (x) = 0.64313 0.17381
# Poissons Ratio (y) = 0.64313 0.17381
# Poissons Ratio (z) = 0.24677 0.24677
#
# Static dielectric constant tensor:
#      x y z
#    x 3.592840 0.000000 0.000000 
#    y 0.000000 3.592840 0.000000 
#    z 0.000000 0.000000 3.434530 
# 
# 
# High freq. dielectric constant tensor:
#      x y z
#    x 1.755320 0.000000 0.000000 
#    y 0.000000 1.755320 0.000000 
#    z 0.000000 0.000000 1.750160 
# 
# From -- ./inp_files/8195.got.cif
#   From: 2010.03.12/outbox.cif.g09.slc.cpg/sg139_5_cif.got.tgz:8195.got - 2010.04.08 09:46:31.
