data_PCOD8319096
_publ_section_title
;
Structure prediction by ZEFSAII (Michael W. Deem and Ramdas Pophale) SiO2 
 PCOD8319096
Probable space group: P 42/N C M
;
_chemical_formula_sum "Si O2"
_cell_formula_units_Z 64
_cell_length_a 12.686209
_cell_length_b 12.686209
_cell_length_c 20.187670
_cell_angle_alpha 90.000000
_cell_angle_beta 90.000000
_cell_angle_gamma 90.000000
_cell_volume 3249.001567
_symmetry_space_group_name_H-M "P 42/N C M"
_symmetry_group_IT_number 138
_space_group.IT_coordinate_system_code '2'
_symmetry_cell_setting 'tetragonal'
loop_
_space_group_symop_operation_xyz
x,y,z
1/2-y,x,1/2+z
1/2-x,1/2-y,z
y,1/2-x,1/2+z
1/2+x,-y,1/2-z
-x,1/2+y,1/2-z
1/2+y,1/2+x,-z
-y,-x,-z
-x,-y,-z
1/2+y,-x,1/2-z
1/2+x,1/2+y,-z
-y,1/2+x,1/2-z
1/2-x,y,1/2+z
x,1/2-y,1/2+z
1/2-y,1/2-x,z
y,x,z
loop_
_atom_site_type_symbol
_atom_site_label
_atom_site_fract_x
_atom_site_fract_y
_atom_site_fract_z
Si Si1 0.171566 0.999008 0.503445
Si Si2 0.182654 0.489527 0.623007
Si Si3 0.337027 0.988665 0.388257
Si Si4 0.078562 0.743024 0.243939
O O1 0.112902 0.887099 0.500000
O O2 0.269132 0.000715 0.453848
O O3 0.214584 0.015726 0.577353
O O4 0.092686 0.092686 0.484252
O O5 0.114522 0.385479 0.611035
O O6 0.117197 0.594446 0.605076
O O7 0.218947 0.493214 0.699327
O O8 0.261451 0.982597 0.324506
O O9 0.410313 0.089687 0.379703
O O10 0.143525 0.845431 0.266546
#
# Coordination Sequence:
#
# PCOD8319096 Si02
#       4
#    16  16  16  16
#     4  11  24  39  56  80 110 145 186 231 276 324
#     4  10  21  37  58  84 113 145 182 225 273 326
#     4  10  21  37  58  84 113 145 182 225 273 326
#     4   9  18  34  56  81 110 146 186 225 266 317
#
# _framework density 19.698359
#
# number of rings (size 3 to 8) (size 9 to 14) (size 15 to 20)
#    0.000    2.000    0.000    3.000    0.000   10.000 
#    0.000    5.000    0.000    0.000    0.000    0.000 
#    0.000    0.000    0.000    0.000    0.000    0.000 
#
# Total GULP energy -794002.857482 kJ/mol
# GULP energy per Si atom -12406.294648 kJ/mol
# Density = 1.965352 g / cm^3
# Si number density = 19.698359 Si / 1000 Ang^3
#
#
#
# Elastic Constant Matrix: (Units=GPa)
#
#
# Indices 1 2 3 4 5 6 
#
# 1 53.6320 21.6349 19.8547 0.0000 0.0000 0.0000
# 2 21.6349 53.6343 19.8565 0.0000 0.0000 0.0000
# 3 19.8547 19.8565 79.9820 0.0000 0.0000 0.0000
# 4 0.0000 0.0000 0.0000 25.8688 0.0000 0.0000
# 5 0.0000 0.0000 0.0000 0.0000 25.8675 0.0000
# 6 0.0000 0.0000 0.0000 0.0000 0.0000 20.2662
#
#
#
# Elastic Compliance Matrix: (Units=1/GPa)
#
#
# Indices 1 2 3 4 5 6 
#
# 1 0.023270 -0.007982 -0.003795 0.000000 0.000000 0.000000
# 2 -0.007982 0.023270 -0.003796 0.000000 0.000000 0.000000
# 3 -0.003795 -0.003796 0.014387 0.000000 0.000000 0.000000
# 4 0.000000 0.000000 0.000000 0.038657 0.000000 0.000000
# 5 0.000000 0.000000 0.000000 0.000000 0.038659 0.000000
# 6 0.000000 0.000000 0.000000 0.000000 0.000000 0.049343
#
#
# Mechanical properties :
#
#
# Convention : Reuss Voigt Hill
#
# Bulk Modulus (GPa) = 33.57687 34.43784 34.00735
# Shear Modulus (GPa) = 21.86674 22.79398 22.33036
#
# Velocity S-wave (km/s) = 3.33540 3.40538 3.37057
# Velocity P-wave (km/s) = 5.64940 5.74306 5.69642
#
# Compressibility (1/GPa) = 0.02978241
#
# Stress axis : x y z
#
# Youngs Moduli (GPa) = 42.97320 42.97441 69.50627
#
# Poissons Ratio (x) = 0.34301 0.26378
# Poissons Ratio (y) = 0.34300 0.26382
# Poissons Ratio (z) = 0.16309 0.16311
#
# Static dielectric constant tensor:
#      x y z
#    x 3.540340 0.000000 0.000000 
#    y 0.000000 3.540330 0.000000 
#    z 0.000000 0.000000 3.601300 
# 
# 
# High freq. dielectric constant tensor:
#      x y z
#    x 1.763800 0.000000 0.000000 
#    y 0.000000 1.763800 0.000000 
#    z 0.000000 0.000000 1.778020 
# 
# From -- ./inp_files/5818.got.cif
#   From: 2010.03.12/outbox.cif.g09.slc.cpg/sg138_3_cif.got.tgz:5818.got - 2010.04.08 09:41:05.
