data_PCOD8319672
_publ_section_title
;
Structure prediction by ZEFSAII (Michael W. Deem and Ramdas Pophale) SiO2 
 PCOD8319672
Probable space group: I 4/M M M
;
_chemical_formula_sum "Si O2"
_cell_formula_units_Z 240
_cell_length_a 20.259132
_cell_length_b 20.259132
_cell_length_c 32.198158
_cell_angle_alpha 90.000000
_cell_angle_beta 90.000000
_cell_angle_gamma 90.000000
_cell_volume 13215.168210
_symmetry_space_group_name_H-M "I 4/M M M"
_symmetry_group_IT_number 139
_symmetry_cell_setting 'tetragonal'
loop_
_space_group_symop_operation_xyz
x,y,z
-y,x,z
-x,-y,z
y,-x,z
x,-y,-z
-x,y,-z
y,x,-z
-y,-x,-z
-x,-y,-z
y,-x,-z
x,y,-z
-y,x,-z
-x,y,z
x,-y,z
-y,-x,z
y,x,z
1/2+x,1/2+y,1/2+z
1/2-y,1/2+x,1/2+z
1/2-x,1/2-y,1/2+z
1/2+y,1/2-x,1/2+z
1/2+x,1/2-y,1/2-z
1/2-x,1/2+y,1/2-z
1/2+y,1/2+x,1/2-z
1/2-y,1/2-x,1/2-z
1/2-x,1/2-y,1/2-z
1/2+y,1/2-x,1/2-z
1/2+x,1/2+y,1/2-z
1/2-y,1/2+x,1/2-z
1/2-x,1/2+y,1/2+z
1/2+x,1/2-y,1/2+z
1/2-y,1/2-x,1/2+z
1/2+y,1/2+x,1/2+z
loop_
_atom_site_type_symbol
_atom_site_label
_atom_site_fract_x
_atom_site_fract_y
_atom_site_fract_z
Si Si1 0.074453 0.698516 0.153523
Si Si2 0.319214 0.423694 0.712059
Si Si3 0.139243 0.249755 0.454706
Si Si4 0.114478 0.423653 0.205110
Si Si5 0.680713 0.424047 0.115975
Si Si6 0.577355 0.262542 0.201420
Si Si7 0.259169 0.149682 0.072184
Si Si8 0.686861 0.577667 0.500000
O O1 0.092263 0.750815 0.189332
O O2 0.080716 0.624193 0.171321
O O3 0.119641 0.713731 0.114484
O O4 0.000000 0.708510 0.138480
O O5 0.339813 0.500000 0.706328
O O6 0.378525 0.378525 0.694231
O O7 0.309458 0.404766 0.760214
O O8 0.104756 0.249523 0.500000
O O9 0.192294 0.192294 0.451260
O O10 0.084645 0.237098 0.419259
O O11 0.176850 0.318831 0.449465
O O12 0.109541 0.500000 0.189744
O O13 0.080206 0.419795 0.250000
O O14 0.188968 0.396618 0.209400
O O15 0.661613 0.500000 0.120401
O O16 0.614014 0.385987 0.103713
O O17 0.708201 0.393107 0.158910
O O18 0.500000 0.257281 0.196004
O O19 0.204445 0.204445 0.082983
O O20 0.228657 0.095439 0.041146
O O21 0.670672 0.500000 0.500000
O O22 0.618138 0.618138 0.500000
#
# Coordination Sequence:
#
# PCOD8319672 Si02
#       8
#    32  32  32  32  32  32  32  16
#     4  11  22  35  52  79 110 142 179 223 272 323
#     4  10  20  35  53  74 106 144 183 228 272 317
#     4   9  17  32  53  76 101 129 169 222 273 319
#     4  11  21  36  56  79 108 143 183 225 278 342
#     4  10  20  33  52  77 107 145 184 226 277 332
#     4   9  18  34  52  73 105 140 177 223 273 320
#     4  10  19  35  58  81 108 141 180 227 275 325
#     4  10  20  35  58  88 119 153 186 222 274 332
#
# _framework density 18.16095
#
# number of rings (size 3 to 8) (size 9 to 14) (size 15 to 20)
#    0.000    2.000    2.000    2.400    0.000    1.533 
#    0.000    2.667    0.000    2.400    0.000    3.733 
#    0.000    2.133    0.000    0.000    0.000    0.000 
#
# Total GULP energy -1487670.553522 kJ/mol
# GULP energy per Si atom -12397.254613 kJ/mol
# Density = 1.811961 g / cm^3
# Si number density = 18.160950 Si / 1000 Ang^3
#
#
#
# Elastic Constant Matrix: (Units=GPa)
#
#
# Indices 1 2 3 4 5 6 
#
# 1 80.8831 37.6931 33.5486 0.0000 0.0000 0.0000
# 2 37.6931 80.8824 33.5487 0.0000 0.0000 0.0000
# 3 33.5486 33.5487 116.9586 0.0000 0.0000 0.0000
# 4 0.0000 0.0000 0.0000 24.5444 0.0000 0.0000
# 5 0.0000 0.0000 0.0000 0.0000 24.5444 0.0000
# 6 0.0000 0.0000 0.0000 0.0000 0.0000 24.0838
#
#
#
# Elastic Compliance Matrix: (Units=1/GPa)
#
#
# Indices 1 2 3 4 5 6 
#
# 1 0.016611 -0.006543 -0.002888 0.000000 0.000000 0.000000
# 2 -0.006543 0.016611 -0.002888 0.000000 0.000000 0.000000
# 3 -0.002888 -0.002888 0.010207 0.000000 0.000000 0.000000
# 4 0.000000 0.000000 0.000000 0.040742 0.000000 0.000000
# 5 0.000000 0.000000 0.000000 0.000000 0.040742 0.000000
# 6 0.000000 0.000000 0.000000 0.000000 0.000000 0.041522
#
#
# Mechanical properties :
#
#
# Convention : Reuss Voigt Hill
#
# Bulk Modulus (GPa) = 53.21817 54.25611 53.73714
# Shear Modulus (GPa) = 25.33758 26.23011 25.78385
#
# Velocity S-wave (km/s) = 3.73925 3.80454 3.77203
# Velocity P-wave (km/s) = 6.92892 7.01707 6.97313
#
# Compressibility (1/GPa) = 0.01879058
#
# Stress axis : x y z
#
# Youngs Moduli (GPa) = 60.20286 60.20220 97.97478
#
# Poissons Ratio (x) = 0.39391 0.28293
# Poissons Ratio (y) = 0.39391 0.28293
# Poissons Ratio (z) = 0.17385 0.17385
#
# Static dielectric constant tensor:
#      x y z
#    x 3.251420 0.000000 0.000000 
#    y 0.000000 3.251420 0.000000 
#    z 0.000000 0.000000 3.475020 
# 
# 
# High freq. dielectric constant tensor:
#      x y z
#    x 1.693770 0.000000 0.000000 
#    y 0.000000 1.693770 0.000000 
#    z 0.000000 0.000000 1.706970 
# 
# From -- ./inp_files/14625.got.cif
#   From: 2010.03.12/outbox.cif.g09.slc.cpg/sg139_8_cif.got.tgz:14625.got - 2010.04.08 09:46:31.
