data_PCOD8319795
_publ_section_title
;
Structure prediction by ZEFSAII (Michael W. Deem and Ramdas Pophale) SiO2 
 PCOD8319795
Probable space group: I 4/M M M
;
_chemical_formula_sum "Si O2"
_cell_formula_units_Z 184
_cell_length_a 22.649996
_cell_length_b 22.649996
_cell_length_c 20.255618
_cell_angle_alpha 90.000000
_cell_angle_beta 90.000000
_cell_angle_gamma 90.000000
_cell_volume 10391.584115
_symmetry_space_group_name_H-M "I 4/M M M"
_symmetry_group_IT_number 139
_symmetry_cell_setting 'tetragonal'
loop_
_space_group_symop_operation_xyz
x,y,z
-y,x,z
-x,-y,z
y,-x,z
x,-y,-z
-x,y,-z
y,x,-z
-y,-x,-z
-x,-y,-z
y,-x,-z
x,y,-z
-y,x,-z
-x,y,z
x,-y,z
-y,-x,z
y,x,z
1/2+x,1/2+y,1/2+z
1/2-y,1/2+x,1/2+z
1/2-x,1/2-y,1/2+z
1/2+y,1/2-x,1/2+z
1/2+x,1/2-y,1/2-z
1/2-x,1/2+y,1/2-z
1/2+y,1/2+x,1/2-z
1/2-y,1/2-x,1/2-z
1/2-x,1/2-y,1/2-z
1/2+y,1/2-x,1/2-z
1/2+x,1/2+y,1/2-z
1/2-y,1/2+x,1/2-z
1/2-x,1/2+y,1/2+z
1/2+x,1/2-y,1/2+z
1/2-y,1/2-x,1/2+z
1/2+y,1/2+x,1/2+z
loop_
_atom_site_type_symbol
_atom_site_label
_atom_site_fract_x
_atom_site_fract_y
_atom_site_fract_z
Si Si1 0.769809 0.230192 0.131769
Si Si2 0.934361 0.649938 0.425545
Si Si3 0.677753 0.322248 0.500000
Si Si4 0.434069 0.166430 0.613530
Si Si5 0.568581 0.729396 0.151543
Si Si6 0.432031 0.745905 0.500000
Si Si7 0.718184 0.128781 0.775465
Si Si8 0.825671 0.174330 0.580138
O O1 0.823452 0.254369 0.174993
O O2 0.719832 0.280169 0.116598
O O3 0.792367 0.207634 0.062489
O O4 0.913334 0.664254 0.500000
O O5 0.892102 0.603812 0.391260
O O6 0.932640 0.708100 0.382954
O O7 0.000000 0.622892 0.425796
O O8 0.607308 0.313096 0.500000
O O9 0.500000 0.146582 0.598334
O O10 0.413222 0.215621 0.562318
O O11 0.428732 0.196267 0.684995
O O12 0.500000 0.706690 0.160496
O O13 0.603958 0.736088 0.220960
O O14 0.607118 0.686734 0.104331
O O15 0.500000 0.726196 0.500000
O O16 0.658861 0.158861 0.750000
O O17 0.821375 0.178625 0.500000
#
# Coordination Sequence:
#
# PCOD8319795 Si02
#       8
#    16  32   8  32  32  16  32  16
#     4  12  22  34  59  94 117 147 188 236 310 361
#     4  10  20  34  53  75 104 147 195 239 289 344
#     4  12  22  38  62  81 122 148 174 241 290 346
#     4  11  21  34  52  75 108 147 191 235 276 329
#     4  11  24  40  58  83 118 159 196 242 301 363
#     4  10  22  38  57  83 111 145 184 227 279 340
#     4  12  21  35  56  80 117 151 188 230 287 355
#     4  12  23  37  62  91 125 153 195 259 307 371
#
# _framework density 17.706636
#
# number of rings (size 3 to 8) (size 9 to 14) (size 15 to 20)
#    0.000    0.870    6.522    1.826    0.000    1.391 
#    0.000    0.870    0.000    0.391    0.000    0.609 
#    0.000    0.000    0.000    0.000    0.000    0.000 
#
# Total GULP energy -1140242.425901 kJ/mol
# GULP energy per Si atom -12393.939412 kJ/mol
# Density = 1.766634 g / cm^3
# Si number density = 17.706636 Si / 1000 Ang^3
#
#
#
# Elastic Constant Matrix: (Units=GPa)
#
#
# Indices 1 2 3 4 5 6 
#
# 1 95.7481 41.8685 31.2182 0.0000 0.0000 0.0000
# 2 41.8685 95.7458 31.2170 0.0000 0.0000 0.0000
# 3 31.2182 31.2170 111.3027 0.0000 0.0000 0.0000
# 4 0.0000 0.0000 0.0000 32.4788 0.0000 0.0000
# 5 0.0000 0.0000 0.0000 0.0000 32.4801 0.0000
# 6 0.0000 0.0000 0.0000 0.0000 0.0000 7.7600
#
#
#
# Elastic Compliance Matrix: (Units=1/GPa)
#
#
# Indices 1 2 3 4 5 6 
#
# 1 0.013443 -0.005117 -0.002335 0.000000 0.000000 0.000000
# 2 -0.005117 0.013443 -0.002335 0.000000 0.000000 0.000000
# 3 -0.002335 -0.002335 0.010294 0.000000 0.000000 0.000000
# 4 0.000000 0.000000 0.000000 0.030789 0.000000 0.000000
# 5 0.000000 0.000000 0.000000 0.000000 0.030788 0.000000
# 6 0.000000 0.000000 0.000000 0.000000 0.000000 0.128866
#
#
# Mechanical properties :
#
#
# Convention : Reuss Voigt Hill
#
# Bulk Modulus (GPa) = 56.79995 56.82267 56.81131
# Shear Modulus (GPa) = 19.75752 27.77663 23.76707
#
# Velocity S-wave (km/s) = 3.34402 3.96499 3.66767
# Velocity P-wave (km/s) = 6.85988 7.28851 7.07744
#
# Compressibility (1/GPa) = 0.01760565
#
# Stress axis : x y z
#
# Youngs Moduli (GPa) = 74.38764 74.38628 97.13951
#
# Poissons Ratio (x) = 0.38064 0.22685
# Poissons Ratio (y) = 0.38065 0.22684
# Poissons Ratio (z) = 0.17372 0.17371
#
# Static dielectric constant tensor:
#      x y z
#    x 3.406710 0.000000 0.000000 
#    y 0.000000 3.406700 0.000000 
#    z 0.000000 0.000000 3.796830 
# 
# 
# High freq. dielectric constant tensor:
#      x y z
#    x 1.670010 0.000000 0.000000 
#    y 0.000000 1.670010 0.000000 
#    z 0.000000 0.000000 1.707860 
# 
# From -- ./inp_files/8748.got.cif
#   From: 2010.03.12/outbox.cif.g09.slc.cpg/sg139_5_cif.got.tgz:8748.got - 2010.04.08 09:46:31.
