data_PCOD8319600
_publ_section_title
;
Structure prediction by ZEFSAII (Michael W. Deem and Ramdas Pophale) SiO2 
 PCOD8319600
Probable space group: I 4/M M M
;
_chemical_formula_sum "Si O2"
_cell_formula_units_Z 112
_cell_length_a 19.211542
_cell_length_b 19.211542
_cell_length_c 17.485475
_cell_angle_alpha 90.000000
_cell_angle_beta 90.000000
_cell_angle_gamma 90.000000
_cell_volume 6453.597620
_symmetry_space_group_name_H-M "I 4/M M M"
_symmetry_group_IT_number 139
_symmetry_cell_setting 'tetragonal'
loop_
_space_group_symop_operation_xyz
x,y,z
-y,x,z
-x,-y,z
y,-x,z
x,-y,-z
-x,y,-z
y,x,-z
-y,-x,-z
-x,-y,-z
y,-x,-z
x,y,-z
-y,x,-z
-x,y,z
x,-y,z
-y,-x,z
y,x,z
1/2+x,1/2+y,1/2+z
1/2-y,1/2+x,1/2+z
1/2-x,1/2-y,1/2+z
1/2+y,1/2-x,1/2+z
1/2+x,1/2-y,1/2-z
1/2-x,1/2+y,1/2-z
1/2+y,1/2+x,1/2-z
1/2-y,1/2-x,1/2-z
1/2-x,1/2-y,1/2-z
1/2+y,1/2-x,1/2-z
1/2+x,1/2+y,1/2-z
1/2-y,1/2+x,1/2-z
1/2-x,1/2+y,1/2+z
1/2+x,1/2-y,1/2+z
1/2-y,1/2-x,1/2+z
1/2+y,1/2+x,1/2+z
loop_
_atom_site_type_symbol
_atom_site_label
_atom_site_fract_x
_atom_site_fract_y
_atom_site_fract_z
Si Si1 0.861265 0.752617 0.271229
Si Si2 0.800112 0.577984 0.626031
Si Si3 0.581383 0.817210 0.088431
Si Si4 0.305442 0.582278 0.500000
O O1 0.831408 0.831408 0.264467
O O2 0.799091 0.700910 0.250000
O O3 0.921034 0.732931 0.210825
O O4 0.892841 0.745340 0.356711
O O5 0.817952 0.500000 0.602335
O O6 0.873238 0.616835 0.614665
O O7 0.739487 0.607947 0.572223
O O8 0.500000 0.834277 0.101266
O O9 0.595533 0.797115 0.000000
O O10 0.320669 0.500000 0.500000
O O11 0.379335 0.620666 0.500000
#
# Coordination Sequence:
#
# PCOD8319600 Si02
#       4
#    32  32  32  16
#     4   9  18  32  49  70  94 127 169 214 259 299
#     4  10  19  33  51  73  99 134 175 210 252 307
#     4  10  20  33  48  72 105 138 172 213 255 302
#     4  10  20  33  51  75 101 133 172 216 264 316
#
# _framework density 17.354662000000001
#
# number of rings (size 3 to 8) (size 9 to 14) (size 15 to 20)
#    0.000    2.286    1.429    1.714    0.000    2.429 
#    0.000    1.429    0.000    5.143    0.000    0.000 
#    0.000    5.143    0.000   12.571    0.000    0.000 
#
# Total GULP energy -693951.742895 kJ/mol
# GULP energy per Si atom -12391.995409 kJ/mol
# Density = 1.731516 g / cm^3
# Si number density = 17.354662 Si / 1000 Ang^3
#
#
#
# Elastic Constant Matrix: (Units=GPa)
#
#
# Indices 1 2 3 4 5 6 
#
# 1 71.7004 46.8774 35.7924 0.0000 0.0000 0.0000
# 2 46.8774 71.7015 35.7921 0.0000 0.0000 0.0000
# 3 35.7924 35.7921 139.5641 0.0000 0.0000 0.0000
# 4 0.0000 0.0000 0.0000 17.8036 0.0000 0.0000
# 5 0.0000 0.0000 0.0000 0.0000 17.8047 0.0000
# 6 0.0000 0.0000 0.0000 0.0000 0.0000 24.1707
#
#
#
# Elastic Compliance Matrix: (Units=1/GPa)
#
#
# Indices 1 2 3 4 5 6 
#
# 1 0.025131 -0.015153 -0.002559 0.000000 0.000000 0.000000
# 2 -0.015153 0.025131 -0.002559 0.000000 0.000000 0.000000
# 3 -0.002559 -0.002559 0.008478 0.000000 0.000000 0.000000
# 4 0.000000 0.000000 0.000000 0.056169 0.000000 0.000000
# 5 0.000000 0.000000 0.000000 0.000000 0.056165 0.000000
# 6 0.000000 0.000000 0.000000 0.000000 0.000000 0.041372
#
#
# Mechanical properties :
#
#
# Convention : Reuss Voigt Hill
#
# Bulk Modulus (GPa) = 54.95107 57.76554 56.35830
# Shear Modulus (GPa) = 19.30101 22.92274 21.11187
#
# Velocity S-wave (km/s) = 3.33851 3.63828 3.49161
# Velocity P-wave (km/s) = 6.82592 7.14192 6.98571
#
# Compressibility (1/GPa) = 0.01819801
#
# Stress axis : x y z
#
# Youngs Moduli (GPa) = 39.79085 39.79168 117.95672
#
# Poissons Ratio (x) = 0.60297 0.30186
# Poissons Ratio (y) = 0.60295 0.30183
# Poissons Ratio (z) = 0.10183 0.10182
#
# Static dielectric constant tensor:
#      x y z
#    x 3.078960 0.000000 0.000000 
#    y 0.000000 3.078960 0.000000 
#    z 0.000000 0.000000 3.555960 
# 
# 
# High freq. dielectric constant tensor:
#      x y z
#    x 1.649750 0.000000 0.000000 
#    y 0.000000 1.649750 0.000000 
#    z 0.000000 0.000000 1.689720 
# 
# From -- ./inp_files/7804.got.cif
#   From: 2010.03.12/outbox.cif.g09.slc.cpg/sg139_4_cif.got.tgz:7804.got - 2010.04.08 09:46:31.
