data_PCOD8319350
_publ_section_title
;
Structure prediction by ZEFSAII (Michael W. Deem and Ramdas Pophale) SiO2 
 PCOD8319350
Probable space group: I 4/M M M
;
_chemical_formula_sum "Si O2"
_cell_formula_units_Z 96
_cell_length_a 34.110355
_cell_length_b 34.110355
_cell_length_c 5.224915
_cell_angle_alpha 90.000000
_cell_angle_beta 90.000000
_cell_angle_gamma 90.000000
_cell_volume 6079.273864
_symmetry_space_group_name_H-M "I 4/M M M"
_symmetry_group_IT_number 139
_symmetry_cell_setting 'tetragonal'
loop_
_space_group_symop_operation_xyz
x,y,z
-y,x,z
-x,-y,z
y,-x,z
x,-y,-z
-x,y,-z
y,x,-z
-y,-x,-z
-x,-y,-z
y,-x,-z
x,y,-z
-y,x,-z
-x,y,z
x,-y,z
-y,-x,z
y,x,z
1/2+x,1/2+y,1/2+z
1/2-y,1/2+x,1/2+z
1/2-x,1/2-y,1/2+z
1/2+y,1/2-x,1/2+z
1/2+x,1/2-y,1/2-z
1/2-x,1/2+y,1/2-z
1/2+y,1/2+x,1/2-z
1/2-y,1/2-x,1/2-z
1/2-x,1/2-y,1/2-z
1/2+y,1/2-x,1/2-z
1/2+x,1/2+y,1/2-z
1/2-y,1/2+x,1/2-z
1/2-x,1/2+y,1/2+z
1/2+x,1/2-y,1/2+z
1/2-y,1/2-x,1/2+z
1/2+y,1/2+x,1/2+z
loop_
_atom_site_type_symbol
_atom_site_label
_atom_site_fract_x
_atom_site_fract_y
_atom_site_fract_z
Si Si1 0.541865 0.070310 0.000000
Si Si2 0.453537 0.655969 0.500000
Si Si3 0.453280 0.208696 0.000000
Si Si4 0.256912 0.545946 0.500000
Si Si5 0.105591 0.635948 0.500000
Si Si6 0.609264 0.453659 0.000000
O O1 0.543185 0.043185 0.750000
O O2 0.578620 0.098353 0.000000
O O3 0.500000 0.093103 0.000000
O O4 0.500000 0.658799 0.500000
O O5 0.434886 0.699694 0.500000
O O6 0.439440 0.633348 0.247456
O O7 0.441411 0.233561 0.751974
O O8 0.500000 0.197290 0.000000
O O9 0.424430 0.171944 0.000000
O O10 0.262674 0.500000 0.500000
O O11 0.133932 0.633932 0.250000
O O12 0.601515 0.500000 0.000000
O O13 0.567026 0.432975 0.000000
#
# Coordination Sequence:
#
# PCOD8319350 Si02
#       6
#    16  16  16  16  16  16
#     4  10  20  31  42  54  69  92 124 164 206 243
#     4   9  17  30  45  63  89 116 149 193 236 273
#     4  10  18  29  46  65  83 105 141 181 214 257
#     4   9  17  28  45  67  85 105 137 182 228 266
#     4  10  20  32  43  57  80 108 134 161 203 257
#     4  10  19  30  45  64  90 128 169 203 229 252
#
# _framework density 15.791359999999999
#
# number of rings (size 3 to 8) (size 9 to 14) (size 15 to 20)
#    0.000    2.333    0.000    3.500    0.000    5.167 
#    0.000    5.000    0.000    3.000    0.000    0.000 
#    0.000    0.000    0.000    0.000    0.000  210.000 
#
# Total GULP energy -594834.599778 kJ/mol
# GULP energy per Si atom -12392.387495 kJ/mol
# Density = 1.575542 g / cm^3
# Si number density = 15.791360 Si / 1000 Ang^3
#
#
#
# Elastic Constant Matrix: (Units=GPa)
#
#
# Indices 1 2 3 4 5 6 
#
# 1 68.9946 31.3220 45.4709 0.0000 0.0000 0.0000
# 2 31.3220 68.9879 45.4684 0.0000 0.0000 0.0000
# 3 45.4709 45.4684 170.6689 0.0000 0.0000 0.0000
# 4 0.0000 0.0000 0.0000 28.2618 0.0000 0.0000
# 5 0.0000 0.0000 0.0000 0.0000 28.2639 0.0000
# 6 0.0000 0.0000 0.0000 0.0000 0.0000 0.8399
#
#
#
# Elastic Compliance Matrix: (Units=1/GPa)
#
#
# Indices 1 2 3 4 5 6 
#
# 1 0.019844 -0.006702 -0.003502 0.000000 0.000000 0.000000
# 2 -0.006702 0.019846 -0.003502 0.000000 0.000000 0.000000
# 3 -0.003502 -0.003502 0.007725 0.000000 0.000000 0.000000
# 4 0.000000 0.000000 0.000000 0.035383 0.000000 0.000000
# 5 0.000000 0.000000 0.000000 0.000000 0.035381 0.000000
# 6 0.000000 0.000000 0.000000 0.000000 0.000000 1.190555
#
#
# Mechanical properties :
#
#
# Convention : Reuss Voigt Hill
#
# Bulk Modulus (GPa) = 49.98748 61.46377 55.72562
# Shear Modulus (GPa) = 3.72353 23.89913 13.81133
#
# Velocity S-wave (km/s) = 1.53723 3.89450 2.96059
# Velocity P-wave (km/s) = 5.90546 7.69609 6.85945
#
# Compressibility (1/GPa) = 0.02000501
#
# Stress axis : x y z
#
# Youngs Moduli (GPa) = 50.39293 50.38812 129.44816
#
# Poissons Ratio (x) = 0.33769 0.45327
# Poissons Ratio (y) = 0.33772 0.45328
# Poissons Ratio (z) = 0.17645 0.17644
#
# Static dielectric constant tensor:
#      x y z
#    x 2.789040 0.000000 0.000000 
#    y 0.000000 2.789040 0.000000 
#    z 0.000000 0.000000 3.535050 
# 
# 
# High freq. dielectric constant tensor:
#      x y z
#    x 1.571530 0.000000 0.000000 
#    y 0.000000 1.571530 0.000000 
#    z 0.000000 0.000000 1.636590 
# 
# From -- ./inp_files/224.got.cif
#   From: 2010.03.12/outbox.cif.g09.slc.cpg/sg139_1_cif.got.tgz:224.got - 2010.04.08 09:46:31.
