data_PCOD8319870
_publ_section_title
;
Structure prediction by ZEFSAII (Michael W. Deem and Ramdas Pophale) SiO2 
 PCOD8319870
Probable space group: I 4/M M M
;
_chemical_formula_sum "Si O2"
_cell_formula_units_Z 160
_cell_length_a 23.037053
_cell_length_b 23.037053
_cell_length_c 15.995562
_cell_angle_alpha 90.000000
_cell_angle_beta 90.000000
_cell_angle_gamma 90.000000
_cell_volume 8488.937702
_symmetry_space_group_name_H-M "I 4/M M M"
_symmetry_group_IT_number 139
_symmetry_cell_setting 'tetragonal'
loop_
_space_group_symop_operation_xyz
x,y,z
-y,x,z
-x,-y,z
y,-x,z
x,-y,-z
-x,y,-z
y,x,-z
-y,-x,-z
-x,-y,-z
y,-x,-z
x,y,-z
-y,x,-z
-x,y,z
x,-y,z
-y,-x,z
y,x,z
1/2+x,1/2+y,1/2+z
1/2-y,1/2+x,1/2+z
1/2-x,1/2-y,1/2+z
1/2+y,1/2-x,1/2+z
1/2+x,1/2-y,1/2-z
1/2-x,1/2+y,1/2-z
1/2+y,1/2+x,1/2-z
1/2-y,1/2-x,1/2-z
1/2-x,1/2-y,1/2-z
1/2+y,1/2-x,1/2-z
1/2+x,1/2+y,1/2-z
1/2-y,1/2+x,1/2-z
1/2-x,1/2+y,1/2+z
1/2+x,1/2-y,1/2+z
1/2-y,1/2-x,1/2+z
1/2+y,1/2+x,1/2+z
loop_
_atom_site_type_symbol
_atom_site_label
_atom_site_fract_x
_atom_site_fract_y
_atom_site_fract_z
Si Si1 0.260636 0.066467 0.628780
Si Si2 0.843970 0.935255 0.098688
Si Si3 0.065348 0.500000 0.099395
Si Si4 0.377993 0.882362 0.405585
Si Si5 0.337155 0.566805 0.000000
Si Si6 0.066755 0.274184 0.821774
O O1 0.308831 0.109940 0.592385
O O2 0.200266 0.080782 0.583097
O O3 0.254477 0.077034 0.727072
O O4 0.278917 0.000000 0.608551
O O5 0.892340 0.892340 0.137353
O O6 0.779979 0.913050 0.122153
O O7 0.854384 0.000000 0.135544
O O8 0.849316 0.936135 0.000000
O O9 0.095509 0.441570 0.133656
O O10 0.000000 0.500000 0.132576
O O11 0.069259 0.500000 0.000000
O O12 0.400911 0.870529 0.500000
O O13 0.394638 0.829490 0.345435
O O14 0.357431 0.500000 0.000000
O O15 0.394204 0.605797 0.000000
O O16 0.000000 0.290577 0.839357
#
# Coordination Sequence:
#
# PCOD8319870 Si02
#       6
#    32  32  16  32  16  32
#     4  10  20  37  58  79 110 150 190 230 282 343
#     4   9  18  34  55  80 110 142 177 218 271 335
#     4   9  18  28  46  78 112 147 191 243 285 323
#     4  11  19  32  55  78 111 155 197 241 284 332
#     4  10  22  41  68  94 116 144 182 232 295 361
#     4  10  21  34  53  81 114 152 191 234 282 337
#
# _framework density 18.84806
#
# number of rings (size 3 to 8) (size 9 to 14) (size 15 to 20)
#    0.000    2.100    2.000    1.800    0.000    3.100 
#    0.000    2.000    0.000    2.400    0.000    5.600 
#    0.000    0.000    0.000    0.000    0.000    0.000 
#
# Total GULP energy -992086.313910 kJ/mol
# GULP energy per Si atom -12401.078924 kJ/mol
# Density = 1.880516 g / cm^3
# Si number density = 18.848060 Si / 1000 Ang^3
#
#
#
# Elastic Constant Matrix: (Units=GPa)
#
#
# Indices 1 2 3 4 5 6 
#
# 1 118.7740 83.5385 31.7360 0.0000 0.0000 0.0000
# 2 83.5385 118.7772 31.7369 0.0000 0.0000 0.0000
# 3 31.7360 31.7369 59.2354 0.0000 0.0000 0.0000
# 4 0.0000 0.0000 0.0000 20.3625 0.0000 0.0000
# 5 0.0000 0.0000 0.0000 0.0000 20.3629 0.0000
# 6 0.0000 0.0000 0.0000 0.0000 0.0000 34.5531
#
#
#
# Elastic Compliance Matrix: (Units=1/GPa)
#
#
# Indices 1 2 3 4 5 6 
#
# 1 0.017161 -0.011219 -0.003183 0.000000 0.000000 0.000000
# 2 -0.011219 0.017160 -0.003183 0.000000 0.000000 0.000000
# 3 -0.003183 -0.003183 0.020293 0.000000 0.000000 0.000000
# 4 0.000000 0.000000 0.000000 0.049110 0.000000 0.000000
# 5 0.000000 0.000000 0.000000 0.000000 0.049109 0.000000
# 6 0.000000 0.000000 0.000000 0.000000 0.000000 0.028941
#
#
# Mechanical properties :
#
#
# Convention : Reuss Voigt Hill
#
# Bulk Modulus (GPa) = 51.43312 65.64549 58.53931
# Shear Modulus (GPa) = 22.37889 25.04071 23.70980
#
# Velocity S-wave (km/s) = 3.44951 3.64889 3.55060
# Velocity P-wave (km/s) = 6.57366 7.25651 6.92351
#
# Compressibility (1/GPa) = 0.01944272
#
# Stress axis : x y z
#
# Youngs Moduli (GPa) = 58.27330 58.27455 49.27856
#
# Poissons Ratio (x) = 0.65377 0.15686
# Poissons Ratio (y) = 0.65376 0.15687
# Poissons Ratio (z) = 0.18549 0.18551
#
# Static dielectric constant tensor:
#      x y z
#    x 3.389210 0.000000 0.000000 
#    y 0.000000 3.389210 0.000000 
#    z 0.000000 0.000000 3.367300 
# 
# 
# High freq. dielectric constant tensor:
#      x y z
#    x 1.719530 0.000000 0.000000 
#    y 0.000000 1.719530 0.000000 
#    z 0.000000 0.000000 1.726990 
# 
# From -- ./inp_files/8427.got.cif
#   From: 2010.03.12/outbox.cif.g09.slc.cpg/sg139_5_cif.got.tgz:8427.got - 2010.04.08 09:46:31.
