data_PCOD8319776
_publ_section_title
;
Structure prediction by ZEFSAII (Michael W. Deem and Ramdas Pophale) SiO2 
 PCOD8319776
Probable space group: I 4/M M M
;
_chemical_formula_sum "Si O2"
_cell_formula_units_Z 128
_cell_length_a 19.787471
_cell_length_b 19.787471
_cell_length_c 15.404627
_cell_angle_alpha 90.000000
_cell_angle_beta 90.000000
_cell_angle_gamma 90.000000
_cell_volume 6031.589406
_symmetry_space_group_name_H-M "I 4/M M M"
_symmetry_group_IT_number 139
_symmetry_cell_setting 'tetragonal'
loop_
_space_group_symop_operation_xyz
x,y,z
-y,x,z
-x,-y,z
y,-x,z
x,-y,-z
-x,y,-z
y,x,-z
-y,-x,-z
-x,-y,-z
y,-x,-z
x,y,-z
-y,x,-z
-x,y,z
x,-y,z
-y,-x,z
y,x,z
1/2+x,1/2+y,1/2+z
1/2-y,1/2+x,1/2+z
1/2-x,1/2-y,1/2+z
1/2+y,1/2-x,1/2+z
1/2+x,1/2-y,1/2-z
1/2-x,1/2+y,1/2-z
1/2+y,1/2+x,1/2-z
1/2-y,1/2-x,1/2-z
1/2-x,1/2-y,1/2-z
1/2+y,1/2-x,1/2-z
1/2+x,1/2+y,1/2-z
1/2-y,1/2+x,1/2-z
1/2-x,1/2+y,1/2+z
1/2+x,1/2-y,1/2+z
1/2-y,1/2-x,1/2+z
1/2+y,1/2+x,1/2+z
loop_
_atom_site_type_symbol
_atom_site_label
_atom_site_fract_x
_atom_site_fract_y
_atom_site_fract_z
Si Si1 0.738162 0.371981 0.840089
Si Si2 0.578119 0.693290 0.336436
Si Si3 0.075700 0.575700 0.750000
Si Si4 0.571287 0.683314 0.000000
Si Si5 0.327530 0.123378 0.900463
O O1 0.671871 0.328130 0.837860
O O2 0.738658 0.412511 0.750331
O O3 0.801704 0.323975 0.858933
O O4 0.732117 0.425978 0.917077
O O5 0.500000 0.668131 0.344225
O O6 0.627737 0.627737 0.344053
O O7 0.594663 0.750664 0.407639
O O8 0.087224 0.500000 0.784805
O O9 0.084433 0.623218 0.834423
O O10 0.500000 0.644310 0.000000
O O11 0.629932 0.629932 0.000000
O O12 0.355295 0.122280 0.000000
#
# Coordination Sequence:
#
# PCOD8319776 Si02
#       5
#    32  32  16  16  32
#     4  10  20  37  60  90 125 164 213 271 329 386
#     4  11  24  42  66  96 133 176 223 275 330 390
#     4  11  26  46  65  92 134 174 211 266 333 400
#     4  10  20  33  54  86 125 169 218 270 326 394
#     4  12  24  41  69 101 129 169 219 273 329 394
#
# _framework density 21.221603000000002
#
# number of rings (size 3 to 8) (size 9 to 14) (size 15 to 20)
#    0.000    1.125    3.750    2.250    0.000    7.375 
#    0.000    1.250    0.000    4.500    0.000    1.750 
#    0.000    0.000    0.000    0.000    0.000    0.000 
#
# Total GULP energy -792857.965080 kJ/mol
# GULP energy per Si atom -12388.405704 kJ/mol
# Density = 2.117330 g / cm^3
# Si number density = 21.221603 Si / 1000 Ang^3
#
#
#
# Elastic Constant Matrix: (Units=GPa)
#
#
# Indices 1 2 3 4 5 6 
#
# 1 121.9807 31.8557 32.9904 0.0000 0.0000 0.0000
# 2 31.8557 121.9807 32.9904 0.0000 0.0000 0.0000
# 3 32.9904 32.9904 97.1285 0.0000 0.0000 0.0000
# 4 0.0000 0.0000 0.0000 13.4970 0.0000 0.0000
# 5 0.0000 0.0000 0.0000 0.0000 13.4970 0.0000
# 6 0.0000 0.0000 0.0000 0.0000 0.0000 794.2463
#
#
#
# Elastic Compliance Matrix: (Units=1/GPa)
#
#
# Indices 1 2 3 4 5 6 
#
# 1 0.009352 -0.001743 -0.002584 0.000000 0.000000 0.000000
# 2 -0.001743 0.009352 -0.002584 0.000000 0.000000 0.000000
# 3 -0.002584 -0.002584 0.012051 0.000000 0.000000 0.000000
# 4 0.000000 0.000000 0.000000 0.074090 0.000000 0.000000
# 5 0.000000 0.000000 0.000000 0.000000 0.074090 0.000000
# 6 0.000000 0.000000 0.000000 0.000000 0.000000 0.001259
#
#
# Mechanical properties :
#
#
# Convention : Reuss Voigt Hill
#
# Bulk Modulus (GPa) = 59.06194 59.64031 59.35113
# Shear Modulus (GPa) = 25.04206 180.46497 102.75351
#
# Velocity S-wave (km/s) = 3.43888 9.23163 6.96595
# Velocity P-wave (km/s) = 6.60752 11.90778 9.62950
#
# Compressibility (1/GPa) = 0.01693138
#
# Stress axis : x y z
#
# Youngs Moduli (GPa) = 106.92575 106.92575 82.97880
#
# Poissons Ratio (x) = 0.18642 0.21445
# Poissons Ratio (y) = 0.18642 0.21445
# Poissons Ratio (z) = 0.27634 0.27634
#
# Static dielectric constant tensor:
#      x y z
#    x 3.692680 0.000000 0.000000 
#    y 0.000000 3.692680 0.000000 
#    z 0.000000 0.000000 4.285830 
# 
# 
# High freq. dielectric constant tensor:
#      x y z
#    x 1.824450 0.000000 0.000000 
#    y 0.000000 1.824450 0.000000 
#    z 0.000000 0.000000 1.841850 
# 
# From -- ./inp_files/5496.got.cif
#   From: 2010.03.12/outbox.cif.g09.slc.cpg/sg139_3_cif.got.tgz:5496.got - 2010.04.08 09:46:31.
