data_PCOD8319649
_publ_section_title
;
Structure prediction by ZEFSAII (Michael W. Deem and Ramdas Pophale) SiO2 
 PCOD8319649
Probable space group: I 4/M M M
;
_chemical_formula_sum "Si O2"
_cell_formula_units_Z 144
_cell_length_a 16.892483
_cell_length_b 16.892483
_cell_length_c 27.975638
_cell_angle_alpha 90.000000
_cell_angle_beta 90.000000
_cell_angle_gamma 90.000000
_cell_volume 7983.015651
_symmetry_space_group_name_H-M "I 4/M M M"
_symmetry_group_IT_number 139
_symmetry_cell_setting 'tetragonal'
loop_
_space_group_symop_operation_xyz
x,y,z
-y,x,z
-x,-y,z
y,-x,z
x,-y,-z
-x,y,-z
y,x,-z
-y,-x,-z
-x,-y,-z
y,-x,-z
x,y,-z
-y,x,-z
-x,y,z
x,-y,z
-y,-x,z
y,x,z
1/2+x,1/2+y,1/2+z
1/2-y,1/2+x,1/2+z
1/2-x,1/2-y,1/2+z
1/2+y,1/2-x,1/2+z
1/2+x,1/2-y,1/2-z
1/2-x,1/2+y,1/2-z
1/2+y,1/2+x,1/2-z
1/2-y,1/2-x,1/2-z
1/2-x,1/2-y,1/2-z
1/2+y,1/2-x,1/2-z
1/2+x,1/2+y,1/2-z
1/2-y,1/2+x,1/2-z
1/2-x,1/2+y,1/2+z
1/2+x,1/2-y,1/2+z
1/2-y,1/2-x,1/2+z
1/2+y,1/2+x,1/2+z
loop_
_atom_site_type_symbol
_atom_site_label
_atom_site_fract_x
_atom_site_fract_y
_atom_site_fract_z
Si Si1 0.906469 0.777368 0.622421
Si Si2 0.816925 0.316049 0.196659
Si Si3 0.784902 0.092493 0.871864
Si Si4 0.000000 0.414582 0.056474
Si Si5 0.843432 0.326443 0.943543
O O1 0.861700 0.861700 0.627995
O O2 0.890212 0.720465 0.668015
O O3 0.872392 0.734080 0.575084
O O4 0.000000 0.793099 0.617475
O O5 0.751806 0.248195 0.198020
O O6 0.842184 0.342184 0.250000
O O7 0.893736 0.280047 0.170007
O O8 0.870463 0.129538 0.857573
O O9 0.758011 0.142936 0.918610
O O10 0.794943 0.000000 0.882449
O O11 0.921118 0.372734 0.073781
O O12 0.000000 0.500000 0.080821
O O13 0.000000 0.420646 0.000000
O O14 0.834886 0.315350 0.000000
#
# Coordination Sequence:
#
# PCOD8319649 Si02
#       5
#    32  32  32  16  32
#     4  10  21  35  53  79 108 141 180 218 261 315
#     4   8  16  33  55  76  99 131 171 213 257 303
#     4  10  20  33  51  77 106 137 174 212 255 312
#     4   9  16  26  46  74  99 123 155 207 270 314
#     4  10  19  34  53  75 102 135 178 223 267 314
#
# _framework density 18.038295000000002
#
# number of rings (size 3 to 8) (size 9 to 14) (size 15 to 20)
#    0.000    2.556    1.111    2.667    0.000    4.444 
#    0.000    0.000    0.000    0.000    0.000   12.444 
#    0.000    0.000    0.000    0.000    0.000    0.000 
#
# Total GULP energy -892232.201935 kJ/mol
# GULP energy per Si atom -12392.113916 kJ/mol
# Density = 1.799724 g / cm^3
# Si number density = 18.038295 Si / 1000 Ang^3
#
#
#
# Elastic Constant Matrix: (Units=GPa)
#
#
# Indices 1 2 3 4 5 6 
#
# 1 65.5971 86.1748 28.2164 0.0000 0.0000 0.0000
# 2 86.1748 65.5971 28.2164 0.0000 0.0000 0.0000
# 3 28.2164 28.2164 129.1781 0.0000 0.0000 0.0000
# 4 0.0000 0.0000 0.0000 16.0062 0.0000 0.0000
# 5 0.0000 0.0000 0.0000 0.0000 16.0062 0.0000
# 6 0.0000 0.0000 0.0000 0.0000 0.0000 18.9953
#
#
#
# Elastic Compliance Matrix: (Units=1/GPa)
#
#
# Indices 1 2 3 4 5 6 
#
# 1 -0.020712 0.027884 -0.001566 0.000000 0.000000 0.000000
# 2 0.027884 -0.020712 -0.001566 0.000000 0.000000 0.000000
# 3 -0.001566 -0.001566 0.008426 0.000000 0.000000 0.000000
# 4 0.000000 0.000000 0.000000 0.062476 0.000000 0.000000
# 5 0.000000 0.000000 0.000000 0.000000 0.062476 0.000000
# 6 0.000000 0.000000 0.000000 0.000000 0.000000 0.052645
#
#
# Mechanical properties :
#
#
# Convention : Reuss Voigt Hill
#
# Bulk Modulus (GPa) = 60.59720 60.62083 60.60901
# Shear Modulus (GPa) = 49.70394 18.05253 33.87823
#
# Velocity S-wave (km/s) = 5.25495 3.16696 4.33844
# Velocity P-wave (km/s) = 8.39559 6.85948 7.66611
#
# Compressibility (1/GPa) = 0.01650241
#
# Stress axis : x y z
#
# Youngs Moduli (GPa) = -48.28012 -48.28012 118.68654
#
# Poissons Ratio (x) = 1.34623 0.18591
# Poissons Ratio (y) = 1.34623 0.18591
# Poissons Ratio (z) = -0.07563 -0.07563
#
# Static dielectric constant tensor:
#      x y z
#    x -3.033030 0.000000 0.000000 
#    y 0.000000 -3.033030 0.000000 
#    z 0.000000 0.000000 3.454970 
# 
# 
# High freq. dielectric constant tensor:
#      x y z
#    x 1.688490 0.000000 0.000000 
#    y 0.000000 1.688490 0.000000 
#    z 0.000000 0.000000 1.691500 
# 
# From -- ./inp_files/12761.got.cif
#   From: 2010.03.12/outbox.cif.g09.slc.cpg/sg139_7_cif.got.tgz:12761.got - 2010.04.08 09:46:31.
