data_PCOD8319889
_publ_section_title
;
Structure prediction by ZEFSAII (Michael W. Deem and Ramdas Pophale) SiO2 
 PCOD8319889
Probable space group: I 4/M M M
;
_chemical_formula_sum "Si O2"
_cell_formula_units_Z 224
_cell_length_a 23.818128
_cell_length_b 23.818128
_cell_length_c 24.128281
_cell_angle_alpha 90.000000
_cell_angle_beta 90.000000
_cell_angle_gamma 90.000000
_cell_volume 13688.051539
_symmetry_space_group_name_H-M "I 4/M M M"
_symmetry_group_IT_number 139
_symmetry_cell_setting 'tetragonal'
loop_
_space_group_symop_operation_xyz
x,y,z
-y,x,z
-x,-y,z
y,-x,z
x,-y,-z
-x,y,-z
y,x,-z
-y,-x,-z
-x,-y,-z
y,-x,-z
x,y,-z
-y,x,-z
-x,y,z
x,-y,z
-y,-x,z
y,x,z
1/2+x,1/2+y,1/2+z
1/2-y,1/2+x,1/2+z
1/2-x,1/2-y,1/2+z
1/2+y,1/2-x,1/2+z
1/2+x,1/2-y,1/2-z
1/2-x,1/2+y,1/2-z
1/2+y,1/2+x,1/2-z
1/2-y,1/2-x,1/2-z
1/2-x,1/2-y,1/2-z
1/2+y,1/2-x,1/2-z
1/2+x,1/2+y,1/2-z
1/2-y,1/2+x,1/2-z
1/2-x,1/2+y,1/2+z
1/2+x,1/2-y,1/2+z
1/2-y,1/2-x,1/2+z
1/2+y,1/2+x,1/2+z
loop_
_atom_site_type_symbol
_atom_site_label
_atom_site_fract_x
_atom_site_fract_y
_atom_site_fract_z
Si Si1 0.149205 0.636292 0.877012
Si Si2 0.438221 0.709994 0.358693
Si Si3 0.753639 0.845213 0.063730
Si Si4 0.434343 0.655416 0.755981
Si Si5 0.326306 0.060836 0.798280
Si Si6 0.268151 0.064237 0.316103
Si Si7 0.061925 0.561612 0.434982
O O1 0.164201 0.696837 0.901709
O O2 0.112311 0.636563 0.820408
O O3 0.207870 0.604320 0.864618
O O4 0.111710 0.603586 0.921026
O O5 0.500000 0.690323 0.379820
O O6 0.394046 0.707750 0.409109
O O7 0.418680 0.671632 0.307112
O O8 0.442946 0.773084 0.338054
O O9 0.787018 0.787018 0.066757
O O10 0.740721 0.861651 0.000000
O O11 0.500000 0.641532 0.760900
O O12 0.399138 0.600863 0.773477
O O13 0.417992 0.705367 0.798375
O O14 0.308760 0.072483 0.735840
O O15 0.357605 0.000000 0.801322
O O16 0.268594 0.000000 0.336971
O O17 0.056707 0.559840 0.500000
O O18 0.083747 0.500000 0.414228
O O19 0.000000 0.573190 0.409301
#
# Coordination Sequence:
#
# PCOD8319889 Si02
#       7
#    32  32  32  32  32  32  32
#     4  11  18  28  46  63  81 115 156 184 216 266
#     4   8  15  29  48  66  85 113 144 175 215 261
#     4  10  21  33  43  61  90 118 147 188 228 257
#     4   9  17  30  48  69  92 116 143 177 219 269
#     4   8  15  27  41  61  87 110 137 176 214 249
#     4   9  18  30  43  62  88 115 144 179 218 260
#     4   9  18  31  45  63  86 109 140 188 237 272
#
# _framework density 16.364636999999998
#
# number of rings (size 3 to 8) (size 9 to 14) (size 15 to 20)
#    0.000    2.857    0.000    4.286    0.000    1.571 
#    0.000    0.000    0.000    5.143    0.000    6.000 
#    0.000    0.000    0.000   13.286    0.000    0.429 
#
# Total GULP energy -1387882.299054 kJ/mol
# GULP energy per Si atom -12391.806242 kJ/mol
# Density = 1.632739 g / cm^3
# Si number density = 16.364637 Si / 1000 Ang^3
#
#
#
# Elastic Constant Matrix: (Units=GPa)
#
#
# Indices 1 2 3 4 5 6 
#
# 1 83.8860 53.5059 33.2092 0.0000 0.0000 0.0000
# 2 53.5059 83.8860 33.2092 0.0000 0.0000 0.0000
# 3 33.2092 33.2092 49.6920 0.0000 0.0000 0.0000
# 4 0.0000 0.0000 0.0000 15.4040 0.0000 0.0000
# 5 0.0000 0.0000 0.0000 0.0000 15.4040 0.0000
# 6 0.0000 0.0000 0.0000 0.0000 0.0000 24.8705
#
#
#
# Elastic Compliance Matrix: (Units=1/GPa)
#
#
# Indices 1 2 3 4 5 6 
#
# 1 0.021834 -0.011082 -0.007186 0.000000 0.000000 0.000000
# 2 -0.011082 0.021834 -0.007186 0.000000 0.000000 0.000000
# 3 -0.007186 -0.007186 0.029728 0.000000 0.000000 0.000000
# 4 0.000000 0.000000 0.000000 0.064918 0.000000 0.000000
# 5 0.000000 0.000000 0.000000 0.000000 0.064918 0.000000
# 6 0.000000 0.000000 0.000000 0.000000 0.000000 0.040208
#
#
# Mechanical properties :
#
#
# Convention : Reuss Voigt Hill
#
# Bulk Modulus (GPa) = 44.46426 50.81251 47.63839
# Shear Modulus (GPa) = 16.56479 17.63834 17.10157
#
# Velocity S-wave (km/s) = 3.18501 3.28660 3.23620
# Velocity P-wave (km/s) = 6.38401 6.74684 6.56794
#
# Compressibility (1/GPa) = 0.02248997
#
# Stress axis : x y z
#
# Youngs Moduli (GPa) = 45.79964 45.79964 33.63793
#
# Poissons Ratio (x) = 0.50755 0.24171
# Poissons Ratio (y) = 0.50755 0.24171
# Poissons Ratio (z) = 0.32910 0.32910
#
# Static dielectric constant tensor:
#      x y z
#    x 3.067120 0.000000 0.000000 
#    y 0.000000 3.067120 0.000000 
#    z 0.000000 0.000000 2.889620 
# 
# 
# High freq. dielectric constant tensor:
#      x y z
#    x 1.620540 0.000000 0.000000 
#    y 0.000000 1.620540 0.000000 
#    z 0.000000 0.000000 1.607730 
# 
# From -- ./inp_files/12192.got.cif
#   From: 2010.03.12/outbox.cif.g09.slc.cpg/sg139_7_cif.got.tgz:12192.got - 2010.04.08 09:46:31.
