data_PCOD8319487
_publ_section_title
;
Structure prediction by ZEFSAII (Michael W. Deem and Ramdas Pophale) SiO2 
 PCOD8319487
Probable space group: I 4/M M M
;
_chemical_formula_sum "Si O2"
_cell_formula_units_Z 176
_cell_length_a 19.208978
_cell_length_b 19.208978
_cell_length_c 27.175389
_cell_angle_alpha 90.000000
_cell_angle_beta 90.000000
_cell_angle_gamma 90.000000
_cell_volume 10027.306448
_symmetry_space_group_name_H-M "I 4/M M M"
_symmetry_group_IT_number 139
_symmetry_cell_setting 'tetragonal'
loop_
_space_group_symop_operation_xyz
x,y,z
-y,x,z
-x,-y,z
y,-x,z
x,-y,-z
-x,y,-z
y,x,-z
-y,-x,-z
-x,-y,-z
y,-x,-z
x,y,-z
-y,x,-z
-x,y,z
x,-y,z
-y,-x,z
y,x,z
1/2+x,1/2+y,1/2+z
1/2-y,1/2+x,1/2+z
1/2-x,1/2-y,1/2+z
1/2+y,1/2-x,1/2+z
1/2+x,1/2-y,1/2-z
1/2-x,1/2+y,1/2-z
1/2+y,1/2+x,1/2-z
1/2-y,1/2-x,1/2-z
1/2-x,1/2-y,1/2-z
1/2+y,1/2-x,1/2-z
1/2+x,1/2+y,1/2-z
1/2-y,1/2+x,1/2-z
1/2-x,1/2+y,1/2+z
1/2+x,1/2-y,1/2+z
1/2-y,1/2-x,1/2+z
1/2+y,1/2+x,1/2+z
loop_
_atom_site_type_symbol
_atom_site_label
_atom_site_fract_x
_atom_site_fract_y
_atom_site_fract_z
Si Si1 0.326238 0.789768 0.149781
Si Si2 0.689292 0.578186 0.581739
Si Si3 0.921875 0.500000 0.558430
Si Si4 0.254799 0.921985 0.184864
Si Si5 0.335388 0.868009 0.055197
Si Si6 0.807826 0.919727 0.709524
O O1 0.257176 0.742825 0.155175
O O2 0.314171 0.863740 0.177081
O O3 0.343353 0.802753 0.092134
O O4 0.392412 0.753417 0.174212
O O5 0.674456 0.500000 0.564493
O O6 0.623214 0.623214 0.566004
O O7 0.700222 0.583062 0.640346
O O8 0.756201 0.606654 0.553185
O O9 0.922022 0.500000 0.500000
O O10 0.882284 0.430969 0.576666
O O11 0.000000 0.500000 0.579944
O O12 0.213408 0.906393 0.234456
O O13 0.288242 0.000000 0.186488
O O14 0.358243 0.845456 0.000000
O O15 0.879004 0.879004 0.698325
O O16 0.821072 0.000000 0.697570
#
# Coordination Sequence:
#
# PCOD8319487 Si02
#       6
#    32  32  16  32  32  32
#     4  10  20  32  50  74 101 133 169 206 247 298
#     4  10  19  30  46  70 100 136 176 211 243 281
#     4   9  18  32  50  70  91 119 153 193 246 300
#     4   9  17  30  50  74 102 134 169 208 243 289
#     4  10  19  33  51  71  97 126 161 205 250 298
#     4  10  20  34  52  74 100 130 166 209 255 303
#
# _framework density 17.552073
#
# number of rings (size 3 to 8) (size 9 to 14) (size 15 to 20)
#    0.000    2.273    0.909    3.818    1.273    4.000 
#    0.000    0.000    0.000    3.273    0.000    3.818 
#    0.000    0.000    0.000    4.000    0.000    0.000 
#
# Total GULP energy -1091146.662943 kJ/mol
# GULP energy per Si atom -12399.393897 kJ/mol
# Density = 1.751212 g / cm^3
# Si number density = 17.552073 Si / 1000 Ang^3
#
#
#
# Elastic Constant Matrix: (Units=GPa)
#
#
# Indices 1 2 3 4 5 6 
#
# 1 91.7125 34.1286 34.0559 0.0000 0.0000 0.0000
# 2 34.1286 91.7125 34.0559 0.0000 0.0000 0.0000
# 3 34.0559 34.0559 62.0566 0.0000 0.0000 0.0000
# 4 0.0000 0.0000 0.0000 15.9097 0.0000 0.0000
# 5 0.0000 0.0000 0.0000 0.0000 15.9097 0.0000
# 6 0.0000 0.0000 0.0000 0.0000 0.0000 22.0591
#
#
#
# Elastic Compliance Matrix: (Units=1/GPa)
#
#
# Indices 1 2 3 4 5 6 
#
# 1 0.014335 -0.003031 -0.006204 0.000000 0.000000 0.000000
# 2 -0.003031 0.014335 -0.006204 0.000000 0.000000 0.000000
# 3 -0.006204 -0.006204 0.022923 0.000000 0.000000 0.000000
# 4 0.000000 0.000000 0.000000 0.062855 0.000000 0.000000
# 5 0.000000 0.000000 0.000000 0.000000 0.062855 0.000000
# 6 0.000000 0.000000 0.000000 0.000000 0.000000 0.045333
#
#
# Mechanical properties :
#
#
# Convention : Reuss Voigt Hill
#
# Bulk Modulus (GPa) = 48.26897 49.99583 49.13240
# Shear Modulus (GPa) = 19.19993 20.32513 19.76253
#
# Velocity S-wave (km/s) = 3.31098 3.40662 3.35914
# Velocity P-wave (km/s) = 6.49438 6.63472 6.56492
#
# Compressibility (1/GPa) = 0.02071724
#
# Stress axis : x y z
#
# Youngs Moduli (GPa) = 69.75877 69.75877 43.62376
#
# Poissons Ratio (x) = 0.21143 0.27063
# Poissons Ratio (y) = 0.21143 0.27063
# Poissons Ratio (z) = 0.43276 0.43276
#
# Static dielectric constant tensor:
#      x y z
#    x 3.224350 0.000000 0.000000 
#    y 0.000000 3.224350 0.000000 
#    z 0.000000 0.000000 3.268840 
# 
# 
# High freq. dielectric constant tensor:
#      x y z
#    x 1.665250 0.000000 0.000000 
#    y 0.000000 1.665250 0.000000 
#    z 0.000000 0.000000 1.674750 
# 
# From -- ./inp_files/14242.got.cif
#   From: 2010.03.12/outbox.cif.g09.slc.cpg/sg139_8_cif.got.tgz:14242.got - 2010.04.08 09:46:31.
