data_PCOD8319467
_publ_section_title
;
Structure prediction by ZEFSAII (Michael W. Deem and Ramdas Pophale) SiO2 
 PCOD8319467
Probable space group: I 4/M M M
;
_chemical_formula_sum "Si O2"
_cell_formula_units_Z 192
_cell_length_a 19.070571
_cell_length_b 19.070571
_cell_length_c 30.940744
_cell_angle_alpha 90.000000
_cell_angle_beta 90.000000
_cell_angle_gamma 90.000000
_cell_volume 11252.736408
_symmetry_space_group_name_H-M "I 4/M M M"
_symmetry_group_IT_number 139
_symmetry_cell_setting 'tetragonal'
loop_
_space_group_symop_operation_xyz
x,y,z
-y,x,z
-x,-y,z
y,-x,z
x,-y,-z
-x,y,-z
y,x,-z
-y,-x,-z
-x,-y,-z
y,-x,-z
x,y,-z
-y,x,-z
-x,y,z
x,-y,z
-y,-x,z
y,x,z
1/2+x,1/2+y,1/2+z
1/2-y,1/2+x,1/2+z
1/2-x,1/2-y,1/2+z
1/2+y,1/2-x,1/2+z
1/2+x,1/2-y,1/2-z
1/2-x,1/2+y,1/2-z
1/2+y,1/2+x,1/2-z
1/2-y,1/2-x,1/2-z
1/2-x,1/2-y,1/2-z
1/2+y,1/2-x,1/2-z
1/2+x,1/2+y,1/2-z
1/2-y,1/2+x,1/2-z
1/2-x,1/2+y,1/2+z
1/2+x,1/2-y,1/2+z
1/2-y,1/2-x,1/2+z
1/2+y,1/2+x,1/2+z
loop_
_atom_site_type_symbol
_atom_site_label
_atom_site_fract_x
_atom_site_fract_y
_atom_site_fract_z
Si Si1 0.694035 0.420088 0.166941
Si Si2 0.731051 0.153729 0.589074
Si Si3 0.922404 0.191684 0.832307
Si Si4 0.291598 0.083858 0.500000
Si Si5 0.294581 0.920406 0.092877
Si Si6 0.754024 0.635981 0.749179
Si Si7 0.076439 0.326796 0.000000
O O1 0.672150 0.500000 0.160773
O O2 0.622748 0.377253 0.173454
O O3 0.735206 0.395237 0.124906
O O4 0.743455 0.412461 0.208952
O O5 0.769604 0.230397 0.589161
O O6 0.744028 0.117022 0.542696
O O7 0.647995 0.157052 0.601935
O O8 0.874316 0.125685 0.825726
O O9 0.910756 0.224825 0.879365
O O10 0.908213 0.248796 0.794974
O O11 0.000000 0.162417 0.827332
O O12 0.372829 0.106271 0.500000
O O13 0.284330 0.000000 0.500000
O O14 0.326592 0.000000 0.102449
O O15 0.276782 0.914118 0.041816
O O16 0.697672 0.697672 0.749616
O O17 0.831839 0.668162 0.750000
O O18 0.000000 0.362004 0.000000
#
# Coordination Sequence:
#
# PCOD8319467 Si02
#       7
#    32  32  32  16  32  32  16
#     4  10  20  33  50  72  98 130 167 207 249 292
#     4  10  19  32  50  71  97 129 165 204 247 296
#     4  10  19  30  45  66  93 124 156 191 233 282
#     4  10  19  30  46  69  96 124 156 197 242 289
#     4   9  17  30  49  72  96 122 156 200 247 293
#     4   9  17  30  48  69  91 116 150 192 237 286
#     4   8  16  30  46  67  93 120 152 190 237 292
#
# _framework density 17.062515999999999
#
# number of rings (size 3 to 8) (size 9 to 14) (size 15 to 20)
#    0.000    2.500    0.000    2.750    0.000    3.167 
#    0.000    1.250    0.000    4.500    0.000    0.000 
#    0.000   13.667    0.000    0.000    0.000    0.000 
#
# Total GULP energy -1189438.061481 kJ/mol
# GULP energy per Si atom -12389.979807 kJ/mol
# Density = 1.702368 g / cm^3
# Si number density = 17.062516 Si / 1000 Ang^3
#
#
#
# Elastic Constant Matrix: (Units=GPa)
#
#
# Indices 1 2 3 4 5 6 
#
# 1 96.8162 44.4040 49.1117 0.0000 0.0000 0.0000
# 2 44.4040 96.8163 49.1116 0.0000 0.0000 0.0000
# 3 49.1117 49.1116 101.3654 0.0000 0.0000 0.0000
# 4 0.0000 0.0000 0.0000 22.1003 0.0000 0.0000
# 5 0.0000 0.0000 0.0000 0.0000 22.1002 0.0000
# 6 0.0000 0.0000 0.0000 0.0000 0.0000 12.4725
#
#
#
# Elastic Compliance Matrix: (Units=1/GPa)
#
#
# Indices 1 2 3 4 5 6 
#
# 1 0.014880 -0.004200 -0.005175 0.000000 0.000000 0.000000
# 2 -0.004200 0.014880 -0.005175 0.000000 0.000000 0.000000
# 3 -0.005175 -0.005175 0.014879 0.000000 0.000000 0.000000
# 4 0.000000 0.000000 0.000000 0.045248 0.000000 0.000000
# 5 0.000000 0.000000 0.000000 0.000000 0.045249 0.000000
# 6 0.000000 0.000000 0.000000 0.000000 0.000000 0.080177
#
#
# Mechanical properties :
#
#
# Convention : Reuss Voigt Hill
#
# Bulk Modulus (GPa) = 64.34341 64.47251 64.40796
# Shear Modulus (GPa) = 20.03278 21.49261 20.76270
#
# Velocity S-wave (km/s) = 3.43020 3.55299 3.49214
# Velocity P-wave (km/s) = 7.31305 7.39593 7.35460
#
# Compressibility (1/GPa) = 0.01554161
#
# Stress axis : x y z
#
# Youngs Moduli (GPa) = 67.20479 67.20499 67.20664
#
# Poissons Ratio (x) = 0.28224 0.34777
# Poissons Ratio (y) = 0.28224 0.34777
# Poissons Ratio (z) = 0.34776 0.34776
#
# Static dielectric constant tensor:
#      x y z
#    x 3.093910 0.000000 0.000000 
#    y 0.000000 3.093910 0.000000 
#    z 0.000000 0.000000 3.511530 
# 
# 
# High freq. dielectric constant tensor:
#      x y z
#    x 1.638960 0.000000 0.000000 
#    y 0.000000 1.638960 0.000000 
#    z 0.000000 0.000000 1.681740 
# 
# From -- ./inp_files/13322.got.cif
#   From: 2010.03.12/outbox.cif.g09.slc.cpg/sg139_7_cif.got.tgz:13322.got - 2010.04.08 09:46:31.
