data_PCOD8319828
_publ_section_title
;
Structure prediction by ZEFSAII (Michael W. Deem and Ramdas Pophale) SiO2 
 PCOD8319828
Probable space group: I 4/M M M
;
_chemical_formula_sum "Si O2"
_cell_formula_units_Z 80
_cell_length_a 16.543513
_cell_length_b 16.543513
_cell_length_c 15.238489
_cell_angle_alpha 90.000000
_cell_angle_beta 90.000000
_cell_angle_gamma 90.000000
_cell_volume 4170.588871
_symmetry_space_group_name_H-M "I 4/M M M"
_symmetry_group_IT_number 139
_symmetry_cell_setting 'tetragonal'
loop_
_space_group_symop_operation_xyz
x,y,z
-y,x,z
-x,-y,z
y,-x,z
x,-y,-z
-x,y,-z
y,x,-z
-y,-x,-z
-x,-y,-z
y,-x,-z
x,y,-z
-y,x,-z
-x,y,z
x,-y,z
-y,-x,z
y,x,z
1/2+x,1/2+y,1/2+z
1/2-y,1/2+x,1/2+z
1/2-x,1/2-y,1/2+z
1/2+y,1/2-x,1/2+z
1/2+x,1/2-y,1/2-z
1/2-x,1/2+y,1/2-z
1/2+y,1/2+x,1/2-z
1/2-y,1/2-x,1/2-z
1/2-x,1/2-y,1/2-z
1/2+y,1/2-x,1/2-z
1/2+x,1/2+y,1/2-z
1/2-y,1/2+x,1/2-z
1/2-x,1/2+y,1/2+z
1/2+x,1/2-y,1/2+z
1/2-y,1/2-x,1/2+z
1/2+y,1/2+x,1/2+z
loop_
_atom_site_type_symbol
_atom_site_label
_atom_site_fract_x
_atom_site_fract_y
_atom_site_fract_z
Si Si1 0.179222 0.406177 0.170892
Si Si2 0.403463 0.908000 0.000000
Si Si3 0.818279 0.818279 0.260774
Si Si4 0.405606 0.594395 0.398706
O O1 0.164958 0.500000 0.168810
O O2 0.129090 0.370911 0.250000
O O3 0.141079 0.368216 0.082873
O O4 0.275271 0.388418 0.182082
O O5 0.500000 0.909028 0.000000
O O6 0.369970 0.000000 0.000000
O O7 0.750000 0.750000 0.250000
O O8 0.851985 0.851985 0.168138
O O9 0.387508 0.500000 0.381326
O O10 0.383728 0.616273 0.500000
#
# Coordination Sequence:
#
# PCOD8319828 Si02
#       4
#    32  16  16  16
#     4  10  20  35  54  78 108 145 189 238 291 347
#     4   9  18  33  54  78 103 136 182 233 281 331
#     4  10  21  36  50  78 118 155 184 229 296 364
#     4   9  18  36  64  92 116 149 200 258 306 355
#
# _framework density 19.181941999999999
#
# number of rings (size 3 to 8) (size 9 to 14) (size 15 to 20)
#    0.000    2.400    0.000    3.000    0.000    2.800 
#   14.400    0.000    0.000    0.000    0.000    0.000 
#    0.000   12.800    0.000    0.000    0.000    0.000 
#
# Total GULP energy -495684.277084 kJ/mol
# GULP energy per Si atom -12392.106927 kJ/mol
# Density = 1.913828 g / cm^3
# Si number density = 19.181942 Si / 1000 Ang^3
#
#
#
# Elastic Constant Matrix: (Units=GPa)
#
#
# Indices 1 2 3 4 5 6 
#
# 1 84.5713 35.5877 68.4541 0.0000 0.0000 0.0000
# 2 35.5877 84.5677 68.4549 0.0000 0.0000 0.0000
# 3 68.4541 68.4549 188.3237 0.0000 0.0000 0.0000
# 4 0.0000 0.0000 0.0000 37.2709 0.0000 0.0000
# 5 0.0000 0.0000 0.0000 0.0000 37.2699 0.0000
# 6 0.0000 0.0000 0.0000 0.0000 0.0000 29.1768
#
#
#
# Elastic Compliance Matrix: (Units=1/GPa)
#
#
# Indices 1 2 3 4 5 6 
#
# 1 0.017310 -0.003105 -0.005164 0.000000 0.000000 0.000000
# 2 -0.003105 0.017312 -0.005164 0.000000 0.000000 0.000000
# 3 -0.005164 -0.005164 0.009064 0.000000 0.000000 0.000000
# 4 0.000000 0.000000 0.000000 0.026831 0.000000 0.000000
# 5 0.000000 0.000000 0.000000 0.000000 0.026831 0.000000
# 6 0.000000 0.000000 0.000000 0.000000 0.000000 0.034274
#
#
# Mechanical properties :
#
#
# Convention : Reuss Voigt Hill
#
# Bulk Modulus (GPa) = 59.44934 78.05066 68.75000
# Shear Modulus (GPa) = 30.47037 33.07458 31.77247
#
# Velocity S-wave (km/s) = 3.98991 4.15692 4.07427
# Velocity P-wave (km/s) = 7.23087 7.98862 7.61917
#
# Compressibility (1/GPa) = 0.01682104
#
# Stress axis : x y z
#
# Youngs Moduli (GPa) = 57.76872 57.76471 110.32550
#
# Poissons Ratio (x) = 0.17935 0.56968
# Poissons Ratio (y) = 0.17936 0.56974
# Poissons Ratio (z) = 0.29830 0.29831
#
# Static dielectric constant tensor:
#      x y z
#    x 4.127630 0.000000 0.000000 
#    y 0.000000 4.127600 0.000000 
#    z 0.000000 0.000000 3.736740 
# 
# 
# High freq. dielectric constant tensor:
#      x y z
#    x 1.741320 0.000000 0.000000 
#    y 0.000000 1.741320 0.000000 
#    z 0.000000 0.000000 1.748210 
# 
# From -- ./inp_files/4767.got.cif
#   From: 2010.03.12/outbox.cif.g09.slc.cpg/sg139_3_cif.got.tgz:4767.got - 2010.04.08 09:46:31.
