data_PCOD8319240
_publ_section_title
;
Structure prediction by ZEFSAII (Michael W. Deem and Ramdas Pophale) SiO2 
 PCOD8319240
Probable space group: P 42/N C M
;
_chemical_formula_sum "Si O2"
_cell_formula_units_Z 96
_cell_length_a 13.242648
_cell_length_b 13.242648
_cell_length_c 34.120963
_cell_angle_alpha 90.000000
_cell_angle_beta 90.000000
_cell_angle_gamma 90.000000
_cell_volume 5983.715692
_symmetry_space_group_name_H-M "P 42/N C M"
_symmetry_group_IT_number 138
_space_group.IT_coordinate_system_code '2'
_symmetry_cell_setting 'tetragonal'
loop_
_space_group_symop_operation_xyz
x,y,z
1/2-y,x,1/2+z
1/2-x,1/2-y,z
y,1/2-x,1/2+z
1/2+x,-y,1/2-z
-x,1/2+y,1/2-z
1/2+y,1/2+x,-z
-y,-x,-z
-x,-y,-z
1/2+y,-x,1/2-z
1/2+x,1/2+y,-z
-y,1/2+x,1/2-z
1/2-x,y,1/2+z
x,1/2-y,1/2+z
1/2-y,1/2-x,z
y,x,z
loop_
_atom_site_type_symbol
_atom_site_label
_atom_site_fract_x
_atom_site_fract_y
_atom_site_fract_z
Si Si1 0.248646 0.908365 0.103580
Si Si2 0.995528 0.665600 0.824970
Si Si3 0.251350 0.908366 0.396420
Si Si4 0.249999 0.916453 0.750000
Si Si5 0.834400 0.504473 0.175030
Si Si6 0.583801 0.416203 0.045518
O O1 0.269802 0.996829 0.134942
O O2 0.352701 0.852704 0.090455
O O3 0.174631 0.825366 0.123958
O O4 0.190178 0.952292 0.065278
O O5 0.010744 0.736895 0.787402
O O6 0.083458 0.583457 0.825600
O O7 0.885872 0.614129 0.822937
O O8 0.230194 0.996831 0.365059
O O9 0.309816 0.952292 0.434723
O O10 0.348199 0.848199 0.742673
O O11 0.263103 0.989256 0.787403
O O12 0.885871 0.614130 0.177064
O O13 0.500004 0.500004 0.053463
O O14 0.602593 0.397408 0.000000
#
# Coordination Sequence:
#
# PCOD8319240 Si02
#       6
#    16  16  16  16  16  16
#     4   8  15  27  46  69  90 112 143 181 220 264
#     4   9  16  27  44  66  91 118 149 185 224 261
#     4   8  15  27  46  69  90 112 143 181 220 264
#     4   9  16  26  44  65  88 118 154 189 218 256
#     4   9  16  27  44  66  91 118 149 185 224 261
#     4   9  17  29  47  71  93 113 143 185 227 267
#
# _framework density 16.043543
#
# number of rings (size 3 to 8) (size 9 to 14) (size 15 to 20)
#    1.000    2.333    0.000    1.000    0.000    5.333 
#    0.000    1.667    0.000    4.500    0.000    7.000 
#    0.000    0.000    0.000    0.000    0.000    0.000 
#
# Total GULP energy -1189311.114930 kJ/mol
# GULP energy per Si atom -12388.657447 kJ/mol
# Density = 1.600703 g / cm^3
# Si number density = 16.043543 Si / 1000 Ang^3
#
#
#
# Elastic Constant Matrix: (Units=GPa)
#
#
# Indices 1 2 3 4 5 6 
#
# 1 53.5437 38.8828 59.5722 0.0000 0.0000 0.0000
# 2 38.8828 53.5436 59.5722 0.0000 0.0000 0.0000
# 3 59.5722 59.5722 154.6936 0.0000 0.0000 0.0000
# 4 0.0000 0.0000 0.0000 9.7343 0.0000 0.0000
# 5 0.0000 0.0000 0.0000 0.0000 9.7343 0.0000
# 6 0.0000 0.0000 0.0000 0.0000 0.0000 20.8458
#
#
#
# Elastic Compliance Matrix: (Units=1/GPa)
#
#
# Indices 1 2 3 4 5 6 
#
# 1 0.044847 -0.023362 -0.008274 0.000000 0.000000 0.000000
# 2 -0.023362 0.044847 -0.008274 0.000000 0.000000 0.000000
# 3 -0.008274 -0.008274 0.012837 0.000000 0.000000 0.000000
# 4 0.000000 0.000000 0.000000 0.102729 0.000000 0.000000
# 5 0.000000 0.000000 0.000000 0.000000 0.102729 0.000000
# 6 0.000000 0.000000 0.000000 0.000000 0.000000 0.047971
#
#
# Mechanical properties :
#
#
# Convention : Reuss Voigt Hill
#
# Bulk Modulus (GPa) = 44.03054 64.20392 54.11723
# Shear Modulus (GPa) = 11.27777 14.97980 13.12879
#
# Velocity S-wave (km/s) = 2.65419 3.05896 2.86374
# Velocity P-wave (km/s) = 6.07429 7.25133 6.68875
#
# Compressibility (1/GPa) = 0.02271151
#
# Stress axis : x y z
#
# Youngs Moduli (GPa) = 22.29811 22.29808 77.90076
#
# Poissons Ratio (x) = 0.52093 0.64454
# Poissons Ratio (y) = 0.52093 0.64454
# Poissons Ratio (z) = 0.18449 0.18449
#
# Static dielectric constant tensor:
#      x y z
#    x 2.824340 0.000000 0.000000 
#    y 0.000000 2.824340 0.000000 
#    z 0.000000 0.000000 2.975300 
# 
# 
# High freq. dielectric constant tensor:
#      x y z
#    x 1.587530 0.000000 0.000000 
#    y 0.000000 1.587530 0.000000 
#    z 0.000000 0.000000 1.611860 
# 
# From -- ./inp_files/8208.got.cif
#   From: 2010.03.12/outbox.cif.g09.slc.cpg/sg138_5_cif.got.tgz:8208.got - 2010.04.08 09:41:05.
