data_PCOD8319533
_publ_section_title
;
Structure prediction by ZEFSAII (Michael W. Deem and Ramdas Pophale) SiO2 
 PCOD8319533
Probable space group: I 4/M M M
;
_chemical_formula_sum "Si O2"
_cell_formula_units_Z 160
_cell_length_a 17.777631
_cell_length_b 17.777631
_cell_length_c 28.877464
_cell_angle_alpha 90.000000
_cell_angle_beta 90.000000
_cell_angle_gamma 90.000000
_cell_volume 9126.553968
_symmetry_space_group_name_H-M "I 4/M M M"
_symmetry_group_IT_number 139
_symmetry_cell_setting 'tetragonal'
loop_
_space_group_symop_operation_xyz
x,y,z
-y,x,z
-x,-y,z
y,-x,z
x,-y,-z
-x,y,-z
y,x,-z
-y,-x,-z
-x,-y,-z
y,-x,-z
x,y,-z
-y,x,-z
-x,y,z
x,-y,z
-y,-x,z
y,x,z
1/2+x,1/2+y,1/2+z
1/2-y,1/2+x,1/2+z
1/2-x,1/2-y,1/2+z
1/2+y,1/2-x,1/2+z
1/2+x,1/2-y,1/2-z
1/2-x,1/2+y,1/2-z
1/2+y,1/2+x,1/2-z
1/2-y,1/2-x,1/2-z
1/2-x,1/2-y,1/2-z
1/2+y,1/2-x,1/2-z
1/2+x,1/2+y,1/2-z
1/2-y,1/2+x,1/2-z
1/2-x,1/2+y,1/2+z
1/2+x,1/2-y,1/2+z
1/2-y,1/2-x,1/2+z
1/2+y,1/2+x,1/2+z
loop_
_atom_site_type_symbol
_atom_site_label
_atom_site_fract_x
_atom_site_fract_y
_atom_site_fract_z
Si Si1 0.812990 0.686690 0.697903
Si Si2 0.585028 0.291735 0.856924
Si Si3 0.643124 0.235644 0.948504
Si Si4 0.083558 0.283154 0.051764
Si Si5 0.206109 0.914642 0.144843
O O1 0.748912 0.748912 0.697786
O O2 0.835994 0.664007 0.750000
O O3 0.885603 0.720172 0.672047
O O4 0.781379 0.614123 0.670846
O O5 0.500000 0.309759 0.842147
O O6 0.634373 0.365628 0.846450
O O7 0.586202 0.270376 0.911315
O O8 0.724969 0.275032 0.942243
O O9 0.653059 0.146526 0.939897
O O10 0.610702 0.251069 0.000000
O O11 0.092301 0.217434 0.089549
O O12 0.000000 0.319797 0.056634
O O13 0.094171 0.248710 0.000000
O O14 0.133555 0.866446 0.159604
O O15 0.191228 0.000000 0.160315
#
# Coordination Sequence:
#
# PCOD8319533 Si02
#       5
#    32  32  32  32  32
#     4   9  18  34  54  73  94 125 168 212 250 291
#     4  10  20  34  53  78 105 132 165 205 252 305
#     4   9  16  28  48  71  98 134 175 213 245 289
#     4   9  16  26  45  73 102 132 168 211 253 289
#     4  10  19  31  49  74 104 136 169 205 245 291
#
# _framework density 17.531262000000002
#
# number of rings (size 3 to 8) (size 9 to 14) (size 15 to 20)
#    0.000    2.600    2.000    0.600    0.000    2.800 
#    0.000    0.000    0.000    2.400    0.000   15.400 
#    0.000    0.000    0.000    0.000    0.000    0.000 
#
# Total GULP energy -991634.534262 kJ/mol
# GULP energy per Si atom -12395.431678 kJ/mol
# Density = 1.749136 g / cm^3
# Si number density = 17.531262 Si / 1000 Ang^3
#
#
#
# Elastic Constant Matrix: (Units=GPa)
#
#
# Indices 1 2 3 4 5 6 
#
# 1 95.0512 42.6986 33.9596 0.0000 0.0000 0.0000
# 2 42.6986 95.0511 33.9595 0.0000 0.0000 0.0000
# 3 33.9596 33.9595 101.1355 0.0000 0.0000 0.0000
# 4 0.0000 0.0000 0.0000 14.5482 0.0000 0.0000
# 5 0.0000 0.0000 0.0000 0.0000 14.5483 0.0000
# 6 0.0000 0.0000 0.0000 0.0000 0.0000 14.0734
#
#
#
# Elastic Compliance Matrix: (Units=1/GPa)
#
#
# Indices 1 2 3 4 5 6 
#
# 1 0.013901 -0.005201 -0.002921 0.000000 0.000000 0.000000
# 2 -0.005201 0.013901 -0.002921 0.000000 0.000000 0.000000
# 3 -0.002921 -0.002921 0.011850 0.000000 0.000000 0.000000
# 4 0.000000 0.000000 0.000000 0.068737 0.000000 0.000000
# 5 0.000000 0.000000 0.000000 0.000000 0.068737 0.000000
# 6 0.000000 0.000000 0.000000 0.000000 0.000000 0.071056
#
#
# Mechanical properties :
#
#
# Convention : Reuss Voigt Hill
#
# Bulk Modulus (GPa) = 56.93380 56.94147 56.93763
# Shear Modulus (GPa) = 18.10795 20.67531 19.39163
#
# Velocity S-wave (km/s) = 3.21736 3.43788 3.32944
# Velocity P-wave (km/s) = 6.80793 6.95048 6.87957
#
# Compressibility (1/GPa) = 0.01756426
#
# Stress axis : x y z
#
# Youngs Moduli (GPa) = 71.93939 71.93941 84.39128
#
# Poissons Ratio (x) = 0.37413 0.24653
# Poissons Ratio (y) = 0.37413 0.24653
# Poissons Ratio (z) = 0.21016 0.21015
#
# Static dielectric constant tensor:
#      x y z
#    x 3.012220 0.000000 0.000000 
#    y 0.000000 3.012220 0.000000 
#    z 0.000000 0.000000 3.513800 
# 
# 
# High freq. dielectric constant tensor:
#      x y z
#    x 1.648690 0.000000 0.000000 
#    y 0.000000 1.648680 0.000000 
#    z 0.000000 0.000000 1.689780 
# 
# From -- ./inp_files/12928.got.cif
#   From: 2010.03.12/outbox.cif.g09.slc.cpg/sg139_7_cif.got.tgz:12928.got - 2010.04.08 09:46:31.
