data_PCOD8319261
_publ_section_title
;
Structure prediction by ZEFSAII (Michael W. Deem and Ramdas Pophale) SiO2 
 PCOD8319261
Probable space group: I 4/M M M
;
_chemical_formula_sum "Si O2"
_cell_formula_units_Z 176
_cell_length_a 26.616166
_cell_length_b 26.616166
_cell_length_c 17.188765
_cell_angle_alpha 90.000000
_cell_angle_beta 90.000000
_cell_angle_gamma 90.000000
_cell_volume 12176.869930
_symmetry_space_group_name_H-M "I 4/M M M"
_symmetry_group_IT_number 139
_symmetry_cell_setting 'tetragonal'
loop_
_space_group_symop_operation_xyz
x,y,z
-y,x,z
-x,-y,z
y,-x,z
x,-y,-z
-x,y,-z
y,x,-z
-y,-x,-z
-x,-y,-z
y,-x,-z
x,y,-z
-y,x,-z
-x,y,z
x,-y,z
-y,-x,z
y,x,z
1/2+x,1/2+y,1/2+z
1/2-y,1/2+x,1/2+z
1/2-x,1/2-y,1/2+z
1/2+y,1/2-x,1/2+z
1/2+x,1/2-y,1/2-z
1/2-x,1/2+y,1/2-z
1/2+y,1/2+x,1/2-z
1/2-y,1/2-x,1/2-z
1/2-x,1/2-y,1/2-z
1/2+y,1/2-x,1/2-z
1/2+x,1/2+y,1/2-z
1/2-y,1/2+x,1/2-z
1/2-x,1/2+y,1/2+z
1/2+x,1/2-y,1/2+z
1/2-y,1/2-x,1/2+z
1/2+y,1/2+x,1/2+z
loop_
_atom_site_type_symbol
_atom_site_label
_atom_site_fract_x
_atom_site_fract_y
_atom_site_fract_z
Si Si1 0.221788 0.695552 0.831465
Si Si2 0.802496 0.056198 0.155489
Si Si3 0.554873 0.636130 0.500000
Si Si4 0.124501 0.791009 0.587758
Si Si5 0.232687 0.150403 0.910588
Si Si6 0.557710 0.359597 0.186049
O O1 0.270348 0.729653 0.816308
O O2 0.191213 0.691213 0.750000
O O3 0.241553 0.641851 0.863687
O O4 0.185401 0.719184 0.896315
O O5 0.762990 0.102403 0.148836
O O6 0.840281 0.063995 0.226374
O O7 0.777784 0.000000 0.159516
O O8 0.831843 0.064292 0.076117
O O9 0.500000 0.612952 0.500000
O O10 0.589186 0.589186 0.500000
O O11 0.109829 0.775180 0.500000
O O12 0.169632 0.830369 0.585780
O O13 0.076086 0.815635 0.628421
O O14 0.181832 0.181832 0.892229
O O15 0.233504 0.132850 0.000000
O O16 0.500000 0.372308 0.166507
O O17 0.589755 0.410246 0.174698
#
# Coordination Sequence:
#
# PCOD8319261 Si02
#       6
#    32  32  16  32  32  32
#     4   9  16  25  39  60  82 102 123 152 193 239
#     4  10  19  29  40  55  77 105 135 168 211 255
#     4  10  18  27  38  50  68  96 128 166 209 249
#     4   9  17  30  45  60  81 104 127 159 203 252
#     4  10  17  24  38  57  76  99 130 164 195 235
#     4  10  20  32  46  61  77 102 137 178 222 263
#
# _framework density 14.453633
#
# number of rings (size 3 to 8) (size 9 to 14) (size 15 to 20)
#    0.000    2.364    0.909    3.273    0.000    5.727 
#    0.000    0.000    0.000    3.273    0.000    2.545 
#    0.000    0.000    0.000    0.000    0.000    0.909 
#
# Total GULP energy -1090579.245512 kJ/mol
# GULP energy per Si atom -12392.945972 kJ/mol
# Density = 1.442074 g / cm^3
# Si number density = 14.453633 Si / 1000 Ang^3
#
#
#
# Elastic Constant Matrix: (Units=GPa)
#
#
# Indices 1 2 3 4 5 6 
#
# 1 56.2114 45.8560 29.9229 0.0000 0.0000 0.0000
# 2 45.8560 56.2114 29.9229 0.0000 0.0000 0.0000
# 3 29.9229 29.9229 88.2349 0.0000 0.0000 0.0000
# 4 0.0000 0.0000 0.0000 19.6285 0.0000 0.0000
# 5 0.0000 0.0000 0.0000 0.0000 19.6285 0.0000
# 6 0.0000 0.0000 0.0000 0.0000 0.0000 18.3479
#
#
#
# Elastic Compliance Matrix: (Units=1/GPa)
#
#
# Indices 1 2 3 4 5 6 
#
# 1 0.054398 -0.042169 -0.004147 0.000000 0.000000 0.000000
# 2 -0.042169 0.054398 -0.004147 0.000000 0.000000 0.000000
# 3 -0.004147 -0.004147 0.014146 0.000000 0.000000 0.000000
# 4 0.000000 0.000000 0.000000 0.050946 0.000000 0.000000
# 5 0.000000 0.000000 0.000000 0.000000 0.050946 0.000000
# 6 0.000000 0.000000 0.000000 0.000000 0.000000 0.054502
#
#
# Mechanical properties :
#
#
# Convention : Reuss Voigt Hill
#
# Bulk Modulus (GPa) = 45.42239 45.78459 45.60349
# Shear Modulus (GPa) = 12.89977 17.85138 15.37558
#
# Velocity S-wave (km/s) = 2.99070 3.51818 3.26511
# Velocity P-wave (km/s) = 6.58940 6.94616 6.77013
#
# Compressibility (1/GPa) = 0.02201557
#
# Stress axis : x y z
#
# Youngs Moduli (GPa) = 18.38290 18.38290 70.68998
#
# Poissons Ratio (x) = 0.77519 0.29317
# Poissons Ratio (y) = 0.77519 0.29317
# Poissons Ratio (z) = 0.07624 0.07624
#
# Static dielectric constant tensor:
#      x y z
#    x 2.790400 0.000000 0.000000 
#    y 0.000000 2.790400 0.000000 
#    z 0.000000 0.000000 2.935050 
# 
# 
# High freq. dielectric constant tensor:
#      x y z
#    x 1.518850 0.000000 0.000000 
#    y 0.000000 1.518850 0.000000 
#    z 0.000000 0.000000 1.571390 
# 
# From -- ./inp_files/6395.got.cif
#   From: 2010.03.12/outbox.cif.g09.slc.cpg/sg139_4_cif.got.tgz:6395.got - 2010.04.08 09:46:31.
