data_PCOD8319214
_publ_section_title
;
Structure prediction by ZEFSAII (Michael W. Deem and Ramdas Pophale) SiO2 
 PCOD8319214
Probable space group: P 42/N C M
;
_chemical_formula_sum "Si O2"
_cell_formula_units_Z 68
_cell_length_a 17.351539
_cell_length_b 17.351539
_cell_length_c 11.248507
_cell_angle_alpha 90.000000
_cell_angle_beta 90.000000
_cell_angle_gamma 90.000000
_cell_volume 3386.654432
_symmetry_space_group_name_H-M "P 42/N C M"
_symmetry_group_IT_number 138
_space_group.IT_coordinate_system_code '2'
_symmetry_cell_setting 'tetragonal'
loop_
_space_group_symop_operation_xyz
x,y,z
1/2-y,x,1/2+z
1/2-x,1/2-y,z
y,1/2-x,1/2+z
1/2+x,-y,1/2-z
-x,1/2+y,1/2-z
1/2+y,1/2+x,-z
-y,-x,-z
-x,-y,-z
1/2+y,-x,1/2-z
1/2+x,1/2+y,-z
-y,1/2+x,1/2-z
1/2-x,y,1/2+z
x,1/2-y,1/2+z
1/2-y,1/2-x,z
y,x,z
loop_
_atom_site_type_symbol
_atom_site_label
_atom_site_fract_x
_atom_site_fract_y
_atom_site_fract_z
Si Si1 0.368839 0.368839 0.542095
Si Si2 0.034202 0.591733 0.334439
Si Si3 0.250000 0.250000 0.430817
Si Si4 0.361268 0.361268 0.818268
Si Si5 0.480915 0.679160 0.062473
Si Si6 0.965249 0.350700 0.931358
O O1 0.304565 0.304565 0.511730
O O2 0.377417 0.377417 0.681912
O O3 0.347296 0.452380 0.493786
O O4 0.122438 0.576158 0.367590
O O5 0.024176 0.617917 0.200524
O O6 0.986471 0.513529 0.356837
O O7 0.005332 0.658086 0.423836
O O8 0.202447 0.297553 0.335944
O O9 0.325617 0.436771 0.876861
O O10 0.438838 0.761958 0.072507
O O11 0.903786 0.403786 0.000000
#
# Coordination Sequence:
#
# PCOD8319214 Si02
#       6
#     8  16   4   8  16  16
#     4  12  26  42  68 104 145 185 229 282 353 423
#     4  11  23  45  72  98 129 174 241 282 334 422
#     4  12  26  42  60 112 140 186 222 280 348 410
#     4  12  23  42  68  98 144 172 225 281 347 411
#     4  11  24  44  71  97 127 182 228 285 345 407
#     4  12  27  43  68 101 139 181 229 285 352 414
#
# _framework density 20.078811999999999
#
# number of rings (size 3 to 8) (size 9 to 14) (size 15 to 20)
#    0.000    0.471    5.882    2.824    6.588    0.000 
#    4.235    2.353    0.000    0.000    0.000    0.000 
#    0.000    0.000    0.000    0.000    0.000    0.000 
#
# Total GULP energy -843237.720215 kJ/mol
# GULP energy per Si atom -12400.554709 kJ/mol
# Density = 2.003311 g / cm^3
# Si number density = 20.078812 Si / 1000 Ang^3
#
#
#
# Elastic Constant Matrix: (Units=GPa)
#
#
# Indices 1 2 3 4 5 6 
#
# 1 132.8506 50.5677 55.9742 0.0000 0.0000 0.0000
# 2 50.5677 132.8506 55.9742 0.0000 0.0000 0.0000
# 3 55.9742 55.9742 146.0736 0.0000 0.0000 0.0000
# 4 0.0000 0.0000 0.0000 22.4129 0.0000 0.0000
# 5 0.0000 0.0000 0.0000 0.0000 22.4129 0.0000
# 6 0.0000 0.0000 0.0000 0.0000 0.0000 39.1722
#
#
#
# Elastic Compliance Matrix: (Units=1/GPa)
#
#
# Indices 1 2 3 4 5 6 
#
# 1 0.009635 -0.002518 -0.002727 0.000000 0.000000 0.000000
# 2 -0.002518 0.009635 -0.002727 0.000000 0.000000 0.000000
# 3 -0.002727 -0.002727 0.008936 0.000000 0.000000 0.000000
# 4 0.000000 0.000000 0.000000 0.044617 0.000000 0.000000
# 5 0.000000 0.000000 0.000000 0.000000 0.044617 0.000000
# 6 0.000000 0.000000 0.000000 0.000000 0.000000 0.025528
#
#
# Mechanical properties :
#
#
# Convention : Reuss Voigt Hill
#
# Bulk Modulus (GPa) = 81.56101 81.86746 81.71424
# Shear Modulus (GPa) = 30.67494 33.41683 32.04589
#
# Velocity S-wave (km/s) = 3.91285 4.08399 3.99934
# Velocity P-wave (km/s) = 7.81809 7.94356 7.88108
#
# Compressibility (1/GPa) = 0.01226076
#
# Stress axis : x y z
#
# Youngs Moduli (GPa) = 103.79043 103.79043 111.90995
#
# Poissons Ratio (x) = 0.26139 0.30517
# Poissons Ratio (y) = 0.26139 0.30517
# Poissons Ratio (z) = 0.28303 0.28303
#
# Static dielectric constant tensor:
#      x y z
#    x 3.798780 0.000000 0.000000 
#    y 0.000000 3.798780 0.000000 
#    z 0.000000 0.000000 3.776900 
# 
# 
# High freq. dielectric constant tensor:
#      x y z
#    x 1.786890 0.000000 0.000000 
#    y 0.000000 1.786890 0.000000 
#    z 0.000000 0.000000 1.800860 
# 
# From -- ./inp_files/2890.got.cif
#   From: 2010.03.12/outbox.cif.g09.slc.cpg/sg138_2_cif.got.tgz:2890.got - 2010.04.08 09:41:05.
