data_PCOD8319590
_publ_section_title
;
Structure prediction by ZEFSAII (Michael W. Deem and Ramdas Pophale) SiO2 
 PCOD8319590
Probable space group: I 4/M M M
;
_chemical_formula_sum "Si O2"
_cell_formula_units_Z 144
_cell_length_a 18.790040
_cell_length_b 18.790040
_cell_length_c 22.117558
_cell_angle_alpha 90.000000
_cell_angle_beta 90.000000
_cell_angle_gamma 90.000000
_cell_volume 7808.948957
_symmetry_space_group_name_H-M "I 4/M M M"
_symmetry_group_IT_number 139
_symmetry_cell_setting 'tetragonal'
loop_
_space_group_symop_operation_xyz
x,y,z
-y,x,z
-x,-y,z
y,-x,z
x,-y,-z
-x,y,-z
y,x,-z
-y,-x,-z
-x,-y,-z
y,-x,-z
x,y,-z
-y,x,-z
-x,y,z
x,-y,z
-y,-x,z
y,x,z
1/2+x,1/2+y,1/2+z
1/2-y,1/2+x,1/2+z
1/2-x,1/2-y,1/2+z
1/2+y,1/2-x,1/2+z
1/2+x,1/2-y,1/2-z
1/2-x,1/2+y,1/2-z
1/2+y,1/2+x,1/2-z
1/2-y,1/2-x,1/2-z
1/2-x,1/2-y,1/2-z
1/2+y,1/2-x,1/2-z
1/2+x,1/2+y,1/2-z
1/2-y,1/2+x,1/2-z
1/2-x,1/2+y,1/2+z
1/2+x,1/2-y,1/2+z
1/2-y,1/2-x,1/2+z
1/2+y,1/2+x,1/2+z
loop_
_atom_site_type_symbol
_atom_site_label
_atom_site_fract_x
_atom_site_fract_y
_atom_site_fract_z
Si Si1 0.420149 0.771943 0.874237
Si Si2 0.279196 0.164296 0.837670
Si Si3 0.691910 0.579364 0.568973
Si Si4 0.417406 0.699334 0.000000
Si Si5 0.805370 0.080485 0.255415
O O1 0.500000 0.805613 0.875539
O O2 0.363579 0.829292 0.849291
O O3 0.398076 0.745222 0.940710
O O4 0.419286 0.705954 0.827465
O O5 0.242581 0.242581 0.833426
O O6 0.250598 0.122179 0.894943
O O7 0.261779 0.119833 0.776789
O O8 0.717178 0.580390 0.500000
O O9 0.685739 0.500000 0.594560
O O10 0.614693 0.614693 0.577115
O O11 0.500000 0.677500 0.000000
O O12 0.372921 0.627080 0.000000
O O13 0.877565 0.122436 0.238520
O O14 0.812449 0.000000 0.230904
#
# Coordination Sequence:
#
# PCOD8319590 Si02
#       5
#    32  32  32  16  32
#     4  10  21  35  52  76 104 135 175 222 266 308
#     4  10  19  32  53  76 101 136 175 214 258 306
#     4   9  18  31  48  74 104 134 170 209 254 310
#     4  10  20  33  50  74 103 135 170 210 258 312
#     4  10  20  34  53  79 109 140 174 211 257 314
#
# _framework density 18.440383000000001
#
# number of rings (size 3 to 8) (size 9 to 14) (size 15 to 20)
#    0.000    2.222    0.000    3.333    1.556    2.333 
#    0.000    1.111    0.000   10.667    0.000    7.778 
#    0.000    0.000    0.000    0.000    0.000    0.000 
#
# Total GULP energy -892595.767944 kJ/mol
# GULP energy per Si atom -12397.163444 kJ/mol
# Density = 1.839841 g / cm^3
# Si number density = 18.440383 Si / 1000 Ang^3
#
#
#
# Elastic Constant Matrix: (Units=GPa)
#
#
# Indices 1 2 3 4 5 6 
#
# 1 112.7577 51.3509 35.3728 0.0000 0.0000 0.0000
# 2 51.3509 112.7592 35.3732 0.0000 0.0000 0.0000
# 3 35.3728 35.3732 110.8519 0.0000 0.0000 0.0000
# 4 0.0000 0.0000 0.0000 21.3885 0.0000 0.0000
# 5 0.0000 0.0000 0.0000 0.0000 21.3884 0.0000
# 6 0.0000 0.0000 0.0000 0.0000 0.0000 19.8415
#
#
#
# Elastic Compliance Matrix: (Units=1/GPa)
#
#
# Indices 1 2 3 4 5 6 
#
# 1 0.011675 -0.004610 -0.002255 0.000000 0.000000 0.000000
# 2 -0.004610 0.011675 -0.002255 0.000000 0.000000 0.000000
# 3 -0.002255 -0.002255 0.010460 0.000000 0.000000 0.000000
# 4 0.000000 0.000000 0.000000 0.046754 0.000000 0.000000
# 5 0.000000 0.000000 0.000000 0.000000 0.046754 0.000000
# 6 0.000000 0.000000 0.000000 0.000000 0.000000 0.050399
#
#
# Mechanical properties :
#
#
# Convention : Reuss Voigt Hill
#
# Bulk Modulus (GPa) = 64.21605 64.50697 64.36151
# Shear Modulus (GPa) = 24.85754 26.80848 25.83301
#
# Velocity S-wave (km/s) = 3.67549 3.81700 3.74691
# Velocity P-wave (km/s) = 7.27403 7.38128 7.32785
#
# Compressibility (1/GPa) = 0.01557243
#
# Stress axis : x y z
#
# Youngs Moduli (GPa) = 85.65230 85.65337 95.60297
#
# Poissons Ratio (x) = 0.39483 0.21555
# Poissons Ratio (y) = 0.39482 0.21555
# Poissons Ratio (z) = 0.19311 0.19311
#
# Static dielectric constant tensor:
#      x y z
#    x 3.285410 0.000000 0.000000 
#    y 0.000000 3.285410 0.000000 
#    z 0.000000 0.000000 3.729920 
# 
# 
# High freq. dielectric constant tensor:
#      x y z
#    x 1.695600 0.000000 0.000000 
#    y 0.000000 1.695600 0.000000 
#    z 0.000000 0.000000 1.742330 
# 
# From -- ./inp_files/11495.got.cif
#   From: 2010.03.12/outbox.cif.g09.slc.cpg/sg139_6_cif.got.tgz:11495.got - 2010.04.08 09:46:31.
