data_PCOD8319097
_publ_section_title
;
Structure prediction by ZEFSAII (Michael W. Deem and Ramdas Pophale) SiO2 
 PCOD8319097
Probable space group: P 42/N C M
;
_chemical_formula_sum "Si O2"
_cell_formula_units_Z 88
_cell_length_a 14.612092
_cell_length_b 14.612092
_cell_length_c 18.720237
_cell_angle_alpha 90.000000
_cell_angle_beta 90.000000
_cell_angle_gamma 90.000000
_cell_volume 3997.018317
_symmetry_space_group_name_H-M "P 42/N C M"
_symmetry_group_IT_number 138
_space_group.IT_coordinate_system_code '2'
_symmetry_cell_setting 'tetragonal'
loop_
_space_group_symop_operation_xyz
x,y,z
1/2-y,x,1/2+z
1/2-x,1/2-y,z
y,1/2-x,1/2+z
1/2+x,-y,1/2-z
-x,1/2+y,1/2-z
1/2+y,1/2+x,-z
-y,-x,-z
-x,-y,-z
1/2+y,-x,1/2-z
1/2+x,1/2+y,-z
-y,1/2+x,1/2-z
1/2-x,y,1/2+z
x,1/2-y,1/2+z
1/2-y,1/2-x,z
y,x,z
loop_
_atom_site_type_symbol
_atom_site_label
_atom_site_fract_x
_atom_site_fract_y
_atom_site_fract_z
Si Si1 0.140181 0.605951 0.173587
Si Si2 0.463323 0.317766 0.958348
Si Si3 0.478269 0.720726 0.188177
Si Si4 0.320945 0.320945 0.489114
Si Si5 0.621895 0.258894 0.538899
Si Si6 0.825937 0.674064 0.746482
Si Si7 0.089297 0.410704 0.120485
O O1 0.056216 0.675915 0.178833
O O2 0.171008 0.586027 0.254331
O O3 0.225868 0.640774 0.124115
O O4 0.105323 0.517403 0.132061
O O5 0.414271 0.414271 0.977108
O O6 0.529400 0.329406 0.889212
O O7 0.388114 0.239709 0.939709
O O8 0.519957 0.281238 0.026777
O O9 0.584033 0.714368 0.209180
O O10 0.250000 0.250000 0.528369
O O11 0.381486 0.381486 0.542035
O O12 0.688153 0.188153 0.500000
O O13 0.642691 0.357310 0.500000
O O14 0.750000 0.750000 0.744312
O O15 0.849549 0.650452 0.827411
#
# Coordination Sequence:
#
# PCOD8319097 Si02
#       7
#    16  16  16   8  16   8   8
#     4  11  25  43  68 102 135 183 227 283 346 402
#     4  11  23  42  67  98 136 173 220 280 338 406
#     4  11  25  42  66 100 138 176 226 281 342 413
#     4  10  21  37  71 100 135 181 225 273 345 404
#     4  11  24  43  67  97 131 176 229 280 337 403
#     4  10  23  42  65  93 136 180 224 280 350 409
#     4  10  21  43  64  98 136 168 233 288 333 405
#
# _framework density 22.016413
#
# number of rings (size 3 to 8) (size 9 to 14) (size 15 to 20)
#    0.000    1.273    4.545    0.273    5.091    0.727 
#    0.000    1.818    0.000    0.000    0.000    0.000 
#    0.000    0.000    0.000    0.000    0.000    0.000 
#
# Total GULP energy -1090535.515886 kJ/mol
# GULP energy per Si atom -12392.449044 kJ/mol
# Density = 2.196630 g / cm^3
# Si number density = 22.016413 Si / 1000 Ang^3
#
#
#
# Elastic Constant Matrix: (Units=GPa)
#
#
# Indices 1 2 3 4 5 6 
#
# 1 102.1634 70.4665 42.0519 0.0000 0.0000 0.0000
# 2 70.4665 102.1628 42.0519 0.0000 0.0000 0.0000
# 3 42.0519 42.0519 110.3650 0.0000 0.0000 0.0000
# 4 0.0000 0.0000 0.0000 28.3038 0.0000 0.0000
# 5 0.0000 0.0000 0.0000 0.0000 28.3039 0.0000
# 6 0.0000 0.0000 0.0000 0.0000 0.0000 52.0915
#
#
#
# Elastic Compliance Matrix: (Units=1/GPa)
#
#
# Indices 1 2 3 4 5 6 
#
# 1 0.019331 -0.012218 -0.002710 0.000000 0.000000 0.000000
# 2 -0.012218 0.019331 -0.002710 0.000000 0.000000 0.000000
# 3 -0.002710 -0.002710 0.011126 0.000000 0.000000 0.000000
# 4 0.000000 0.000000 0.000000 0.035331 0.000000 0.000000
# 5 0.000000 0.000000 0.000000 0.000000 0.035331 0.000000
# 6 0.000000 0.000000 0.000000 0.000000 0.000000 0.019197
#
#
# Mechanical properties :
#
#
# Convention : Reuss Voigt Hill
#
# Bulk Modulus (GPa) = 68.91140 69.31464 69.11302
# Shear Modulus (GPa) = 27.81459 32.41456 30.11458
#
# Velocity S-wave (km/s) = 3.55823 3.84121 3.70242
# Velocity P-wave (km/s) = 6.94617 7.15714 7.05245
#
# Compressibility (1/GPa) = 0.01451139
#
# Stress axis : x y z
#
# Youngs Moduli (GPa) = 51.73007 51.72971 89.87765
#
# Poissons Ratio (x) = 0.63203 0.24359
# Poissons Ratio (y) = 0.63204 0.24360
# Poissons Ratio (z) = 0.14020 0.14020
#
# Static dielectric constant tensor:
#      x y z
#    x 4.244060 0.000000 0.000000 
#    y 0.000000 4.244070 0.000000 
#    z 0.000000 0.000000 4.053180 
# 
# 
# High freq. dielectric constant tensor:
#      x y z
#    x 1.867060 0.000000 0.000000 
#    y 0.000000 1.867060 0.000000 
#    z 0.000000 0.000000 1.866710 
# 
# From -- ./inp_files/6186.got.cif
#   From: 2010.03.12/outbox.cif.g09.slc.cpg/sg138_4_cif.got.tgz:6186.got - 2010.04.08 09:41:05.
