data_PCOD8319919
_publ_section_title
;
Structure prediction by ZEFSAII (Michael W. Deem and Ramdas Pophale) SiO2 
 PCOD8319919
Probable space group: I 4/M M M
;
_chemical_formula_sum "Si O2"
_cell_formula_units_Z 96
_cell_length_a 24.022836
_cell_length_b 24.022836
_cell_length_c 8.610337
_cell_angle_alpha 90.000000
_cell_angle_beta 90.000000
_cell_angle_gamma 90.000000
_cell_volume 4968.996634
_symmetry_space_group_name_H-M "I 4/M M M"
_symmetry_group_IT_number 139
_symmetry_cell_setting 'tetragonal'
loop_
_space_group_symop_operation_xyz
x,y,z
-y,x,z
-x,-y,z
y,-x,z
x,-y,-z
-x,y,-z
y,x,-z
-y,-x,-z
-x,-y,-z
y,-x,-z
x,y,-z
-y,x,-z
-x,y,z
x,-y,z
-y,-x,z
y,x,z
1/2+x,1/2+y,1/2+z
1/2-y,1/2+x,1/2+z
1/2-x,1/2-y,1/2+z
1/2+y,1/2-x,1/2+z
1/2+x,1/2-y,1/2-z
1/2-x,1/2+y,1/2-z
1/2+y,1/2+x,1/2-z
1/2-y,1/2-x,1/2-z
1/2-x,1/2-y,1/2-z
1/2+y,1/2-x,1/2-z
1/2+x,1/2+y,1/2-z
1/2-y,1/2+x,1/2-z
1/2-x,1/2+y,1/2+z
1/2+x,1/2-y,1/2+z
1/2-y,1/2-x,1/2+z
1/2+y,1/2+x,1/2+z
loop_
_atom_site_type_symbol
_atom_site_label
_atom_site_fract_x
_atom_site_fract_y
_atom_site_fract_z
Si Si1 0.643804 0.064790 0.819764
Si Si2 0.349752 0.349752 0.682494
Si Si3 0.353100 0.230200 0.817526
Si Si4 0.436038 0.563963 0.181564
O O1 0.584742 0.084742 0.750000
O O2 0.692258 0.094525 0.724488
O O3 0.649747 0.000000 0.792658
O O4 0.648190 0.081402 0.000000
O O5 0.345353 0.345353 0.500000
O O6 0.366996 0.290211 0.749237
O O7 0.395663 0.395663 0.724305
O O8 0.296089 0.203912 0.750000
O O9 0.345728 0.235376 0.000000
O O10 0.422403 0.500000 0.225453
O O11 0.426192 0.573809 0.000000
#
# Coordination Sequence:
#
# PCOD8319919 Si02
#       4
#    32  16  32  16
#     4  10  21  37  57  82 113 149 190 235 283 334
#     4  12  24  38  59  87 117 149 188 228 271 332
#     4  11  22  38  59  83 114 149 187 232 283 335
#     4   9  20  41  65  87 114 147 184 229 280 331
#
# _framework density 19.319794999999999
#
# number of rings (size 3 to 8) (size 9 to 14) (size 15 to 20)
#    0.000    1.500    0.000    8.500    0.000    5.000 
#    0.000    2.500    0.000    0.000    0.000    0.000 
#    0.000    0.000    0.000    0.000    0.000    0.000 
#
# Total GULP energy -595322.713337 kJ/mol
# GULP energy per Si atom -12402.556528 kJ/mol
# Density = 1.927582 g / cm^3
# Si number density = 19.319795 Si / 1000 Ang^3
#
#
#
# Elastic Constant Matrix: (Units=GPa)
#
#
# Indices 1 2 3 4 5 6 
#
# 1 114.6849 55.7597 61.5745 0.0000 0.0000 0.0000
# 2 55.7597 114.6817 61.5740 0.0000 0.0000 0.0000
# 3 61.5745 61.5740 165.8253 0.0000 0.0000 0.0000
# 4 0.0000 0.0000 0.0000 33.6214 0.0000 0.0000
# 5 0.0000 0.0000 0.0000 0.0000 33.6219 0.0000
# 6 0.0000 0.0000 0.0000 0.0000 0.0000 26.5916
#
#
#
# Elastic Compliance Matrix: (Units=1/GPa)
#
#
# Indices 1 2 3 4 5 6 
#
# 1 0.012494 -0.004476 -0.002977 0.000000 0.000000 0.000000
# 2 -0.004476 0.012495 -0.002977 0.000000 0.000000 0.000000
# 3 -0.002977 -0.002977 0.008242 0.000000 0.000000 0.000000
# 4 0.000000 0.000000 0.000000 0.029743 0.000000 0.000000
# 5 0.000000 0.000000 0.000000 0.000000 0.029743 0.000000
# 6 0.000000 0.000000 0.000000 0.000000 0.000000 0.037606
#
#
# Mechanical properties :
#
#
# Convention : Reuss Voigt Hill
#
# Bulk Modulus (GPa) = 80.84932 83.66758 82.25845
# Shear Modulus (GPa) = 32.19421 33.18588 32.69004
#
# Velocity S-wave (km/s) = 4.08657 4.14903 4.11792
# Velocity P-wave (km/s) = 8.01283 8.14575 8.07956
#
# Compressibility (1/GPa) = 0.01236869
#
# Stress axis : x y z
#
# Youngs Moduli (GPa) = 80.03523 80.03273 121.33663
#
# Poissons Ratio (x) = 0.35826 0.36125
# Poissons Ratio (y) = 0.35827 0.36127
# Poissons Ratio (z) = 0.23829 0.23829
#
# Static dielectric constant tensor:
#      x y z
#    x 3.595070 0.000000 0.000000 
#    y 0.000000 3.595070 0.000000 
#    z 0.000000 0.000000 3.685010 
# 
# 
# High freq. dielectric constant tensor:
#      x y z
#    x 1.755900 0.000000 0.000000 
#    y 0.000000 1.755900 0.000000 
#    z 0.000000 0.000000 1.769010 
# 
# From -- ./inp_files/1127.got.cif
#   From: 2010.03.12/outbox.cif.g09.slc.cpg/sg139_1_cif.got.tgz:1127.got - 2010.04.08 09:46:31.
