data_PCOD8319860
_publ_section_title
;
Structure prediction by ZEFSAII (Michael W. Deem and Ramdas Pophale) SiO2 
 PCOD8319860
Probable space group: I 4/M M M
;
_chemical_formula_sum "Si O2"
_cell_formula_units_Z 160
_cell_length_a 23.884500
_cell_length_b 23.884500
_cell_length_c 15.366836
_cell_angle_alpha 90.000000
_cell_angle_beta 90.000000
_cell_angle_gamma 90.000000
_cell_volume 8766.308795
_symmetry_space_group_name_H-M "I 4/M M M"
_symmetry_group_IT_number 139
_symmetry_cell_setting 'tetragonal'
loop_
_space_group_symop_operation_xyz
x,y,z
-y,x,z
-x,-y,z
y,-x,z
x,-y,-z
-x,y,-z
y,x,-z
-y,-x,-z
-x,-y,-z
y,-x,-z
x,y,-z
-y,x,-z
-x,y,z
x,-y,z
-y,-x,z
y,x,z
1/2+x,1/2+y,1/2+z
1/2-y,1/2+x,1/2+z
1/2-x,1/2-y,1/2+z
1/2+y,1/2-x,1/2+z
1/2+x,1/2-y,1/2-z
1/2-x,1/2+y,1/2-z
1/2+y,1/2+x,1/2-z
1/2-y,1/2-x,1/2-z
1/2-x,1/2-y,1/2-z
1/2+y,1/2-x,1/2-z
1/2+x,1/2+y,1/2-z
1/2-y,1/2+x,1/2-z
1/2-x,1/2+y,1/2+z
1/2+x,1/2-y,1/2+z
1/2-y,1/2-x,1/2+z
1/2+y,1/2+x,1/2+z
loop_
_atom_site_type_symbol
_atom_site_label
_atom_site_fract_x
_atom_site_fract_y
_atom_site_fract_z
Si Si1 0.064619 0.778859 0.500000
Si Si2 0.231143 0.141057 0.000000
Si Si3 0.761794 0.062635 0.162260
Si Si4 0.173590 0.353135 0.000000
Si Si5 0.158079 0.935129 0.679416
Si Si6 0.903809 0.637495 0.836681
Si Si7 0.934038 0.500000 0.401093
O O1 0.110567 0.729810 0.500000
O O2 0.075596 0.816537 0.415663
O O3 0.000000 0.755878 0.500000
O O4 0.224324 0.103752 0.084793
O O5 0.285795 0.181237 0.000000
O O6 0.177907 0.177907 0.000000
O O7 0.794454 0.081092 0.249718
O O8 0.695153 0.062875 0.173904
O O9 0.780121 0.000000 0.136553
O O10 0.138855 0.367562 0.915269
O O11 0.103573 0.896428 0.693112
O O12 0.139641 0.000000 0.689326
O O13 0.868519 0.631481 0.750000
O O14 0.946306 0.586734 0.849087
O O15 0.909914 0.500000 0.500000
O O16 0.000000 0.500000 0.401773
#
# Coordination Sequence:
#
# PCOD8319860 Si02
#       7
#    16  16  32  16  32  32  16
#     4  10  21  38  58  79 107 147 191 227 276 335
#     4  10  21  35  56  84 112 143 186 231 280 332
#     4  10  20  36  58  81 110 149 187 227 278 332
#     4  10  22  38  55  79 110 146 183 234 286 324
#     4  10  21  37  59  86 113 143 181 225 279 343
#     4  11  22  36  56  79 110 146 191 235 281 334
#     4  11  24  38  52  77 111 149 190 239 290 326
#
# _framework density 18.251695000000002
#
# number of rings (size 3 to 8) (size 9 to 14) (size 15 to 20)
#    0.000    1.700    2.000    2.400    1.400    1.800 
#    0.000    0.000    0.000    8.400    0.000    0.000 
#    0.000    7.200    0.000    0.000    0.000    0.000 
#
# Total GULP energy -991812.374231 kJ/mol
# GULP energy per Si atom -12397.654678 kJ/mol
# Density = 1.821015 g / cm^3
# Si number density = 18.251695 Si / 1000 Ang^3
#
#
#
# Elastic Constant Matrix: (Units=GPa)
#
#
# Indices 1 2 3 4 5 6 
#
# 1 90.6625 72.3338 49.1344 0.0000 0.0000 0.0000
# 2 72.3338 90.6593 49.1343 0.0000 0.0000 0.0000
# 3 49.1344 49.1343 136.0914 0.0000 0.0000 0.0000
# 4 0.0000 0.0000 0.0000 87.3541 0.0000 0.0000
# 5 0.0000 0.0000 0.0000 0.0000 87.3807 0.0000
# 6 0.0000 0.0000 0.0000 0.0000 0.0000 158.2701
#
#
#
# Elastic Compliance Matrix: (Units=1/GPa)
#
#
# Indices 1 2 3 4 5 6 
#
# 1 0.031202 -0.023361 -0.002831 0.000000 0.000000 0.000000
# 2 -0.023361 0.031204 -0.002832 0.000000 0.000000 0.000000
# 3 -0.002831 -0.002832 0.009392 0.000000 0.000000 0.000000
# 4 0.000000 0.000000 0.000000 0.011448 0.000000 0.000000
# 5 0.000000 0.000000 0.000000 0.000000 0.011444 0.000000
# 6 0.000000 0.000000 0.000000 0.000000 0.000000 0.006318
#
#
# Mechanical properties :
#
#
# Convention : Reuss Voigt Hill
#
# Bulk Modulus (GPa) = 72.71956 73.17978 72.94967
# Shear Modulus (GPa) = 30.55495 76.38833 53.47164
#
# Velocity S-wave (km/s) = 4.09600 6.47639 5.41852
# Velocity P-wave (km/s) = 7.89296 9.80340 8.89959
#
# Compressibility (1/GPa) = 0.01375146
#
# Stress axis : x y z
#
# Youngs Moduli (GPa) = 32.04884 32.04748 106.46851
#
# Poissons Ratio (x) = 0.74866 0.30143
# Poissons Ratio (y) = 0.74869 0.30147
# Poissons Ratio (z) = 0.09073 0.09074
#
# Static dielectric constant tensor:
#      x y z
#    x 3.317390 0.000000 0.000000 
#    y 0.000000 3.317390 0.000000 
#    z 0.000000 0.000000 3.526250 
# 
# 
# High freq. dielectric constant tensor:
#      x y z
#    x 1.704780 0.000000 0.000000 
#    y 0.000000 1.704780 0.000000 
#    z 0.000000 0.000000 1.726630 
# 
# From -- ./inp_files/6040.got.cif
#   From: 2010.03.12/outbox.cif.g09.slc.cpg/sg139_4_cif.got.tgz:6040.got - 2010.04.08 09:46:31.
