data_PCOD8319139
_publ_section_title
;
Structure prediction by ZEFSAII (Michael W. Deem and Ramdas Pophale) SiO2 
 PCOD8319139
Probable space group: P 42/N C M
;
_chemical_formula_sum "Si O2"
_cell_formula_units_Z 80
_cell_length_a 16.321478
_cell_length_b 16.321478
_cell_length_c 14.681043
_cell_angle_alpha 90.000000
_cell_angle_beta 90.000000
_cell_angle_gamma 90.000000
_cell_volume 3910.892501
_symmetry_space_group_name_H-M "P 42/N C M"
_symmetry_group_IT_number 138
_space_group.IT_coordinate_system_code '2'
_symmetry_cell_setting 'tetragonal'
loop_
_space_group_symop_operation_xyz
x,y,z
1/2-y,x,1/2+z
1/2-x,1/2-y,z
y,1/2-x,1/2+z
1/2+x,-y,1/2-z
-x,1/2+y,1/2-z
1/2+y,1/2+x,-z
-y,-x,-z
-x,-y,-z
1/2+y,-x,1/2-z
1/2+x,1/2+y,-z
-y,1/2+x,1/2-z
1/2-x,y,1/2+z
x,1/2-y,1/2+z
1/2-y,1/2-x,z
y,x,z
loop_
_atom_site_type_symbol
_atom_site_label
_atom_site_fract_x
_atom_site_fract_y
_atom_site_fract_z
Si Si1 0.183717 0.046987 0.972416
Si Si2 0.872239 0.173377 0.904034
Si Si3 0.858056 0.381943 0.106293
Si Si4 0.763663 0.034570 0.843360
Si Si5 0.050762 0.182057 0.332403
O O1 0.112090 0.112090 0.987987
O O2 0.255228 0.083765 0.909025
O O3 0.147986 0.966404 0.922562
O O4 0.223895 0.021693 0.068192
O O5 0.864429 0.264100 0.861176
O O6 0.833087 0.105600 0.837542
O O7 0.824076 0.175925 0.000000
O O8 0.922463 0.325177 0.158850
O O9 0.874517 0.477104 0.128474
O O10 0.866264 0.366264 0.000000
O O11 0.767322 0.977295 0.755832
O O12 0.124548 0.124548 0.302382
#
# Coordination Sequence:
#
# PCOD8319139 Si02
#       5
#    16  16  16  16  16
#     4  10  22  42  65  89 121 165 215 264 316 370
#     4   9  18  33  60  92 129 164 197 247 311 385
#     4  11  20  39  62  93 129 168 211 256 320 390
#     4  11  22  39  63  97 129 167 208 257 323 389
#     4  11  26  43  62  93 130 171 219 271 323 383
#
# _framework density 20.455689
#
# number of rings (size 3 to 8) (size 9 to 14) (size 15 to 20)
#    0.000    1.600    6.000    1.200    5.600    5.200 
#    0.000    1.000    0.000    2.400    0.000    0.000 
#    0.000    0.000    0.000    0.000    0.000    0.000 
#
# Total GULP energy -991993.998489 kJ/mol
# GULP energy per Si atom -12399.924981 kJ/mol
# Density = 2.040913 g / cm^3
# Si number density = 20.455689 Si / 1000 Ang^3
#
#
#
# Elastic Constant Matrix: (Units=GPa)
#
#
# Indices 1 2 3 4 5 6 
#
# 1 83.0670 55.7526 32.5181 0.0000 0.0000 0.0000
# 2 55.7526 83.0662 32.5181 0.0000 0.0000 0.0000
# 3 32.5181 32.5181 77.5171 0.0000 0.0000 0.0000
# 4 0.0000 0.0000 0.0000 24.7338 0.0000 0.0000
# 5 0.0000 0.0000 0.0000 0.0000 24.7338 0.0000
# 6 0.0000 0.0000 0.0000 0.0000 0.0000 52.6029
#
#
#
# Elastic Compliance Matrix: (Units=1/GPa)
#
#
# Indices 1 2 3 4 5 6 
#
# 1 0.022788 -0.013823 -0.003761 0.000000 0.000000 0.000000
# 2 -0.013823 0.022789 -0.003761 0.000000 0.000000 0.000000
# 3 -0.003761 -0.003761 0.016056 0.000000 0.000000 0.000000
# 4 0.000000 0.000000 0.000000 0.040431 0.000000 0.000000
# 5 0.000000 0.000000 0.000000 0.000000 0.040430 0.000000
# 6 0.000000 0.000000 0.000000 0.000000 0.000000 0.019010
#
#
# Mechanical properties :
#
#
# Convention : Reuss Voigt Hill
#
# Bulk Modulus (GPa) = 52.79005 53.91421 53.35213
# Shear Modulus (GPa) = 23.75203 28.60487 26.17845
#
# Velocity S-wave (km/s) = 3.41126 3.74355 3.58126
# Velocity P-wave (km/s) = 6.43262 6.71561 6.57564
#
# Compressibility (1/GPa) = 0.01894296
#
# Stress axis : x y z
#
# Youngs Moduli (GPa) = 43.88214 43.88155 62.28249
#
# Poissons Ratio (x) = 0.60657 0.23424
# Poissons Ratio (y) = 0.60657 0.23425
# Poissons Ratio (z) = 0.16504 0.16504
#
# Static dielectric constant tensor:
#      x y z
#    x 3.680820 0.000000 0.000000 
#    y 0.000000 3.680810 0.000000 
#    z 0.000000 0.000000 3.705510 
# 
# 
# High freq. dielectric constant tensor:
#      x y z
#    x 1.781530 0.000000 0.000000 
#    y 0.000000 1.781530 0.000000 
#    z 0.000000 0.000000 1.807740 
# 
# From -- ./inp_files/4071.got.cif
#   From: 2010.03.12/outbox.cif.g09.slc.cpg/sg138_3_cif.got.tgz:4071.got - 2010.04.08 09:41:05.
