data_PCOD8319752
_publ_section_title
;
Structure prediction by ZEFSAII (Michael W. Deem and Ramdas Pophale) SiO2 
 PCOD8319752
Probable space group: I 4/M M M
;
_chemical_formula_sum "Si O2"
_cell_formula_units_Z 160
_cell_length_a 30.064321
_cell_length_b 30.064321
_cell_length_c 9.358843
_cell_angle_alpha 90.000000
_cell_angle_beta 90.000000
_cell_angle_gamma 90.000000
_cell_volume 8459.115628
_symmetry_space_group_name_H-M "I 4/M M M"
_symmetry_group_IT_number 139
_symmetry_cell_setting 'tetragonal'
loop_
_space_group_symop_operation_xyz
x,y,z
-y,x,z
-x,-y,z
y,-x,z
x,-y,-z
-x,y,-z
y,x,-z
-y,-x,-z
-x,-y,-z
y,-x,-z
x,y,-z
-y,x,-z
-x,y,z
x,-y,z
-y,-x,z
y,x,z
1/2+x,1/2+y,1/2+z
1/2-y,1/2+x,1/2+z
1/2-x,1/2-y,1/2+z
1/2+y,1/2-x,1/2+z
1/2+x,1/2-y,1/2-z
1/2-x,1/2+y,1/2-z
1/2+y,1/2+x,1/2-z
1/2-y,1/2-x,1/2-z
1/2-x,1/2-y,1/2-z
1/2+y,1/2-x,1/2-z
1/2+x,1/2+y,1/2-z
1/2-y,1/2+x,1/2-z
1/2-x,1/2+y,1/2+z
1/2+x,1/2-y,1/2+z
1/2-y,1/2-x,1/2+z
1/2+y,1/2+x,1/2+z
loop_
_atom_site_type_symbol
_atom_site_label
_atom_site_fract_x
_atom_site_fract_y
_atom_site_fract_z
Si Si1 0.215550 0.885559 0.663924
Si Si2 0.113533 0.113533 0.662643
Si Si3 0.949963 0.050038 0.831645
Si Si4 0.948717 0.296045 0.663477
Si Si5 0.759060 0.687630 0.655102
Si Si6 0.447537 0.117039 0.667791
O O1 0.220684 0.869947 0.500000
O O2 0.164809 0.899104 0.694577
O O3 0.249640 0.925007 0.700993
O O4 0.225873 0.845028 0.766199
O O5 0.101915 0.101915 0.500000
O O6 0.083936 0.083936 0.763514
O O7 0.000000 0.061892 0.782664
O O8 0.945742 0.054259 0.000000
O O9 0.939549 0.310515 0.500000
O O10 0.931856 0.335645 0.766411
O O11 0.000000 0.286408 0.691315
O O12 0.773437 0.668409 0.500000
O O13 0.734067 0.734067 0.630973
O O14 0.803381 0.696620 0.750000
O O15 0.435755 0.116136 0.500000
O O16 0.500000 0.110031 0.693713
O O17 0.422464 0.077537 0.750000
#
# Coordination Sequence:
#
# PCOD8319752 Si02
#       6
#    32  16  16  32  32  32
#     4  10  20  35  55  80 111 145 181 226 276 328
#     4  10  21  35  56  87 118 145 179 229 282 333
#     4   9  20  40  62  83 111 147 184 223 272 333
#     4   9  19  36  56  77 105 144 185 223 267 321
#     4  10  20  33  51  74 101 137 177 220 265 314
#     4  10  21  37  58  84 113 145 183 228 277 329
#
# _framework density 18.914507
#
# number of rings (size 3 to 8) (size 9 to 14) (size 15 to 20)
#    0.000    2.300    1.000    1.500    0.000    5.800 
#    0.000    3.500    0.000    2.400    0.000    0.000 
#    0.000    0.000    0.000    0.000    0.000    0.000 
#
# Total GULP energy -991835.290508 kJ/mol
# GULP energy per Si atom -12397.941131 kJ/mol
# Density = 1.887146 g / cm^3
# Si number density = 18.914507 Si / 1000 Ang^3
#
#
#
# Elastic Constant Matrix: (Units=GPa)
#
#
# Indices 1 2 3 4 5 6 
#
# 1 85.2415 67.8814 61.3815 0.0000 0.0000 0.0000
# 2 67.8814 85.2500 61.3833 0.0000 0.0000 0.0000
# 3 61.3815 61.3833 120.6940 0.0000 0.0000 0.0000
# 4 0.0000 0.0000 0.0000 29.9054 0.0000 0.0000
# 5 0.0000 0.0000 0.0000 0.0000 29.9047 0.0000
# 6 0.0000 0.0000 0.0000 0.0000 0.0000 38.5294
#
#
#
# Elastic Compliance Matrix: (Units=1/GPa)
#
#
# Indices 1 2 3 4 5 6 
#
# 1 0.034310 -0.023281 -0.005608 0.000000 0.000000 0.000000
# 2 -0.023281 0.034306 -0.005607 0.000000 0.000000 0.000000
# 3 -0.005608 -0.005607 0.013989 0.000000 0.000000 0.000000
# 4 0.000000 0.000000 0.000000 0.033439 0.000000 0.000000
# 5 0.000000 0.000000 0.000000 0.000000 0.033440 0.000000
# 6 0.000000 0.000000 0.000000 0.000000 0.000000 0.025954
#
#
# Mechanical properties :
#
#
# Convention : Reuss Voigt Hill
#
# Bulk Modulus (GPa) = 73.46975 74.71977 74.09476
# Shear Modulus (GPa) = 20.08286 26.37052 23.22669
#
# Velocity S-wave (km/s) = 3.26202 3.73794 3.50806
# Velocity P-wave (km/s) = 7.28801 7.63016 7.46105
#
# Compressibility (1/GPa) = 0.01361104
#
# Stress axis : x y z
#
# Youngs Moduli (GPa) = 29.14606 29.14969 71.48266
#
# Poissons Ratio (x) = 0.67865 0.40091
# Poissons Ratio (y) = 0.67856 0.40081
# Poissons Ratio (z) = 0.16346 0.16345
#
# Static dielectric constant tensor:
#      x y z
#    x 3.432260 0.000000 0.000000 
#    y 0.000000 3.432250 0.000000 
#    z 0.000000 0.000000 3.696650 
# 
# 
# High freq. dielectric constant tensor:
#      x y z
#    x 1.728500 0.000000 0.000000 
#    y 0.000000 1.728500 0.000000 
#    z 0.000000 0.000000 1.742770 
# 
# From -- ./inp_files/2228.got.cif
#   From: 2010.03.12/outbox.cif.g09.slc.cpg/sg139_2_cif.got.tgz:2228.got - 2010.04.08 09:46:31.
