data_PCOD8319867
_publ_section_title
;
Structure prediction by ZEFSAII (Michael W. Deem and Ramdas Pophale) SiO2 
 PCOD8319867
Probable space group: I 4/M M M
;
_chemical_formula_sum "Si O2"
_cell_formula_units_Z 136
_cell_length_a 17.333303
_cell_length_b 17.333303
_cell_length_c 22.968944
_cell_angle_alpha 90.000000
_cell_angle_beta 90.000000
_cell_angle_gamma 90.000000
_cell_volume 6900.867466
_symmetry_space_group_name_H-M "I 4/M M M"
_symmetry_group_IT_number 139
_symmetry_cell_setting 'tetragonal'
loop_
_space_group_symop_operation_xyz
x,y,z
-y,x,z
-x,-y,z
y,-x,z
x,-y,-z
-x,y,-z
y,x,-z
-y,-x,-z
-x,-y,-z
y,-x,-z
x,y,-z
-y,x,-z
-x,y,z
x,-y,z
-y,-x,z
y,x,z
1/2+x,1/2+y,1/2+z
1/2-y,1/2+x,1/2+z
1/2-x,1/2-y,1/2+z
1/2+y,1/2-x,1/2+z
1/2+x,1/2-y,1/2-z
1/2-x,1/2+y,1/2-z
1/2+y,1/2+x,1/2-z
1/2-y,1/2-x,1/2-z
1/2-x,1/2-y,1/2-z
1/2+y,1/2-x,1/2-z
1/2+x,1/2+y,1/2-z
1/2-y,1/2+x,1/2-z
1/2-x,1/2+y,1/2+z
1/2+x,1/2-y,1/2+z
1/2-y,1/2-x,1/2+z
1/2+y,1/2+x,1/2+z
loop_
_atom_site_type_symbol
_atom_site_label
_atom_site_fract_x
_atom_site_fract_y
_atom_site_fract_z
Si Si1 0.813627 0.410570 0.569573
Si Si2 0.339435 0.660566 0.391485
Si Si3 0.090247 0.292092 0.381769
Si Si4 0.588248 0.291949 0.000000
Si Si5 0.587160 0.587160 0.500000
Si Si6 0.091060 0.908941 0.224179
Si Si7 0.800538 0.800538 0.296226
O O1 0.814467 0.396724 0.500000
O O2 0.800047 0.500000 0.583653
O O3 0.750776 0.357405 0.602755
O O4 0.891864 0.382047 0.602093
O O5 0.379126 0.620875 0.443801
O O6 0.377759 0.622242 0.336183
O O7 0.113407 0.251731 0.442025
O O8 0.146768 0.259144 0.332250
O O9 0.000000 0.282913 0.364305
O O10 0.500000 0.309052 0.000000
O O11 0.624612 0.375389 0.000000
O O12 0.500000 0.609281 0.500000
O O13 0.138417 0.861584 0.271599
O O14 0.000000 0.892227 0.230601
O O15 0.750000 0.750000 0.250000
#
# Coordination Sequence:
#
# PCOD8319867 Si02
#       7
#    32  16  32  16   8  16  16
#     4  11  22  36  58  91 129 165 201 245 303 376
#     4  12  22  36  60  87 127 163 205 258 306 369
#     4  11  23  41  65  92 125 161 202 258 318 375
#     4  10  20  36  62  95 129 159 193 247 314 383
#     4  11  20  30  50  84 124 164 200 243 312 380
#     4  11  24  42  62  86 120 162 207 253 303 363
#     4  12  25  43  67  91 119 161 214 261 307 365
#
# _framework density 19.707666
#
# number of rings (size 3 to 8) (size 9 to 14) (size 15 to 20)
#    0.000    0.882    3.529    4.941    0.000    1.529 
#    0.000    2.353    0.000    0.000    0.000    0.000 
#    0.000    0.000    0.000    0.000    0.000    0.000 
#
# Total GULP energy -842505.991331 kJ/mol
# GULP energy per Si atom -12389.793990 kJ/mol
# Density = 1.966281 g / cm^3
# Si number density = 19.707666 Si / 1000 Ang^3
#
#
#
# Elastic Constant Matrix: (Units=GPa)
#
#
# Indices 1 2 3 4 5 6 
#
# 1 105.5707 52.6106 53.6492 0.0000 0.0000 0.0000
# 2 52.6106 105.5760 53.6471 0.0000 0.0000 0.0000
# 3 53.6492 53.6471 106.7078 0.0000 0.0000 0.0000
# 4 0.0000 0.0000 0.0000 40.9218 0.0000 0.0000
# 5 0.0000 0.0000 0.0000 0.0000 40.9189 0.0000
# 6 0.0000 0.0000 0.0000 0.0000 0.0000 38.2519
#
#
#
# Elastic Compliance Matrix: (Units=1/GPa)
#
#
# Indices 1 2 3 4 5 6 
#
# 1 0.014238 -0.004644 -0.004824 0.000000 0.000000 0.000000
# 2 -0.004644 0.014237 -0.004823 0.000000 0.000000 0.000000
# 3 -0.004824 -0.004823 0.014221 0.000000 0.000000 0.000000
# 4 0.000000 0.000000 0.000000 0.024437 0.000000 0.000000
# 5 0.000000 0.000000 0.000000 0.000000 0.024439 0.000000
# 6 0.000000 0.000000 0.000000 0.000000 0.000000 0.026142
#
#
# Mechanical properties :
#
#
# Convention : Reuss Voigt Hill
#
# Bulk Modulus (GPa) = 70.84535 70.85203 70.84869
# Shear Modulus (GPa) = 33.11287 34.54839 33.83063
#
# Velocity S-wave (km/s) = 4.10347 4.19148 4.14771
# Velocity P-wave (km/s) = 7.64706 7.71066 7.67892
#
# Compressibility (1/GPa) = 0.01411525
#
# Stress axis : x y z
#
# Youngs Moduli (GPa) = 70.23513 70.24177 70.31830
#
# Poissons Ratio (x) = 0.32620 0.33919
# Poissons Ratio (y) = 0.32617 0.33911
# Poissons Ratio (z) = 0.33879 0.33874
#
# Static dielectric constant tensor:
#      x y z
#    x 4.896830 0.000000 0.000000 
#    y 0.000000 4.896800 0.000000 
#    z 0.000000 0.000000 2.617000 
# 
# 
# High freq. dielectric constant tensor:
#      x y z
#    x 1.778420 0.000000 0.000000 
#    y 0.000000 1.778420 0.000000 
#    z 0.000000 0.000000 1.766660 
# 
# From -- ./inp_files/10010.got.cif
#   From: 2010.03.12/outbox.cif.g09.slc.cpg/sg139_6_cif.got.tgz:10010.got - 2010.04.08 09:46:31.
