data_PCOD8319863
_publ_section_title
;
Structure prediction by ZEFSAII (Michael W. Deem and Ramdas Pophale) SiO2 
 PCOD8319863
Probable space group: I 4/M M M
;
_chemical_formula_sum "Si O2"
_cell_formula_units_Z 160
_cell_length_a 30.935625
_cell_length_b 30.935625
_cell_length_c 9.112348
_cell_angle_alpha 90.000000
_cell_angle_beta 90.000000
_cell_angle_gamma 90.000000
_cell_volume 8720.634532
_symmetry_space_group_name_H-M "I 4/M M M"
_symmetry_group_IT_number 139
_symmetry_cell_setting 'tetragonal'
loop_
_space_group_symop_operation_xyz
x,y,z
-y,x,z
-x,-y,z
y,-x,z
x,-y,-z
-x,y,-z
y,x,-z
-y,-x,-z
-x,-y,-z
y,-x,-z
x,y,-z
-y,x,-z
-x,y,z
x,-y,z
-y,-x,z
y,x,z
1/2+x,1/2+y,1/2+z
1/2-y,1/2+x,1/2+z
1/2-x,1/2-y,1/2+z
1/2+y,1/2-x,1/2+z
1/2+x,1/2-y,1/2-z
1/2-x,1/2+y,1/2-z
1/2+y,1/2+x,1/2-z
1/2-y,1/2-x,1/2-z
1/2-x,1/2-y,1/2-z
1/2+y,1/2-x,1/2-z
1/2+x,1/2+y,1/2-z
1/2-y,1/2+x,1/2-z
1/2-x,1/2+y,1/2+z
1/2+x,1/2-y,1/2+z
1/2-y,1/2-x,1/2+z
1/2+y,1/2+x,1/2+z
loop_
_atom_site_type_symbol
_atom_site_label
_atom_site_fract_x
_atom_site_fract_y
_atom_site_fract_z
Si Si1 0.000000 0.110615 0.838154
Si Si2 0.143915 0.143915 0.833121
Si Si3 0.767621 0.904765 0.171446
Si Si4 0.500000 0.288489 0.340179
Si Si5 0.548996 0.889222 0.171541
Si Si6 0.381532 0.818928 0.172915
Si Si7 0.916483 0.083518 0.328426
O O1 0.960381 0.097115 0.742652
O O2 0.000000 0.160995 0.860520
O O3 0.000000 0.088633 0.000000
O O4 0.130320 0.193788 0.808588
O O5 0.118973 0.118973 0.707219
O O6 0.130190 0.130190 0.000000
O O7 0.776326 0.953790 0.236032
O O8 0.728797 0.885720 0.264737
O O9 0.755862 0.908066 0.000000
O O10 0.500000 0.266305 0.500000
O O11 0.500000 0.882476 0.226257
O O12 0.569115 0.930886 0.250000
O O13 0.575340 0.845987 0.212258
O O14 0.550961 0.898599 0.000000
O O15 0.340421 0.840421 0.250000
O O16 0.373302 0.817153 0.000000
O O17 0.922083 0.077918 0.500000
#
# Coordination Sequence:
#
# PCOD8319863 Si02
#       7
#    16  16  32  16  32  32  16
#     4  11  21  40  62  79 109 159 202 231 283 356
#     4  10  20  38  62  84 114 156 192 226 280 354
#     4  10  20  36  59  89 116 146 190 235 277 334
#     4   9  18  33  58  88 115 145 190 235 274 334
#     4   9  19  35  53  76 109 146 185 226 272 328
#     4  10  21  38  59  82 113 152 188 233 286 338
#     4  12  24  37  55  85 119 148 188 248 298 336
#
# _framework density 18.347287999999999
#
# number of rings (size 3 to 8) (size 9 to 14) (size 15 to 20)
#    0.000    2.000    2.000    1.800    1.400    2.400 
#    0.000    2.500    0.000    0.000    0.000    0.000 
#    0.000    0.000    0.000    0.000    0.000    0.000 
#
# Total GULP energy -991458.000067 kJ/mol
# GULP energy per Si atom -12393.225001 kJ/mol
# Density = 1.830553 g / cm^3
# Si number density = 18.347288 Si / 1000 Ang^3
#
#
#
# Elastic Constant Matrix: (Units=GPa)
#
#
# Indices 1 2 3 4 5 6 
#
# 1 131.2002 64.2456 53.4301 0.0000 0.0000 0.0000
# 2 64.2456 131.1975 53.4299 0.0000 0.0000 0.0000
# 3 53.4301 53.4299 99.3166 0.0000 0.0000 0.0000
# 4 0.0000 0.0000 0.0000 31.0801 0.0000 0.0000
# 5 0.0000 0.0000 0.0000 0.0000 31.0806 0.0000
# 6 0.0000 0.0000 0.0000 0.0000 0.0000 26.1868
#
#
#
# Elastic Compliance Matrix: (Units=1/GPa)
#
#
# Indices 1 2 3 4 5 6 
#
# 1 0.011092 -0.003844 -0.003900 0.000000 0.000000 0.000000
# 2 -0.003844 0.011092 -0.003900 0.000000 0.000000 0.000000
# 3 -0.003900 -0.003900 0.014265 0.000000 0.000000 0.000000
# 4 0.000000 0.000000 0.000000 0.032175 0.000000 0.000000
# 5 0.000000 0.000000 0.000000 0.000000 0.032174 0.000000
# 6 0.000000 0.000000 0.000000 0.000000 0.000000 0.038187
#
#
# Mechanical properties :
#
#
# Convention : Reuss Voigt Hill
#
# Bulk Modulus (GPa) = 75.96766 78.21394 77.09080
# Shear Modulus (GPa) = 30.00139 30.37676 30.18907
#
# Velocity S-wave (km/s) = 4.04814 4.07339 4.06078
# Velocity P-wave (km/s) = 7.95897 8.05267 8.00596
#
# Compressibility (1/GPa) = 0.01316350
#
# Stress axis : x y z
#
# Youngs Moduli (GPa) = 90.15423 90.15207 70.10352
#
# Poissons Ratio (x) = 0.34650 0.27337
# Poissons Ratio (y) = 0.34651 0.27338
# Poissons Ratio (z) = 0.35156 0.35156
#
# Static dielectric constant tensor:
#      x y z
#    x 3.412160 0.000000 0.000000 
#    y 0.000000 3.412180 0.000000 
#    z 0.000000 0.000000 3.326030 
# 
# 
# High freq. dielectric constant tensor:
#      x y z
#    x 1.712110 0.000000 0.000000 
#    y 0.000000 1.712110 0.000000 
#    z 0.000000 0.000000 1.703510 
# 
# From -- ./inp_files/2313.got.cif
#   From: 2010.03.12/outbox.cif.g09.slc.cpg/sg139_2_cif.got.tgz:2313.got - 2010.04.08 09:46:31.
