data_PCOD8319805
_publ_section_title
;
Structure prediction by ZEFSAII (Michael W. Deem and Ramdas Pophale) SiO2 
 PCOD8319805
Probable space group: I 4/M M M
;
_chemical_formula_sum "Si O2"
_cell_formula_units_Z 176
_cell_length_a 18.847702
_cell_length_b 18.847702
_cell_length_c 27.542098
_cell_angle_alpha 90.000000
_cell_angle_beta 90.000000
_cell_angle_gamma 90.000000
_cell_volume 9783.941163
_symmetry_space_group_name_H-M "I 4/M M M"
_symmetry_group_IT_number 139
_symmetry_cell_setting 'tetragonal'
loop_
_space_group_symop_operation_xyz
x,y,z
-y,x,z
-x,-y,z
y,-x,z
x,-y,-z
-x,y,-z
y,x,-z
-y,-x,-z
-x,-y,-z
y,-x,-z
x,y,-z
-y,x,-z
-x,y,z
x,-y,z
-y,-x,z
y,x,z
1/2+x,1/2+y,1/2+z
1/2-y,1/2+x,1/2+z
1/2-x,1/2-y,1/2+z
1/2+y,1/2-x,1/2+z
1/2+x,1/2-y,1/2-z
1/2-x,1/2+y,1/2-z
1/2+y,1/2+x,1/2-z
1/2-y,1/2-x,1/2-z
1/2-x,1/2-y,1/2-z
1/2+y,1/2-x,1/2-z
1/2+x,1/2+y,1/2-z
1/2-y,1/2+x,1/2-z
1/2-x,1/2+y,1/2+z
1/2+x,1/2-y,1/2+z
1/2-y,1/2-x,1/2+z
1/2+y,1/2+x,1/2+z
loop_
_atom_site_type_symbol
_atom_site_label
_atom_site_fract_x
_atom_site_fract_y
_atom_site_fract_z
Si Si1 0.418864 0.809602 0.766430
Si Si2 0.313037 0.576589 0.946085
Si Si3 0.352896 0.763668 0.596412
Si Si4 0.181180 0.420777 0.121952
Si Si5 0.200033 0.084354 0.000000
Si Si6 0.804446 0.917373 0.190407
O O1 0.500000 0.822704 0.753131
O O2 0.380555 0.880555 0.750000
O O3 0.406338 0.795196 0.823026
O O4 0.390167 0.743269 0.735412
O O5 0.350289 0.500000 0.949084
O O6 0.368993 0.631008 0.924488
O O7 0.249624 0.572538 0.909781
O O8 0.286704 0.599590 0.000000
O O9 0.273200 0.726801 0.596811
O O10 0.357225 0.849782 0.601938
O O11 0.392460 0.745226 0.546684
O O12 0.398689 0.733037 0.640112
O O13 0.141720 0.500000 0.118419
O O14 0.123477 0.123477 0.000000
O O15 0.186826 0.000000 0.000000
O O16 0.880020 0.880020 0.194493
O O17 0.819655 0.000000 0.193113
#
# Coordination Sequence:
#
# PCOD8319805 Si02
#       6
#    32  32  32  32  16  32
#     4  10  20  36  56  80 109 140 179 224 270 317
#     4   9  18  31  48  72 103 139 179 223 268 315
#     4  10  20  35  57  82 109 144 185 228 272 321
#     4  10  20  34  53  79 110 144 181 224 271 320
#     4  10  22  39  61  87 113 143 178 222 274 326
#     4  10  21  36  56  81 110 143 179 223 274 327
#
# _framework density 17.988661
#
# number of rings (size 3 to 8) (size 9 to 14) (size 15 to 20)
#    0.000    2.182    1.818    1.091    1.273    2.455 
#    0.000    0.909    0.000    6.000    0.000    5.091 
#    0.000    0.000    0.000    0.000    0.000    0.000 
#
# Total GULP energy -1090236.284167 kJ/mol
# GULP energy per Si atom -12389.048684 kJ/mol
# Density = 1.794772 g / cm^3
# Si number density = 17.988661 Si / 1000 Ang^3
#
#
#
# Elastic Constant Matrix: (Units=GPa)
#
#
# Indices 1 2 3 4 5 6 
#
# 1 97.9447 43.6299 44.1176 0.0000 0.0000 0.0000
# 2 43.6299 97.9447 44.1176 0.0000 0.0000 0.0000
# 3 44.1176 44.1176 118.0896 0.0000 0.0000 0.0000
# 4 0.0000 0.0000 0.0000 3.5850 0.0000 0.0000
# 5 0.0000 0.0000 0.0000 0.0000 3.5850 0.0000
# 6 0.0000 0.0000 0.0000 0.0000 0.0000 16.6557
#
#
#
# Elastic Compliance Matrix: (Units=1/GPa)
#
#
# Indices 1 2 3 4 5 6 
#
# 1 0.013809 -0.004602 -0.003440 0.000000 0.000000 0.000000
# 2 -0.004602 0.013809 -0.003440 0.000000 0.000000 0.000000
# 3 -0.003440 -0.003440 0.011038 0.000000 0.000000 0.000000
# 4 0.000000 0.000000 0.000000 0.278940 0.000000 0.000000
# 5 0.000000 0.000000 0.000000 0.000000 0.278940 0.000000
# 6 0.000000 0.000000 0.000000 0.000000 0.000000 0.060039
#
#
# Mechanical properties :
#
#
# Convention : Reuss Voigt Hill
#
# Bulk Modulus (GPa) = 63.71990 64.18988 63.95489
# Shear Modulus (GPa) = 7.30172 16.90607 12.10390
#
# Velocity S-wave (km/s) = 2.01690 3.06897 2.59677
# Velocity P-wave (km/s) = 6.39711 6.95119 6.67990
#
# Compressibility (1/GPa) = 0.01569369
#
# Stress axis : x y z
#
# Youngs Moduli (GPa) = 72.41542 72.41542 90.59372
#
# Poissons Ratio (x) = 0.33326 0.31162
# Poissons Ratio (y) = 0.33326 0.31162
# Poissons Ratio (z) = 0.24909 0.24909
#
# Static dielectric constant tensor:
#      x y z
#    x 3.667970 0.000000 0.000000 
#    y 0.000000 3.667970 0.000000 
#    z 0.000000 0.000000 3.542440 
# 
# 
# High freq. dielectric constant tensor:
#      x y z
#    x 1.688140 0.000000 0.000000 
#    y 0.000000 1.688140 0.000000 
#    z 0.000000 0.000000 1.716260 
# 
# From -- ./inp_files/13086.got.cif
#   From: 2010.03.12/outbox.cif.g09.slc.cpg/sg139_7_cif.got.tgz:13086.got - 2010.04.08 09:46:31.
