data_PCOD8319608
_publ_section_title
;
Structure prediction by ZEFSAII (Michael W. Deem and Ramdas Pophale) SiO2 
 PCOD8319608
Probable space group: I 4/M M M
;
_chemical_formula_sum "Si O2"
_cell_formula_units_Z 240
_cell_length_a 19.939706
_cell_length_b 19.939706
_cell_length_c 32.725137
_cell_angle_alpha 90.000000
_cell_angle_beta 90.000000
_cell_angle_gamma 90.000000
_cell_volume 13011.248591
_symmetry_space_group_name_H-M "I 4/M M M"
_symmetry_group_IT_number 139
_symmetry_cell_setting 'tetragonal'
loop_
_space_group_symop_operation_xyz
x,y,z
-y,x,z
-x,-y,z
y,-x,z
x,-y,-z
-x,y,-z
y,x,-z
-y,-x,-z
-x,-y,-z
y,-x,-z
x,y,-z
-y,x,-z
-x,y,z
x,-y,z
-y,-x,z
y,x,z
1/2+x,1/2+y,1/2+z
1/2-y,1/2+x,1/2+z
1/2-x,1/2-y,1/2+z
1/2+y,1/2-x,1/2+z
1/2+x,1/2-y,1/2-z
1/2-x,1/2+y,1/2-z
1/2+y,1/2+x,1/2-z
1/2-y,1/2-x,1/2-z
1/2-x,1/2-y,1/2-z
1/2+y,1/2-x,1/2-z
1/2+x,1/2+y,1/2-z
1/2-y,1/2+x,1/2-z
1/2-x,1/2+y,1/2+z
1/2+x,1/2-y,1/2+z
1/2-y,1/2-x,1/2+z
1/2+y,1/2+x,1/2+z
loop_
_atom_site_type_symbol
_atom_site_label
_atom_site_fract_x
_atom_site_fract_y
_atom_site_fract_z
Si Si1 0.574886 0.311328 0.500000
Si Si2 0.690067 0.577839 0.262264
Si Si3 0.751069 0.136843 0.315890
Si Si4 0.927765 0.425339 0.048433
Si Si5 0.240784 0.646668 0.665089
Si Si6 0.922225 0.812024 0.606335
Si Si7 0.640131 0.207306 0.047949
Si Si8 0.740201 0.637740 0.423580
O O1 0.500000 0.341461 0.500000
O O2 0.628377 0.371624 0.500000
O O3 0.582775 0.263148 0.460005
O O4 0.668632 0.500000 0.261006
O O5 0.622446 0.622446 0.259524
O O6 0.741236 0.594246 0.225473
O O7 0.731251 0.592039 0.303503
O O8 0.803241 0.196759 0.314834
O O9 0.676518 0.168857 0.320048
O O10 0.766292 0.088314 0.353821
O O11 0.922950 0.500000 0.066311
O O12 0.864570 0.385194 0.065618
O O13 0.000000 0.393597 0.061704
O O14 0.923084 0.427605 0.000000
O O15 0.291214 0.708787 0.660980
O O16 0.233627 0.610928 0.620489
O O17 0.881440 0.881440 0.609328
O O18 0.897819 0.769996 0.567353
O O19 0.000000 0.830530 0.601506
O O20 0.717188 0.202902 0.061313
O O21 0.630334 0.216226 0.000000
O O22 0.664587 0.664587 0.417380
#
# Coordination Sequence:
#
# PCOD8319608 Si02
#       8
#    16  32  32  32  32  32  32  32
#     4  10  22  37  54  78 111 153 194 232 276 328
#     4  10  20  33  52  80 113 149 184 218 262 320
#     4   9  17  33  56  79 104 135 176 226 281 332
#     4   8  15  28  44  64  93 125 157 199 252 312
#     4   9  17  32  55  79 104 135 175 227 283 328
#     4  11  23  37  55  79 109 147 190 235 282 335
#     4  11  20  32  53  79 103 137 179 228 281 341
#     4  10  19  33  52  76 105 135 172 228 283 321
#
# _framework density 18.445578999999999
#
# number of rings (size 3 to 8) (size 9 to 14) (size 15 to 20)
#    0.000    2.267    2.000    2.000    0.000    4.600 
#    0.000    0.000    0.000    2.400    0.000    4.667 
#    0.000    8.533    0.000    0.000    0.000    0.000 
#
# Total GULP energy -1486944.868157 kJ/mol
# GULP energy per Si atom -12391.207235 kJ/mol
# Density = 1.840360 g / cm^3
# Si number density = 18.445579 Si / 1000 Ang^3
#
#
#
# Elastic Constant Matrix: (Units=GPa)
#
#
# Indices 1 2 3 4 5 6 
#
# 1 79.4728 33.3771 38.2581 0.0000 0.0000 0.0000
# 2 33.3771 79.4736 38.2583 0.0000 0.0000 0.0000
# 3 38.2581 38.2583 139.4396 0.0000 0.0000 0.0000
# 4 0.0000 0.0000 0.0000 12.7923 0.0000 0.0000
# 5 0.0000 0.0000 0.0000 0.0000 12.7923 0.0000
# 6 0.0000 0.0000 0.0000 0.0000 0.0000 21.1433
#
#
#
# Elastic Compliance Matrix: (Units=1/GPa)
#
#
# Indices 1 2 3 4 5 6 
#
# 1 0.016290 -0.005404 -0.002987 0.000000 0.000000 0.000000
# 2 -0.005404 0.016290 -0.002987 0.000000 0.000000 0.000000
# 3 -0.002987 -0.002987 0.008811 0.000000 0.000000 0.000000
# 4 0.000000 0.000000 0.000000 0.078172 0.000000 0.000000
# 5 0.000000 0.000000 0.000000 0.000000 0.078172 0.000000
# 6 0.000000 0.000000 0.000000 0.000000 0.000000 0.047296
#
#
# Mechanical properties :
#
#
# Convention : Reuss Voigt Hill
#
# Bulk Modulus (GPa) = 53.65982 57.57478 55.61730
# Shear Modulus (GPa) = 18.24827 21.91173 20.08000
#
# Velocity S-wave (km/s) = 3.14873 3.45035 3.30299
# Velocity P-wave (km/s) = 6.50948 6.86690 6.69058
#
# Compressibility (1/GPa) = 0.01863592
#
# Stress axis : x y z
#
# Youngs Moduli (GPa) = 61.38635 61.38693 113.49924
#
# Poissons Ratio (x) = 0.33171 0.33902
# Poissons Ratio (y) = 0.33171 0.33902
# Poissons Ratio (z) = 0.18336 0.18336
#
# Static dielectric constant tensor:
#      x y z
#    x 3.278520 0.000000 0.000000 
#    y 0.000000 3.278520 0.000000 
#    z 0.000000 0.000000 3.521970 
# 
# 
# High freq. dielectric constant tensor:
#      x y z
#    x 1.696190 0.000000 0.000000 
#    y 0.000000 1.696190 0.000000 
#    z 0.000000 0.000000 1.714410 
# 
# From -- ./inp_files/14667.got.cif
#   From: 2010.03.12/outbox.cif.g09.slc.cpg/sg139_8_cif.got.tgz:14667.got - 2010.04.08 09:46:31.
