data_PCOD8319908
_publ_section_title
;
Structure prediction by ZEFSAII (Michael W. Deem and Ramdas Pophale) SiO2 
 PCOD8319908
Probable space group: I 4/M M M
;
_chemical_formula_sum "Si O2"
_cell_formula_units_Z 176
_cell_length_a 28.051071
_cell_length_b 28.051071
_cell_length_c 10.705406
_cell_angle_alpha 90.000000
_cell_angle_beta 90.000000
_cell_angle_gamma 90.000000
_cell_volume 8423.683431
_symmetry_space_group_name_H-M "I 4/M M M"
_symmetry_group_IT_number 139
_symmetry_cell_setting 'tetragonal'
loop_
_space_group_symop_operation_xyz
x,y,z
-y,x,z
-x,-y,z
y,-x,z
x,-y,-z
-x,y,-z
y,x,-z
-y,-x,-z
-x,-y,-z
y,-x,-z
x,y,-z
-y,x,-z
-x,y,z
x,-y,z
-y,-x,z
y,x,z
1/2+x,1/2+y,1/2+z
1/2-y,1/2+x,1/2+z
1/2-x,1/2-y,1/2+z
1/2+y,1/2-x,1/2+z
1/2+x,1/2-y,1/2-z
1/2-x,1/2+y,1/2-z
1/2+y,1/2+x,1/2-z
1/2-y,1/2-x,1/2-z
1/2-x,1/2-y,1/2-z
1/2+y,1/2-x,1/2-z
1/2+x,1/2+y,1/2-z
1/2-y,1/2+x,1/2-z
1/2-x,1/2+y,1/2+z
1/2+x,1/2-y,1/2+z
1/2-y,1/2-x,1/2+z
1/2+y,1/2+x,1/2+z
loop_
_atom_site_type_symbol
_atom_site_label
_atom_site_fract_x
_atom_site_fract_y
_atom_site_fract_z
Si Si1 0.694062 0.694062 0.354886
Si Si2 0.623330 0.376671 0.234058
Si Si3 0.388885 0.945546 0.642613
Si Si4 0.204588 0.654826 0.640519
Si Si5 0.302822 0.447793 0.861765
Si Si6 0.053416 0.293317 0.779402
Si Si7 0.052288 0.052288 0.853219
O O1 0.698115 0.698115 0.500000
O O2 0.655069 0.655069 0.323936
O O3 0.745745 0.676731 0.306096
O O4 0.656050 0.408891 0.147181
O O5 0.590990 0.409011 0.320204
O O6 0.397879 0.925965 0.500000
O O7 0.416683 0.916683 0.750000
O O8 0.332538 0.942526 0.669972
O O9 0.406654 0.000000 0.649820
O O10 0.192882 0.674801 0.500000
O O11 0.167041 0.667041 0.750000
O O12 0.202107 0.597246 0.624049
O O13 0.324747 0.500000 0.832414
O O14 0.259110 0.437623 0.772293
O O15 0.281638 0.445862 0.000000
O O16 0.000000 0.297030 0.841291
O O17 0.000000 0.066579 0.800229
O O18 0.049490 0.049490 0.000000
#
# Coordination Sequence:
#
# PCOD8319908 Si02
#       7
#    16  16  32  32  32  32  16
#     4  10  22  41  59  85 125 159 201 262 311 359
#     4  12  19  35  59  86 114 158 208 251 310 365
#     4  10  22  40  63  90 121 158 198 242 296 357
#     4  11  24  43  65  92 125 164 207 255 309 368
#     4  10  21  36  55  83 121 161 204 253 304 363
#     4  10  21  39  62  89 122 159 199 248 305 362
#     4   9  19  35  55  82 115 154 204 258 310 368
#
# _framework density 20.893471999999999
#
# number of rings (size 3 to 8) (size 9 to 14) (size 15 to 20)
#    0.000    1.727    1.818    2.727    0.000    6.727 
#    0.000    2.727    0.000    0.000    0.000    3.818 
#    0.000    0.000    0.000    0.000    0.000    0.000 
#
# Total GULP energy -1090259.008515 kJ/mol
# GULP energy per Si atom -12389.306915 kJ/mol
# Density = 2.084592 g / cm^3
# Si number density = 20.893472 Si / 1000 Ang^3
#
#
#
# Elastic Constant Matrix: (Units=GPa)
#
#
# Indices 1 2 3 4 5 6 
#
# 1 105.2603 41.3592 35.9681 0.0000 0.0000 0.0000
# 2 41.3592 105.2603 35.9681 0.0000 0.0000 0.0000
# 3 35.9681 35.9681 85.0263 0.0000 0.0000 0.0000
# 4 0.0000 0.0000 0.0000 43.0062 0.0000 0.0000
# 5 0.0000 0.0000 0.0000 0.0000 43.0062 0.0000
# 6 0.0000 0.0000 0.0000 0.0000 0.0000 58.2621
#
#
#
# Elastic Compliance Matrix: (Units=1/GPa)
#
#
# Indices 1 2 3 4 5 6 
#
# 1 0.012128 -0.003521 -0.003641 0.000000 0.000000 0.000000
# 2 -0.003521 0.012128 -0.003641 0.000000 0.000000 0.000000
# 3 -0.003641 -0.003641 0.014841 0.000000 0.000000 0.000000
# 4 0.000000 0.000000 0.000000 0.023252 0.000000 0.000000
# 5 0.000000 0.000000 0.000000 0.000000 0.023252 0.000000
# 6 0.000000 0.000000 0.000000 0.000000 0.000000 0.017164
#
#
# Mechanical properties :
#
#
# Convention : Reuss Voigt Hill
#
# Bulk Modulus (GPa) = 57.17085 58.01530 57.59308
# Shear Modulus (GPa) = 38.40180 41.00501 39.70340
#
# Velocity S-wave (km/s) = 4.29182 4.43490 4.36395
# Velocity P-wave (km/s) = 7.20986 7.35200 7.28128
#
# Compressibility (1/GPa) = 0.01749143
#
# Stress axis : x y z
#
# Youngs Moduli (GPa) = 82.45426 82.45426 67.37921
#
# Poissons Ratio (x) = 0.29034 0.24532
# Poissons Ratio (y) = 0.29034 0.24532
# Poissons Ratio (z) = 0.30020 0.30020
#
# Static dielectric constant tensor:
#      x y z
#    x 4.145740 0.000000 0.000000 
#    y 0.000000 4.145740 0.000000 
#    z 0.000000 0.000000 3.431000 
# 
# 
# High freq. dielectric constant tensor:
#      x y z
#    x 1.827200 0.000000 0.000000 
#    y 0.000000 1.827200 0.000000 
#    z 0.000000 0.000000 1.796910 
# 
# From -- ./inp_files/4078.got.cif
#   From: 2010.03.12/outbox.cif.g09.slc.cpg/sg139_3_cif.got.tgz:4078.got - 2010.04.08 09:46:31.
