data_PCOD8319853
_publ_section_title
;
Structure prediction by ZEFSAII (Michael W. Deem and Ramdas Pophale) SiO2 
 PCOD8319853
Probable space group: I 4/M M M
;
_chemical_formula_sum "Si O2"
_cell_formula_units_Z 128
_cell_length_a 22.895321
_cell_length_b 22.895321
_cell_length_c 14.494814
_cell_angle_alpha 90.000000
_cell_angle_beta 90.000000
_cell_angle_gamma 90.000000
_cell_volume 7598.119515
_symmetry_space_group_name_H-M "I 4/M M M"
_symmetry_group_IT_number 139
_symmetry_cell_setting 'tetragonal'
loop_
_space_group_symop_operation_xyz
x,y,z
-y,x,z
-x,-y,z
y,-x,z
x,-y,-z
-x,y,-z
y,x,-z
-y,-x,-z
-x,-y,-z
y,-x,-z
x,y,-z
-y,x,-z
-x,y,z
x,-y,z
-y,-x,z
y,x,z
1/2+x,1/2+y,1/2+z
1/2-y,1/2+x,1/2+z
1/2-x,1/2-y,1/2+z
1/2+y,1/2-x,1/2+z
1/2+x,1/2-y,1/2-z
1/2-x,1/2+y,1/2-z
1/2+y,1/2+x,1/2-z
1/2-y,1/2-x,1/2-z
1/2-x,1/2-y,1/2-z
1/2+y,1/2-x,1/2-z
1/2+x,1/2+y,1/2-z
1/2-y,1/2+x,1/2-z
1/2-x,1/2+y,1/2+z
1/2+x,1/2-y,1/2+z
1/2-y,1/2-x,1/2+z
1/2+y,1/2+x,1/2+z
loop_
_atom_site_type_symbol
_atom_site_label
_atom_site_fract_x
_atom_site_fract_y
_atom_site_fract_z
Si Si1 0.932587 0.757701 0.337991
Si Si2 0.759558 0.240442 0.890593
Si Si3 0.068234 0.324717 0.500000
Si Si4 0.335074 0.664927 0.108209
Si Si5 0.644386 0.930152 0.000000
Si Si6 0.125972 0.698644 0.180217
O O1 0.906817 0.708988 0.409966
O O2 0.898543 0.818192 0.353456
O O3 0.922174 0.736141 0.234712
O O4 0.000000 0.770169 0.356614
O O5 0.712261 0.287740 0.856915
O O6 0.740742 0.178442 0.849869
O O7 0.763540 0.236461 0.000000
O O8 0.084386 0.393100 0.500000
O O9 0.000000 0.320966 0.500000
O O10 0.337292 0.662709 0.000000
O O11 0.677275 0.909738 0.091676
O O12 0.632878 0.000000 0.000000
O O13 0.147738 0.647738 0.250000
#
# Coordination Sequence:
#
# PCOD8319853 Si02
#       6
#    32  16  16  16  16  32
#     4  11  22  36  56  82 112 146 183 227 276 332
#     4  11  20  34  58  84 114 137 174 237 293 333
#     4  10  20  36  55  77 104 137 187 237 268 313
#     4  11  19  31  55  86 113 141 180 224 282 337
#     4  12  24  38  53  75 111 148 183 229 272 319
#     4  12  21  36  57  81 109 145 183 227 279 336
#
# _framework density 16.846273
#
# number of rings (size 3 to 8) (size 9 to 14) (size 15 to 20)
#    0.000    0.750    7.500    1.875    0.000    0.250 
#    0.000    0.000    0.000    0.375    0.000    0.875 
#    0.000    0.000    0.000    1.125    0.000    0.000 
#
# Total GULP energy -793477.185141 kJ/mol
# GULP energy per Si atom -12398.081018 kJ/mol
# Density = 1.680793 g / cm^3
# Si number density = 16.846273 Si / 1000 Ang^3
#
#
#
# Elastic Constant Matrix: (Units=GPa)
#
#
# Indices 1 2 3 4 5 6 
#
# 1 92.0921 45.6241 38.8952 0.0000 0.0000 0.0000
# 2 45.6241 92.0927 38.8947 0.0000 0.0000 0.0000
# 3 38.8952 38.8947 104.1522 0.0000 0.0000 0.0000
# 4 0.0000 0.0000 0.0000 23.3975 0.0000 0.0000
# 5 0.0000 0.0000 0.0000 0.0000 23.3975 0.0000
# 6 0.0000 0.0000 0.0000 0.0000 0.0000 22.2492
#
#
#
# Elastic Compliance Matrix: (Units=1/GPa)
#
#
# Indices 1 2 3 4 5 6 
#
# 1 0.015361 -0.006159 -0.003437 0.000000 0.000000 0.000000
# 2 -0.006159 0.015361 -0.003437 0.000000 0.000000 0.000000
# 3 -0.003437 -0.003437 0.012168 0.000000 0.000000 0.000000
# 4 0.000000 0.000000 0.000000 0.042740 0.000000 0.000000
# 5 0.000000 0.000000 0.000000 0.000000 0.042740 0.000000
# 6 0.000000 0.000000 0.000000 0.000000 0.000000 0.044945
#
#
# Mechanical properties :
#
#
# Convention : Reuss Voigt Hill
#
# Bulk Modulus (GPa) = 59.42962 59.46277 59.44620
# Shear Modulus (GPa) = 24.39165 24.80370 24.59767
#
# Velocity S-wave (km/s) = 3.80925 3.84129 3.82530
# Velocity P-wave (km/s) = 7.39604 7.41943 7.40774
#
# Compressibility (1/GPa) = 0.01682663
#
# Stress axis : x y z
#
# Youngs Moduli (GPa) = 65.09843 65.09923 82.18214
#
# Poissons Ratio (x) = 0.40093 0.28243
# Poissons Ratio (y) = 0.40093 0.28242
# Poissons Ratio (z) = 0.22372 0.22372
#
# Static dielectric constant tensor:
#      x y z
#    x 3.054380 0.000000 0.000000 
#    y 0.000000 3.054380 0.000000 
#    z 0.000000 0.000000 3.527430 
# 
# 
# High freq. dielectric constant tensor:
#      x y z
#    x 1.631400 0.000000 0.000000 
#    y 0.000000 1.631400 0.000000 
#    z 0.000000 0.000000 1.673830 
# 
# From -- ./inp_files/5509.got.cif
#   From: 2010.03.12/outbox.cif.g09.slc.cpg/sg139_3_cif.got.tgz:5509.got - 2010.04.08 09:46:31.
