data_PCOD8319707
_publ_section_title
;
Structure prediction by ZEFSAII (Michael W. Deem and Ramdas Pophale) SiO2 
 PCOD8319707
Probable space group: I 4/M M M
;
_chemical_formula_sum "Si O2"
_cell_formula_units_Z 224
_cell_length_a 23.346651
_cell_length_b 23.346651
_cell_length_c 23.663647
_cell_angle_alpha 90.000000
_cell_angle_beta 90.000000
_cell_angle_gamma 90.000000
_cell_volume 12898.252088
_symmetry_space_group_name_H-M "I 4/M M M"
_symmetry_group_IT_number 139
_symmetry_cell_setting 'tetragonal'
loop_
_space_group_symop_operation_xyz
x,y,z
-y,x,z
-x,-y,z
y,-x,z
x,-y,-z
-x,y,-z
y,x,-z
-y,-x,-z
-x,-y,-z
y,-x,-z
x,y,-z
-y,x,-z
-x,y,z
x,-y,z
-y,-x,z
y,x,z
1/2+x,1/2+y,1/2+z
1/2-y,1/2+x,1/2+z
1/2-x,1/2-y,1/2+z
1/2+y,1/2-x,1/2+z
1/2+x,1/2-y,1/2-z
1/2-x,1/2+y,1/2-z
1/2+y,1/2+x,1/2-z
1/2-y,1/2-x,1/2-z
1/2-x,1/2-y,1/2-z
1/2+y,1/2-x,1/2-z
1/2+x,1/2+y,1/2-z
1/2-y,1/2+x,1/2-z
1/2-x,1/2+y,1/2+z
1/2+x,1/2-y,1/2+z
1/2-y,1/2-x,1/2+z
1/2+y,1/2+x,1/2+z
loop_
_atom_site_type_symbol
_atom_site_label
_atom_site_fract_x
_atom_site_fract_y
_atom_site_fract_z
Si Si1 0.138934 0.332449 0.357916
Si Si2 0.360072 0.267319 0.771148
Si Si3 0.140766 0.764805 0.140367
Si Si4 0.934068 0.841061 0.065043
Si Si5 0.435113 0.065079 0.683542
Si Si6 0.657345 0.565318 0.151186
Si Si7 0.934664 0.746356 0.435470
O O1 0.143109 0.294542 0.300798
O O2 0.201772 0.344952 0.382271
O O3 0.107934 0.392341 0.347078
O O4 0.105568 0.300075 0.406889
O O5 0.298727 0.298727 0.779177
O O6 0.376509 0.260041 0.705984
O O7 0.410426 0.305178 0.797475
O O8 0.196256 0.803745 0.130990
O O9 0.087796 0.789770 0.104848
O O10 0.899094 0.899094 0.077998
O O11 0.000000 0.853821 0.079280
O O12 0.926025 0.822161 0.000000
O O13 0.500000 0.080597 0.665376
O O14 0.428005 0.071996 0.750000
O O15 0.420619 0.000000 0.665664
O O16 0.643342 0.500000 0.165038
O O17 0.597434 0.597434 0.145018
O O18 0.691812 0.573148 0.093046
O O19 0.916084 0.753139 0.500000
O O20 0.000000 0.725263 0.429063
#
# Coordination Sequence:
#
# PCOD8319707 Si02
#       7
#    32  32  32  32  32  32  32
#     4  11  19  30  52  75  93 125 168 202 235 289
#     4   9  18  32  48  70 101 131 160 197 239 284
#     4  10  20  32  48  73 105 132 153 192 249 296
#     4   9  19  36  55  74  98 129 165 204 244 287
#     4   9  18  31  45  65  95 124 151 192 241 282
#     4   9  18  32  50  73 101 132 166 206 250 294
#     4   9  19  35  52  70  94 126 166 211 252 290
#
# _framework density 17.366693999999999
#
# number of rings (size 3 to 8) (size 9 to 14) (size 15 to 20)
#    0.000    2.571    0.000    2.571    0.000    4.571 
#    0.000    0.714    0.000    0.429    0.000    8.000 
#    0.000    0.000    0.000    0.000    0.000    0.000 
#
# Total GULP energy -1388998.814348 kJ/mol
# GULP energy per Si atom -12401.775128 kJ/mol
# Density = 1.732717 g / cm^3
# Si number density = 17.366694 Si / 1000 Ang^3
#
#
#
# Elastic Constant Matrix: (Units=GPa)
#
#
# Indices 1 2 3 4 5 6 
#
# 1 114.8084 59.4725 36.5700 0.0000 0.0000 0.0000
# 2 59.4725 114.8086 36.5700 0.0000 0.0000 0.0000
# 3 36.5700 36.5700 69.0961 0.0000 0.0000 0.0000
# 4 0.0000 0.0000 0.0000 20.4328 0.0000 0.0000
# 5 0.0000 0.0000 0.0000 0.0000 20.4328 0.0000
# 6 0.0000 0.0000 0.0000 0.0000 0.0000 21.9538
#
#
#
# Elastic Compliance Matrix: (Units=1/GPa)
#
#
# Indices 1 2 3 4 5 6 
#
# 1 0.012724 -0.005348 -0.003904 0.000000 0.000000 0.000000
# 2 -0.005348 0.012724 -0.003904 0.000000 0.000000 0.000000
# 3 -0.003904 -0.003904 0.018605 0.000000 0.000000 0.000000
# 4 0.000000 0.000000 0.000000 0.048941 0.000000 0.000000
# 5 0.000000 0.000000 0.000000 0.000000 0.048941 0.000000
# 6 0.000000 0.000000 0.000000 0.000000 0.000000 0.045550
#
#
# Mechanical properties :
#
#
# Convention : Reuss Voigt Hill
#
# Bulk Modulus (GPa) = 56.36460 62.65981 59.51220
# Shear Modulus (GPa) = 22.75731 23.63725 23.19728
#
# Velocity S-wave (km/s) = 3.62387 3.69327 3.65873
# Velocity P-wave (km/s) = 7.07361 7.37196 7.22432
#
# Compressibility (1/GPa) = 0.01774163
#
# Stress axis : x y z
#
# Youngs Moduli (GPa) = 78.59261 78.59277 53.74886
#
# Poissons Ratio (x) = 0.42028 0.20983
# Poissons Ratio (y) = 0.42028 0.20983
# Poissons Ratio (z) = 0.30682 0.30682
#
# Static dielectric constant tensor:
#      x y z
#    x 3.271130 0.000000 0.000000 
#    y 0.000000 3.271120 0.000000 
#    z 0.000000 0.000000 3.156500 
# 
# 
# High freq. dielectric constant tensor:
#      x y z
#    x 1.673190 0.000000 0.000000 
#    y 0.000000 1.673190 0.000000 
#    z 0.000000 0.000000 1.657380 
# 
# From -- ./inp_files/12211.got.cif
#   From: 2010.03.12/outbox.cif.g09.slc.cpg/sg139_7_cif.got.tgz:12211.got - 2010.04.08 09:46:31.
