data_PCOD8319942
_publ_section_title
;
Structure prediction by ZEFSAII (Michael W. Deem and Ramdas Pophale) SiO2 
 PCOD8319942
Probable space group: I 4/M M M
;
_chemical_formula_sum "Si O2"
_cell_formula_units_Z 192
_cell_length_a 17.761855
_cell_length_b 17.761855
_cell_length_c 32.158722
_cell_angle_alpha 90.000000
_cell_angle_beta 90.000000
_cell_angle_gamma 90.000000
_cell_volume 10145.545948
_symmetry_space_group_name_H-M "I 4/M M M"
_symmetry_group_IT_number 139
_symmetry_cell_setting 'tetragonal'
loop_
_space_group_symop_operation_xyz
x,y,z
-y,x,z
-x,-y,z
y,-x,z
x,-y,-z
-x,y,-z
y,x,-z
-y,-x,-z
-x,-y,-z
y,-x,-z
x,y,-z
-y,x,-z
-x,y,z
x,-y,z
-y,-x,z
y,x,z
1/2+x,1/2+y,1/2+z
1/2-y,1/2+x,1/2+z
1/2-x,1/2-y,1/2+z
1/2+y,1/2-x,1/2+z
1/2+x,1/2-y,1/2-z
1/2-x,1/2+y,1/2-z
1/2+y,1/2+x,1/2-z
1/2-y,1/2-x,1/2-z
1/2-x,1/2-y,1/2-z
1/2+y,1/2-x,1/2-z
1/2+x,1/2+y,1/2-z
1/2-y,1/2+x,1/2-z
1/2-x,1/2+y,1/2+z
1/2+x,1/2-y,1/2+z
1/2-y,1/2-x,1/2+z
1/2+y,1/2+x,1/2+z
loop_
_atom_site_type_symbol
_atom_site_label
_atom_site_fract_x
_atom_site_fract_y
_atom_site_fract_z
Si Si1 0.207608 0.912065 0.661433
Si Si2 0.416248 0.416248 0.549401
Si Si3 0.168555 0.332629 0.608826
Si Si4 0.912178 0.788675 0.833659
Si Si5 0.789355 0.415003 0.248084
Si Si6 0.796160 0.203841 0.049256
Si Si7 0.082094 0.412393 0.044394
O O1 0.124086 0.875915 0.660712
O O2 0.258227 0.865029 0.629400
O O3 0.242747 0.900727 0.706576
O O4 0.201982 0.000000 0.649028
O O5 0.500000 0.394493 0.565236
O O6 0.414944 0.414944 0.500000
O O7 0.356672 0.356672 0.567055
O O8 0.217207 0.381069 0.641034
O O9 0.215662 0.316237 0.567377
O O10 0.100452 0.377420 0.588436
O O11 0.863657 0.863657 0.843778
O O12 0.901090 0.768491 0.785475
O O13 0.000000 0.803727 0.844314
O O14 0.821370 0.500000 0.249524
O O15 0.860354 0.360354 0.250000
O O16 0.794132 0.205868 0.000000
O O17 0.072661 0.500000 0.041141
O O18 0.000000 0.373581 0.047333
O O19 0.119494 0.384388 0.000000
#
# Coordination Sequence:
#
# PCOD8319942 Si02
#       7
#    32  16  32  32  32  16  32
#     4  11  23  40  64  93 122 155 192 237 292 353
#     4   8  16  33  54  76 107 150 198 244 294 354
#     4  12  21  38  57  86 116 151 194 244 295 350
#     4  11  23  39  59  86 120 161 203 245 292 345
#     4  10  21  38  63  91 125 163 197 239 288 344
#     4  11  23  36  55  83 112 147 199 254 304 349
#     4   9  19  36  57  81 111 149 190 236 296 357
#
# _framework density 18.924561000000001
#
# number of rings (size 3 to 8) (size 9 to 14) (size 15 to 20)
#    0.000    1.583    3.333    2.750    0.000    2.500 
#    0.000    1.667    0.000    3.000    0.000    0.000 
#    0.000    0.667    0.000    0.000    0.000    0.000 
#
# Total GULP energy -1189637.478758 kJ/mol
# GULP energy per Si atom -12392.057070 kJ/mol
# Density = 1.888149 g / cm^3
# Si number density = 18.924561 Si / 1000 Ang^3
#
#
#
# Elastic Constant Matrix: (Units=GPa)
#
#
# Indices 1 2 3 4 5 6 
#
# 1 106.0541 63.9965 42.7119 0.0000 0.0000 0.0000
# 2 63.9965 106.0542 42.7121 0.0000 0.0000 0.0000
# 3 42.7119 42.7121 99.2484 0.0000 0.0000 0.0000
# 4 0.0000 0.0000 0.0000 28.9410 0.0000 0.0000
# 5 0.0000 0.0000 0.0000 0.0000 28.9410 0.0000
# 6 0.0000 0.0000 0.0000 0.0000 0.0000 27.5780
#
#
#
# Elastic Compliance Matrix: (Units=1/GPa)
#
#
# Indices 1 2 3 4 5 6 
#
# 1 0.015640 -0.008137 -0.003229 0.000000 0.000000 0.000000
# 2 -0.008137 0.015640 -0.003229 0.000000 0.000000 0.000000
# 3 -0.003229 -0.003229 0.012855 0.000000 0.000000 0.000000
# 4 0.000000 0.000000 0.000000 0.034553 0.000000 0.000000
# 5 0.000000 0.000000 0.000000 0.000000 0.034553 0.000000
# 6 0.000000 0.000000 0.000000 0.000000 0.000000 0.036261
#
#
# Mechanical properties :
#
#
# Convention : Reuss Voigt Hill
#
# Bulk Modulus (GPa) = 66.91281 67.79975 67.35628
# Shear Modulus (GPa) = 27.22241 27.88773 27.55507
#
# Velocity S-wave (km/s) = 3.79683 3.84295 3.81996
# Velocity P-wave (km/s) = 7.39295 7.45621 7.42465
#
# Compressibility (1/GPa) = 0.01494482
#
# Stress axis : x y z
#
# Youngs Moduli (GPa) = 63.93974 63.93965 77.79221
#
# Poissons Ratio (x) = 0.52029 0.25117
# Poissons Ratio (y) = 0.52029 0.25118
# Poissons Ratio (z) = 0.20644 0.20645
#
# Static dielectric constant tensor:
#      x y z
#    x 3.749400 0.000000 0.000000 
#    y 0.000000 3.749410 0.000000 
#    z 0.000000 0.000000 3.572430 
# 
# 
# High freq. dielectric constant tensor:
#      x y z
#    x 1.730340 0.000000 0.000000 
#    y 0.000000 1.730340 0.000000 
#    z 0.000000 0.000000 1.750210 
# 
# From -- ./inp_files/14383.got.cif
#   From: 2010.03.12/outbox.cif.g09.slc.cpg/sg139_8_cif.got.tgz:14383.got - 2010.04.08 09:46:31.
