data_PCOD8319513
_publ_section_title
;
Structure prediction by ZEFSAII (Michael W. Deem and Ramdas Pophale) SiO2 
 PCOD8319513
Probable space group: I 4/M M M
;
_chemical_formula_sum "Si O2"
_cell_formula_units_Z 176
_cell_length_a 19.066269
_cell_length_b 19.066269
_cell_length_c 27.408138
_cell_angle_alpha 90.000000
_cell_angle_beta 90.000000
_cell_angle_gamma 90.000000
_cell_volume 9963.477959
_symmetry_space_group_name_H-M "I 4/M M M"
_symmetry_group_IT_number 139
_symmetry_cell_setting 'tetragonal'
loop_
_space_group_symop_operation_xyz
x,y,z
-y,x,z
-x,-y,z
y,-x,z
x,-y,-z
-x,y,-z
y,x,-z
-y,-x,-z
-x,-y,-z
y,-x,-z
x,y,-z
-y,x,-z
-x,y,z
x,-y,z
-y,-x,z
y,x,z
1/2+x,1/2+y,1/2+z
1/2-y,1/2+x,1/2+z
1/2-x,1/2-y,1/2+z
1/2+y,1/2-x,1/2+z
1/2+x,1/2-y,1/2-z
1/2-x,1/2+y,1/2-z
1/2+y,1/2+x,1/2-z
1/2-y,1/2-x,1/2-z
1/2-x,1/2-y,1/2-z
1/2+y,1/2-x,1/2-z
1/2+x,1/2+y,1/2-z
1/2-y,1/2+x,1/2-z
1/2-x,1/2+y,1/2+z
1/2+x,1/2-y,1/2+z
1/2-y,1/2-x,1/2+z
1/2+y,1/2+x,1/2+z
loop_
_atom_site_type_symbol
_atom_site_label
_atom_site_fract_x
_atom_site_fract_y
_atom_site_fract_z
Si Si1 0.081418 0.297046 0.585855
Si Si2 0.690187 0.579222 0.746049
Si Si3 0.776427 0.578129 0.342804
Si Si4 0.678103 0.080136 0.945498
Si Si5 0.920479 0.193112 0.500000
Si Si6 0.337267 0.778238 0.179947
O O1 0.112774 0.371122 0.568240
O O2 0.098071 0.239151 0.546283
O O3 0.115096 0.262306 0.633467
O O4 0.000000 0.310751 0.594538
O O5 0.685756 0.500000 0.765964
O O6 0.616513 0.616513 0.757550
O O7 0.703853 0.580815 0.687577
O O8 0.753817 0.620828 0.772112
O O9 0.810164 0.500000 0.335195
O O10 0.764567 0.590825 0.401451
O O11 0.826045 0.637835 0.319546
O O12 0.651430 0.000000 0.945731
O O13 0.708275 0.098870 0.000000
O O14 0.877106 0.122895 0.500000
O O15 0.000000 0.168328 0.500000
O O16 0.262894 0.737107 0.176370
#
# Coordination Sequence:
#
# PCOD8319513 Si02
#       6
#    32  32  32  32  16  32
#     4  10  19  31  47  70  98 128 162 202 248 289
#     4  10  20  34  53  76 101 131 168 210 257 304
#     4   9  18  31  49  74 103 132 164 204 248 299
#     4   9  17  30  48  71 100 132 164 197 238 291
#     4  10  20  33  47  63  87 119 157 203 248 290
#     4  10  19  32  52  74  98 132 171 208 249 299
#
# _framework density 17.664514
#
# number of rings (size 3 to 8) (size 9 to 14) (size 15 to 20)
#    0.000    2.364    0.909    2.182    0.000    2.091 
#    0.000    0.909    0.000    1.636    0.000   15.273 
#    0.000    0.000    0.000    7.091    0.000    0.000 
#
# Total GULP energy -1090181.837295 kJ/mol
# GULP energy per Si atom -12388.429969 kJ/mol
# Density = 1.762431 g / cm^3
# Si number density = 17.664514 Si / 1000 Ang^3
#
#
#
# Elastic Constant Matrix: (Units=GPa)
#
#
# Indices 1 2 3 4 5 6 
#
# 1 76.1625 38.9107 43.4171 0.0000 0.0000 0.0000
# 2 38.9107 76.1701 43.4157 0.0000 0.0000 0.0000
# 3 43.4171 43.4157 118.7757 0.0000 0.0000 0.0000
# 4 0.0000 0.0000 0.0000 -0.0770 0.0000 0.0000
# 5 0.0000 0.0000 0.0000 0.0000 0.0275 0.0000
# 6 0.0000 0.0000 0.0000 0.0000 0.0000 18.8226
#
#
#
# Elastic Compliance Matrix: (Units=1/GPa)
#
#
# Indices 1 2 3 4 5 6 
#
# 1 0.019422 -0.007421 -0.004387 0.000000 0.000000 0.000000
# 2 -0.007421 0.019419 -0.004386 0.000000 -0.000001 0.000000
# 3 -0.004387 -0.004386 0.011626 0.000000 0.000000 0.000000
# 4 0.000000 0.000000 0.000000-12.994728 -0.000700 0.000000
# 5 0.000000 -0.000001 0.000000 -0.000700 36.346646 -0.000002
# 6 0.000000 0.000000 0.000000 0.000000 -0.000002 0.053128
#
#
# Mechanical properties :
#
#
# Convention : Reuss Voigt Hill
#
# Bulk Modulus (GPa) = 55.30971 58.06613 56.68792
# Shear Modulus (GPa) = 0.21282 13.44561 6.82922
#
# Velocity S-wave (km/s) = 0.34748 2.76192 1.96836
# Velocity P-wave (km/s) = 5.61606 6.56612 6.10958
#
# Compressibility (1/GPa) = 0.01808001
#
# Stress axis : x y z
#
# Youngs Moduli (GPa) = 51.48821 51.49556 86.01530
#
# Poissons Ratio (x) = 0.38215 0.37734
# Poissons Ratio (y) = 0.38210 0.37722
# Poissons Ratio (z) = 0.22587 0.22584
#
# Static dielectric constant tensor:
#      x y z
#    x 3.164970 0.000000 0.000000 
#    y 0.000000 3.164970 0.000000 
#    z 0.000000 0.000000 3.702970 
# 
# 
# High freq. dielectric constant tensor:
#      x y z
#    x 1.666340 0.000000 0.000000 
#    y 0.000000 1.666340 0.000000 
#    z 0.000000 0.000000 1.703910 
# 
# From -- ./inp_files/13151.got.cif
#   From: 2010.03.12/outbox.cif.g09.slc.cpg/sg139_7_cif.got.tgz:13151.got - 2010.04.08 09:46:31.
