data_PCOD8319066
_publ_section_title
;
Structure prediction by ZEFSAII (Michael W. Deem and Ramdas Pophale) SiO2 
 PCOD8319066
Probable space group: P 42/N C M
;
_chemical_formula_sum "Si O2"
_cell_formula_units_Z 56
_cell_length_a 11.282185
_cell_length_b 11.282185
_cell_length_c 23.319237
_cell_angle_alpha 90.000000
_cell_angle_beta 90.000000
_cell_angle_gamma 90.000000
_cell_volume 2968.252006
_symmetry_space_group_name_H-M "P 42/N C M"
_symmetry_group_IT_number 138
_space_group.IT_coordinate_system_code '2'
_symmetry_cell_setting 'tetragonal'
loop_
_space_group_symop_operation_xyz
x,y,z
1/2-y,x,1/2+z
1/2-x,1/2-y,z
y,1/2-x,1/2+z
1/2+x,-y,1/2-z
-x,1/2+y,1/2-z
1/2+y,1/2+x,-z
-y,-x,-z
-x,-y,-z
1/2+y,-x,1/2-z
1/2+x,1/2+y,-z
-y,1/2+x,1/2-z
1/2-x,y,1/2+z
x,1/2-y,1/2+z
1/2-y,1/2-x,z
y,x,z
loop_
_atom_site_type_symbol
_atom_site_label
_atom_site_fract_x
_atom_site_fract_y
_atom_site_fract_z
Si Si1 0.986443 0.699680 0.139613
Si Si2 0.151246 0.151246 0.777011
Si Si3 0.343355 0.343355 0.550076
Si Si4 0.452682 0.047319 0.162972
Si Si5 0.245291 0.562629 0.482810
O O1 0.861416 0.638585 0.120271
O O2 0.961311 0.797269 0.188381
O O3 0.070883 0.595196 0.165071
O O4 0.047331 0.761589 0.085619
O O5 0.250000 0.250000 0.766699
O O6 0.110378 0.110378 0.715036
O O7 0.250000 0.250000 0.575080
O O8 0.406477 0.406477 0.602547
O O9 0.270402 0.437521 0.512354
O O10 0.118306 0.618306 0.500000
O O11 0.351072 0.648928 0.500000
#
# Coordination Sequence:
#
# PCOD8319066 Si02
#       5
#    16   8   8   8  16
#     4   9  19  38  63  81 120 164 198 250 314 375
#     4  10  21  39  63  88 109 163 210 257 301 372
#     4  12  23  38  63  89 129 162 200 263 314 370
#     4  10  20  41  60  84 123 160 203 250 316 372
#     4  11  21  39  64  93 125 160 209 255 321 385
#
# _framework density 18.866323999999999
#
# number of rings (size 3 to 8) (size 9 to 14) (size 15 to 20)
#    0.857    0.857    4.286    0.857    2.000    0.571 
#    5.143    0.000    0.000    0.000    0.000    0.000 
#    0.000    0.000    0.000    0.000    0.000    0.000 
#
# Total GULP energy -694117.964818 kJ/mol
# GULP energy per Si atom -12394.963657 kJ/mol
# Density = 1.882338 g / cm^3
# Si number density = 18.866324 Si / 1000 Ang^3
#
#
#
# Elastic Constant Matrix: (Units=GPa)
#
#
# Indices 1 2 3 4 5 6 
#
# 1 58.9858 61.1450 41.5028 0.0000 0.0000 0.0000
# 2 61.1450 58.9876 41.5028 0.0000 0.0000 0.0000
# 3 41.5028 41.5028 136.7868 0.0000 0.0000 0.0000
# 4 0.0000 0.0000 0.0000 33.2226 0.0000 0.0000
# 5 0.0000 0.0000 0.0000 0.0000 33.2226 0.0000
# 6 0.0000 0.0000 0.0000 0.0000 0.0000 40.2242
#
#
#
# Elastic Compliance Matrix: (Units=1/GPa)
#
#
# Indices 1 2 3 4 5 6 
#
# 1 -0.226406 0.236934 -0.003194 0.000000 0.000000 0.000000
# 2 0.236934 -0.226397 -0.003197 0.000000 0.000000 0.000000
# 3 -0.003194 -0.003197 0.009250 0.000000 0.000000 0.000000
# 4 0.000000 0.000000 0.000000 0.030100 0.000000 0.000000
# 5 0.000000 0.000000 0.000000 0.000000 0.030100 0.000000
# 6 0.000000 0.000000 0.000000 0.000000 0.000000 0.024861
#
#
# Mechanical properties :
#
#
# Convention : Reuss Voigt Hill
#
# Bulk Modulus (GPa) = 57.03909 60.34015 58.68962
# Shear Modulus (GPa) = -6.14452 28.70787 11.28167
#
# Velocity S-wave (km/s) = -1.80664 3.90506 2.44801
# Velocity P-wave (km/s) = 5.09382 7.23775 6.25828
#
# Compressibility (1/GPa) = 0.01753184
#
# Stress axis : x y z
#
# Youngs Moduli (GPa) = -4.41685 -4.41702 108.11025
#
# Poissons Ratio (x) = 1.04654 0.34535
# Poissons Ratio (y) = 1.04650 0.34561
# Poissons Ratio (z) = -0.01411 -0.01412
#
# Static dielectric constant tensor:
#      x y z
#    x 3.428400 0.000000 0.000000 
#    y 0.000000 3.428390 0.000000 
#    z 0.000000 0.000000 3.280100 
# 
# 
# High freq. dielectric constant tensor:
#      x y z
#    x 1.722750 0.000000 0.000000 
#    y 0.000000 1.722750 0.000000 
#    z 0.000000 0.000000 1.730670 
# 
# From -- ./inp_files/5772.got.cif
#   From: 2010.03.12/outbox.cif.g09.slc.cpg/sg138_3_cif.got.tgz:5772.got - 2010.04.08 09:41:05.
