data_PCOD8319966
_publ_section_title
;
Structure prediction by ZEFSAII (Michael W. Deem and Ramdas Pophale) SiO2 
 PCOD8319966
Probable space group: I 4/M M M
;
_chemical_formula_sum "Si O2"
_cell_formula_units_Z 160
_cell_length_a 23.537028
_cell_length_b 23.537028
_cell_length_c 14.534155
_cell_angle_alpha 90.000000
_cell_angle_beta 90.000000
_cell_angle_gamma 90.000000
_cell_volume 8051.801049
_symmetry_space_group_name_H-M "I 4/M M M"
_symmetry_group_IT_number 139
_symmetry_cell_setting 'tetragonal'
loop_
_space_group_symop_operation_xyz
x,y,z
-y,x,z
-x,-y,z
y,-x,z
x,-y,-z
-x,y,-z
y,x,-z
-y,-x,-z
-x,-y,-z
y,-x,-z
x,y,-z
-y,x,-z
-x,y,z
x,-y,z
-y,-x,z
y,x,z
1/2+x,1/2+y,1/2+z
1/2-y,1/2+x,1/2+z
1/2-x,1/2-y,1/2+z
1/2+y,1/2-x,1/2+z
1/2+x,1/2-y,1/2-z
1/2-x,1/2+y,1/2-z
1/2+y,1/2+x,1/2-z
1/2-y,1/2-x,1/2-z
1/2-x,1/2-y,1/2-z
1/2+y,1/2-x,1/2-z
1/2+x,1/2+y,1/2-z
1/2-y,1/2+x,1/2-z
1/2-x,1/2+y,1/2+z
1/2+x,1/2-y,1/2+z
1/2-y,1/2-x,1/2+z
1/2+y,1/2+x,1/2+z
loop_
_atom_site_type_symbol
_atom_site_label
_atom_site_fract_x
_atom_site_fract_y
_atom_site_fract_z
Si Si1 0.435462 0.732428 0.395045
Si Si2 0.141230 0.234476 0.606796
Si Si3 0.062659 0.563152 0.391061
Si Si4 0.565276 0.657992 0.774451
Si Si5 0.639302 0.162595 0.609319
O O1 0.421820 0.714536 0.500000
O O2 0.500000 0.756416 0.387668
O O3 0.428225 0.677037 0.331656
O O4 0.391351 0.779686 0.358456
O O5 0.123966 0.237796 0.500000
O O6 0.196274 0.196274 0.622886
O O7 0.087554 0.208692 0.660436
O O8 0.157976 0.296435 0.646341
O O9 0.069103 0.560473 0.500000
O O10 0.072210 0.500000 0.350417
O O11 0.109119 0.605377 0.348501
O O12 0.000000 0.585479 0.363969
O O13 0.500000 0.645505 0.799896
O O14 0.600437 0.600437 0.790873
O O15 0.638616 0.160916 0.500000
#
# Coordination Sequence:
#
# PCOD8319966 Si02
#       5
#    32  32  32  32  32
#     4   9  18  33  53  78 109 143 179 219 258 299
#     4   9  19  35  53  76 106 135 166 209 257 305
#     4   8  13  21  35  60  95 131 169 213 251 283
#     4  10  22  39  58  80 104 132 168 212 266 323
#     4   9  16  27  47  73 101 139 180 210 247 302
#
# _framework density 19.871331000000001
#
# number of rings (size 3 to 8) (size 9 to 14) (size 15 to 20)
#    0.000    3.000    0.000    1.200    0.000    5.800 
#    0.000    6.000    0.000    0.000    0.000    5.600 
#    0.000    4.800    0.000    0.400    0.000    0.000 
#
# Total GULP energy -991785.408321 kJ/mol
# GULP energy per Si atom -12397.317604 kJ/mol
# Density = 1.982610 g / cm^3
# Si number density = 19.871331 Si / 1000 Ang^3
#
#
#
# Elastic Constant Matrix: (Units=GPa)
#
#
# Indices 1 2 3 4 5 6 
#
# 1 119.7673 54.8827 20.9047 0.0000 0.0000 0.0000
# 2 54.8827 119.7673 20.9047 0.0000 0.0000 0.0000
# 3 20.9047 20.9047 46.5232 0.0000 0.0000 0.0000
# 4 0.0000 0.0000 0.0000 16.3792 0.0000 0.0000
# 5 0.0000 0.0000 0.0000 0.0000 16.3792 0.0000
# 6 0.0000 0.0000 0.0000 0.0000 0.0000 19.2445
#
#
#
# Elastic Compliance Matrix: (Units=1/GPa)
#
#
# Indices 1 2 3 4 5 6 
#
# 1 0.010914 -0.004498 -0.002883 0.000000 0.000000 0.000000
# 2 -0.004498 0.010914 -0.002883 0.000000 0.000000 0.000000
# 3 -0.002883 -0.002883 0.024085 0.000000 0.000000 0.000000
# 4 0.000000 0.000000 0.000000 0.061053 0.000000 0.000000
# 5 0.000000 0.000000 0.000000 0.000000 0.061053 0.000000
# 6 0.000000 0.000000 0.000000 0.000000 0.000000 0.051963
#
#
# Mechanical properties :
#
#
# Convention : Reuss Voigt Hill
#
# Bulk Modulus (GPa) = 39.39241 53.27133 46.33187
# Shear Modulus (GPa) = 20.08261 23.02497 21.55379
#
# Velocity S-wave (km/s) = 3.18249 3.40767 3.29700
# Velocity P-wave (km/s) = 5.77677 6.50763 6.15306
#
# Compressibility (1/GPa) = 0.02538560
#
# Stress axis : x y z
#
# Youngs Moduli (GPa) = 91.62605 91.62605 41.51882
#
# Poissons Ratio (x) = 0.41214 0.11969
# Poissons Ratio (y) = 0.41214 0.11969
# Poissons Ratio (z) = 0.26415 0.26415
#
# Static dielectric constant tensor:
#      x y z
#    x 3.642470 0.000000 0.000000 
#    y 0.000000 3.642470 0.000000 
#    z 0.000000 0.000000 3.400220 
# 
# 
# High freq. dielectric constant tensor:
#      x y z
#    x 1.767250 0.000000 0.000000 
#    y 0.000000 1.767250 0.000000 
#    z 0.000000 0.000000 1.764790 
# 
# From -- ./inp_files/5883.got.cif
#   From: 2010.03.12/outbox.cif.g09.slc.cpg/sg139_3_cif.got.tgz:5883.got - 2010.04.08 09:46:31.
