data_PCOD8319601
_publ_section_title
;
Structure prediction by ZEFSAII (Michael W. Deem and Ramdas Pophale) SiO2 
 PCOD8319601
Probable space group: I 4/M M M
;
_chemical_formula_sum "Si O2"
_cell_formula_units_Z 176
_cell_length_a 17.504657
_cell_length_b 17.504657
_cell_length_c 33.773206
_cell_angle_alpha 90.000000
_cell_angle_beta 90.000000
_cell_angle_gamma 90.000000
_cell_volume 10348.549934
_symmetry_space_group_name_H-M "I 4/M M M"
_symmetry_group_IT_number 139
_symmetry_cell_setting 'tetragonal'
loop_
_space_group_symop_operation_xyz
x,y,z
-y,x,z
-x,-y,z
y,-x,z
x,-y,-z
-x,y,-z
y,x,-z
-y,-x,-z
-x,-y,-z
y,-x,-z
x,y,-z
-y,x,-z
-x,y,z
x,-y,z
-y,-x,z
y,x,z
1/2+x,1/2+y,1/2+z
1/2-y,1/2+x,1/2+z
1/2-x,1/2-y,1/2+z
1/2+y,1/2-x,1/2+z
1/2+x,1/2-y,1/2-z
1/2-x,1/2+y,1/2-z
1/2+y,1/2+x,1/2-z
1/2-y,1/2-x,1/2-z
1/2-x,1/2-y,1/2-z
1/2+y,1/2-x,1/2-z
1/2+x,1/2+y,1/2-z
1/2-y,1/2+x,1/2-z
1/2-x,1/2+y,1/2+z
1/2+x,1/2-y,1/2+z
1/2-y,1/2-x,1/2+z
1/2+y,1/2+x,1/2+z
loop_
_atom_site_type_symbol
_atom_site_label
_atom_site_fract_x
_atom_site_fract_y
_atom_site_fract_z
Si Si1 0.324592 0.801365 0.619980
Si Si2 0.709734 0.586421 0.322023
Si Si3 0.913377 0.288588 0.741177
Si Si4 0.409968 0.284425 0.157286
Si Si5 0.000000 0.581578 0.453903
Si Si6 0.335080 0.908620 0.044907
O O1 0.259410 0.740591 0.626283
O O2 0.388980 0.784995 0.653056
O O3 0.283562 0.883397 0.627205
O O4 0.362606 0.786239 0.576877
O O5 0.689275 0.500000 0.333113
O O6 0.636633 0.636633 0.333805
O O7 0.726707 0.595762 0.275749
O O8 0.860472 0.360472 0.750000
O O9 0.890540 0.245188 0.701177
O O10 0.000000 0.319426 0.738750
O O11 0.500000 0.300394 0.150835
O O12 0.363232 0.363232 0.149797
O O13 0.920470 0.623321 0.444348
O O14 0.000000 0.500000 0.431242
O O15 0.000000 0.563445 0.500000
O O16 0.329400 0.000000 0.050322
O O17 0.310942 0.886559 0.000000
#
# Coordination Sequence:
#
# PCOD8319601 Si02
#       6
#    32  32  32  32  16  32
#     4  10  20  32  49  72  99 129 163 202 243 297
#     4  10  20  33  51  73  98 131 167 205 246 286
#     4  10  19  33  52  72 100 135 168 203 244 294
#     4  10  21  35  52  74  98 129 168 207 250 297
#     4   7  12  24  42  64  86 114 147 177 223 279
#     4   9  17  30  48  69  96 127 157 194 239 287
#
# _framework density 17.007213
#
# number of rings (size 3 to 8) (size 9 to 14) (size 15 to 20)
#    0.000    2.455    1.818    2.182    1.273    1.636 
#    0.000    0.000    0.000    3.273    0.000    0.000 
#    0.000    0.000    0.000   20.909    0.000    0.000 
#
# Total GULP energy -1090259.497355 kJ/mol
# GULP energy per Si atom -12389.312470 kJ/mol
# Density = 1.696850 g / cm^3
# Si number density = 17.007213 Si / 1000 Ang^3
#
#
#
# Elastic Constant Matrix: (Units=GPa)
#
#
# Indices 1 2 3 4 5 6 
#
# 1 76.0422 42.5518 24.0300 0.0000 0.0000 0.0000
# 2 42.5518 76.0422 24.0300 0.0000 0.0000 0.0000
# 3 24.0300 24.0300 91.7404 0.0000 0.0000 0.0000
# 4 0.0000 0.0000 0.0000 23.7217 0.0000 0.0000
# 5 0.0000 0.0000 0.0000 0.0000 23.7217 0.0000
# 6 0.0000 0.0000 0.0000 0.0000 0.0000 15.6996
#
#
#
# Elastic Compliance Matrix: (Units=1/GPa)
#
#
# Indices 1 2 3 4 5 6 
#
# 1 0.019646 -0.010213 -0.002471 0.000000 0.000000 0.000000
# 2 -0.010213 0.019646 -0.002471 0.000000 0.000000 0.000000
# 3 -0.002471 -0.002471 0.012195 0.000000 0.000000 0.000000
# 4 0.000000 0.000000 0.000000 0.042155 0.000000 0.000000
# 5 0.000000 0.000000 0.000000 0.000000 0.042155 0.000000
# 6 0.000000 0.000000 0.000000 0.000000 0.000000 0.063696
#
#
# Mechanical properties :
#
#
# Convention : Reuss Voigt Hill
#
# Bulk Modulus (GPa) = 47.21899 47.22759 47.22329
# Shear Modulus (GPa) = 21.10922 22.84281 21.97601
#
# Velocity S-wave (km/s) = 3.52688 3.66884 3.59856
# Velocity P-wave (km/s) = 6.66405 6.76584 6.71514
#
# Compressibility (1/GPa) = 0.02117792
#
# Stress axis : x y z
#
# Youngs Moduli (GPa) = 50.89994 50.89994 82.00228
#
# Poissons Ratio (x) = 0.51984 0.20262
# Poissons Ratio (y) = 0.51984 0.20262
# Poissons Ratio (z) = 0.12577 0.12577
#
# Static dielectric constant tensor:
#      x y z
#    x 3.229180 0.000000 0.000000 
#    y 0.000000 3.229180 0.000000 
#    z 0.000000 0.000000 3.106440 
# 
# 
# High freq. dielectric constant tensor:
#      x y z
#    x 1.644750 0.000000 0.000000 
#    y 0.000000 1.644750 0.000000 
#    z 0.000000 0.000000 1.649890 
# 
# From -- ./inp_files/14202.got.cif
#   From: 2010.03.12/outbox.cif.g09.slc.cpg/sg139_8_cif.got.tgz:14202.got - 2010.04.08 09:46:31.
