data_PCOD8319615
_publ_section_title
;
Structure prediction by ZEFSAII (Michael W. Deem and Ramdas Pophale) SiO2 
 PCOD8319615
Probable space group: I 4/M M M
;
_chemical_formula_sum "Si O2"
_cell_formula_units_Z 176
_cell_length_a 18.799865
_cell_length_b 18.799865
_cell_length_c 27.451814
_cell_angle_alpha 90.000000
_cell_angle_beta 90.000000
_cell_angle_gamma 90.000000
_cell_volume 9702.429795
_symmetry_space_group_name_H-M "I 4/M M M"
_symmetry_group_IT_number 139
_symmetry_cell_setting 'tetragonal'
loop_
_space_group_symop_operation_xyz
x,y,z
-y,x,z
-x,-y,z
y,-x,z
x,-y,-z
-x,y,-z
y,x,-z
-y,-x,-z
-x,-y,-z
y,-x,-z
x,y,-z
-y,x,-z
-x,y,z
x,-y,z
-y,-x,z
y,x,z
1/2+x,1/2+y,1/2+z
1/2-y,1/2+x,1/2+z
1/2-x,1/2-y,1/2+z
1/2+y,1/2-x,1/2+z
1/2+x,1/2-y,1/2-z
1/2-x,1/2+y,1/2-z
1/2+y,1/2+x,1/2-z
1/2-y,1/2-x,1/2-z
1/2-x,1/2-y,1/2-z
1/2+y,1/2-x,1/2-z
1/2+x,1/2+y,1/2-z
1/2-y,1/2+x,1/2-z
1/2-x,1/2+y,1/2+z
1/2+x,1/2-y,1/2+z
1/2-y,1/2-x,1/2+z
1/2+y,1/2+x,1/2+z
loop_
_atom_site_type_symbol
_atom_site_label
_atom_site_fract_x
_atom_site_fract_y
_atom_site_fract_z
Si Si1 0.343935 0.771994 0.913708
Si Si2 0.919925 0.708277 0.943611
Si Si3 0.418302 0.302677 0.829198
Si Si4 0.305514 0.578886 0.356234
Si Si5 0.804601 0.917843 0.500000
Si Si6 0.243776 0.361406 0.265930
O O1 0.265347 0.734654 0.917378
O O2 0.342053 0.856689 0.923963
O O3 0.378264 0.757483 0.861119
O O4 0.396957 0.739194 0.952633
O O5 0.915099 0.779765 0.911857
O O6 0.000000 0.674462 0.937129
O O7 0.906355 0.727652 0.000000
O O8 0.500000 0.312865 0.845166
O O9 0.378019 0.378019 0.836137
O O10 0.415472 0.275921 0.773738
O O11 0.330748 0.500000 0.344147
O O12 0.373488 0.626513 0.346883
O O13 0.241933 0.600531 0.318789
O O14 0.880884 0.880884 0.500000
O O15 0.820347 0.000000 0.500000
O O16 0.292554 0.292554 0.270840
O O17 0.164888 0.335113 0.250000
#
# Coordination Sequence:
#
# PCOD8319615 Si02
#       6
#    32  32  32  32  16  32
#     4  10  19  33  53  76 102 136 176 216 260 313
#     4  10  20  34  54  79 103 128 168 223 275 320
#     4  10  20  33  52  78 108 143 181 220 264 315
#     4  10  20  32  48  72 103 137 170 206 252 308
#     4  10  20  33  51  75 103 135 170 208 252 304
#     4   9  17  31  50  73 100 130 169 215 259 303
#
# _framework density 18.139786000000001
#
# number of rings (size 3 to 8) (size 9 to 14) (size 15 to 20)
#    0.000    2.182    0.909    2.727    0.000    4.455 
#    0.000    0.000    0.000    9.273    0.000    2.545 
#    0.000    4.727    0.000    0.000    0.000    0.000 
#
# Total GULP energy -1090733.765207 kJ/mol
# GULP energy per Si atom -12394.701877 kJ/mol
# Density = 1.809850 g / cm^3
# Si number density = 18.139786 Si / 1000 Ang^3
#
#
#
# Elastic Constant Matrix: (Units=GPa)
#
#
# Indices 1 2 3 4 5 6 
#
# 1 116.1363 52.6110 36.8871 0.0000 0.0000 0.0000
# 2 52.6110 116.1357 36.8868 0.0000 0.0000 0.0000
# 3 36.8871 36.8868 108.6777 0.0000 0.0000 0.0000
# 4 0.0000 0.0000 0.0000 31.7770 0.0000 0.0000
# 5 0.0000 0.0000 0.0000 0.0000 31.7785 0.0000
# 6 0.0000 0.0000 0.0000 0.0000 0.0000 14.8969
#
#
#
# Elastic Compliance Matrix: (Units=1/GPa)
#
#
# Indices 1 2 3 4 5 6 
#
# 1 0.011350 -0.004392 -0.002362 0.000000 0.000000 0.000000
# 2 -0.004392 0.011350 -0.002362 0.000000 0.000000 0.000000
# 3 -0.002362 -0.002362 0.010805 0.000000 0.000000 0.000000
# 4 0.000000 0.000000 0.000000 0.031469 0.000000 0.000000
# 5 0.000000 0.000000 0.000000 0.000000 0.031468 0.000000
# 6 0.000000 0.000000 0.000000 0.000000 0.000000 0.067128
#
#
# Mechanical properties :
#
#
# Convention : Reuss Voigt Hill
#
# Bulk Modulus (GPa) = 65.46820 65.96883 65.71852
# Shear Modulus (GPa) = 26.75334 29.99481 28.37408
#
# Velocity S-wave (km/s) = 3.84454 4.07078 3.95928
# Velocity P-wave (km/s) = 7.47506 7.65120 7.56365
#
# Compressibility (1/GPa) = 0.01527459
#
# Stress axis : x y z
#
# Youngs Moduli (GPa) = 88.10417 88.10377 92.55120
#
# Poissons Ratio (x) = 0.38692 0.21859
# Poissons Ratio (y) = 0.38692 0.21859
# Poissons Ratio (z) = 0.20809 0.20809
#
# Static dielectric constant tensor:
#      x y z
#    x 3.228420 0.000000 0.000000 
#    y 0.000000 3.228420 0.000000 
#    z 0.000000 0.000000 3.561590 
# 
# 
# High freq. dielectric constant tensor:
#      x y z
#    x 1.680030 0.000000 0.000000 
#    y 0.000000 1.680030 0.000000 
#    z 0.000000 0.000000 1.727060 
# 
# From -- ./inp_files/13105.got.cif
#   From: 2010.03.12/outbox.cif.g09.slc.cpg/sg139_7_cif.got.tgz:13105.got - 2010.04.08 09:46:31.
