data_PCOD8319701
_publ_section_title
;
Structure prediction by ZEFSAII (Michael W. Deem and Ramdas Pophale) SiO2 
 PCOD8319701
Probable space group: I 4/M M M
;
_chemical_formula_sum "Si O2"
_cell_formula_units_Z 160
_cell_length_a 18.757308
_cell_length_b 18.757308
_cell_length_c 25.251986
_cell_angle_alpha 90.000000
_cell_angle_beta 90.000000
_cell_angle_gamma 90.000000
_cell_volume 8884.572984
_symmetry_space_group_name_H-M "I 4/M M M"
_symmetry_group_IT_number 139
_symmetry_cell_setting 'tetragonal'
loop_
_space_group_symop_operation_xyz
x,y,z
-y,x,z
-x,-y,z
y,-x,z
x,-y,-z
-x,y,-z
y,x,-z
-y,-x,-z
-x,-y,-z
y,-x,-z
x,y,-z
-y,x,-z
-x,y,z
x,-y,z
-y,-x,z
y,x,z
1/2+x,1/2+y,1/2+z
1/2-y,1/2+x,1/2+z
1/2-x,1/2-y,1/2+z
1/2+y,1/2-x,1/2+z
1/2+x,1/2-y,1/2-z
1/2-x,1/2+y,1/2-z
1/2+y,1/2+x,1/2-z
1/2-y,1/2-x,1/2-z
1/2-x,1/2-y,1/2-z
1/2+y,1/2-x,1/2-z
1/2+x,1/2+y,1/2-z
1/2-y,1/2+x,1/2-z
1/2-x,1/2+y,1/2+z
1/2+x,1/2-y,1/2+z
1/2-y,1/2-x,1/2+z
1/2+y,1/2+x,1/2+z
loop_
_atom_site_type_symbol
_atom_site_label
_atom_site_fract_x
_atom_site_fract_y
_atom_site_fract_z
Si Si1 0.193309 0.079286 0.338736
Si Si2 0.273198 0.157478 0.939943
Si Si3 0.920462 0.277244 0.440285
Si Si4 0.582911 0.700125 0.346796
Si Si5 0.301617 0.917998 0.249123
O O1 0.130933 0.130933 0.320901
O O2 0.211018 0.088253 0.400658
O O3 0.263686 0.096248 0.305087
O O4 0.166132 0.000000 0.325782
O O5 0.233137 0.233137 0.929684
O O6 0.357943 0.165705 0.929096
O O7 0.242564 0.097506 0.901161
O O8 0.259859 0.131508 0.000000
O O9 0.912014 0.247422 0.500000
O O10 0.000000 0.311833 0.432527
O O11 0.500000 0.679982 0.343604
O O12 0.626975 0.626975 0.344727
O O13 0.606840 0.749559 0.297982
O O14 0.373831 0.873831 0.250000
O O15 0.323206 0.000000 0.241547
#
# Coordination Sequence:
#
# PCOD8319701 Si02
#       5
#    32  32  32  32  32
#     4  10  20  32  47  69  97 130 168 208 249 293
#     4   9  17  30  50  74  99 130 167 206 249 296
#     4   9  17  29  47  72 100 129 164 208 253 295
#     4  10  21  36  54  77 103 131 165 204 246 292
#     4  10  21  36  54  77 103 130 162 200 242 290
#
# _framework density 18.008744
#
# number of rings (size 3 to 8) (size 9 to 14) (size 15 to 20)
#    0.000    2.400    0.000    2.400    0.000    5.400 
#    0.000    0.000    0.000    5.400    0.000    8.400 
#    0.000    0.000    0.000    0.000    0.000    0.000 
#
# Total GULP energy -991918.614639 kJ/mol
# GULP energy per Si atom -12398.982683 kJ/mol
# Density = 1.796776 g / cm^3
# Si number density = 18.008744 Si / 1000 Ang^3
#
#
#
# Elastic Constant Matrix: (Units=GPa)
#
#
# Indices 1 2 3 4 5 6 
#
# 1 95.6762 57.4556 38.0465 0.0000 0.0000 0.0000
# 2 57.4556 95.6762 38.0465 0.0000 0.0000 0.0000
# 3 38.0465 38.0465 90.7430 0.0000 0.0000 0.0000
# 4 0.0000 0.0000 0.0000 24.3212 0.0000 0.0000
# 5 0.0000 0.0000 0.0000 0.0000 24.3212 0.0000
# 6 0.0000 0.0000 0.0000 0.0000 0.0000 25.5799
#
#
#
# Elastic Compliance Matrix: (Units=1/GPa)
#
#
# Indices 1 2 3 4 5 6 
#
# 1 0.017206 -0.008957 -0.003459 0.000000 0.000000 0.000000
# 2 -0.008957 0.017206 -0.003459 0.000000 0.000000 0.000000
# 3 -0.003459 -0.003459 0.013920 0.000000 0.000000 0.000000
# 4 0.000000 0.000000 0.000000 0.041116 0.000000 0.000000
# 5 0.000000 0.000000 0.000000 0.000000 0.041116 0.000000
# 6 0.000000 0.000000 0.000000 0.000000 0.000000 0.039093
#
#
# Mechanical properties :
#
#
# Convention : Reuss Voigt Hill
#
# Bulk Modulus (GPa) = 60.29963 61.02141 60.66052
# Shear Modulus (GPa) = 24.16201 24.74758 24.45479
#
# Velocity S-wave (km/s) = 3.66687 3.71104 3.68902
# Velocity P-wave (km/s) = 7.17525 7.23328 7.20432
#
# Compressibility (1/GPa) = 0.01658385
#
# Stress axis : x y z
#
# Youngs Moduli (GPa) = 58.11785 58.11785 71.83723
#
# Poissons Ratio (x) = 0.52059 0.24846
# Poissons Ratio (y) = 0.52059 0.24846
# Poissons Ratio (z) = 0.20101 0.20101
#
# Static dielectric constant tensor:
#      x y z
#    x 3.162120 0.000000 0.000000 
#    y 0.000000 3.162120 0.000000 
#    z 0.000000 0.000000 3.605070 
# 
# 
# High freq. dielectric constant tensor:
#      x y z
#    x 1.680830 0.000000 0.000000 
#    y 0.000000 1.680830 0.000000 
#    z 0.000000 0.000000 1.718900 
# 
# From -- ./inp_files/12932.got.cif
#   From: 2010.03.12/outbox.cif.g09.slc.cpg/sg139_7_cif.got.tgz:12932.got - 2010.04.08 09:46:31.
