data_PCOD8319118
_publ_section_title
;
Structure prediction by ZEFSAII (Michael W. Deem and Ramdas Pophale) SiO2 
 PCOD8319118
Probable space group: P 42/N C M
;
_chemical_formula_sum "Si O2"
_cell_formula_units_Z 96
_cell_length_a 15.295607
_cell_length_b 15.295607
_cell_length_c 21.992267
_cell_angle_alpha 90.000000
_cell_angle_beta 90.000000
_cell_angle_gamma 90.000000
_cell_volume 5145.213878
_symmetry_space_group_name_H-M "P 42/N C M"
_symmetry_group_IT_number 138
_space_group.IT_coordinate_system_code '2'
_symmetry_cell_setting 'tetragonal'
loop_
_space_group_symop_operation_xyz
x,y,z
1/2-y,x,1/2+z
1/2-x,1/2-y,z
y,1/2-x,1/2+z
1/2+x,-y,1/2-z
-x,1/2+y,1/2-z
1/2+y,1/2+x,-z
-y,-x,-z
-x,-y,-z
1/2+y,-x,1/2-z
1/2+x,1/2+y,-z
-y,1/2+x,1/2-z
1/2-x,y,1/2+z
x,1/2-y,1/2+z
1/2-y,1/2-x,z
y,x,z
loop_
_atom_site_type_symbol
_atom_site_label
_atom_site_fract_x
_atom_site_fract_y
_atom_site_fract_z
Si Si1 0.602568 0.377219 0.615778
Si Si2 0.820429 0.679572 0.032317
Si Si3 0.006847 0.252902 0.926231
Si Si4 0.600469 0.285660 0.040644
Si Si5 0.442760 0.057240 0.046901
Si Si6 0.156001 0.856599 0.748225
Si Si7 0.935948 0.081423 0.867420
O O1 0.664449 0.459527 0.604102
O O2 0.641379 0.291513 0.582009
O O3 0.506423 0.388617 0.589715
O O4 0.589740 0.361915 0.687140
O O5 0.750000 0.750000 0.005486
O O6 0.874687 0.625313 0.982104
O O7 0.768854 0.610541 0.074505
O O8 0.989653 0.166401 0.887651
O O9 0.976686 0.246377 0.996444
O O10 0.561047 0.360969 0.083586
O O11 0.680017 0.319984 0.000000
O O12 0.500000 0.000000 0.000000
O O13 0.256562 0.867079 0.767158
O O14 0.095582 0.893437 0.801597
O O15 0.998383 0.998383 0.864255
#
# Coordination Sequence:
#
# PCOD8319118 Si02
#       7
#    16   8  16  16   8  16  16
#     4  12  21  39  62  91 126 155 208 263 315 371
#     4  12  24  40  62  94 128 168 208 254 320 388
#     4  11  22  39  62  91 123 162 201 258 314 379
#     4  10  22  35  60  90 121 156 193 250 317 368
#     4  12  22  40  64  96 128 160 209 266 313 378
#     4  11  23  40  62  87 116 159 207 259 309 362
#     4  11  24  41  57  87 127 165 204 245 311 382
#
# _framework density 18.658116
#
# number of rings (size 3 to 8) (size 9 to 14) (size 15 to 20)
#    0.000    0.833    6.667    1.000    1.167    8.333 
#    0.000    0.000    0.000    0.000    0.000    0.000 
#    0.000    0.000    0.000    0.000    0.000    0.000 
#
# Total GULP energy -1190654.516585 kJ/mol
# GULP energy per Si atom -12402.651214 kJ/mol
# Density = 1.861565 g / cm^3
# Si number density = 18.658116 Si / 1000 Ang^3
#
#
#
# Elastic Constant Matrix: (Units=GPa)
#
#
# Indices 1 2 3 4 5 6 
#
# 1 75.2963 28.3963 20.7877 0.0000 0.0000 0.0000
# 2 28.3963 75.2962 20.7873 0.0000 0.0000 0.0000
# 3 20.7877 20.7873 106.0453 0.0000 0.0000 0.0000
# 4 0.0000 0.0000 0.0000 26.8446 0.0000 0.0000
# 5 0.0000 0.0000 0.0000 0.0000 26.8447 0.0000
# 6 0.0000 0.0000 0.0000 0.0000 0.0000 36.8692
#
#
#
# Elastic Compliance Matrix: (Units=1/GPa)
#
#
# Indices 1 2 3 4 5 6 
#
# 1 0.015894 -0.005428 -0.002052 0.000000 0.000000 0.000000
# 2 -0.005428 0.015894 -0.002052 0.000000 0.000000 0.000000
# 3 -0.002052 -0.002052 0.010234 0.000000 0.000000 0.000000
# 4 0.000000 0.000000 0.000000 0.037251 0.000000 0.000000
# 5 0.000000 0.000000 0.000000 0.000000 0.037251 0.000000
# 6 0.000000 0.000000 0.000000 0.000000 0.000000 0.027123
#
#
# Mechanical properties :
#
#
# Convention : Reuss Voigt Hill
#
# Bulk Modulus (GPa) = 43.55297 44.06447 43.80872
# Shear Modulus (GPa) = 29.34889 30.55614 29.95252
#
# Velocity S-wave (km/s) = 3.97039 4.05122 4.01101
# Velocity P-wave (km/s) = 6.66423 6.74917 6.70683
#
# Compressibility (1/GPa) = 0.02296055
#
# Stress axis : x y z
#
# Youngs Moduli (GPa) = 62.91587 62.91593 97.71070
#
# Poissons Ratio (x) = 0.34149 0.20048
# Poissons Ratio (y) = 0.34149 0.20047
# Poissons Ratio (z) = 0.12909 0.12908
#
# Static dielectric constant tensor:
#      x y z
#    x 3.452520 0.000000 0.000000 
#    y 0.000000 3.452530 0.000000 
#    z 0.000000 0.000000 3.419030 
# 
# 
# High freq. dielectric constant tensor:
#      x y z
#    x 1.722480 0.000000 0.000000 
#    y 0.000000 1.722480 0.000000 
#    z 0.000000 0.000000 1.722110 
# 
# From -- ./inp_files/6284.got.cif
#   From: 2010.03.12/outbox.cif.g09.slc.cpg/sg138_4_cif.got.tgz:6284.got - 2010.04.08 09:41:05.
