data_PCOD8319503
_publ_section_title
;
Structure prediction by ZEFSAII (Michael W. Deem and Ramdas Pophale) SiO2 
 PCOD8319503
Probable space group: I 4/M M M
;
_chemical_formula_sum "Si O2"
_cell_formula_units_Z 160
_cell_length_a 22.657506
_cell_length_b 22.657506
_cell_length_c 18.238916
_cell_angle_alpha 90.000000
_cell_angle_beta 90.000000
_cell_angle_gamma 90.000000
_cell_volume 9363.176940
_symmetry_space_group_name_H-M "I 4/M M M"
_symmetry_group_IT_number 139
_symmetry_cell_setting 'tetragonal'
loop_
_space_group_symop_operation_xyz
x,y,z
-y,x,z
-x,-y,z
y,-x,z
x,-y,-z
-x,y,-z
y,x,-z
-y,-x,-z
-x,-y,-z
y,-x,-z
x,y,-z
-y,x,-z
-x,y,z
x,-y,z
-y,-x,z
y,x,z
1/2+x,1/2+y,1/2+z
1/2-y,1/2+x,1/2+z
1/2-x,1/2-y,1/2+z
1/2+y,1/2-x,1/2+z
1/2+x,1/2-y,1/2-z
1/2-x,1/2+y,1/2-z
1/2+y,1/2+x,1/2-z
1/2-y,1/2-x,1/2-z
1/2-x,1/2-y,1/2-z
1/2+y,1/2-x,1/2-z
1/2+x,1/2+y,1/2-z
1/2-y,1/2+x,1/2-z
1/2-x,1/2+y,1/2+z
1/2+x,1/2-y,1/2+z
1/2-y,1/2-x,1/2+z
1/2+y,1/2+x,1/2+z
loop_
_atom_site_type_symbol
_atom_site_label
_atom_site_fract_x
_atom_site_fract_y
_atom_site_fract_z
Si Si1 0.834056 0.739029 0.581949
Si Si2 0.761157 0.064346 0.695939
Si Si3 0.064227 0.648194 0.795171
Si Si4 0.382606 0.778893 0.414368
Si Si5 0.665511 0.569879 0.331004
O O1 0.858642 0.728839 0.500000
O O2 0.800335 0.800335 0.588046
O O3 0.889274 0.743733 0.634905
O O4 0.788210 0.686983 0.602074
O O5 0.709420 0.060191 0.753973
O O6 0.818169 0.080889 0.745236
O O7 0.770494 0.000000 0.658530
O O8 0.105221 0.605221 0.750000
O O9 0.086602 0.664227 0.876645
O O10 0.000000 0.618244 0.801689
O O11 0.397709 0.780774 0.500000
O O12 0.403565 0.716102 0.383568
O O13 0.657398 0.500000 0.347248
O O14 0.604386 0.604386 0.347094
#
# Coordination Sequence:
#
# PCOD8319503 Si02
#       5
#    32  32  32  32  32
#     4  10  19  30  49  77 105 134 168 210 261 311
#     4   9  18  33  51  73 102 134 172 211 252 307
#     4  10  19  33  52  74 100 132 171 209 248 296
#     4  10  20  35  53  77 106 135 168 211 259 306
#     4  10  21  35  53  76 102 136 174 214 259 307
#
# _framework density 17.088218000000001
#
# number of rings (size 3 to 8) (size 9 to 14) (size 15 to 20)
#    0.000    2.200    2.000    3.000    0.000    3.600 
#    0.000    3.000    0.000    0.600    0.000    2.800 
#    0.000    0.000    0.000   18.600    0.000    0.000 
#
# Total GULP energy -991437.171082 kJ/mol
# GULP energy per Si atom -12392.964639 kJ/mol
# Density = 1.704932 g / cm^3
# Si number density = 17.088218 Si / 1000 Ang^3
#
#
#
# Elastic Constant Matrix: (Units=GPa)
#
#
# Indices 1 2 3 4 5 6 
#
# 1 94.1215 46.5716 53.2304 0.0000 0.0000 0.0000
# 2 46.5716 94.1215 53.2304 0.0000 0.0000 0.0000
# 3 53.2304 53.2304 99.7162 0.0000 0.0000 0.0000
# 4 0.0000 0.0000 0.0000 -332.1797 0.0000 0.0000
# 5 0.0000 0.0000 0.0000 0.0000 -332.1797 0.0000
# 6 0.0000 0.0000 0.0000 0.0000 0.0000 -17.6496
#
#
#
# Elastic Compliance Matrix: (Units=1/GPa)
#
#
# Indices 1 2 3 4 5 6 
#
# 1 0.016477 -0.004553 -0.006365 0.000000 0.000000 0.000000
# 2 -0.004553 0.016477 -0.006365 0.000000 0.000000 0.000000
# 3 -0.006365 -0.006365 0.016824 0.000000 0.000000 0.000000
# 4 0.000000 0.000000 0.000000 -0.003010 0.000000 0.000000
# 5 0.000000 0.000000 0.000000 0.000000 -0.003010 0.000000
# 6 0.000000 0.000000 0.000000 0.000000 0.000000 -0.056659
#
#
# Mechanical properties :
#
#
# Convention : Reuss Voigt Hill
#
# Bulk Modulus (GPa) = 65.74035 66.00265 65.87150
# Shear Modulus (GPa) = 186.99903 -127.40668 29.79617
#
# Velocity S-wave (km/s) = 10.47230 -8.64408 4.18025
# Velocity P-wave (km/s) = 13.59339 7.80501 7.86962
#
# Compressibility (1/GPa) = 0.01521136
#
# Stress axis : x y z
#
# Youngs Moduli (GPa) = 60.68918 60.68918 59.43749
#
# Poissons Ratio (x) = 0.27632 0.37834
# Poissons Ratio (y) = 0.27632 0.37834
# Poissons Ratio (z) = 0.38631 0.38631
#
# Static dielectric constant tensor:
#      x y z
#    x 3.246790 0.000000 0.000000 
#    y 0.000000 3.246790 0.000000 
#    z 0.000000 0.000000 3.293190 
# 
# 
# High freq. dielectric constant tensor:
#      x y z
#    x 1.654080 0.000000 0.000000 
#    y 0.000000 1.654080 0.000000 
#    z 0.000000 0.000000 1.655320 
# 
# From -- ./inp_files/5932.got.cif
#   From: 2010.03.12/outbox.cif.g09.slc.cpg/sg139_3_cif.got.tgz:5932.got - 2010.04.08 09:46:31.
