data_PCOD8319883
_publ_section_title
;
Structure prediction by ZEFSAII (Michael W. Deem and Ramdas Pophale) SiO2 
 PCOD8319883
Probable space group: I 4/M M M
;
_chemical_formula_sum "Si O2"
_cell_formula_units_Z 112
_cell_length_a 19.200146
_cell_length_b 19.200146
_cell_length_c 14.539057
_cell_angle_alpha 90.000000
_cell_angle_beta 90.000000
_cell_angle_gamma 90.000000
_cell_volume 5359.759485
_symmetry_space_group_name_H-M "I 4/M M M"
_symmetry_group_IT_number 139
_symmetry_cell_setting 'tetragonal'
loop_
_space_group_symop_operation_xyz
x,y,z
-y,x,z
-x,-y,z
y,-x,z
x,-y,-z
-x,y,-z
y,x,-z
-y,-x,-z
-x,-y,-z
y,-x,-z
x,y,-z
-y,x,-z
-x,y,z
x,-y,z
-y,-x,z
y,x,z
1/2+x,1/2+y,1/2+z
1/2-y,1/2+x,1/2+z
1/2-x,1/2-y,1/2+z
1/2+y,1/2-x,1/2+z
1/2+x,1/2-y,1/2-z
1/2-x,1/2+y,1/2-z
1/2+y,1/2+x,1/2-z
1/2-y,1/2-x,1/2-z
1/2-x,1/2-y,1/2-z
1/2+y,1/2-x,1/2-z
1/2+x,1/2+y,1/2-z
1/2-y,1/2+x,1/2-z
1/2-x,1/2+y,1/2+z
1/2+x,1/2-y,1/2+z
1/2-y,1/2-x,1/2+z
1/2+y,1/2+x,1/2+z
loop_
_atom_site_type_symbol
_atom_site_label
_atom_site_fract_x
_atom_site_fract_y
_atom_site_fract_z
Si Si1 0.811217 0.811217 0.890849
Si Si2 0.187935 0.078229 0.390595
Si Si3 0.080586 0.580586 0.750000
Si Si4 0.421792 0.578209 0.609507
Si Si5 0.654033 0.828505 0.108634
O O1 0.866503 0.866503 0.848477
O O2 0.829610 0.733759 0.857731
O O3 0.813522 0.813522 0.000000
O O4 0.186988 0.075798 0.500000
O O5 0.120414 0.120414 0.354203
O O6 0.256990 0.118293 0.357937
O O7 0.186168 0.000000 0.349733
O O8 0.097150 0.500000 0.759091
O O9 0.107366 0.617007 0.842403
O O10 0.402266 0.500000 0.642628
O O11 0.418903 0.581098 0.500000
O O12 0.646801 0.838701 0.000000
#
# Coordination Sequence:
#
# PCOD8319883 Si02
#       5
#    16  32  16  16  32
#     4   9  17  31  56  87 116 147 194 242 282 345
#     4   9  16  28  49  78 112 148 186 231 287 350
#     4  11  26  43  58  84 118 153 202 255 300 354
#     4   8  14  25  43  73 114 151 181 225 288 349
#     4  10  20  38  62  86 115 153 193 243 300 351
#
# _framework density 20.896460999999999
#
# number of rings (size 3 to 8) (size 9 to 14) (size 15 to 20)
#    0.000    2.571    1.429    1.286    0.000    4.286 
#    0.000    5.714    0.000    0.000    0.000    0.000 
#    0.000    0.000    0.000    0.000    0.000    0.000 
#
# Total GULP energy -694390.339856 kJ/mol
# GULP energy per Si atom -12399.827497 kJ/mol
# Density = 2.084890 g / cm^3
# Si number density = 20.896461 Si / 1000 Ang^3
#
#
#
# Elastic Constant Matrix: (Units=GPa)
#
#
# Indices 1 2 3 4 5 6 
#
# 1 129.8351 161.0982 33.5093 0.0000 0.0000 0.0000
# 2 161.0982 129.8352 33.5092 0.0000 0.0000 0.0000
# 3 33.5093 33.5092 39.9673 0.0000 0.0000 0.0000
# 4 0.0000 0.0000 0.0000 16.1754 0.0000 0.0000
# 5 0.0000 0.0000 0.0000 0.0000 16.1754 0.0000
# 6 0.0000 0.0000 0.0000 0.0000 0.0000 46.2263
#
#
#
# Elastic Compliance Matrix: (Units=1/GPa)
#
#
# Indices 1 2 3 4 5 6 
#
# 1 -0.013863 0.018123 -0.003572 0.000000 0.000000 0.000000
# 2 0.018123 -0.013863 -0.003572 0.000000 0.000000 0.000000
# 3 -0.003572 -0.003572 0.031009 0.000000 0.000000 0.000000
# 4 0.000000 0.000000 0.000000 0.061822 0.000000 0.000000
# 5 0.000000 0.000000 0.000000 0.000000 0.061822 0.000000
# 6 0.000000 0.000000 0.000000 0.000000 0.000000 0.021633
#
#
# Mechanical properties :
#
#
# Convention : Reuss Voigt Hill
#
# Bulk Modulus (GPa) = 39.61510 83.98566 61.80038
# Shear Modulus (GPa) = 37.03320 20.48350 28.75835
#
# Velocity S-wave (km/s) = 4.21435 3.13427 3.71378
# Velocity P-wave (km/s) = 6.53299 7.30594 6.93025
#
# Compressibility (1/GPa) = 0.02524290
#
# Stress axis : x y z
#
# Youngs Moduli (GPa) = -72.13255 -72.13273 32.24823
#
# Poissons Ratio (x) = 1.30728 0.11518
# Poissons Ratio (y) = 1.30728 0.11518
# Poissons Ratio (z) = -0.25763 -0.25763
#
# Static dielectric constant tensor:
#      x y z
#    x 4.017590 0.000000 0.000000 
#    y 0.000000 4.017580 0.000000 
#    z 0.000000 0.000000 3.299550 
# 
# 
# High freq. dielectric constant tensor:
#      x y z
#    x 1.824380 0.000000 0.000000 
#    y 0.000000 1.824380 0.000000 
#    z 0.000000 0.000000 1.792900 
# 
# From -- ./inp_files/7609.got.cif
#   From: 2010.03.12/outbox.cif.g09.slc.cpg/sg139_4_cif.got.tgz:7609.got - 2010.04.08 09:46:31.
