data_PCOD8319284
_publ_section_title
;
Structure prediction by ZEFSAII (Michael W. Deem and Ramdas Pophale) SiO2 
 PCOD8319284
Probable space group: I 4/M M M
;
_chemical_formula_sum "Si O2"
_cell_formula_units_Z 224
_cell_length_a 24.650338
_cell_length_b 24.650338
_cell_length_c 22.813249
_cell_angle_alpha 90.000000
_cell_angle_beta 90.000000
_cell_angle_gamma 90.000000
_cell_volume 13862.223539
_symmetry_space_group_name_H-M "I 4/M M M"
_symmetry_group_IT_number 139
_symmetry_cell_setting 'tetragonal'
loop_
_space_group_symop_operation_xyz
x,y,z
-y,x,z
-x,-y,z
y,-x,z
x,-y,-z
-x,y,-z
y,x,-z
-y,-x,-z
-x,-y,-z
y,-x,-z
x,y,-z
-y,x,-z
-x,y,z
x,-y,z
-y,-x,z
y,x,z
1/2+x,1/2+y,1/2+z
1/2-y,1/2+x,1/2+z
1/2-x,1/2-y,1/2+z
1/2+y,1/2-x,1/2+z
1/2+x,1/2-y,1/2-z
1/2-x,1/2+y,1/2-z
1/2+y,1/2+x,1/2-z
1/2-y,1/2-x,1/2-z
1/2-x,1/2-y,1/2-z
1/2+y,1/2-x,1/2-z
1/2+x,1/2+y,1/2-z
1/2-y,1/2+x,1/2-z
1/2-x,1/2+y,1/2+z
1/2+x,1/2-y,1/2+z
1/2-y,1/2-x,1/2+z
1/2+y,1/2+x,1/2+z
loop_
_atom_site_type_symbol
_atom_site_label
_atom_site_fract_x
_atom_site_fract_y
_atom_site_fract_z
Si Si1 0.699980 0.386781 0.324132
Si Si2 0.938445 0.737736 0.660593
Si Si3 0.937674 0.640028 0.887899
Si Si4 0.064053 0.345616 0.432611
Si Si5 0.063539 0.848177 0.286774
Si Si6 0.756435 0.063760 0.065328
Si Si7 0.314512 0.102835 0.227319
O O1 0.670923 0.329078 0.324472
O O2 0.668809 0.428531 0.281104
O O3 0.700554 0.410496 0.389800
O O4 0.760831 0.375812 0.304098
O O5 0.912159 0.705086 0.605746
O O6 0.914029 0.797933 0.672926
O O7 0.935576 0.700296 0.718312
O O8 0.000000 0.748319 0.644431
O O9 0.901329 0.591186 0.911764
O O10 0.919331 0.694645 0.921010
O O11 0.930457 0.648013 0.817951
O O12 0.000000 0.625203 0.901207
O O13 0.077880 0.333378 0.500000
O O14 0.000000 0.352656 0.422231
O O15 0.098541 0.901460 0.302855
O O16 0.000000 0.860740 0.297266
O O17 0.761688 0.000000 0.072201
O O18 0.771337 0.083469 0.000000
O O19 0.343928 0.156073 0.250000
#
# Coordination Sequence:
#
# PCOD8319284 Si02
#       7
#    32  32  32  32  32  32  32
#     4   9  18  29  43  67  95 122 152 190 234 278
#     4   9  17  31  49  68  92 122 157 194 229 274
#     4  10  19  31  47  67  90 117 152 198 246 285
#     4  10  20  32  47  66  88 118 156 194 233 282
#     4   9  17  30  50  75 101 126 152 188 234 283
#     4   9  17  29  46  65  86 119 161 197 228 273
#     4  10  17  29  48  67  87 118 157 195 236 280
#
# _framework density 16.159023000000001
#
# number of rings (size 3 to 8) (size 9 to 14) (size 15 to 20)
#    0.000    2.571    1.429    1.286    0.000    5.286 
#    0.000    0.714    0.000    0.429    0.000    0.000 
#    0.000    0.000    0.000   18.857    0.000    0.000 
#
# Total GULP energy -1388244.286516 kJ/mol
# GULP energy per Si atom -12395.038272 kJ/mol
# Density = 1.612224 g / cm^3
# Si number density = 16.159023 Si / 1000 Ang^3
#
#
#
# Elastic Constant Matrix: (Units=GPa)
#
#
# Indices 1 2 3 4 5 6 
#
# 1 71.9291 40.3648 38.0916 0.0000 0.0000 0.0000
# 2 40.3648 71.9288 38.0922 0.0000 0.0000 0.0000
# 3 38.0916 38.0922 107.2600 0.0000 0.0000 0.0000
# 4 0.0000 0.0000 0.0000 18.2300 0.0000 0.0000
# 5 0.0000 0.0000 0.0000 0.0000 18.2308 0.0000
# 6 0.0000 0.0000 0.0000 0.0000 0.0000 24.3835
#
#
#
# Elastic Compliance Matrix: (Units=1/GPa)
#
#
# Indices 1 2 3 4 5 6 
#
# 1 0.021707 -0.009975 -0.004166 0.000000 0.000000 0.000000
# 2 -0.009975 0.021707 -0.004167 0.000000 0.000000 0.000000
# 3 -0.004166 -0.004167 0.012282 0.000000 0.000000 0.000000
# 4 0.000000 0.000000 0.000000 0.054855 0.000000 0.000000
# 5 0.000000 0.000000 0.000000 0.000000 0.054852 0.000000
# 6 0.000000 0.000000 0.000000 0.000000 0.000000 0.041011
#
#
# Mechanical properties :
#
#
# Convention : Reuss Voigt Hill
#
# Bulk Modulus (GPa) = 52.40953 53.80167 53.10560
# Shear Modulus (GPa) = 20.04895 21.14014 20.59454
#
# Velocity S-wave (km/s) = 3.52622 3.62091 3.57388
# Velocity P-wave (km/s) = 7.00592 7.13083 7.06865
#
# Compressibility (1/GPa) = 0.01908050
#
# Stress axis : x y z
#
# Youngs Moduli (GPa) = 46.06906 46.06848 81.41717
#
# Poissons Ratio (x) = 0.45953 0.33921
# Poissons Ratio (y) = 0.45953 0.33923
# Poissons Ratio (z) = 0.19194 0.19195
#
# Static dielectric constant tensor:
#      x y z
#    x 2.949760 0.000000 0.000000 
#    y 0.000000 2.949760 0.000000 
#    z 0.000000 0.000000 3.284220 
# 
# 
# High freq. dielectric constant tensor:
#      x y z
#    x 1.606120 0.000000 0.000000 
#    y 0.000000 1.606120 0.000000 
#    z 0.000000 0.000000 1.623610 
# 
# From -- ./inp_files/12163.got.cif
#   From: 2010.03.12/outbox.cif.g09.slc.cpg/sg139_7_cif.got.tgz:12163.got - 2010.04.08 09:46:31.
