data_PCOD8319347
_publ_section_title
;
Structure prediction by ZEFSAII (Michael W. Deem and Ramdas Pophale) SiO2 
 PCOD8319347
Probable space group: I 4/M M M
;
_chemical_formula_sum "Si O2"
_cell_formula_units_Z 96
_cell_length_a 28.644174
_cell_length_b 28.644174
_cell_length_c 7.577668
_cell_angle_alpha 90.000000
_cell_angle_beta 90.000000
_cell_angle_gamma 90.000000
_cell_volume 6217.390998
_symmetry_space_group_name_H-M "I 4/M M M"
_symmetry_group_IT_number 139
_symmetry_cell_setting 'tetragonal'
loop_
_space_group_symop_operation_xyz
x,y,z
-y,x,z
-x,-y,z
y,-x,z
x,-y,-z
-x,y,-z
y,x,-z
-y,-x,-z
-x,-y,-z
y,-x,-z
x,y,-z
-y,x,-z
-x,y,z
x,-y,z
-y,-x,z
y,x,z
1/2+x,1/2+y,1/2+z
1/2-y,1/2+x,1/2+z
1/2-x,1/2-y,1/2+z
1/2+y,1/2-x,1/2+z
1/2+x,1/2-y,1/2-z
1/2-x,1/2+y,1/2-z
1/2+y,1/2+x,1/2-z
1/2-y,1/2-x,1/2-z
1/2-x,1/2-y,1/2-z
1/2+y,1/2-x,1/2-z
1/2+x,1/2+y,1/2-z
1/2-y,1/2+x,1/2-z
1/2-x,1/2+y,1/2+z
1/2+x,1/2-y,1/2+z
1/2-y,1/2-x,1/2+z
1/2+y,1/2+x,1/2+z
loop_
_atom_site_type_symbol
_atom_site_label
_atom_site_fract_x
_atom_site_fract_y
_atom_site_fract_z
Si Si1 0.696385 0.379322 0.299680
Si Si2 0.448164 0.805377 0.000000
Si Si3 0.378335 0.195864 0.297952
Si Si4 0.694868 0.448242 0.000000
O O1 0.689610 0.396677 0.500000
O O2 0.667403 0.332598 0.260748
O O3 0.750087 0.367025 0.259713
O O4 0.678139 0.420818 0.174434
O O5 0.420729 0.822041 0.824862
O O6 0.500000 0.827938 0.000000
O O7 0.452749 0.750146 0.000000
O O8 0.393294 0.187500 0.500000
O O9 0.331518 0.168482 0.250000
O O10 0.672293 0.500000 0.000000
#
# Coordination Sequence:
#
# PCOD8319347 Si02
#       4
#    32  16  32  16
#     4   9  18  30  43  63  92 123 154 185 221 267
#     4   9  18  31  45  63  88 117 152 193 231 265
#     4  10  18  29  45  65  91 122 152 185 221 263
#     4   9  17  29  45  63  85 119 158 193 229 263
#
# _framework density 15.44056
#
# number of rings (size 3 to 8) (size 9 to 14) (size 15 to 20)
#    0.000    2.667    1.667    0.500    0.000    2.000 
#    0.000    6.667    0.000    0.000    0.000    0.000 
#    0.000    7.333    0.000   14.667    0.000    1.333 
#
# Total GULP energy -595112.404725 kJ/mol
# GULP energy per Si atom -12398.175098 kJ/mol
# Density = 1.540542 g / cm^3
# Si number density = 15.440560 Si / 1000 Ang^3
#
#
#
# Elastic Constant Matrix: (Units=GPa)
#
#
# Indices 1 2 3 4 5 6 
#
# 1 81.8758 44.3684 55.5894 0.0000 0.0000 0.0000
# 2 44.3684 81.8682 55.5900 0.0000 0.0000 0.0000
# 3 55.5894 55.5900 132.8237 0.0000 0.0000 0.0000
# 4 0.0000 0.0000 0.0000 20.9509 0.0000 0.0000
# 5 0.0000 0.0000 0.0000 0.0000 20.9516 0.0000
# 6 0.0000 0.0000 0.0000 0.0000 0.0000 3.2921
#
#
#
# Elastic Compliance Matrix: (Units=1/GPa)
#
#
# Indices 1 2 3 4 5 6 
#
# 1 0.019603 -0.007059 -0.005250 0.000000 0.000000 0.000000
# 2 -0.007059 0.019606 -0.005251 0.000000 0.000000 0.000000
# 3 -0.005250 -0.005251 0.011924 0.000000 0.000000 0.000000
# 4 0.000000 0.000000 0.000000 0.047731 0.000000 0.000000
# 5 0.000000 0.000000 0.000000 0.000000 0.047729 0.000000
# 6 0.000000 0.000000 0.000000 0.000000 0.000000 0.303758
#
#
# Mechanical properties :
#
#
# Convention : Reuss Voigt Hill
#
# Bulk Modulus (GPa) = 62.45121 67.51815 64.98468
# Shear Modulus (GPa) = 10.18724 18.44024 14.31374
#
# Velocity S-wave (km/s) = 2.57139 3.45957 3.04801
# Velocity P-wave (km/s) = 7.02496 7.73181 7.38685
#
# Compressibility (1/GPa) = 0.01601250
#
# Stress axis : x y z
#
# Youngs Moduli (GPa) = 51.01130 51.00425 83.86613
#
# Poissons Ratio (x) = 0.36005 0.44029
# Poissons Ratio (y) = 0.36010 0.44040
# Poissons Ratio (z) = 0.26781 0.26784
#
# Static dielectric constant tensor:
#      x y z
#    x 2.868010 0.000000 0.000000 
#    y 0.000000 2.868010 0.000000 
#    z 0.000000 0.000000 3.258670 
# 
# 
# High freq. dielectric constant tensor:
#      x y z
#    x 1.562410 0.000000 0.000000 
#    y 0.000000 1.562410 0.000000 
#    z 0.000000 0.000000 1.615050 
# 
# From -- ./inp_files/1097.got.cif
#   From: 2010.03.12/outbox.cif.g09.slc.cpg/sg139_1_cif.got.tgz:1097.got - 2010.04.08 09:46:31.
