data_PCOD8319781
_publ_section_title
;
Structure prediction by ZEFSAII (Michael W. Deem and Ramdas Pophale) SiO2 
 PCOD8319781
Probable space group: I 4/M M M
;
_chemical_formula_sum "Si O2"
_cell_formula_units_Z 176
_cell_length_a 26.942891
_cell_length_b 26.942891
_cell_length_c 14.143333
_cell_angle_alpha 90.000000
_cell_angle_beta 90.000000
_cell_angle_gamma 90.000000
_cell_volume 10266.919458
_symmetry_space_group_name_H-M "I 4/M M M"
_symmetry_group_IT_number 139
_symmetry_cell_setting 'tetragonal'
loop_
_space_group_symop_operation_xyz
x,y,z
-y,x,z
-x,-y,z
y,-x,z
x,-y,-z
-x,y,-z
y,x,-z
-y,-x,-z
-x,-y,-z
y,-x,-z
x,y,-z
-y,x,-z
-x,y,z
x,-y,z
-y,-x,z
y,x,z
1/2+x,1/2+y,1/2+z
1/2-y,1/2+x,1/2+z
1/2-x,1/2-y,1/2+z
1/2+y,1/2-x,1/2+z
1/2+x,1/2-y,1/2-z
1/2-x,1/2+y,1/2-z
1/2+y,1/2+x,1/2-z
1/2-y,1/2-x,1/2-z
1/2-x,1/2-y,1/2-z
1/2+y,1/2-x,1/2-z
1/2+x,1/2+y,1/2-z
1/2-y,1/2+x,1/2-z
1/2-x,1/2+y,1/2+z
1/2+x,1/2-y,1/2+z
1/2-y,1/2-x,1/2+z
1/2+y,1/2+x,1/2+z
loop_
_atom_site_type_symbol
_atom_site_label
_atom_site_fract_x
_atom_site_fract_y
_atom_site_fract_z
Si Si1 0.201422 0.276791 0.388522
Si Si2 0.000000 0.556337 0.111587
Si Si3 0.378370 0.906941 0.150945
Si Si4 0.858026 0.222064 0.888210
Si Si5 0.695956 0.094409 0.603936
Si Si6 0.556306 0.775644 0.299789
O O1 0.206417 0.279322 0.500000
O O2 0.225659 0.225659 0.349989
O O3 0.232920 0.323438 0.349957
O O4 0.144664 0.278384 0.357961
O O5 0.048716 0.582603 0.150014
O O6 0.000000 0.500000 0.148482
O O7 0.000000 0.559440 0.000000
O O8 0.379128 0.879128 0.250000
O O9 0.395403 0.862649 0.081900
O O10 0.322724 0.927416 0.134639
O O11 0.830644 0.169357 0.866654
O O12 0.909333 0.228578 0.828990
O O13 0.869025 0.225989 0.000000
O O14 0.716855 0.077324 0.500000
O O15 0.709177 0.056192 0.687712
O O16 0.500000 0.761254 0.324785
#
# Coordination Sequence:
#
# PCOD8319781 Si02
#       6
#    32  16  32  32  32  32
#     4   8  14  26  47  74  98 122 156 195 238 293
#     4  11  24  36  48  64  78 108 160 214 267 311
#     4  10  21  34  48  65  89 120 160 212 259 303
#     4   9  18  33  53  78 105 130 159 201 254 312
#     4  10  20  34  50  67  97 133 166 206 247 293
#     4  11  22  35  50  75 100 130 170 206 258 309
#
# _framework density 17.142434999999999
#
# number of rings (size 3 to 8) (size 9 to 14) (size 15 to 20)
#    0.000    2.273    2.727    1.636    1.273    2.909 
#    0.000    1.818    0.000    0.000    0.000    0.000 
#    0.000    0.364    0.000    2.000    0.000    0.000 
#
# Total GULP energy -1090308.408850 kJ/mol
# GULP energy per Si atom -12389.868282 kJ/mol
# Density = 1.710342 g / cm^3
# Si number density = 17.142435 Si / 1000 Ang^3
#
#
#
# Elastic Constant Matrix: (Units=GPa)
#
#
# Indices 1 2 3 4 5 6 
#
# 1 69.3256 44.0208 8.0868 0.0000 0.0000 0.0000
# 2 44.0208 69.3256 8.0868 0.0000 0.0000 0.0000
# 3 8.0868 8.0868 47.7517 0.0000 0.0000 0.0000
# 4 0.0000 0.0000 0.0000 17.7958 0.0000 0.0000
# 5 0.0000 0.0000 0.0000 0.0000 17.7958 0.0000
# 6 0.0000 0.0000 0.0000 0.0000 0.0000 28.4664
#
#
#
# Elastic Compliance Matrix: (Units=1/GPa)
#
#
# Indices 1 2 3 4 5 6 
#
# 1 0.024280 -0.015239 -0.001531 0.000000 0.000000 0.000000
# 2 -0.015239 0.024280 -0.001531 0.000000 0.000000 0.000000
# 3 -0.001531 -0.001531 0.021460 0.000000 0.000000 0.000000
# 4 0.000000 0.000000 0.000000 0.056193 0.000000 0.000000
# 5 0.000000 0.000000 0.000000 0.000000 0.056193 0.000000
# 6 0.000000 0.000000 0.000000 0.000000 0.000000 0.035129
#
#
# Mechanical properties :
#
#
# Convention : Reuss Voigt Hill
#
# Bulk Modulus (GPa) = 29.92414 34.08796 32.00605
# Shear Modulus (GPa) = 18.84831 21.22548 20.03690
#
# Velocity S-wave (km/s) = 3.31949 3.52260 3.42255
# Velocity P-wave (km/s) = 5.67328 6.03931 5.85915
#
# Compressibility (1/GPa) = 0.03341783
#
# Stress axis : x y z
#
# Youngs Moduli (GPa) = 41.18683 41.18683 46.59774
#
# Poissons Ratio (x) = 0.62763 0.07135
# Poissons Ratio (y) = 0.62763 0.07135
# Poissons Ratio (z) = 0.06306 0.06306
#
# Static dielectric constant tensor:
#      x y z
#    x 3.301130 0.000000 0.000000 
#    y 0.000000 3.301130 0.000000 
#    z 0.000000 0.000000 3.192040 
# 
# 
# High freq. dielectric constant tensor:
#      x y z
#    x 1.629060 0.000000 0.000000 
#    y 0.000000 1.629060 0.000000 
#    z 0.000000 0.000000 1.674450 
# 
# From -- ./inp_files/6415.got.cif
#   From: 2010.03.12/outbox.cif.g09.slc.cpg/sg139_4_cif.got.tgz:6415.got - 2010.04.08 09:46:31.
