data_PCOD8319849
_publ_section_title
;
Structure prediction by ZEFSAII (Michael W. Deem and Ramdas Pophale) SiO2 
 PCOD8319849
Probable space group: I 4/M M M
;
_chemical_formula_sum "Si O2"
_cell_formula_units_Z 96
_cell_length_a 22.223913
_cell_length_b 22.223913
_cell_length_c 10.058224
_cell_angle_alpha 90.000000
_cell_angle_beta 90.000000
_cell_angle_gamma 90.000000
_cell_volume 4967.780058
_symmetry_space_group_name_H-M "I 4/M M M"
_symmetry_group_IT_number 139
_symmetry_cell_setting 'tetragonal'
loop_
_space_group_symop_operation_xyz
x,y,z
-y,x,z
-x,-y,z
y,-x,z
x,-y,-z
-x,y,-z
y,x,-z
-y,-x,-z
-x,-y,-z
y,-x,-z
x,y,-z
-y,x,-z
-x,y,z
x,-y,z
-y,-x,z
y,x,z
1/2+x,1/2+y,1/2+z
1/2-y,1/2+x,1/2+z
1/2-x,1/2-y,1/2+z
1/2+y,1/2-x,1/2+z
1/2+x,1/2-y,1/2-z
1/2-x,1/2+y,1/2-z
1/2+y,1/2+x,1/2-z
1/2-y,1/2-x,1/2-z
1/2-x,1/2-y,1/2-z
1/2+y,1/2-x,1/2-z
1/2+x,1/2+y,1/2-z
1/2-y,1/2+x,1/2-z
1/2-x,1/2+y,1/2+z
1/2+x,1/2-y,1/2+z
1/2-y,1/2-x,1/2+z
1/2+y,1/2+x,1/2+z
loop_
_atom_site_type_symbol
_atom_site_label
_atom_site_fract_x
_atom_site_fract_y
_atom_site_fract_z
Si Si1 0.069059 0.752315 0.283028
Si Si2 0.282672 0.717329 0.500000
Si Si3 0.929466 0.070535 0.000000
Si Si4 0.814146 0.358132 0.000000
Si Si5 0.142987 0.142987 0.788945
Si Si6 0.434145 0.194915 0.500000
O O1 0.106354 0.704779 0.368542
O O2 0.099784 0.817175 0.304939
O O3 0.074464 0.737661 0.127073
O O4 0.000000 0.753509 0.331049
O O5 0.292260 0.789096 0.500000
O O6 0.312655 0.687346 0.370757
O O7 0.899910 0.100091 0.127658
O O8 0.000000 0.084514 0.000000
O O9 0.886643 0.359079 0.000000
O O10 0.500000 0.164723 0.500000
#
# Coordination Sequence:
#
# PCOD8319849 Si02
#       6
#    32   8   8  16  16  16
#     4  11  23  38  59  86 122 162 198 244 297 355
#     4  11  22  33  60  91 120 153 188 245 306 357
#     4  10  20  35  58  86 120 164 210 249 282 334
#     4  12  22  38  58  88 122 154 200 248 303 358
#     4  11  20  36  56  87 123 158 198 240 293 360
#     4  10  21  37  58  85 117 157 198 239 298 360
#
# _framework density 19.324525000000001
#
# number of rings (size 3 to 8) (size 9 to 14) (size 15 to 20)
#    0.000    1.083    3.333    4.500    0.000    2.667 
#    0.000    0.000    0.000    2.000    0.000    9.333 
#    0.000    9.333    0.000    0.000    0.000    0.000 
#
# Total GULP energy -595220.508278 kJ/mol
# GULP energy per Si atom -12400.427256 kJ/mol
# Density = 1.928054 g / cm^3
# Si number density = 19.324525 Si / 1000 Ang^3
#
#
#
# Elastic Constant Matrix: (Units=GPa)
#
#
# Indices 1 2 3 4 5 6 
#
# 1 161.5689 80.2440 35.8732 0.0000 0.0000 0.0000
# 2 80.2440 161.5679 35.8730 0.0000 0.0000 0.0000
# 3 35.8732 35.8730 69.7336 0.0000 0.0000 0.0000
# 4 0.0000 0.0000 0.0000 18.0520 0.0000 0.0000
# 5 0.0000 0.0000 0.0000 0.0000 18.0616 0.0000
# 6 0.0000 0.0000 0.0000 0.0000 0.0000 36.9049
#
#
#
# Elastic Compliance Matrix: (Units=1/GPa)
#
#
# Indices 1 2 3 4 5 6 
#
# 1 0.008588 -0.003708 -0.002511 0.000000 0.000000 0.000000
# 2 -0.003708 0.008588 -0.002511 0.000000 0.000000 0.000000
# 3 -0.002511 -0.002511 0.016923 0.000000 0.000000 0.000000
# 4 0.000000 0.000000 0.000000 0.055396 0.000000 0.000000
# 5 0.000000 0.000000 0.000000 0.000000 0.055366 0.000000
# 6 0.000000 0.000000 0.000000 0.000000 0.000000 0.027097
#
#
# Mechanical properties :
#
#
# Convention : Reuss Voigt Hill
#
# Bulk Modulus (GPa) = 60.09026 77.42788 68.75907
# Shear Modulus (GPa) = 25.64575 30.66238 28.15406
#
# Velocity S-wave (km/s) = 3.64690 3.98767 3.82109
# Velocity P-wave (km/s) = 6.99257 7.83302 7.42470
#
# Compressibility (1/GPa) = 0.01664163
#
# Stress axis : x y z
#
# Youngs Moduli (GPa) = 116.43667 116.43599 59.09000
#
# Poissons Ratio (x) = 0.43175 0.14835
# Poissons Ratio (y) = 0.43175 0.14835
# Poissons Ratio (z) = 0.29232 0.29232
#
# Static dielectric constant tensor:
#      x y z
#    x 3.723610 0.000000 0.000000 
#    y 0.000000 3.723610 0.000000 
#    z 0.000000 0.000000 3.406400 
# 
# 
# High freq. dielectric constant tensor:
#      x y z
#    x 1.756040 0.000000 0.000000 
#    y 0.000000 1.756040 0.000000 
#    z 0.000000 0.000000 1.742550 
# 
# From -- ./inp_files/3101.got.cif
#   From: 2010.03.12/outbox.cif.g09.slc.cpg/sg139_2_cif.got.tgz:3101.got - 2010.04.08 09:46:31.
