data_PCOD8319560
_publ_section_title
;
Structure prediction by ZEFSAII (Michael W. Deem and Ramdas Pophale) SiO2 
 PCOD8319560
Probable space group: I 4/M M M
;
_chemical_formula_sum "Si O2"
_cell_formula_units_Z 192
_cell_length_a 21.016294
_cell_length_b 21.016294
_cell_length_c 24.549215
_cell_angle_alpha 90.000000
_cell_angle_beta 90.000000
_cell_angle_gamma 90.000000
_cell_volume 10843.010539
_symmetry_space_group_name_H-M "I 4/M M M"
_symmetry_group_IT_number 139
_symmetry_cell_setting 'tetragonal'
loop_
_space_group_symop_operation_xyz
x,y,z
-y,x,z
-x,-y,z
y,-x,z
x,-y,-z
-x,y,-z
y,x,-z
-y,-x,-z
-x,-y,-z
y,-x,-z
x,y,-z
-y,x,-z
-x,y,z
x,-y,z
-y,-x,z
y,x,z
1/2+x,1/2+y,1/2+z
1/2-y,1/2+x,1/2+z
1/2-x,1/2-y,1/2+z
1/2+y,1/2-x,1/2+z
1/2+x,1/2-y,1/2-z
1/2-x,1/2+y,1/2-z
1/2+y,1/2+x,1/2-z
1/2-y,1/2-x,1/2-z
1/2-x,1/2-y,1/2-z
1/2+y,1/2-x,1/2-z
1/2+x,1/2+y,1/2-z
1/2-y,1/2+x,1/2-z
1/2-x,1/2+y,1/2+z
1/2+x,1/2-y,1/2+z
1/2-y,1/2-x,1/2+z
1/2+y,1/2+x,1/2+z
loop_
_atom_site_type_symbol
_atom_site_label
_atom_site_fract_x
_atom_site_fract_y
_atom_site_fract_z
Si Si1 0.673076 0.426948 0.060959
Si Si2 0.759380 0.344034 0.655419
Si Si3 0.679327 0.073519 0.246978
Si Si4 0.929358 0.293730 0.061512
Si Si5 0.111345 0.430524 0.937579
Si Si6 0.610070 0.779427 0.861255
O O1 0.666104 0.500000 0.075975
O O2 0.603136 0.396864 0.062234
O O3 0.712412 0.392752 0.108676
O O4 0.702993 0.417507 0.000000
O O5 0.694250 0.305751 0.667627
O O6 0.774155 0.394273 0.702937
O O7 0.752893 0.382724 0.599154
O O8 0.816188 0.294189 0.648867
O O9 0.612427 0.112427 0.250000
O O10 0.718019 0.074551 0.303389
O O11 0.664776 0.000000 0.230870
O O12 0.932327 0.369496 0.076761
O O13 0.000000 0.266500 0.068624
O O14 0.904800 0.284910 0.000000
O O15 0.077765 0.500000 0.926992
O O16 0.172938 0.427152 0.900491
O O17 0.133375 0.426693 0.000000
#
# Coordination Sequence:
#
# PCOD8319560 Si02
#       6
#    32  32  32  32  32  32
#     4  10  20  32  47  67  91 121 157 199 246 293
#     4  10  21  35  51  72  99 130 165 204 246 293
#     4  10  21  35  53  76 103 135 168 203 243 289
#     4   9  18  32  49  70  98 130 163 204 250 295
#     4   9  16  26  43  68  98 131 164 199 239 284
#     4  10  19  32  49  69  94 124 163 203 242 285
#
# _framework density 17.707259000000001
#
# number of rings (size 3 to 8) (size 9 to 14) (size 15 to 20)
#    0.000    2.333    0.000    3.000    0.000    6.667 
#    0.000    2.500    0.000    6.000    0.000    0.000 
#    0.000    5.333    0.000    7.333    0.000    0.000 
#
# Total GULP energy -1189755.636927 kJ/mol
# GULP energy per Si atom -12393.287885 kJ/mol
# Density = 1.766696 g / cm^3
# Si number density = 17.707259 Si / 1000 Ang^3
#
#
#
# Elastic Constant Matrix: (Units=GPa)
#
#
# Indices 1 2 3 4 5 6 
#
# 1 74.6723 44.7044 42.9939 0.0000 0.0000 0.0000
# 2 44.7044 74.6723 42.9939 0.0000 0.0000 0.0000
# 3 42.9939 42.9939 100.1479 0.0000 0.0000 0.0000
# 4 0.0000 0.0000 0.0000 20.7813 0.0000 0.0000
# 5 0.0000 0.0000 0.0000 0.0000 20.7813 0.0000
# 6 0.0000 0.0000 0.0000 0.0000 0.0000 16.4339
#
#
#
# Elastic Compliance Matrix: (Units=1/GPa)
#
#
# Indices 1 2 3 4 5 6 
#
# 1 0.022748 -0.010621 -0.005206 0.000000 0.000000 0.000000
# 2 -0.010621 0.022748 -0.005206 0.000000 0.000000 0.000000
# 3 -0.005206 -0.005206 0.014455 0.000000 0.000000 0.000000
# 4 0.000000 0.000000 0.000000 0.048120 0.000000 0.000000
# 5 0.000000 0.000000 0.000000 0.000000 0.048120 0.000000
# 6 0.000000 0.000000 0.000000 0.000000 0.000000 0.060850
#
#
# Mechanical properties :
#
#
# Convention : Reuss Voigt Hill
#
# Bulk Modulus (GPa) = 55.91435 56.76412 56.33923
# Shear Modulus (GPa) = 18.86297 19.51930 19.19113
#
# Velocity S-wave (km/s) = 3.26738 3.32374 3.29568
# Velocity P-wave (km/s) = 6.77348 6.84516 6.80942
#
# Compressibility (1/GPa) = 0.01788450
#
# Stress axis : x y z
#
# Youngs Moduli (GPa) = 43.96004 43.96004 69.17906
#
# Poissons Ratio (x) = 0.46690 0.36015
# Poissons Ratio (y) = 0.46690 0.36015
# Poissons Ratio (z) = 0.22886 0.22886
#
# Static dielectric constant tensor:
#      x y z
#    x 3.106280 0.000000 0.000000 
#    y 0.000000 3.106280 0.000000 
#    z 0.000000 0.000000 3.492920 
# 
# 
# High freq. dielectric constant tensor:
#      x y z
#    x 1.660890 0.000000 0.000000 
#    y 0.000000 1.660890 0.000000 
#    z 0.000000 0.000000 1.697880 
# 
# From -- ./inp_files/11907.got.cif
#   From: 2010.03.12/outbox.cif.g09.slc.cpg/sg139_6_cif.got.tgz:11907.got - 2010.04.08 09:46:31.
