data_PCOD8319402
_publ_section_title
;
Structure prediction by ZEFSAII (Michael W. Deem and Ramdas Pophale) SiO2 
 PCOD8319402
Probable space group: I 4/M M M
;
_chemical_formula_sum "Si O2"
_cell_formula_units_Z 128
_cell_length_a 17.303748
_cell_length_b 17.303748
_cell_length_c 24.378422
_cell_angle_alpha 90.000000
_cell_angle_beta 90.000000
_cell_angle_gamma 90.000000
_cell_volume 7299.379676
_symmetry_space_group_name_H-M "I 4/M M M"
_symmetry_group_IT_number 139
_symmetry_cell_setting 'tetragonal'
loop_
_space_group_symop_operation_xyz
x,y,z
-y,x,z
-x,-y,z
y,-x,z
x,-y,-z
-x,y,-z
y,x,-z
-y,-x,-z
-x,-y,-z
y,-x,-z
x,y,-z
-y,x,-z
-x,y,z
x,-y,z
-y,-x,z
y,x,z
1/2+x,1/2+y,1/2+z
1/2-y,1/2+x,1/2+z
1/2-x,1/2-y,1/2+z
1/2+y,1/2-x,1/2+z
1/2+x,1/2-y,1/2-z
1/2-x,1/2+y,1/2-z
1/2+y,1/2+x,1/2-z
1/2-y,1/2-x,1/2-z
1/2-x,1/2-y,1/2-z
1/2+y,1/2-x,1/2-z
1/2+x,1/2+y,1/2-z
1/2-y,1/2+x,1/2-z
1/2-x,1/2+y,1/2+z
1/2+x,1/2-y,1/2+z
1/2-y,1/2-x,1/2+z
1/2+y,1/2+x,1/2+z
loop_
_atom_site_type_symbol
_atom_site_label
_atom_site_fract_x
_atom_site_fract_y
_atom_site_fract_z
Si Si1 0.711358 0.160932 0.691075
Si Si2 0.000000 0.873779 0.558697
Si Si3 0.124040 0.500000 0.062080
Si Si4 0.909307 0.220493 0.000000
Si Si5 0.500000 0.254934 0.150825
Si Si6 0.914948 0.334877 0.097715
O O1 0.778747 0.221254 0.678237
O O2 0.673880 0.173880 0.750000
O O3 0.746790 0.074941 0.689289
O O4 0.644684 0.171343 0.646870
O O5 0.923410 0.923410 0.558090
O O6 0.000000 0.825760 0.500000
O O7 0.000000 0.833419 0.617369
O O8 0.195153 0.500000 0.102022
O O9 0.076874 0.578656 0.073025
O O10 0.153502 0.500000 0.000000
O O11 0.888652 0.273018 0.947682
O O12 0.856752 0.143249 0.000000
O O13 0.000000 0.196469 0.000000
O O14 0.000000 0.312738 0.119879
#
# Coordination Sequence:
#
# PCOD8319402 Si02
#       6
#    32  16  16  16  16  32
#     4  10  22  38  55  77 105 138 177 222 265 307
#     4   9  17  30  50  78 113 147 178 215 261 317
#     4  10  18  31  50  79 110 138 170 204 249 306
#     4  10  20  34  53  79 103 135 172 214 267 316
#     4  10  20  33  54  77 105 141 179 218 259 318
#     4  10  20  33  55  77 107 140 171 210 257 314
#
# _framework density 17.535736
#
# number of rings (size 3 to 8) (size 9 to 14) (size 15 to 20)
#    0.000    2.125    1.250    2.625    1.750    0.625 
#    0.000    0.000    0.000    0.000    0.000    0.000 
#    0.000    0.000    0.000    0.000    0.000    0.000 
#
# Total GULP energy -793107.787225 kJ/mol
# GULP energy per Si atom -12392.309175 kJ/mol
# Density = 1.749582 g / cm^3
# Si number density = 17.535736 Si / 1000 Ang^3
#
#
#
# Elastic Constant Matrix: (Units=GPa)
#
#
# Indices 1 2 3 4 5 6 
#
# 1 108.0916 58.9353 61.0573 0.0000 0.0000 0.0000
# 2 58.9353 108.0943 61.0576 0.0000 0.0000 0.0000
# 3 61.0573 61.0576 103.1626 0.0000 0.0000 0.0000
# 4 0.0000 0.0000 0.0000 52.5570 0.0000 0.0000
# 5 0.0000 0.0000 0.0000 0.0000 52.5570 0.0000
# 6 0.0000 0.0000 0.0000 0.0000 0.0000 4.3638
#
#
#
# Elastic Compliance Matrix: (Units=1/GPa)
#
#
# Indices 1 2 3 4 5 6 
#
# 1 0.015448 -0.004895 -0.006246 0.000000 0.000000 0.000000
# 2 -0.004895 0.015448 -0.006246 0.000000 0.000000 0.000000
# 3 -0.006246 -0.006246 0.017087 0.000000 0.000000 0.000000
# 4 0.000000 0.000000 0.000000 0.019027 0.000000 0.000000
# 5 0.000000 0.000000 0.000000 0.000000 0.019027 0.000000
# 6 0.000000 0.000000 0.000000 0.000000 0.000000 0.229156
#
#
# Mechanical properties :
#
#
# Convention : Reuss Voigt Hill
#
# Bulk Modulus (GPa) = 75.70298 75.71655 75.70977
# Shear Modulus (GPa) = 14.10953 31.11545 22.61249
#
# Velocity S-wave (km/s) = 2.83965 4.21694 3.59487
# Velocity P-wave (km/s) = 7.34955 8.18427 7.77811
#
# Compressibility (1/GPa) = 0.01320952
#
# Stress axis : x y z
#
# Youngs Moduli (GPa) = 64.73138 64.73353 58.52324
#
# Poissons Ratio (x) = 0.31684 0.36556
# Poissons Ratio (y) = 0.31683 0.36554
# Poissons Ratio (z) = 0.40434 0.40433
#
# Static dielectric constant tensor:
#      x y z
#    x 3.349930 0.000000 0.000000 
#    y 0.000000 3.349930 0.000000 
#    z 0.000000 0.000000 3.137180 
# 
# 
# High freq. dielectric constant tensor:
#      x y z
#    x 1.680330 0.000000 0.000000 
#    y 0.000000 1.680330 0.000000 
#    z 0.000000 0.000000 1.676550 
# 
# From -- ./inp_files/11410.got.cif
#   From: 2010.03.12/outbox.cif.g09.slc.cpg/sg139_6_cif.got.tgz:11410.got - 2010.04.08 09:46:31.
