data_PCOD8319650
_publ_section_title
;
Structure prediction by ZEFSAII (Michael W. Deem and Ramdas Pophale) SiO2 
 PCOD8319650
Probable space group: I 4/M M M
;
_chemical_formula_sum "Si O2"
_cell_formula_units_Z 160
_cell_length_a 30.617573
_cell_length_b 30.617573
_cell_length_c 9.196591
_cell_angle_alpha 90.000000
_cell_angle_beta 90.000000
_cell_angle_gamma 90.000000
_cell_volume 8621.213424
_symmetry_space_group_name_H-M "I 4/M M M"
_symmetry_group_IT_number 139
_symmetry_cell_setting 'tetragonal'
loop_
_space_group_symop_operation_xyz
x,y,z
-y,x,z
-x,-y,z
y,-x,z
x,-y,-z
-x,y,-z
y,x,-z
-y,-x,-z
-x,-y,-z
y,-x,-z
x,y,-z
-y,x,-z
-x,y,z
x,-y,z
-y,-x,z
y,x,z
1/2+x,1/2+y,1/2+z
1/2-y,1/2+x,1/2+z
1/2-x,1/2-y,1/2+z
1/2+y,1/2-x,1/2+z
1/2+x,1/2-y,1/2-z
1/2-x,1/2+y,1/2-z
1/2+y,1/2+x,1/2-z
1/2-y,1/2-x,1/2-z
1/2-x,1/2-y,1/2-z
1/2+y,1/2-x,1/2-z
1/2+x,1/2+y,1/2-z
1/2-y,1/2+x,1/2-z
1/2-x,1/2+y,1/2+z
1/2+x,1/2-y,1/2+z
1/2-y,1/2-x,1/2+z
1/2+y,1/2+x,1/2+z
loop_
_atom_site_type_symbol
_atom_site_label
_atom_site_fract_x
_atom_site_fract_y
_atom_site_fract_z
Si Si1 0.239002 0.000000 0.162600
Si Si2 0.951016 0.048985 0.672729
Si Si3 0.210131 0.348495 0.660762
Si Si4 0.706265 0.403759 0.332740
Si Si5 0.079250 0.363524 0.837218
Si Si6 0.500000 0.823352 0.170515
Si Si7 0.880971 0.119030 0.327020
O O1 0.211472 0.955932 0.180377
O O2 0.272522 0.000000 0.294364
O O3 0.261120 0.000000 0.000000
O O4 0.950122 0.049879 0.500000
O O5 0.916150 0.083851 0.734521
O O6 0.000000 0.061228 0.727152
O O7 0.221708 0.331434 0.500000
O O8 0.194678 0.305323 0.750000
O O9 0.251961 0.375249 0.723649
O O10 0.170308 0.381591 0.652709
O O11 0.696366 0.391385 0.500000
O O12 0.666676 0.392483 0.229015
O O13 0.093485 0.406516 0.750000
O O14 0.041856 0.343738 0.741537
O O15 0.063337 0.375729 0.000000
O O16 0.500000 0.831430 0.000000
O O17 0.880783 0.119217 0.500000
#
# Coordination Sequence:
#
# PCOD8319650 Si02
#       7
#    16  16  32  32  32  16  16
#     4  10  20  38  60  82 112 152 190 233 289 343
#     4   8  16  34  57  79 109 147 182 220 276 341
#     4   9  18  33  56  81 109 145 185 230 280 334
#     4  10  21  39  59  81 113 154 190 227 284 346
#     4  10  19  34  53  78 112 149 190 237 287 342
#     4  12  22  32  52  85 117 149 189 236 290 347
#     4  11  24  37  57  87 116 147 187 238 281 329
#
# _framework density 18.558872999999998
#
# number of rings (size 3 to 8) (size 9 to 14) (size 15 to 20)
#    0.000    2.100    2.000    2.100    1.400    2.400 
#    0.000    0.500    0.000    0.300    0.000    4.900 
#    0.000    0.000    0.000    0.000    0.000    0.000 
#
# Total GULP energy -991451.015024 kJ/mol
# GULP energy per Si atom -12393.137688 kJ/mol
# Density = 1.851663 g / cm^3
# Si number density = 18.558873 Si / 1000 Ang^3
#
#
#
# Elastic Constant Matrix: (Units=GPa)
#
#
# Indices 1 2 3 4 5 6 
#
# 1 85.1181 54.3499 44.5981 0.0000 0.0000 0.0000
# 2 54.3499 85.1038 44.5982 0.0000 0.0000 0.0000
# 3 44.5981 44.5982 114.4824 0.0000 0.0000 0.0000
# 4 0.0000 0.0000 0.0000 31.8507 0.0000 0.0000
# 5 0.0000 0.0000 0.0000 0.0000 31.8525 0.0000
# 6 0.0000 0.0000 0.0000 0.0000 0.0000 29.9878
#
#
#
# Elastic Compliance Matrix: (Units=1/GPa)
#
#
# Indices 1 2 3 4 5 6 
#
# 1 0.021027 -0.011479 -0.003719 0.000000 0.000000 0.000000
# 2 -0.011479 0.021032 -0.003721 0.000000 0.000000 0.000000
# 3 -0.003719 -0.003721 0.011634 0.000000 0.000000 0.000000
# 4 0.000000 0.000000 0.000000 0.031396 0.000000 0.000000
# 5 0.000000 0.000000 0.000000 0.000000 0.031395 0.000000
# 6 0.000000 0.000000 0.000000 0.000000 0.000000 0.033347
#
#
# Mechanical properties :
#
#
# Convention : Reuss Voigt Hill
#
# Bulk Modulus (GPa) = 63.08283 63.53296 63.30790
# Shear Modulus (GPa) = 25.91288 28.14873 27.03081
#
# Velocity S-wave (km/s) = 3.74070 3.89874 3.82054
# Velocity P-wave (km/s) = 7.26096 7.38745 7.32448
#
# Compressibility (1/GPa) = 0.01585217
#
# Stress axis : x y z
#
# Youngs Moduli (GPa) = 47.55776 47.54770 85.95833
#
# Poissons Ratio (x) = 0.54582 0.31971
# Poissons Ratio (y) = 0.54593 0.31986
# Poissons Ratio (z) = 0.17689 0.17693
#
# Static dielectric constant tensor:
#      x y z
#    x 3.385390 0.000000 0.000000 
#    y 0.000000 3.385430 0.000000 
#    z 0.000000 0.000000 2.730530 
# 
# 
# High freq. dielectric constant tensor:
#      x y z
#    x 1.714570 0.000000 0.000000 
#    y 0.000000 1.714570 0.000000 
#    z 0.000000 0.000000 1.713560 
# 
# From -- ./inp_files/2333.got.cif
#   From: 2010.03.12/outbox.cif.g09.slc.cpg/sg139_2_cif.got.tgz:2333.got - 2010.04.08 09:46:31.
