data_PCOD8319081
_publ_section_title
;
Structure prediction by ZEFSAII (Michael W. Deem and Ramdas Pophale) SiO2 
 PCOD8319081
Probable space group: P 42/N C M
;
_chemical_formula_sum "Si O2"
_cell_formula_units_Z 96
_cell_length_a 24.172547
_cell_length_b 24.172547
_cell_length_c 8.640732
_cell_angle_alpha 90.000000
_cell_angle_beta 90.000000
_cell_angle_gamma 90.000000
_cell_volume 5048.883642
_symmetry_space_group_name_H-M "P 42/N C M"
_symmetry_group_IT_number 138
_space_group.IT_coordinate_system_code '2'
_symmetry_cell_setting 'tetragonal'
loop_
_space_group_symop_operation_xyz
x,y,z
1/2-y,x,1/2+z
1/2-x,1/2-y,z
y,1/2-x,1/2+z
1/2+x,-y,1/2-z
-x,1/2+y,1/2-z
1/2+y,1/2+x,-z
-y,-x,-z
-x,-y,-z
1/2+y,-x,1/2-z
1/2+x,1/2+y,-z
-y,1/2+x,1/2-z
1/2-x,y,1/2+z
x,1/2-y,1/2+z
1/2-y,1/2-x,z
y,x,z
loop_
_atom_site_type_symbol
_atom_site_label
_atom_site_fract_x
_atom_site_fract_y
_atom_site_fract_z
Si Si1 0.824814 0.912481 0.775880
Si Si2 0.819635 0.006176 0.357766
Si Si3 0.007394 0.096313 0.379110
Si Si4 0.046374 0.233391 0.933699
Si Si5 0.799233 0.185041 0.821910
Si Si6 0.620279 0.113374 0.830444
O O1 0.853493 0.853493 0.757894
O O2 0.778252 0.913742 0.644451
O O3 0.868151 0.962533 0.753117
O O4 0.801169 0.917001 0.947892
O O5 0.808112 0.973377 0.200076
O O6 0.765595 0.002925 0.471605
O O7 0.872976 0.985050 0.455002
O O8 0.834350 0.066627 0.294150
O O9 0.943151 0.091093 0.328783
O O10 0.035533 0.035533 0.391445
O O11 0.736097 0.174579 0.773654
O O12 0.836033 0.130168 0.788094
O O13 0.800325 0.199676 0.000000
O O14 0.635341 0.135341 0.000000
#
# Coordination Sequence:
#
# PCOD8319081 Si02
#       6
#    16  16  16  16  16  16
#     4   9  18  34  56  79 106 139 172 216 267 316
#     4   9  19  32  52  78 106 140 179 220 265 315
#     4   9  19  36  55  78 110 143 178 221 271 324
#     4   9  18  34  54  79 107 139 181 221 262 318
#     4  11  23  39  57  77 105 140 182 229 277 325
#     4  10  21  35  53  79 108 143 181 221 271 322
#
# _framework density 19.014104
#
# number of rings (size 3 to 8) (size 9 to 14) (size 15 to 20)
#    0.000    2.500    0.000    2.000    0.000   11.667 
#    0.000    2.500    0.000    4.000    0.000    0.000 
#    0.000    0.000    0.000    0.000    0.000    0.000 
#
# Total GULP energy -1189664.946508 kJ/mol
# GULP energy per Si atom -12392.343193 kJ/mol
# Density = 1.897083 g / cm^3
# Si number density = 19.014104 Si / 1000 Ang^3
#
#
#
# Elastic Constant Matrix: (Units=GPa)
#
#
# Indices 1 2 3 4 5 6 
#
# 1 91.3116 51.9465 39.6928 0.0000 0.0000 0.0000
# 2 51.9465 91.3115 39.6927 0.0000 0.0000 0.0000
# 3 39.6928 39.6927 115.4290 0.0000 0.0000 0.0000
# 4 0.0000 0.0000 0.0000 18.9247 0.0000 0.0000
# 5 0.0000 0.0000 0.0000 0.0000 18.9247 0.0000
# 6 0.0000 0.0000 0.0000 0.0000 0.0000 31.7811
#
#
#
# Elastic Compliance Matrix: (Units=1/GPa)
#
#
# Indices 1 2 3 4 5 6 
#
# 1 0.017013 -0.008390 -0.002965 0.000000 0.000000 0.000000
# 2 -0.008390 0.017013 -0.002965 0.000000 0.000000 0.000000
# 3 -0.002965 -0.002965 0.010703 0.000000 0.000000 0.000000
# 4 0.000000 0.000000 0.000000 0.052841 0.000000 0.000000
# 5 0.000000 0.000000 0.000000 0.000000 0.052841 0.000000
# 6 0.000000 0.000000 0.000000 0.000000 0.000000 0.031465
#
#
# Mechanical properties :
#
#
# Convention : Reuss Voigt Hill
#
# Bulk Modulus (GPa) = 62.15654 62.30178 62.22916
# Shear Modulus (GPa) = 23.16087 25.04075 24.10081
#
# Velocity S-wave (km/s) = 3.49390 3.63293 3.56409
# Velocity P-wave (km/s) = 7.00265 7.10174 7.05237
#
# Compressibility (1/GPa) = 0.01608841
#
# Stress axis : x y z
#
# Youngs Moduli (GPa) = 58.77696 58.77696 93.43351
#
# Poissons Ratio (x) = 0.49313 0.27707
# Poissons Ratio (y) = 0.49313 0.27707
# Poissons Ratio (z) = 0.17430 0.17430
#
# Static dielectric constant tensor:
#      x y z
#    x 3.430660 0.000000 0.000000 
#    y 0.000000 3.430660 0.000000 
#    z 0.000000 0.000000 3.499010 
# 
# 
# High freq. dielectric constant tensor:
#      x y z
#    x 1.728050 0.000000 0.000000 
#    y 0.000000 1.728050 0.000000 
#    z 0.000000 0.000000 1.740760 
# 
# From -- ./inp_files/1711.got.cif
#   From: 2010.03.12/outbox.cif.g09.slc.cpg/sg138_1_cif.got.tgz:1711.got - 2010.04.08 09:41:05.
