data_PCOD8319187
_publ_section_title
;
Structure prediction by ZEFSAII (Michael W. Deem and Ramdas Pophale) SiO2 
 PCOD8319187
Probable space group: P 42/N C M
;
_chemical_formula_sum "Si O2"
_cell_formula_units_Z 40
_cell_length_a 13.841522
_cell_length_b 13.841522
_cell_length_c 7.675857
_cell_angle_alpha 90.000000
_cell_angle_beta 90.000000
_cell_angle_gamma 90.000000
_cell_volume 1470.600028
_symmetry_space_group_name_H-M "P 42/N C M"
_symmetry_group_IT_number 138
_space_group.IT_coordinate_system_code '2'
_symmetry_cell_setting 'tetragonal'
loop_
_space_group_symop_operation_xyz
x,y,z
1/2-y,x,1/2+z
1/2-x,1/2-y,z
y,1/2-x,1/2+z
1/2+x,-y,1/2-z
-x,1/2+y,1/2-z
1/2+y,1/2+x,-z
-y,-x,-z
-x,-y,-z
1/2+y,-x,1/2-z
1/2+x,1/2+y,-z
-y,1/2+x,1/2-z
1/2-x,y,1/2+z
x,1/2-y,1/2+z
1/2-y,1/2-x,z
y,x,z
loop_
_atom_site_type_symbol
_atom_site_label
_atom_site_fract_x
_atom_site_fract_y
_atom_site_fract_z
Si Si1 0.030070 0.469931 0.694801
Si Si2 0.857049 0.857049 0.512675
Si Si3 0.635153 0.147537 0.200975
Si Si4 0.362362 0.362362 0.894532
O O1 0.053288 0.584818 0.701927
O O2 0.068078 0.431923 0.507660
O O3 0.078354 0.421647 0.862265
O O4 0.884234 0.747329 0.553718
O O5 0.879480 0.879480 0.311138
O O6 0.615289 0.259728 0.232929
O O7 0.626071 0.126071 0.000000
#
# Coordination Sequence:
#
# PCOD8319187 Si02
#       4
#     8   8  16   8
#     4  12  27  47  85 117 152 213 280 329 390 504
#     4  11  21  40  66 113 164 213 250 336 409 467
#     4  11  27  55  81 115 164 214 264 336 410 480
#     4  11  21  40  68 112 169 208 258 329 415 463
#
# _framework density 27.199781000000002
#
# number of rings (size 3 to 8) (size 9 to 14) (size 15 to 20)
#    0.000    0.800    4.000    4.200    5.600    0.000 
#    7.200    8.000    0.000    0.000    0.000    0.000 
#    0.000    0.000    0.000    0.000    0.000    0.000 
#
# Total GULP energy -496261.610712 kJ/mol
# GULP energy per Si atom -12406.540268 kJ/mol
# Density = 2.713787 g / cm^3
# Si number density = 27.199781 Si / 1000 Ang^3
#
#
#
# Elastic Constant Matrix: (Units=GPa)
#
#
# Indices 1 2 3 4 5 6 
#
# 1 -53.7159 246.2720 36.7803 0.0000 0.0000 0.0000
# 2 246.2720 -53.7159 36.7803 0.0000 0.0000 0.0000
# 3 36.7803 36.7803 240.2160 0.0000 0.0000 0.0000
# 4 0.0000 0.0000 0.0000 74.7130 0.0000 0.0000
# 5 0.0000 0.0000 0.0000 0.0000 74.7130 0.0000
# 6 0.0000 0.0000 0.0000 0.0000 0.0000 49.4395
#
#
#
# Elastic Compliance Matrix: (Units=1/GPa)
#
#
# Indices 1 2 3 4 5 6 
#
# 1 0.001091 0.004425 -0.000845 0.000000 0.000000 0.000000
# 2 0.004425 0.001091 -0.000845 0.000000 0.000000 0.000000
# 3 -0.000845 -0.000845 0.004422 0.000000 0.000000 0.000000
# 4 0.000000 0.000000 0.000000 0.013385 0.000000 0.000000
# 5 0.000000 0.000000 0.000000 0.000000 0.013385 0.000000
# 6 0.000000 0.000000 0.000000 0.000000 0.000000 0.020227
#
#
# Mechanical properties :
#
#
# Convention : Reuss Voigt Hill
#
# Bulk Modulus (GPa) = 82.81467 85.82775 84.32121
# Shear Modulus (GPa) = 95.87032 27.30319 61.58675
#
# Velocity S-wave (km/s) = 5.94334 3.17172 4.76356
# Velocity P-wave (km/s) = 8.80969 6.71090 7.83092
#
# Compressibility (1/GPa) = 0.01207515
#
# Stress axis : x y z
#
# Youngs Moduli (GPa) = 916.39547 916.39547 226.16513
#
# Poissons Ratio (x) = -4.05477 0.19101
# Poissons Ratio (y) = -4.05477 0.19101
# Poissons Ratio (z) = 0.77395 0.77395
#
# Static dielectric constant tensor:
#      x y z
#    x 4.035870 0.000000 0.000000 
#    y 0.000000 4.035870 0.000000 
#    z 0.000000 0.000000 5.333910 
# 
# 
# High freq. dielectric constant tensor:
#      x y z
#    x 2.116700 0.000000 0.000000 
#    y 0.000000 2.116700 0.000000 
#    z 0.000000 0.000000 2.129960 
# 
# From -- ./inp_files/889.got.cif
#   From: 2010.03.12/outbox.cif.g09.slc.cpg/sg138_1_cif.got.tgz:889.got - 2010.04.08 09:41:05.
