data_PCOD8319555
_publ_section_title
;
Structure prediction by ZEFSAII (Michael W. Deem and Ramdas Pophale) SiO2 
 PCOD8319555
Probable space group: I 4/M M M
;
_chemical_formula_sum "Si O2"
_cell_formula_units_Z 88
_cell_length_a 26.913922
_cell_length_b 26.913922
_cell_length_c 8.198434
_cell_angle_alpha 90.000000
_cell_angle_beta 90.000000
_cell_angle_gamma 90.000000
_cell_volume 5938.611072
_symmetry_space_group_name_H-M "I 4/M M M"
_symmetry_group_IT_number 139
_symmetry_cell_setting 'tetragonal'
loop_
_space_group_symop_operation_xyz
x,y,z
-y,x,z
-x,-y,z
y,-x,z
x,-y,-z
-x,y,-z
y,x,-z
-y,-x,-z
-x,-y,-z
y,-x,-z
x,y,-z
-y,x,-z
-x,y,z
x,-y,z
-y,-x,z
y,x,z
1/2+x,1/2+y,1/2+z
1/2-y,1/2+x,1/2+z
1/2-x,1/2-y,1/2+z
1/2+y,1/2-x,1/2+z
1/2+x,1/2-y,1/2-z
1/2-x,1/2+y,1/2-z
1/2+y,1/2+x,1/2-z
1/2-y,1/2-x,1/2-z
1/2-x,1/2-y,1/2-z
1/2+y,1/2-x,1/2-z
1/2+x,1/2+y,1/2-z
1/2-y,1/2+x,1/2-z
1/2-x,1/2+y,1/2+z
1/2+x,1/2-y,1/2+z
1/2-y,1/2-x,1/2+z
1/2+y,1/2+x,1/2+z
loop_
_atom_site_type_symbol
_atom_site_label
_atom_site_fract_x
_atom_site_fract_y
_atom_site_fract_z
Si Si1 0.099817 0.819195 0.187716
Si Si2 0.149224 0.000000 0.684438
Si Si3 0.672244 0.244519 0.181456
Si Si4 0.919028 0.000000 0.000000
O O1 0.135810 0.864191 0.245882
O O2 0.049892 0.818080 0.295480
O O3 0.127778 0.766565 0.208936
O O4 0.084826 0.826538 0.000000
O O5 0.109242 0.000000 0.828425
O O6 0.126480 0.000000 0.500000
O O7 0.717657 0.282344 0.181347
O O8 0.691686 0.191686 0.250000
O O9 0.651613 0.236296 0.000000
O O10 0.950286 0.049714 0.000000
#
# Coordination Sequence:
#
# PCOD8319555 Si02
#       4
#    32  16  32   8
#     4  10  19  32  48  64  85 112 142 182 226 267
#     4  12  23  35  51  68  86 112 148 187 233 283
#     4   9  16  26  41  63  87 110 137 169 210 260
#     4  11  24  40  52  64  84 108 144 196 242 279
#
# _framework density 14.818281000000001
#
# number of rings (size 3 to 8) (size 9 to 14) (size 15 to 20)
#    0.000    1.909    1.818    3.273    0.000    8.727 
#    0.000    0.909    0.000    0.000    0.000    0.000 
#    0.000    0.000    0.000    0.000    0.000    0.909 
#
# Total GULP energy -545384.497782 kJ/mol
# GULP energy per Si atom -12395.102222 kJ/mol
# Density = 1.478455 g / cm^3
# Si number density = 14.818281 Si / 1000 Ang^3
#
#
#
# Elastic Constant Matrix: (Units=GPa)
#
#
# Indices 1 2 3 4 5 6 
#
# 1 62.2613 48.1900 29.7435 0.0000 0.0000 0.0000
# 2 48.1900 62.2609 29.7435 0.0000 0.0000 0.0000
# 3 29.7435 29.7435 99.3298 0.0000 0.0000 0.0000
# 4 0.0000 0.0000 0.0000 19.4683 0.0000 0.0000
# 5 0.0000 0.0000 0.0000 0.0000 19.4686 0.0000
# 6 0.0000 0.0000 0.0000 0.0000 0.0000 23.6225
#
#
#
# Elastic Compliance Matrix: (Units=1/GPa)
#
#
# Indices 1 2 3 4 5 6 
#
# 1 0.040931 -0.030136 -0.003232 0.000000 0.000000 0.000000
# 2 -0.030136 0.040931 -0.003232 0.000000 0.000000 0.000000
# 3 -0.003232 -0.003232 0.012003 0.000000 0.000000 0.000000
# 4 0.000000 0.000000 0.000000 0.051366 0.000000 0.000000
# 5 0.000000 0.000000 0.000000 0.000000 0.051365 0.000000
# 6 0.000000 0.000000 0.000000 0.000000 0.000000 0.042333
#
#
# Mechanical properties :
#
#
# Convention : Reuss Voigt Hill
#
# Bulk Modulus (GPa) = 48.39535 48.80066 48.59800
# Shear Modulus (GPa) = 15.67308 20.25688 17.96498
#
# Velocity S-wave (km/s) = 3.25574 3.70133 3.48566
# Velocity P-wave (km/s) = 6.84567 7.16036 7.00478
#
# Compressibility (1/GPa) = 0.02066314
#
# Stress axis : x y z
#
# Youngs Moduli (GPa) = 24.43140 24.43121 83.31050
#
# Poissons Ratio (x) = 0.73627 0.26929
# Poissons Ratio (y) = 0.73627 0.26929
# Poissons Ratio (z) = 0.07897 0.07897
#
# Static dielectric constant tensor:
#      x y z
#    x 2.793440 0.000000 0.000000 
#    y 0.000000 2.793440 0.000000 
#    z 0.000000 0.000000 3.026660 
# 
# 
# High freq. dielectric constant tensor:
#      x y z
#    x 1.533980 0.000000 0.000000 
#    y 0.000000 1.533980 0.000000 
#    z 0.000000 0.000000 1.586450 
# 
# From -- ./inp_files/1272.got.cif
#   From: 2010.03.12/outbox.cif.g09.slc.cpg/sg139_1_cif.got.tgz:1272.got - 2010.04.08 09:46:31.
