data_PCOD8319357
_publ_section_title
;
Structure prediction by ZEFSAII (Michael W. Deem and Ramdas Pophale) SiO2 
 PCOD8319357
Probable space group: I 4/M M M
;
_chemical_formula_sum "Si O2"
_cell_formula_units_Z 192
_cell_length_a 21.614711
_cell_length_b 21.614711
_cell_length_c 25.396205
_cell_angle_alpha 90.000000
_cell_angle_beta 90.000000
_cell_angle_gamma 90.000000
_cell_volume 11864.998575
_symmetry_space_group_name_H-M "I 4/M M M"
_symmetry_group_IT_number 139
_symmetry_cell_setting 'tetragonal'
loop_
_space_group_symop_operation_xyz
x,y,z
-y,x,z
-x,-y,z
y,-x,z
x,-y,-z
-x,y,-z
y,x,-z
-y,-x,-z
-x,-y,-z
y,-x,-z
x,y,-z
-y,x,-z
-x,y,z
x,-y,z
-y,-x,z
y,x,z
1/2+x,1/2+y,1/2+z
1/2-y,1/2+x,1/2+z
1/2-x,1/2-y,1/2+z
1/2+y,1/2-x,1/2+z
1/2+x,1/2-y,1/2-z
1/2-x,1/2+y,1/2-z
1/2+y,1/2+x,1/2-z
1/2-y,1/2-x,1/2-z
1/2-x,1/2-y,1/2-z
1/2+y,1/2-x,1/2-z
1/2+x,1/2+y,1/2-z
1/2-y,1/2+x,1/2-z
1/2-x,1/2+y,1/2+z
1/2+x,1/2-y,1/2+z
1/2-y,1/2-x,1/2+z
1/2+y,1/2+x,1/2+z
loop_
_atom_site_type_symbol
_atom_site_label
_atom_site_fract_x
_atom_site_fract_y
_atom_site_fract_z
Si Si1 0.857351 0.429295 0.296225
Si Si2 0.361962 0.777028 0.101073
Si Si3 0.333517 0.569292 0.059740
Si Si4 0.714562 0.189726 0.000000
Si Si5 0.072269 0.599551 0.399475
Si Si6 0.682498 0.777279 0.306757
Si Si7 0.432954 0.849250 0.500000
O O1 0.840557 0.500000 0.279880
O O2 0.894948 0.394948 0.250000
O O3 0.900709 0.432028 0.347247
O O4 0.793107 0.391384 0.309630
O O5 0.393873 0.710660 0.099275
O O6 0.417024 0.827016 0.101721
O O7 0.321501 0.781455 0.153174
O O8 0.318086 0.783554 0.051106
O O9 0.339605 0.500000 0.080375
O O10 0.401442 0.598559 0.061946
O O11 0.306906 0.571783 0.000000
O O12 0.786086 0.213915 0.000000
O O13 0.708041 0.115343 0.000000
O O14 0.107284 0.572190 0.449458
O O15 0.000000 0.584479 0.403861
O O16 0.705481 0.705481 0.318130
O O17 0.705763 0.794238 0.250000
O O18 0.500000 0.817175 0.500000
#
# Coordination Sequence:
#
# PCOD8319357 Si02
#       7
#    32  32  32  16  32  32  16
#     4  10  20  32  47  67  91 120 153 187 221 265
#     4  10  18  30  47  66  87 111 150 195 232 269
#     4  10  19  29  43  63  89 121 156 197 242 284
#     4  10  18  29  47  66  83 108 143 183 221 257
#     4  10  20  31  44  63  88 120 151 180 215 257
#     4   9  18  32  49  67  89 116 147 189 237 278
#     4  10  21  32  42  61  89 118 145 175 209 253
#
# _framework density 16.18205
#
# number of rings (size 3 to 8) (size 9 to 14) (size 15 to 20)
#    0.000    2.167    0.833    3.250    0.000    2.667 
#    0.000    1.667    0.000    0.000    0.000    0.000 
#    0.000    0.500    0.000    0.000    0.000   26.000 
#
# Total GULP energy -1189578.853122 kJ/mol
# GULP energy per Si atom -12391.446387 kJ/mol
# Density = 1.614522 g / cm^3
# Si number density = 16.182050 Si / 1000 Ang^3
#
#
#
# Elastic Constant Matrix: (Units=GPa)
#
#
# Indices 1 2 3 4 5 6 
#
# 1 98.1082 70.4696 23.6570 0.0000 0.0000 0.0000
# 2 70.4696 98.1087 23.6568 0.0000 0.0000 0.0000
# 3 23.6570 23.6568 98.1214 0.0000 0.0000 0.0000
# 4 0.0000 0.0000 0.0000 14.2779 0.0000 0.0000
# 5 0.0000 0.0000 0.0000 0.0000 14.2759 0.0000
# 6 0.0000 0.0000 0.0000 0.0000 0.0000 13.8493
#
#
#
# Elastic Compliance Matrix: (Units=1/GPa)
#
#
# Indices 1 2 3 4 5 6 
#
# 1 0.021272 -0.014909 -0.001534 0.000000 0.000000 0.000000
# 2 -0.014909 0.021272 -0.001534 0.000000 0.000000 0.000000
# 3 -0.001534 -0.001534 0.010931 0.000000 0.000000 0.000000
# 4 0.000000 0.000000 0.000000 0.070038 0.000000 0.000000
# 5 0.000000 0.000000 0.000000 0.000000 0.070048 0.000000
# 6 0.000000 0.000000 0.000000 0.000000 0.000000 0.072206
#
#
# Mechanical properties :
#
#
# Convention : Reuss Voigt Hill
#
# Bulk Modulus (GPa) = 57.07700 58.87836 57.97768
# Shear Modulus (GPa) = 16.25692 20.25094 18.25393
#
# Velocity S-wave (km/s) = 3.17302 3.54141 3.36227
# Velocity P-wave (km/s) = 6.98373 7.29288 7.13998
#
# Compressibility (1/GPa) = 0.01752019
#
# Stress axis : x y z
#
# Youngs Moduli (GPa) = 47.01065 47.01097 91.48170
#
# Poissons Ratio (x) = 0.70090 0.14034
# Poissons Ratio (y) = 0.70089 0.14033
# Poissons Ratio (z) = 0.07212 0.07211
#
# Static dielectric constant tensor:
#      x y z
#    x 3.177460 0.000000 0.000000 
#    y 0.000000 3.177470 0.000000 
#    z 0.000000 0.000000 3.250560 
# 
# 
# High freq. dielectric constant tensor:
#      x y z
#    x 1.605730 0.000000 0.000000 
#    y 0.000000 1.605730 0.000000 
#    z 0.000000 0.000000 1.630700 
# 
# From -- ./inp_files/13367.got.cif
#   From: 2010.03.12/outbox.cif.g09.slc.cpg/sg139_7_cif.got.tgz:13367.got - 2010.04.08 09:46:31.
