data_PCOD8319981
_publ_section_title
;
Structure prediction by ZEFSAII (Michael W. Deem and Ramdas Pophale) SiO2 
 PCOD8319981
Probable space group: I 4/M M M
;
_chemical_formula_sum "Si O2"
_cell_formula_units_Z 160
_cell_length_a 20.169661
_cell_length_b 20.169661
_cell_length_c 17.804744
_cell_angle_alpha 90.000000
_cell_angle_beta 90.000000
_cell_angle_gamma 90.000000
_cell_volume 7243.240934
_symmetry_space_group_name_H-M "I 4/M M M"
_symmetry_group_IT_number 139
_symmetry_cell_setting 'tetragonal'
loop_
_space_group_symop_operation_xyz
x,y,z
-y,x,z
-x,-y,z
y,-x,z
x,-y,-z
-x,y,-z
y,x,-z
-y,-x,-z
-x,-y,-z
y,-x,-z
x,y,-z
-y,x,-z
-x,y,z
x,-y,z
-y,-x,z
y,x,z
1/2+x,1/2+y,1/2+z
1/2-y,1/2+x,1/2+z
1/2-x,1/2-y,1/2+z
1/2+y,1/2-x,1/2+z
1/2+x,1/2-y,1/2-z
1/2-x,1/2+y,1/2-z
1/2+y,1/2+x,1/2-z
1/2-y,1/2-x,1/2-z
1/2-x,1/2-y,1/2-z
1/2+y,1/2-x,1/2-z
1/2+x,1/2+y,1/2-z
1/2-y,1/2+x,1/2-z
1/2-x,1/2+y,1/2+z
1/2+x,1/2-y,1/2+z
1/2-y,1/2-x,1/2+z
1/2+y,1/2+x,1/2+z
loop_
_atom_site_type_symbol
_atom_site_label
_atom_site_fract_x
_atom_site_fract_y
_atom_site_fract_z
Si Si1 0.246340 0.246340 0.660024
Si Si2 0.310383 0.500000 0.133210
Si Si3 0.000000 0.662437 0.587659
Si Si4 0.602420 0.073589 0.833101
Si Si5 0.644683 0.355318 0.085470
Si Si6 0.895439 0.000000 0.234042
Si Si7 0.726578 0.111515 0.086713
Si Si8 0.500000 0.667213 0.417454
O O1 0.250000 0.250000 0.750000
O O2 0.191177 0.191177 0.637886
O O3 0.317507 0.228570 0.626345
O O4 0.231724 0.500000 0.130086
O O5 0.340929 0.566422 0.096698
O O6 0.325929 0.500000 0.222369
O O7 0.936186 0.621253 0.610766
O O8 0.000000 0.676523 0.500000
O O9 0.604242 0.104242 0.750000
O O10 0.674774 0.067337 0.867644
O O11 0.570840 0.000000 0.829602
O O12 0.662760 0.337241 0.000000
O O13 0.934985 0.934985 0.259648
O O14 0.889206 0.000000 0.144584
O O15 0.793174 0.068852 0.092144
O O16 0.705943 0.121437 0.000000
O O17 0.500000 0.634520 0.500000
#
# Coordination Sequence:
#
# PCOD8319981 Si02
#       8
#    16  16  16  32  16  16  32  16
#     4  12  28  46  73 111 146 195 244 305 374 440
#     4  12  27  47  76 110 143 191 242 296 368 432
#     4  12  27  43  68 101 141 187 241 303 357 421
#     4  12  25  44  68 101 141 189 245 299 364 435
#     4  12  26  49  76 108 150 189 241 299 364 439
#     4  11  26  48  74 106 147 188 232 293 358 432
#     4  11  24  45  71 101 144 192 243 300 364 434
#     4  10  25  43  72 107 140 190 244 295 358 429
#
# _framework density 22.089561
#
# number of rings (size 3 to 8) (size 9 to 14) (size 15 to 20)
#    0.000    0.500    3.000    4.500    7.000    2.200 
#    0.000    1.000    0.000    0.000    0.000    0.000 
#    0.000    0.000    0.000    0.000    0.000    0.000 
#
# Total GULP energy -991945.450118 kJ/mol
# GULP energy per Si atom -12399.318126 kJ/mol
# Density = 2.203928 g / cm^3
# Si number density = 22.089561 Si / 1000 Ang^3
#
#
#
# Elastic Constant Matrix: (Units=GPa)
#
#
# Indices 1 2 3 4 5 6 
#
# 1 118.6497 25.8173 45.1200 0.0000 0.0000 0.0000
# 2 25.8173 118.6497 45.1201 0.0000 0.0000 0.0000
# 3 45.1200 45.1201 171.0548 0.0000 0.0000 0.0000
# 4 0.0000 0.0000 0.0000 10.5416 0.0000 0.0000
# 5 0.0000 0.0000 0.0000 0.0000 10.5416 0.0000
# 6 0.0000 0.0000 0.0000 0.0000 0.0000 37.9066
#
#
#
# Elastic Compliance Matrix: (Units=1/GPa)
#
#
# Indices 1 2 3 4 5 6 
#
# 1 0.009530 -0.001242 -0.002186 0.000000 0.000000 0.000000
# 2 -0.001242 0.009530 -0.002186 0.000000 0.000000 0.000000
# 3 -0.002186 -0.002186 0.006999 0.000000 0.000000 0.000000
# 4 0.000000 0.000000 0.000000 0.094862 0.000000 0.000000
# 5 0.000000 0.000000 0.000000 0.000000 0.094862 0.000000
# 6 0.000000 0.000000 0.000000 0.000000 0.000000 0.026381
#
#
# Mechanical properties :
#
#
# Convention : Reuss Voigt Hill
#
# Bulk Modulus (GPa) = 67.43019 71.16323 69.29671
# Shear Modulus (GPa) = 19.35464 31.28441 25.31953
#
# Velocity S-wave (km/s) = 2.96326 3.76740 3.38926
# Velocity P-wave (km/s) = 6.50384 7.15612 6.83776
#
# Compressibility (1/GPa) = 0.01483015
#
# Stress axis : x y z
#
# Youngs Moduli (GPa) = 104.93404 104.93409 142.87093
#
# Poissons Ratio (x) = 0.13036 0.31232
# Poissons Ratio (y) = 0.13036 0.31232
# Poissons Ratio (z) = 0.22939 0.22939
#
# Static dielectric constant tensor:
#      x y z
#    x 4.641580 0.000000 0.000000 
#    y 0.000000 4.641490 0.000000 
#    z 0.000000 0.000000 4.111020 
# 
# 
# High freq. dielectric constant tensor:
#      x y z
#    x 1.877820 0.000000 0.000000 
#    y 0.000000 1.877820 0.000000 
#    z 0.000000 0.000000 1.884820 
# 
# From -- ./inp_files/8540.got.cif
#   From: 2010.03.12/outbox.cif.g09.slc.cpg/sg139_5_cif.got.tgz:8540.got - 2010.04.08 09:46:31.
