data_PCOD8319037
_publ_section_title
;
Structure prediction by ZEFSAII (Michael W. Deem and Ramdas Pophale) SiO2 
 PCOD8319037
Probable space group: P 42/N C M
;
_chemical_formula_sum "Si O2"
_cell_formula_units_Z 72
_cell_length_a 16.655281
_cell_length_b 16.655281
_cell_length_c 12.804378
_cell_angle_alpha 90.000000
_cell_angle_beta 90.000000
_cell_angle_gamma 90.000000
_cell_volume 3551.913781
_symmetry_space_group_name_H-M "P 42/N C M"
_symmetry_group_IT_number 138
_space_group.IT_coordinate_system_code '2'
_symmetry_cell_setting 'tetragonal'
loop_
_space_group_symop_operation_xyz
x,y,z
1/2-y,x,1/2+z
1/2-x,1/2-y,z
y,1/2-x,1/2+z
1/2+x,-y,1/2-z
-x,1/2+y,1/2-z
1/2+y,1/2+x,-z
-y,-x,-z
-x,-y,-z
1/2+y,-x,1/2-z
1/2+x,1/2+y,-z
-y,1/2+x,1/2-z
1/2-x,y,1/2+z
x,1/2-y,1/2+z
1/2-y,1/2-x,z
y,x,z
loop_
_atom_site_type_symbol
_atom_site_label
_atom_site_fract_x
_atom_site_fract_y
_atom_site_fract_z
Si Si1 0.397926 0.931894 0.889466
Si Si2 0.232823 0.034782 0.297240
Si Si3 0.113942 0.386059 0.643168
Si Si4 0.990428 0.990428 0.215962
Si Si5 0.284016 0.865143 0.219976
Si Si6 0.625059 0.874942 0.599989
O O1 0.360260 0.841664 0.882612
O O2 0.335015 0.004956 0.879000
O O3 0.458329 0.933694 0.792014
O O4 0.442234 0.942234 0.000000
O O5 0.193922 0.080768 0.199122
O O6 0.289164 0.098750 0.354556
O O7 0.280857 0.956069 0.260659
O O8 0.133758 0.366243 0.523906
O O9 0.046150 0.453851 0.645318
O O10 0.940295 0.940295 0.132980
O O11 0.329622 0.805082 0.303483
#
# Coordination Sequence:
#
# PCOD8319037 Si02
#       6
#    16  16   8   8  16   8
#     4  10  20  36  62  91 127 168 211 258 316 370
#     4  10  23  41  60  91 127 158 211 266 302 378
#     4  10  25  44  62  90 129 159 208 259 314 373
#     4  10  20  40  60  92 128 162 208 261 300 377
#     4   9  18  36  58  83 127 163 197 256 312 367
#     4  12  23  40  70  92 121 175 205 253 330 368
#
# _framework density 20.270762000000001
#
# number of rings (size 3 to 8) (size 9 to 14) (size 15 to 20)
#    0.000    2.000    2.222    0.667    3.111    0.444 
#    0.000   11.111    0.000    0.000    0.000    0.000 
#    0.000    0.000    0.000    0.000    0.000    0.000 
#
# Total GULP energy -892139.076933 kJ/mol
# GULP energy per Si atom -12390.820513 kJ/mol
# Density = 2.022462 g / cm^3
# Si number density = 20.270762 Si / 1000 Ang^3
#
#
#
# Elastic Constant Matrix: (Units=GPa)
#
#
# Indices 1 2 3 4 5 6 
#
# 1 109.1012 57.8988 59.3394 0.0000 0.0000 0.0000
# 2 57.8988 109.1012 59.3394 0.0000 0.0000 0.0000
# 3 59.3394 59.3394 124.3133 0.0000 0.0000 0.0000
# 4 0.0000 0.0000 0.0000 -13.6541 0.0000 0.0000
# 5 0.0000 0.0000 0.0000 0.0000 -13.6541 0.0000
# 6 0.0000 0.0000 0.0000 0.0000 0.0000 32.5435
#
#
#
# Elastic Compliance Matrix: (Units=1/GPa)
#
#
# Indices 1 2 3 4 5 6 
#
# 1 0.014296 -0.005234 -0.004326 0.000000 0.000000 0.000000
# 2 -0.005234 0.014296 -0.004326 0.000000 0.000000 0.000000
# 3 -0.004326 -0.004326 0.012174 0.000000 0.000000 0.000000
# 4 0.000000 0.000000 0.000000 -0.073238 0.000000 0.000000
# 5 0.000000 0.000000 0.000000 0.000000 -0.073238 0.000000
# 6 0.000000 0.000000 0.000000 0.000000 0.000000 0.030728
#
#
# Mechanical properties :
#
#
# Convention : Reuss Voigt Hill
#
# Bulk Modulus (GPa) = 76.95108 77.29676 77.12392
# Shear Modulus (GPa) = -116.60783 12.10958 -52.24912
#
# Velocity S-wave (km/s) = -7.59276 2.44681 -5.08248
# Velocity P-wave (km/s) = 6.23078 6.79687 1.92026
#
# Compressibility (1/GPa) = 0.01299527
#
# Stress axis : x y z
#
# Youngs Moduli (GPa) = 69.94859 69.94859 82.14362
#
# Poissons Ratio (x) = 0.36612 0.35533
# Poissons Ratio (y) = 0.36612 0.35533
# Poissons Ratio (z) = 0.30257 0.30257
#
# Static dielectric constant tensor:
#      x y z
#    x 3.852630 0.000000 0.000000 
#    y 0.000000 3.852630 0.000000 
#    z 0.000000 0.000000 3.268070 
# 
# 
# High freq. dielectric constant tensor:
#      x y z
#    x 1.802850 0.000000 0.000000 
#    y 0.000000 1.802850 0.000000 
#    z 0.000000 0.000000 1.753830 
# 
# From -- ./inp_files/2892.got.cif
#   From: 2010.03.12/outbox.cif.g09.slc.cpg/sg138_2_cif.got.tgz:2892.got - 2010.04.08 09:41:05.
