data_PCOD8319069
_publ_section_title
;
Structure prediction by ZEFSAII (Michael W. Deem and Ramdas Pophale) SiO2 
 PCOD8319069
Probable space group: P 42/N C M
;
_chemical_formula_sum "Si O2"
_cell_formula_units_Z 92
_cell_length_a 26.841600
_cell_length_b 26.841600
_cell_length_c 9.604300
_cell_angle_alpha 90.000000
_cell_angle_beta 90.000000
_cell_angle_gamma 90.000000
_cell_volume 6919.624337
_symmetry_space_group_name_H-M "P 42/N C M"
_symmetry_group_IT_number 138
_space_group.IT_coordinate_system_code '2'
_symmetry_cell_setting 'tetragonal'
loop_
_space_group_symop_operation_xyz
x,y,z
1/2-y,x,1/2+z
1/2-x,1/2-y,z
y,1/2-x,1/2+z
1/2+x,-y,1/2-z
-x,1/2+y,1/2-z
1/2+y,1/2+x,-z
-y,-x,-z
-x,-y,-z
1/2+y,-x,1/2-z
1/2+x,1/2+y,-z
-y,1/2+x,1/2-z
1/2-x,y,1/2+z
x,1/2-y,1/2+z
1/2-y,1/2-x,z
y,x,z
loop_
_atom_site_type_symbol
_atom_site_label
_atom_site_fract_x
_atom_site_fract_y
_atom_site_fract_z
Si Si1 0.280327 0.414414 0.484274
Si Si2 0.943798 0.862997 0.709314
Si Si3 0.302756 0.302756 0.443968
Si Si4 0.359693 0.441249 0.691685
Si Si5 0.838054 0.918609 0.007731
Si Si6 0.750000 0.750000 0.805692
Si Si7 0.502281 0.420611 0.498213
O O1 0.308719 0.446183 0.364534
O O2 0.290515 0.359504 0.436750
O O3 0.304591 0.428151 0.633552
O O4 0.221314 0.420022 0.492440
O O5 0.892274 0.892274 0.671657
O O6 0.949330 0.857404 0.874873
O O7 0.990105 0.895553 0.651424
O O8 0.282921 0.282921 0.591205
O O9 0.282748 0.282748 0.297408
O O10 0.395332 0.395332 0.648597
O O11 0.380357 0.492035 0.621432
O O12 0.357212 0.448319 0.857238
O O13 0.862221 0.862221 0.007613
O O14 0.559548 0.440453 0.500000
O O15 0.467200 0.467200 0.529693
#
# Coordination Sequence:
#
# PCOD8319069 Si02
#       7
#    16  16   8  16  16   4  16
#     4  11  19  29  42  50  69 101 133 160 199 233
#     4   9  17  30  40  56  74  91 121 158 195 238
#     4  11  24  34  40  48  67  94 132 176 213 234
#     4   9  17  30  40  56  74  91 121 158 195 238
#     4  10  21  27  39  54  74 100 127 162 198 230
#     4  10  28  34  36  50  68  86 136 190 208 234
#     4   8  14  27  47  60  70  88 109 139 189 251
#
# _framework density 13.295519000000001
#
# number of rings (size 3 to 8) (size 9 to 14) (size 15 to 20)
#    0.000    2.435    1.739    2.087    7.304    0.000 
#    0.000    0.870    0.000    5.217    0.000    0.000 
#    0.000    0.000    0.000    0.000    0.000    0.000 
#
# Total GULP energy -1139731.746805 kJ/mol
# GULP energy per Si atom -12388.388552 kJ/mol
# Density = 1.326526 g / cm^3
# Si number density = 13.295519 Si / 1000 Ang^3
#
#
#
# Elastic Constant Matrix: (Units=GPa)
#
#
# Indices 1 2 3 4 5 6 
#
# 1 48.4076 36.6368 26.4766 0.0000 0.0000 0.0000
# 2 36.6368 48.4092 26.4770 0.0000 0.0000 0.0000
# 3 26.4766 26.4770 108.3449 0.0000 0.0000 0.0000
# 4 0.0000 0.0000 0.0000 8.9038 0.0000 0.0000
# 5 0.0000 0.0000 0.0000 0.0000 8.9014 0.0000
# 6 0.0000 0.0000 0.0000 0.0000 0.0000 20.3141
#
#
#
# Elastic Compliance Matrix: (Units=1/GPa)
#
#
# Indices 1 2 3 4 5 6 
#
# 1 0.049410 -0.035541 -0.003389 0.000000 0.000000 0.000000
# 2 -0.035541 0.049409 -0.003389 0.000000 0.000000 0.000000
# 3 -0.003389 -0.003389 0.010886 0.000000 0.000000 0.000000
# 4 0.000000 0.000000 0.000000 0.112312 0.000000 0.000000
# 5 0.000000 0.000000 0.000000 0.000000 0.112342 0.000000
# 6 0.000000 0.000000 0.000000 0.000000 0.000000 0.049227
#
#
# Mechanical properties :
#
#
# Convention : Reuss Voigt Hill
#
# Bulk Modulus (GPa) = 39.89305 42.70471 41.29888
# Shear Modulus (GPa) = 10.49143 15.32860 12.91001
#
# Velocity S-wave (km/s) = 2.81213 3.39914 3.11948
# Velocity P-wave (km/s) = 6.37292 6.89891 6.64112
#
# Compressibility (1/GPa) = 0.02506702
#
# Stress axis : x y z
#
# Youngs Moduli (GPa) = 20.23878 20.23941 91.85901
#
# Poissons Ratio (x) = 0.71932 0.31133
# Poissons Ratio (y) = 0.71930 0.31132
# Poissons Ratio (z) = 0.06859 0.06859
#
# Static dielectric constant tensor:
#      x y z
#    x 2.528980 0.000000 0.000000 
#    y 0.000000 2.528980 0.000000 
#    z 0.000000 0.000000 2.831920 
# 
# 
# High freq. dielectric constant tensor:
#      x y z
#    x 1.467350 0.000000 0.000000 
#    y 0.000000 1.467350 0.000000 
#    z 0.000000 0.000000 1.524820 
# 
# From -- ./inp_files/1862.got.cif
#   From: 2010.03.12/outbox.cif.g09.slc.cpg/sg138_1_cif.got.tgz:1862.got - 2010.04.08 09:41:05.
