data_PCOD8319359
_publ_section_title
;
Structure prediction by ZEFSAII (Michael W. Deem and Ramdas Pophale) SiO2 
 PCOD8319359
Probable space group: I 4/M M M
;
_chemical_formula_sum "Si O2"
_cell_formula_units_Z 192
_cell_length_a 22.815220
_cell_length_b 22.815220
_cell_length_c 20.592675
_cell_angle_alpha 90.000000
_cell_angle_beta 90.000000
_cell_angle_gamma 90.000000
_cell_volume 10719.192918
_symmetry_space_group_name_H-M "I 4/M M M"
_symmetry_group_IT_number 139
_symmetry_cell_setting 'tetragonal'
loop_
_space_group_symop_operation_xyz
x,y,z
-y,x,z
-x,-y,z
y,-x,z
x,-y,-z
-x,y,-z
y,x,-z
-y,-x,-z
-x,-y,-z
y,-x,-z
x,y,-z
-y,x,-z
-x,y,z
x,-y,z
-y,-x,z
y,x,z
1/2+x,1/2+y,1/2+z
1/2-y,1/2+x,1/2+z
1/2-x,1/2-y,1/2+z
1/2+y,1/2-x,1/2+z
1/2+x,1/2-y,1/2-z
1/2-x,1/2+y,1/2-z
1/2+y,1/2+x,1/2-z
1/2-y,1/2-x,1/2-z
1/2-x,1/2-y,1/2-z
1/2+y,1/2-x,1/2-z
1/2+x,1/2+y,1/2-z
1/2-y,1/2+x,1/2-z
1/2-x,1/2+y,1/2+z
1/2+x,1/2-y,1/2+z
1/2-y,1/2-x,1/2+z
1/2+y,1/2+x,1/2+z
loop_
_atom_site_type_symbol
_atom_site_label
_atom_site_fract_x
_atom_site_fract_y
_atom_site_fract_z
Si Si1 0.210520 0.884157 0.367077
Si Si2 0.433146 0.341679 0.259101
Si Si3 0.854637 0.566384 0.330041
Si Si4 0.069031 0.163670 0.500000
Si Si5 0.432514 0.827687 0.818919
Si Si6 0.733652 0.569292 0.624475
Si Si7 0.336513 0.430310 0.500000
O O1 0.182064 0.817937 0.363488
O O2 0.179150 0.925072 0.314438
O O3 0.200826 0.911579 0.437618
O O4 0.279717 0.888178 0.350364
O O5 0.500000 0.351716 0.274818
O O6 0.404114 0.404114 0.270232
O O7 0.404959 0.295590 0.309960
O O8 0.876336 0.500000 0.343034
O O9 0.825725 0.570935 0.258686
O O10 0.910062 0.608395 0.341660
O O11 0.802453 0.586166 0.378558
O O12 0.100327 0.100327 0.500000
O O13 0.000000 0.152590 0.500000
O O14 0.500000 0.818278 0.842055
O O15 0.729110 0.500000 0.627088
O O16 0.700150 0.592876 0.561540
O O17 0.346186 0.500000 0.500000
O O18 0.400186 0.400186 0.500000
#
# Coordination Sequence:
#
# PCOD8319359 Si02
#       7
#    32  32  32  16  32  32  16
#     4  10  20  34  51  74 102 137 177 213 252 305
#     4  10  18  29  47  68  94 129 168 212 260 307
#     4   9  18  32  53  80 107 136 172 215 261 316
#     4  10  20  33  51  73 100 134 174 218 262 311
#     4  10  18  32  55  80 108 140 172 211 263 316
#     4   9  17  32  50  69  97 132 169 205 253 314
#     4  10  20  33  51  75 102 138 182 226 275 324
#
# _framework density 17.911797
#
# number of rings (size 3 to 8) (size 9 to 14) (size 15 to 20)
#    0.000    2.333    1.667    2.000    0.000    0.667 
#    0.000    5.833    0.000    7.000    0.000    0.000 
#    0.000    5.333    0.000    0.000    0.000    0.000 
#
# Total GULP energy -1189763.843347 kJ/mol
# GULP energy per Si atom -12393.373368 kJ/mol
# Density = 1.787103 g / cm^3
# Si number density = 17.911797 Si / 1000 Ang^3
#
#
#
# Elastic Constant Matrix: (Units=GPa)
#
#
# Indices 1 2 3 4 5 6 
#
# 1 99.6656 56.6254 27.1696 0.0000 0.0000 0.0000
# 2 56.6254 99.6656 27.1696 0.0000 0.0000 0.0000
# 3 27.1696 27.1696 76.8713 0.0000 0.0000 0.0000
# 4 0.0000 0.0000 0.0000 17.3840 0.0000 0.0000
# 5 0.0000 0.0000 0.0000 0.0000 17.3840 0.0000
# 6 0.0000 0.0000 0.0000 0.0000 0.0000 25.7630
#
#
#
# Elastic Compliance Matrix: (Units=1/GPa)
#
#
# Indices 1 2 3 4 5 6 
#
# 1 0.015264 -0.007970 -0.002578 0.000000 0.000000 0.000000
# 2 -0.007970 0.015264 -0.002578 0.000000 0.000000 0.000000
# 3 -0.002578 -0.002578 0.014831 0.000000 0.000000 0.000000
# 4 0.000000 0.000000 0.000000 0.057524 0.000000 0.000000
# 5 0.000000 0.000000 0.000000 0.000000 0.057524 0.000000
# 6 0.000000 0.000000 0.000000 0.000000 0.000000 0.038815
#
#
# Mechanical properties :
#
#
# Convention : Reuss Voigt Hill
#
# Bulk Modulus (GPa) = 52.33496 55.34797 53.84146
# Shear Modulus (GPa) = 21.56609 23.12207 22.34408
#
# Velocity S-wave (km/s) = 3.47366 3.59679 3.53576
# Velocity P-wave (km/s) = 6.73572 6.94381 6.84056
#
# Compressibility (1/GPa) = 0.01910769
#
# Stress axis : x y z
#
# Youngs Moduli (GPa) = 65.51185 65.51185 67.42496
#
# Poissons Ratio (x) = 0.52211 0.17384
# Poissons Ratio (y) = 0.52211 0.17384
# Poissons Ratio (z) = 0.16891 0.16891
#
# Static dielectric constant tensor:
#      x y z
#    x 3.268160 0.000000 0.000000 
#    y 0.000000 3.268160 0.000000 
#    z 0.000000 0.000000 3.438180 
# 
# 
# High freq. dielectric constant tensor:
#      x y z
#    x 1.681300 0.000000 0.000000 
#    y 0.000000 1.681300 0.000000 
#    z 0.000000 0.000000 1.685400 
# 
# From -- ./inp_files/10627.got.cif
#   From: 2010.03.12/outbox.cif.g09.slc.cpg/sg139_6_cif.got.tgz:10627.got - 2010.04.08 09:46:31.
