data_PCOD8319318
_publ_section_title
;
Structure prediction by ZEFSAII (Michael W. Deem and Ramdas Pophale) SiO2 
 PCOD8319318
Probable space group: I 4/M M M
;
_chemical_formula_sum "Si O2"
_cell_formula_units_Z 192
_cell_length_a 31.269521
_cell_length_b 31.269521
_cell_length_c 14.788787
_cell_angle_alpha 90.000000
_cell_angle_beta 90.000000
_cell_angle_gamma 90.000000
_cell_volume 14460.223685
_symmetry_space_group_name_H-M "I 4/M M M"
_symmetry_group_IT_number 139
_symmetry_cell_setting 'tetragonal'
loop_
_space_group_symop_operation_xyz
x,y,z
-y,x,z
-x,-y,z
y,-x,z
x,-y,-z
-x,y,-z
y,x,-z
-y,-x,-z
-x,-y,-z
y,-x,-z
x,y,-z
-y,x,-z
-x,y,z
x,-y,z
-y,-x,z
y,x,z
1/2+x,1/2+y,1/2+z
1/2-y,1/2+x,1/2+z
1/2-x,1/2-y,1/2+z
1/2+y,1/2-x,1/2+z
1/2+x,1/2-y,1/2-z
1/2-x,1/2+y,1/2-z
1/2+y,1/2+x,1/2-z
1/2-y,1/2-x,1/2-z
1/2-x,1/2-y,1/2-z
1/2+y,1/2-x,1/2-z
1/2+x,1/2+y,1/2-z
1/2-y,1/2+x,1/2-z
1/2-x,1/2+y,1/2+z
1/2+x,1/2-y,1/2+z
1/2-y,1/2-x,1/2+z
1/2+y,1/2+x,1/2+z
loop_
_atom_site_type_symbol
_atom_site_label
_atom_site_fract_x
_atom_site_fract_y
_atom_site_fract_z
Si Si1 0.760188 0.309307 0.000000
Si Si2 0.049688 0.311327 0.668660
Si Si3 0.301416 0.762885 0.663516
Si Si4 0.122753 0.685512 0.193222
Si Si5 0.118851 0.644780 0.000000
Si Si6 0.599677 0.790175 0.000000
Si Si7 0.546506 0.091495 0.826461
Si Si8 0.425523 0.049093 0.000000
O O1 0.788227 0.295948 0.085573
O O2 0.755942 0.361113 0.000000
O O3 0.713354 0.286646 0.000000
O O4 0.077338 0.304831 0.759676
O O5 0.069935 0.283044 0.588132
O O6 0.053668 0.360660 0.637706
O O7 0.000000 0.298452 0.685586
O O8 0.286007 0.713994 0.637968
O O9 0.274828 0.774828 0.750000
O O10 0.351638 0.769161 0.684834
O O11 0.151047 0.651047 0.250000
O O12 0.114493 0.671632 0.091188
O O13 0.162548 0.618851 0.000000
O O14 0.077030 0.616406 0.000000
O O15 0.500000 0.087032 0.780112
O O16 0.581714 0.081714 0.750000
O O17 0.547433 0.059379 0.910484
O O18 0.412165 0.000000 0.000000
#
# Coordination Sequence:
#
# PCOD8319318 Si02
#       8
#    16  32  32  32  16  16  32  16
#     4  10  18  27  44  71  90 104 125 152 192 253
#     4  11  22  33  47  61  75 100 138 171 199 244
#     4   9  16  25  39  62  85 104 124 147 185 244
#     4  11  18  30  46  61  80 104 127 160 207 247
#     4  12  20  30  47  61  73 103 129 148 203 262
#     4  12  17  33  50  61  83 104 127 161 202 247
#     4  11  22  34  44  54  66  83 113 155 200 249
#     4  12  23  33  43  54  68  85 114 155 191 240
#
# _framework density 13.277803
#
# number of rings (size 3 to 8) (size 9 to 14) (size 15 to 20)
#    0.000    1.167    5.000    3.500    0.000    4.833 
#    0.000    0.000    0.000    0.000    0.000    0.000 
#    0.000    0.000    0.000    0.000    0.000    0.000 
#
# Total GULP energy -1189599.427872 kJ/mol
# GULP energy per Si atom -12391.660707 kJ/mol
# Density = 1.324758 g / cm^3
# Si number density = 13.277803 Si / 1000 Ang^3
#
#
#
# Elastic Constant Matrix: (Units=GPa)
#
#
# Indices 1 2 3 4 5 6 
#
# 1 61.8174 46.0069 20.1011 0.0000 0.0000 0.0000
# 2 46.0069 61.8177 20.1014 0.0000 0.0000 0.0000
# 3 20.1011 20.1014 90.9547 0.0000 0.0000 0.0000
# 4 0.0000 0.0000 0.0000 3.5183 0.0000 0.0000
# 5 0.0000 0.0000 0.0000 0.0000 3.5173 0.0000
# 6 0.0000 0.0000 0.0000 0.0000 0.0000 19.5249
#
#
#
# Elastic Compliance Matrix: (Units=1/GPa)
#
#
# Indices 1 2 3 4 5 6 
#
# 1 0.036678 -0.026571 -0.002234 0.000000 0.000000 0.000000
# 2 -0.026571 0.036678 -0.002234 0.000000 0.000000 0.000000
# 3 -0.002234 -0.002234 0.011982 0.000000 0.000000 0.000000
# 4 0.000000 0.000000 0.000000 0.284229 0.000000 0.000000
# 5 0.000000 0.000000 0.000000 0.000000 0.284312 0.000000
# 6 0.000000 0.000000 0.000000 0.000000 0.000000 0.051217
#
#
# Mechanical properties :
#
#
# Convention : Reuss Voigt Hill
#
# Bulk Modulus (GPa) = 42.98989 43.00097 42.99543
# Shear Modulus (GPa) = 6.45224 13.87079 10.16152
#
# Velocity S-wave (km/s) = 2.20680 3.23563 2.76941
# Velocity P-wave (km/s) = 6.24026 6.81285 6.53283
#
# Compressibility (1/GPa) = 0.02326128
#
# Stress axis : x y z
#
# Youngs Moduli (GPa) = 27.26437 27.26446 83.45995
#
# Poissons Ratio (x) = 0.72444 0.18642
# Poissons Ratio (y) = 0.72443 0.18643
# Poissons Ratio (z) = 0.06090 0.06090
#
# Static dielectric constant tensor:
#      x y z
#    x 2.617160 0.000000 0.000000 
#    y 0.000000 2.617160 0.000000 
#    z 0.000000 0.000000 2.942950 
# 
# 
# High freq. dielectric constant tensor:
#      x y z
#    x 1.471810 0.000000 0.000000 
#    y 0.000000 1.471810 0.000000 
#    z 0.000000 0.000000 1.528990 
# 
# From -- ./inp_files/6739.got.cif
#   From: 2010.03.12/outbox.cif.g09.slc.cpg/sg139_4_cif.got.tgz:6739.got - 2010.04.08 09:46:31.
