data_PCOD8319453
_publ_section_title
;
Structure prediction by ZEFSAII (Michael W. Deem and Ramdas Pophale) SiO2 
 PCOD8319453
Probable space group: I 4/M M M
;
_chemical_formula_sum "Si O2"
_cell_formula_units_Z 128
_cell_length_a 33.696244
_cell_length_b 33.696244
_cell_length_c 7.792902
_cell_angle_alpha 90.000000
_cell_angle_beta 90.000000
_cell_angle_gamma 90.000000
_cell_volume 8848.348175
_symmetry_space_group_name_H-M "I 4/M M M"
_symmetry_group_IT_number 139
_symmetry_cell_setting 'tetragonal'
loop_
_space_group_symop_operation_xyz
x,y,z
-y,x,z
-x,-y,z
y,-x,z
x,-y,-z
-x,y,-z
y,x,-z
-y,-x,-z
-x,-y,-z
y,-x,-z
x,y,-z
-y,x,-z
-x,y,z
x,-y,z
-y,-x,z
y,x,z
1/2+x,1/2+y,1/2+z
1/2-y,1/2+x,1/2+z
1/2-x,1/2-y,1/2+z
1/2+y,1/2-x,1/2+z
1/2+x,1/2-y,1/2-z
1/2-x,1/2+y,1/2-z
1/2+y,1/2+x,1/2-z
1/2-y,1/2-x,1/2-z
1/2-x,1/2-y,1/2-z
1/2+y,1/2-x,1/2-z
1/2+x,1/2+y,1/2-z
1/2-y,1/2+x,1/2-z
1/2-x,1/2+y,1/2+z
1/2+x,1/2-y,1/2+z
1/2-y,1/2-x,1/2+z
1/2+y,1/2+x,1/2+z
loop_
_atom_site_type_symbol
_atom_site_label
_atom_site_fract_x
_atom_site_fract_y
_atom_site_fract_z
Si Si1 0.608215 0.955335 0.200751
Si Si2 0.545776 0.610296 0.194132
Si Si3 0.046958 0.165823 0.000000
Si Si4 0.452502 0.754630 0.500000
Si Si5 0.952997 0.692849 0.310533
O O1 0.570608 0.929393 0.250000
O O2 0.648017 0.937095 0.285413
O O3 0.599927 0.000000 0.267732
O O4 0.615569 0.955481 0.000000
O O5 0.500000 0.599731 0.229939
O O6 0.569967 0.569967 0.222964
O O7 0.561340 0.643331 0.327833
O O8 0.551602 0.626663 0.000000
O O9 0.065044 0.210081 0.000000
O O10 0.000000 0.168896 0.000000
O O11 0.500000 0.753996 0.500000
O O12 0.435695 0.776988 0.331196
O O13 0.940639 0.708045 0.500000
O O14 0.000000 0.691259 0.288326
#
# Coordination Sequence:
#
# PCOD8319453 Si02
#       5
#    32  32  16  16  32
#     4  10  19  30  42  56  77 102 133 173 209 245
#     4   9  17  28  41  58  82 113 149 184 214 243
#     4   9  17  27  40  57  79 103 134 177 219 252
#     4   9  16  27  41  58  76  97 127 166 209 252
#     4   9  16  27  42  57  74  96 124 161 203 245
#
# _framework density 14.465977000000001
#
# number of rings (size 3 to 8) (size 9 to 14) (size 15 to 20)
#    0.000    2.750    1.250    1.125    0.000    3.000 
#    0.000    7.500    0.000    2.250    0.000    0.000 
#    0.000    0.000    0.000    0.000    0.000    5.000 
#
# Total GULP energy -793341.176426 kJ/mol
# GULP energy per Si atom -12395.955882 kJ/mol
# Density = 1.443305 g / cm^3
# Si number density = 14.465977 Si / 1000 Ang^3
#
#
#
# Elastic Constant Matrix: (Units=GPa)
#
#
# Indices 1 2 3 4 5 6 
#
# 1 67.3945 32.8299 42.6261 0.0000 0.0000 0.0000
# 2 32.8299 67.3898 42.6279 0.0000 0.0000 0.0000
# 3 42.6261 42.6279 116.5110 0.0000 0.0000 0.0000
# 4 0.0000 0.0000 0.0000 17.1161 0.0000 0.0000
# 5 0.0000 0.0000 0.0000 0.0000 17.1159 0.0000
# 6 0.0000 0.0000 0.0000 0.0000 0.0000 1.0986
#
#
#
# Elastic Compliance Matrix: (Units=1/GPa)
#
#
# Indices 1 2 3 4 5 6 
#
# 1 0.021709 -0.007224 -0.005299 0.000000 0.000000 0.000000
# 2 -0.007224 0.021711 -0.005301 0.000000 0.000000 0.000000
# 3 -0.005299 -0.005301 0.012461 0.000000 0.000000 0.000000
# 4 0.000000 0.000000 0.000000 0.058424 0.000000 0.000000
# 5 0.000000 0.000000 0.000000 0.000000 0.058425 0.000000
# 6 0.000000 0.000000 0.000000 0.000000 0.000000 0.910210
#
#
# Mechanical properties :
#
#
# Convention : Reuss Voigt Hill
#
# Bulk Modulus (GPa) = 49.42267 54.16257 51.79262
# Shear Modulus (GPa) = 4.44313 15.94688 10.19501
#
# Velocity S-wave (km/s) = 1.75445 3.32380 2.65761
# Velocity P-wave (km/s) = 6.19218 7.22861 6.73038
#
# Compressibility (1/GPa) = 0.02023363
#
# Stress axis : x y z
#
# Youngs Moduli (GPa) = 46.06484 46.05948 80.25029
#
# Poissons Ratio (x) = 0.33271 0.42527
# Poissons Ratio (y) = 0.33275 0.42538
# Poissons Ratio (z) = 0.24411 0.24415
#
# Static dielectric constant tensor:
#      x y z
#    x 4.344910 0.000000 0.000000 
#    y 0.000000 4.351640 0.000000 
#    z 0.000000 0.000000 3.102180 
# 
# 
# High freq. dielectric constant tensor:
#      x y z
#    x 1.512570 0.000000 0.000000 
#    y 0.000000 1.512570 0.000000 
#    z 0.000000 0.000000 1.577360 
# 
# From -- ./inp_files/1795.got.cif
#   From: 2010.03.12/outbox.cif.g09.slc.cpg/sg139_1_cif.got.tgz:1795.got - 2010.04.08 09:46:31.
