data_PCOD8319959
_publ_section_title
;
Structure prediction by ZEFSAII (Michael W. Deem and Ramdas Pophale) SiO2 
 PCOD8319959
Probable space group: I 4/M M M
;
_chemical_formula_sum "Si O2"
_cell_formula_units_Z 224
_cell_length_a 24.674223
_cell_length_b 24.674223
_cell_length_c 20.254258
_cell_angle_alpha 90.000000
_cell_angle_beta 90.000000
_cell_angle_gamma 90.000000
_cell_volume 12331.142277
_symmetry_space_group_name_H-M "I 4/M M M"
_symmetry_group_IT_number 139
_symmetry_cell_setting 'tetragonal'
loop_
_space_group_symop_operation_xyz
x,y,z
-y,x,z
-x,-y,z
y,-x,z
x,-y,-z
-x,y,-z
y,x,-z
-y,-x,-z
-x,-y,-z
y,-x,-z
x,y,-z
-y,x,-z
-x,y,z
x,-y,z
-y,-x,z
y,x,z
1/2+x,1/2+y,1/2+z
1/2-y,1/2+x,1/2+z
1/2-x,1/2-y,1/2+z
1/2+y,1/2-x,1/2+z
1/2+x,1/2-y,1/2-z
1/2-x,1/2+y,1/2-z
1/2+y,1/2+x,1/2-z
1/2-y,1/2-x,1/2-z
1/2-x,1/2-y,1/2-z
1/2+y,1/2-x,1/2-z
1/2+x,1/2+y,1/2-z
1/2-y,1/2+x,1/2-z
1/2-x,1/2+y,1/2+z
1/2+x,1/2-y,1/2+z
1/2-y,1/2-x,1/2+z
1/2+y,1/2+x,1/2+z
loop_
_atom_site_type_symbol
_atom_site_label
_atom_site_fract_x
_atom_site_fract_y
_atom_site_fract_z
Si Si1 0.936058 0.370633 0.805691
Si Si2 0.357548 0.134586 0.576705
Si Si3 0.653267 0.258534 0.424510
Si Si4 0.939813 0.144004 0.600223
Si Si5 0.938486 0.248923 0.177669
Si Si6 0.440366 0.762950 0.076673
Si Si7 0.857678 0.058714 0.246175
O O1 0.907179 0.407179 0.750000
O O2 0.910316 0.378987 0.878809
O O3 0.925861 0.307220 0.789619
O O4 0.000000 0.385363 0.808061
O O5 0.372875 0.123093 0.500000
O O6 0.333515 0.195062 0.584350
O O7 0.309707 0.097334 0.606220
O O8 0.639017 0.272174 0.500000
O O9 0.704528 0.295473 0.401161
O O10 0.599687 0.269927 0.382173
O O11 0.900109 0.099892 0.566431
O O12 0.914974 0.203574 0.588089
O O13 0.943041 0.131723 0.676839
O O14 0.000000 0.139948 0.568197
O O15 0.928577 0.205545 0.235399
O O16 0.000000 0.248515 0.150377
O O17 0.500000 0.765978 0.110442
O O18 0.445546 0.774744 0.000000
O O19 0.896018 0.103983 0.212581
O O20 0.872424 0.000000 0.215107
#
# Coordination Sequence:
#
# PCOD8319959 Si02
#       7
#    32  32  32  32  32  32  32
#     4  10  22  37  55  79 105 134 167 208 259 311
#     4   9  19  35  55  78 104 136 173 209 251 306
#     4   9  17  30  49  73 102 132 162 204 254 298
#     4   9  18  30  45  67  94 127 166 207 249 290
#     4   9  18  32  50  71  96 131 169 204 245 297
#     4   9  18  32  50  71  93 121 159 201 242 286
#     4   9  17  29  46  68  95 128 165 205 247 290
#
# _framework density 18.165389999999999
#
# number of rings (size 3 to 8) (size 9 to 14) (size 15 to 20)
#    0.000    2.857    0.000    0.429    2.000    2.429 
#    0.000    5.714    0.000    2.143    0.000    5.000 
#    0.000    0.000    0.000   13.286    0.000    0.429 
#
# Total GULP energy -1387828.079850 kJ/mol
# GULP energy per Si atom -12391.322142 kJ/mol
# Density = 1.812404 g / cm^3
# Si number density = 18.165390 Si / 1000 Ang^3
#
#
#
# Elastic Constant Matrix: (Units=GPa)
#
#
# Indices 1 2 3 4 5 6 
#
# 1 116.1135 78.4238 38.9238 0.0000 0.0000 0.0000
# 2 78.4238 116.1135 38.9238 0.0000 0.0000 0.0000
# 3 38.9238 38.9238 54.9433 0.0000 0.0000 0.0000
# 4 0.0000 0.0000 0.0000 15.3107 0.0000 0.0000
# 5 0.0000 0.0000 0.0000 0.0000 15.3107 0.0000
# 6 0.0000 0.0000 0.0000 0.0000 0.0000 32.3857
#
#
#
# Elastic Compliance Matrix: (Units=1/GPa)
#
#
# Indices 1 2 3 4 5 6 
#
# 1 0.016853 -0.009679 -0.005082 0.000000 0.000000 0.000000
# 2 -0.009679 0.016853 -0.005082 0.000000 0.000000 0.000000
# 3 -0.005082 -0.005082 0.025402 0.000000 0.000000 0.000000
# 4 0.000000 0.000000 0.000000 0.065314 0.000000 0.000000
# 5 0.000000 0.000000 0.000000 0.000000 0.065314 0.000000
# 6 0.000000 0.000000 0.000000 0.000000 0.000000 0.030878
#
#
# Mechanical properties :
#
#
# Convention : Reuss Voigt Hill
#
# Bulk Modulus (GPa) = 51.49238 66.63478 59.06358
# Shear Modulus (GPa) = 18.74236 21.32802 20.03519
#
# Velocity S-wave (km/s) = 3.21559 3.43023 3.32464
# Velocity P-wave (km/s) = 6.49574 7.24228 6.87914
#
# Compressibility (1/GPa) = 0.01942035
#
# Stress axis : x y z
#
# Youngs Moduli (GPa) = 59.33529 59.33529 39.36724
#
# Poissons Ratio (x) = 0.57431 0.20008
# Poissons Ratio (y) = 0.57431 0.20008
# Poissons Ratio (z) = 0.30157 0.30157
#
# Static dielectric constant tensor:
#      x y z
#    x 3.598430 0.000000 0.000000 
#    y 0.000000 3.598430 0.000000 
#    z 0.000000 0.000000 3.148220 
# 
# 
# High freq. dielectric constant tensor:
#      x y z
#    x 1.704910 0.000000 0.000000 
#    y 0.000000 1.704910 0.000000 
#    z 0.000000 0.000000 1.684210 
# 
# From -- ./inp_files/12215.got.cif
#   From: 2010.03.12/outbox.cif.g09.slc.cpg/sg139_7_cif.got.tgz:12215.got - 2010.04.08 09:46:31.
