data_PCOD8319627
_publ_section_title
;
Structure prediction by ZEFSAII (Michael W. Deem and Ramdas Pophale) SiO2 
 PCOD8319627
Probable space group: I 4/M M M
;
_chemical_formula_sum "Si O2"
_cell_formula_units_Z 144
_cell_length_a 21.177921
_cell_length_b 21.177921
_cell_length_c 17.161945
_cell_angle_alpha 90.000000
_cell_angle_beta 90.000000
_cell_angle_gamma 90.000000
_cell_volume 7697.206779
_symmetry_space_group_name_H-M "I 4/M M M"
_symmetry_group_IT_number 139
_symmetry_cell_setting 'tetragonal'
loop_
_space_group_symop_operation_xyz
x,y,z
-y,x,z
-x,-y,z
y,-x,z
x,-y,-z
-x,y,-z
y,x,-z
-y,-x,-z
-x,-y,-z
y,-x,-z
x,y,-z
-y,x,-z
-x,y,z
x,-y,z
-y,-x,z
y,x,z
1/2+x,1/2+y,1/2+z
1/2-y,1/2+x,1/2+z
1/2-x,1/2-y,1/2+z
1/2+y,1/2-x,1/2+z
1/2+x,1/2-y,1/2-z
1/2-x,1/2+y,1/2-z
1/2+y,1/2+x,1/2-z
1/2-y,1/2-x,1/2-z
1/2-x,1/2-y,1/2-z
1/2+y,1/2-x,1/2-z
1/2+x,1/2+y,1/2-z
1/2-y,1/2+x,1/2-z
1/2-x,1/2+y,1/2+z
1/2+x,1/2-y,1/2+z
1/2-y,1/2-x,1/2+z
1/2+y,1/2+x,1/2+z
loop_
_atom_site_type_symbol
_atom_site_label
_atom_site_fract_x
_atom_site_fract_y
_atom_site_fract_z
Si Si1 0.746634 0.644260 0.860208
Si Si2 0.169984 0.571542 0.738271
Si Si3 0.924438 0.819586 0.500000
Si Si4 0.568393 0.337211 0.590528
Si Si5 0.627569 0.208879 0.412610
O O1 0.689835 0.689835 0.832367
O O2 0.774790 0.608267 0.785274
O O3 0.800898 0.687605 0.897719
O O4 0.721023 0.594388 0.923777
O O5 0.169291 0.500000 0.767015
O O6 0.101294 0.601294 0.750000
O O7 0.178868 0.576800 0.645735
O O8 0.886273 0.886273 0.500000
O O9 0.000000 0.832200 0.500000
O O10 0.556336 0.347527 0.500000
O O11 0.500000 0.323545 0.630965
O O12 0.599152 0.400849 0.626872
O O13 0.620519 0.283201 0.601817
O O14 0.607595 0.189598 0.500000
#
# Coordination Sequence:
#
# PCOD8319627 Si02
#       5
#    32  32  16  32  32
#     4  10  20  35  56  83 111 141 179 227 284 334
#     4  10  22  37  55  79 108 145 187 229 277 331
#     4  10  20  35  58  84 113 147 178 216 268 328
#     4   9  17  27  41  63  93 131 171 211 255 305
#     4  10  19  33  54  80 109 138 176 231 282 334
#
# _framework density 18.708085000000001
#
# number of rings (size 3 to 8) (size 9 to 14) (size 15 to 20)
#    0.000    2.222    1.111    2.000    0.000    7.667 
#    0.000    1.111    0.000    0.000    0.000    3.111 
#    0.000    5.333    0.000    0.222    0.000    0.000 
#
# Total GULP energy -892024.919762 kJ/mol
# GULP energy per Si atom -12389.234997 kJ/mol
# Density = 1.866550 g / cm^3
# Si number density = 18.708085 Si / 1000 Ang^3
#
#
#
# Elastic Constant Matrix: (Units=GPa)
#
#
# Indices 1 2 3 4 5 6 
#
# 1 126.8495 74.7290 42.7440 0.0000 0.0000 0.0000
# 2 74.7290 126.8495 42.7440 0.0000 0.0000 0.0000
# 3 42.7440 42.7440 97.1744 0.0000 0.0000 0.0000
# 4 0.0000 0.0000 0.0000 10.2154 0.0000 0.0000
# 5 0.0000 0.0000 0.0000 0.0000 10.2154 0.0000
# 6 0.0000 0.0000 0.0000 0.0000 0.0000 15.1562
#
#
#
# Elastic Compliance Matrix: (Units=1/GPa)
#
#
# Indices 1 2 3 4 5 6 
#
# 1 0.012642 -0.006544 -0.002683 0.000000 0.000000 0.000000
# 2 -0.006544 0.012642 -0.002683 0.000000 0.000000 0.000000
# 3 -0.002683 -0.002683 0.012651 0.000000 0.000000 0.000000
# 4 0.000000 0.000000 0.000000 0.097891 0.000000 0.000000
# 5 0.000000 0.000000 0.000000 0.000000 0.097891 0.000000
# 6 0.000000 0.000000 0.000000 0.000000 0.000000 0.065980
#
#
# Mechanical properties :
#
#
# Convention : Reuss Voigt Hill
#
# Bulk Modulus (GPa) = 70.83384 74.58969 72.71176
# Shear Modulus (GPa) = 15.23360 19.82783 17.53071
#
# Velocity S-wave (km/s) = 2.85665 3.25907 3.06447
# Velocity P-wave (km/s) = 6.98753 7.35656 7.17441
#
# Compressibility (1/GPa) = 0.01411755
#
# Stress axis : x y z
#
# Youngs Moduli (GPa) = 79.09891 79.09891 79.04698
#
# Poissons Ratio (x) = 0.51762 0.21205
# Poissons Ratio (y) = 0.51762 0.21205
# Poissons Ratio (z) = 0.21219 0.21219
#
# Static dielectric constant tensor:
#      x y z
#    x 3.523630 0.000000 0.000000 
#    y 0.000000 3.523630 0.000000 
#    z 0.000000 0.000000 3.491440 
# 
# 
# High freq. dielectric constant tensor:
#      x y z
#    x 1.722110 0.000000 0.000000 
#    y 0.000000 1.722110 0.000000 
#    z 0.000000 0.000000 1.713790 
# 
# From -- ./inp_files/8149.got.cif
#   From: 2010.03.12/outbox.cif.g09.slc.cpg/sg139_5_cif.got.tgz:8149.got - 2010.04.08 09:46:31.
