data_PCOD8319681
_publ_section_title
;
Structure prediction by ZEFSAII (Michael W. Deem and Ramdas Pophale) SiO2 
 PCOD8319681
Probable space group: I 4/M M M
;
_chemical_formula_sum "Si O2"
_cell_formula_units_Z 136
_cell_length_a 24.693442
_cell_length_b 24.693442
_cell_length_c 10.527080
_cell_angle_alpha 90.000000
_cell_angle_beta 90.000000
_cell_angle_gamma 90.000000
_cell_volume 6419.056282
_symmetry_space_group_name_H-M "I 4/M M M"
_symmetry_group_IT_number 139
_symmetry_cell_setting 'tetragonal'
loop_
_space_group_symop_operation_xyz
x,y,z
-y,x,z
-x,-y,z
y,-x,z
x,-y,-z
-x,y,-z
y,x,-z
-y,-x,-z
-x,-y,-z
y,-x,-z
x,y,-z
-y,x,-z
-x,y,z
x,-y,z
-y,-x,z
y,x,z
1/2+x,1/2+y,1/2+z
1/2-y,1/2+x,1/2+z
1/2-x,1/2-y,1/2+z
1/2+y,1/2-x,1/2+z
1/2+x,1/2-y,1/2-z
1/2-x,1/2+y,1/2-z
1/2+y,1/2+x,1/2-z
1/2-y,1/2-x,1/2-z
1/2-x,1/2-y,1/2-z
1/2+y,1/2-x,1/2-z
1/2+x,1/2+y,1/2-z
1/2-y,1/2+x,1/2-z
1/2-x,1/2+y,1/2+z
1/2+x,1/2-y,1/2+z
1/2-y,1/2-x,1/2+z
1/2+y,1/2+x,1/2+z
loop_
_atom_site_type_symbol
_atom_site_label
_atom_site_fract_x
_atom_site_fract_y
_atom_site_fract_z
Si Si1 0.000000 0.793419 0.762424
Si Si2 0.113613 0.386388 0.750000
Si Si3 0.230944 0.316100 0.500000
Si Si4 0.108305 0.259447 0.227954
Si Si5 0.935946 0.562208 0.000000
Si Si6 0.617967 0.229292 0.000000
Si Si7 0.500000 0.587590 0.352168
Si Si8 0.000000 0.737709 0.500000
O O1 0.946359 0.767706 0.826691
O O2 0.000000 0.778725 0.615976
O O3 0.000000 0.857848 0.772152
O O4 0.100365 0.322927 0.747989
O O5 0.089678 0.413090 0.625320
O O6 0.255462 0.255462 0.500000
O O7 0.252698 0.345344 0.373952
O O8 0.165371 0.316293 0.500000
O O9 0.124328 0.235759 0.369047
O O10 0.918437 0.500000 0.000000
O O11 0.000000 0.569367 0.000000
O O12 0.556268 0.202971 0.000000
O O13 0.446678 0.553323 0.317381
O O14 0.500000 0.602499 0.500000
#
# Coordination Sequence:
#
# PCOD8319681 Si02
#       8
#    16  16  16  32  16  16  16   8
#     4  10  23  40  67  99 129 169 223 273 326 401
#     4  12  22  43  65  88 130 180 214 278 344 388
#     4  12  25  42  64  93 133 177 222 276 334 394
#     4  11  24  41  62  95 129 170 223 273 328 398
#     4  11  26  42  62  94 125 165 225 281 334 395
#     4  10  19  44  63  87 126 166 218 269 318 399
#     4   9  20  42  70  98 130 167 206 258 334 410
#     4   8  20  40  66  91 126 165 212 270 318 386
#
# _framework density 21.186914000000002
#
# number of rings (size 3 to 8) (size 9 to 14) (size 15 to 20)
#    0.000    1.412    2.353    2.471    4.941    3.765 
#    2.118    4.118    0.000    0.706    0.000    0.000 
#    0.000    0.000    0.000    0.000    0.000    0.000 
#
# Total GULP energy -842750.973846 kJ/mol
# GULP energy per Si atom -12393.396674 kJ/mol
# Density = 2.113869 g / cm^3
# Si number density = 21.186914 Si / 1000 Ang^3
#
#
#
# Elastic Constant Matrix: (Units=GPa)
#
#
# Indices 1 2 3 4 5 6 
#
# 1 109.1388 66.9775 34.9730 0.0000 0.0000 0.0000
# 2 66.9775 109.1376 34.9728 0.0000 0.0000 0.0000
# 3 34.9730 34.9728 141.3878 0.0000 0.0000 0.0000
# 4 0.0000 0.0000 0.0000 28.1060 0.0000 0.0000
# 5 0.0000 0.0000 0.0000 0.0000 28.1066 0.0000
# 6 0.0000 0.0000 0.0000 0.0000 0.0000 26.3950
#
#
#
# Elastic Compliance Matrix: (Units=1/GPa)
#
#
# Indices 1 2 3 4 5 6 
#
# 1 0.015008 -0.008711 -0.001558 0.000000 0.000000 0.000000
# 2 -0.008711 0.015008 -0.001558 0.000000 0.000000 0.000000
# 3 -0.001558 -0.001558 0.007843 0.000000 0.000000 0.000000
# 4 0.000000 0.000000 0.000000 0.035580 0.000000 0.000000
# 5 0.000000 0.000000 0.000000 0.000000 0.035579 0.000000
# 6 0.000000 0.000000 0.000000 0.000000 0.000000 0.037886
#
#
# Mechanical properties :
#
#
# Convention : Reuss Voigt Hill
#
# Bulk Modulus (GPa) = 70.39004 70.39008 70.39006
# Shear Modulus (GPa) = 28.52405 31.37091 29.94748
#
# Velocity S-wave (km/s) = 3.67318 3.85213 3.76372
# Velocity P-wave (km/s) = 7.16137 7.28565 7.22378
#
# Compressibility (1/GPa) = 0.01420656
#
# Stress axis : x y z
#
# Youngs Moduli (GPa) = 66.63284 66.63212 127.49799
#
# Poissons Ratio (x) = 0.58043 0.19858
# Poissons Ratio (y) = 0.58044 0.19858
# Poissons Ratio (z) = 0.10378 0.10378
#
# Static dielectric constant tensor:
#      x y z
#    x 3.765980 0.000000 0.000000 
#    y 0.000000 3.766000 0.000000 
#    z 0.000000 0.000000 4.305540 
# 
# 
# High freq. dielectric constant tensor:
#      x y z
#    x 1.818800 0.000000 0.000000 
#    y 0.000000 1.818800 0.000000 
#    z 0.000000 0.000000 1.851330 
# 
# From -- ./inp_files/3624.got.cif
#   From: 2010.03.12/outbox.cif.g09.slc.cpg/sg139_2_cif.got.tgz:3624.got - 2010.04.08 09:46:31.
