data_PCOD8319166
_publ_section_title
;
Structure prediction by ZEFSAII (Michael W. Deem and Ramdas Pophale) SiO2 
 PCOD8319166
Probable space group: P 42/N C M
;
_chemical_formula_sum "Si O2"
_cell_formula_units_Z 96
_cell_length_a 14.873085
_cell_length_b 14.873085
_cell_length_c 22.209491
_cell_angle_alpha 90.000000
_cell_angle_beta 90.000000
_cell_angle_gamma 90.000000
_cell_volume 4912.931686
_symmetry_space_group_name_H-M "P 42/N C M"
_symmetry_group_IT_number 138
_space_group.IT_coordinate_system_code '2'
_symmetry_cell_setting 'tetragonal'
loop_
_space_group_symop_operation_xyz
x,y,z
1/2-y,x,1/2+z
1/2-x,1/2-y,z
y,1/2-x,1/2+z
1/2+x,-y,1/2-z
-x,1/2+y,1/2-z
1/2+y,1/2+x,-z
-y,-x,-z
-x,-y,-z
1/2+y,-x,1/2-z
1/2+x,1/2+y,-z
-y,1/2+x,1/2-z
1/2-x,y,1/2+z
x,1/2-y,1/2+z
1/2-y,1/2-x,z
y,x,z
loop_
_atom_site_type_symbol
_atom_site_label
_atom_site_fract_x
_atom_site_fract_y
_atom_site_fract_z
Si Si1 0.424459 0.075542 0.346943
Si Si2 0.924471 0.924471 0.846945
Si Si3 0.677107 0.177108 0.071160
Si Si4 0.750001 0.113128 0.250000
Si Si5 0.254228 0.991644 0.858953
Si Si6 0.075361 0.075361 0.704637
Si Si7 0.745778 0.008356 0.858954
Si Si8 0.924650 0.575350 0.204640
O O1 0.449271 0.169724 0.381479
O O2 0.407919 0.092082 0.275463
O O3 0.499994 0.000007 0.359448
O O4 0.830289 0.949283 0.881481
O O5 0.907930 0.907930 0.775466
O O6 0.750000 0.250000 0.094134
O O7 0.577346 0.206450 0.092119
O O8 0.706449 0.077346 0.092119
O O9 0.673611 0.173611 0.000000
O O10 0.672555 0.172554 0.218366
O O11 0.795255 0.059042 0.196415
O O12 0.704747 0.059042 0.303584
O O13 0.334064 0.047943 0.829340
O O14 0.165946 0.047953 0.670656
O O15 0.000005 0.000005 0.694660
#
# Coordination Sequence:
#
# PCOD8319166 Si02
#       8
#     8   8  16  16  16   8  16   8
#     4  11  22  35  56  91 131 162 197 258 328 390
#     4  11  22  35  56  91 131 162 197 258 328 390
#     4  11  24  43  65  89 121 164 221 278 313 356
#     4  11  18  28  54  85 114 148 194 255 314 367
#     4  12  22  37  57  89 125 162 206 253 317 382
#     4  11  20  35  57  90 128 163 202 257 314 385
#     4  12  22  37  57  89 125 162 206 253 317 382
#     4  11  20  35  57  90 128 163 202 257 314 385
#
# _framework density 19.540268000000001
#
# number of rings (size 3 to 8) (size 9 to 14) (size 15 to 20)
#    0.000    0.667    6.667    3.000    0.000    0.667 
#    0.000    4.167    0.000    3.000    0.000    2.333 
#    0.000    0.000    0.000    0.000    0.000    0.000 
#
# Total GULP energy -1189431.950837 kJ/mol
# GULP energy per Si atom -12389.916155 kJ/mol
# Density = 1.949579 g / cm^3
# Si number density = 19.540268 Si / 1000 Ang^3
#
#
#
# Elastic Constant Matrix: (Units=GPa)
#
#
# Indices 1 2 3 4 5 6 
#
# 1 130.4262 65.5769 24.6032 0.0000 0.0000 0.0000
# 2 65.5769 130.4262 24.6032 0.0000 0.0000 0.0000
# 3 24.6032 24.6032 49.5920 0.0000 0.0000 0.0000
# 4 0.0000 0.0000 0.0000 11.5065 0.0000 0.0000
# 5 0.0000 0.0000 0.0000 0.0000 11.5065 0.0000
# 6 0.0000 0.0000 0.0000 0.0000 0.0000 43.1211
#
#
#
# Elastic Compliance Matrix: (Units=1/GPa)
#
#
# Indices 1 2 3 4 5 6 
#
# 1 0.010624 -0.004796 -0.002891 0.000000 0.000000 0.000000
# 2 -0.004796 0.010624 -0.002891 0.000000 0.000000 0.000000
# 3 -0.002891 -0.002891 0.023033 0.000000 0.000000 0.000000
# 4 0.000000 0.000000 0.000000 0.086907 0.000000 0.000000
# 5 0.000000 0.000000 0.000000 0.000000 0.086907 0.000000
# 6 0.000000 0.000000 0.000000 0.000000 0.000000 0.023191
#
#
# Mechanical properties :
#
#
# Convention : Reuss Voigt Hill
#
# Bulk Modulus (GPa) = 43.24524 60.00122 51.62323
# Shear Modulus (GPa) = 18.50810 26.27090 22.38950
#
# Velocity S-wave (km/s) = 3.08096 3.67065 3.38866
# Velocity P-wave (km/s) = 5.90219 6.98126 6.46428
#
# Compressibility (1/GPa) = 0.02312393
#
# Stress axis : x y z
#
# Youngs Moduli (GPa) = 94.12577 94.12577 43.41544
#
# Poissons Ratio (x) = 0.45145 0.12552
# Poissons Ratio (y) = 0.45145 0.12552
# Poissons Ratio (z) = 0.27214 0.27214
#
# Static dielectric constant tensor:
#      x y z
#    x 3.790020 0.000000 0.000000 
#    y 0.000000 3.790020 0.000000 
#    z 0.000000 0.000000 3.135190 
# 
# 
# High freq. dielectric constant tensor:
#      x y z
#    x 1.771740 0.000000 0.000000 
#    y 0.000000 1.771740 0.000000 
#    z 0.000000 0.000000 1.712890 
# 
# From -- ./inp_files/7038.got.cif
#   From: 2010.03.12/outbox.cif.g09.slc.cpg/sg138_4_cif.got.tgz:7038.got - 2010.04.08 09:41:05.
