data_PCOD8319461
_publ_section_title
;
Structure prediction by ZEFSAII (Michael W. Deem and Ramdas Pophale) SiO2 
 PCOD8319461
Probable space group: I 4/M M M
;
_chemical_formula_sum "Si O2"
_cell_formula_units_Z 240
_cell_length_a 23.077760
_cell_length_b 23.077760
_cell_length_c 30.402843
_cell_angle_alpha 90.000000
_cell_angle_beta 90.000000
_cell_angle_gamma 90.000000
_cell_volume 16192.037535
_symmetry_space_group_name_H-M "I 4/M M M"
_symmetry_group_IT_number 139
_symmetry_cell_setting 'tetragonal'
loop_
_space_group_symop_operation_xyz
x,y,z
-y,x,z
-x,-y,z
y,-x,z
x,-y,-z
-x,y,-z
y,x,-z
-y,-x,-z
-x,-y,-z
y,-x,-z
x,y,-z
-y,x,-z
-x,y,z
x,-y,z
-y,-x,z
y,x,z
1/2+x,1/2+y,1/2+z
1/2-y,1/2+x,1/2+z
1/2-x,1/2-y,1/2+z
1/2+y,1/2-x,1/2+z
1/2+x,1/2-y,1/2-z
1/2-x,1/2+y,1/2-z
1/2+y,1/2+x,1/2-z
1/2-y,1/2-x,1/2-z
1/2-x,1/2-y,1/2-z
1/2+y,1/2-x,1/2-z
1/2+x,1/2+y,1/2-z
1/2-y,1/2+x,1/2-z
1/2-x,1/2+y,1/2+z
1/2+x,1/2-y,1/2+z
1/2-y,1/2-x,1/2+z
1/2+y,1/2+x,1/2+z
loop_
_atom_site_type_symbol
_atom_site_label
_atom_site_fract_x
_atom_site_fract_y
_atom_site_fract_z
Si Si1 0.063227 0.848379 0.835375
Si Si2 0.156450 0.063945 0.733463
Si Si3 0.847432 0.630325 0.680316
Si Si4 0.239267 0.854630 0.874316
Si Si5 0.069200 0.708456 0.736607
Si Si6 0.774766 0.565568 0.449021
Si Si7 0.393534 0.935013 0.100776
Si Si8 0.069655 0.500000 0.951036
O O1 0.097400 0.902601 0.857235
O O2 0.056923 0.859191 0.784091
O O3 0.099844 0.790281 0.841368
O O4 0.000000 0.842852 0.857600
O O5 0.113311 0.113311 0.712766
O O6 0.223619 0.082540 0.729387
O O7 0.146507 0.000000 0.711283
O O8 0.800466 0.661391 0.648227
O O9 0.892093 0.676560 0.700067
O O10 0.814594 0.591064 0.716290
O O11 0.885280 0.590052 0.649134
O O12 0.204866 0.795135 0.879826
O O13 0.239583 0.886494 0.921625
O O14 0.000000 0.695984 0.732177
O O15 0.772699 0.583089 0.500000
O O16 0.750301 0.500000 0.442224
O O17 0.839444 0.568526 0.431451
O O18 0.445125 0.903894 0.074642
O O19 0.412463 0.000000 0.109959
O O20 0.000000 0.500000 0.953348
O O21 0.095454 0.500000 0.000000
#
# Coordination Sequence:
#
# PCOD8319461 Si02
#       8
#    32  32  32  32  32  32  32  16
#     4   9  16  26  41  60  82 106 135 171 214 262
#     4   9  17  29  45  64  85 108 135 172 216 257
#     4  10  20  31  45  62  82 115 149 181 220 257
#     4  10  19  30  44  64  86 112 146 180 217 258
#     4  10  20  32  46  62  85 114 149 187 219 262
#     4   9  17  29  45  64  85 111 142 175 214 261
#     4   9  17  28  44  62  83 109 137 176 217 264
#     4   9  16  26  42  64  84 104 130 170 219 265
#
# _framework density 14.822100000000001
#
# number of rings (size 3 to 8) (size 9 to 14) (size 15 to 20)
#    0.000    2.600    1.333    1.200    0.933    3.733 
#    0.000    2.667    0.000    0.800    0.000    0.000 
#    0.000    0.000    0.000   12.400    0.000    0.133 
#
# Total GULP energy -1486708.972125 kJ/mol
# GULP energy per Si atom -12389.241434 kJ/mol
# Density = 1.478836 g / cm^3
# Si number density = 14.822100 Si / 1000 Ang^3
#
#
#
# Elastic Constant Matrix: (Units=GPa)
#
#
# Indices 1 2 3 4 5 6 
#
# 1 80.7784 49.9894 33.5266 0.0000 0.0000 0.0000
# 2 49.9894 80.7784 33.5266 0.0000 0.0000 0.0000
# 3 33.5266 33.5266 76.0642 0.0000 0.0000 0.0000
# 4 0.0000 0.0000 0.0000 14.0206 0.0000 0.0000
# 5 0.0000 0.0000 0.0000 0.0000 14.0206 0.0000
# 6 0.0000 0.0000 0.0000 0.0000 0.0000 13.8797
#
#
#
# Elastic Compliance Matrix: (Units=1/GPa)
#
#
# Indices 1 2 3 4 5 6 
#
# 1 0.021180 -0.011299 -0.004355 0.000000 0.000000 0.000000
# 2 -0.011299 0.021180 -0.004355 0.000000 0.000000 0.000000
# 3 -0.004355 -0.004355 0.016986 0.000000 0.000000 0.000000
# 4 0.000000 0.000000 0.000000 0.071324 0.000000 0.000000
# 5 0.000000 0.000000 0.000000 0.000000 0.071324 0.000000
# 6 0.000000 0.000000 0.000000 0.000000 0.000000 0.072047
#
#
# Mechanical properties :
#
#
# Convention : Reuss Voigt Hill
#
# Bulk Modulus (GPa) = 51.74202 52.41181 52.07691
# Shear Modulus (GPa) = 15.60059 16.42273 16.01166
#
# Velocity S-wave (km/s) = 3.24778 3.33226 3.29029
# Velocity P-wave (km/s) = 7.00347 7.08820 7.04596
#
# Compressibility (1/GPa) = 0.01932665
#
# Stress axis : x y z
#
# Youngs Moduli (GPa) = 47.21512 47.21512 58.87292
#
# Poissons Ratio (x) = 0.53351 0.25638
# Poissons Ratio (y) = 0.53351 0.25638
# Poissons Ratio (z) = 0.20561 0.20561
#
# Static dielectric constant tensor:
#      x y z
#    x 2.973090 0.000000 0.000000 
#    y 0.000000 2.973090 0.000000 
#    z 0.000000 0.000000 2.724950 
# 
# 
# High freq. dielectric constant tensor:
#      x y z
#    x 1.561170 0.000000 0.000000 
#    y 0.000000 1.561170 0.000000 
#    z 0.000000 0.000000 1.542740 
# 
# From -- ./inp_files/14751.got.cif
#   From: 2010.03.12/outbox.cif.g09.slc.cpg/sg139_8_cif.got.tgz:14751.got - 2010.04.08 09:46:31.
