data_PCOD8319044
_publ_section_title
;
Structure prediction by ZEFSAII (Michael W. Deem and Ramdas Pophale) SiO2 
 PCOD8319044
Probable space group: P 42/N C M
;
_chemical_formula_sum "Si O2"
_cell_formula_units_Z 112
_cell_length_a 16.429069
_cell_length_b 16.429069
_cell_length_c 22.757304
_cell_angle_alpha 90.000000
_cell_angle_beta 90.000000
_cell_angle_gamma 90.000000
_cell_volume 6142.521966
_symmetry_space_group_name_H-M "P 42/N C M"
_symmetry_group_IT_number 138
_space_group.IT_coordinate_system_code '2'
_symmetry_cell_setting 'tetragonal'
loop_
_space_group_symop_operation_xyz
x,y,z
1/2-y,x,1/2+z
1/2-x,1/2-y,z
y,1/2-x,1/2+z
1/2+x,-y,1/2-z
-x,1/2+y,1/2-z
1/2+y,1/2+x,-z
-y,-x,-z
-x,-y,-z
1/2+y,-x,1/2-z
1/2+x,1/2+y,-z
-y,1/2+x,1/2-z
1/2-x,y,1/2+z
x,1/2-y,1/2+z
1/2-y,1/2-x,z
y,x,z
loop_
_atom_site_type_symbol
_atom_site_label
_atom_site_fract_x
_atom_site_fract_y
_atom_site_fract_z
Si Si1 0.278947 0.544319 0.369638
Si Si2 0.498729 0.867157 0.014471
Si Si3 0.420228 0.943244 0.183443
Si Si4 0.818041 0.315896 0.565398
Si Si5 0.381234 0.250304 0.674879
Si Si6 0.963366 0.833262 0.219762
Si Si7 0.275747 0.975753 0.097137
O O1 0.330191 0.500287 0.420499
O O2 0.345875 0.567592 0.319945
O O3 0.224472 0.616299 0.395207
O O4 0.213758 0.486753 0.338927
O O5 0.577614 0.922387 0.006459
O O6 0.416457 0.916457 0.000000
O O7 0.500587 0.791457 0.970125
O O8 0.362999 0.966907 0.128753
O O9 0.503540 0.996461 0.177966
O O10 0.374934 0.961392 0.245097
O O11 0.750000 0.250000 0.555144
O O12 0.846073 0.346073 0.500000
O O13 0.894821 0.279211 0.600753
O O14 0.329986 0.170015 0.684233
O O15 0.326496 0.326496 0.652707
O O16 0.419586 0.270038 0.737484
O O17 0.450213 0.228187 0.627518
O O18 0.902859 0.902859 0.198105
#
# Coordination Sequence:
#
# PCOD8319044 Si02
#       7
#    16  16  16  16  16  16  16
#     4  12  22  36  59  87 116 153 195 236 296 355
#     4  11  20  32  56  90 117 142 191 251 297 342
#     4  10  20  37  59  85 113 144 191 250 299 341
#     4  11  21  36  54  81 122 157 181 222 286 362
#     4   9  19  38  64  88 112 151 201 251 298 342
#     4   9  22  41  59  81 117 156 192 242 294 349
#     4  11  19  35  58  85 119 153 191 234 292 356
#
# _framework density 18.233554000000002
#
# number of rings (size 3 to 8) (size 9 to 14) (size 15 to 20)
#    0.000    1.571    4.286    2.571    0.000    3.429 
#    0.000    2.857    0.000    1.714    0.000    0.000 
#    0.000    0.000    0.000    0.000    0.000    0.000 
#
# Total GULP energy -1388498.595722 kJ/mol
# GULP energy per Si atom -12397.308890 kJ/mol
# Density = 1.819205 g / cm^3
# Si number density = 18.233554 Si / 1000 Ang^3
#
#
#
# Elastic Constant Matrix: (Units=GPa)
#
#
# Indices 1 2 3 4 5 6 
#
# 1 99.9725 54.3589 46.0736 0.0000 0.0000 0.0000
# 2 54.3589 99.9725 46.0736 0.0000 0.0000 0.0000
# 3 46.0736 46.0736 81.2298 0.0000 0.0000 0.0000
# 4 0.0000 0.0000 0.0000 32.4297 0.0000 0.0000
# 5 0.0000 0.0000 0.0000 0.0000 32.4297 0.0000
# 6 0.0000 0.0000 0.0000 0.0000 0.0000 32.8909
#
#
#
# Elastic Compliance Matrix: (Units=1/GPa)
#
#
# Indices 1 2 3 4 5 6 
#
# 1 0.015860 -0.006063 -0.005557 0.000000 0.000000 0.000000
# 2 -0.006063 0.015860 -0.005557 0.000000 0.000000 0.000000
# 3 -0.005557 -0.005557 0.018615 0.000000 0.000000 0.000000
# 4 0.000000 0.000000 0.000000 0.030836 0.000000 0.000000
# 5 0.000000 0.000000 0.000000 0.000000 0.030836 0.000000
# 6 0.000000 0.000000 0.000000 0.000000 0.000000 0.030404
#
#
# Mechanical properties :
#
#
# Convention : Reuss Voigt Hill
#
# Bulk Modulus (GPa) = 62.57336 63.79857 63.18596
# Shear Modulus (GPa) = 27.45851 28.52796 27.99323
#
# Velocity S-wave (km/s) = 3.88484 3.95978 3.92249
# Velocity P-wave (km/s) = 7.38342 7.48145 7.43259
#
# Compressibility (1/GPa) = 0.01598124
#
# Stress axis : x y z
#
# Youngs Moduli (GPa) = 63.04980 63.04980 53.72043
#
# Poissons Ratio (x) = 0.38226 0.29854
# Poissons Ratio (y) = 0.38226 0.29854
# Poissons Ratio (z) = 0.35038 0.35038
#
# Static dielectric constant tensor:
#      x y z
#    x 3.306590 0.000000 0.000000 
#    y 0.000000 3.306590 0.000000 
#    z 0.000000 0.000000 3.475820 
# 
# 
# High freq. dielectric constant tensor:
#      x y z
#    x 1.697970 0.000000 0.000000 
#    y 0.000000 1.697970 0.000000 
#    z 0.000000 0.000000 1.703790 
# 
# From -- ./inp_files/7075.got.cif
#   From: 2010.03.12/outbox.cif.g09.slc.cpg/sg138_4_cif.got.tgz:7075.got - 2010.04.08 09:41:05.
