data_PCOD8319285
_publ_section_title
;
Structure prediction by ZEFSAII (Michael W. Deem and Ramdas Pophale) SiO2 
 PCOD8319285
Probable space group: I 4/M M M
;
_chemical_formula_sum "Si O2"
_cell_formula_units_Z 176
_cell_length_a 18.117196
_cell_length_b 18.117196
_cell_length_c 31.794338
_cell_angle_alpha 90.000000
_cell_angle_beta 90.000000
_cell_angle_gamma 90.000000
_cell_volume 10435.944297
_symmetry_space_group_name_H-M "I 4/M M M"
_symmetry_group_IT_number 139
_symmetry_cell_setting 'tetragonal'
loop_
_space_group_symop_operation_xyz
x,y,z
-y,x,z
-x,-y,z
y,-x,z
x,-y,-z
-x,y,-z
y,x,-z
-y,-x,-z
-x,-y,-z
y,-x,-z
x,y,-z
-y,x,-z
-x,y,z
x,-y,z
-y,-x,z
y,x,z
1/2+x,1/2+y,1/2+z
1/2-y,1/2+x,1/2+z
1/2-x,1/2-y,1/2+z
1/2+y,1/2-x,1/2+z
1/2+x,1/2-y,1/2-z
1/2-x,1/2+y,1/2-z
1/2+y,1/2+x,1/2-z
1/2-y,1/2-x,1/2-z
1/2-x,1/2-y,1/2-z
1/2+y,1/2-x,1/2-z
1/2+x,1/2+y,1/2-z
1/2-y,1/2+x,1/2-z
1/2-x,1/2+y,1/2+z
1/2+x,1/2-y,1/2+z
1/2-y,1/2-x,1/2+z
1/2+y,1/2+x,1/2+z
loop_
_atom_site_type_symbol
_atom_site_label
_atom_site_fract_x
_atom_site_fract_y
_atom_site_fract_z
Si Si1 0.416517 0.219268 0.379850
Si Si2 0.794448 0.911994 0.207470
Si Si3 0.651627 0.151627 0.750000
Si Si4 0.806091 0.314654 0.545793
Si Si5 0.917736 0.416344 0.327264
Si Si6 0.082105 0.801363 0.450024
O O1 0.500000 0.228690 0.394761
O O2 0.399700 0.274715 0.341530
O O3 0.367739 0.233471 0.420806
O O4 0.398642 0.135982 0.365680
O O5 0.874757 0.874757 0.215469
O O6 0.735290 0.866264 0.235476
O O7 0.795912 0.000000 0.218398
O O8 0.636939 0.095956 0.711863
O O9 0.816039 0.354636 0.500000
O O10 0.754880 0.245121 0.538499
O O11 0.883347 0.279013 0.561904
O O12 0.902518 0.500000 0.311441
O O13 0.000000 0.405607 0.344319
O O14 0.078911 0.808231 0.500000
O O15 0.131204 0.868797 0.431334
O O16 0.000000 0.806271 0.430396
#
# Coordination Sequence:
#
# PCOD8319285 Si02
#       6
#    32  32  16  32  32  32
#     4   9  18  30  44  64  88 115 149 189 228 265
#     4  10  20  33  50  72  99 128 156 189 227 270
#     4  10  17  29  48  72  96 121 154 190 225 260
#     4   9  17  29  44  60  81 111 145 183 229 279
#     4   9  16  26  42  65  94 124 151 182 222 269
#     4   8  14  24  38  57  79 104 136 173 215 263
#
# _framework density 16.864788999999998
#
# number of rings (size 3 to 8) (size 9 to 14) (size 15 to 20)
#    0.000    2.909    0.000    4.636    0.000    2.182 
#    0.000    0.909    0.000    0.000    0.000    5.091 
#    0.000    0.000    0.000   35.818    0.000   10.545 
#
# Total GULP energy -1090303.955862 kJ/mol
# GULP energy per Si atom -12389.817680 kJ/mol
# Density = 1.682640 g / cm^3
# Si number density = 16.864789 Si / 1000 Ang^3
#
#
#
# Elastic Constant Matrix: (Units=GPa)
#
#
# Indices 1 2 3 4 5 6 
#
# 1 72.9761 37.6965 27.9453 0.0000 0.0000 0.0000
# 2 37.6965 72.9761 27.9453 0.0000 0.0000 0.0000
# 3 27.9453 27.9453 52.4380 0.0000 0.0000 0.0000
# 4 0.0000 0.0000 0.0000 19.0376 0.0000 0.0000
# 5 0.0000 0.0000 0.0000 0.0000 19.0376 0.0000
# 6 0.0000 0.0000 0.0000 0.0000 0.0000 23.6723
#
#
#
# Elastic Compliance Matrix: (Units=1/GPa)
#
#
# Indices 1 2 3 4 5 6 
#
# 1 0.020354 -0.007991 -0.006588 0.000000 0.000000 0.000000
# 2 -0.007991 0.020354 -0.006588 0.000000 0.000000 0.000000
# 3 -0.006588 -0.006588 0.026092 0.000000 0.000000 0.000000
# 4 0.000000 0.000000 0.000000 0.052528 0.000000 0.000000
# 5 0.000000 0.000000 0.000000 0.000000 0.052528 0.000000
# 6 0.000000 0.000000 0.000000 0.000000 0.000000 0.042243
#
#
# Mechanical properties :
#
#
# Convention : Reuss Voigt Hill
#
# Bulk Modulus (GPa) = 40.87576 42.84049 41.85813
# Shear Modulus (GPa) = 18.89718 19.33636 19.11677
#
# Velocity S-wave (km/s) = 3.35103 3.38975 3.37045
# Velocity P-wave (km/s) = 6.26598 6.38577 6.32616
#
# Compressibility (1/GPa) = 0.02446438
#
# Stress axis : x y z
#
# Youngs Moduli (GPa) = 49.13052 49.13052 38.32536
#
# Poissons Ratio (x) = 0.39260 0.25250
# Poissons Ratio (y) = 0.39260 0.25250
# Poissons Ratio (z) = 0.32369 0.32369
#
# Static dielectric constant tensor:
#      x y z
#    x 2.949170 0.000000 0.000000 
#    y 0.000000 2.949170 0.000000 
#    z 0.000000 0.000000 2.853060 
# 
# 
# High freq. dielectric constant tensor:
#      x y z
#    x 1.641550 0.000000 0.000000 
#    y 0.000000 1.641550 0.000000 
#    z 0.000000 0.000000 1.622350 
# 
# From -- ./inp_files/14215.got.cif
#   From: 2010.03.12/outbox.cif.g09.slc.cpg/sg139_8_cif.got.tgz:14215.got - 2010.04.08 09:46:31.
