data_PCOD8319982
_publ_section_title
;
Structure prediction by ZEFSAII (Michael W. Deem and Ramdas Pophale) SiO2 
 PCOD8319982
Probable space group: I 4/M M M
;
_chemical_formula_sum "Si O2"
_cell_formula_units_Z 160
_cell_length_a 18.844348
_cell_length_b 18.844348
_cell_length_c 25.482649
_cell_angle_alpha 90.000000
_cell_angle_beta 90.000000
_cell_angle_gamma 90.000000
_cell_volume 9049.129510
_symmetry_space_group_name_H-M "I 4/M M M"
_symmetry_group_IT_number 139
_symmetry_cell_setting 'tetragonal'
loop_
_space_group_symop_operation_xyz
x,y,z
-y,x,z
-x,-y,z
y,-x,z
x,-y,-z
-x,y,-z
y,x,-z
-y,-x,-z
-x,-y,-z
y,-x,-z
x,y,-z
-y,x,-z
-x,y,z
x,-y,z
-y,-x,z
y,x,z
1/2+x,1/2+y,1/2+z
1/2-y,1/2+x,1/2+z
1/2-x,1/2-y,1/2+z
1/2+y,1/2-x,1/2+z
1/2+x,1/2-y,1/2-z
1/2-x,1/2+y,1/2-z
1/2+y,1/2+x,1/2-z
1/2-y,1/2-x,1/2-z
1/2-x,1/2-y,1/2-z
1/2+y,1/2-x,1/2-z
1/2+x,1/2+y,1/2-z
1/2-y,1/2+x,1/2-z
1/2-x,1/2+y,1/2+z
1/2+x,1/2-y,1/2+z
1/2-y,1/2-x,1/2+z
1/2+y,1/2+x,1/2+z
loop_
_atom_site_type_symbol
_atom_site_label
_atom_site_fract_x
_atom_site_fract_y
_atom_site_fract_z
Si Si1 0.820405 0.626415 0.586736
Si Si2 0.250195 0.421765 0.057299
Si Si3 0.000000 0.582191 0.061963
Si Si4 0.801498 0.317680 0.191635
Si Si5 0.206188 0.085529 0.000000
Si Si6 0.188328 0.078277 0.337271
O O1 0.855893 0.696995 0.563687
O O2 0.880838 0.567685 0.586843
O O3 0.798893 0.638819 0.647936
O O4 0.751925 0.604352 0.552112
O O5 0.212178 0.500000 0.062487
O O6 0.313774 0.418732 0.099375
O O7 0.285001 0.414196 0.000000
O O8 0.000000 0.500000 0.077308
O O9 0.000000 0.594560 0.000000
O O10 0.745545 0.254455 0.190350
O O11 0.830916 0.330916 0.250000
O O12 0.765193 0.392535 0.178384
O O13 0.133324 0.133324 0.000000
O O14 0.188837 0.000000 0.000000
O O15 0.125085 0.125085 0.313220
O O16 0.178722 0.000000 0.314170
#
# Coordination Sequence:
#
# PCOD8319982 Si02
#       6
#    32  32  16  32  16  32
#     4  11  18  34  54  82 107 137 179 219 264 320
#     4   9  16  27  46  74 107 139 169 203 249 300
#     4  11  20  32  54  82 120 154 172 201 255 329
#     4   9  19  36  56  77 101 135 177 222 276 322
#     4  12  24  39  56  80 110 140 183 237 289 343
#     4   9  18  31  47  70 100 134 173 212 248 296
#
# _framework density 17.681259000000001
#
# number of rings (size 3 to 8) (size 9 to 14) (size 15 to 20)
#    0.000    2.100    3.000    1.200    0.000    3.900 
#    1.800    0.000    0.000    0.000    0.000    2.800 
#    0.000    4.800    0.000    0.000    0.000    0.000 
#
# Total GULP energy -991198.084599 kJ/mol
# GULP energy per Si atom -12389.976057 kJ/mol
# Density = 1.764102 g / cm^3
# Si number density = 17.681259 Si / 1000 Ang^3
#
#
#
# Elastic Constant Matrix: (Units=GPa)
#
#
# Indices 1 2 3 4 5 6 
#
# 1 83.0886 37.7719 30.3316 0.0000 0.0000 0.0000
# 2 37.7719 83.0886 30.3316 0.0000 0.0000 0.0000
# 3 30.3316 30.3316 126.1240 0.0000 0.0000 0.0000
# 4 0.0000 0.0000 0.0000 17.6714 0.0000 0.0000
# 5 0.0000 0.0000 0.0000 0.0000 17.6714 0.0000
# 6 0.0000 0.0000 0.0000 0.0000 0.0000 23.7750
#
#
#
# Elastic Compliance Matrix: (Units=1/GPa)
#
#
# Indices 1 2 3 4 5 6 
#
# 1 0.015738 -0.006329 -0.002263 0.000000 0.000000 0.000000
# 2 -0.006329 0.015738 -0.002263 0.000000 0.000000 0.000000
# 3 -0.002263 -0.002263 0.009017 0.000000 0.000000 0.000000
# 4 0.000000 0.000000 0.000000 0.056589 0.000000 0.000000
# 5 0.000000 0.000000 0.000000 0.000000 0.056589 0.000000
# 6 0.000000 0.000000 0.000000 0.000000 0.000000 0.042061
#
#
# Mechanical properties :
#
#
# Convention : Reuss Voigt Hill
#
# Bulk Modulus (GPa) = 53.23414 54.35240 53.79327
# Shear Modulus (GPa) = 22.35108 24.74795 23.54952
#
# Velocity S-wave (km/s) = 3.55929 3.74528 3.65347
# Velocity P-wave (km/s) = 6.86035 7.03631 6.94889
#
# Compressibility (1/GPa) = 0.01878494
#
# Stress axis : x y z
#
# Youngs Moduli (GPa) = 63.53890 63.53890 110.89966
#
# Poissons Ratio (x) = 0.40211 0.25096
# Poissons Ratio (y) = 0.40211 0.25096
# Poissons Ratio (z) = 0.14379 0.14379
#
# Static dielectric constant tensor:
#      x y z
#    x 3.224590 0.000000 0.000000 
#    y 0.000000 3.224590 0.000000 
#    z 0.000000 0.000000 3.411810 
# 
# 
# High freq. dielectric constant tensor:
#      x y z
#    x 1.670710 0.000000 0.000000 
#    y 0.000000 1.670710 0.000000 
#    z 0.000000 0.000000 1.674090 
# 
# From -- ./inp_files/12988.got.cif
#   From: 2010.03.12/outbox.cif.g09.slc.cpg/sg139_7_cif.got.tgz:12988.got - 2010.04.08 09:46:31.
