data_PCOD8319821
_publ_section_title
;
Structure prediction by ZEFSAII (Michael W. Deem and Ramdas Pophale) SiO2 
 PCOD8319821
Probable space group: I 4/M M M
;
_chemical_formula_sum "Si O2"
_cell_formula_units_Z 192
_cell_length_a 21.626915
_cell_length_b 21.626915
_cell_length_c 22.710164
_cell_angle_alpha 90.000000
_cell_angle_beta 90.000000
_cell_angle_gamma 90.000000
_cell_volume 10622.076311
_symmetry_space_group_name_H-M "I 4/M M M"
_symmetry_group_IT_number 139
_symmetry_cell_setting 'tetragonal'
loop_
_space_group_symop_operation_xyz
x,y,z
-y,x,z
-x,-y,z
y,-x,z
x,-y,-z
-x,y,-z
y,x,-z
-y,-x,-z
-x,-y,-z
y,-x,-z
x,y,-z
-y,x,-z
-x,y,z
x,-y,z
-y,-x,z
y,x,z
1/2+x,1/2+y,1/2+z
1/2-y,1/2+x,1/2+z
1/2-x,1/2-y,1/2+z
1/2+y,1/2-x,1/2+z
1/2+x,1/2-y,1/2-z
1/2-x,1/2+y,1/2-z
1/2+y,1/2+x,1/2-z
1/2-y,1/2-x,1/2-z
1/2-x,1/2-y,1/2-z
1/2+y,1/2-x,1/2-z
1/2+x,1/2+y,1/2-z
1/2-y,1/2+x,1/2-z
1/2-x,1/2+y,1/2+z
1/2+x,1/2-y,1/2+z
1/2-y,1/2-x,1/2+z
1/2+y,1/2+x,1/2+z
loop_
_atom_site_type_symbol
_atom_site_label
_atom_site_fract_x
_atom_site_fract_y
_atom_site_fract_z
Si Si1 0.682989 0.682989 0.776260
Si Si2 0.307731 0.879316 0.115308
Si Si3 0.401430 0.500000 0.570000
Si Si4 0.759816 0.932679 0.672971
Si Si5 0.071163 0.321817 0.568019
Si Si6 0.761477 0.000000 0.930714
Si Si7 0.342929 0.067243 0.767391
Si Si8 0.773492 0.226509 0.154432
O O1 0.613221 0.693139 0.796643
O O2 0.727572 0.727572 0.812467
O O3 0.689488 0.689488 0.705728
O O4 0.375347 0.871525 0.084964
O O5 0.314101 0.886033 0.185596
O O6 0.263931 0.818992 0.110266
O O7 0.274613 0.938801 0.088463
O O8 0.438570 0.438570 0.591465
O O9 0.398841 0.500000 0.500000
O O10 0.331476 0.500000 0.596088
O O11 0.740655 0.916689 0.605751
O O12 0.695644 0.931788 0.707949
O O13 0.791365 0.000000 0.676186
O O14 0.078993 0.304125 0.500000
O O15 0.000000 0.346271 0.579845
O O16 0.766052 0.000000 0.000000
O O17 0.411672 0.088329 0.750000
O O18 0.346421 0.000000 0.796759
#
# Coordination Sequence:
#
# PCOD8319821 Si02
#       8
#    16  32  16  32  32  16  32  16
#     4  11  18  36  58  85 120 145 184 229 298 350
#     4  12  22  38  56  86 114 148 192 233 290 344
#     4   8  16  35  60  79 100 144 201 240 271 319
#     4  10  20  34  57  83 110 149 189 227 279 344
#     4  10  21  38  57  78 111 153 192 230 275 339
#     4  11  25  40  56  80 119 157 190 240 287 333
#     4  11  20  34  54  78 107 139 183 233 279 329
#     4  11  22  32  58  90 117 149 178 242 299 346
#
# _framework density 18.075561
#
# number of rings (size 3 to 8) (size 9 to 14) (size 15 to 20)
#    0.000    1.417    5.833    0.750    1.167    0.167 
#    0.000    2.917    0.000    1.750    0.000    0.000 
#    0.000    0.000    0.000    4.167    0.000    0.000 
#
# Total GULP energy -1189798.646824 kJ/mol
# GULP energy per Si atom -12393.735904 kJ/mol
# Density = 1.803442 g / cm^3
# Si number density = 18.075561 Si / 1000 Ang^3
#
#
#
# Elastic Constant Matrix: (Units=GPa)
#
#
# Indices 1 2 3 4 5 6 
#
# 1 97.6976 72.4819 24.1693 0.0000 0.0000 0.0000
# 2 72.4819 97.7048 24.1690 0.0000 0.0000 0.0000
# 3 24.1693 24.1690 78.3572 0.0000 0.0000 0.0000
# 4 0.0000 0.0000 0.0000 20.2935 0.0000 0.0000
# 5 0.0000 0.0000 0.0000 0.0000 20.2934 0.0000
# 6 0.0000 0.0000 0.0000 0.0000 0.0000 19.6423
#
#
#
# Elastic Compliance Matrix: (Units=1/GPa)
#
#
# Indices 1 2 3 4 5 6 
#
# 1 0.023047 -0.016606 -0.001987 0.000000 0.000000 0.000000
# 2 -0.016606 0.023045 -0.001986 0.000000 0.000000 0.000000
# 3 -0.001987 -0.001986 0.013988 0.000000 0.000000 0.000000
# 4 0.000000 0.000000 0.000000 0.049277 0.000000 0.000000
# 5 0.000000 0.000000 0.000000 0.000000 0.049277 0.000000
# 6 0.000000 0.000000 0.000000 0.000000 0.000000 0.050911
#
#
# Mechanical properties :
#
#
# Convention : Reuss Voigt Hill
#
# Bulk Modulus (GPa) = 52.84830 57.26670 55.05750
# Shear Modulus (GPa) = 19.45451 22.24180 20.84816
#
# Velocity S-wave (km/s) = 3.28424 3.51164 3.39984
# Velocity P-wave (km/s) = 6.60928 6.94210 6.77773
#
# Compressibility (1/GPa) = 0.01892209
#
# Stress axis : x y z
#
# Youngs Moduli (GPa) = 43.38927 43.39281 71.49227
#
# Poissons Ratio (x) = 0.72058 0.14204
# Poissons Ratio (y) = 0.72052 0.14199
# Poissons Ratio (z) = 0.08621 0.08618
#
# Static dielectric constant tensor:
#      x y z
#    x 3.488860 0.000000 0.000000 
#    y 0.000000 3.488870 0.000000 
#    z 0.000000 0.000000 3.285040 
# 
# 
# High freq. dielectric constant tensor:
#      x y z
#    x 1.692170 0.000000 0.000000 
#    y 0.000000 1.692170 0.000000 
#    z 0.000000 0.000000 1.692530 
# 
# From -- ./inp_files/12082.got.cif
#   From: 2010.03.12/outbox.cif.g09.slc.cpg/sg139_7_cif.got.tgz:12082.got - 2010.04.08 09:46:31.
