data_PCOD8319252
_publ_section_title
;
Structure prediction by ZEFSAII (Michael W. Deem and Ramdas Pophale) SiO2 
 PCOD8319252
Probable space group: I 4/M M M
;
_chemical_formula_sum "Si O2"
_cell_formula_units_Z 144
_cell_length_a 22.390449
_cell_length_b 22.390449
_cell_length_c 18.090511
_cell_angle_alpha 90.000000
_cell_angle_beta 90.000000
_cell_angle_gamma 90.000000
_cell_volume 9069.355795
_symmetry_space_group_name_H-M "I 4/M M M"
_symmetry_group_IT_number 139
_symmetry_cell_setting 'tetragonal'
loop_
_space_group_symop_operation_xyz
x,y,z
-y,x,z
-x,-y,z
y,-x,z
x,-y,-z
-x,y,-z
y,x,-z
-y,-x,-z
-x,-y,-z
y,-x,-z
x,y,-z
-y,x,-z
-x,y,z
x,-y,z
-y,-x,z
y,x,z
1/2+x,1/2+y,1/2+z
1/2-y,1/2+x,1/2+z
1/2-x,1/2-y,1/2+z
1/2+y,1/2-x,1/2+z
1/2+x,1/2-y,1/2-z
1/2-x,1/2+y,1/2-z
1/2+y,1/2+x,1/2-z
1/2-y,1/2-x,1/2-z
1/2-x,1/2-y,1/2-z
1/2+y,1/2-x,1/2-z
1/2+x,1/2+y,1/2-z
1/2-y,1/2+x,1/2-z
1/2-x,1/2+y,1/2+z
1/2+x,1/2-y,1/2+z
1/2-y,1/2-x,1/2+z
1/2+y,1/2+x,1/2+z
loop_
_atom_site_type_symbol
_atom_site_label
_atom_site_fract_x
_atom_site_fract_y
_atom_site_fract_z
Si Si1 0.823966 0.359855 0.913080
Si Si2 0.273207 0.273207 0.084115
Si Si3 0.853062 0.853062 0.316205
Si Si4 0.067947 0.637572 0.190927
Si Si5 0.930918 0.069082 0.418732
Si Si6 0.568493 0.247364 0.795156
O O1 0.795397 0.293057 0.898051
O O2 0.891058 0.362676 0.881961
O O3 0.782647 0.408222 0.871224
O O4 0.825796 0.375378 0.000000
O O5 0.317378 0.317378 0.123424
O O6 0.286288 0.286288 0.000000
O O7 0.897773 0.897773 0.354301
O O8 0.805113 0.892364 0.270161
O O9 0.087465 0.587465 0.250000
O O10 0.074680 0.702039 0.227691
O O11 0.000000 0.624463 0.166684
O O12 0.909575 0.090426 0.500000
O O13 0.000000 0.083033 0.409322
O O14 0.500000 0.266199 0.808255
#
# Coordination Sequence:
#
# PCOD8319252 Si02
#       6
#    32  16  16  32  16  32
#     4   9  17  29  46  66  86 110 140 173 208 249
#     4   8  15  26  39  60  87 107 128 163 207 247
#     4  10  16  25  42  60  78 108 149 177 196 239
#     4   9  18  32  47  63  85 111 138 171 214 259
#     4   9  17  26  34  49  77 111 145 181 218 249
#     4   9  18  30  43  62  88 115 141 173 213 249
#
# _framework density 15.877644
#
# number of rings (size 3 to 8) (size 9 to 14) (size 15 to 20)
#    0.000    3.000    0.000    1.333    0.000    2.889 
#    0.000    4.444    0.000    0.000    0.000    6.222 
#    0.000    0.000    0.000    0.000    0.000    0.000 
#
# Total GULP energy -892022.497374 kJ/mol
# GULP energy per Si atom -12389.201352 kJ/mol
# Density = 1.584151 g / cm^3
# Si number density = 15.877644 Si / 1000 Ang^3
#
#
#
# Elastic Constant Matrix: (Units=GPa)
#
#
# Indices 1 2 3 4 5 6 
#
# 1 154.0338 -22.2643 19.1567 0.0000 0.0000 0.0000
# 2 -22.2643 154.0286 19.1511 0.0000 0.0000 0.0000
# 3 19.1567 19.1511 44.1619 0.0000 0.0000 0.0000
# 4 0.0000 0.0000 0.0000 18.3439 0.0000 0.0000
# 5 0.0000 0.0000 0.0000 0.0000 18.3439 0.0000
# 6 0.0000 0.0000 0.0000 0.0000 0.0000 20.1657
#
#
#
# Elastic Compliance Matrix: (Units=1/GPa)
#
#
# Indices 1 2 3 4 5 6 
#
# 1 0.007178 0.001506 -0.003767 0.000000 0.000000 0.000000
# 2 0.001506 0.007178 -0.003766 0.000000 0.000000 0.000000
# 3 -0.003767 -0.003766 0.025911 0.000000 0.000000 0.000000
# 4 0.000000 0.000000 0.000000 0.054514 0.000000 0.000000
# 5 0.000000 0.000000 0.000000 0.000000 0.054514 0.000000
# 6 0.000000 0.000000 0.000000 0.000000 0.000000 0.049589
#
#
# Mechanical properties :
#
#
# Convention : Reuss Voigt Hill
#
# Bulk Modulus (GPa) = 35.44400 42.70124 39.07262
# Shear Modulus (GPa) = 22.69186 33.78276 28.23731
#
# Velocity S-wave (km/s) = 3.78454 4.61770 4.22172
# Velocity P-wave (km/s) = 6.43962 7.44199 6.95887
#
# Compressibility (1/GPa) = 0.02821352
#
# Stress axis : x y z
#
# Youngs Moduli (GPa) = 139.31025 139.30990 38.59343
#
# Poissons Ratio (x) = -0.20979 0.14538
# Poissons Ratio (y) = -0.20979 0.14535
# Poissons Ratio (z) = 0.52476 0.52466
#
# Static dielectric constant tensor:
#      x y z
#    x 3.187570 0.000000 0.000000 
#    y 0.000000 3.187570 0.000000 
#    z 0.000000 0.000000 2.759040 
# 
# 
# High freq. dielectric constant tensor:
#      x y z
#    x 1.610840 0.000000 0.000000 
#    y 0.000000 1.610840 0.000000 
#    z 0.000000 0.000000 1.578960 
# 
# From -- ./inp_files/8249.got.cif
#   From: 2010.03.12/outbox.cif.g09.slc.cpg/sg139_5_cif.got.tgz:8249.got - 2010.04.08 09:46:31.
