data_PCOD8319326
_publ_section_title
;
Structure prediction by ZEFSAII (Michael W. Deem and Ramdas Pophale) SiO2 
 PCOD8319326
Probable space group: I 4/M M M
;
_chemical_formula_sum "Si O2"
_cell_formula_units_Z 224
_cell_length_a 22.939046
_cell_length_b 22.939046
_cell_length_c 26.290231
_cell_angle_alpha 90.000000
_cell_angle_beta 90.000000
_cell_angle_gamma 90.000000
_cell_volume 13833.915119
_symmetry_space_group_name_H-M "I 4/M M M"
_symmetry_group_IT_number 139
_symmetry_cell_setting 'tetragonal'
loop_
_space_group_symop_operation_xyz
x,y,z
-y,x,z
-x,-y,z
y,-x,z
x,-y,-z
-x,y,-z
y,x,-z
-y,-x,-z
-x,-y,-z
y,-x,-z
x,y,-z
-y,x,-z
-x,y,z
x,-y,z
-y,-x,z
y,x,z
1/2+x,1/2+y,1/2+z
1/2-y,1/2+x,1/2+z
1/2-x,1/2-y,1/2+z
1/2+y,1/2-x,1/2+z
1/2+x,1/2-y,1/2-z
1/2-x,1/2+y,1/2-z
1/2+y,1/2+x,1/2-z
1/2-y,1/2-x,1/2-z
1/2-x,1/2-y,1/2-z
1/2+y,1/2-x,1/2-z
1/2+x,1/2+y,1/2-z
1/2-y,1/2+x,1/2-z
1/2-x,1/2+y,1/2+z
1/2+x,1/2-y,1/2+z
1/2-y,1/2-x,1/2+z
1/2+y,1/2+x,1/2+z
loop_
_atom_site_type_symbol
_atom_site_label
_atom_site_fract_x
_atom_site_fract_y
_atom_site_fract_z
Si Si1 0.267796 0.171326 0.059780
Si Si2 0.348888 0.063876 0.776596
Si Si3 0.564367 0.655206 0.059779
Si Si4 0.068250 0.733667 0.135944
Si Si5 0.256590 0.563864 0.799361
Si Si6 0.566992 0.661658 0.288816
Si Si7 0.758011 0.146562 0.609602
O O1 0.210581 0.210581 0.070559
O O2 0.262450 0.108242 0.085874
O O3 0.325342 0.202657 0.081929
O O4 0.276513 0.161626 0.000000
O O5 0.393557 0.106444 0.750000
O O6 0.325472 0.083885 0.832232
O O7 0.292998 0.058963 0.741902
O O8 0.378348 0.000000 0.781417
O O9 0.500000 0.655663 0.084560
O O10 0.599647 0.599647 0.082067
O O11 0.598791 0.714194 0.072172
O O12 0.559482 0.649955 0.000000
O O13 0.083333 0.789540 0.169916
O O14 0.000000 0.733030 0.120111
O O15 0.263588 0.500000 0.825870
O O16 0.315396 0.579629 0.768484
O O17 0.239570 0.613807 0.839056
O O18 0.500000 0.643277 0.294573
O O19 0.605221 0.605221 0.299882
O O20 0.803661 0.196340 0.624408
#
# Coordination Sequence:
#
# PCOD8319326 Si02
#       7
#    32  32  32  32  32  32  32
#     4  10  20  32  47  68  91 114 145 187 232 276
#     4   9  17  29  45  66  91 115 141 174 211 255
#     4   9  17  28  41  57  79 109 145 184 222 258
#     4   9  18  32  49  67  89 119 149 180 221 269
#     4   9  17  28  43  63  87 117 149 179 210 249
#     4   9  17  29  45  66  92 121 153 185 218 259
#     4  10  18  28  43  62  86 115 144 179 224 266
#
# _framework density 16.19209
#
# number of rings (size 3 to 8) (size 9 to 14) (size 15 to 20)
#    0.000    2.714    0.000    4.286    0.000    2.429 
#    0.000    0.714    0.000    6.857    0.000    2.000 
#    0.000    0.000    0.000   31.429    0.000    0.000 
#
# Total GULP energy -1388049.119469 kJ/mol
# GULP energy per Si atom -12393.295710 kJ/mol
# Density = 1.615524 g / cm^3
# Si number density = 16.192090 Si / 1000 Ang^3
#
#
#
# Elastic Constant Matrix: (Units=GPa)
#
#
# Indices 1 2 3 4 5 6 
#
# 1 88.1985 43.0879 41.0469 0.0000 0.0000 0.0000
# 2 43.0879 88.1981 41.0459 0.0000 0.0000 0.0000
# 3 41.0469 41.0459 86.8260 0.0000 0.0000 0.0000
# 4 0.0000 0.0000 0.0000 22.8457 0.0000 0.0000
# 5 0.0000 0.0000 0.0000 0.0000 22.8467 0.0000
# 6 0.0000 0.0000 0.0000 0.0000 0.0000 -37.6495
#
#
#
# Elastic Compliance Matrix: (Units=1/GPa)
#
#
# Indices 1 2 3 4 5 6 
#
# 1 0.016491 -0.005677 -0.005112 0.000000 0.000000 0.000000
# 2 -0.005677 0.016491 -0.005112 0.000000 0.000000 0.000000
# 3 -0.005112 -0.005112 0.016351 0.000000 0.000000 0.000000
# 4 0.000000 0.000000 0.000000 0.043772 0.000000 0.000000
# 5 0.000000 0.000000 0.000000 0.000000 0.043770 0.000000
# 6 0.000000 0.000000 0.000000 0.000000 0.000000 -0.026561
#
#
# Mechanical properties :
#
#
# Convention : Reuss Voigt Hill
#
# Bulk Modulus (GPa) = 57.04649 57.06489 57.05569
# Shear Modulus (GPa) = 33.79325 10.81137 22.30231
#
# Velocity S-wave (km/s) = 4.57335 2.58678 3.71530
# Velocity P-wave (km/s) = 7.94952 6.65138 7.32925
#
# Compressibility (1/GPa) = 0.01752956
#
# Stress axis : x y z
#
# Youngs Moduli (GPa) = 60.64019 60.64059 61.15989
#
# Poissons Ratio (x) = 0.34427 0.31266
# Poissons Ratio (y) = 0.34427 0.31264
# Poissons Ratio (z) = 0.31000 0.30998
#
# Static dielectric constant tensor:
#      x y z
#    x 3.183110 0.000000 0.000000 
#    y 0.000000 3.183110 0.000000 
#    z 0.000000 0.000000 2.948200 
# 
# 
# High freq. dielectric constant tensor:
#      x y z
#    x 1.617860 0.000000 0.000000 
#    y 0.000000 1.617860 0.000000 
#    z 0.000000 0.000000 1.612130 
# 
# From -- ./inp_files/12169.got.cif
#   From: 2010.03.12/outbox.cif.g09.slc.cpg/sg139_7_cif.got.tgz:12169.got - 2010.04.08 09:46:31.
