data_PCOD8319801
_publ_section_title
;
Structure prediction by ZEFSAII (Michael W. Deem and Ramdas Pophale) SiO2 
 PCOD8319801
Probable space group: I 4/M M M
;
_chemical_formula_sum "Si O2"
_cell_formula_units_Z 192
_cell_length_a 20.703320
_cell_length_b 20.703320
_cell_length_c 23.853839
_cell_angle_alpha 90.000000
_cell_angle_beta 90.000000
_cell_angle_gamma 90.000000
_cell_volume 10224.410398
_symmetry_space_group_name_H-M "I 4/M M M"
_symmetry_group_IT_number 139
_symmetry_cell_setting 'tetragonal'
loop_
_space_group_symop_operation_xyz
x,y,z
-y,x,z
-x,-y,z
y,-x,z
x,-y,-z
-x,y,-z
y,x,-z
-y,-x,-z
-x,-y,-z
y,-x,-z
x,y,-z
-y,x,-z
-x,y,z
x,-y,z
-y,-x,z
y,x,z
1/2+x,1/2+y,1/2+z
1/2-y,1/2+x,1/2+z
1/2-x,1/2-y,1/2+z
1/2+y,1/2-x,1/2+z
1/2+x,1/2-y,1/2-z
1/2-x,1/2+y,1/2-z
1/2+y,1/2+x,1/2-z
1/2-y,1/2-x,1/2-z
1/2-x,1/2-y,1/2-z
1/2+y,1/2-x,1/2-z
1/2+x,1/2+y,1/2-z
1/2-y,1/2+x,1/2-z
1/2-x,1/2+y,1/2+z
1/2+x,1/2-y,1/2+z
1/2-y,1/2-x,1/2+z
1/2+y,1/2+x,1/2+z
loop_
_atom_site_type_symbol
_atom_site_label
_atom_site_fract_x
_atom_site_fract_y
_atom_site_fract_z
Si Si1 0.426093 0.115755 0.563970
Si Si2 0.149129 0.249631 0.729255
Si Si3 0.821862 0.923458 0.176964
Si Si4 0.325572 0.572266 0.066048
Si Si5 0.197791 0.573004 0.126975
Si Si6 0.264948 0.575806 0.439313
O O1 0.420005 0.091163 0.500000
O O2 0.500000 0.103311 0.585086
O O3 0.374418 0.079318 0.602516
O O4 0.407314 0.190289 0.568184
O O5 0.182986 0.182986 0.707543
O O6 0.205120 0.294881 0.750000
O O7 0.099048 0.232683 0.779080
O O8 0.114803 0.290499 0.681622
O O9 0.890429 0.890429 0.191358
O O10 0.802928 0.897927 0.114623
O O11 0.829782 0.000000 0.180399
O O12 0.341796 0.500000 0.088426
O O13 0.377771 0.622230 0.092172
O O14 0.252701 0.592689 0.081997
O O15 0.330092 0.574028 0.000000
O O16 0.207225 0.500000 0.145925
O O17 0.289101 0.604411 0.500000
O O18 0.274322 0.500000 0.441652
#
# Coordination Sequence:
#
# PCOD8319801 Si02
#       6
#    32  32  32  32  32  32
#     4   9  18  33  53  77 106 140 177 216 259 312
#     4  10  21  37  56  76  98 128 171 220 266 313
#     4  10  20  34  53  77 107 141 175 214 261 316
#     4   9  18  32  50  74 104 137 173 213 257 304
#     4  11  21  33  52  76 104 137 170 208 257 310
#     4   8  15  30  52  75  99 131 172 217 262 306
#
# _framework density 18.778590000000001
#
# number of rings (size 3 to 8) (size 9 to 14) (size 15 to 20)
#    0.000    2.500    0.000    3.500    0.000    2.000 
#    0.000    3.333    0.000    2.000    0.000    4.667 
#    0.000    0.000    0.000    0.000    0.000    0.000 
#
# Total GULP energy -1189577.901834 kJ/mol
# GULP energy per Si atom -12391.436477 kJ/mol
# Density = 1.873585 g / cm^3
# Si number density = 18.778590 Si / 1000 Ang^3
#
#
#
# Elastic Constant Matrix: (Units=GPa)
#
#
# Indices 1 2 3 4 5 6 
#
# 1 90.0867 44.2062 38.3272 0.0000 0.0000 0.0000
# 2 44.2062 90.0886 38.3279 0.0000 0.0000 0.0000
# 3 38.3272 38.3279 81.6577 0.0000 0.0000 0.0000
# 4 0.0000 0.0000 0.0000 23.5676 0.0000 0.0000
# 5 0.0000 0.0000 0.0000 0.0000 23.5679 0.0000
# 6 0.0000 0.0000 0.0000 0.0000 0.0000 27.3213
#
#
#
# Elastic Compliance Matrix: (Units=1/GPa)
#
#
# Indices 1 2 3 4 5 6 
#
# 1 0.015984 -0.005812 -0.004774 0.000000 0.000000 0.000000
# 2 -0.005812 0.015983 -0.004774 0.000000 0.000000 0.000000
# 3 -0.004774 -0.004774 0.016728 0.000000 0.000000 0.000000
# 4 0.000000 0.000000 0.000000 0.042431 0.000000 0.000000
# 5 0.000000 0.000000 0.000000 0.000000 0.042431 0.000000
# 6 0.000000 0.000000 0.000000 0.000000 0.000000 0.036601
#
#
# Mechanical properties :
#
#
# Convention : Reuss Voigt Hill
#
# Bulk Modulus (GPa) = 55.63533 55.95062 55.79298
# Shear Modulus (GPa) = 24.16978 24.28946 24.22962
#
# Velocity S-wave (km/s) = 3.59150 3.60038 3.59594
# Velocity P-wave (km/s) = 6.84761 6.86609 6.85686
#
# Compressibility (1/GPa) = 0.01797419
#
# Stress axis : x y z
#
# Youngs Moduli (GPa) = 62.56438 62.56550 59.78034
#
# Poissons Ratio (x) = 0.36363 0.28540
# Poissons Ratio (y) = 0.36362 0.28540
# Poissons Ratio (z) = 0.29869 0.29870
#
# Static dielectric constant tensor:
#      x y z
#    x 3.448950 0.000000 0.000000 
#    y 0.000000 3.448950 0.000000 
#    z 0.000000 0.000000 3.369440 
# 
# 
# High freq. dielectric constant tensor:
#      x y z
#    x 1.724810 0.000000 0.000000 
#    y 0.000000 1.724810 0.000000 
#    z 0.000000 0.000000 1.723290 
# 
# From -- ./inp_files/11898.got.cif
#   From: 2010.03.12/outbox.cif.g09.slc.cpg/sg139_6_cif.got.tgz:11898.got - 2010.04.08 09:46:31.
