data_PCOD8319553
_publ_section_title
;
Structure prediction by ZEFSAII (Michael W. Deem and Ramdas Pophale) SiO2 
 PCOD8319553
Probable space group: I 4/M M M
;
_chemical_formula_sum "Si O2"
_cell_formula_units_Z 160
_cell_length_a 21.828460
_cell_length_b 21.828460
_cell_length_c 18.018877
_cell_angle_alpha 90.000000
_cell_angle_beta 90.000000
_cell_angle_gamma 90.000000
_cell_volume 8585.664532
_symmetry_space_group_name_H-M "I 4/M M M"
_symmetry_group_IT_number 139
_symmetry_cell_setting 'tetragonal'
loop_
_space_group_symop_operation_xyz
x,y,z
-y,x,z
-x,-y,z
y,-x,z
x,-y,-z
-x,y,-z
y,x,-z
-y,-x,-z
-x,-y,-z
y,-x,-z
x,y,-z
-y,x,-z
-x,y,z
x,-y,z
-y,-x,z
y,x,z
1/2+x,1/2+y,1/2+z
1/2-y,1/2+x,1/2+z
1/2-x,1/2-y,1/2+z
1/2+y,1/2-x,1/2+z
1/2+x,1/2-y,1/2-z
1/2-x,1/2+y,1/2-z
1/2+y,1/2+x,1/2-z
1/2-y,1/2-x,1/2-z
1/2-x,1/2-y,1/2-z
1/2+y,1/2-x,1/2-z
1/2+x,1/2+y,1/2-z
1/2-y,1/2+x,1/2-z
1/2-x,1/2+y,1/2+z
1/2+x,1/2-y,1/2+z
1/2-y,1/2-x,1/2+z
1/2+y,1/2+x,1/2+z
loop_
_atom_site_type_symbol
_atom_site_label
_atom_site_fract_x
_atom_site_fract_y
_atom_site_fract_z
Si Si1 0.670531 0.571843 0.214283
Si Si2 0.500000 0.069583 0.588048
Si Si3 0.244021 0.427978 0.082562
Si Si4 0.379150 0.858634 0.586654
Si Si5 0.930417 0.168317 0.000000
Si Si6 0.625718 0.273789 0.641290
O O1 0.657058 0.500000 0.212637
O O2 0.605274 0.605274 0.218951
O O3 0.705506 0.595206 0.140757
O O4 0.712107 0.588831 0.284266
O O5 0.500000 0.065138 0.500000
O O6 0.559862 0.106754 0.615231
O O7 0.500000 0.000000 0.620646
O O8 0.237471 0.500000 0.087952
O O9 0.177511 0.402674 0.101972
O O10 0.264790 0.407219 0.000000
O O11 0.385092 0.840992 0.500000
O O12 0.365124 0.798766 0.635765
O O13 0.915958 0.207339 0.072430
O O14 0.894949 0.105051 0.000000
O O15 0.000000 0.148971 0.000000
O O16 0.691312 0.308689 0.639490
#
# Coordination Sequence:
#
# PCOD8319553 Si02
#       6
#    32  16  32  32  16  32
#     4  10  22  39  59  83 110 142 181 230 283 339
#     4   9  18  30  48  82 116 144 193 243 275 326
#     4   9  19  37  58  81 110 144 183 226 279 337
#     4  10  19  31  55  82 110 152 188 229 279 327
#     4  10  20  33  52  74 106 142 180 232 275 329
#     4  10  21  35  52  79 110 143 186 230 272 328
#
# _framework density 18.635715999999999
#
# number of rings (size 3 to 8) (size 9 to 14) (size 15 to 20)
#    0.000    2.300    1.000    1.200    2.800    4.700 
#    0.000    4.000    0.000    3.600    0.000    2.800 
#    0.000    0.000    0.000    0.000    0.000    0.000 
#
# Total GULP energy -992064.359733 kJ/mol
# GULP energy per Si atom -12400.804497 kJ/mol
# Density = 1.859330 g / cm^3
# Si number density = 18.635716 Si / 1000 Ang^3
#
#
#
# Elastic Constant Matrix: (Units=GPa)
#
#
# Indices 1 2 3 4 5 6 
#
# 1 74.7934 35.6534 37.5169 0.0000 0.0000 0.0000
# 2 35.6534 74.7934 37.5169 0.0000 0.0000 0.0000
# 3 37.5169 37.5169 106.0135 0.0000 0.0000 0.0000
# 4 0.0000 0.0000 0.0000 -717.2640 0.0000 0.0000
# 5 0.0000 0.0000 0.0000 0.0000 -717.2640 0.0000
# 6 0.0000 0.0000 0.0000 0.0000 0.0000 17.5223
#
#
#
# Elastic Compliance Matrix: (Units=1/GPa)
#
#
# Indices 1 2 3 4 5 6 
#
# 1 0.018735 -0.006815 -0.004218 0.000000 0.000000 0.000000
# 2 -0.006815 0.018735 -0.004218 0.000000 0.000000 0.000000
# 3 -0.004218 -0.004218 0.012418 0.000000 0.000000 0.000000
# 4 0.000000 0.000000 0.000000 -0.001394 0.000000 0.000000
# 5 0.000000 0.000000 0.000000 0.000000 -0.001394 0.000000
# 6 0.000000 0.000000 0.000000 0.000000 0.000000 0.057070
#
#
# Mechanical properties :
#
#
# Convention : Reuss Voigt Hill
#
# Bulk Modulus (GPa) = 51.58640 52.99719 52.29179
# Shear Modulus (GPa) = 35.42743 -273.74024 -119.15641
#
# Velocity S-wave (km/s) = 4.36483 -12.13297 -8.00491
# Velocity P-wave (km/s) = 7.28999 12.95293 7.57082
#
# Compressibility (1/GPa) = 0.01938495
#
# Stress axis : x y z
#
# Youngs Moduli (GPa) = 53.37718 53.37718 80.52582
#
# Poissons Ratio (x) = 0.36375 0.33968
# Poissons Ratio (y) = 0.36375 0.33968
# Poissons Ratio (z) = 0.22516 0.22516
#
# Static dielectric constant tensor:
#      x y z
#    x 3.366960 0.000000 0.000000 
#    y 0.000000 3.366960 0.000000 
#    z 0.000000 0.000000 3.639020 
# 
# 
# High freq. dielectric constant tensor:
#      x y z
#    x 1.724490 0.000000 0.000000 
#    y 0.000000 1.724490 0.000000 
#    z 0.000000 0.000000 1.715280 
# 
# From -- ./inp_files/8439.got.cif
#   From: 2010.03.12/outbox.cif.g09.slc.cpg/sg139_5_cif.got.tgz:8439.got - 2010.04.08 09:46:31.
