data_PCOD8319457
_publ_section_title
;
Structure prediction by ZEFSAII (Michael W. Deem and Ramdas Pophale) SiO2 
 PCOD8319457
Probable space group: I 4/M M M
;
_chemical_formula_sum "Si O2"
_cell_formula_units_Z 112
_cell_length_a 22.421685
_cell_length_b 22.421685
_cell_length_c 13.527404
_cell_angle_alpha 90.000000
_cell_angle_beta 90.000000
_cell_angle_gamma 90.000000
_cell_volume 6800.658303
_symmetry_space_group_name_H-M "I 4/M M M"
_symmetry_group_IT_number 139
_symmetry_cell_setting 'tetragonal'
loop_
_space_group_symop_operation_xyz
x,y,z
-y,x,z
-x,-y,z
y,-x,z
x,-y,-z
-x,y,-z
y,x,-z
-y,-x,-z
-x,-y,-z
y,-x,-z
x,y,-z
-y,x,-z
-x,y,z
x,-y,z
-y,-x,z
y,x,z
1/2+x,1/2+y,1/2+z
1/2-y,1/2+x,1/2+z
1/2-x,1/2-y,1/2+z
1/2+y,1/2-x,1/2+z
1/2+x,1/2-y,1/2-z
1/2-x,1/2+y,1/2-z
1/2+y,1/2+x,1/2-z
1/2-y,1/2-x,1/2-z
1/2-x,1/2-y,1/2-z
1/2+y,1/2-x,1/2-z
1/2+x,1/2+y,1/2-z
1/2-y,1/2+x,1/2-z
1/2-x,1/2+y,1/2+z
1/2+x,1/2-y,1/2+z
1/2-y,1/2-x,1/2+z
1/2+y,1/2+x,1/2+z
loop_
_atom_site_type_symbol
_atom_site_label
_atom_site_fract_x
_atom_site_fract_y
_atom_site_fract_z
Si Si1 0.067732 0.835789 0.886213
Si Si2 0.565250 0.000000 0.616834
Si Si3 0.211700 0.429255 0.289229
Si Si4 0.110870 0.642180 0.386187
O O1 0.109907 0.890094 0.854433
O O2 0.082832 0.779900 0.817023
O O3 0.000000 0.857174 0.869775
O O4 0.078016 0.817078 0.000000
O O5 0.598941 0.058770 0.651779
O O6 0.500000 0.000000 0.665671
O O7 0.560350 0.000000 0.500000
O O8 0.197402 0.500000 0.291325
O O9 0.171778 0.393843 0.369215
O O10 0.200797 0.398553 0.181865
O O11 0.105741 0.661862 0.500000
#
# Coordination Sequence:
#
# PCOD8319457 Si02
#       4
#    32  16  32  32
#     4   9  18  33  54  78 101 123 149 186 236 295
#     4   9  16  26  40  58  85 123 168 215 249 267
#     4  10  19  31  47  69  94 128 166 202 244 290
#     4  10  19  30  43  65  95 131 172 209 243 277
#
# _framework density 16.468995
#
# number of rings (size 3 to 8) (size 9 to 14) (size 15 to 20)
#    0.000    2.429    1.429    1.714    0.000    3.143 
#    0.000    4.286    0.000    2.571    0.000    0.000 
#    0.000    0.000    0.000    6.286    0.000    0.286 
#
# Total GULP energy -694214.453619 kJ/mol
# GULP energy per Si atom -12396.686672 kJ/mol
# Density = 1.643151 g / cm^3
# Si number density = 16.468995 Si / 1000 Ang^3
#
#
#
# Elastic Constant Matrix: (Units=GPa)
#
#
# Indices 1 2 3 4 5 6 
#
# 1 99.8160 68.5315 43.6386 0.0000 0.0000 0.0000
# 2 68.5315 99.8160 43.6386 0.0000 0.0000 0.0000
# 3 43.6386 43.6386 97.2057 0.0000 0.0000 0.0000
# 4 0.0000 0.0000 0.0000 19.0261 0.0000 0.0000
# 5 0.0000 0.0000 0.0000 0.0000 19.0261 0.0000
# 6 0.0000 0.0000 0.0000 0.0000 0.0000 25.7014
#
#
#
# Elastic Compliance Matrix: (Units=1/GPa)
#
#
# Indices 1 2 3 4 5 6 
#
# 1 0.019853 -0.012111 -0.003476 0.000000 0.000000 0.000000
# 2 -0.012111 0.019853 -0.003476 0.000000 0.000000 0.000000
# 3 -0.003476 -0.003476 0.013408 0.000000 0.000000 0.000000
# 4 0.000000 0.000000 0.000000 0.052559 0.000000 0.000000
# 5 0.000000 0.000000 0.000000 0.000000 0.052559 0.000000
# 6 0.000000 0.000000 0.000000 0.000000 0.000000 0.038908
#
#
# Mechanical properties :
#
#
# Convention : Reuss Voigt Hill
#
# Bulk Modulus (GPa) = 66.71298 67.60613 67.15955
# Shear Modulus (GPa) = 20.81048 22.15266 21.48157
#
# Velocity S-wave (km/s) = 3.55859 3.67156 3.61552
# Velocity P-wave (km/s) = 7.58162 7.68853 7.63526
#
# Compressibility (1/GPa) = 0.01498959
#
# Stress axis : x y z
#
# Youngs Moduli (GPa) = 50.36941 50.36941 74.58197
#
# Poissons Ratio (x) = 0.61004 0.25922
# Poissons Ratio (y) = 0.61004 0.25922
# Poissons Ratio (z) = 0.17506 0.17506
#
# Static dielectric constant tensor:
#      x y z
#    x 2.995170 0.000000 0.000000 
#    y 0.000000 2.995170 0.000000 
#    z 0.000000 0.000000 3.024850 
# 
# 
# High freq. dielectric constant tensor:
#      x y z
#    x 1.619040 0.000000 0.000000 
#    y 0.000000 1.619040 0.000000 
#    z 0.000000 0.000000 1.632340 
# 
# From -- ./inp_files/7864.got.cif
#   From: 2010.03.12/outbox.cif.g09.slc.cpg/sg139_4_cif.got.tgz:7864.got - 2010.04.08 09:46:31.
