data_PCOD8319092
_publ_section_title
;
Structure prediction by ZEFSAII (Michael W. Deem and Ramdas Pophale) SiO2 
 PCOD8319092
Probable space group: P 42/N C M
;
_chemical_formula_sum "Si O2"
_cell_formula_units_Z 56
_cell_length_a 17.232054
_cell_length_b 17.232054
_cell_length_c 9.755617
_cell_angle_alpha 90.000000
_cell_angle_beta 90.000000
_cell_angle_gamma 90.000000
_cell_volume 2896.868862
_symmetry_space_group_name_H-M "P 42/N C M"
_symmetry_group_IT_number 138
_space_group.IT_coordinate_system_code '2'
_symmetry_cell_setting 'tetragonal'
loop_
_space_group_symop_operation_xyz
x,y,z
1/2-y,x,1/2+z
1/2-x,1/2-y,z
y,1/2-x,1/2+z
1/2+x,-y,1/2-z
-x,1/2+y,1/2-z
1/2+y,1/2+x,-z
-y,-x,-z
-x,-y,-z
1/2+y,-x,1/2-z
1/2+x,1/2+y,-z
-y,1/2+x,1/2-z
1/2-x,y,1/2+z
x,1/2-y,1/2+z
1/2-y,1/2-x,z
y,x,z
loop_
_atom_site_type_symbol
_atom_site_label
_atom_site_fract_x
_atom_site_fract_y
_atom_site_fract_z
Si Si1 0.094209 0.094209 0.105733
Si Si2 0.400100 0.099901 0.292582
Si Si3 0.985150 0.985150 0.666536
Si Si4 0.021306 0.250899 0.707095
Si Si5 0.668476 0.055866 0.047708
O O1 0.035511 0.035511 0.178380
O O2 0.180816 0.075636 0.153731
O O3 0.079091 0.079091 0.947528
O O4 0.309525 0.081444 0.273480
O O5 0.449342 0.050658 0.182587
O O6 0.012642 0.911682 0.580082
O O7 0.954736 0.277530 0.817119
O O8 0.978280 0.213477 0.580063
O O9 0.644099 0.144099 0.000000
#
# Coordination Sequence:
#
# PCOD8319092 Si02
#       5
#     8   8   8  16  16
#     4  10  23  40  55 101 131 168 206 251 327 387
#     4  12  20  39  64  96 130 167 214 264 318 374
#     4  10  21  36  68  92 123 165 223 268 303 365
#     4  11  23  38  64  94 131 165 204 263 315 384
#     4  11  21  40  62  95 123 163 216 263 317 370
#
# _framework density 19.331216999999999
#
# number of rings (size 3 to 8) (size 9 to 14) (size 15 to 20)
#    0.000    1.143    5.714    1.714    0.000    0.571 
#    0.000    2.857    0.000    2.571    0.000    0.000 
#    0.000    0.000    0.000    0.000    0.000    0.000 
#
# Total GULP energy -693805.335371 kJ/mol
# GULP energy per Si atom -12389.380989 kJ/mol
# Density = 1.928722 g / cm^3
# Si number density = 19.331217 Si / 1000 Ang^3
#
#
#
# Elastic Constant Matrix: (Units=GPa)
#
#
# Indices 1 2 3 4 5 6 
#
# 1 85.2826 57.2175 47.2831 0.0000 0.0000 0.0000
# 2 57.2175 85.2826 47.2831 0.0000 0.0000 0.0000
# 3 47.2831 47.2831 160.3498 0.0000 0.0000 0.0000
# 4 0.0000 0.0000 0.0000 41.8297 0.0000 0.0000
# 5 0.0000 0.0000 0.0000 0.0000 41.8297 0.0000
# 6 0.0000 0.0000 0.0000 0.0000 0.0000 40.4118
#
#
#
# Elastic Compliance Matrix: (Units=1/GPa)
#
#
# Indices 1 2 3 4 5 6 
#
# 1 0.022178 -0.013453 -0.002573 0.000000 0.000000 0.000000
# 2 -0.013453 0.022178 -0.002573 0.000000 0.000000 0.000000
# 3 -0.002573 -0.002573 0.007754 0.000000 0.000000 0.000000
# 4 0.000000 0.000000 0.000000 0.023906 0.000000 0.000000
# 5 0.000000 0.000000 0.000000 0.000000 0.023906 0.000000
# 6 0.000000 0.000000 0.000000 0.000000 0.000000 0.024745
#
#
# Mechanical properties :
#
#
# Convention : Reuss Voigt Hill
#
# Bulk Modulus (GPa) = 67.05826 70.49805 68.77816
# Shear Modulus (GPa) = 29.96947 36.75632 33.36289
#
# Velocity S-wave (km/s) = 3.94167 4.36523 4.15885
# Velocity P-wave (km/s) = 7.44850 7.87113 7.66273
#
# Compressibility (1/GPa) = 0.01491241
#
# Stress axis : x y z
#
# Youngs Moduli (GPa) = 45.08942 45.08942 128.97167
#
# Poissons Ratio (x) = 0.60660 0.33181
# Poissons Ratio (y) = 0.60660 0.33181
# Poissons Ratio (z) = 0.11600 0.11600
#
# Static dielectric constant tensor:
#      x y z
#    x 3.779960 0.000000 0.000000 
#    y 0.000000 3.779960 0.000000 
#    z 0.000000 0.000000 3.924680 
# 
# 
# High freq. dielectric constant tensor:
#      x y z
#    x 1.740660 0.000000 0.000000 
#    y 0.000000 1.740660 0.000000 
#    z 0.000000 0.000000 1.787630 
# 
# From -- ./inp_files/1211.got.cif
#   From: 2010.03.12/outbox.cif.g09.slc.cpg/sg138_1_cif.got.tgz:1211.got - 2010.04.08 09:41:05.
