data_PCOD8319017
_publ_section_title
;
Structure prediction by ZEFSAII (Michael W. Deem and Ramdas Pophale) SiO2 
 PCOD8319017
Probable space group: P 42/N C M
;
_chemical_formula_sum "Si O2"
_cell_formula_units_Z 36
_cell_length_a 13.958879
_cell_length_b 13.958879
_cell_length_c 9.718713
_cell_angle_alpha 90.000000
_cell_angle_beta 90.000000
_cell_angle_gamma 90.000000
_cell_volume 1893.694172
_symmetry_space_group_name_H-M "P 42/N C M"
_symmetry_group_IT_number 138
_space_group.IT_coordinate_system_code '2'
_symmetry_cell_setting 'tetragonal'
loop_
_space_group_symop_operation_xyz
x,y,z
1/2-y,x,1/2+z
1/2-x,1/2-y,z
y,1/2-x,1/2+z
1/2+x,-y,1/2-z
-x,1/2+y,1/2-z
1/2+y,1/2+x,-z
-y,-x,-z
-x,-y,-z
1/2+y,-x,1/2-z
1/2+x,1/2+y,-z
-y,1/2+x,1/2-z
1/2-x,y,1/2+z
x,1/2-y,1/2+z
1/2-y,1/2-x,z
y,x,z
loop_
_atom_site_type_symbol
_atom_site_label
_atom_site_fract_x
_atom_site_fract_y
_atom_site_fract_z
Si Si1 0.659398 0.993550 0.349431
Si Si2 0.750000 0.250000 0.750000
Si Si3 0.314243 0.558980 0.846646
O O1 0.583259 0.076086 0.303964
O O2 0.689482 0.007623 0.507246
O O3 0.758367 0.992524 0.263042
O O4 0.608679 0.891322 0.329355
O O5 0.758027 0.340145 0.647726
#
# Coordination Sequence:
#
# PCOD8319017 Si02
#       3
#    16   4  16
#     4  10  20  35  55  78 106 137 171 215 262 310
#     4   8  16  26  48  82 108 130 168 226 276 306
#     4   9  18  32  53  80 107 136 171 215 265 308
#
# _framework density 19.010463000000001
#
# number of rings (size 3 to 8) (size 9 to 14) (size 15 to 20)
#    0.000    2.667    0.000    2.667    0.000   26.667 
#    0.000    6.667    0.000   10.667    0.000    0.000 
#    0.000    0.000    0.000    0.000    0.000    0.000 
#
# Total GULP energy -446053.110942 kJ/mol
# GULP energy per Si atom -12390.364193 kJ/mol
# Density = 1.896719 g / cm^3
# Si number density = 19.010463 Si / 1000 Ang^3
#
#
#
# Elastic Constant Matrix: (Units=GPa)
#
#
# Indices 1 2 3 4 5 6 
#
# 1 50.4078 19.7587 31.3953 0.0000 0.0000 0.0000
# 2 19.7587 50.4078 31.3953 0.0000 0.0000 0.0000
# 3 31.3953 31.3953 69.9767 0.0000 0.0000 0.0000
# 4 0.0000 0.0000 0.0000 3.7153 0.0000 0.0000
# 5 0.0000 0.0000 0.0000 0.0000 3.7153 0.0000
# 6 0.0000 0.0000 0.0000 0.0000 0.0000 19.3571
#
#
#
# Elastic Compliance Matrix: (Units=1/GPa)
#
#
# Indices 1 2 3 4 5 6 
#
# 1 0.028220 -0.004408 -0.010683 0.000000 0.000000 0.000000
# 2 -0.004408 0.028220 -0.010683 0.000000 0.000000 0.000000
# 3 -0.010683 -0.010683 0.023877 0.000000 0.000000 0.000000
# 4 0.000000 0.000000 0.000000 0.269154 0.000000 0.000000
# 5 0.000000 0.000000 0.000000 0.000000 0.269154 0.000000
# 6 0.000000 0.000000 0.000000 0.000000 0.000000 0.051661
#
#
# Mechanical properties :
#
#
# Convention : Reuss Voigt Hill
#
# Bulk Modulus (GPa) = 34.76146 37.32118 36.04132
# Shear Modulus (GPa) = 6.83599 11.24043 9.03821
#
# Velocity S-wave (km/s) = 1.89835 2.43425 2.18281
# Velocity P-wave (km/s) = 4.80938 5.25122 5.03515
#
# Compressibility (1/GPa) = 0.02876749
#
# Stress axis : x y z
#
# Youngs Moduli (GPa) = 35.43618 35.43618 41.88175
#
# Poissons Ratio (x) = 0.15619 0.44744
# Poissons Ratio (y) = 0.15619 0.44744
# Poissons Ratio (z) = 0.37858 0.37858
#
# Static dielectric constant tensor:
#      x y z
#    x 3.406700 0.000000 0.000000 
#    y 0.000000 3.406700 0.000000 
#    z 0.000000 0.000000 3.350320 
# 
# 
# High freq. dielectric constant tensor:
#      x y z
#    x 1.718380 0.000000 0.000000 
#    y 0.000000 1.718380 0.000000 
#    z 0.000000 0.000000 1.728140 
# 
# From -- ./inp_files/776.got.cif
#   From: 2010.03.12/outbox.cif.g09.slc.cpg/sg138_1_cif.got.tgz:776.got - 2010.04.08 09:41:05.
