data_PCOD8319636
_publ_section_title
;
Structure prediction by ZEFSAII (Michael W. Deem and Ramdas Pophale) SiO2 
 PCOD8319636
Probable space group: I 4/M M M
;
_chemical_formula_sum "Si O2"
_cell_formula_units_Z 160
_cell_length_a 19.184463
_cell_length_b 19.184463
_cell_length_c 24.776599
_cell_angle_alpha 90.000000
_cell_angle_beta 90.000000
_cell_angle_gamma 90.000000
_cell_volume 9118.869202
_symmetry_space_group_name_H-M "I 4/M M M"
_symmetry_group_IT_number 139
_symmetry_cell_setting 'tetragonal'
loop_
_space_group_symop_operation_xyz
x,y,z
-y,x,z
-x,-y,z
y,-x,z
x,-y,-z
-x,y,-z
y,x,-z
-y,-x,-z
-x,-y,-z
y,-x,-z
x,y,-z
-y,x,-z
-x,y,z
x,-y,z
-y,-x,z
y,x,z
1/2+x,1/2+y,1/2+z
1/2-y,1/2+x,1/2+z
1/2-x,1/2-y,1/2+z
1/2+y,1/2-x,1/2+z
1/2+x,1/2-y,1/2-z
1/2-x,1/2+y,1/2-z
1/2+y,1/2+x,1/2-z
1/2-y,1/2-x,1/2-z
1/2-x,1/2-y,1/2-z
1/2+y,1/2-x,1/2-z
1/2+x,1/2+y,1/2-z
1/2-y,1/2+x,1/2-z
1/2-x,1/2+y,1/2+z
1/2+x,1/2-y,1/2+z
1/2-y,1/2-x,1/2+z
1/2+y,1/2+x,1/2+z
loop_
_atom_site_type_symbol
_atom_site_label
_atom_site_fract_x
_atom_site_fract_y
_atom_site_fract_z
Si Si1 0.579017 0.804217 0.396590
Si Si2 0.918854 0.807056 0.189145
Si Si3 0.744340 0.365636 0.500000
Si Si4 0.190290 0.418980 0.895056
Si Si5 0.638349 0.251401 0.000000
Si Si6 0.239225 0.648745 0.214630
O O1 0.500000 0.826432 0.387218
O O2 0.606945 0.759029 0.346239
O O3 0.585943 0.754257 0.448164
O O4 0.619755 0.876135 0.404741
O O5 0.875338 0.875338 0.172072
O O6 0.903658 0.787267 0.250904
O O7 0.000000 0.823401 0.179866
O O8 0.666835 0.333166 0.500000
O O9 0.799916 0.303869 0.500000
O O10 0.171375 0.500000 0.890265
O O11 0.242188 0.407652 0.945768
O O12 0.223035 0.392555 0.839556
O O13 0.670894 0.329107 0.000000
O O14 0.281139 0.718862 0.198977
O O15 0.171234 0.671234 0.250000
#
# Coordination Sequence:
#
# PCOD8319636 Si02
#       6
#    32  32  16  32  16  32
#     4  10  20  33  49  71 103 141 179 214 261 322
#     4  10  20  34  53  77 104 136 175 220 271 326
#     4   9  17  30  51  73  93 123 169 221 263 299
#     4  11  21  34  53  78 109 141 180 228 274 323
#     4   9  19  34  53  77 103 133 171 219 276 326
#     4  10  19  33  55  78 103 137 178 223 275 325
#
# _framework density 17.546035
#
# number of rings (size 3 to 8) (size 9 to 14) (size 15 to 20)
#    0.000    2.000    2.000    2.400    0.000    2.200 
#    0.000    0.000    0.000    3.600    0.000    0.000 
#    0.000   22.400    0.000    0.000    0.000    0.000 
#
# Total GULP energy -991941.338800 kJ/mol
# GULP energy per Si atom -12399.266735 kJ/mol
# Density = 1.750610 g / cm^3
# Si number density = 17.546035 Si / 1000 Ang^3
#
#
#
# Elastic Constant Matrix: (Units=GPa)
#
#
# Indices 1 2 3 4 5 6 
#
# 1 84.0663 54.2776 41.3062 0.0000 0.0000 0.0000
# 2 54.2776 84.0660 41.3063 0.0000 0.0000 0.0000
# 3 41.3062 41.3063 126.1737 0.0000 0.0000 0.0000
# 4 0.0000 0.0000 0.0000 24.3461 0.0000 0.0000
# 5 0.0000 0.0000 0.0000 0.0000 24.3460 0.0000
# 6 0.0000 0.0000 0.0000 0.0000 0.0000 21.1425
#
#
#
# Elastic Compliance Matrix: (Units=1/GPa)
#
#
# Indices 1 2 3 4 5 6 
#
# 1 0.021277 -0.012293 -0.002941 0.000000 0.000000 0.000000
# 2 -0.012293 0.021277 -0.002941 0.000000 0.000000 0.000000
# 3 -0.002941 -0.002941 0.009851 0.000000 0.000000 0.000000
# 4 0.000000 0.000000 0.000000 0.041074 0.000000 0.000000
# 5 0.000000 0.000000 0.000000 0.000000 0.041075 0.000000
# 6 0.000000 0.000000 0.000000 0.000000 0.000000 0.047298
#
#
# Mechanical properties :
#
#
# Convention : Reuss Voigt Hill
#
# Bulk Modulus (GPa) = 62.28397 63.12068 62.70233
# Shear Modulus (GPa) = 22.36579 24.46133 23.41356
#
# Velocity S-wave (km/s) = 3.57416 3.73785 3.65692
# Velocity P-wave (km/s) = 7.25309 7.39467 7.32422
#
# Compressibility (1/GPa) = 0.01605549
#
# Stress axis : x y z
#
# Youngs Moduli (GPa) = 46.99838 46.99813 101.50755
#
# Poissons Ratio (x) = 0.57773 0.29857
# Poissons Ratio (y) = 0.57773 0.29858
# Poissons Ratio (z) = 0.13824 0.13824
#
# Static dielectric constant tensor:
#      x y z
#    x 3.096250 0.000000 0.000000 
#    y 0.000000 3.096250 0.000000 
#    z 0.000000 0.000000 3.422320 
# 
# 
# High freq. dielectric constant tensor:
#      x y z
#    x 1.661270 0.000000 0.000000 
#    y 0.000000 1.661270 0.000000 
#    z 0.000000 0.000000 1.695100 
# 
# From -- ./inp_files/12955.got.cif
#   From: 2010.03.12/outbox.cif.g09.slc.cpg/sg139_7_cif.got.tgz:12955.got - 2010.04.08 09:46:31.
