data_PCOD8319382
_publ_section_title
;
Structure prediction by ZEFSAII (Michael W. Deem and Ramdas Pophale) SiO2 
 PCOD8319382
Probable space group: I 4/M M M
;
_chemical_formula_sum "Si O2"
_cell_formula_units_Z 192
_cell_length_a 21.270582
_cell_length_b 21.270582
_cell_length_c 22.436813
_cell_angle_alpha 90.000000
_cell_angle_beta 90.000000
_cell_angle_gamma 90.000000
_cell_volume 10151.259141
_symmetry_space_group_name_H-M "I 4/M M M"
_symmetry_group_IT_number 139
_symmetry_cell_setting 'tetragonal'
loop_
_space_group_symop_operation_xyz
x,y,z
-y,x,z
-x,-y,z
y,-x,z
x,-y,-z
-x,y,-z
y,x,-z
-y,-x,-z
-x,-y,-z
y,-x,-z
x,y,-z
-y,x,-z
-x,y,z
x,-y,z
-y,-x,z
y,x,z
1/2+x,1/2+y,1/2+z
1/2-y,1/2+x,1/2+z
1/2-x,1/2-y,1/2+z
1/2+y,1/2-x,1/2+z
1/2+x,1/2-y,1/2-z
1/2-x,1/2+y,1/2-z
1/2+y,1/2+x,1/2-z
1/2-y,1/2-x,1/2-z
1/2-x,1/2-y,1/2-z
1/2+y,1/2-x,1/2-z
1/2+x,1/2+y,1/2-z
1/2-y,1/2+x,1/2-z
1/2-x,1/2+y,1/2+z
1/2+x,1/2-y,1/2+z
1/2-y,1/2-x,1/2+z
1/2+y,1/2+x,1/2+z
loop_
_atom_site_type_symbol
_atom_site_label
_atom_site_fract_x
_atom_site_fract_y
_atom_site_fract_z
Si Si1 0.896137 0.797847 0.065207
Si Si2 0.676618 0.426181 0.000000
Si Si3 0.348023 0.882791 0.067736
Si Si4 0.072253 0.500000 0.428933
Si Si5 0.142233 0.756774 0.605380
Si Si6 0.747871 0.849378 0.740282
Si Si7 0.330887 0.568811 0.689637
O O1 0.823793 0.823793 0.069857
O O2 0.902155 0.723896 0.072936
O O3 0.935810 0.829700 0.117771
O O4 0.923815 0.816370 0.000000
O O5 0.715431 0.409325 0.059977
O O6 0.662645 0.500000 0.000000
O O7 0.610363 0.389638 0.000000
O O8 0.392216 0.937605 0.095562
O O9 0.355795 0.817805 0.101457
O O10 0.368278 0.871160 0.000000
O O11 0.076543 0.500000 0.500000
O O12 0.000000 0.500000 0.406729
O O13 0.209481 0.790520 0.591185
O O14 0.125032 0.766275 0.674619
O O15 0.791863 0.791863 0.759470
O O16 0.675881 0.824120 0.750000
O O17 0.763557 0.905591 0.786283
O O18 0.343223 0.500000 0.715855
O O19 0.387216 0.612785 0.712993
#
# Coordination Sequence:
#
# PCOD8319382 Si02
#       7
#    32  16  32  16  32  32  32
#     4   9  18  31  51  80 111 140 176 227 281 328
#     4  10  22  37  54  81 113 149 189 237 292 350
#     4  10  18  30  50  76 105 144 175 217 271 322
#     4   9  20  34  44  64 104 148 187 217 254 320
#     4  10  19  33  55  83 111 137 178 236 290 339
#     4   9  18  34  56  80 109 141 176 226 287 338
#     4  10  21  36  54  79 110 145 183 226 273 332
#
# _framework density 18.913909
#
# number of rings (size 3 to 8) (size 9 to 14) (size 15 to 20)
#    0.000    2.417    0.833    1.500    1.167    5.250 
#    0.000    0.000    0.000    0.000    0.000    7.000 
#    0.000    0.000    0.000    0.000    0.000    0.000 
#
# Total GULP energy -1189463.043864 kJ/mol
# GULP energy per Si atom -12390.240040 kJ/mol
# Density = 1.887086 g / cm^3
# Si number density = 18.913909 Si / 1000 Ang^3
#
#
#
# Elastic Constant Matrix: (Units=GPa)
#
#
# Indices 1 2 3 4 5 6 
#
# 1 110.2080 48.1284 27.0129 0.0000 0.0000 0.0000
# 2 48.1284 110.2064 27.0125 0.0000 0.0000 0.0000
# 3 27.0129 27.0125 84.1345 0.0000 0.0000 0.0000
# 4 0.0000 0.0000 0.0000 7.9083 0.0000 0.0000
# 5 0.0000 0.0000 0.0000 0.0000 7.9087 0.0000
# 6 0.0000 0.0000 0.0000 0.0000 0.0000 24.9813
#
#
#
# Elastic Compliance Matrix: (Units=1/GPa)
#
#
# Indices 1 2 3 4 5 6 
#
# 1 0.011601 -0.004508 -0.002277 0.000000 0.000000 0.000000
# 2 -0.004508 0.011601 -0.002277 0.000000 0.000000 0.000000
# 3 -0.002277 -0.002277 0.013348 0.000000 0.000000 0.000000
# 4 0.000000 0.000000 0.000000 0.126450 0.000000 0.000000
# 5 0.000000 0.000000 0.000000 0.000000 0.126443 0.000000
# 6 0.000000 0.000000 0.000000 0.000000 0.000000 0.040030
#
#
# Mechanical properties :
#
#
# Convention : Reuss Voigt Hill
#
# Bulk Modulus (GPa) = 54.27551 56.53962 55.40756
# Shear Modulus (GPa) = 14.13475 21.65267 17.89371
#
# Velocity S-wave (km/s) = 2.73668 3.38716 3.07915
# Velocity P-wave (km/s) = 6.22449 6.72720 6.48072
#
# Compressibility (1/GPa) = 0.01842452
#
# Stress axis : x y z
#
# Youngs Moduli (GPa) = 86.20280 86.20160 74.91754
#
# Poissons Ratio (x) = 0.38859 0.17060
# Poissons Ratio (y) = 0.38860 0.17060
# Poissons Ratio (z) = 0.19630 0.19630
#
# Static dielectric constant tensor:
#      x y z
#    x 3.387520 0.000000 0.000000 
#    y 0.000000 3.387530 0.000000 
#    z 0.000000 0.000000 3.473030 
# 
# 
# High freq. dielectric constant tensor:
#      x y z
#    x 1.714850 0.000000 0.000000 
#    y 0.000000 1.714850 0.000000 
#    z 0.000000 0.000000 1.727580 
# 
# From -- ./inp_files/12021.got.cif
#   From: 2010.03.12/outbox.cif.g09.slc.cpg/sg139_7_cif.got.tgz:12021.got - 2010.04.08 09:46:31.
