data_PCOD8319107
_publ_section_title
;
Structure prediction by ZEFSAII (Michael W. Deem and Ramdas Pophale) SiO2 
 PCOD8319107
Probable space group: P 42/N C M
;
_chemical_formula_sum "Si O2"
_cell_formula_units_Z 96
_cell_length_a 15.159903
_cell_length_b 15.159903
_cell_length_c 19.233921
_cell_angle_alpha 90.000000
_cell_angle_beta 90.000000
_cell_angle_gamma 90.000000
_cell_volume 4420.390867
_symmetry_space_group_name_H-M "P 42/N C M"
_symmetry_group_IT_number 138
_space_group.IT_coordinate_system_code '2'
_symmetry_cell_setting 'tetragonal'
loop_
_space_group_symop_operation_xyz
x,y,z
1/2-y,x,1/2+z
1/2-x,1/2-y,z
y,1/2-x,1/2+z
1/2+x,-y,1/2-z
-x,1/2+y,1/2-z
1/2+y,1/2+x,-z
-y,-x,-z
-x,-y,-z
1/2+y,-x,1/2-z
1/2+x,1/2+y,-z
-y,1/2+x,1/2-z
1/2-x,y,1/2+z
x,1/2-y,1/2+z
1/2-y,1/2-x,z
y,x,z
loop_
_atom_site_type_symbol
_atom_site_label
_atom_site_fract_x
_atom_site_fract_y
_atom_site_fract_z
Si Si1 0.667913 0.667913 0.903757
Si Si2 0.677939 0.677939 0.610517
Si Si3 0.717925 0.350630 0.161194
Si Si4 0.870374 0.870374 0.755822
Si Si5 0.046369 0.788113 0.793578
Si Si6 0.252854 0.501258 0.446656
Si Si7 0.954690 0.817848 0.413426
Si Si8 0.571094 0.928906 0.508540
O O1 0.674621 0.674621 0.821675
O O2 0.761615 0.634412 0.932227
O O3 0.596405 0.596405 0.929367
O O4 0.750000 0.750000 0.583295
O O5 0.678551 0.678551 0.693600
O O6 0.578399 0.695305 0.588312
O O7 0.750000 0.250000 0.153929
O O8 0.742978 0.393565 0.235023
O O9 0.610980 0.347509 0.158391
O O10 0.757579 0.409215 0.098541
O O11 0.975149 0.851732 0.757263
O O12 0.999917 0.712949 0.841534
O O13 0.300118 0.520544 0.521477
O O14 0.152267 0.470130 0.449988
O O15 0.919662 0.919662 0.407522
O O16 0.500000 0.000000 0.500000
#
# Coordination Sequence:
#
# PCOD8319107 Si02
#       8
#     8   8  16   8  16  16  16   8
#     4   8  19  35  58  93 141 187 222 276 348 417
#     4  12  22  40  64 104 152 189 222 275 372 447
#     4  12  25  48  71  92 130 185 249 298 352 402
#     4  10  22  38  60 103 136 172 234 285 353 417
#     4  11  23  44  69  98 134 183 237 300 347 422
#     4  11  24  40  70 103 145 188 224 290 354 432
#     4  10  21  39  66 101 144 184 226 277 357 432
#     4  10  22  38  63 103 142 181 232 290 344 425
#
# _framework density 21.717535999999999
#
# number of rings (size 3 to 8) (size 9 to 14) (size 15 to 20)
#    0.000    1.333    5.000    0.250    7.000    2.667 
#    3.000    2.500    1.833    1.000    0.000    0.000 
#    0.000    0.000    0.000    0.000    0.000    0.000 
#
# Total GULP energy -1189442.317468 kJ/mol
# GULP energy per Si atom -12390.024140 kJ/mol
# Density = 2.166811 g / cm^3
# Si number density = 21.717536 Si / 1000 Ang^3
#
#
#
# Elastic Constant Matrix: (Units=GPa)
#
#
# Indices 1 2 3 4 5 6 
#
# 1 85.1746 93.6165 45.3204 0.0000 0.0000 0.0000
# 2 93.6165 85.1746 45.3204 0.0000 0.0000 0.0000
# 3 45.3204 45.3204 118.0897 0.0000 0.0000 0.0000
# 4 0.0000 0.0000 0.0000 27.6905 0.0000 0.0000
# 5 0.0000 0.0000 0.0000 0.0000 27.6905 0.0000
# 6 0.0000 0.0000 0.0000 0.0000 0.0000 38.8064
#
#
#
# Elastic Compliance Matrix: (Units=1/GPa)
#
#
# Indices 1 2 3 4 5 6 
#
# 1 -0.055756 0.062700 -0.002665 0.000000 0.000000 0.000000
# 2 0.062700 -0.055756 -0.002665 0.000000 0.000000 0.000000
# 3 -0.002665 -0.002665 0.010514 0.000000 0.000000 0.000000
# 4 0.000000 0.000000 0.000000 0.036114 0.000000 0.000000
# 5 0.000000 0.000000 0.000000 0.000000 0.036114 0.000000
# 6 0.000000 0.000000 0.000000 0.000000 0.000000 0.025769
#
#
# Mechanical properties :
#
#
# Convention : Reuss Voigt Hill
#
# Bulk Modulus (GPa) = 72.76985 72.99482 72.88234
# Shear Modulus (GPa) = -44.18427 25.78291 -9.20068
#
# Velocity S-wave (km/s) = -4.51543 3.44930 -2.06051
# Velocity P-wave (km/s) = 2.52876 7.03900 5.28877
#
# Compressibility (1/GPa) = 0.01374195
#
# Stress axis : x y z
#
# Youngs Moduli (GPa) = -17.93525 -17.93525 95.11389
#
# Poissons Ratio (x) = 1.12455 0.25348
# Poissons Ratio (y) = 1.12455 0.25348
# Poissons Ratio (z) = -0.04780 -0.04780
#
# Static dielectric constant tensor:
#      x y z
#    x 3.945780 0.000000 0.000000 
#    y 0.000000 3.945780 0.000000 
#    z 0.000000 0.000000 4.205820 
# 
# 
# High freq. dielectric constant tensor:
#      x y z
#    x 1.847960 0.000000 0.000000 
#    y 0.000000 1.847960 0.000000 
#    z 0.000000 0.000000 1.859120 
# 
# From -- ./inp_files/6337.got.cif
#   From: 2010.03.12/outbox.cif.g09.slc.cpg/sg138_4_cif.got.tgz:6337.got - 2010.04.08 09:41:05.
