data_PCOD8319360
_publ_section_title
;
Structure prediction by ZEFSAII (Michael W. Deem and Ramdas Pophale) SiO2 
 PCOD8319360
Probable space group: I 4/M M M
;
_chemical_formula_sum "Si O2"
_cell_formula_units_Z 80
_cell_length_a 15.427765
_cell_length_b 15.427765
_cell_length_c 18.582769
_cell_angle_alpha 90.000000
_cell_angle_beta 90.000000
_cell_angle_gamma 90.000000
_cell_volume 4422.995099
_symmetry_space_group_name_H-M "I 4/M M M"
_symmetry_group_IT_number 139
_symmetry_cell_setting 'tetragonal'
loop_
_space_group_symop_operation_xyz
x,y,z
-y,x,z
-x,-y,z
y,-x,z
x,-y,-z
-x,y,-z
y,x,-z
-y,-x,-z
-x,-y,-z
y,-x,-z
x,y,-z
-y,x,-z
-x,y,z
x,-y,z
-y,-x,z
y,x,z
1/2+x,1/2+y,1/2+z
1/2-y,1/2+x,1/2+z
1/2-x,1/2-y,1/2+z
1/2+y,1/2-x,1/2+z
1/2+x,1/2-y,1/2-z
1/2-x,1/2+y,1/2-z
1/2+y,1/2+x,1/2-z
1/2-y,1/2-x,1/2-z
1/2-x,1/2-y,1/2-z
1/2+y,1/2-x,1/2-z
1/2+x,1/2+y,1/2-z
1/2-y,1/2+x,1/2-z
1/2-x,1/2+y,1/2+z
1/2+x,1/2-y,1/2+z
1/2-y,1/2-x,1/2+z
1/2+y,1/2+x,1/2+z
loop_
_atom_site_type_symbol
_atom_site_label
_atom_site_fract_x
_atom_site_fract_y
_atom_site_fract_z
Si Si1 0.595176 0.735317 0.708783
Si Si2 0.098083 0.671831 0.351159
Si Si3 0.239508 0.098822 0.500000
O O1 0.500000 0.697496 0.690721
O O2 0.667887 0.667887 0.681496
O O3 0.601952 0.828876 0.669750
O O4 0.604759 0.748635 0.794654
O O5 0.121170 0.703881 0.430444
O O6 0.000000 0.632091 0.348541
O O7 0.152182 0.152182 0.500000
O O8 0.209576 0.000000 0.500000
#
# Coordination Sequence:
#
# PCOD8319360 Si02
#       3
#    32  32  16
#     4  10  19  32  50  71  98 130 163 200 239 283
#     4   9  18  32  51  73  96 125 160 198 241 286
#     4  10  18  29  47  71 100 130 158 192 237 292
#
# _framework density 18.087292000000001
#
# number of rings (size 3 to 8) (size 9 to 14) (size 15 to 20)
#    0.000    2.400    0.000    4.800    0.000    1.400 
#    0.000    5.000    0.000   10.800    0.000    0.000 
#    0.000    4.800    0.000    0.000    0.000    0.400 
#
# Total GULP energy -495782.875967 kJ/mol
# GULP energy per Si atom -12394.571899 kJ/mol
# Density = 1.804612 g / cm^3
# Si number density = 18.087292 Si / 1000 Ang^3
#
#
#
# Elastic Constant Matrix: (Units=GPa)
#
#
# Indices 1 2 3 4 5 6 
#
# 1 97.2055 58.9778 38.2040 0.0000 0.0000 0.0000
# 2 58.9778 97.2055 38.2040 0.0000 0.0000 0.0000
# 3 38.2040 38.2040 117.4170 0.0000 0.0000 0.0000
# 4 0.0000 0.0000 0.0000 13.6395 0.0000 0.0000
# 5 0.0000 0.0000 0.0000 0.0000 13.6395 0.0000
# 6 0.0000 0.0000 0.0000 0.0000 0.0000 17.1625
#
#
#
# Elastic Compliance Matrix: (Units=1/GPa)
#
#
# Indices 1 2 3 4 5 6 
#
# 1 0.016887 -0.009272 -0.002478 0.000000 0.000000 0.000000
# 2 -0.009272 0.016887 -0.002478 0.000000 0.000000 0.000000
# 3 -0.002478 -0.002478 0.010129 0.000000 0.000000 0.000000
# 4 0.000000 0.000000 0.000000 0.073317 0.000000 0.000000
# 5 0.000000 0.000000 0.000000 0.000000 0.073317 0.000000
# 6 0.000000 0.000000 0.000000 0.000000 0.000000 0.058267
#
#
# Mechanical properties :
#
#
# Convention : Reuss Voigt Hill
#
# Bulk Modulus (GPa) = 64.73299 64.73328 64.73314
# Shear Modulus (GPa) = 17.70497 20.65112 19.17804
#
# Velocity S-wave (km/s) = 3.13207 3.38264 3.25976
# Velocity P-wave (km/s) = 6.99619 7.15006 7.07355
#
# Compressibility (1/GPa) = 0.01544807
#
# Stress axis : x y z
#
# Youngs Moduli (GPa) = 59.21745 59.21745 98.72687
#
# Poissons Ratio (x) = 0.54907 0.24461
# Poissons Ratio (y) = 0.54907 0.24461
# Poissons Ratio (z) = 0.14672 0.14672
#
# Static dielectric constant tensor:
#      x y z
#    x 3.210640 0.000000 0.000000 
#    y 0.000000 3.210640 0.000000 
#    z 0.000000 0.000000 3.431110 
# 
# 
# High freq. dielectric constant tensor:
#      x y z
#    x 1.687560 0.000000 0.000000 
#    y 0.000000 1.687560 0.000000 
#    z 0.000000 0.000000 1.693930 
# 
# From -- ./inp_files/9297.got.cif
#   From: 2010.03.12/outbox.cif.g09.slc.cpg/sg139_5_cif.got.tgz:9297.got - 2010.04.08 09:46:31.
