data_PCOD8319775
_publ_section_title
;
Structure prediction by ZEFSAII (Michael W. Deem and Ramdas Pophale) SiO2 
 PCOD8319775
Probable space group: I 4/M M M
;
_chemical_formula_sum "Si O2"
_cell_formula_units_Z 112
_cell_length_a 18.864511
_cell_length_b 18.864511
_cell_length_c 18.145061
_cell_angle_alpha 90.000000
_cell_angle_beta 90.000000
_cell_angle_gamma 90.000000
_cell_volume 6457.278780
_symmetry_space_group_name_H-M "I 4/M M M"
_symmetry_group_IT_number 139
_symmetry_cell_setting 'tetragonal'
loop_
_space_group_symop_operation_xyz
x,y,z
-y,x,z
-x,-y,z
y,-x,z
x,-y,-z
-x,y,-z
y,x,-z
-y,-x,-z
-x,-y,-z
y,-x,-z
x,y,-z
-y,x,-z
-x,y,z
x,-y,z
-y,-x,z
y,x,z
1/2+x,1/2+y,1/2+z
1/2-y,1/2+x,1/2+z
1/2-x,1/2-y,1/2+z
1/2+y,1/2-x,1/2+z
1/2+x,1/2-y,1/2-z
1/2-x,1/2+y,1/2-z
1/2+y,1/2+x,1/2-z
1/2-y,1/2-x,1/2-z
1/2-x,1/2-y,1/2-z
1/2+y,1/2-x,1/2-z
1/2+x,1/2+y,1/2-z
1/2-y,1/2+x,1/2-z
1/2-x,1/2+y,1/2+z
1/2+x,1/2-y,1/2+z
1/2-y,1/2-x,1/2+z
1/2+y,1/2+x,1/2+z
loop_
_atom_site_type_symbol
_atom_site_label
_atom_site_fract_x
_atom_site_fract_y
_atom_site_fract_z
Si Si1 0.383455 0.500000 0.918976
Si Si2 0.418813 0.152655 0.416562
Si Si3 0.000000 0.237797 0.302756
Si Si4 0.634501 0.000000 0.414143
Si Si5 0.141195 0.745019 0.207940
O O1 0.430039 0.430039 0.913231
O O2 0.333778 0.500000 0.848580
O O3 0.345115 0.500000 0.000000
O O4 0.393381 0.163469 0.500000
O O5 0.500000 0.173067 0.405583
O O6 0.410115 0.070191 0.393857
O O7 0.372979 0.207158 0.369531
O O8 0.069150 0.242314 0.252240
O O9 0.000000 0.297396 0.363942
O O10 0.656312 0.000000 0.500000
O O11 0.179551 0.820450 0.194186
O O12 0.192950 0.692950 0.250000
#
# Coordination Sequence:
#
# PCOD8319775 Si02
#       5
#    16  32  16  16  32
#     4   9  19  36  56  79 106 137 178 225 273 326
#     4  10  20  37  58  81 109 143 181 222 270 324
#     4  12  20  35  57  77 110 146 182 220 269 322
#     4  10  20  33  54  84 113 141 175 214 261 329
#     4  11  23  37  54  81 112 144 186 230 271 326
#
# _framework density 17.344767000000001
#
# number of rings (size 3 to 8) (size 9 to 14) (size 15 to 20)
#    0.000    1.571    4.286    2.143    0.000    2.286 
#    0.000    0.000    0.000    0.000    0.000    0.000 
#    0.000    2.286    0.000    0.000    0.000    0.000 
#
# Total GULP energy -694259.388605 kJ/mol
# GULP energy per Si atom -12397.489082 kJ/mol
# Density = 1.730529 g / cm^3
# Si number density = 17.344767 Si / 1000 Ang^3
#
#
#
# Elastic Constant Matrix: (Units=GPa)
#
#
# Indices 1 2 3 4 5 6 
#
# 1 97.3444 40.9196 50.5864 0.0000 0.0000 0.0000
# 2 40.9196 97.3444 50.5864 0.0000 0.0000 0.0000
# 3 50.5864 50.5864 89.8496 0.0000 0.0000 0.0000
# 4 0.0000 0.0000 0.0000 34.0972 0.0000 0.0000
# 5 0.0000 0.0000 0.0000 0.0000 34.0972 0.0000
# 6 0.0000 0.0000 0.0000 0.0000 0.0000 30.7705
#
#
#
# Elastic Compliance Matrix: (Units=1/GPa)
#
#
# Indices 1 2 3 4 5 6 
#
# 1 0.015011 -0.002711 -0.006925 0.000000 0.000000 0.000000
# 2 -0.002711 0.015011 -0.006925 0.000000 0.000000 0.000000
# 3 -0.006925 -0.006925 0.018927 0.000000 0.000000 0.000000
# 4 0.000000 0.000000 0.000000 0.029328 0.000000 0.000000
# 5 0.000000 0.000000 0.000000 0.000000 0.029328 0.000000
# 6 0.000000 0.000000 0.000000 0.000000 0.000000 0.032499
#
#
# Mechanical properties :
#
#
# Convention : Reuss Voigt Hill
#
# Bulk Modulus (GPa) = 63.18238 63.19145 63.18692
# Shear Modulus (GPa) = 28.01081 29.28939 28.65010
#
# Velocity S-wave (km/s) = 4.02299 4.11379 4.06864
# Velocity P-wave (km/s) = 7.62140 7.68609 7.65381
#
# Compressibility (1/GPa) = 0.01582720
#
# Stress axis : x y z
#
# Youngs Moduli (GPa) = 66.61683 66.61683 52.83369
#
# Poissons Ratio (x) = 0.18063 0.36587
# Poissons Ratio (y) = 0.18063 0.36587
# Poissons Ratio (z) = 0.46132 0.46132
#
# Static dielectric constant tensor:
#      x y z
#    x 3.292840 0.000000 0.000000 
#    y 0.000000 3.292840 0.000000 
#    z 0.000000 0.000000 3.321280 
# 
# 
# High freq. dielectric constant tensor:
#      x y z
#    x 1.670420 0.000000 0.000000 
#    y 0.000000 1.670420 0.000000 
#    z 0.000000 0.000000 1.676650 
# 
# From -- ./inp_files/7604.got.cif
#   From: 2010.03.12/outbox.cif.g09.slc.cpg/sg139_4_cif.got.tgz:7604.got - 2010.04.08 09:46:31.
