data_PCOD8319685
_publ_section_title
;
Structure prediction by ZEFSAII (Michael W. Deem and Ramdas Pophale) SiO2 
 PCOD8319685
Probable space group: I 4/M M M
;
_chemical_formula_sum "Si O2"
_cell_formula_units_Z 240
_cell_length_a 21.145704
_cell_length_b 21.145704
_cell_length_c 30.061484
_cell_angle_alpha 90.000000
_cell_angle_beta 90.000000
_cell_angle_gamma 90.000000
_cell_volume 13441.715934
_symmetry_space_group_name_H-M "I 4/M M M"
_symmetry_group_IT_number 139
_symmetry_cell_setting 'tetragonal'
loop_
_space_group_symop_operation_xyz
x,y,z
-y,x,z
-x,-y,z
y,-x,z
x,-y,-z
-x,y,-z
y,x,-z
-y,-x,-z
-x,-y,-z
y,-x,-z
x,y,-z
-y,x,-z
-x,y,z
x,-y,z
-y,-x,z
y,x,z
1/2+x,1/2+y,1/2+z
1/2-y,1/2+x,1/2+z
1/2-x,1/2-y,1/2+z
1/2+y,1/2-x,1/2+z
1/2+x,1/2-y,1/2-z
1/2-x,1/2+y,1/2-z
1/2+y,1/2+x,1/2-z
1/2-y,1/2-x,1/2-z
1/2-x,1/2-y,1/2-z
1/2+y,1/2-x,1/2-z
1/2+x,1/2+y,1/2-z
1/2-y,1/2+x,1/2-z
1/2-x,1/2+y,1/2+z
1/2+x,1/2-y,1/2+z
1/2-y,1/2-x,1/2+z
1/2+y,1/2+x,1/2+z
loop_
_atom_site_type_symbol
_atom_site_label
_atom_site_fract_x
_atom_site_fract_y
_atom_site_fract_z
Si Si1 0.126935 0.773519 0.721073
Si Si2 0.326955 0.572264 0.695737
Si Si3 0.132356 0.367645 0.750000
Si Si4 0.572382 0.151676 0.083292
Si Si5 0.572914 0.181185 0.549841
Si Si6 0.249102 0.850282 0.375145
Si Si7 0.570671 0.070502 0.170560
Si Si8 0.646883 0.252250 0.625026
O O1 0.197082 0.802919 0.729324
O O2 0.077360 0.812484 0.751337
O O3 0.120825 0.702695 0.735748
O O4 0.111998 0.776854 0.668225
O O5 0.334535 0.500000 0.681475
O O6 0.392639 0.607362 0.684605
O O7 0.269998 0.604225 0.667628
O O8 0.085078 0.380658 0.790515
O O9 0.500000 0.154439 0.066360
O O10 0.614309 0.110468 0.049616
O O11 0.600298 0.223354 0.088472
O O12 0.579281 0.119778 0.131184
O O13 0.578382 0.209134 0.500000
O O14 0.500000 0.169243 0.562737
O O15 0.603149 0.230837 0.584044
O O16 0.191884 0.808117 0.396071
O O17 0.306254 0.803860 0.359708
O O18 0.500000 0.075868 0.190144
O O19 0.584073 0.000000 0.152186
O O20 0.687277 0.312724 0.608769
#
# Coordination Sequence:
#
# PCOD8319685 Si02
#       8
#    32  32  16  32  32  32  32  32
#     4  10  20  31  44  67  95 121 154 197 242 289
#     4  10  21  34  49  70  95 126 164 204 247 295
#     4  12  19  29  44  64  86 124 160 193 239 284
#     4  10  20  35  51  70  95 128 166 202 241 287
#     4  10  21  35  51  73  99 130 166 201 242 295
#     4   9  17  33  52  72  98 126 158 200 247 288
#     4  10  21  33  42  59  91 126 161 199 236 276
#     4   9  18  33  53  76  98 123 158 204 256 299
#
# _framework density 17.854863000000002
#
# number of rings (size 3 to 8) (size 9 to 14) (size 15 to 20)
#    0.000    2.133    1.333    2.200    1.867    5.733 
#    0.000    0.667    0.000    0.000    0.000    0.000 
#    0.000    0.267    0.000   12.400    0.000    0.000 
#
# Total GULP energy -1487461.742543 kJ/mol
# GULP energy per Si atom -12395.514521 kJ/mol
# Density = 1.781422 g / cm^3
# Si number density = 17.854863 Si / 1000 Ang^3
#
#
#
# Elastic Constant Matrix: (Units=GPa)
#
#
# Indices 1 2 3 4 5 6 
#
# 1 72.9687 27.2639 20.3116 0.0000 0.0000 0.0000
# 2 27.2639 72.9689 20.3116 0.0000 0.0000 0.0000
# 3 20.3116 20.3116 60.6663 0.0000 0.0000 0.0000
# 4 0.0000 0.0000 0.0000 21.2733 0.0000 0.0000
# 5 0.0000 0.0000 0.0000 0.0000 21.2734 0.0000
# 6 0.0000 0.0000 0.0000 0.0000 0.0000 21.8187
#
#
#
# Elastic Compliance Matrix: (Units=1/GPa)
#
#
# Indices 1 2 3 4 5 6 
#
# 1 0.016711 -0.005168 -0.003865 0.000000 0.000000 0.000000
# 2 -0.005168 0.016711 -0.003865 0.000000 0.000000 0.000000
# 3 -0.003865 -0.003865 0.019072 0.000000 0.000000 0.000000
# 4 0.000000 0.000000 0.000000 0.047007 0.000000 0.000000
# 5 0.000000 0.000000 0.000000 0.000000 0.047007 0.000000
# 6 0.000000 0.000000 0.000000 0.000000 0.000000 0.045832
#
#
# Mechanical properties :
#
#
# Convention : Reuss Voigt Hill
#
# Bulk Modulus (GPa) = 37.45484 38.04200 37.74842
# Shear Modulus (GPa) = 22.02298 22.12088 22.07193
#
# Velocity S-wave (km/s) = 3.51585 3.52366 3.51976
# Velocity P-wave (km/s) = 6.12410 6.15690 6.14052
#
# Compressibility (1/GPa) = 0.02669882
#
# Stress axis : x y z
#
# Youngs Moduli (GPa) = 59.83959 59.83981 52.43422
#
# Poissons Ratio (x) = 0.30926 0.20264
# Poissons Ratio (y) = 0.30926 0.20264
# Poissons Ratio (z) = 0.23126 0.23126
#
# Static dielectric constant tensor:
#      x y z
#    x 3.345600 0.000000 0.000000 
#    y 0.000000 3.345610 0.000000 
#    z 0.000000 0.000000 3.096880 
# 
# 
# High freq. dielectric constant tensor:
#      x y z
#    x 1.680400 0.000000 0.000000 
#    y 0.000000 1.680400 0.000000 
#    z 0.000000 0.000000 1.668690 
# 
# From -- ./inp_files/14617.got.cif
#   From: 2010.03.12/outbox.cif.g09.slc.cpg/sg139_8_cif.got.tgz:14617.got - 2010.04.08 09:46:31.
