data_PCOD8319338
_publ_section_title
;
Structure prediction by ZEFSAII (Michael W. Deem and Ramdas Pophale) SiO2 
 PCOD8319338
Probable space group: I 4/M M M
;
_chemical_formula_sum "Si O2"
_cell_formula_units_Z 152
_cell_length_a 26.170086
_cell_length_b 26.170086
_cell_length_c 13.631175
_cell_angle_alpha 90.000000
_cell_angle_beta 90.000000
_cell_angle_gamma 90.000000
_cell_volume 9335.629185
_symmetry_space_group_name_H-M "I 4/M M M"
_symmetry_group_IT_number 139
_symmetry_cell_setting 'tetragonal'
loop_
_space_group_symop_operation_xyz
x,y,z
-y,x,z
-x,-y,z
y,-x,z
x,-y,-z
-x,y,-z
y,x,-z
-y,-x,-z
-x,-y,-z
y,-x,-z
x,y,-z
-y,x,-z
-x,y,z
x,-y,z
-y,-x,z
y,x,z
1/2+x,1/2+y,1/2+z
1/2-y,1/2+x,1/2+z
1/2-x,1/2-y,1/2+z
1/2+y,1/2-x,1/2+z
1/2+x,1/2-y,1/2-z
1/2-x,1/2+y,1/2-z
1/2+y,1/2+x,1/2-z
1/2-y,1/2-x,1/2-z
1/2-x,1/2-y,1/2-z
1/2+y,1/2-x,1/2-z
1/2+x,1/2+y,1/2-z
1/2-y,1/2+x,1/2-z
1/2-x,1/2+y,1/2+z
1/2+x,1/2-y,1/2+z
1/2-y,1/2-x,1/2+z
1/2+y,1/2+x,1/2+z
loop_
_atom_site_type_symbol
_atom_site_label
_atom_site_fract_x
_atom_site_fract_y
_atom_site_fract_z
Si Si1 0.901803 0.330469 0.812379
Si Si2 0.602260 0.000000 0.500000
Si Si3 0.690383 0.390360 0.113094
Si Si4 0.679586 0.000000 0.678038
Si Si5 0.000000 0.208455 0.389040
Si Si6 0.747425 0.669213 0.726607
Si Si7 0.440458 0.111302 0.500000
O O1 0.861018 0.361018 0.750000
O O2 0.874480 0.275645 0.839386
O O3 0.951596 0.321920 0.748217
O O4 0.914297 0.362818 0.907472
O O5 0.633839 0.000000 0.399549
O O6 0.567115 0.949629 0.500000
O O7 0.634303 0.365698 0.121934
O O8 0.686897 0.447707 0.159220
O O9 0.732080 0.357353 0.170856
O O10 0.709234 0.392091 0.000000
O O11 0.730550 0.000000 0.614885
O O12 0.000000 0.189450 0.500000
O O13 0.696201 0.696201 0.678661
O O14 0.785963 0.714038 0.750000
O O15 0.500000 0.123708 0.500000
#
# Coordination Sequence:
#
# PCOD8319338 Si02
#       7
#    32   8  32  16  16  32  16
#     4  11  22  37  55  74 102 130 164 213 255 301
#     4  12  25  38  56  74  96 134 176 219 254 298
#     4   9  17  29  47  71  99 130 165 204 246 293
#     4  12  20  34  54  78  99 125 172 212 253 291
#     4  10  18  28  48  76  99 127 166 209 243 291
#     4   9  18  33  49  69  99 130 158 195 248 304
#     4  12  25  40  55  75  97 132 173 212 264 306
#
# _framework density 16.281708999999999
#
# number of rings (size 3 to 8) (size 9 to 14) (size 15 to 20)
#    0.000    1.684    5.789    0.158    0.000    0.000 
#    7.579    0.526    0.000    0.316    0.000    2.211 
#    0.000    0.000    0.000    0.000    0.000    0.000 
#
# Total GULP energy -941562.127508 kJ/mol
# GULP energy per Si atom -12388.975362 kJ/mol
# Density = 1.624465 g / cm^3
# Si number density = 16.281709 Si / 1000 Ang^3
#
#
#
# Elastic Constant Matrix: (Units=GPa)
#
#
# Indices 1 2 3 4 5 6 
#
# 1 95.8480 66.1124 32.6916 0.0000 0.0000 0.0000
# 2 66.1124 95.8460 32.6888 0.0000 0.0000 0.0000
# 3 32.6916 32.6888 53.4131 0.0000 0.0000 0.0000
# 4 0.0000 0.0000 0.0000 22.7187 0.0000 0.0000
# 5 0.0000 0.0000 0.0000 0.0000 22.7187 0.0000
# 6 0.0000 0.0000 0.0000 0.0000 0.0000 30.5709
#
#
#
# Elastic Compliance Matrix: (Units=1/GPa)
#
#
# Indices 1 2 3 4 5 6 
#
# 1 0.020916 -0.012715 -0.005020 0.000000 0.000000 0.000000
# 2 -0.012715 0.020915 -0.005018 0.000000 0.000000 0.000000
# 3 -0.005020 -0.005018 0.024865 0.000000 0.000000 0.000000
# 4 0.000000 0.000000 0.000000 0.044017 0.000000 0.000000
# 5 0.000000 0.000000 0.000000 0.000000 0.044017 0.000000
# 6 0.000000 0.000000 0.000000 0.000000 0.000000 0.032711
#
#
# Mechanical properties :
#
#
# Convention : Reuss Voigt Hill
#
# Bulk Modulus (GPa) = 47.19047 56.45475 51.82261
# Shear Modulus (GPa) = 20.83245 22.77595 21.80420
#
# Velocity S-wave (km/s) = 3.58089 3.74420 3.66346
# Velocity P-wave (km/s) = 6.79291 7.31034 7.05637
#
# Compressibility (1/GPa) = 0.02119072
#
# Stress axis : x y z
#
# Youngs Moduli (GPa) = 47.81070 47.81154 40.21657
#
# Poissons Ratio (x) = 0.60793 0.20188
# Poissons Ratio (y) = 0.60792 0.20180
# Poissons Ratio (z) = 0.24000 0.23991
#
# Static dielectric constant tensor:
#      x y z
#    x 3.503300 0.000000 0.000000 
#    y 0.000000 3.503300 0.000000 
#    z 0.000000 0.000000 2.897080 
# 
# 
# High freq. dielectric constant tensor:
#      x y z
#    x 1.634160 0.000000 0.000000 
#    y 0.000000 1.634160 0.000000 
#    z 0.000000 0.000000 1.592690 
# 
# From -- ./inp_files/6335.got.cif
#   From: 2010.03.12/outbox.cif.g09.slc.cpg/sg139_4_cif.got.tgz:6335.got - 2010.04.08 09:46:31.
