data_PCOD8319367
_publ_section_title
;
Structure prediction by ZEFSAII (Michael W. Deem and Ramdas Pophale) SiO2 
 PCOD8319367
Probable space group: I 4/M M M
;
_chemical_formula_sum "Si O2"
_cell_formula_units_Z 192
_cell_length_a 22.496956
_cell_length_b 22.496956
_cell_length_c 23.115121
_cell_angle_alpha 90.000000
_cell_angle_beta 90.000000
_cell_angle_gamma 90.000000
_cell_volume 11698.863911
_symmetry_space_group_name_H-M "I 4/M M M"
_symmetry_group_IT_number 139
_symmetry_cell_setting 'tetragonal'
loop_
_space_group_symop_operation_xyz
x,y,z
-y,x,z
-x,-y,z
y,-x,z
x,-y,-z
-x,y,-z
y,x,-z
-y,-x,-z
-x,-y,-z
y,-x,-z
x,y,-z
-y,x,-z
-x,y,z
x,-y,z
-y,-x,z
y,x,z
1/2+x,1/2+y,1/2+z
1/2-y,1/2+x,1/2+z
1/2-x,1/2-y,1/2+z
1/2+y,1/2-x,1/2+z
1/2+x,1/2-y,1/2-z
1/2-x,1/2+y,1/2-z
1/2+y,1/2+x,1/2-z
1/2-y,1/2-x,1/2-z
1/2-x,1/2-y,1/2-z
1/2+y,1/2-x,1/2-z
1/2+x,1/2+y,1/2-z
1/2-y,1/2+x,1/2-z
1/2-x,1/2+y,1/2+z
1/2+x,1/2-y,1/2+z
1/2-y,1/2-x,1/2+z
1/2+y,1/2+x,1/2+z
loop_
_atom_site_type_symbol
_atom_site_label
_atom_site_fract_x
_atom_site_fract_y
_atom_site_fract_z
Si Si1 0.064739 0.500000 0.068739
Si Si2 0.569279 0.788033 0.167896
Si Si3 0.105519 0.355300 0.435239
Si Si4 0.931183 0.834685 0.275037
Si Si5 0.568655 0.223036 0.435537
Si Si6 0.632598 0.727080 0.327933
Si Si7 0.337960 0.837960 0.250000
O O1 0.098715 0.442086 0.090273
O O2 0.000000 0.500000 0.097727
O O3 0.059217 0.500000 0.000000
O O4 0.500000 0.804638 0.167605
O O5 0.601590 0.798152 0.106228
O O6 0.578862 0.718222 0.179171
O O7 0.600108 0.831100 0.215573
O O8 0.090153 0.333700 0.500000
O O9 0.166900 0.388880 0.433193
O O10 0.891444 0.891444 0.293367
O O11 0.911061 0.809276 0.213584
O O12 0.000000 0.854434 0.272296
O O13 0.574070 0.252227 0.500000
O O14 0.500000 0.205314 0.423863
O O15 0.592374 0.264422 0.384738
O O16 0.688114 0.688114 0.347857
O O17 0.662016 0.784731 0.297197
#
# Coordination Sequence:
#
# PCOD8319367 Si02
#       7
#    16  32  32  32  32  32  16
#     4   9  16  26  42  64  88 118 163 211 246 280
#     4  10  19  33  50  71  99 130 166 205 247 297
#     4  10  18  30  47  68  93 127 168 208 249 286
#     4   9  19  34  54  78 101 128 162 202 249 303
#     4  10  20  33  49  70  98 133 169 204 246 296
#     4  10  19  32  52  74  97 126 164 205 249 302
#     4  10  19  34  48  69  94 134 164 202 251 300
#
# _framework density 16.411850000000001
#
# number of rings (size 3 to 8) (size 9 to 14) (size 15 to 20)
#    0.000    2.250    2.500    1.250    0.000    3.833 
#    0.000    0.000    0.000    0.500    0.000    0.000 
#    0.000    0.000    0.000   19.167    0.000    0.000 
#
# Total GULP energy -1189652.899789 kJ/mol
# GULP energy per Si atom -12392.217706 kJ/mol
# Density = 1.637450 g / cm^3
# Si number density = 16.411850 Si / 1000 Ang^3
#
#
#
# Elastic Constant Matrix: (Units=GPa)
#
#
# Indices 1 2 3 4 5 6 
#
# 1 83.6282 46.8257 48.9681 0.0000 0.0000 0.0000
# 2 46.8257 83.6282 48.9681 0.0000 0.0000 0.0000
# 3 48.9681 48.9681 101.5869 0.0000 0.0000 0.0000
# 4 0.0000 0.0000 0.0000 18.2157 0.0000 0.0000
# 5 0.0000 0.0000 0.0000 0.0000 18.2157 0.0000
# 6 0.0000 0.0000 0.0000 0.0000 0.0000 36.5390
#
#
#
# Elastic Compliance Matrix: (Units=1/GPa)
#
#
# Indices 1 2 3 4 5 6 
#
# 1 0.019592 -0.007580 -0.005790 0.000000 0.000000 0.000000
# 2 -0.007580 0.019592 -0.005790 0.000000 0.000000 0.000000
# 3 -0.005790 -0.005790 0.015426 0.000000 0.000000 0.000000
# 4 0.000000 0.000000 0.000000 0.054898 0.000000 0.000000
# 5 0.000000 0.000000 0.000000 0.000000 0.054898 0.000000
# 6 0.000000 0.000000 0.000000 0.000000 0.000000 0.027368
#
#
# Mechanical properties :
#
#
# Convention : Reuss Voigt Hill
#
# Bulk Modulus (GPa) = 61.38899 62.04079 61.71489
# Shear Modulus (GPa) = 21.22913 22.86618 22.04765
#
# Velocity S-wave (km/s) = 3.60046 3.73671 3.66922
# Velocity P-wave (km/s) = 7.40074 7.51677 7.45898
#
# Compressibility (1/GPa) = 0.01628957
#
# Stress axis : x y z
#
# Youngs Moduli (GPa) = 51.04022 51.04021 64.82481
#
# Poissons Ratio (x) = 0.38687 0.37537
# Poissons Ratio (y) = 0.38687 0.37537
# Poissons Ratio (z) = 0.29555 0.29555
#
# Static dielectric constant tensor:
#      x y z
#    x 3.098730 0.000000 0.000000 
#    y 0.000000 3.098730 0.000000 
#    z 0.000000 0.000000 3.253380 
# 
# 
# High freq. dielectric constant tensor:
#      x y z
#    x 1.622520 0.000000 0.000000 
#    y 0.000000 1.622520 0.000000 
#    z 0.000000 0.000000 1.628440 
# 
# From -- ./inp_files/12003.got.cif
#   From: 2010.03.12/outbox.cif.g09.slc.cpg/sg139_7_cif.got.tgz:12003.got - 2010.04.08 09:46:31.
