data_PCOD8319957
_publ_section_title
;
Structure prediction by ZEFSAII (Michael W. Deem and Ramdas Pophale) SiO2 
 PCOD8319957
Probable space group: I 4/M M M
;
_chemical_formula_sum "Si O2"
_cell_formula_units_Z 240
_cell_length_a 26.953435
_cell_length_b 26.953435
_cell_length_c 18.246619
_cell_angle_alpha 90.000000
_cell_angle_beta 90.000000
_cell_angle_gamma 90.000000
_cell_volume 13255.943509
_symmetry_space_group_name_H-M "I 4/M M M"
_symmetry_group_IT_number 139
_symmetry_cell_setting 'tetragonal'
loop_
_space_group_symop_operation_xyz
x,y,z
-y,x,z
-x,-y,z
y,-x,z
x,-y,-z
-x,y,-z
y,x,-z
-y,-x,-z
-x,-y,-z
y,-x,-z
x,y,-z
-y,x,-z
-x,y,z
x,-y,z
-y,-x,z
y,x,z
1/2+x,1/2+y,1/2+z
1/2-y,1/2+x,1/2+z
1/2-x,1/2-y,1/2+z
1/2+y,1/2-x,1/2+z
1/2+x,1/2-y,1/2-z
1/2-x,1/2+y,1/2-z
1/2+y,1/2+x,1/2-z
1/2-y,1/2-x,1/2-z
1/2-x,1/2-y,1/2-z
1/2+y,1/2-x,1/2-z
1/2+x,1/2+y,1/2-z
1/2-y,1/2+x,1/2-z
1/2-x,1/2+y,1/2+z
1/2+x,1/2-y,1/2+z
1/2-y,1/2-x,1/2+z
1/2+y,1/2+x,1/2+z
loop_
_atom_site_type_symbol
_atom_site_label
_atom_site_fract_x
_atom_site_fract_y
_atom_site_fract_z
Si Si1 0.558932 0.000000 0.413447
Si Si2 0.283347 0.791646 0.086884
Si Si3 0.103107 0.313743 0.085483
Si Si4 0.559500 0.230067 0.178418
Si Si5 0.137095 0.057526 0.915461
Si Si6 0.232336 0.056393 0.833654
Si Si7 0.785687 0.864771 0.413471
Si Si8 0.614260 0.087121 0.331484
O O1 0.583939 0.045962 0.373957
O O2 0.500000 0.000000 0.400393
O O3 0.571405 0.000000 0.500000
O O4 0.231597 0.768404 0.115620
O O5 0.287693 0.846992 0.116469
O O6 0.328559 0.757851 0.114398
O O7 0.284566 0.791254 0.000000
O O8 0.059430 0.276019 0.105979
O O9 0.097176 0.364691 0.126038
O O10 0.104171 0.324630 0.000000
O O11 0.500000 0.231443 0.170556
O O12 0.579398 0.247937 0.257751
O O13 0.582606 0.271447 0.123369
O O14 0.577715 0.173551 0.164711
O O15 0.087345 0.087345 0.896053
O O16 0.181690 0.080027 0.865759
O O17 0.126193 0.000000 0.898947
O O18 0.152644 0.065081 0.000000
O O19 0.219534 0.000000 0.819047
O O20 0.784732 0.873173 0.500000
O O21 0.839177 0.839177 0.391826
O O22 0.593132 0.093132 0.250000
#
# Coordination Sequence:
#
# PCOD8319957 Si02
#       8
#    16  32  32  32  32  32  32  32
#     4  11  28  48  66  90 114 144 198 256 309 372
#     4   8  15  28  47  73 103 135 172 217 271 327
#     4  11  21  34  56  80 108 148 193 237 284 344
#     4  11  22  38  58  86 115 152 196 241 289 356
#     4   9  18  34  56  82 113 150 192 239 290 342
#     4  10  22  37  52  74 111 149 190 234 286 342
#     4   9  18  34  56  82 114 148 182 228 289 348
#     4  12  24  40  63  85 118 151 192 246 312 357
#
# _framework density 18.105086
#
# number of rings (size 3 to 8) (size 9 to 14) (size 15 to 20)
#    0.000    1.933    3.333    1.600    0.933    3.333 
#    0.000    2.000    0.000    2.400    0.000    0.000 
#    0.000    0.267    0.000    1.467    0.000    0.000 
#
# Total GULP energy -1486982.013575 kJ/mol
# GULP energy per Si atom -12391.516780 kJ/mol
# Density = 1.806388 g / cm^3
# Si number density = 18.105086 Si / 1000 Ang^3
#
#
#
# Elastic Constant Matrix: (Units=GPa)
#
#
# Indices 1 2 3 4 5 6 
#
# 1 85.6588 43.5935 47.8661 0.0000 0.0000 0.0000
# 2 43.5935 85.6588 47.8661 0.0000 0.0000 0.0000
# 3 47.8661 47.8661 93.8787 0.0000 0.0000 0.0000
# 4 0.0000 0.0000 0.0000 28.3860 0.0000 0.0000
# 5 0.0000 0.0000 0.0000 0.0000 28.3860 0.0000
# 6 0.0000 0.0000 0.0000 0.0000 0.0000 29.2796
#
#
#
# Elastic Compliance Matrix: (Units=1/GPa)
#
#
# Indices 1 2 3 4 5 6 
#
# 1 0.018102 -0.005671 -0.006338 0.000000 0.000000 0.000000
# 2 -0.005671 0.018102 -0.006338 0.000000 0.000000 0.000000
# 3 -0.006338 -0.006338 0.017116 0.000000 0.000000 0.000000
# 4 0.000000 0.000000 0.000000 0.035229 0.000000 0.000000
# 5 0.000000 0.000000 0.000000 0.000000 0.035229 0.000000
# 6 0.000000 0.000000 0.000000 0.000000 0.000000 0.034153
#
#
# Mechanical properties :
#
#
# Convention : Reuss Voigt Hill
#
# Bulk Modulus (GPa) = 60.15130 60.42754 60.28942
# Shear Modulus (GPa) = 24.97917 25.60171 25.29044
#
# Velocity S-wave (km/s) = 3.71843 3.76448 3.74153
# Velocity P-wave (km/s) = 7.19244 7.23488 7.21369
#
# Compressibility (1/GPa) = 0.01662474
#
# Stress axis : x y z
#
# Youngs Moduli (GPa) = 55.24254 55.24254 58.42612
#
# Poissons Ratio (x) = 0.31326 0.37033
# Poissons Ratio (y) = 0.31326 0.37033
# Poissons Ratio (z) = 0.35015 0.35015
#
# Static dielectric constant tensor:
#      x y z
#    x 3.383740 0.000000 0.000000 
#    y 0.000000 3.383740 0.000000 
#    z 0.000000 0.000000 3.358830 
# 
# 
# High freq. dielectric constant tensor:
#      x y z
#    x 1.699200 0.000000 0.000000 
#    y 0.000000 1.699200 0.000000 
#    z 0.000000 0.000000 1.693920 
# 
# From -- ./inp_files/9086.got.cif
#   From: 2010.03.12/outbox.cif.g09.slc.cpg/sg139_5_cif.got.tgz:9086.got - 2010.04.08 09:46:31.
