data_PCOD8319223
_publ_section_title
;
Structure prediction by ZEFSAII (Michael W. Deem and Ramdas Pophale) SiO2 
 PCOD8319223
Probable space group: P 42/N C M
;
_chemical_formula_sum "Si O2"
_cell_formula_units_Z 56
_cell_length_a 11.714139
_cell_length_b 11.714139
_cell_length_c 19.139193
_cell_angle_alpha 90.000000
_cell_angle_beta 90.000000
_cell_angle_gamma 90.000000
_cell_volume 2626.300208
_symmetry_space_group_name_H-M "P 42/N C M"
_symmetry_group_IT_number 138
_space_group.IT_coordinate_system_code '2'
_symmetry_cell_setting 'tetragonal'
loop_
_space_group_symop_operation_xyz
x,y,z
1/2-y,x,1/2+z
1/2-x,1/2-y,z
y,1/2-x,1/2+z
1/2+x,-y,1/2-z
-x,1/2+y,1/2-z
1/2+y,1/2+x,-z
-y,-x,-z
-x,-y,-z
1/2+y,-x,1/2-z
1/2+x,1/2+y,-z
-y,1/2+x,1/2-z
1/2-x,y,1/2+z
x,1/2-y,1/2+z
1/2-y,1/2-x,z
y,x,z
loop_
_atom_site_type_symbol
_atom_site_label
_atom_site_fract_x
_atom_site_fract_y
_atom_site_fract_z
Si Si1 0.658072 0.658072 0.963880
Si Si2 0.656582 0.656582 0.262064
Si Si3 0.899892 0.336583 0.573784
Si Si4 0.095199 0.095199 0.889640
Si Si5 0.781549 0.096304 0.290270
O O1 0.750000 0.750000 0.935694
O O2 0.532631 0.690317 0.938125
O O3 0.658907 0.658907 0.047738
O O4 0.750000 0.750000 0.283956
O O5 0.648549 0.648549 0.179187
O O6 0.691531 0.536283 0.294716
O O7 0.830901 0.330901 0.500000
O O8 0.882680 0.460356 0.607820
O O9 0.858020 0.243967 0.630779
O O10 0.670278 0.114307 0.240544
#
# Coordination Sequence:
#
# PCOD8319223 Si02
#       5
#     8   8  16   8  16
#     4   9  18  30  61  94 130 169 222 265 332 392
#     4  12  26  37  70  99 136 174 225 280 330 402
#     4   9  19  37  63  87 128 178 220 274 326 399
#     4   9  17  39  58  90 132 169 219 273 323 397
#     4  11  25  44  66  96 137 179 223 280 340 397
#
# _framework density 21.322770999999999
#
# number of rings (size 3 to 8) (size 9 to 14) (size 15 to 20)
#    0.000    2.000    2.857    2.143    8.000    0.000 
#    0.000    2.857    0.000    0.000    0.000   14.000 
#    0.000    0.000    0.000    0.000    0.000    0.000 
#
# Total GULP energy -694146.465814 kJ/mol
# GULP energy per Si atom -12395.472604 kJ/mol
# Density = 2.127424 g / cm^3
# Si number density = 21.322771 Si / 1000 Ang^3
#
#
#
# Elastic Constant Matrix: (Units=GPa)
#
#
# Indices 1 2 3 4 5 6 
#
# 1 98.8289 63.1793 29.8729 0.0000 0.0000 0.0000
# 2 63.1793 98.8289 29.8729 0.0000 0.0000 0.0000
# 3 29.8729 29.8729 147.9183 0.0000 0.0000 0.0000
# 4 0.0000 0.0000 0.0000 16.3226 0.0000 0.0000
# 5 0.0000 0.0000 0.0000 0.0000 16.3226 0.0000
# 6 0.0000 0.0000 0.0000 0.0000 0.0000 42.9939
#
#
#
# Elastic Compliance Matrix: (Units=1/GPa)
#
#
# Indices 1 2 3 4 5 6 
#
# 1 0.017360 -0.010691 -0.001347 0.000000 0.000000 0.000000
# 2 -0.010691 0.017360 -0.001347 0.000000 0.000000 0.000000
# 3 -0.001347 -0.001347 0.007305 0.000000 0.000000 0.000000
# 4 0.000000 0.000000 0.000000 0.061265 0.000000 0.000000
# 5 0.000000 0.000000 0.000000 0.000000 0.061265 0.000000
# 6 0.000000 0.000000 0.000000 0.000000 0.000000 0.023259
#
#
# Mechanical properties :
#
#
# Convention : Reuss Voigt Hill
#
# Bulk Modulus (GPa) = 65.55043 65.71404 65.63223
# Shear Modulus (GPa) = 22.76170 29.97122 26.36646
#
# Velocity S-wave (km/s) = 3.27078 3.75320 3.52026
# Velocity P-wave (km/s) = 6.71362 7.04752 6.88260
#
# Compressibility (1/GPa) = 0.01525543
#
# Stress axis : x y z
#
# Youngs Moduli (GPa) = 57.60367 57.60367 136.90169
#
# Poissons Ratio (x) = 0.61583 0.18439
# Poissons Ratio (y) = 0.61583 0.18439
# Poissons Ratio (z) = 0.07759 0.07759
#
# Static dielectric constant tensor:
#      x y z
#    x 3.606400 0.000000 0.000000 
#    y 0.000000 3.606400 0.000000 
#    z 0.000000 0.000000 4.054800 
# 
# 
# High freq. dielectric constant tensor:
#      x y z
#    x 1.821410 0.000000 0.000000 
#    y 0.000000 1.821410 0.000000 
#    z 0.000000 0.000000 1.856500 
# 
# From -- ./inp_files/5741.got.cif
#   From: 2010.03.12/outbox.cif.g09.slc.cpg/sg138_3_cif.got.tgz:5741.got - 2010.04.08 09:41:05.
