data_PCOD8319565
_publ_section_title
;
Structure prediction by ZEFSAII (Michael W. Deem and Ramdas Pophale) SiO2 
 PCOD8319565
Probable space group: I 4/M M M
;
_chemical_formula_sum "Si O2"
_cell_formula_units_Z 160
_cell_length_a 22.918189
_cell_length_b 22.918189
_cell_length_c 17.180914
_cell_angle_alpha 90.000000
_cell_angle_beta 90.000000
_cell_angle_gamma 90.000000
_cell_volume 9024.161462
_symmetry_space_group_name_H-M "I 4/M M M"
_symmetry_group_IT_number 139
_symmetry_cell_setting 'tetragonal'
loop_
_space_group_symop_operation_xyz
x,y,z
-y,x,z
-x,-y,z
y,-x,z
x,-y,-z
-x,y,-z
y,x,-z
-y,-x,-z
-x,-y,-z
y,-x,-z
x,y,-z
-y,x,-z
-x,y,z
x,-y,z
-y,-x,z
y,x,z
1/2+x,1/2+y,1/2+z
1/2-y,1/2+x,1/2+z
1/2-x,1/2-y,1/2+z
1/2+y,1/2-x,1/2+z
1/2+x,1/2-y,1/2-z
1/2-x,1/2+y,1/2-z
1/2+y,1/2+x,1/2-z
1/2-y,1/2-x,1/2-z
1/2-x,1/2-y,1/2-z
1/2+y,1/2-x,1/2-z
1/2+x,1/2+y,1/2-z
1/2-y,1/2+x,1/2-z
1/2-x,1/2+y,1/2+z
1/2+x,1/2-y,1/2+z
1/2-y,1/2-x,1/2+z
1/2+y,1/2+x,1/2+z
loop_
_atom_site_type_symbol
_atom_site_label
_atom_site_fract_x
_atom_site_fract_y
_atom_site_fract_z
Si Si1 0.773119 0.611993 0.587739
Si Si2 0.761463 0.238538 0.092071
Si Si3 0.832482 0.167519 0.407686
Si Si4 0.161978 0.432175 0.269925
Si Si5 0.216609 0.933038 0.306756
Si Si6 0.841098 0.065197 0.142666
O O1 0.798018 0.616439 0.500000
O O2 0.757625 0.675454 0.624329
O O3 0.821372 0.581036 0.640725
O O4 0.714264 0.573968 0.586736
O O5 0.714660 0.285341 0.120133
O O6 0.765896 0.234105 0.000000
O O7 0.837660 0.162341 0.500000
O O8 0.810569 0.105572 0.375450
O O9 0.145528 0.500000 0.261947
O O10 0.105371 0.394630 0.250000
O O11 0.216181 0.416465 0.212934
O O12 0.177637 0.922468 0.230997
O O13 0.213232 0.000000 0.334331
O O14 0.892258 0.107743 0.116322
O O15 0.864830 0.000000 0.132762
#
# Coordination Sequence:
#
# PCOD8319565 Si02
#       6
#    32  16  16  32  32  32
#     4  10  19  34  54  81 112 137 169 218 271 318
#     4   9  18  29  47  77 108 131 159 209 268 323
#     4  11  20  31  53  80 101 135 183 225 273 323
#     4  10  21  36  56  80 107 144 183 218 263 320
#     4   9  19  35  51  73 106 139 176 219 270 326
#     4  10  19  32  50  72 101 140 178 210 254 312
#
# _framework density 17.730179
#
# number of rings (size 3 to 8) (size 9 to 14) (size 15 to 20)
#    0.000    2.200    2.000    3.000    0.000    2.400 
#    0.000    3.000    0.000    2.100    0.000    3.500 
#    0.000    0.000    0.000    0.000    0.000    0.000 
#
# Total GULP energy -992020.757028 kJ/mol
# GULP energy per Si atom -12400.259463 kJ/mol
# Density = 1.768982 g / cm^3
# Si number density = 17.730179 Si / 1000 Ang^3
#
#
#
# Elastic Constant Matrix: (Units=GPa)
#
#
# Indices 1 2 3 4 5 6 
#
# 1 102.2961 56.8265 37.4864 0.0000 0.0000 0.0000
# 2 56.8265 102.2940 37.4852 0.0000 0.0000 0.0000
# 3 37.4864 37.4852 75.0040 0.0000 0.0000 0.0000
# 4 0.0000 0.0000 0.0000 16.9177 0.0000 0.0000
# 5 0.0000 0.0000 0.0000 0.0000 16.9169 0.0000
# 6 0.0000 0.0000 0.0000 0.0000 0.0000 22.1743
#
#
#
# Elastic Compliance Matrix: (Units=1/GPa)
#
#
# Indices 1 2 3 4 5 6 
#
# 1 0.015107 -0.006887 -0.004108 0.000000 0.000000 0.000000
# 2 -0.006887 0.015107 -0.004108 0.000000 0.000000 0.000000
# 3 -0.004108 -0.004108 0.017439 0.000000 0.000000 0.000000
# 4 0.000000 0.000000 0.000000 0.059110 0.000000 0.000000
# 5 0.000000 0.000000 0.000000 0.000000 0.059112 0.000000
# 6 0.000000 0.000000 0.000000 0.000000 0.000000 0.045097
#
#
# Mechanical properties :
#
#
# Convention : Reuss Voigt Hill
#
# Bulk Modulus (GPa) = 57.31889 60.35450 58.83670
# Shear Modulus (GPa) = 20.24344 21.05485 20.64914
#
# Velocity S-wave (km/s) = 3.38265 3.44977 3.41637
# Velocity P-wave (km/s) = 6.90326 7.06982 6.98704
#
# Compressibility (1/GPa) = 0.01744626
#
# Stress axis : x y z
#
# Youngs Moduli (GPa) = 66.19616 66.19544 57.34218
#
# Poissons Ratio (x) = 0.45586 0.23559
# Poissons Ratio (y) = 0.45586 0.23557
# Poissons Ratio (z) = 0.27196 0.27194
#
# Static dielectric constant tensor:
#      x y z
#    x 3.244780 0.000000 0.000000 
#    y 0.000000 3.244780 0.000000 
#    z 0.000000 0.000000 3.098310 
# 
# 
# High freq. dielectric constant tensor:
#      x y z
#    x 1.682010 0.000000 0.000000 
#    y 0.000000 1.682010 0.000000 
#    z 0.000000 0.000000 1.669220 
# 
# From -- ./inp_files/8437.got.cif
#   From: 2010.03.12/outbox.cif.g09.slc.cpg/sg139_5_cif.got.tgz:8437.got - 2010.04.08 09:46:31.
