data_PCOD8319788
_publ_section_title
;
Structure prediction by ZEFSAII (Michael W. Deem and Ramdas Pophale) SiO2 
 PCOD8319788
Probable space group: I 4/M M M
;
_chemical_formula_sum "Si O2"
_cell_formula_units_Z 240
_cell_length_a 19.638315
_cell_length_b 19.638315
_cell_length_c 35.074933
_cell_angle_alpha 90.000000
_cell_angle_beta 90.000000
_cell_angle_gamma 90.000000
_cell_volume 13527.118478
_symmetry_space_group_name_H-M "I 4/M M M"
_symmetry_group_IT_number 139
_symmetry_cell_setting 'tetragonal'
loop_
_space_group_symop_operation_xyz
x,y,z
-y,x,z
-x,-y,z
y,-x,z
x,-y,-z
-x,y,-z
y,x,-z
-y,-x,-z
-x,-y,-z
y,-x,-z
x,y,-z
-y,x,-z
-x,y,z
x,-y,z
-y,-x,z
y,x,z
1/2+x,1/2+y,1/2+z
1/2-y,1/2+x,1/2+z
1/2-x,1/2-y,1/2+z
1/2+y,1/2-x,1/2+z
1/2+x,1/2-y,1/2-z
1/2-x,1/2+y,1/2-z
1/2+y,1/2+x,1/2-z
1/2-y,1/2-x,1/2-z
1/2-x,1/2-y,1/2-z
1/2+y,1/2-x,1/2-z
1/2+x,1/2+y,1/2-z
1/2-y,1/2+x,1/2-z
1/2-x,1/2+y,1/2+z
1/2+x,1/2-y,1/2+z
1/2-y,1/2-x,1/2+z
1/2+y,1/2+x,1/2+z
loop_
_atom_site_type_symbol
_atom_site_label
_atom_site_fract_x
_atom_site_fract_y
_atom_site_fract_z
Si Si1 0.322452 0.424994 0.282628
Si Si2 0.693800 0.420448 0.916075
Si Si3 0.262760 0.844236 0.723195
Si Si4 0.074883 0.419357 0.541708
Si Si5 0.810675 0.922727 0.868097
Si Si6 0.420236 0.161651 0.388574
Si Si7 0.194606 0.580509 0.852103
Si Si8 0.813603 0.923099 0.500000
O O1 0.322810 0.500000 0.266853
O O2 0.400190 0.400190 0.287953
O O3 0.287714 0.381800 0.250817
O O4 0.287364 0.417469 0.324003
O O5 0.672406 0.500000 0.910837
O O6 0.627801 0.372200 0.908892
O O7 0.752201 0.401330 0.885701
O O8 0.724671 0.407933 0.959352
O O9 0.226158 0.773843 0.709063
O O10 0.328017 0.828017 0.750000
O O11 0.277781 0.893218 0.688122
O O12 0.091768 0.388703 0.500000
O O13 0.072619 0.500000 0.539170
O O14 0.132567 0.396032 0.570731
O O15 0.000000 0.392705 0.555109
O O16 0.870473 0.870473 0.879751
O O17 0.741984 0.904125 0.890805
O O18 0.835425 0.000000 0.877252
O O19 0.500000 0.148393 0.379757
O O20 0.376111 0.121019 0.357565
O O21 0.180576 0.500000 0.849861
O O22 0.883668 0.883668 0.500000
O O23 0.837245 0.000000 0.500000
#
# Coordination Sequence:
#
# PCOD8319788 Si02
#       8
#    32  32  32  32  32  32  32  16
#     4   9  17  30  48  70  96 124 155 196 244 295
#     4   9  18  32  50  74 103 137 176 214 255 301
#     4  10  20  34  52  71  92 124 169 215 258 307
#     4   8  14  27  48  72  97 125 159 200 243 286
#     4   9  18  32  52  78 104 131 163 201 252 309
#     4  10  20  34  52  74 100 130 167 207 249 301
#     4  11  22  34  50  74 102 135 170 211 264 312
#     4   8  14  27  46  68  99 135 171 211 248 290
#
# _framework density 17.742137
#
# number of rings (size 3 to 8) (size 9 to 14) (size 15 to 20)
#    0.000    2.667    0.000    2.400    0.000    3.400 
#    1.200    3.333    0.000    0.400    0.000    1.867 
#    0.000    0.000    0.000    5.200    0.000    0.133 
#
# Total GULP energy -1486679.621576 kJ/mol
# GULP energy per Si atom -12388.996846 kJ/mol
# Density = 1.770176 g / cm^3
# Si number density = 17.742137 Si / 1000 Ang^3
#
#
#
# Elastic Constant Matrix: (Units=GPa)
#
#
# Indices 1 2 3 4 5 6 
#
# 1 90.9251 51.1345 43.8865 0.0000 0.0000 0.0000
# 2 51.1345 90.9251 43.8865 0.0000 0.0000 0.0000
# 3 43.8865 43.8865 88.0871 0.0000 0.0000 0.0000
# 4 0.0000 0.0000 0.0000 35.8350 0.0000 0.0000
# 5 0.0000 0.0000 0.0000 0.0000 35.8350 0.0000
# 6 0.0000 0.0000 0.0000 0.0000 0.0000 24.5231
#
#
#
# Elastic Compliance Matrix: (Units=1/GPa)
#
#
# Indices 1 2 3 4 5 6 
#
# 1 0.017651 -0.007481 -0.005067 0.000000 0.000000 0.000000
# 2 -0.007481 0.017651 -0.005067 0.000000 0.000000 0.000000
# 3 -0.005067 -0.005067 0.016401 0.000000 0.000000 0.000000
# 4 0.000000 0.000000 0.000000 0.027906 0.000000 0.000000
# 5 0.000000 0.000000 0.000000 0.000000 0.027906 0.000000
# 6 0.000000 0.000000 0.000000 0.000000 0.000000 0.040778
#
#
# Mechanical properties :
#
#
# Convention : Reuss Voigt Hill
#
# Bulk Modulus (GPa) = 60.70296 60.86139 60.78217
# Shear Modulus (GPa) = 26.45337 27.97396 27.21366
#
# Velocity S-wave (km/s) = 3.86552 3.97507 3.92068
# Velocity P-wave (km/s) = 7.36283 7.44621 7.40464
#
# Compressibility (1/GPa) = 0.01647366
#
# Stress axis : x y z
#
# Youngs Moduli (GPa) = 56.65496 56.65496 60.97138
#
# Poissons Ratio (x) = 0.42383 0.30893
# Poissons Ratio (y) = 0.42383 0.30893
# Poissons Ratio (z) = 0.28706 0.28706
#
# Static dielectric constant tensor:
#      x y z
#    x 0.465340 0.000000 0.000000 
#    y 0.000000 0.465340 0.000000 
#    z 0.000000 0.000000 3.481720 
# 
# 
# High freq. dielectric constant tensor:
#      x y z
#    x 1.679460 0.000000 0.000000 
#    y 0.000000 1.679460 0.000000 
#    z 0.000000 0.000000 1.684300 
# 
# From -- ./inp_files/14628.got.cif
#   From: 2010.03.12/outbox.cif.g09.slc.cpg/sg139_8_cif.got.tgz:14628.got - 2010.04.08 09:46:31.
