data_PCOD8319809
_publ_section_title
;
Structure prediction by ZEFSAII (Michael W. Deem and Ramdas Pophale) SiO2 
 PCOD8319809
Probable space group: I 4/M M M
;
_chemical_formula_sum "Si O2"
_cell_formula_units_Z 160
_cell_length_a 22.019839
_cell_length_b 22.019839
_cell_length_c 18.748503
_cell_angle_alpha 90.000000
_cell_angle_beta 90.000000
_cell_angle_gamma 90.000000
_cell_volume 9090.648699
_symmetry_space_group_name_H-M "I 4/M M M"
_symmetry_group_IT_number 139
_symmetry_cell_setting 'tetragonal'
loop_
_space_group_symop_operation_xyz
x,y,z
-y,x,z
-x,-y,z
y,-x,z
x,-y,-z
-x,y,-z
y,x,-z
-y,-x,-z
-x,-y,-z
y,-x,-z
x,y,-z
-y,x,-z
-x,y,z
x,-y,z
-y,-x,z
y,x,z
1/2+x,1/2+y,1/2+z
1/2-y,1/2+x,1/2+z
1/2-x,1/2-y,1/2+z
1/2+y,1/2-x,1/2+z
1/2+x,1/2-y,1/2-z
1/2-x,1/2+y,1/2-z
1/2+y,1/2+x,1/2-z
1/2-y,1/2-x,1/2-z
1/2-x,1/2-y,1/2-z
1/2+y,1/2-x,1/2-z
1/2+x,1/2+y,1/2-z
1/2-y,1/2+x,1/2-z
1/2-x,1/2+y,1/2+z
1/2+x,1/2-y,1/2+z
1/2-y,1/2-x,1/2+z
1/2+y,1/2+x,1/2+z
loop_
_atom_site_type_symbol
_atom_site_label
_atom_site_fract_x
_atom_site_fract_y
_atom_site_fract_z
Si Si1 0.071936 0.660470 0.222995
Si Si2 0.665073 0.430376 0.648568
Si Si3 0.286599 0.071206 0.077573
Si Si4 0.833096 0.069775 0.580112
Si Si5 0.877930 0.781011 0.283430
O O1 0.094585 0.594585 0.250000
O O2 0.084917 0.663025 0.137860
O O3 0.114255 0.710620 0.262159
O O4 0.000000 0.669624 0.239501
O O5 0.652383 0.500000 0.631901
O O6 0.605699 0.394302 0.624374
O O7 0.721684 0.403391 0.603700
O O8 0.679388 0.421715 0.732357
O O9 0.278999 0.000000 0.069618
O O10 0.304456 0.099472 0.000000
O O11 0.806712 0.078247 0.500000
O O12 0.898461 0.101539 0.587604
O O13 0.786045 0.099900 0.635075
O O14 0.843117 0.000000 0.599056
O O15 0.808728 0.808728 0.276393
#
# Coordination Sequence:
#
# PCOD8319809 Si02
#       5
#    32  32  32  32  32
#     4  10  20  34  54  78 102 129 161 198 242 292
#     4   9  16  25  40  63  91 125 162 201 246 292
#     4   8  15  30  50  68  88 119 159 196 228 271
#     4   9  16  25  39  60  88 125 166 207 252 299
#     4   9  17  31  49  67  91 123 162 206 246 286
#
# _framework density 17.600504000000001
#
# number of rings (size 3 to 8) (size 9 to 14) (size 15 to 20)
#    0.000    3.000    0.000    3.000    0.000    1.400 
#    0.000    2.000    0.000    5.400    0.000    5.600 
#    0.000    0.000    0.000    0.000    0.000    0.000 
#
# Total GULP energy -991176.787011 kJ/mol
# GULP energy per Si atom -12389.709838 kJ/mol
# Density = 1.756044 g / cm^3
# Si number density = 17.600504 Si / 1000 Ang^3
#
#
#
# Elastic Constant Matrix: (Units=GPa)
#
#
# Indices 1 2 3 4 5 6 
#
# 1 55.5747 35.1832 33.1729 0.0000 0.0000 0.0000
# 2 35.1832 55.5747 33.1729 0.0000 0.0000 0.0000
# 3 33.1729 33.1729 120.7711 0.0000 0.0000 0.0000
# 4 0.0000 0.0000 0.0000 15.9302 0.0000 0.0000
# 5 0.0000 0.0000 0.0000 0.0000 15.9302 0.0000
# 6 0.0000 0.0000 0.0000 0.0000 0.0000 24.8261
#
#
#
# Elastic Compliance Matrix: (Units=1/GPa)
#
#
# Indices 1 2 3 4 5 6 
#
# 1 0.031413 -0.017627 -0.003787 0.000000 0.000000 0.000000
# 2 -0.017627 0.031413 -0.003787 0.000000 0.000000 0.000000
# 3 -0.003787 -0.003787 0.010360 0.000000 0.000000 0.000000
# 4 0.000000 0.000000 0.000000 0.062774 0.000000 0.000000
# 5 0.000000 0.000000 0.000000 0.000000 0.062774 0.000000
# 6 0.000000 0.000000 0.000000 0.000000 0.000000 0.040280
#
#
# Mechanical properties :
#
#
# Convention : Reuss Voigt Hill
#
# Bulk Modulus (GPa) = 43.88615 48.33095 46.10855
# Shear Modulus (GPa) = 16.83441 20.03009 18.43225
#
# Velocity S-wave (km/s) = 3.09605 3.37715 3.23965
# Velocity P-wave (km/s) = 6.14568 6.53654 6.34412
#
# Compressibility (1/GPa) = 0.02278623
#
# Stress axis : x y z
#
# Youngs Moduli (GPa) = 31.83365 31.83365 96.52103
#
# Poissons Ratio (x) = 0.56112 0.36551
# Poissons Ratio (y) = 0.56112 0.36551
# Poissons Ratio (z) = 0.12055 0.12055
#
# Static dielectric constant tensor:
#      x y z
#    x 2.981770 0.000000 0.000000 
#    y 0.000000 2.981770 0.000000 
#    z 0.000000 0.000000 3.723130 
# 
# 
# High freq. dielectric constant tensor:
#      x y z
#    x 1.651680 0.000000 0.000000 
#    y 0.000000 1.651680 0.000000 
#    z 0.000000 0.000000 1.690160 
# 
# From -- ./inp_files/8399.got.cif
#   From: 2010.03.12/outbox.cif.g09.slc.cpg/sg139_5_cif.got.tgz:8399.got - 2010.04.08 09:46:31.
