data_PCOD8319282
_publ_section_title
;
Structure prediction by ZEFSAII (Michael W. Deem and Ramdas Pophale) SiO2 
 PCOD8319282
Probable space group: I 4/M M M
;
_chemical_formula_sum "Si O2"
_cell_formula_units_Z 192
_cell_length_a 27.039380
_cell_length_b 27.039380
_cell_length_c 15.779364
_cell_angle_alpha 90.000000
_cell_angle_beta 90.000000
_cell_angle_gamma 90.000000
_cell_volume 11536.735960
_symmetry_space_group_name_H-M "I 4/M M M"
_symmetry_group_IT_number 139
_symmetry_cell_setting 'tetragonal'
loop_
_space_group_symop_operation_xyz
x,y,z
-y,x,z
-x,-y,z
y,-x,z
x,-y,-z
-x,y,-z
y,x,-z
-y,-x,-z
-x,-y,-z
y,-x,-z
x,y,-z
-y,x,-z
-x,y,z
x,-y,z
-y,-x,z
y,x,z
1/2+x,1/2+y,1/2+z
1/2-y,1/2+x,1/2+z
1/2-x,1/2-y,1/2+z
1/2+y,1/2-x,1/2+z
1/2+x,1/2-y,1/2-z
1/2-x,1/2+y,1/2-z
1/2+y,1/2+x,1/2-z
1/2-y,1/2-x,1/2-z
1/2-x,1/2-y,1/2-z
1/2+y,1/2-x,1/2-z
1/2+x,1/2+y,1/2-z
1/2-y,1/2+x,1/2-z
1/2-x,1/2+y,1/2+z
1/2+x,1/2-y,1/2+z
1/2-y,1/2-x,1/2+z
1/2+y,1/2+x,1/2+z
loop_
_atom_site_type_symbol
_atom_site_label
_atom_site_fract_x
_atom_site_fract_y
_atom_site_fract_z
Si Si1 0.813058 0.404050 0.908328
Si Si2 0.443886 0.860454 0.253075
Si Si3 0.055628 0.134548 0.599205
Si Si4 0.322002 0.244154 0.304499
Si Si5 0.181498 0.390926 0.593102
Si Si6 0.789570 0.132234 0.351048
O O1 0.824136 0.439741 0.828795
O O2 0.858088 0.366811 0.911540
O O3 0.761818 0.373892 0.900344
O O4 0.811508 0.432309 0.000000
O O5 0.500000 0.880096 0.258158
O O6 0.407757 0.907757 0.250000
O O7 0.432901 0.826988 0.335944
O O8 0.057135 0.146530 0.500000
O O9 0.083268 0.083268 0.619547
O O10 0.081194 0.180169 0.647014
O O11 0.000000 0.129437 0.633101
O O12 0.273965 0.273965 0.338489
O O13 0.303637 0.196364 0.250000
O O14 0.355522 0.227257 0.382503
O O15 0.355613 0.279140 0.246553
O O16 0.192090 0.414435 0.500000
O O17 0.823222 0.176778 0.391358
#
# Coordination Sequence:
#
# PCOD8319282 Si02
#       6
#    32  32  32  32  32  32
#     4  10  19  31  50  74 100 129 158 192 241 295
#     4  10  21  38  55  73  96 121 158 207 258 307
#     4   9  18  31  45  64  91 123 161 200 237 281
#     4  10  17  29  47  69 100 134 168 201 233 278
#     4  10  19  33  51  71  97 129 166 201 239 288
#     4  10  18  29  47  69 101 135 162 196 237 277
#
# _framework density 16.642488
#
# number of rings (size 3 to 8) (size 9 to 14) (size 15 to 20)
#    0.000    2.167    3.333    1.000    0.000    3.000 
#    0.000    2.500    0.000    0.000    0.000    4.667 
#    0.000    0.000    0.000    0.000    0.000    0.167 
#
# Total GULP energy -1189774.792906 kJ/mol
# GULP energy per Si atom -12393.487426 kJ/mol
# Density = 1.660461 g / cm^3
# Si number density = 16.642488 Si / 1000 Ang^3
#
#
#
# Elastic Constant Matrix: (Units=GPa)
#
#
# Indices 1 2 3 4 5 6 
#
# 1 71.9262 22.8508 36.0520 0.0000 0.0000 0.0000
# 2 22.8508 71.9266 36.0519 0.0000 0.0000 0.0000
# 3 36.0520 36.0519 117.5053 0.0000 0.0000 0.0000
# 4 0.0000 0.0000 0.0000 13.8643 0.0000 0.0000
# 5 0.0000 0.0000 0.0000 0.0000 13.8643 0.0000
# 6 0.0000 0.0000 0.0000 0.0000 0.0000 16.2794
#
#
#
# Elastic Compliance Matrix: (Units=1/GPa)
#
#
# Indices 1 2 3 4 5 6 
#
# 1 0.017070 -0.003307 -0.004223 0.000000 0.000000 0.000000
# 2 -0.003307 0.017070 -0.004223 0.000000 0.000000 0.000000
# 3 -0.004223 -0.004223 0.011101 0.000000 0.000000 0.000000
# 4 0.000000 0.000000 0.000000 0.072128 0.000000 0.000000
# 5 0.000000 0.000000 0.000000 0.000000 0.072128 0.000000
# 6 0.000000 0.000000 0.000000 0.000000 0.000000 0.061427
#
#
# Mechanical properties :
#
#
# Convention : Reuss Voigt Hill
#
# Bulk Modulus (GPa) = 46.00352 50.14082 48.07217
# Shear Modulus (GPa) = 17.75096 19.89516 18.82306
#
# Velocity S-wave (km/s) = 3.26943 3.46127 3.36672
# Velocity P-wave (km/s) = 6.47723 6.79466 6.63784
#
# Compressibility (1/GPa) = 0.02173747
#
# Stress axis : x y z
#
# Youngs Moduli (GPa) = 58.58139 58.58179 90.07801
#
# Poissons Ratio (x) = 0.19370 0.38039
# Poissons Ratio (y) = 0.19370 0.38038
# Poissons Ratio (z) = 0.24738 0.24738
#
# Static dielectric constant tensor:
#      x y z
#    x 3.038680 0.000000 0.000000 
#    y 0.000000 3.038680 0.000000 
#    z 0.000000 0.000000 1.619750 
# 
# 
# High freq. dielectric constant tensor:
#      x y z
#    x 1.626330 0.000000 0.000000 
#    y 0.000000 1.626330 0.000000 
#    z 0.000000 0.000000 1.627460 
# 
# From -- ./inp_files/6640.got.cif
#   From: 2010.03.12/outbox.cif.g09.slc.cpg/sg139_4_cif.got.tgz:6640.got - 2010.04.08 09:46:31.
