data_PCOD8319409
_publ_section_title
;
Structure prediction by ZEFSAII (Michael W. Deem and Ramdas Pophale) SiO2 
 PCOD8319409
Probable space group: I 4/M M M
;
_chemical_formula_sum "Si O2"
_cell_formula_units_Z 192
_cell_length_a 26.849734
_cell_length_b 26.849734
_cell_length_c 15.022768
_cell_angle_alpha 90.000000
_cell_angle_beta 90.000000
_cell_angle_gamma 90.000000
_cell_volume 10830.036876
_symmetry_space_group_name_H-M "I 4/M M M"
_symmetry_group_IT_number 139
_symmetry_cell_setting 'tetragonal'
loop_
_space_group_symop_operation_xyz
x,y,z
-y,x,z
-x,-y,z
y,-x,z
x,-y,-z
-x,y,-z
y,x,-z
-y,-x,-z
-x,-y,-z
y,-x,-z
x,y,-z
-y,x,-z
-x,y,z
x,-y,z
-y,-x,z
y,x,z
1/2+x,1/2+y,1/2+z
1/2-y,1/2+x,1/2+z
1/2-x,1/2-y,1/2+z
1/2+y,1/2-x,1/2+z
1/2+x,1/2-y,1/2-z
1/2-x,1/2+y,1/2-z
1/2+y,1/2+x,1/2-z
1/2-y,1/2-x,1/2-z
1/2-x,1/2-y,1/2-z
1/2+y,1/2-x,1/2-z
1/2+x,1/2+y,1/2-z
1/2-y,1/2+x,1/2-z
1/2-x,1/2+y,1/2+z
1/2+x,1/2-y,1/2+z
1/2-y,1/2-x,1/2+z
1/2+y,1/2+x,1/2+z
loop_
_atom_site_type_symbol
_atom_site_label
_atom_site_fract_x
_atom_site_fract_y
_atom_site_fract_z
Si Si1 0.058664 0.556655 0.000000
Si Si2 0.056489 0.286317 0.601417
Si Si3 0.808003 0.808003 0.900589
Si Si4 0.884180 0.386680 0.148911
Si Si5 0.558280 0.710029 0.253591
Si Si6 0.945193 0.054808 0.104736
Si Si7 0.381570 0.228327 0.602969
Si Si8 0.376759 0.376759 0.289551
O O1 0.075724 0.586141 0.087326
O O2 0.080286 0.500000 0.000000
O O3 0.000000 0.555131 0.000000
O O4 0.064267 0.268915 0.500000
O O5 0.094142 0.330039 0.623939
O O6 0.069323 0.240385 0.664249
O O7 0.000000 0.305088 0.617483
O O8 0.749932 0.824338 0.886658
O O9 0.838655 0.838655 0.830720
O O10 0.823874 0.823874 0.000000
O O11 0.899021 0.399021 0.250000
O O12 0.883944 0.327588 0.137256
O O13 0.500000 0.702695 0.270940
O O14 0.580514 0.737867 0.340155
O O15 0.583526 0.656138 0.234356
O O16 0.905275 0.094726 0.133399
O O17 0.000000 0.069362 0.141162
O O18 0.946164 0.053837 0.000000
O O19 0.398585 0.230417 0.500000
#
# Coordination Sequence:
#
# PCOD8319409 Si02
#       8
#    16  32  16  32  32  16  32  16
#     4  11  26  44  60  83 114 150 186 223 276 332
#     4  10  20  37  60  80 104 142 185 229 278 330
#     4   8  17  31  50  69 104 145 179 216 267 318
#     4  12  22  37  61  87 114 142 184 227 275 329
#     4  10  21  35  54  82 110 144 189 229 276 335
#     4   9  17  28  45  72 106 148 198 238 272 331
#     4  10  19  35  53  81 112 145 182 226 273 329
#     4  10  18  32  50  73 110 146 177 231 285 327
#
# _framework density 17.728470999999999
#
# number of rings (size 3 to 8) (size 9 to 14) (size 15 to 20)
#    0.000    1.833    3.333    1.500    0.000    3.000 
#    0.000    2.500    0.000    0.000    0.000    0.000 
#    0.000    0.000    0.000   10.167    0.000    0.000 
#
# Total GULP energy -1189815.797094 kJ/mol
# GULP energy per Si atom -12393.914553 kJ/mol
# Density = 1.768812 g / cm^3
# Si number density = 17.728471 Si / 1000 Ang^3
#
#
#
# Elastic Constant Matrix: (Units=GPa)
#
#
# Indices 1 2 3 4 5 6 
#
# 1 89.3676 51.1761 32.8880 0.0000 0.0000 0.0000
# 2 51.1761 89.3675 32.8877 0.0000 0.0000 0.0000
# 3 32.8880 32.8877 113.5766 0.0000 0.0000 0.0000
# 4 0.0000 0.0000 0.0000 14.7280 0.0000 0.0000
# 5 0.0000 0.0000 0.0000 0.0000 14.7289 0.0000
# 6 0.0000 0.0000 0.0000 0.0000 0.0000 21.1667
#
#
#
# Elastic Compliance Matrix: (Units=1/GPa)
#
#
# Indices 1 2 3 4 5 6 
#
# 1 0.017207 -0.008977 -0.002383 0.000000 0.000000 0.000000
# 2 -0.008977 0.017207 -0.002383 0.000000 0.000000 0.000000
# 3 -0.002383 -0.002383 0.010185 0.000000 0.000000 0.000000
# 4 0.000000 0.000000 0.000000 0.067898 0.000000 0.000000
# 5 0.000000 0.000000 0.000000 0.000000 0.067894 0.000000
# 6 0.000000 0.000000 0.000000 0.000000 0.000000 0.047244
#
#
# Mechanical properties :
#
#
# Convention : Reuss Voigt Hill
#
# Bulk Modulus (GPa) = 58.43536 58.46835 58.45186
# Shear Modulus (GPa) = 19.16989 21.81539 20.49264
#
# Velocity S-wave (km/s) = 3.29189 3.51169 3.40357
# Velocity P-wave (km/s) = 6.89069 7.03521 6.96332
#
# Compressibility (1/GPa) = 0.01711293
#
# Stress axis : x y z
#
# Youngs Moduli (GPa) = 58.11498 58.11505 98.18482
#
# Poissons Ratio (x) = 0.52168 0.23401
# Poissons Ratio (y) = 0.52168 0.23400
# Poissons Ratio (z) = 0.13851 0.13850
#
# Static dielectric constant tensor:
#      x y z
#    x 3.517800 0.000000 0.000000 
#    y 0.000000 3.517800 0.000000 
#    z 0.000000 0.000000 3.764470 
# 
# 
# High freq. dielectric constant tensor:
#      x y z
#    x 1.687300 0.000000 0.000000 
#    y 0.000000 1.687300 0.000000 
#    z 0.000000 0.000000 1.680380 
# 
# From -- ./inp_files/6556.got.cif
#   From: 2010.03.12/outbox.cif.g09.slc.cpg/sg139_4_cif.got.tgz:6556.got - 2010.04.08 09:46:31.
