data_PCOD8319056
_publ_section_title
;
Structure prediction by ZEFSAII (Michael W. Deem and Ramdas Pophale) SiO2 
 PCOD8319056
Probable space group: P 42/N C M
;
_chemical_formula_sum "Si O2"
_cell_formula_units_Z 112
_cell_length_a 14.176985
_cell_length_b 14.176985
_cell_length_c 27.635035
_cell_angle_alpha 90.000000
_cell_angle_beta 90.000000
_cell_angle_gamma 90.000000
_cell_volume 5554.280118
_symmetry_space_group_name_H-M "P 42/N C M"
_symmetry_group_IT_number 138
_space_group.IT_coordinate_system_code '2'
_symmetry_cell_setting 'tetragonal'
loop_
_space_group_symop_operation_xyz
x,y,z
1/2-y,x,1/2+z
1/2-x,1/2-y,z
y,1/2-x,1/2+z
1/2+x,-y,1/2-z
-x,1/2+y,1/2-z
1/2+y,1/2+x,-z
-y,-x,-z
-x,-y,-z
1/2+y,-x,1/2-z
1/2+x,1/2+y,-z
-y,1/2+x,1/2-z
1/2-x,y,1/2+z
x,1/2-y,1/2+z
1/2-y,1/2-x,z
y,x,z
loop_
_atom_site_type_symbol
_atom_site_label
_atom_site_fract_x
_atom_site_fract_y
_atom_site_fract_z
Si Si1 0.536049 0.118450 0.278391
Si Si2 0.012424 0.861037 0.465727
Si Si3 0.325207 0.174794 0.693963
Si Si4 0.753334 0.007477 0.639382
Si Si5 0.326114 0.173887 0.809182
Si Si6 0.277523 0.530321 0.198962
Si Si7 0.097499 0.249681 0.957518
Si Si8 0.697829 0.346497 0.384386
O O1 0.542423 0.161204 0.332329
O O2 0.630377 0.058642 0.270369
O O3 0.525406 0.193653 0.236542
O O4 0.444286 0.055715 0.274310
O O5 0.080691 0.919310 0.500000
O O6 0.074664 0.808555 0.425805
O O7 0.963294 0.777775 0.495956
O O8 0.932589 0.932589 0.443910
O O9 0.250000 0.250000 0.673873
O O10 0.326846 0.173155 0.751757
O O11 0.428268 0.204782 0.674314
O O12 0.826591 0.092224 0.633199
O O13 0.801640 0.928801 0.672073
O O14 0.722394 0.969577 0.586985
O O15 0.250000 0.250000 0.828952
O O16 0.257381 0.609310 0.159064
O O17 0.162423 0.337578 0.940719
O O18 0.160126 0.160126 0.972397
O O19 0.750000 0.250000 0.401974
#
# Coordination Sequence:
#
# PCOD8319056 Si02
#       8
#    16  16   8  16   8  16  16  16
#     4  12  25  43  66  96 134 174 216 276 329 387
#     4  10  22  43  69  97 129 165 215 275 331 395
#     4  11  24  46  62  90 133 174 226 276 323 385
#     4  12  22  39  68  99 136 171 216 272 333 393
#     4  11  22  38  64 105 133 163 218 279 335 384
#     4  12  26  43  65  93 129 175 223 266 326 391
#     4  10  20  38  67 102 133 165 213 277 340 392
#     4  12  27  45  65  96 131 178 224 269 326 399
#
# _framework density 20.164629000000001
#
# number of rings (size 3 to 8) (size 9 to 14) (size 15 to 20)
#    0.000    0.714    5.714    2.571    1.000    1.429 
#    1.286    0.000    0.000    0.857    0.000    0.000 
#    0.000    0.000    0.000    0.000    0.000    0.000 
#
# Total GULP energy -1389230.244620 kJ/mol
# GULP energy per Si atom -12403.841470 kJ/mol
# Density = 2.011873 g / cm^3
# Si number density = 20.164629 Si / 1000 Ang^3
#
#
#
# Elastic Constant Matrix: (Units=GPa)
#
#
# Indices 1 2 3 4 5 6 
#
# 1 83.8200 36.6984 33.6202 0.0000 0.0000 0.0000
# 2 36.6984 83.8108 33.6194 0.0000 0.0000 0.0000
# 3 33.6202 33.6194 78.0508 0.0000 0.0000 0.0000
# 4 0.0000 0.0000 0.0000 32.2382 0.0000 0.0000
# 5 0.0000 0.0000 0.0000 0.0000 32.2382 0.0000
# 6 0.0000 0.0000 0.0000 0.0000 0.0000 46.7561
#
#
#
# Elastic Compliance Matrix: (Units=1/GPa)
#
#
# Indices 1 2 3 4 5 6 
#
# 1 0.016072 -0.005150 -0.004705 0.000000 0.000000 0.000000
# 2 -0.005150 0.016074 -0.004705 0.000000 0.000000 0.000000
# 3 -0.004705 -0.004705 0.016865 0.000000 0.000000 0.000000
# 4 0.000000 0.000000 0.000000 0.031019 0.000000 0.000000
# 5 0.000000 0.000000 0.000000 0.000000 0.031019 0.000000
# 6 0.000000 0.000000 0.000000 0.000000 0.000000 0.021388
#
#
# Mechanical properties :
#
#
# Convention : Reuss Voigt Hill
#
# Bulk Modulus (GPa) = 50.27303 50.39530 50.33417
# Shear Modulus (GPa) = 29.72846 31.69608 30.71227
#
# Velocity S-wave (km/s) = 3.84381 3.96898 3.90689
# Velocity P-wave (km/s) = 6.68470 6.78601 6.73555
#
# Compressibility (1/GPa) = 0.01989138
#
# Stress axis : x y z
#
# Youngs Moduli (GPa) = 62.21867 62.21109 59.29296
#
# Poissons Ratio (x) = 0.32041 0.27895
# Poissons Ratio (y) = 0.32045 0.27899
# Poissons Ratio (z) = 0.29272 0.29272
#
# Static dielectric constant tensor:
#      x y z
#    x 3.802770 0.000000 0.000000 
#    y 0.000000 3.802840 0.000000 
#    z 0.000000 0.000000 3.501020 
# 
# 
# High freq. dielectric constant tensor:
#      x y z
#    x 1.798980 0.000000 0.000000 
#    y 0.000000 1.798980 0.000000 
#    z 0.000000 0.000000 1.768590 
# 
# From -- ./inp_files/7622.got.cif
#   From: 2010.03.12/outbox.cif.g09.slc.cpg/sg138_4_cif.got.tgz:7622.got - 2010.04.08 09:41:05.
