data_PCOD8319634
_publ_section_title
;
Structure prediction by ZEFSAII (Michael W. Deem and Ramdas Pophale) SiO2 
 PCOD8319634
Probable space group: I 4/M M M
;
_chemical_formula_sum "Si O2"
_cell_formula_units_Z 192
_cell_length_a 18.627766
_cell_length_b 18.627766
_cell_length_c 30.894955
_cell_angle_alpha 90.000000
_cell_angle_beta 90.000000
_cell_angle_gamma 90.000000
_cell_volume 10720.353701
_symmetry_space_group_name_H-M "I 4/M M M"
_symmetry_group_IT_number 139
_symmetry_cell_setting 'tetragonal'
loop_
_space_group_symop_operation_xyz
x,y,z
-y,x,z
-x,-y,z
y,-x,z
x,-y,-z
-x,y,-z
y,x,-z
-y,-x,-z
-x,-y,-z
y,-x,-z
x,y,-z
-y,x,-z
-x,y,z
x,-y,z
-y,-x,z
y,x,z
1/2+x,1/2+y,1/2+z
1/2-y,1/2+x,1/2+z
1/2-x,1/2-y,1/2+z
1/2+y,1/2-x,1/2+z
1/2+x,1/2-y,1/2-z
1/2-x,1/2+y,1/2-z
1/2+y,1/2+x,1/2-z
1/2-y,1/2-x,1/2-z
1/2-x,1/2-y,1/2-z
1/2+y,1/2-x,1/2-z
1/2+x,1/2+y,1/2-z
1/2-y,1/2+x,1/2-z
1/2-x,1/2+y,1/2+z
1/2+x,1/2-y,1/2+z
1/2-y,1/2-x,1/2+z
1/2+y,1/2+x,1/2+z
loop_
_atom_site_type_symbol
_atom_site_label
_atom_site_fract_x
_atom_site_fract_y
_atom_site_fract_z
Si Si1 0.418733 0.794924 0.336843
Si Si2 0.415500 0.298586 0.582031
Si Si3 0.918226 0.801975 0.589517
Si Si4 0.347817 0.770765 0.500000
Si Si5 0.746227 0.366708 0.248466
Si Si6 0.581363 0.224054 0.000000
Si Si7 0.418619 0.806331 0.837314
O O1 0.500000 0.817534 0.345952
O O2 0.390898 0.743024 0.374796
O O3 0.413682 0.752035 0.291799
O O4 0.375501 0.868731 0.334929
O O5 0.500000 0.315248 0.581509
O O6 0.374378 0.374378 0.579637
O O7 0.394424 0.248891 0.541746
O O8 0.873397 0.873397 0.596758
O O9 0.907598 0.773975 0.541275
O O10 0.891166 0.741467 0.622764
O O11 0.000000 0.822291 0.599543
O O12 0.271521 0.728480 0.500000
O O13 0.336578 0.856966 0.500000
O O14 0.666487 0.333514 0.245424
O O15 0.803159 0.303159 0.250000
O O16 0.760119 0.415712 0.206677
O O17 0.500000 0.190338 0.000000
O O18 0.500000 0.832585 0.844821
#
# Coordination Sequence:
#
# PCOD8319634 Si02
#       7
#    32  32  32  16  32  16  32
#     4  10  20  33  50  74 103 134 170 209 250 301
#     4  10  21  36  55  79 104 132 167 207 253 304
#     4  10  20  33  50  73 100 131 169 211 255 302
#     4  10  19  33  55  78 103 135 169 208 252 298
#     4   9  17  30  49  71  95 126 165 208 251 293
#     4  10  20  33  51  76 104 134 171 212 249 291
#     4  10  20  33  50  73 101 134 172 212 253 298
#
# _framework density 17.909856000000001
#
# number of rings (size 3 to 8) (size 9 to 14) (size 15 to 20)
#    0.000    2.167    0.000    3.500    0.000    4.000 
#    0.000    0.000    0.000    8.000    0.000    0.000 
#    0.000   12.000    0.000    0.000    0.000    0.000 
#
# Total GULP energy -1190588.887369 kJ/mol
# GULP energy per Si atom -12401.967577 kJ/mol
# Density = 1.786909 g / cm^3
# Si number density = 17.909856 Si / 1000 Ang^3
#
#
#
# Elastic Constant Matrix: (Units=GPa)
#
#
# Indices 1 2 3 4 5 6 
#
# 1 87.3629 51.1826 32.2770 0.0000 0.0000 0.0000
# 2 51.1826 87.3630 32.2772 0.0000 0.0000 0.0000
# 3 32.2770 32.2772 121.8555 0.0000 0.0000 0.0000
# 4 0.0000 0.0000 0.0000 25.2824 0.0000 0.0000
# 5 0.0000 0.0000 0.0000 0.0000 25.2829 0.0000
# 6 0.0000 0.0000 0.0000 0.0000 0.0000 26.1198
#
#
#
# Elastic Compliance Matrix: (Units=1/GPa)
#
#
# Indices 1 2 3 4 5 6 
#
# 1 0.017937 -0.009703 -0.002181 0.000000 0.000000 0.000000
# 2 -0.009703 0.017937 -0.002181 0.000000 0.000000 0.000000
# 3 -0.002181 -0.002181 0.009362 0.000000 0.000000 0.000000
# 4 0.000000 0.000000 0.000000 0.039553 0.000000 0.000000
# 5 0.000000 0.000000 0.000000 0.000000 0.039552 0.000000
# 6 0.000000 0.000000 0.000000 0.000000 0.000000 0.038285
#
#
# Mechanical properties :
#
#
# Convention : Reuss Voigt Hill
#
# Bulk Modulus (GPa) = 58.45948 58.67275 58.56611
# Shear Modulus (GPa) = 25.45080 27.39331 26.42205
#
# Velocity S-wave (km/s) = 3.77377 3.91514 3.84510
# Velocity P-wave (km/s) = 7.19029 7.29855 7.24462
#
# Compressibility (1/GPa) = 0.01710587
#
# Stress axis : x y z
#
# Youngs Moduli (GPa) = 55.75161 55.75158 106.81625
#
# Poissons Ratio (x) = 0.54094 0.23297
# Poissons Ratio (y) = 0.54094 0.23297
# Poissons Ratio (z) = 0.12160 0.12160
#
# Static dielectric constant tensor:
#      x y z
#    x 3.160950 0.000000 0.000000 
#    y 0.000000 3.160950 0.000000 
#    z 0.000000 0.000000 3.599020 
# 
# 
# High freq. dielectric constant tensor:
#      x y z
#    x 1.681570 0.000000 0.000000 
#    y 0.000000 1.681570 0.000000 
#    z 0.000000 0.000000 1.716820 
# 
# From -- ./inp_files/14386.got.cif
#   From: 2010.03.12/outbox.cif.g09.slc.cpg/sg139_8_cif.got.tgz:14386.got - 2010.04.08 09:46:31.
