data_PCOD8319273
_publ_section_title
;
Structure prediction by ZEFSAII (Michael W. Deem and Ramdas Pophale) SiO2 
 PCOD8319273
Probable space group: I 4/M M M
;
_chemical_formula_sum "Si O2"
_cell_formula_units_Z 240
_cell_length_a 21.012323
_cell_length_b 21.012323
_cell_length_c 32.223101
_cell_angle_alpha 90.000000
_cell_angle_beta 90.000000
_cell_angle_gamma 90.000000
_cell_volume 14227.070016
_symmetry_space_group_name_H-M "I 4/M M M"
_symmetry_group_IT_number 139
_symmetry_cell_setting 'tetragonal'
loop_
_space_group_symop_operation_xyz
x,y,z
-y,x,z
-x,-y,z
y,-x,z
x,-y,-z
-x,y,-z
y,x,-z
-y,-x,-z
-x,-y,-z
y,-x,-z
x,y,-z
-y,x,-z
-x,y,z
x,-y,z
-y,-x,z
y,x,z
1/2+x,1/2+y,1/2+z
1/2-y,1/2+x,1/2+z
1/2-x,1/2-y,1/2+z
1/2+y,1/2-x,1/2+z
1/2+x,1/2-y,1/2-z
1/2-x,1/2+y,1/2-z
1/2+y,1/2+x,1/2-z
1/2-y,1/2-x,1/2-z
1/2-x,1/2-y,1/2-z
1/2+y,1/2-x,1/2-z
1/2+x,1/2+y,1/2-z
1/2-y,1/2+x,1/2-z
1/2-x,1/2+y,1/2+z
1/2+x,1/2-y,1/2+z
1/2-y,1/2-x,1/2+z
1/2+y,1/2+x,1/2+z
loop_
_atom_site_type_symbol
_atom_site_label
_atom_site_fract_x
_atom_site_fract_y
_atom_site_fract_z
Si Si1 0.701894 0.928517 0.452387
Si Si2 0.179126 0.926084 0.220578
Si Si3 0.847475 0.740979 0.625146
Si Si4 0.675238 0.427345 0.816470
Si Si5 0.068904 0.379782 0.953057
Si Si6 0.326397 0.574783 0.500000
Si Si7 0.244148 0.927593 0.919413
Si Si8 0.149522 0.250904 0.158167
O O1 0.719338 0.908827 0.500000
O O2 0.731418 0.878358 0.420267
O O3 0.625347 0.929957 0.446393
O O4 0.726666 0.000000 0.443305
O O5 0.116355 0.883646 0.209283
O O6 0.195819 0.919651 0.268870
O O7 0.242442 0.900203 0.196429
O O8 0.165451 0.000000 0.209022
O O9 0.789556 0.789556 0.618382
O O10 0.900847 0.767515 0.655861
O O11 0.821788 0.675298 0.646604
O O12 0.662179 0.500000 0.828556
O O13 0.610319 0.389682 0.825881
O O14 0.078081 0.320109 0.922820
O O15 0.000000 0.412437 0.943979
O O16 0.069541 0.352896 0.000000
O O17 0.332375 0.500000 0.500000
O O18 0.397035 0.602966 0.500000
O O19 0.288660 0.600276 0.460224
O O20 0.220481 0.885246 0.881423
O O21 0.223017 0.000000 0.911476
O O22 0.211006 0.211006 0.170690
#
# Coordination Sequence:
#
# PCOD8319273 Si02
#       8
#    32  32  32  32  32  16  32  32
#     4  10  20  33  49  70  97 126 157 195 241 288
#     4   9  18  32  50  73  99 127 161 201 244 287
#     4  10  20  33  49  71  99 130 161 192 233 283
#     4   9  18  33  53  75  99 127 158 194 236 284
#     4   9  16  28  45  64  88 116 150 192 236 278
#     4  10  20  31  44  62  85 121 165 205 248 288
#     4  10  17  28  44  62  86 116 152 196 238 278
#     4  10  19  30  45  68  95 122 156 195 235 282
#
# _framework density 16.869250000000001
#
# number of rings (size 3 to 8) (size 9 to 14) (size 15 to 20)
#    0.000    2.400    2.000    1.200    0.000    1.400 
#    0.000    5.333    0.000    0.000    0.000    1.867 
#    0.000    0.000    0.000   18.533    0.000    0.400 
#
# Total GULP energy -1487056.709021 kJ/mol
# GULP energy per Si atom -12392.139242 kJ/mol
# Density = 1.683085 g / cm^3
# Si number density = 16.869250 Si / 1000 Ang^3
#
#
#
# Elastic Constant Matrix: (Units=GPa)
#
#
# Indices 1 2 3 4 5 6 
#
# 1 72.5634 37.4348 46.1274 0.0000 0.0000 0.0000
# 2 37.4348 72.5664 46.1275 0.0000 0.0000 0.0000
# 3 46.1274 46.1275 89.3498 0.0000 0.0000 0.0000
# 4 0.0000 0.0000 0.0000 26.4758 0.0000 0.0000
# 5 0.0000 0.0000 0.0000 0.0000 26.4757 0.0000
# 6 0.0000 0.0000 0.0000 0.0000 0.0000 17.1182
#
#
#
# Elastic Compliance Matrix: (Units=1/GPa)
#
#
# Indices 1 2 3 4 5 6 
#
# 1 0.022250 -0.006216 -0.008277 0.000000 0.000000 0.000000
# 2 -0.006216 0.022248 -0.008277 0.000000 0.000000 0.000000
# 3 -0.008277 -0.008277 0.019738 0.000000 0.000000 0.000000
# 4 0.000000 0.000000 0.000000 0.037770 0.000000 0.000000
# 5 0.000000 0.000000 0.000000 0.000000 0.037771 0.000000
# 6 0.000000 0.000000 0.000000 0.000000 0.000000 0.058417
#
#
# Mechanical properties :
#
#
# Convention : Reuss Voigt Hill
#
# Bulk Modulus (GPa) = 53.48878 54.87323 54.18101
# Shear Modulus (GPa) = 20.00261 20.99993 20.50127
#
# Velocity S-wave (km/s) = 3.44720 3.53209 3.48990
# Velocity P-wave (km/s) = 6.90079 7.01665 6.95896
#
# Compressibility (1/GPa) = 0.01869551
#
# Stress axis : x y z
#
# Youngs Moduli (GPa) = 44.94421 44.94686 50.66355
#
# Poissons Ratio (x) = 0.27941 0.41936
# Poissons Ratio (y) = 0.27939 0.41933
# Poissons Ratio (z) = 0.37202 0.37201
#
# Static dielectric constant tensor:
#      x y z
#    x 3.090630 0.000000 0.000000 
#    y 0.000000 3.090620 0.000000 
#    z 0.000000 0.000000 3.164700 
# 
# 
# High freq. dielectric constant tensor:
#      x y z
#    x 1.638020 0.000000 0.000000 
#    y 0.000000 1.638020 0.000000 
#    z 0.000000 0.000000 1.647010 
# 
# From -- ./inp_files/14615.got.cif
#   From: 2010.03.12/outbox.cif.g09.slc.cpg/sg139_8_cif.got.tgz:14615.got - 2010.04.08 09:46:31.
