data_PCOD8319434
_publ_section_title
;
Structure prediction by ZEFSAII (Michael W. Deem and Ramdas Pophale) SiO2 
 PCOD8319434
Probable space group: I 4/M M M
;
_chemical_formula_sum "Si O2"
_cell_formula_units_Z 128
_cell_length_a 29.703533
_cell_length_b 29.703533
_cell_length_c 9.058220
_cell_angle_alpha 90.000000
_cell_angle_beta 90.000000
_cell_angle_gamma 90.000000
_cell_volume 7992.066353
_symmetry_space_group_name_H-M "I 4/M M M"
_symmetry_group_IT_number 139
_symmetry_cell_setting 'tetragonal'
loop_
_space_group_symop_operation_xyz
x,y,z
-y,x,z
-x,-y,z
y,-x,z
x,-y,-z
-x,y,-z
y,x,-z
-y,-x,-z
-x,-y,-z
y,-x,-z
x,y,-z
-y,x,-z
-x,y,z
x,-y,z
-y,-x,z
y,x,z
1/2+x,1/2+y,1/2+z
1/2-y,1/2+x,1/2+z
1/2-x,1/2-y,1/2+z
1/2+y,1/2-x,1/2+z
1/2+x,1/2-y,1/2-z
1/2-x,1/2+y,1/2-z
1/2+y,1/2+x,1/2-z
1/2-y,1/2-x,1/2-z
1/2-x,1/2-y,1/2-z
1/2+y,1/2-x,1/2-z
1/2+x,1/2+y,1/2-z
1/2-y,1/2+x,1/2-z
1/2-x,1/2+y,1/2+z
1/2+x,1/2-y,1/2+z
1/2-y,1/2-x,1/2+z
1/2+y,1/2+x,1/2+z
loop_
_atom_site_type_symbol
_atom_site_label
_atom_site_fract_x
_atom_site_fract_y
_atom_site_fract_z
Si Si1 0.500000 0.252555 0.667593
Si Si2 0.751086 0.911277 0.666122
Si Si3 0.000000 0.645030 0.834232
Si Si4 0.085940 0.645141 0.336542
Si Si5 0.319998 0.244772 0.669433
O O1 0.500000 0.271055 0.500000
O O2 0.455182 0.271069 0.750445
O O3 0.500000 0.198899 0.667084
O O4 0.771388 0.908562 0.500000
O O5 0.698148 0.916751 0.656239
O O6 0.762048 0.865777 0.754841
O O7 0.956697 0.625486 0.750763
O O8 0.000000 0.626484 0.000000
O O9 0.086560 0.624377 0.500000
O O10 0.130971 0.630971 0.250000
O O11 0.329671 0.231155 0.500000
O O12 0.285961 0.285961 0.680055
O O13 0.298935 0.201066 0.750000
#
# Coordination Sequence:
#
# PCOD8319434 Si02
#       5
#    16  32  16  32  32
#     4   9  17  29  45  63  84 108 135 170 212 255
#     4  10  19  30  45  64  86 110 139 175 213 253
#     4   9  17  29  43  58  76  97 121 153 194 238
#     4  10  19  29  42  60  79  99 124 156 195 239
#     4  10  20  32  45  62  86 117 152 187 222 261
#
# _framework density 16.015882000000001
#
# number of rings (size 3 to 8) (size 9 to 14) (size 15 to 20)
#    0.000    2.250    0.000    3.750    0.000    9.500 
#    0.000    0.000    0.000    0.375    0.000    2.625 
#    0.000    0.000    0.000    0.000    0.000    0.625 
#
# Total GULP energy -793491.513394 kJ/mol
# GULP energy per Si atom -12398.304897 kJ/mol
# Density = 1.597943 g / cm^3
# Si number density = 16.015882 Si / 1000 Ang^3
#
#
#
# Elastic Constant Matrix: (Units=GPa)
#
#
# Indices 1 2 3 4 5 6 
#
# 1 52.7549 -1.7282 30.3113 0.0000 0.0000 0.0000
# 2 -1.7282 52.7569 30.3129 0.0000 0.0000 0.0000
# 3 30.3113 30.3129 157.3077 0.0000 0.0000 0.0000
# 4 0.0000 0.0000 0.0000 23.5956 0.0000 0.0000
# 5 0.0000 0.0000 0.0000 0.0000 23.5953 0.0000
# 6 0.0000 0.0000 0.0000 0.0000 0.0000 8.9164
#
#
#
# Elastic Compliance Matrix: (Units=1/GPa)
#
#
# Indices 1 2 3 4 5 6 
#
# 1 0.021885 0.003531 -0.004897 0.000000 0.000000 0.000000
# 2 0.003531 0.021884 -0.004897 0.000000 0.000000 0.000000
# 3 -0.004897 -0.004897 0.008244 0.000000 0.000000 0.000000
# 4 0.000000 0.000000 0.000000 0.042381 0.000000 0.000000
# 5 0.000000 0.000000 0.000000 0.000000 0.042381 0.000000
# 6 0.000000 0.000000 0.000000 0.000000 0.000000 0.112153
#
#
# Mechanical properties :
#
#
# Convention : Reuss Voigt Hill
#
# Bulk Modulus (GPa) = 25.32544 42.29017 33.80780
# Shear Modulus (GPa) = 18.20705 24.81636 21.51170
#
# Velocity S-wave (km/s) = 3.37532 3.94062 3.66887
# Velocity P-wave (km/s) = 5.57112 6.86783 6.25318
#
# Compressibility (1/GPa) = 0.03948599
#
# Stress axis : x y z
#
# Youngs Moduli (GPa) = 45.69311 45.69450 121.29499
#
# Poissons Ratio (x) = -0.16134 0.59403
# Poissons Ratio (y) = -0.16134 0.59404
# Poissons Ratio (z) = 0.22378 0.22379
#
# Static dielectric constant tensor:
#      x y z
#    x 2.792420 0.000000 0.000000 
#    y 0.000000 2.792410 0.000000 
#    z 0.000000 0.000000 3.483590 
# 
# 
# High freq. dielectric constant tensor:
#      x y z
#    x 1.576340 0.000000 0.000000 
#    y 0.000000 1.576340 0.000000 
#    z 0.000000 0.000000 1.644120 
# 
# From -- ./inp_files/1780.got.cif
#   From: 2010.03.12/outbox.cif.g09.slc.cpg/sg139_1_cif.got.tgz:1780.got - 2010.04.08 09:46:31.
