data_PCOD8319635
_publ_section_title
;
Structure prediction by ZEFSAII (Michael W. Deem and Ramdas Pophale) SiO2 
 PCOD8319635
Probable space group: I 4/M M M
;
_chemical_formula_sum "Si O2"
_cell_formula_units_Z 192
_cell_length_a 18.425708
_cell_length_b 18.425708
_cell_length_c 30.753422
_cell_angle_alpha 90.000000
_cell_angle_beta 90.000000
_cell_angle_gamma 90.000000
_cell_volume 10440.993287
_symmetry_space_group_name_H-M "I 4/M M M"
_symmetry_group_IT_number 139
_symmetry_cell_setting 'tetragonal'
loop_
_space_group_symop_operation_xyz
x,y,z
-y,x,z
-x,-y,z
y,-x,z
x,-y,-z
-x,y,-z
y,x,-z
-y,-x,-z
-x,-y,-z
y,-x,-z
x,y,-z
-y,x,-z
-x,y,z
x,-y,z
-y,-x,z
y,x,z
1/2+x,1/2+y,1/2+z
1/2-y,1/2+x,1/2+z
1/2-x,1/2-y,1/2+z
1/2+y,1/2-x,1/2+z
1/2+x,1/2-y,1/2-z
1/2-x,1/2+y,1/2-z
1/2+y,1/2+x,1/2-z
1/2-y,1/2-x,1/2-z
1/2-x,1/2-y,1/2-z
1/2+y,1/2-x,1/2-z
1/2+x,1/2+y,1/2-z
1/2-y,1/2+x,1/2-z
1/2-x,1/2+y,1/2+z
1/2+x,1/2-y,1/2+z
1/2-y,1/2-x,1/2+z
1/2+y,1/2+x,1/2+z
loop_
_atom_site_type_symbol
_atom_site_label
_atom_site_fract_x
_atom_site_fract_y
_atom_site_fract_z
Si Si1 0.584758 0.296957 0.416964
Si Si2 0.728454 0.848412 0.000000
Si Si3 0.084640 0.290659 0.168522
Si Si4 0.771363 0.582292 0.000000
Si Si5 0.202147 0.915697 0.746544
Si Si6 0.416646 0.805639 0.167007
Si Si7 0.418178 0.301036 0.091022
O O1 0.500000 0.315877 0.417130
O O2 0.627045 0.372956 0.419185
O O3 0.604425 0.247158 0.457895
O O4 0.608107 0.254045 0.373897
O O5 0.772059 0.772059 0.000000
O O6 0.641909 0.835047 0.000000
O O7 0.107973 0.244593 0.210289
O O8 0.123197 0.368109 0.169936
O O9 0.000000 0.308038 0.168512
O O10 0.720749 0.594671 0.041443
O O11 0.804325 0.500000 0.000000
O O12 0.127196 0.872805 0.743612
O O13 0.250772 0.895624 0.705263
O O14 0.181523 0.000000 0.747541
O O15 0.500000 0.830589 0.171173
O O16 0.400752 0.767932 0.120956
O O17 0.500000 0.327894 0.099197
O O18 0.366938 0.366938 0.104316
#
# Coordination Sequence:
#
# PCOD8319635 Si02
#       7
#    32  16  32  16  32  32  32
#     4  10  21  36  55  80 107 136 171 210 254 306
#     4  10  19  33  55  78 103 137 173 212 258 304
#     4  10  21  36  54  78 106 135 171 212 254 305
#     4  10  20  33  51  76 104 134 173 218 259 303
#     4  10  21  36  54  78 106 136 172 212 255 305
#     4  10  21  36  54  77 104 135 173 215 257 303
#     4  10  20  33  50  74 103 135 173 214 256 305
#
# _framework density 18.389054999999999
#
# number of rings (size 3 to 8) (size 9 to 14) (size 15 to 20)
#    0.000    2.000    0.000    3.500    0.000    5.500 
#    0.000    0.000    0.000   14.000    0.000    0.000 
#    0.000    0.000    0.000    0.000    0.000    0.000 
#
# Total GULP energy -1190817.823970 kJ/mol
# GULP energy per Si atom -12404.352333 kJ/mol
# Density = 1.834720 g / cm^3
# Si number density = 18.389055 Si / 1000 Ang^3
#
#
#
# Elastic Constant Matrix: (Units=GPa)
#
#
# Indices 1 2 3 4 5 6 
#
# 1 95.7022 66.2108 27.8493 0.0000 0.0000 0.0000
# 2 66.2108 95.7022 27.8493 0.0000 0.0000 0.0000
# 3 27.8493 27.8493 107.4317 0.0000 0.0000 0.0000
# 4 0.0000 0.0000 0.0000 14.0271 0.0000 0.0000
# 5 0.0000 0.0000 0.0000 0.0000 14.0271 0.0000
# 6 0.0000 0.0000 0.0000 0.0000 0.0000 35.5121
#
#
#
# Elastic Compliance Matrix: (Units=1/GPa)
#
#
# Indices 1 2 3 4 5 6 
#
# 1 0.020345 -0.013564 -0.001758 0.000000 0.000000 0.000000
# 2 -0.013564 0.020345 -0.001758 0.000000 0.000000 0.000000
# 3 -0.001758 -0.001758 0.010220 0.000000 0.000000 0.000000
# 4 0.000000 0.000000 0.000000 0.071291 0.000000 0.000000
# 5 0.000000 0.000000 0.000000 0.000000 0.071291 0.000000
# 6 0.000000 0.000000 0.000000 0.000000 0.000000 0.028159
#
#
# Mechanical properties :
#
#
# Convention : Reuss Voigt Hill
#
# Bulk Modulus (GPa) = 59.70108 60.29501 59.99805
# Shear Modulus (GPa) = 19.12843 24.50836 21.81840
#
# Velocity S-wave (km/s) = 3.22872 3.65467 3.44828
# Velocity P-wave (km/s) = 6.81437 7.11818 6.96793
#
# Compressibility (1/GPa) = 0.01675011
#
# Stress axis : x y z
#
# Youngs Moduli (GPa) = 49.15329 49.15329 97.85142
#
# Poissons Ratio (x) = 0.66670 0.17200
# Poissons Ratio (y) = 0.66670 0.17200
# Poissons Ratio (z) = 0.08640 0.08640
#
# Static dielectric constant tensor:
#      x y z
#    x 3.251490 0.000000 0.000000 
#    y 0.000000 3.251490 0.000000 
#    z 0.000000 0.000000 3.728600 
# 
# 
# High freq. dielectric constant tensor:
#      x y z
#    x 1.707040 0.000000 0.000000 
#    y 0.000000 1.707040 0.000000 
#    z 0.000000 0.000000 1.738330 
# 
# From -- ./inp_files/14347.got.cif
#   From: 2010.03.12/outbox.cif.g09.slc.cpg/sg139_8_cif.got.tgz:14347.got - 2010.04.08 09:46:31.
