data_PCOD8319640
_publ_section_title
;
Structure prediction by ZEFSAII (Michael W. Deem and Ramdas Pophale) SiO2 
 PCOD8319640
Probable space group: I 4/M M M
;
_chemical_formula_sum "Si O2"
_cell_formula_units_Z 112
_cell_length_a 17.740162
_cell_length_b 17.740162
_cell_length_c 17.392928
_cell_angle_alpha 90.000000
_cell_angle_beta 90.000000
_cell_angle_gamma 90.000000
_cell_volume 5473.786599
_symmetry_space_group_name_H-M "I 4/M M M"
_symmetry_group_IT_number 139
_symmetry_cell_setting 'tetragonal'
loop_
_space_group_symop_operation_xyz
x,y,z
-y,x,z
-x,-y,z
y,-x,z
x,-y,-z
-x,y,-z
y,x,-z
-y,-x,-z
-x,-y,-z
y,-x,-z
x,y,-z
-y,x,-z
-x,y,z
x,-y,z
-y,-x,z
y,x,z
1/2+x,1/2+y,1/2+z
1/2-y,1/2+x,1/2+z
1/2-x,1/2-y,1/2+z
1/2+y,1/2-x,1/2+z
1/2+x,1/2-y,1/2-z
1/2-x,1/2+y,1/2-z
1/2+y,1/2+x,1/2-z
1/2-y,1/2-x,1/2-z
1/2-x,1/2-y,1/2-z
1/2+y,1/2-x,1/2-z
1/2+x,1/2+y,1/2-z
1/2-y,1/2+x,1/2-z
1/2-x,1/2+y,1/2+z
1/2+x,1/2-y,1/2+z
1/2-y,1/2-x,1/2+z
1/2+y,1/2+x,1/2+z
loop_
_atom_site_type_symbol
_atom_site_label
_atom_site_fract_x
_atom_site_fract_y
_atom_site_fract_z
Si Si1 0.585081 0.585081 0.721064
Si Si2 0.290723 0.086870 0.410555
Si Si3 0.303144 0.303144 0.803199
Si Si4 0.846807 0.153194 0.090364
Si Si5 0.693483 0.917730 0.910922
O O1 0.500000 0.604543 0.746834
O O2 0.644680 0.644680 0.751404
O O3 0.594298 0.594298 0.628653
O O4 0.267488 0.097670 0.500000
O O5 0.241426 0.140126 0.357685
O O6 0.377072 0.113380 0.397333
O O7 0.282851 0.000000 0.385540
O O8 0.250000 0.250000 0.750000
O O9 0.761835 0.134597 0.119866
O O10 0.855386 0.144615 0.000000
O O11 0.692691 0.000000 0.869757
O O12 0.708222 0.930459 0.000000
#
# Coordination Sequence:
#
# PCOD8319640 Si02
#       5
#    16  32  16  16  32
#     4  11  24  39  55  78 112 151 185 225 285 351
#     4  10  21  38  62  88 112 146 197 250 293 343
#     4  12  24  40  60  85 116 153 189 237 298 360
#     4  10  19  33  56  84 113 148 194 238 273 330
#     4   9  17  30  51  81 115 146 178 225 283 333
#
# _framework density 20.461155999999999
#
# number of rings (size 3 to 8) (size 9 to 14) (size 15 to 20)
#    0.000    1.857    0.000    4.714    0.000    4.571 
#    0.000    5.000    0.000    0.000    0.000    6.000 
#    0.000    0.000    0.000    0.000    0.000    0.000 
#
# Total GULP energy -693868.005683 kJ/mol
# GULP energy per Si atom -12390.500101 kJ/mol
# Density = 2.041459 g / cm^3
# Si number density = 20.461156 Si / 1000 Ang^3
#
#
#
# Elastic Constant Matrix: (Units=GPa)
#
#
# Indices 1 2 3 4 5 6 
#
# 1 159.2295 101.1816 57.4266 0.0000 0.0000 0.0000
# 2 101.1816 159.2294 57.4264 0.0000 0.0000 0.0000
# 3 57.4266 57.4264 64.6586 0.0000 0.0000 0.0000
# 4 0.0000 0.0000 0.0000 22.3346 0.0000 0.0000
# 5 0.0000 0.0000 0.0000 0.0000 22.3346 0.0000
# 6 0.0000 0.0000 0.0000 0.0000 0.0000 34.6653
#
#
#
# Elastic Compliance Matrix: (Units=1/GPa)
#
#
# Indices 1 2 3 4 5 6 
#
# 1 0.011770 -0.005457 -0.005607 0.000000 0.000000 0.000000
# 2 -0.005457 0.011770 -0.005607 0.000000 0.000000 0.000000
# 3 -0.005607 -0.005607 0.025425 0.000000 0.000000 0.000000
# 4 0.000000 0.000000 0.000000 0.044774 0.000000 0.000000
# 5 0.000000 0.000000 0.000000 0.000000 0.044774 0.000000
# 6 0.000000 0.000000 0.000000 0.000000 0.000000 0.028847
#
#
# Mechanical properties :
#
#
# Convention : Reuss Voigt Hill
#
# Bulk Modulus (GPa) = 64.00487 90.57631 77.29059
# Shear Modulus (GPa) = 24.28251 27.00576 25.64414
#
# Velocity S-wave (km/s) = 3.44868 3.63692 3.54405
# Velocity P-wave (km/s) = 6.87073 7.87400 7.38941
#
# Compressibility (1/GPa) = 0.01562381
#
# Stress axis : x y z
#
# Youngs Moduli (GPa) = 84.96123 84.96139 39.33089
#
# Poissons Ratio (x) = 0.46364 0.22052
# Poissons Ratio (y) = 0.46364 0.22052
# Poissons Ratio (z) = 0.47637 0.47636
#
# Static dielectric constant tensor:
#      x y z
#    x 3.891540 0.000000 0.000000 
#    y 0.000000 3.891550 0.000000 
#    z 0.000000 0.000000 3.677100 
# 
# 
# High freq. dielectric constant tensor:
#      x y z
#    x 1.804860 0.000000 0.000000 
#    y 0.000000 1.804860 0.000000 
#    z 0.000000 0.000000 1.780960 
# 
# From -- ./inp_files/7620.got.cif
#   From: 2010.03.12/outbox.cif.g09.slc.cpg/sg139_4_cif.got.tgz:7620.got - 2010.04.08 09:46:31.
