data_PCOD8319068
_publ_section_title
;
Structure prediction by ZEFSAII (Michael W. Deem and Ramdas Pophale) SiO2 
 PCOD8319068
Probable space group: P 42/N C M
;
_chemical_formula_sum "Si O2"
_cell_formula_units_Z 64
_cell_length_a 12.259215
_cell_length_b 12.259215
_cell_length_c 22.594244
_cell_angle_alpha 90.000000
_cell_angle_beta 90.000000
_cell_angle_gamma 90.000000
_cell_volume 3395.651705
_symmetry_space_group_name_H-M "P 42/N C M"
_symmetry_group_IT_number 138
_space_group.IT_coordinate_system_code '2'
_symmetry_cell_setting 'tetragonal'
loop_
_space_group_symop_operation_xyz
x,y,z
1/2-y,x,1/2+z
1/2-x,1/2-y,z
y,1/2-x,1/2+z
1/2+x,-y,1/2-z
-x,1/2+y,1/2-z
1/2+y,1/2+x,-z
-y,-x,-z
-x,-y,-z
1/2+y,-x,1/2-z
1/2+x,1/2+y,-z
-y,1/2+x,1/2-z
1/2-x,y,1/2+z
x,1/2-y,1/2+z
1/2-y,1/2-x,z
y,x,z
loop_
_atom_site_type_symbol
_atom_site_label
_atom_site_fract_x
_atom_site_fract_y
_atom_site_fract_z
Si Si1 0.706310 0.435987 0.328008
Si Si2 0.052293 0.623816 0.695008
Si Si3 0.839678 0.839678 0.388720
Si Si4 0.498496 0.325184 0.373706
Si Si5 0.588849 0.588849 0.515442
O O1 0.671340 0.440739 0.260285
O O2 0.827810 0.388416 0.332730
O O3 0.704574 0.553520 0.357313
O O4 0.623977 0.358918 0.363837
O O5 0.980765 0.707677 0.655786
O O6 0.992491 0.507510 0.695106
O O7 0.750000 0.750000 0.380072
O O8 0.858364 0.858364 0.458274
O O9 0.417210 0.417210 0.344724
O O10 0.471103 0.318611 0.444018
O O11 0.500000 0.500000 0.500000
#
# Coordination Sequence:
#
# PCOD8319068 Si02
#       5
#    16  16   8  16   8
#     4  12  22  40  63  97 133 175 217 267 331 402
#     4  12  25  39  61  98 139 168 215 274 336 393
#     4  12  24  42  70 100 134 176 225 281 333 386
#     4  10  22  41  69  91 123 171 224 261 331 399
#     4  10  20  44  72  90 126 172 230 263 322 403
#
# _framework density 18.847635
#
# number of rings (size 3 to 8) (size 9 to 14) (size 15 to 20)
#    0.750    0.000    7.500    1.500    0.000    2.500 
#    0.000    1.250    0.000    3.000    0.000    0.000 
#    0.000    0.000    0.000    0.000    0.000    0.000 
#
# Total GULP energy -793436.932486 kJ/mol
# GULP energy per Si atom -12397.452070 kJ/mol
# Density = 1.880474 g / cm^3
# Si number density = 18.847635 Si / 1000 Ang^3
#
#
#
# Elastic Constant Matrix: (Units=GPa)
#
#
# Indices 1 2 3 4 5 6 
#
# 1 116.2638 11.9771 32.4253 0.0000 0.0000 0.0000
# 2 11.9771 116.2638 32.4253 0.0000 0.0000 0.0000
# 3 32.4253 32.4253 92.5169 0.0000 0.0000 0.0000
# 4 0.0000 0.0000 0.0000 32.0661 0.0000 0.0000
# 5 0.0000 0.0000 0.0000 0.0000 32.0661 0.0000
# 6 0.0000 0.0000 0.0000 0.0000 0.0000 33.7223
#
#
#
# Elastic Compliance Matrix: (Units=1/GPa)
#
#
# Indices 1 2 3 4 5 6 
#
# 1 0.009533 -0.000056 -0.003322 0.000000 0.000000 0.000000
# 2 -0.000056 0.009533 -0.003322 0.000000 0.000000 0.000000
# 3 -0.003322 -0.003322 0.013137 0.000000 0.000000 0.000000
# 4 0.000000 0.000000 0.000000 0.031186 0.000000 0.000000
# 5 0.000000 0.000000 0.000000 0.000000 0.031186 0.000000
# 6 0.000000 0.000000 0.000000 0.000000 0.000000 0.029654
#
#
# Mechanical properties :
#
#
# Convention : Reuss Voigt Hill
#
# Bulk Modulus (GPa) = 53.17572 53.18890 53.18231
# Shear Modulus (GPa) = 34.74741 36.11868 35.43304
#
# Velocity S-wave (km/s) = 4.29837 4.38236 4.34057
# Velocity P-wave (km/s) = 7.27388 7.34088 7.30746
#
# Compressibility (1/GPa) = 0.01880557
#
# Stress axis : x y z
#
# Youngs Moduli (GPa) = 104.89579 104.89579 76.11963
#
# Poissons Ratio (x) = 0.00584 0.25285
# Poissons Ratio (y) = 0.00584 0.25285
# Poissons Ratio (z) = 0.34843 0.34843
#
# Static dielectric constant tensor:
#      x y z
#    x 2.996040 0.000000 0.000000 
#    y 0.000000 2.996040 0.000000 
#    z 0.000000 0.000000 3.337750 
# 
# 
# High freq. dielectric constant tensor:
#      x y z
#    x 1.734460 0.000000 0.000000 
#    y 0.000000 1.734460 0.000000 
#    z 0.000000 0.000000 1.725590 
# 
# From -- ./inp_files/6804.got.cif
#   From: 2010.03.12/outbox.cif.g09.slc.cpg/sg138_4_cif.got.tgz:6804.got - 2010.04.08 09:41:05.
