data_PCOD8319979
_publ_section_title
;
Structure prediction by ZEFSAII (Michael W. Deem and Ramdas Pophale) SiO2 
 PCOD8319979
Probable space group: I 4/M M M
;
_chemical_formula_sum "Si O2"
_cell_formula_units_Z 176
_cell_length_a 24.266794
_cell_length_b 24.266794
_cell_length_c 15.109615
_cell_angle_alpha 90.000000
_cell_angle_beta 90.000000
_cell_angle_gamma 90.000000
_cell_volume 8897.709150
_symmetry_space_group_name_H-M "I 4/M M M"
_symmetry_group_IT_number 139
_symmetry_cell_setting 'tetragonal'
loop_
_space_group_symop_operation_xyz
x,y,z
-y,x,z
-x,-y,z
y,-x,z
x,-y,-z
-x,y,-z
y,x,-z
-y,-x,-z
-x,-y,-z
y,-x,-z
x,y,-z
-y,x,-z
-x,y,z
x,-y,z
-y,-x,z
y,x,z
1/2+x,1/2+y,1/2+z
1/2-y,1/2+x,1/2+z
1/2-x,1/2-y,1/2+z
1/2+y,1/2-x,1/2+z
1/2+x,1/2-y,1/2-z
1/2-x,1/2+y,1/2-z
1/2+y,1/2+x,1/2-z
1/2-y,1/2-x,1/2-z
1/2-x,1/2-y,1/2-z
1/2+y,1/2-x,1/2-z
1/2+x,1/2+y,1/2-z
1/2-y,1/2+x,1/2-z
1/2-x,1/2+y,1/2+z
1/2+x,1/2-y,1/2+z
1/2-y,1/2-x,1/2+z
1/2+y,1/2+x,1/2+z
loop_
_atom_site_type_symbol
_atom_site_label
_atom_site_fract_x
_atom_site_fract_y
_atom_site_fract_z
Si Si1 0.321482 0.500000 0.102501
Si Si2 0.095214 0.260702 0.599581
Si Si3 0.204591 0.204591 0.652762
Si Si4 0.566388 0.155279 0.250000
Si Si5 0.000000 0.821482 0.102501
Si Si6 0.704591 0.704591 0.347238
Si Si7 0.239298 0.595214 0.400419
Si Si8 0.000000 0.909888 0.250000
O O1 0.285944 0.552771 0.128912
O O2 0.375791 0.500000 0.160114
O O3 0.339018 0.500000 0.000000
O O4 0.083080 0.281706 0.500000
O O5 0.154596 0.232100 0.600304
O O6 0.088591 0.312666 0.663888
O O7 0.250000 0.250000 0.665011
O O8 0.184605 0.184605 0.750000
O O9 0.500000 0.149017 0.250000
O O10 0.594761 0.094761 0.250000
O O11 0.588591 0.187334 0.336112
O O12 0.947229 0.785944 0.128912
O O13 0.000000 0.875791 0.160114
O O14 0.000000 0.839018 0.000000
O O15 0.654596 0.732100 0.399696
O O16 0.218294 0.583080 0.500000
O O17 0.945310 0.945310 0.250000
#
# Coordination Sequence:
#
# PCOD8319979 Si02
#       8
#    16  32  16  32  16  16  32  16
#     4  10  23  41  65  92 118 158 213 259 306 368
#     4  11  23  41  65  94 127 166 209 255 314 385
#     4  11  23  37  59  96 133 164 196 246 320 387
#     4  12  25  43  67  93 126 168 214 267 319 373
#     4  10  23  41  65  92 118 158 213 259 306 368
#     4  11  23  37  59  96 133 164 196 246 320 387
#     4  11  23  41  65  94 127 166 209 255 314 385
#     4  11  26  42  60  88 122 168 215 262 318 362
#
# _framework density 19.780373000000001
#
# number of rings (size 3 to 8) (size 9 to 14) (size 15 to 20)
#    0.000    1.000    3.636    2.727    2.545    4.545 
#    0.000    0.909    0.000    0.000    0.000    2.545 
#    0.000    0.000    0.000    0.000    0.000    0.000 
#
# Total GULP energy -1091389.826981 kJ/mol
# GULP energy per Si atom -12402.157125 kJ/mol
# Density = 1.973535 g / cm^3
# Si number density = 19.780373 Si / 1000 Ang^3
#
#
#
# Elastic Constant Matrix: (Units=GPa)
#
#
# Indices 1 2 3 4 5 6 
#
# 1 122.6320 63.4426 42.1012 0.0000 0.0000 0.0000
# 2 63.4426 122.6320 42.1012 0.0000 0.0000 0.0000
# 3 42.1012 42.1012 111.1223 0.0000 0.0000 0.0000
# 4 0.0000 0.0000 0.0000 20.7258 0.0000 0.0000
# 5 0.0000 0.0000 0.0000 0.0000 20.7258 0.0000
# 6 0.0000 0.0000 0.0000 0.0000 0.0000 50.6129
#
#
#
# Elastic Compliance Matrix: (Units=1/GPa)
#
#
# Indices 1 2 3 4 5 6 
#
# 1 0.011691 -0.005204 -0.002457 0.000000 0.000000 0.000000
# 2 -0.005204 0.011691 -0.002457 0.000000 0.000000 0.000000
# 3 -0.002457 -0.002457 0.010861 0.000000 0.000000 0.000000
# 4 0.000000 0.000000 0.000000 0.048249 0.000000 0.000000
# 5 0.000000 0.000000 0.000000 0.000000 0.048249 0.000000
# 6 0.000000 0.000000 0.000000 0.000000 0.000000 0.019758
#
#
# Mechanical properties :
#
#
# Convention : Reuss Voigt Hill
#
# Bulk Modulus (GPa) = 71.40888 72.40848 71.90868
# Shear Modulus (GPa) = 28.50547 32.32896 30.41722
#
# Velocity S-wave (km/s) = 3.80030 4.04715 3.92567
# Velocity P-wave (km/s) = 7.44551 7.65016 7.54853
#
# Compressibility (1/GPa) = 0.01400386
#
# Stress axis : x y z
#
# Youngs Moduli (GPa) = 85.53898 85.53898 92.07064
#
# Poissons Ratio (x) = 0.44517 0.22626
# Poissons Ratio (y) = 0.44517 0.22626
# Poissons Ratio (z) = 0.21021 0.21021
#
# Static dielectric constant tensor:
#      x y z
#    x 3.602980 0.000000 0.000000 
#    y 0.000000 3.602980 0.000000 
#    z 0.000000 0.000000 3.749970 
# 
# 
# High freq. dielectric constant tensor:
#      x y z
#    x 1.770020 0.000000 0.000000 
#    y 0.000000 1.770020 0.000000 
#    z 0.000000 0.000000 1.789010 
# 
# From -- ./inp_files/6216.got.cif
#   From: 2010.03.12/outbox.cif.g09.slc.cpg/sg139_4_cif.got.tgz:6216.got - 2010.04.08 09:46:31.
