data_PCOD8319455
_publ_section_title
;
Structure prediction by ZEFSAII (Michael W. Deem and Ramdas Pophale) SiO2 
 PCOD8319455
Probable space group: I 4/M M M
;
_chemical_formula_sum "Si O2"
_cell_formula_units_Z 176
_cell_length_a 26.958169
_cell_length_b 26.958169
_cell_length_c 14.856969
_cell_angle_alpha 90.000000
_cell_angle_beta 90.000000
_cell_angle_gamma 90.000000
_cell_volume 10797.196377
_symmetry_space_group_name_H-M "I 4/M M M"
_symmetry_group_IT_number 139
_symmetry_cell_setting 'tetragonal'
loop_
_space_group_symop_operation_xyz
x,y,z
-y,x,z
-x,-y,z
y,-x,z
x,-y,-z
-x,y,-z
y,x,-z
-y,-x,-z
-x,-y,-z
y,-x,-z
x,y,-z
-y,x,-z
-x,y,z
x,-y,z
-y,-x,z
y,x,z
1/2+x,1/2+y,1/2+z
1/2-y,1/2+x,1/2+z
1/2-x,1/2-y,1/2+z
1/2+y,1/2-x,1/2+z
1/2+x,1/2-y,1/2-z
1/2-x,1/2+y,1/2-z
1/2+y,1/2+x,1/2-z
1/2-y,1/2-x,1/2-z
1/2-x,1/2-y,1/2-z
1/2+y,1/2-x,1/2-z
1/2+x,1/2+y,1/2-z
1/2-y,1/2+x,1/2-z
1/2-x,1/2+y,1/2+z
1/2+x,1/2-y,1/2+z
1/2-y,1/2-x,1/2+z
1/2+y,1/2+x,1/2+z
loop_
_atom_site_type_symbol
_atom_site_label
_atom_site_fract_x
_atom_site_fract_y
_atom_site_fract_z
Si Si1 0.228102 0.941536 0.720600
Si Si2 0.777745 0.557736 0.600708
Si Si3 0.000000 0.558063 0.106099
Si Si4 0.362279 0.557422 0.102928
Si Si5 0.116429 0.403752 0.650691
Si Si6 0.814942 0.444257 0.098311
O O1 0.235098 0.927173 0.826303
O O2 0.178160 0.920728 0.674133
O O3 0.276053 0.920617 0.668182
O O4 0.226677 0.000000 0.705615
O O5 0.757130 0.568394 0.500000
O O6 0.791051 0.500000 0.613156
O O7 0.828078 0.588037 0.615152
O O8 0.953038 0.583913 0.150487
O O9 0.000000 0.500000 0.129602
O O10 0.000000 0.567837 0.000000
O O11 0.374150 0.500000 0.122298
O O12 0.412882 0.587119 0.119345
O O13 0.343176 0.564551 0.000000
O O14 0.118543 0.381458 0.750000
O O15 0.089599 0.363348 0.589012
O O16 0.830596 0.500000 0.128931
O O17 0.789657 0.446125 0.000000
#
# Coordination Sequence:
#
# PCOD8319455 Si02
#       6
#    32  32  16  32  32  32
#     4   9  17  30  47  69  93 124 160 199 237 275
#     4  10  19  32  47  62  84 117 161 215 264 301
#     4  11  24  34  40  52  76 114 158 206 261 324
#     4   9  17  30  51  81 116 146 165 181 206 250
#     4  12  22  30  43  58  81 114 156 206 265 313
#     4  10  19  30  43  60  83 114 154 201 249 301
#
# _framework density 16.300526999999999
#
# number of rings (size 3 to 8) (size 9 to 14) (size 15 to 20)
#    0.000    1.909    2.727    2.727    2.545    3.818 
#    0.000    0.909    0.000    0.545    0.000    2.545 
#    0.000    2.909    0.000    7.091    0.000    0.182 
#
# Total GULP energy -1090789.510558 kJ/mol
# GULP energy per Si atom -12395.335347 kJ/mol
# Density = 1.626343 g / cm^3
# Si number density = 16.300527 Si / 1000 Ang^3
#
#
#
# Elastic Constant Matrix: (Units=GPa)
#
#
# Indices 1 2 3 4 5 6 
#
# 1 66.5304 33.7012 36.4393 0.0000 0.0000 0.0000
# 2 33.7012 66.5304 36.4394 0.0000 0.0000 0.0000
# 3 36.4393 36.4394 120.8076 0.0000 0.0000 0.0000
# 4 0.0000 0.0000 0.0000 17.8005 0.0000 0.0000
# 5 0.0000 0.0000 0.0000 0.0000 17.8009 0.0000
# 6 0.0000 0.0000 0.0000 0.0000 0.0000 -6.1124
#
#
#
# Elastic Compliance Matrix: (Units=1/GPa)
#
#
# Indices 1 2 3 4 5 6 
#
# 1 0.021620 -0.008840 -0.003855 0.000000 0.000000 0.000000
# 2 -0.008840 0.021620 -0.003855 0.000000 0.000000 0.000000
# 3 -0.003855 -0.003855 0.010603 0.000000 0.000000 0.000000
# 4 0.000000 0.000000 0.000000 0.056178 0.000000 0.000000
# 5 0.000000 0.000000 0.000000 0.000000 0.056177 0.000000
# 6 0.000000 0.000000 0.000000 0.000000 0.000000 -0.163602
#
#
# Mechanical properties :
#
#
# Convention : Reuss Voigt Hill
#
# Bulk Modulus (GPa) = 48.20804 51.89203 50.05004
# Shear Modulus (GPa) = 117.34047 15.71703 66.52875
#
# Velocity S-wave (km/s) = 8.49364 3.10853 6.39550
# Velocity P-wave (km/s) = 11.21731 6.69236 9.23622
#
# Compressibility (1/GPa) = 0.02074343
#
# Stress axis : x y z
#
# Youngs Moduli (GPa) = 46.25308 46.25307 94.31233
#
# Poissons Ratio (x) = 0.40890 0.36355
# Poissons Ratio (y) = 0.40890 0.36355
# Poissons Ratio (z) = 0.17829 0.17830
#
# Static dielectric constant tensor:
#      x y z
#    x 2.825960 0.000000 0.000000 
#    y 0.000000 2.825960 0.000000 
#    z 0.000000 0.000000 3.314420 
# 
# 
# High freq. dielectric constant tensor:
#      x y z
#    x 1.590850 0.000000 0.000000 
#    y 0.000000 1.590850 0.000000 
#    z 0.000000 0.000000 1.643160 
# 
# From -- ./inp_files/6391.got.cif
#   From: 2010.03.12/outbox.cif.g09.slc.cpg/sg139_4_cif.got.tgz:6391.got - 2010.04.08 09:46:31.
