data_PCOD8319732
_publ_section_title
;
Structure prediction by ZEFSAII (Michael W. Deem and Ramdas Pophale) SiO2 
 PCOD8319732
Probable space group: I 4/M M M
;
_chemical_formula_sum "Si O2"
_cell_formula_units_Z 144
_cell_length_a 19.218121
_cell_length_b 19.218121
_cell_length_c 21.110843
_cell_angle_alpha 90.000000
_cell_angle_beta 90.000000
_cell_angle_gamma 90.000000
_cell_volume 7796.998000
_symmetry_space_group_name_H-M "I 4/M M M"
_symmetry_group_IT_number 139
_symmetry_cell_setting 'tetragonal'
loop_
_space_group_symop_operation_xyz
x,y,z
-y,x,z
-x,-y,z
y,-x,z
x,-y,-z
-x,y,-z
y,x,-z
-y,-x,-z
-x,-y,-z
y,-x,-z
x,y,-z
-y,x,-z
-x,y,z
x,-y,z
-y,-x,z
y,x,z
1/2+x,1/2+y,1/2+z
1/2-y,1/2+x,1/2+z
1/2-x,1/2-y,1/2+z
1/2+y,1/2-x,1/2+z
1/2+x,1/2-y,1/2-z
1/2-x,1/2+y,1/2-z
1/2+y,1/2+x,1/2-z
1/2-y,1/2-x,1/2-z
1/2-x,1/2-y,1/2-z
1/2+y,1/2-x,1/2-z
1/2+x,1/2+y,1/2-z
1/2-y,1/2+x,1/2-z
1/2-x,1/2+y,1/2+z
1/2+x,1/2-y,1/2+z
1/2-y,1/2-x,1/2+z
1/2+y,1/2+x,1/2+z
loop_
_atom_site_type_symbol
_atom_site_label
_atom_site_fract_x
_atom_site_fract_y
_atom_site_fract_z
Si Si1 0.206659 0.580723 0.883079
Si Si2 0.836746 0.421078 0.573274
Si Si3 0.421470 0.690585 0.371523
Si Si4 0.581908 0.696554 0.000000
Si Si5 0.579543 0.691961 0.226407
O O1 0.189342 0.500000 0.888887
O O2 0.132994 0.619450 0.885618
O O3 0.258526 0.603634 0.938957
O O4 0.242025 0.600284 0.816330
O O5 0.855361 0.410915 0.500000
O O6 0.854382 0.500000 0.595354
O O7 0.755447 0.405843 0.583400
O O8 0.500000 0.663486 0.380185
O O9 0.371775 0.628226 0.392589
O O10 0.408400 0.713721 0.299008
O O11 0.500000 0.677903 0.000000
O O12 0.624686 0.624686 0.000000
O O13 0.500000 0.670161 0.212848
O O14 0.625702 0.625702 0.207511
#
# Coordination Sequence:
#
# PCOD8319732 Si02
#       5
#    32  32  32  16  32
#     4  10  20  35  53  76 103 133 172 216 259 304
#     4  10  21  37  55  76 102 133 173 219 266 313
#     4   9  19  35  54  78 106 136 171 211 257 309
#     4  10  20  33  49  73 105 137 172 210 248 298
#     4   9  18  33  53  77 107 140 173 211 253 303
#
# _framework density 18.468647000000001
#
# number of rings (size 3 to 8) (size 9 to 14) (size 15 to 20)
#    0.000    2.444    1.111    0.667    0.000    4.111 
#    0.000    5.556    0.000    4.000    0.000    9.333 
#    0.000    0.000    0.000    0.000    0.000    0.000 
#
# Total GULP energy -892932.033213 kJ/mol
# GULP energy per Si atom -12401.833795 kJ/mol
# Density = 1.842661 g / cm^3
# Si number density = 18.468647 Si / 1000 Ang^3
#
#
#
# Elastic Constant Matrix: (Units=GPa)
#
#
# Indices 1 2 3 4 5 6 
#
# 1 88.2907 60.3449 14.0457 0.0000 0.0000 0.0000
# 2 60.3449 88.2907 14.0457 0.0000 0.0000 0.0000
# 3 14.0457 14.0457 21.8896 0.0000 0.0000 0.0000
# 4 0.0000 0.0000 0.0000 26.8462 0.0000 0.0000
# 5 0.0000 0.0000 0.0000 0.0000 26.8462 0.0000
# 6 0.0000 0.0000 0.0000 0.0000 0.0000 41.3054
#
#
#
# Elastic Compliance Matrix: (Units=1/GPa)
#
#
# Indices 1 2 3 4 5 6 
#
# 1 0.021720 -0.014064 -0.004913 0.000000 0.000000 0.000000
# 2 -0.014064 0.021720 -0.004913 0.000000 0.000000 0.000000
# 3 -0.004913 -0.004913 0.051988 0.000000 0.000000 0.000000
# 4 0.000000 0.000000 0.000000 0.037249 0.000000 0.000000
# 5 0.000000 0.000000 0.000000 0.000000 0.037249 0.000000
# 6 0.000000 0.000000 0.000000 0.000000 0.000000 0.024210
#
#
# Mechanical properties :
#
#
# Convention : Reuss Voigt Hill
#
# Bulk Modulus (GPa) = 20.98633 41.70484 31.34558
# Shear Modulus (GPa) = 19.39502 26.33523 22.86513
#
# Velocity S-wave (km/s) = 3.24413 3.78026 3.52241
# Velocity P-wave (km/s) = 5.04187 6.45634 5.79244
#
# Compressibility (1/GPa) = 0.04765007
#
# Stress axis : x y z
#
# Youngs Moduli (GPa) = 46.04074 46.04074 19.23503
#
# Poissons Ratio (x) = 0.64750 0.09450
# Poissons Ratio (y) = 0.64750 0.09450
# Poissons Ratio (z) = 0.22619 0.22619
#
# Static dielectric constant tensor:
#      x y z
#    x 3.325990 0.000000 0.000000 
#    y 0.000000 3.325990 0.000000 
#    z 0.000000 0.000000 3.449900 
# 
# 
# High freq. dielectric constant tensor:
#      x y z
#    x 1.711980 0.000000 0.000000 
#    y 0.000000 1.711980 0.000000 
#    z 0.000000 0.000000 1.717730 
# 
# From -- ./inp_files/10297.got.cif
#   From: 2010.03.12/outbox.cif.g09.slc.cpg/sg139_6_cif.got.tgz:10297.got - 2010.04.08 09:46:31.
