data_PCOD8319314
_publ_section_title
;
Structure prediction by ZEFSAII (Michael W. Deem and Ramdas Pophale) SiO2 
 PCOD8319314
Probable space group: I 4/M M M
;
_chemical_formula_sum "Si O2"
_cell_formula_units_Z 112
_cell_length_a 19.272064
_cell_length_b 19.272064
_cell_length_c 16.947014
_cell_angle_alpha 90.000000
_cell_angle_beta 90.000000
_cell_angle_gamma 90.000000
_cell_volume 6294.332004
_symmetry_space_group_name_H-M "I 4/M M M"
_symmetry_group_IT_number 139
_symmetry_cell_setting 'tetragonal'
loop_
_space_group_symop_operation_xyz
x,y,z
-y,x,z
-x,-y,z
y,-x,z
x,-y,-z
-x,y,-z
y,x,-z
-y,-x,-z
-x,-y,-z
y,-x,-z
x,y,-z
-y,x,-z
-x,y,z
x,-y,z
-y,-x,z
y,x,z
1/2+x,1/2+y,1/2+z
1/2-y,1/2+x,1/2+z
1/2-x,1/2-y,1/2+z
1/2+y,1/2-x,1/2+z
1/2+x,1/2-y,1/2-z
1/2-x,1/2+y,1/2-z
1/2+y,1/2+x,1/2-z
1/2-y,1/2-x,1/2-z
1/2-x,1/2-y,1/2-z
1/2+y,1/2-x,1/2-z
1/2+x,1/2+y,1/2-z
1/2-y,1/2+x,1/2-z
1/2-x,1/2+y,1/2+z
1/2+x,1/2-y,1/2+z
1/2-y,1/2-x,1/2+z
1/2+y,1/2+x,1/2+z
loop_
_atom_site_type_symbol
_atom_site_label
_atom_site_fract_x
_atom_site_fract_y
_atom_site_fract_z
Si Si1 0.221079 0.421748 0.847610
Si Si2 0.286474 0.826916 0.092025
Si Si3 0.307964 0.420645 0.310584
Si Si4 0.311818 0.576580 0.000000
O O1 0.187610 0.500000 0.850502
O O2 0.166869 0.357802 0.855817
O O3 0.266017 0.412831 0.770022
O O4 0.267998 0.407838 0.923047
O O5 0.245931 0.754070 0.107915
O O6 0.238050 0.890396 0.118414
O O7 0.303544 0.835851 0.000000
O O8 0.325547 0.500000 0.329880
O O9 0.380336 0.380336 0.302700
O O10 0.341026 0.500000 0.000000
O O11 0.379260 0.620741 0.000000
#
# Coordination Sequence:
#
# PCOD8319314 Si02
#       4
#    32  32  32  16
#     4  10  19  31  50  76 104 134 168 207 251 302
#     4  10  19  32  53  76 100 133 173 218 263 305
#     4  10  21  35  52  76 104 136 174 214 258 308
#     4  10  18  27  42  66  97 133 168 200 238 288
#
# _framework density 17.793786999999998
#
# number of rings (size 3 to 8) (size 9 to 14) (size 15 to 20)
#    0.000    2.000    1.429    3.429    0.000    3.286 
#    0.000    0.000    0.000    6.000    0.000   10.000 
#    0.000    0.000    0.000    0.000    0.000    0.000 
#
# Total GULP energy -694095.609567 kJ/mol
# GULP energy per Si atom -12394.564457 kJ/mol
# Density = 1.775329 g / cm^3
# Si number density = 17.793787 Si / 1000 Ang^3
#
#
#
# Elastic Constant Matrix: (Units=GPa)
#
#
# Indices 1 2 3 4 5 6 
#
# 1 99.3093 36.1024 35.4020 0.0000 0.0000 0.0000
# 2 36.1024 99.3108 35.4017 0.0000 0.0000 0.0000
# 3 35.4020 35.4017 49.5169 0.0000 0.0000 0.0000
# 4 0.0000 0.0000 0.0000 25.1134 0.0000 0.0000
# 5 0.0000 0.0000 0.0000 0.0000 25.1115 0.0000
# 6 0.0000 0.0000 0.0000 0.0000 0.0000 21.4756
#
#
#
# Elastic Compliance Matrix: (Units=1/GPa)
#
#
# Indices 1 2 3 4 5 6 
#
# 1 0.013807 -0.002014 -0.008432 0.000000 0.000000 0.000000
# 2 -0.002014 0.013807 -0.008432 0.000000 0.000000 0.000000
# 3 -0.008432 -0.008432 0.032252 0.000000 0.000000 0.000000
# 4 0.000000 0.000000 0.000000 0.039819 0.000000 0.000000
# 5 0.000000 0.000000 0.000000 0.000000 0.039822 0.000000
# 6 0.000000 0.000000 0.000000 0.000000 0.000000 0.046564
#
#
# Mechanical properties :
#
#
# Convention : Reuss Voigt Hill
#
# Bulk Modulus (GPa) = 45.22487 51.32770 48.27629
# Shear Modulus (GPa) = 21.62655 23.75549 22.69102
#
# Velocity S-wave (km/s) = 3.49004 3.65779 3.57490
# Velocity P-wave (km/s) = 6.45847 6.83723 6.65054
#
# Compressibility (1/GPa) = 0.02211173
#
# Stress axis : x y z
#
# Youngs Moduli (GPa) = 72.42481 72.42663 31.00617
#
# Poissons Ratio (x) = 0.14584 0.26144
# Poissons Ratio (y) = 0.14584 0.26143
# Poissons Ratio (z) = 0.61068 0.61067
#
# Static dielectric constant tensor:
#      x y z
#    x 3.343940 0.000000 0.000000 
#    y 0.000000 3.343960 0.000000 
#    z 0.000000 0.000000 3.364130 
# 
# 
# High freq. dielectric constant tensor:
#      x y z
#    x 1.674100 0.000000 0.000000 
#    y 0.000000 1.674100 0.000000 
#    z 0.000000 0.000000 1.703440 
# 
# From -- ./inp_files/7554.got.cif
#   From: 2010.03.12/outbox.cif.g09.slc.cpg/sg139_4_cif.got.tgz:7554.got - 2010.04.08 09:46:31.
