data_PCOD8319924
_publ_section_title
;
Structure prediction by ZEFSAII (Michael W. Deem and Ramdas Pophale) SiO2 
 PCOD8319924
Probable space group: I 4/M M M
;
_chemical_formula_sum "Si O2"
_cell_formula_units_Z 160
_cell_length_a 27.024780
_cell_length_b 27.024780
_cell_length_c 11.440057
_cell_angle_alpha 90.000000
_cell_angle_beta 90.000000
_cell_angle_gamma 90.000000
_cell_volume 8355.116747
_symmetry_space_group_name_H-M "I 4/M M M"
_symmetry_group_IT_number 139
_symmetry_cell_setting 'tetragonal'
loop_
_space_group_symop_operation_xyz
x,y,z
-y,x,z
-x,-y,z
y,-x,z
x,-y,-z
-x,y,-z
y,x,-z
-y,-x,-z
-x,-y,-z
y,-x,-z
x,y,-z
-y,x,-z
-x,y,z
x,-y,z
-y,-x,z
y,x,z
1/2+x,1/2+y,1/2+z
1/2-y,1/2+x,1/2+z
1/2-x,1/2-y,1/2+z
1/2+y,1/2-x,1/2+z
1/2+x,1/2-y,1/2-z
1/2-x,1/2+y,1/2-z
1/2+y,1/2+x,1/2-z
1/2-y,1/2-x,1/2-z
1/2-x,1/2-y,1/2-z
1/2+y,1/2-x,1/2-z
1/2+x,1/2+y,1/2-z
1/2-y,1/2+x,1/2-z
1/2-x,1/2+y,1/2+z
1/2+x,1/2-y,1/2+z
1/2-y,1/2-x,1/2+z
1/2+y,1/2+x,1/2+z
loop_
_atom_site_type_symbol
_atom_site_label
_atom_site_fract_x
_atom_site_fract_y
_atom_site_fract_z
Si Si1 0.234271 0.444663 0.863592
Si Si2 0.694328 0.444001 0.500000
Si Si3 0.311804 0.056363 0.000000
Si Si4 0.724840 0.195522 0.870887
Si Si5 0.302568 0.619881 0.708152
Si Si6 0.941801 0.361745 0.767768
O O1 0.244259 0.500000 0.812525
O O2 0.274318 0.407247 0.812268
O O3 0.177580 0.430383 0.834815
O O4 0.241778 0.443480 0.000000
O O5 0.676025 0.500000 0.500000
O O6 0.753431 0.438987 0.500000
O O7 0.673268 0.418766 0.617283
O O8 0.335295 0.080155 0.116054
O O9 0.328550 0.000000 0.000000
O O10 0.750534 0.249467 0.870454
O O11 0.691759 0.191759 0.750000
O O12 0.765122 0.152641 0.867764
O O13 0.697264 0.189990 0.000000
O O14 0.346024 0.653977 0.762682
O O15 0.912859 0.412859 0.750000
O O16 0.000000 0.374825 0.773980
#
# Coordination Sequence:
#
# PCOD8319924 Si02
#       6
#    32  16  16  32  32  32
#     4  10  22  40  58  79 111 152 192 231 282 345
#     4  11  19  35  59  80 109 146 185 232 285 333
#     4   9  18  35  58  81 104 140 190 233 277 338
#     4   9  18  32  48  69 104 147 187 227 274 330
#     4  11  21  35  56  83 112 143 185 236 286 338
#     4  10  21  37  58  84 113 147 193 245 296 348
#
# _framework density 19.149940999999998
#
# number of rings (size 3 to 8) (size 9 to 14) (size 15 to 20)
#    0.000    2.000    3.000    0.900    1.400    2.200 
#    0.000    2.000    0.000    1.800    0.000    0.000 
#    0.000   16.400    0.000    8.800    0.000    0.000 
#
# Total GULP energy -991419.870434 kJ/mol
# GULP energy per Si atom -12392.748380 kJ/mol
# Density = 1.910635 g / cm^3
# Si number density = 19.149941 Si / 1000 Ang^3
#
#
#
# Elastic Constant Matrix: (Units=GPa)
#
#
# Indices 1 2 3 4 5 6 
#
# 1 82.0318 43.9458 32.2567 0.0000 0.0000 0.0000
# 2 43.9458 82.0318 32.2567 0.0000 0.0000 0.0000
# 3 32.2567 32.2567 114.9065 0.0000 0.0000 0.0000
# 4 0.0000 0.0000 0.0000 17.4190 0.0000 0.0000
# 5 0.0000 0.0000 0.0000 0.0000 17.4190 0.0000
# 6 0.0000 0.0000 0.0000 0.0000 0.0000 34.2888
#
#
#
# Elastic Compliance Matrix: (Units=1/GPa)
#
#
# Indices 1 2 3 4 5 6 
#
# 1 0.017764 -0.008493 -0.002602 0.000000 0.000000 0.000000
# 2 -0.008493 0.017764 -0.002602 0.000000 0.000000 0.000000
# 3 -0.002602 -0.002602 0.010164 0.000000 0.000000 0.000000
# 4 0.000000 0.000000 0.000000 0.057408 0.000000 0.000000
# 5 0.000000 0.000000 0.000000 0.000000 0.057408 0.000000
# 6 0.000000 0.000000 0.000000 0.000000 0.000000 0.029164
#
#
# Mechanical properties :
#
#
# Convention : Reuss Voigt Hill
#
# Bulk Modulus (GPa) = 54.65891 55.09875 54.87883
# Shear Modulus (GPa) = 22.40486 25.19277 23.79881
#
# Velocity S-wave (km/s) = 3.42419 3.63099 3.52911
# Velocity P-wave (km/s) = 6.65117 6.81275 6.73244
#
# Compressibility (1/GPa) = 0.01829528
#
# Stress axis : x y z
#
# Youngs Moduli (GPa) = 56.29519 56.29519 98.38780
#
# Poissons Ratio (x) = 0.47811 0.25605
# Poissons Ratio (y) = 0.47811 0.25605
# Poissons Ratio (z) = 0.14651 0.14651
#
# Static dielectric constant tensor:
#      x y z
#    x 3.458170 0.000000 0.000000 
#    y 0.000000 3.458170 0.000000 
#    z 0.000000 0.000000 3.746720 
# 
# 
# High freq. dielectric constant tensor:
#      x y z
#    x 1.720330 0.000000 0.000000 
#    y 0.000000 1.720330 0.000000 
#    z 0.000000 0.000000 1.758260 
# 
# From -- ./inp_files/3956.got.cif
#   From: 2010.03.12/outbox.cif.g09.slc.cpg/sg139_2_cif.got.tgz:3956.got - 2010.04.08 09:46:31.
