data_PCOD8319990
_publ_section_title
;
Structure prediction by ZEFSAII (Michael W. Deem and Ramdas Pophale) SiO2 
 PCOD8319990
Probable space group: I 4/M M M
;
_chemical_formula_sum "Si O2"
_cell_formula_units_Z 112
_cell_length_a 17.326584
_cell_length_b 17.326584
_cell_length_c 19.427686
_cell_angle_alpha 90.000000
_cell_angle_beta 90.000000
_cell_angle_gamma 90.000000
_cell_volume 5832.395583
_symmetry_space_group_name_H-M "I 4/M M M"
_symmetry_group_IT_number 139
_symmetry_cell_setting 'tetragonal'
loop_
_space_group_symop_operation_xyz
x,y,z
-y,x,z
-x,-y,z
y,-x,z
x,-y,-z
-x,y,-z
y,x,-z
-y,-x,-z
-x,-y,-z
y,-x,-z
x,y,-z
-y,x,-z
-x,y,z
x,-y,z
-y,-x,z
y,x,z
1/2+x,1/2+y,1/2+z
1/2-y,1/2+x,1/2+z
1/2-x,1/2-y,1/2+z
1/2+y,1/2-x,1/2+z
1/2+x,1/2-y,1/2-z
1/2-x,1/2+y,1/2-z
1/2+y,1/2+x,1/2-z
1/2-y,1/2-x,1/2-z
1/2-x,1/2-y,1/2-z
1/2+y,1/2-x,1/2-z
1/2+x,1/2+y,1/2-z
1/2-y,1/2+x,1/2-z
1/2-x,1/2+y,1/2+z
1/2+x,1/2-y,1/2+z
1/2-y,1/2-x,1/2+z
1/2+y,1/2+x,1/2+z
loop_
_atom_site_type_symbol
_atom_site_label
_atom_site_fract_x
_atom_site_fract_y
_atom_site_fract_z
Si Si1 0.334457 0.155889 0.126609
Si Si2 0.160894 0.160894 0.919079
Si Si3 0.197634 0.802367 0.700032
Si Si4 0.913459 0.586542 0.250000
Si Si5 0.911028 0.414708 0.500000
Si Si6 0.589292 0.410709 0.707854
O O1 0.248473 0.141546 0.099944
O O2 0.350367 0.243930 0.151315
O O3 0.351405 0.098567 0.189751
O O4 0.391673 0.136578 0.065606
O O5 0.106610 0.106610 0.872492
O O6 0.145414 0.145414 0.000000
O O7 0.250000 0.750000 0.750000
O O8 0.141804 0.858197 0.742274
O O9 0.902114 0.500000 0.220851
O O10 0.869883 0.500000 0.500000
O O11 0.000000 0.430864 0.500000
O O12 0.607741 0.500000 0.723133
#
# Coordination Sequence:
#
# PCOD8319990 Si02
#       6
#    32  16  16  16  16  16
#     4  11  21  38  61  85 119 161 205 256 303 361
#     4  11  22  41  60  85 115 160 212 255 303 372
#     4  11  21  42  64  90 115 151 209 260 305 371
#     4  11  22  35  54  86 124 159 198 241 296 368
#     4  11  24  39  56  90 134 169 202 243 306 374
#     4  11  25  43  63  92 128 161 206 270 325 367
#
# _framework density 19.203085999999999
#
# number of rings (size 3 to 8) (size 9 to 14) (size 15 to 20)
#    0.000    1.000    5.714    1.714    0.000    9.714 
#    0.000    0.714    0.000    0.000    0.000    0.000 
#    0.000    3.429    0.000    0.000    0.000    0.000 
#
# Total GULP energy -694344.651032 kJ/mol
# GULP energy per Si atom -12399.011626 kJ/mol
# Density = 1.915938 g / cm^3
# Si number density = 19.203086 Si / 1000 Ang^3
#
#
#
# Elastic Constant Matrix: (Units=GPa)
#
#
# Indices 1 2 3 4 5 6 
#
# 1 100.0525 67.2370 56.7521 0.0000 0.0000 0.0000
# 2 67.2370 100.0521 56.7523 0.0000 0.0000 0.0000
# 3 56.7521 56.7523 145.6229 0.0000 0.0000 0.0000
# 4 0.0000 0.0000 0.0000 11.3422 0.0000 0.0000
# 5 0.0000 0.0000 0.0000 0.0000 11.3386 0.0000
# 6 0.0000 0.0000 0.0000 0.0000 0.0000 34.0484
#
#
#
# Elastic Compliance Matrix: (Units=1/GPa)
#
#
# Indices 1 2 3 4 5 6 
#
# 1 0.019300 -0.011174 -0.003167 0.000000 0.000000 0.000000
# 2 -0.011174 0.019300 -0.003167 0.000000 0.000000 0.000000
# 3 -0.003167 -0.003167 0.009336 0.000000 0.000000 0.000000
# 4 0.000000 0.000000 0.000000 0.088166 0.000000 0.000000
# 5 0.000000 0.000000 0.000000 0.000000 0.088195 0.000000
# 6 0.000000 0.000000 0.000000 0.000000 0.000000 0.029370
#
#
# Mechanical properties :
#
#
# Convention : Reuss Voigt Hill
#
# Bulk Modulus (GPa) = 77.39738 78.57892 77.98815
# Shear Modulus (GPa) = 17.06551 22.34491 19.70521
#
# Velocity S-wave (km/s) = 2.98432 3.41487 3.20683
# Velocity P-wave (km/s) = 7.22959 7.52046 7.37646
#
# Compressibility (1/GPa) = 0.01292033
#
# Stress axis : x y z
#
# Youngs Moduli (GPa) = 51.81355 51.81316 107.11702
#
# Poissons Ratio (x) = 0.57894 0.33924
# Poissons Ratio (y) = 0.57894 0.33925
# Poissons Ratio (z) = 0.16409 0.16410
#
# Static dielectric constant tensor:
#      x y z
#    x 3.591410 0.000000 0.000000 
#    y 0.000000 3.591430 0.000000 
#    z 0.000000 0.000000 3.802830 
# 
# 
# High freq. dielectric constant tensor:
#      x y z
#    x 1.744370 0.000000 0.000000 
#    y 0.000000 1.744370 0.000000 
#    z 0.000000 0.000000 1.754050 
# 
# From -- ./inp_files/7660.got.cif
#   From: 2010.03.12/outbox.cif.g09.slc.cpg/sg139_4_cif.got.tgz:7660.got - 2010.04.08 09:46:31.
