data_PCOD8319126
_publ_section_title
;
Structure prediction by ZEFSAII (Michael W. Deem and Ramdas Pophale) SiO2 
 PCOD8319126
Probable space group: P 42/N C M
;
_chemical_formula_sum "Si O2"
_cell_formula_units_Z 56
_cell_length_a 13.763555
_cell_length_b 13.763555
_cell_length_c 14.445733
_cell_angle_alpha 90.000000
_cell_angle_beta 90.000000
_cell_angle_gamma 90.000000
_cell_volume 2736.533877
_symmetry_space_group_name_H-M "P 42/N C M"
_symmetry_group_IT_number 138
_space_group.IT_coordinate_system_code '2'
_symmetry_cell_setting 'tetragonal'
loop_
_space_group_symop_operation_xyz
x,y,z
1/2-y,x,1/2+z
1/2-x,1/2-y,z
y,1/2-x,1/2+z
1/2+x,-y,1/2-z
-x,1/2+y,1/2-z
1/2+y,1/2+x,-z
-y,-x,-z
-x,-y,-z
1/2+y,-x,1/2-z
1/2+x,1/2+y,-z
-y,1/2+x,1/2-z
1/2-x,y,1/2+z
x,1/2-y,1/2+z
1/2-y,1/2-x,z
y,x,z
loop_
_atom_site_type_symbol
_atom_site_label
_atom_site_fract_x
_atom_site_fract_y
_atom_site_fract_z
Si Si1 0.387181 0.539974 0.756809
Si Si2 0.367533 0.367533 0.867298
Si Si3 0.216319 0.568566 0.629702
Si Si4 0.750000 0.250000 0.500000
Si Si5 0.128770 0.371231 0.573140
Si Si6 0.250000 0.250000 0.718324
O O1 0.492076 0.492076 0.728717
O O2 0.346523 0.482127 0.847651
O O3 0.315816 0.524895 0.669969
O O4 0.392896 0.653057 0.783328
O O5 0.313502 0.313502 0.785558
O O6 0.336860 0.336860 0.970529
O O7 0.247906 0.653383 0.561125
O O8 0.151259 0.485939 0.579625
O O9 0.184044 0.315956 0.653421
#
# Coordination Sequence:
#
# PCOD8319126 Si02
#       6
#    16   8  16   4   8   4
#     4  10  22  41  67  96 137 173 229 283 348 408
#     4  10  22  39  64 101 131 171 228 276 342 405
#     4  12  23  44  67 101 137 188 227 292 351 413
#     4  12  28  40  66 100 140 184 240 278 346 438
#     4  12  22  41  76  96 138 180 233 283 348 426
#     4  12  22  44  64 104 136 176 222 294 348 412
#
# _framework density 20.463840999999999
#
# number of rings (size 3 to 8) (size 9 to 14) (size 15 to 20)
#    0.857    0.000    4.286    3.857    0.000    1.714 
#    0.000    0.714    0.000    0.000    0.000    0.000 
#    0.000    0.000    0.000    0.000    0.000    0.000 
#
# Total GULP energy -693961.277652 kJ/mol
# GULP energy per Si atom -12392.165672 kJ/mol
# Density = 2.041726 g / cm^3
# Si number density = 20.463841 Si / 1000 Ang^3
#
#
#
# Elastic Constant Matrix: (Units=GPa)
#
#
# Indices 1 2 3 4 5 6 
#
# 1 122.0006 42.5968 53.0257 0.0000 0.0000 0.0000
# 2 42.5968 122.0006 53.0257 0.0000 0.0000 0.0000
# 3 53.0257 53.0257 129.0406 0.0000 0.0000 0.0000
# 4 0.0000 0.0000 0.0000 53.8257 0.0000 0.0000
# 5 0.0000 0.0000 0.0000 0.0000 53.8257 0.0000
# 6 0.0000 0.0000 0.0000 0.0000 0.0000 35.7138
#
#
#
# Elastic Compliance Matrix: (Units=1/GPa)
#
#
# Indices 1 2 3 4 5 6 
#
# 1 0.010429 -0.002165 -0.003396 0.000000 0.000000 0.000000
# 2 -0.002165 0.010429 -0.003396 0.000000 0.000000 0.000000
# 3 -0.003396 -0.003396 0.010540 0.000000 0.000000 0.000000
# 4 0.000000 0.000000 0.000000 0.018578 0.000000 0.000000
# 5 0.000000 0.000000 0.000000 0.000000 0.018578 0.000000
# 6 0.000000 0.000000 0.000000 0.000000 0.000000 0.028000
#
#
# Mechanical properties :
#
#
# Convention : Reuss Voigt Hill
#
# Bulk Modulus (GPa) = 74.15996 74.48200 74.32098
# Shear Modulus (GPa) = 42.03017 43.63259 42.83138
#
# Velocity S-wave (km/s) = 4.53689 4.62256 4.57992
# Velocity P-wave (km/s) = 7.98515 8.06019 8.02276
#
# Compressibility (1/GPa) = 0.01348437
#
# Stress axis : x y z
#
# Youngs Moduli (GPa) = 95.89077 95.89077 94.87565
#
# Poissons Ratio (x) = 0.20763 0.32215
# Poissons Ratio (y) = 0.20763 0.32215
# Poissons Ratio (z) = 0.32560 0.32560
#
# Static dielectric constant tensor:
#      x y z
#    x 3.382890 0.000000 0.000000 
#    y 0.000000 3.382890 0.000000 
#    z 0.000000 0.000000 3.513120 
# 
# 
# High freq. dielectric constant tensor:
#      x y z
#    x 1.803170 0.000000 0.000000 
#    y 0.000000 1.803170 0.000000 
#    z 0.000000 0.000000 1.789780 
# 
# From -- ./inp_files/2577.got.cif
#   From: 2010.03.12/outbox.cif.g09.slc.cpg/sg138_2_cif.got.tgz:2577.got - 2010.04.08 09:41:05.
