data_PCOD8319954
_publ_section_title
;
Structure prediction by ZEFSAII (Michael W. Deem and Ramdas Pophale) SiO2 
 PCOD8319954
Probable space group: I 4/M M M
;
_chemical_formula_sum "Si O2"
_cell_formula_units_Z 168
_cell_length_a 24.246103
_cell_length_b 24.246103
_cell_length_c 14.554984
_cell_angle_alpha 90.000000
_cell_angle_beta 90.000000
_cell_angle_gamma 90.000000
_cell_volume 8556.489542
_symmetry_space_group_name_H-M "I 4/M M M"
_symmetry_group_IT_number 139
_symmetry_cell_setting 'tetragonal'
loop_
_space_group_symop_operation_xyz
x,y,z
-y,x,z
-x,-y,z
y,-x,z
x,-y,-z
-x,y,-z
y,x,-z
-y,-x,-z
-x,-y,-z
y,-x,-z
x,y,-z
-y,x,-z
-x,y,z
x,-y,z
-y,-x,z
y,x,z
1/2+x,1/2+y,1/2+z
1/2-y,1/2+x,1/2+z
1/2-x,1/2-y,1/2+z
1/2+y,1/2-x,1/2+z
1/2+x,1/2-y,1/2-z
1/2-x,1/2+y,1/2-z
1/2+y,1/2+x,1/2-z
1/2-y,1/2-x,1/2-z
1/2-x,1/2-y,1/2-z
1/2+y,1/2-x,1/2-z
1/2+x,1/2+y,1/2-z
1/2-y,1/2+x,1/2-z
1/2-x,1/2+y,1/2+z
1/2+x,1/2-y,1/2+z
1/2-y,1/2-x,1/2+z
1/2+y,1/2+x,1/2+z
loop_
_atom_site_type_symbol
_atom_site_label
_atom_site_fract_x
_atom_site_fract_y
_atom_site_fract_z
Si Si1 0.434967 0.065034 0.250000
Si Si2 0.608072 0.304909 0.605276
Si Si3 0.848170 0.602431 0.893589
Si Si4 0.500000 0.409028 0.000000
Si Si5 0.801434 0.000000 0.783571
Si Si6 0.409651 0.500000 0.804854
Si Si7 0.285351 0.200880 0.105609
Si Si8 0.000000 0.731219 0.603463
O O1 0.500000 0.076772 0.261033
O O2 0.410550 0.095458 0.160443
O O3 0.589813 0.312351 0.500000
O O4 0.638417 0.361584 0.638903
O O5 0.555202 0.285781 0.662846
O O6 0.649995 0.255202 0.616456
O O7 0.816464 0.655956 0.850586
O O8 0.806353 0.552845 0.882226
O O9 0.864905 0.612136 0.000000
O O10 0.553646 0.446354 0.000000
O O11 0.500000 0.376152 0.096604
O O12 0.867347 0.000000 0.777887
O O13 0.777163 0.000000 0.681462
O O14 0.445808 0.445808 0.796134
O O15 0.256091 0.256091 0.149733
O O16 0.296240 0.214704 0.000000
O O17 0.000000 0.757259 0.500000
#
# Coordination Sequence:
#
# PCOD8319954 Si02
#       8
#    16  32  32   8  16  16  32  16
#     4  11  24  38  61  92 120 152 201 248 290 355
#     4   9  19  36  56  84 119 149 185 237 295 346
#     4  10  21  41  63  82 117 159 193 238 304 356
#     4   7  12  26  48  68  86 118 170 230 277 306
#     4  12  22  32  56  81 114 151 193 232 284 360
#     4   9  18  33  52  72  97 137 190 237 276 325
#     4   8  16  34  60  84 108 146 194 238 281 342
#     4  10  24  42  57  80 116 159 191 236 302 354
#
# _framework density 19.634219999999999
#
# number of rings (size 3 to 8) (size 9 to 14) (size 15 to 20)
#    0.000    2.524    0.952    2.571    3.333    0.381 
#    0.000    3.333    0.000    2.286    0.000    4.000 
#    0.000    0.000    0.000    0.000    0.000    0.000 
#
# Total GULP energy -1040741.012730 kJ/mol
# GULP energy per Si atom -12389.773961 kJ/mol
# Density = 1.958953 g / cm^3
# Si number density = 19.634220 Si / 1000 Ang^3
#
#
#
# Elastic Constant Matrix: (Units=GPa)
#
#
# Indices 1 2 3 4 5 6 
#
# 1 121.3285 48.5707 42.4033 0.0000 0.0000 0.0000
# 2 48.5707 121.3274 42.4030 0.0000 0.0000 0.0000
# 3 42.4033 42.4030 80.4766 0.0000 0.0000 0.0000
# 4 0.0000 0.0000 0.0000 14.1806 0.0000 0.0000
# 5 0.0000 0.0000 0.0000 0.0000 14.1819 0.0000
# 6 0.0000 0.0000 0.0000 0.0000 0.0000 21.6107
#
#
#
# Elastic Compliance Matrix: (Units=1/GPa)
#
#
# Indices 1 2 3 4 5 6 
#
# 1 0.010865 -0.002879 -0.004208 0.000000 0.000000 0.000000
# 2 -0.002879 0.010865 -0.004208 0.000000 0.000000 0.000000
# 3 -0.004208 -0.004208 0.016860 0.000000 0.000000 0.000000
# 4 0.000000 0.000000 0.000000 0.070519 0.000000 0.000000
# 5 0.000000 0.000000 0.000000 0.000000 0.070512 0.000000
# 6 0.000000 0.000000 0.000000 0.000000 0.000000 0.046273
#
#
# Mechanical properties :
#
#
# Convention : Reuss Voigt Hill
#
# Bulk Modulus (GPa) = 62.49603 65.54295 64.01949
# Shear Modulus (GPa) = 19.69906 22.64501 21.17203
#
# Velocity S-wave (km/s) = 3.17093 3.39978 3.28735
# Velocity P-wave (km/s) = 6.73095 6.99041 6.86190
#
# Compressibility (1/GPa) = 0.01600102
#
# Stress axis : x y z
#
# Youngs Moduli (GPa) = 92.03625 92.03556 59.31077
#
# Poissons Ratio (x) = 0.26497 0.24958
# Poissons Ratio (y) = 0.26497 0.24958
# Poissons Ratio (z) = 0.38729 0.38728
#
# Static dielectric constant tensor:
#      x y z
#    x 3.575200 0.000000 0.000000 
#    y 0.000000 3.575230 0.000000 
#    z 0.000000 0.000000 3.637290 
# 
# 
# High freq. dielectric constant tensor:
#      x y z
#    x 1.763180 0.000000 0.000000 
#    y 0.000000 1.763180 0.000000 
#    z 0.000000 0.000000 1.760180 
# 
# From -- ./inp_files/6224.got.cif
#   From: 2010.03.12/outbox.cif.g09.slc.cpg/sg139_4_cif.got.tgz:6224.got - 2010.04.08 09:46:31.
