data_PCOD8319585
_publ_section_title
;
Structure prediction by ZEFSAII (Michael W. Deem and Ramdas Pophale) SiO2 
 PCOD8319585
Probable space group: I 4/M M M
;
_chemical_formula_sum "Si O2"
_cell_formula_units_Z 144
_cell_length_a 18.987732
_cell_length_b 18.987732
_cell_length_c 20.653193
_cell_angle_alpha 90.000000
_cell_angle_beta 90.000000
_cell_angle_gamma 90.000000
_cell_volume 7446.177593
_symmetry_space_group_name_H-M "I 4/M M M"
_symmetry_group_IT_number 139
_symmetry_cell_setting 'tetragonal'
loop_
_space_group_symop_operation_xyz
x,y,z
-y,x,z
-x,-y,z
y,-x,z
x,-y,-z
-x,y,-z
y,x,-z
-y,-x,-z
-x,-y,-z
y,-x,-z
x,y,-z
-y,x,-z
-x,y,z
x,-y,z
-y,-x,z
y,x,z
1/2+x,1/2+y,1/2+z
1/2-y,1/2+x,1/2+z
1/2-x,1/2-y,1/2+z
1/2+y,1/2-x,1/2+z
1/2+x,1/2-y,1/2-z
1/2-x,1/2+y,1/2-z
1/2+y,1/2+x,1/2-z
1/2-y,1/2-x,1/2-z
1/2-x,1/2-y,1/2-z
1/2+y,1/2-x,1/2-z
1/2+x,1/2+y,1/2-z
1/2-y,1/2+x,1/2-z
1/2-x,1/2+y,1/2+z
1/2+x,1/2-y,1/2+z
1/2-y,1/2-x,1/2+z
1/2+y,1/2+x,1/2+z
loop_
_atom_site_type_symbol
_atom_site_label
_atom_site_fract_x
_atom_site_fract_y
_atom_site_fract_z
Si Si1 0.082829 0.195204 0.000000
Si Si2 0.834118 0.577948 0.927054
Si Si3 0.424017 0.686755 0.878704
Si Si4 0.653734 0.231586 0.619938
Si Si5 0.418780 0.692629 0.267814
O O1 0.105812 0.237738 0.936772
O O2 0.118423 0.118423 0.000000
O O3 0.000000 0.184054 0.000000
O O4 0.861656 0.500000 0.901220
O O5 0.749941 0.574690 0.929273
O O6 0.851556 0.646419 0.883898
O O7 0.862243 0.589198 0.000000
O O8 0.500000 0.648880 0.876083
O O9 0.368433 0.631568 0.904900
O O10 0.406724 0.715708 0.806506
O O11 0.733165 0.266836 0.614873
O O12 0.620030 0.249198 0.688939
O O13 0.500000 0.687399 0.287634
O O14 0.383927 0.616074 0.280191
#
# Coordination Sequence:
#
# PCOD8319585 Si02
#       5
#    16  32  32  32  32
#     4  10  20  33  51  77 105 135 168 202 246 300
#     4  10  20  34  52  72  97 130 170 217 264 307
#     4   9  18  31  48  73 103 134 169 208 252 305
#     4  10  19  32  52  75 100 134 172 211 255 303
#     4   9  18  32  50  75 106 138 171 206 249 302
#
# _framework density 19.338781000000001
#
# number of rings (size 3 to 8) (size 9 to 14) (size 15 to 20)
#    0.000    2.444    1.111    1.333    0.000    2.778 
#    0.000    5.556    0.000    7.333    0.000    3.111 
#    0.000   10.667    0.000    0.000    0.000    0.000 
#
# Total GULP energy -891986.777116 kJ/mol
# GULP energy per Si atom -12388.705238 kJ/mol
# Density = 1.929476 g / cm^3
# Si number density = 19.338781 Si / 1000 Ang^3
#
#
#
# Elastic Constant Matrix: (Units=GPa)
#
#
# Indices 1 2 3 4 5 6 
#
# 1 108.0817 25.0470 5.7684 0.0000 0.0000 0.0000
# 2 25.0470 108.0817 5.7684 0.0000 0.0000 0.0000
# 3 5.7684 5.7684 25.1923 0.0000 0.0000 0.0000
# 4 0.0000 0.0000 0.0000 22.2988 0.0000 0.0000
# 5 0.0000 0.0000 0.0000 0.0000 22.2988 0.0000
# 6 0.0000 0.0000 0.0000 0.0000 0.0000 19.2539
#
#
#
# Elastic Compliance Matrix: (Units=1/GPa)
#
#
# Indices 1 2 3 4 5 6 
#
# 1 0.009853 -0.002190 -0.001755 0.000000 0.000000 0.000000
# 2 -0.002190 0.009853 -0.001755 0.000000 0.000000 0.000000
# 3 -0.001755 -0.001755 0.040498 0.000000 0.000000 0.000000
# 4 0.000000 0.000000 0.000000 0.044846 0.000000 0.000000
# 5 0.000000 0.000000 0.000000 0.000000 0.044846 0.000000
# 6 0.000000 0.000000 0.000000 0.000000 0.000000 0.051938
#
#
# Mechanical properties :
#
#
# Convention : Reuss Voigt Hill
#
# Bulk Modulus (GPa) = 20.48913 34.94704 27.71808
# Shear Modulus (GPa) = 21.78639 26.42175 24.10407
#
# Velocity S-wave (km/s) = 3.36007 3.70030 3.53428
# Velocity P-wave (km/s) = 5.06669 6.03046 5.56946
#
# Compressibility (1/GPa) = 0.04880637
#
# Stress axis : x y z
#
# Youngs Moduli (GPa) = 101.48805 101.48806 24.69239
#
# Poissons Ratio (x) = 0.22224 0.04333
# Poissons Ratio (y) = 0.22224 0.04333
# Poissons Ratio (z) = 0.17809 0.17809
#
# Static dielectric constant tensor:
#      x y z
#    x 3.496290 0.000000 0.000000 
#    y 0.000000 3.496290 0.000000 
#    z 0.000000 0.000000 3.520920 
# 
# 
# High freq. dielectric constant tensor:
#      x y z
#    x 1.739370 0.000000 0.000000 
#    y 0.000000 1.739370 0.000000 
#    z 0.000000 0.000000 1.752090 
# 
# From -- ./inp_files/8146.got.cif
#   From: 2010.03.12/outbox.cif.g09.slc.cpg/sg139_5_cif.got.tgz:8146.got - 2010.04.08 09:46:31.
