data_PCOD8319286
_publ_section_title
;
Structure prediction by ZEFSAII (Michael W. Deem and Ramdas Pophale) SiO2 
 PCOD8319286
Probable space group: I 4/M M M
;
_chemical_formula_sum "Si O2"
_cell_formula_units_Z 240
_cell_length_a 22.307555
_cell_length_b 22.307555
_cell_length_c 28.038732
_cell_angle_alpha 90.000000
_cell_angle_beta 90.000000
_cell_angle_gamma 90.000000
_cell_volume 13952.830372
_symmetry_space_group_name_H-M "I 4/M M M"
_symmetry_group_IT_number 139
_symmetry_cell_setting 'tetragonal'
loop_
_space_group_symop_operation_xyz
x,y,z
-y,x,z
-x,-y,z
y,-x,z
x,-y,-z
-x,y,-z
y,x,-z
-y,-x,-z
-x,-y,-z
y,-x,-z
x,y,-z
-y,x,-z
-x,y,z
x,-y,z
-y,-x,z
y,x,z
1/2+x,1/2+y,1/2+z
1/2-y,1/2+x,1/2+z
1/2-x,1/2-y,1/2+z
1/2+y,1/2-x,1/2+z
1/2+x,1/2-y,1/2-z
1/2-x,1/2+y,1/2-z
1/2+y,1/2+x,1/2-z
1/2-y,1/2-x,1/2-z
1/2-x,1/2-y,1/2-z
1/2+y,1/2-x,1/2-z
1/2+x,1/2+y,1/2-z
1/2-y,1/2+x,1/2-z
1/2-x,1/2+y,1/2+z
1/2+x,1/2-y,1/2+z
1/2-y,1/2-x,1/2+z
1/2+y,1/2+x,1/2+z
loop_
_atom_site_type_symbol
_atom_site_label
_atom_site_fract_x
_atom_site_fract_y
_atom_site_fract_z
Si Si1 0.068672 0.273783 0.945545
Si Si2 0.566681 0.338555 0.385920
Si Si3 0.780789 0.933481 0.211297
Si Si4 0.611936 0.148585 0.055482
Si Si5 0.721171 0.816587 0.801939
Si Si6 0.334308 0.570120 0.186398
Si Si7 0.648629 0.747469 0.122088
Si Si8 0.069459 0.500000 0.943235
O O1 0.091312 0.221445 0.910853
O O2 0.110641 0.329204 0.934160
O O3 0.000000 0.292037 0.934687
O O4 0.075822 0.252433 0.000000
O O5 0.500000 0.351512 0.404716
O O6 0.606439 0.393561 0.402857
O O7 0.567884 0.332468 0.328728
O O8 0.728400 0.888202 0.195528
O O9 0.808606 0.914048 0.261574
O O10 0.752383 0.000000 0.214557
O O11 0.618880 0.214126 0.079626
O O12 0.557260 0.107703 0.075159
O O13 0.602129 0.161890 0.000000
O O14 0.785395 0.785395 0.812232
O O15 0.699510 0.800491 0.750000
O O16 0.672799 0.795340 0.839956
O O17 0.342892 0.500000 0.178280
O O18 0.399011 0.600990 0.181448
O O19 0.290082 0.595626 0.146310
O O20 0.702221 0.702221 0.105051
O O21 0.000000 0.500000 0.923608
O O22 0.065479 0.500000 0.000000
#
# Coordination Sequence:
#
# PCOD8319286 Si02
#       8
#    32  32  32  32  32  32  32  16
#     4   9  18  33  51  71  97 130 168 208 249 292
#     4  10  20  32  48  70  98 132 170 213 255 298
#     4  10  19  31  48  72 100 130 167 208 252 297
#     4  10  20  33  52  78 106 135 164 202 253 307
#     4  10  17  29  50  72  98 129 166 207 247 295
#     4  10  20  34  52  73  99 129 163 205 253 305
#     4  10  21  34  50  76 104 134 169 207 250 300
#     4   9  18  34  56  80 106 136 173 213 251 299
#
# _framework density 17.200810000000001
#
# number of rings (size 3 to 8) (size 9 to 14) (size 15 to 20)
#    0.000    2.200    1.333    2.400    0.933    4.000 
#    0.000    2.000    0.000    2.400    0.000    1.867 
#    0.000    0.000    0.000    2.933    0.000    0.000 
#
# Total GULP energy -1487725.464664 kJ/mol
# GULP energy per Si atom -12397.712206 kJ/mol
# Density = 1.716166 g / cm^3
# Si number density = 17.200810 Si / 1000 Ang^3
#
#
#
# Elastic Constant Matrix: (Units=GPa)
#
#
# Indices 1 2 3 4 5 6 
#
# 1 104.4952 67.1579 36.9568 0.0000 0.0000 0.0000
# 2 67.1579 104.5010 36.9566 0.0000 0.0000 0.0000
# 3 36.9568 36.9566 62.1760 0.0000 0.0000 0.0000
# 4 0.0000 0.0000 0.0000 21.7453 0.0000 0.0000
# 5 0.0000 0.0000 0.0000 0.0000 21.7447 0.0000
# 6 0.0000 0.0000 0.0000 0.0000 0.0000 26.1734
#
#
#
# Elastic Compliance Matrix: (Units=1/GPa)
#
#
# Indices 1 2 3 4 5 6 
#
# 1 0.017306 -0.009476 -0.004654 0.000000 0.000000 0.000000
# 2 -0.009476 0.017305 -0.004653 0.000000 0.000000 0.000000
# 3 -0.004654 -0.004653 0.021616 0.000000 0.000000 0.000000
# 4 0.000000 0.000000 0.000000 0.045987 0.000000 0.000000
# 5 0.000000 0.000000 0.000000 0.000000 0.045988 0.000000
# 6 0.000000 0.000000 0.000000 0.000000 0.000000 0.038207
#
#
# Mechanical properties :
#
#
# Convention : Reuss Voigt Hill
#
# Bulk Modulus (GPa) = 53.59172 61.47940 57.53556
# Shear Modulus (GPa) = 21.72082 22.60607 22.16344
#
# Velocity S-wave (km/s) = 3.55741 3.62918 3.59348
# Velocity P-wave (km/s) = 6.93525 7.30623 7.12316
#
# Compressibility (1/GPa) = 0.01865960
#
# Stress axis : x y z
#
# Youngs Moduli (GPa) = 57.78427 57.78841 46.26280
#
# Poissons Ratio (x) = 0.54758 0.21531
# Poissons Ratio (y) = 0.54754 0.21528
# Poissons Ratio (z) = 0.26894 0.26891
#
# Static dielectric constant tensor:
#      x y z
#    x 3.308940 0.000000 0.000000 
#    y 0.000000 3.308930 0.000000 
#    z 0.000000 0.000000 3.148930 
# 
# 
# High freq. dielectric constant tensor:
#      x y z
#    x 1.660000 0.000000 0.000000 
#    y 0.000000 1.660000 0.000000 
#    z 0.000000 0.000000 1.651440 
# 
# From -- ./inp_files/14626.got.cif
#   From: 2010.03.12/outbox.cif.g09.slc.cpg/sg139_8_cif.got.tgz:14626.got - 2010.04.08 09:46:31.
