data_PCOD8319858
_publ_section_title
;
Structure prediction by ZEFSAII (Michael W. Deem and Ramdas Pophale) SiO2 
 PCOD8319858
Probable space group: I 4/M M M
;
_chemical_formula_sum "Si O2"
_cell_formula_units_Z 176
_cell_length_a 18.044026
_cell_length_b 18.044026
_cell_length_c 27.712389
_cell_angle_alpha 90.000000
_cell_angle_beta 90.000000
_cell_angle_gamma 90.000000
_cell_volume 9022.790114
_symmetry_space_group_name_H-M "I 4/M M M"
_symmetry_group_IT_number 139
_symmetry_cell_setting 'tetragonal'
loop_
_space_group_symop_operation_xyz
x,y,z
-y,x,z
-x,-y,z
y,-x,z
x,-y,-z
-x,y,-z
y,x,-z
-y,-x,-z
-x,-y,-z
y,-x,-z
x,y,-z
-y,x,-z
-x,y,z
x,-y,z
-y,-x,z
y,x,z
1/2+x,1/2+y,1/2+z
1/2-y,1/2+x,1/2+z
1/2-x,1/2-y,1/2+z
1/2+y,1/2-x,1/2+z
1/2+x,1/2-y,1/2-z
1/2-x,1/2+y,1/2-z
1/2+y,1/2+x,1/2-z
1/2-y,1/2-x,1/2-z
1/2-x,1/2-y,1/2-z
1/2+y,1/2-x,1/2-z
1/2+x,1/2+y,1/2-z
1/2-y,1/2+x,1/2-z
1/2-x,1/2+y,1/2+z
1/2+x,1/2-y,1/2+z
1/2-y,1/2-x,1/2+z
1/2+y,1/2+x,1/2+z
loop_
_atom_site_type_symbol
_atom_site_label
_atom_site_fract_x
_atom_site_fract_y
_atom_site_fract_z
Si Si1 0.142653 0.353524 0.395116
Si Si2 0.583260 0.299390 0.762473
Si Si3 0.413856 0.000000 0.552731
Si Si4 0.584963 0.701803 0.875322
Si Si5 0.584462 0.845528 0.708122
Si Si6 0.708098 0.413693 0.443506
O O1 0.074453 0.394776 0.419289
O O2 0.130567 0.265758 0.403316
O O3 0.136989 0.366856 0.338179
O O4 0.221098 0.381013 0.415601
O O5 0.500000 0.318535 0.747796
O O6 0.630011 0.369990 0.747067
O O7 0.589311 0.280921 0.818754
O O8 0.613122 0.230564 0.731841
O O9 0.500000 0.000000 0.545115
O O10 0.374813 0.000000 0.500000
O O11 0.500000 0.699306 0.893334
O O12 0.623077 0.623077 0.887364
O O13 0.500000 0.841065 0.691269
O O14 0.592548 0.907453 0.750000
O O15 0.725611 0.407859 0.500000
O O16 0.694379 0.500000 0.428828
O O17 0.634877 0.365124 0.430384
#
# Coordination Sequence:
#
# PCOD8319858 Si02
#       6
#    32  32  16  32  32  32
#     4  12  22  39  60  90 123 160 202 249 311 366
#     4   9  19  35  53  78 113 152 199 247 293 345
#     4  11  24  40  62  90 123 161 203 253 308 370
#     4  10  20  36  57  84 117 156 202 252 302 362
#     4  11  23  36  53  79 116 157 197 240 288 353
#     4  10  22  41  65  93 125 161 204 254 306 362
#
# _framework density 19.506160999999999
#
# number of rings (size 3 to 8) (size 9 to 14) (size 15 to 20)
#    0.000    1.545    2.727    2.727    1.273    4.000 
#    0.000    2.727    0.000    0.000    0.000    2.545 
#    0.000    0.727    0.000    0.000    0.000    0.000 
#
# Total GULP energy -1091062.431159 kJ/mol
# GULP energy per Si atom -12398.436718 kJ/mol
# Density = 1.946176 g / cm^3
# Si number density = 19.506161 Si / 1000 Ang^3
#
#
#
# Elastic Constant Matrix: (Units=GPa)
#
#
# Indices 1 2 3 4 5 6 
#
# 1 121.7866 76.9604 37.2052 0.0000 0.0000 0.0000
# 2 76.9604 121.7839 37.2049 0.0000 0.0000 0.0000
# 3 37.2052 37.2049 62.4453 0.0000 0.0000 0.0000
# 4 0.0000 0.0000 0.0000 40.4015 0.0000 0.0000
# 5 0.0000 0.0000 0.0000 0.0000 40.4014 0.0000
# 6 0.0000 0.0000 0.0000 0.0000 0.0000 30.7175
#
#
#
# Elastic Compliance Matrix: (Units=1/GPa)
#
#
# Indices 1 2 3 4 5 6 
#
# 1 0.014392 -0.007916 -0.003858 0.000000 0.000000 0.000000
# 2 -0.007916 0.014393 -0.003859 0.000000 0.000000 0.000000
# 3 -0.003858 -0.003859 0.020612 0.000000 0.000000 0.000000
# 4 0.000000 0.000000 0.000000 0.024752 0.000000 0.000000
# 5 0.000000 0.000000 0.000000 0.000000 0.024752 0.000000
# 6 0.000000 0.000000 0.000000 0.000000 0.000000 0.032555
#
#
# Mechanical properties :
#
#
# Convention : Reuss Voigt Hill
#
# Bulk Modulus (GPa) = 55.15682 67.63964 61.39823
# Shear Modulus (GPa) = 29.62694 32.61377 31.12035
#
# Velocity S-wave (km/s) = 3.90147 4.09341 3.99859
# Velocity P-wave (km/s) = 6.97376 7.55597 7.27069
#
# Compressibility (1/GPa) = 0.01813012
#
# Stress axis : x y z
#
# Youngs Moduli (GPa) = 69.48088 69.47934 48.51572
#
# Poissons Ratio (x) = 0.55003 0.18720
# Poissons Ratio (y) = 0.55004 0.18720
# Poissons Ratio (z) = 0.26809 0.26809
#
# Static dielectric constant tensor:
#      x y z
#    x 3.853800 0.000000 0.000000 
#    y 0.000000 3.853770 0.000000 
#    z 0.000000 0.000000 3.557000 
# 
# 
# High freq. dielectric constant tensor:
#      x y z
#    x 1.765620 0.000000 0.000000 
#    y 0.000000 1.765620 0.000000 
#    z 0.000000 0.000000 1.744060 
# 
# From -- ./inp_files/13116.got.cif
#   From: 2010.03.12/outbox.cif.g09.slc.cpg/sg139_7_cif.got.tgz:13116.got - 2010.04.08 09:46:31.
