data_PCOD8319268
_publ_section_title
;
Structure prediction by ZEFSAII (Michael W. Deem and Ramdas Pophale) SiO2 
 PCOD8319268
Probable space group: I 4/M M M
;
_chemical_formula_sum "Si O2"
_cell_formula_units_Z 192
_cell_length_a 23.317983
_cell_length_b 23.317983
_cell_length_c 21.466736
_cell_angle_alpha 90.000000
_cell_angle_beta 90.000000
_cell_angle_gamma 90.000000
_cell_volume 11672.072541
_symmetry_space_group_name_H-M "I 4/M M M"
_symmetry_group_IT_number 139
_symmetry_cell_setting 'tetragonal'
loop_
_space_group_symop_operation_xyz
x,y,z
-y,x,z
-x,-y,z
y,-x,z
x,-y,-z
-x,y,-z
y,x,-z
-y,-x,-z
-x,-y,-z
y,-x,-z
x,y,-z
-y,x,-z
-x,y,z
x,-y,z
-y,-x,z
y,x,z
1/2+x,1/2+y,1/2+z
1/2-y,1/2+x,1/2+z
1/2-x,1/2-y,1/2+z
1/2+y,1/2-x,1/2+z
1/2+x,1/2-y,1/2-z
1/2-x,1/2+y,1/2-z
1/2+y,1/2+x,1/2-z
1/2-y,1/2-x,1/2-z
1/2-x,1/2-y,1/2-z
1/2+y,1/2-x,1/2-z
1/2+x,1/2+y,1/2-z
1/2-y,1/2+x,1/2-z
1/2-x,1/2+y,1/2+z
1/2+x,1/2-y,1/2+z
1/2-y,1/2-x,1/2+z
1/2+y,1/2+x,1/2+z
loop_
_atom_site_type_symbol
_atom_site_label
_atom_site_fract_x
_atom_site_fract_y
_atom_site_fract_z
Si Si1 0.343864 0.435028 0.000000
Si Si2 0.686831 0.863163 0.427032
Si Si3 0.742807 0.257194 0.119618
Si Si4 0.338348 0.061517 0.070795
Si Si5 0.563940 0.703085 0.569374
Si Si6 0.335788 0.664213 0.653752
Si Si7 0.780452 0.066740 0.374084
Si Si8 0.835342 0.164659 0.700147
O O1 0.307371 0.418331 0.940446
O O2 0.362253 0.500000 0.000000
O O3 0.403315 0.403315 0.000000
O O4 0.686292 0.880020 0.500000
O O5 0.722513 0.803754 0.421154
O O6 0.621513 0.860185 0.399528
O O7 0.715132 0.911606 0.382683
O O8 0.788101 0.211900 0.143853
O O9 0.711499 0.288502 0.177788
O O10 0.270694 0.062802 0.074097
O O11 0.359448 0.000000 0.101688
O O12 0.359506 0.060835 0.000000
O O13 0.586118 0.685356 0.500000
O O14 0.500000 0.678221 0.579803
O O15 0.603791 0.680215 0.623830
O O16 0.341860 0.658141 0.726912
O O17 0.816487 0.101747 0.323290
O O18 0.781809 0.000000 0.355869
#
# Coordination Sequence:
#
# PCOD8319268 Si02
#       8
#    16  32  16  32  32  16  32  16
#     4  10  18  31  52  72  93 119 155 207 257 302
#     4  10  17  26  46  74  99 129 163 198 249 305
#     4  10  20  30  43  70 104 131 157 206 248 288
#     4   8  14  25  41  65  99 130 155 192 242 291
#     4   9  18  31  48  74 102 126 161 207 246 287
#     4  12  20  32  52  72  97 136 171 194 244 301
#     4  10  20  34  50  71  98 128 165 209 250 291
#     4  10  23  35  48  67 100 137 166 203 243 298
#
# _framework density 16.44952
#
# number of rings (size 3 to 8) (size 9 to 14) (size 15 to 20)
#    0.000    2.333    3.333    1.750    0.000    1.417 
#    0.000    0.000    0.000    1.000    0.000    4.667 
#    0.000    0.000    0.000    0.000    0.000    0.000 
#
# Total GULP energy -1189321.629302 kJ/mol
# GULP energy per Si atom -12388.766972 kJ/mol
# Density = 1.641208 g / cm^3
# Si number density = 16.449520 Si / 1000 Ang^3
#
#
#
# Elastic Constant Matrix: (Units=GPa)
#
#
# Indices 1 2 3 4 5 6 
#
# 1 110.8291 38.6276 38.0740 0.0000 0.0000 0.0000
# 2 38.6276 110.8291 38.0740 0.0000 0.0000 0.0000
# 3 38.0740 38.0740 88.1002 0.0000 0.0000 0.0000
# 4 0.0000 0.0000 0.0000 14.2559 0.0000 0.0000
# 5 0.0000 0.0000 0.0000 0.0000 14.2559 0.0000
# 6 0.0000 0.0000 0.0000 0.0000 0.0000 16.1970
#
#
#
# Elastic Compliance Matrix: (Units=1/GPa)
#
#
# Indices 1 2 3 4 5 6 
#
# 1 0.011215 -0.002635 -0.003708 0.000000 0.000000 0.000000
# 2 -0.002635 0.011215 -0.003708 0.000000 0.000000 0.000000
# 3 -0.003708 -0.003708 0.014556 0.000000 0.000000 0.000000
# 4 0.000000 0.000000 0.000000 0.070146 0.000000 0.000000
# 5 0.000000 0.000000 0.000000 0.000000 0.070146 0.000000
# 6 0.000000 0.000000 0.000000 0.000000 0.000000 0.061740
#
#
# Mechanical properties :
#
#
# Convention : Reuss Voigt Hill
#
# Bulk Modulus (GPa) = 59.22843 59.92329 59.57586
# Shear Modulus (GPa) = 18.88581 21.94060 20.41320
#
# Velocity S-wave (km/s) = 3.39205 3.65610 3.52655
# Velocity P-wave (km/s) = 7.17117 7.37092 7.27173
#
# Compressibility (1/GPa) = 0.01688378
#
# Stress axis : x y z
#
# Youngs Moduli (GPa) = 89.16517 89.16517 68.70157
#
# Poissons Ratio (x) = 0.23495 0.25475
# Poissons Ratio (y) = 0.23495 0.25475
# Poissons Ratio (z) = 0.33063 0.33063
#
# Static dielectric constant tensor:
#      x y z
#    x 3.182320 0.000000 0.000000 
#    y 0.000000 3.182320 0.000000 
#    z 0.000000 0.000000 2.795550 
# 
# 
# High freq. dielectric constant tensor:
#      x y z
#    x 1.630070 0.000000 0.000000 
#    y 0.000000 1.630070 0.000000 
#    z 0.000000 0.000000 1.598320 
# 
# From -- ./inp_files/10658.got.cif
#   From: 2010.03.12/outbox.cif.g09.slc.cpg/sg139_6_cif.got.tgz:10658.got - 2010.04.08 09:46:31.
