data_PCOD8319481
_publ_section_title
;
Structure prediction by ZEFSAII (Michael W. Deem and Ramdas Pophale) SiO2 
 PCOD8319481
Probable space group: I 4/M M M
;
_chemical_formula_sum "Si O2"
_cell_formula_units_Z 160
_cell_length_a 17.307130
_cell_length_b 17.307130
_cell_length_c 33.079674
_cell_angle_alpha 90.000000
_cell_angle_beta 90.000000
_cell_angle_gamma 90.000000
_cell_volume 9908.578003
_symmetry_space_group_name_H-M "I 4/M M M"
_symmetry_group_IT_number 139
_symmetry_cell_setting 'tetragonal'
loop_
_space_group_symop_operation_xyz
x,y,z
-y,x,z
-x,-y,z
y,-x,z
x,-y,-z
-x,y,-z
y,x,-z
-y,-x,-z
-x,-y,-z
y,-x,-z
x,y,-z
-y,x,-z
-x,y,z
x,-y,z
-y,-x,z
y,x,z
1/2+x,1/2+y,1/2+z
1/2-y,1/2+x,1/2+z
1/2-x,1/2-y,1/2+z
1/2+y,1/2-x,1/2+z
1/2+x,1/2-y,1/2-z
1/2-x,1/2+y,1/2-z
1/2+y,1/2+x,1/2-z
1/2-y,1/2-x,1/2-z
1/2-x,1/2-y,1/2-z
1/2+y,1/2-x,1/2-z
1/2+x,1/2+y,1/2-z
1/2-y,1/2+x,1/2-z
1/2-x,1/2+y,1/2+z
1/2+x,1/2-y,1/2+z
1/2-y,1/2-x,1/2+z
1/2+y,1/2+x,1/2+z
loop_
_atom_site_type_symbol
_atom_site_label
_atom_site_fract_x
_atom_site_fract_y
_atom_site_fract_z
Si Si1 0.587524 0.796778 0.732595
Si Si2 0.587702 0.288431 0.813267
Si Si3 0.592464 0.721128 0.500000
Si Si4 0.335313 0.090942 0.928654
Si Si5 0.500000 0.912322 0.952375
Si Si6 0.827524 0.297168 0.151965
O O1 0.500000 0.818821 0.722817
O O2 0.626191 0.873809 0.750000
O O3 0.593854 0.728547 0.765421
O O4 0.627979 0.767862 0.691749
O O5 0.500000 0.298822 0.827539
O O6 0.632546 0.367455 0.822436
O O7 0.623620 0.217742 0.838564
O O8 0.500000 0.702436 0.500000
O O9 0.640610 0.640610 0.500000
O O10 0.618224 0.771410 0.538957
O O11 0.420544 0.128185 0.936869
O O12 0.309203 0.112461 0.883857
O O13 0.342845 0.000000 0.932934
O O14 0.500000 0.000000 0.936515
O O15 0.500000 0.908749 0.000000
O O16 0.768177 0.231824 0.138284
#
# Coordination Sequence:
#
# PCOD8319481 Si02
#       6
#    32  32  16  32  16  32
#     4   9  17  30  46  64  90 120 151 186 227 272
#     4   9  18  31  46  64  86 115 150 189 230 270
#     4  10  20  34  51  71  97 127 160 196 231 270
#     4  10  19  31  49  71  95 122 153 188 230 278
#     4   9  16  30  48  68  92 120 147 181 231 281
#     4  10  19  30  46  67  92 121 153 186 224 274
#
# _framework density 16.147625000000001
#
# number of rings (size 3 to 8) (size 9 to 14) (size 15 to 20)
#    0.000    2.500    1.000    1.800    1.400    2.900 
#    0.000    0.000    0.000    0.000    0.000    0.000 
#    0.000   14.400    0.000    0.000    0.000   19.600 
#
# Total GULP energy -991718.791250 kJ/mol
# GULP energy per Si atom -12396.484891 kJ/mol
# Density = 1.611087 g / cm^3
# Si number density = 16.147625 Si / 1000 Ang^3
#
#
#
# Elastic Constant Matrix: (Units=GPa)
#
#
# Indices 1 2 3 4 5 6 
#
# 1 60.4476 25.0221 13.8884 0.0000 0.0000 0.0000
# 2 25.0221 60.4470 13.8887 0.0000 0.0000 0.0000
# 3 13.8884 13.8887 68.9946 0.0000 0.0000 0.0000
# 4 0.0000 0.0000 0.0000 19.4388 0.0000 0.0000
# 5 0.0000 0.0000 0.0000 0.0000 19.4388 0.0000
# 6 0.0000 0.0000 0.0000 0.0000 0.0000 11.5595
#
#
#
# Elastic Compliance Matrix: (Units=1/GPa)
#
#
# Indices 1 2 3 4 5 6 
#
# 1 0.020374 -0.007855 -0.002520 0.000000 0.000000 0.000000
# 2 -0.007855 0.020374 -0.002520 0.000000 0.000000 0.000000
# 3 -0.002520 -0.002520 0.015508 0.000000 0.000000 0.000000
# 4 0.000000 0.000000 0.000000 0.051444 0.000000 0.000000
# 5 0.000000 0.000000 0.000000 0.000000 0.051444 0.000000
# 6 0.000000 0.000000 0.000000 0.000000 0.000000 0.086509
#
#
# Mechanical properties :
#
#
# Convention : Reuss Voigt Hill
#
# Bulk Modulus (GPa) = 32.82311 32.83196 32.82753
# Shear Modulus (GPa) = 17.75584 19.22674 18.49129
#
# Velocity S-wave (km/s) = 3.31961 3.45437 3.38766
# Velocity P-wave (km/s) = 5.92150 6.02385 5.97289
#
# Compressibility (1/GPa) = 0.03046634
#
# Stress axis : x y z
#
# Youngs Moduli (GPa) = 49.08300 49.08238 64.48087
#
# Poissons Ratio (x) = 0.38553 0.16249
# Poissons Ratio (y) = 0.38553 0.16250
# Poissons Ratio (z) = 0.12369 0.12370
#
# Static dielectric constant tensor:
#      x y z
#    x 3.015560 0.000000 0.000000 
#    y 0.000000 3.015560 0.000000 
#    z 0.000000 0.000000 2.970380 
# 
# 
# High freq. dielectric constant tensor:
#      x y z
#    x 1.609690 0.000000 0.000000 
#    y 0.000000 1.609690 0.000000 
#    z 0.000000 0.000000 1.619290 
# 
# From -- ./inp_files/14157.got.cif
#   From: 2010.03.12/outbox.cif.g09.slc.cpg/sg139_8_cif.got.tgz:14157.got - 2010.04.08 09:46:31.
