data_PCOD8319945
_publ_section_title
;
Structure prediction by ZEFSAII (Michael W. Deem and Ramdas Pophale) SiO2 
 PCOD8319945
Probable space group: I 4/M M M
;
_chemical_formula_sum "Si O2"
_cell_formula_units_Z 160
_cell_length_a 30.880023
_cell_length_b 30.880023
_cell_length_c 8.901525
_cell_angle_alpha 90.000000
_cell_angle_beta 90.000000
_cell_angle_gamma 90.000000
_cell_volume 8488.279005
_symmetry_space_group_name_H-M "I 4/M M M"
_symmetry_group_IT_number 139
_symmetry_cell_setting 'tetragonal'
loop_
_space_group_symop_operation_xyz
x,y,z
-y,x,z
-x,-y,z
y,-x,z
x,-y,-z
-x,y,-z
y,x,-z
-y,-x,-z
-x,-y,-z
y,-x,-z
x,y,-z
-y,x,-z
-x,y,z
x,-y,z
-y,-x,z
y,x,z
1/2+x,1/2+y,1/2+z
1/2-y,1/2+x,1/2+z
1/2-x,1/2-y,1/2+z
1/2+y,1/2-x,1/2+z
1/2+x,1/2-y,1/2-z
1/2-x,1/2+y,1/2-z
1/2+y,1/2+x,1/2-z
1/2-y,1/2-x,1/2-z
1/2-x,1/2-y,1/2-z
1/2+y,1/2-x,1/2-z
1/2+x,1/2+y,1/2-z
1/2-y,1/2+x,1/2-z
1/2-x,1/2+y,1/2+z
1/2+x,1/2-y,1/2+z
1/2-y,1/2-x,1/2+z
1/2+y,1/2+x,1/2+z
loop_
_atom_site_type_symbol
_atom_site_label
_atom_site_fract_x
_atom_site_fract_y
_atom_site_fract_z
Si Si1 0.000000 0.112855 0.338314
Si Si2 0.151707 0.151707 0.832624
Si Si3 0.772808 0.903819 0.319522
Si Si4 0.500000 0.286511 0.837150
Si Si5 0.548770 0.888004 0.324310
Si Si6 0.381772 0.817200 0.678207
Si Si7 0.919492 0.080509 0.837759
O O1 0.000000 0.163131 0.362878
O O2 0.958368 0.100289 0.249983
O O3 0.000000 0.089356 0.500000
O O4 0.128972 0.190729 0.742113
O O5 0.116147 0.116147 0.858275
O O6 0.167278 0.167278 0.000000
O O7 0.776165 0.904220 0.500000
O O8 0.775288 0.953925 0.255454
O O9 0.728064 0.884738 0.262001
O O10 0.500000 0.263007 0.000000
O O11 0.549128 0.896499 0.500000
O O12 0.500000 0.881994 0.263183
O O13 0.569903 0.930098 0.250000
O O14 0.575207 0.844712 0.283834
O O15 0.375552 0.811088 0.500000
O O16 0.340416 0.840416 0.750000
O O17 0.935711 0.064290 0.000000
#
# Coordination Sequence:
#
# PCOD8319945 Si02
#       7
#    16  16  32  16  32  32  16
#     4  11  21  38  60  81 111 155 198 237 287 352
#     4  11  23  39  59  87 119 153 190 234 292 351
#     4  11  22  39  62  90 120 154 194 239 288 344
#     4   9  20  35  56  88 121 151 190 237 288 344
#     4   9  19  35  54  79 114 154 196 240 287 338
#     4  10  21  39  61  86 118 156 195 240 292 347
#     4  11  23  38  56  82 116 151 191 244 295 343
#
# _framework density 18.849522
#
# number of rings (size 3 to 8) (size 9 to 14) (size 15 to 20)
#    0.000    1.800    2.000    2.100    1.400    2.400 
#    0.000    4.000    0.000    0.000    0.000    0.000 
#    0.000    0.000    0.000    0.000    0.000    0.000 
#
# Total GULP energy -991442.245156 kJ/mol
# GULP energy per Si atom -12393.028064 kJ/mol
# Density = 1.880662 g / cm^3
# Si number density = 18.849522 Si / 1000 Ang^3
#
#
#
# Elastic Constant Matrix: (Units=GPa)
#
#
# Indices 1 2 3 4 5 6 
#
# 1 136.5619 60.5742 48.9106 0.0000 0.0000 0.0000
# 2 60.5742 136.5603 48.9106 0.0000 0.0000 0.0000
# 3 48.9106 48.9106 104.4024 0.0000 0.0000 0.0000
# 4 0.0000 0.0000 0.0000 29.7796 0.0000 0.0000
# 5 0.0000 0.0000 0.0000 0.0000 29.7801 0.0000
# 6 0.0000 0.0000 0.0000 0.0000 0.0000 25.4910
#
#
#
# Elastic Compliance Matrix: (Units=1/GPa)
#
#
# Indices 1 2 3 4 5 6 
#
# 1 0.009885 -0.003276 -0.003096 0.000000 0.000000 0.000000
# 2 -0.003276 0.009885 -0.003096 0.000000 0.000000 0.000000
# 3 -0.003096 -0.003096 0.012479 0.000000 0.000000 0.000000
# 4 0.000000 0.000000 0.000000 0.033580 0.000000 0.000000
# 5 0.000000 0.000000 0.000000 0.000000 0.033579 0.000000
# 6 0.000000 0.000000 0.000000 0.000000 0.000000 0.039229
#
#
# Mechanical properties :
#
#
# Convention : Reuss Voigt Hill
#
# Bulk Modulus (GPa) = 75.11686 77.14615 76.13151
# Shear Modulus (GPa) = 30.86210 31.61877 31.24043
#
# Velocity S-wave (km/s) = 4.05073 4.10009 4.07548
# Velocity P-wave (km/s) = 7.86227 7.96433 7.91346
#
# Compressibility (1/GPa) = 0.01331259
#
# Stress axis : x y z
#
# Youngs Moduli (GPa) = 101.16814 101.16677 80.13228
#
# Poissons Ratio (x) = 0.33138 0.24810
# Poissons Ratio (y) = 0.33138 0.24811
# Poissons Ratio (z) = 0.31324 0.31324
#
# Static dielectric constant tensor:
#      x y z
#    x 3.531290 0.000000 0.000000 
#    y 0.000000 3.531300 0.000000 
#    z 0.000000 0.000000 3.698060 
# 
# 
# High freq. dielectric constant tensor:
#      x y z
#    x 1.733580 0.000000 0.000000 
#    y 0.000000 1.733580 0.000000 
#    z 0.000000 0.000000 1.736610 
# 
# From -- ./inp_files/2307.got.cif
#   From: 2010.03.12/outbox.cif.g09.slc.cpg/sg139_2_cif.got.tgz:2307.got - 2010.04.08 09:46:31.
