data_PCOD8319200
_publ_section_title
;
Structure prediction by ZEFSAII (Michael W. Deem and Ramdas Pophale) SiO2 
 PCOD8319200
Probable space group: P 42/N C M
;
_chemical_formula_sum "Si O2"
_cell_formula_units_Z 92
_cell_length_a 19.467945
_cell_length_b 19.467945
_cell_length_c 14.227664
_cell_angle_alpha 90.000000
_cell_angle_beta 90.000000
_cell_angle_gamma 90.000000
_cell_volume 5392.297212
_symmetry_space_group_name_H-M "P 42/N C M"
_symmetry_group_IT_number 138
_space_group.IT_coordinate_system_code '2'
_symmetry_cell_setting 'tetragonal'
loop_
_space_group_symop_operation_xyz
x,y,z
1/2-y,x,1/2+z
1/2-x,1/2-y,z
y,1/2-x,1/2+z
1/2+x,-y,1/2-z
-x,1/2+y,1/2-z
1/2+y,1/2+x,-z
-y,-x,-z
-x,-y,-z
1/2+y,-x,1/2-z
1/2+x,1/2+y,-z
-y,1/2+x,1/2-z
1/2-x,y,1/2+z
x,1/2-y,1/2+z
1/2-y,1/2-x,z
y,x,z
loop_
_atom_site_type_symbol
_atom_site_label
_atom_site_fract_x
_atom_site_fract_y
_atom_site_fract_z
Si Si1 0.858106 0.641895 0.803073
Si Si2 0.189865 0.487435 0.312176
Si Si3 0.858106 0.641895 0.196900
Si Si4 0.942213 0.057789 0.888252
Si Si5 0.750000 0.750000 0.249987
Si Si6 0.189859 0.012567 0.187843
Si Si7 0.663156 0.663156 0.499988
Si Si8 0.590605 0.798422 0.499990
O O1 0.925092 0.667292 0.752204
O O2 0.799195 0.700806 0.810808
O O3 0.873912 0.626089 0.911709
O O4 0.127780 0.538224 0.335631
O O5 0.250003 0.524904 0.250010
O O6 0.215877 0.456871 0.410390
O O7 0.799196 0.700805 0.189167
O O8 0.832711 0.574906 0.247768
O O9 0.873913 0.626088 0.088264
O O10 0.872226 0.038218 0.835625
O O11 0.930807 0.069194 0.000000
O O12 0.000004 0.000004 0.871873
O O13 0.215878 0.043136 0.089635
O O14 0.652249 0.744890 0.499992
O O15 0.624134 0.875867 0.499992
#
# Coordination Sequence:
#
# PCOD8319200 Si02
#       8
#     8  16   8  16   4  16   8  16
#     4  12  22  31  49  78 120 168 206 232 283 360
#     4  12  23  38  56  85 123 159 203 259 304 354
#     4  12  22  31  49  78 120 168 206 232 283 360
#     4  11  22  38  66  93 118 159 219 266 305 360
#     4  12  20  34  48  80 128 178 204 226 280 380
#     4  12  23  38  56  85 123 159 203 259 304 354
#     4  12  23  28  46  79 122 172 194 223 286 381
#     4  12  21  31  52  81 121 164 206 235 279 355
#
# _framework density 17.061374000000001
#
# number of rings (size 3 to 8) (size 9 to 14) (size 15 to 20)
#    0.000    0.174   10.435    0.261    2.435    0.000 
#    0.000    0.000    0.000    5.739    0.000    1.217 
#    0.000    0.000    0.000    0.000    0.000    0.000 
#
# Total GULP energy -1140218.864538 kJ/mol
# GULP energy per Si atom -12393.683310 kJ/mol
# Density = 1.702254 g / cm^3
# Si number density = 17.061374 Si / 1000 Ang^3
#
#
#
# Elastic Constant Matrix: (Units=GPa)
#
#
# Indices 1 2 3 4 5 6 
#
# 1 81.1302 70.2595 51.8344 0.0000 0.0000 0.0000
# 2 70.2595 81.1314 51.8347 0.0000 0.0000 0.0000
# 3 51.8344 51.8347 159.7077 0.0000 0.0000 0.0000
# 4 0.0000 0.0000 0.0000 -19.4075 0.0000 0.0000
# 5 0.0000 0.0000 0.0000 0.0000 -19.4082 0.0000
# 6 0.0000 0.0000 0.0000 0.0000 0.0000 38.2798
#
#
#
# Elastic Compliance Matrix: (Units=1/GPa)
#
#
# Indices 1 2 3 4 5 6 
#
# 1 0.050240 -0.041746 -0.002757 0.000000 0.000000 0.000000
# 2 -0.041746 0.050239 -0.002756 0.000000 0.000000 0.000000
# 3 -0.002757 -0.002756 0.008051 0.000000 0.000000 0.000000
# 4 0.000000 0.000000 0.000000 -0.051526 0.000000 0.000000
# 5 0.000000 0.000000 0.000000 0.000000 -0.051525 0.000000
# 6 0.000000 0.000000 0.000000 0.000000 0.000000 0.026123
#
#
# Mechanical properties :
#
#
# Convention : Reuss Voigt Hill
#
# Bulk Modulus (GPa) = 71.37335 74.42517 72.89926
# Shear Modulus (GPa) = 38.22923 9.76218 23.99570
#
# Velocity S-wave (km/s) = 4.73873 2.39462 3.75431
# Velocity P-wave (km/s) = 8.47731 7.16675 7.84943
#
# Compressibility (1/GPa) = 0.01401083
#
# Stress axis : x y z
#
# Youngs Moduli (GPa) = 19.90465 19.90494 124.21240
#
# Poissons Ratio (x) = 0.83095 0.34239
# Poissons Ratio (y) = 0.83094 0.34239
# Poissons Ratio (z) = 0.05487 0.05487
#
# Static dielectric constant tensor:
#      x y z
#    x 3.289620 0.000000 0.000000 
#    y 0.000000 3.289630 0.000000 
#    z 0.000000 0.000000 3.590250 
# 
# 
# High freq. dielectric constant tensor:
#      x y z
#    x 1.627500 0.000000 0.000000 
#    y 0.000000 1.627500 0.000000 
#    z 0.000000 0.000000 1.684970 
# 
# From -- ./inp_files/4382.got.cif
#   From: 2010.03.12/outbox.cif.g09.slc.cpg/sg138_3_cif.got.tgz:4382.got - 2010.04.08 09:41:05.
