data_PCOD8319804
_publ_section_title
;
Structure prediction by ZEFSAII (Michael W. Deem and Ramdas Pophale) SiO2 
 PCOD8319804
Probable space group: I 4/M M M
;
_chemical_formula_sum "Si O2"
_cell_formula_units_Z 176
_cell_length_a 18.809789
_cell_length_b 18.809789
_cell_length_c 27.396493
_cell_angle_alpha 90.000000
_cell_angle_beta 90.000000
_cell_angle_gamma 90.000000
_cell_volume 9693.102840
_symmetry_space_group_name_H-M "I 4/M M M"
_symmetry_group_IT_number 139
_symmetry_cell_setting 'tetragonal'
loop_
_space_group_symop_operation_xyz
x,y,z
-y,x,z
-x,-y,z
y,-x,z
x,-y,-z
-x,y,-z
y,x,-z
-y,-x,-z
-x,-y,-z
y,-x,-z
x,y,-z
-y,x,-z
-x,y,z
x,-y,z
-y,-x,z
y,x,z
1/2+x,1/2+y,1/2+z
1/2-y,1/2+x,1/2+z
1/2-x,1/2-y,1/2+z
1/2+y,1/2-x,1/2+z
1/2+x,1/2-y,1/2-z
1/2-x,1/2+y,1/2-z
1/2+y,1/2+x,1/2-z
1/2-y,1/2-x,1/2-z
1/2-x,1/2-y,1/2-z
1/2+y,1/2-x,1/2-z
1/2+x,1/2+y,1/2-z
1/2-y,1/2+x,1/2-z
1/2-x,1/2+y,1/2+z
1/2+x,1/2-y,1/2+z
1/2-y,1/2-x,1/2+z
1/2+y,1/2+x,1/2+z
loop_
_atom_site_type_symbol
_atom_site_label
_atom_site_fract_x
_atom_site_fract_y
_atom_site_fract_z
Si Si1 0.082827 0.706921 0.909295
Si Si2 0.581234 0.773924 0.214827
Si Si3 0.079662 0.193715 0.618802
Si Si4 0.671502 0.081799 0.556851
Si Si5 0.417862 0.303605 0.500000
Si Si6 0.724774 0.842153 0.189550
O O1 0.105038 0.627510 0.924650
O O2 0.103845 0.759013 0.952796
O O3 0.122723 0.737837 0.862386
O O4 0.000000 0.705344 0.898046
O O5 0.500000 0.805330 0.215806
O O6 0.583799 0.709107 0.176602
O O7 0.639881 0.831555 0.197328
O O8 0.604083 0.746640 0.268559
O O9 0.126923 0.126923 0.604943
O O10 0.107553 0.260658 0.587761
O O11 0.000000 0.174909 0.602581
O O12 0.687210 0.094183 0.500000
O O13 0.653102 0.000000 0.568191
O O14 0.500000 0.322887 0.500000
O O15 0.377653 0.377653 0.500000
O O16 0.767171 0.767171 0.192942
#
# Coordination Sequence:
#
# PCOD8319804 Si02
#       6
#    32  32  32  32  16  32
#     4  11  22  36  55  83 113 141 178 227 273 319
#     4  10  20  34  53  79 109 139 180 228 265 315
#     4  10  20  35  55  80 110 144 185 230 274 321
#     4  10  21  37  55  78 110 150 189 222 268 327
#     4  10  22  39  57  81 109 139 178 224 276 330
#     4  11  21  35  57  80 107 147 186 217 271 332
#
# _framework density 18.157240000000002
#
# number of rings (size 3 to 8) (size 9 to 14) (size 15 to 20)
#    0.000    1.636    2.727    3.273    0.000    1.727 
#    0.000    0.909    0.000    8.727    0.000    2.545 
#    0.000   16.000    0.000    0.000    0.000    0.000 
#
# Total GULP energy -1091129.580197 kJ/mol
# GULP energy per Si atom -12399.199775 kJ/mol
# Density = 1.811591 g / cm^3
# Si number density = 18.157240 Si / 1000 Ang^3
#
#
#
# Elastic Constant Matrix: (Units=GPa)
#
#
# Indices 1 2 3 4 5 6 
#
# 1 81.7732 52.1298 38.2263 0.0000 0.0000 0.0000
# 2 52.1298 81.7732 38.2263 0.0000 0.0000 0.0000
# 3 38.2263 38.2263 131.4709 0.0000 0.0000 0.0000
# 4 0.0000 0.0000 0.0000 21.1359 0.0000 0.0000
# 5 0.0000 0.0000 0.0000 0.0000 21.1359 0.0000
# 6 0.0000 0.0000 0.0000 0.0000 0.0000 30.2149
#
#
#
# Elastic Compliance Matrix: (Units=1/GPa)
#
#
# Indices 1 2 3 4 5 6 
#
# 1 0.021344 -0.012390 -0.002604 0.000000 0.000000 0.000000
# 2 -0.012390 0.021344 -0.002604 0.000000 0.000000 0.000000
# 3 -0.002604 -0.002604 0.009120 0.000000 0.000000 0.000000
# 4 0.000000 0.000000 0.000000 0.047313 0.000000 0.000000
# 5 0.000000 0.000000 0.000000 0.000000 0.047313 0.000000
# 6 0.000000 0.000000 0.000000 0.000000 0.000000 0.033096
#
#
# Mechanical properties :
#
#
# Convention : Reuss Voigt Hill
#
# Bulk Modulus (GPa) = 60.18639 61.35355 60.76997
# Shear Modulus (GPa) = 22.70003 25.59299 24.14651
#
# Velocity S-wave (km/s) = 3.53964 3.75843 3.65067
# Velocity P-wave (km/s) = 7.06574 7.25933 7.16319
#
# Compressibility (1/GPa) = 0.01661505
#
# Stress axis : x y z
#
# Youngs Moduli (GPa) = 46.85048 46.85048 109.64536
#
# Poissons Ratio (x) = 0.58047 0.28548
# Poissons Ratio (y) = 0.58047 0.28548
# Poissons Ratio (z) = 0.12198 0.12198
#
# Static dielectric constant tensor:
#      x y z
#    x 3.232870 0.000000 0.000000 
#    y 0.000000 3.232870 0.000000 
#    z 0.000000 0.000000 3.668660 
# 
# 
# High freq. dielectric constant tensor:
#      x y z
#    x 1.689950 0.000000 0.000000 
#    y 0.000000 1.689950 0.000000 
#    z 0.000000 0.000000 1.726010 
# 
# From -- ./inp_files/13121.got.cif
#   From: 2010.03.12/outbox.cif.g09.slc.cpg/sg139_7_cif.got.tgz:13121.got - 2010.04.08 09:46:31.
