data_PCOD8319144
_publ_section_title
;
Structure prediction by ZEFSAII (Michael W. Deem and Ramdas Pophale) SiO2 
 PCOD8319144
Probable space group: P 42/N C M
;
_chemical_formula_sum "Si O2"
_cell_formula_units_Z 72
_cell_length_a 11.205921
_cell_length_b 11.205921
_cell_length_c 27.791501
_cell_angle_alpha 90.000000
_cell_angle_beta 90.000000
_cell_angle_gamma 90.000000
_cell_volume 3489.852858
_symmetry_space_group_name_H-M "P 42/N C M"
_symmetry_group_IT_number 138
_space_group.IT_coordinate_system_code '2'
_symmetry_cell_setting 'tetragonal'
loop_
_space_group_symop_operation_xyz
x,y,z
1/2-y,x,1/2+z
1/2-x,1/2-y,z
y,1/2-x,1/2+z
1/2+x,-y,1/2-z
-x,1/2+y,1/2-z
1/2+y,1/2+x,-z
-y,-x,-z
-x,-y,-z
1/2+y,-x,1/2-z
1/2+x,1/2+y,-z
-y,1/2+x,1/2-z
1/2-x,y,1/2+z
x,1/2-y,1/2+z
1/2-y,1/2-x,z
y,x,z
loop_
_atom_site_type_symbol
_atom_site_label
_atom_site_fract_x
_atom_site_fract_y
_atom_site_fract_z
Si Si1 0.649982 0.850019 0.979737
Si Si2 0.221403 0.889123 0.374871
Si Si3 0.656339 0.843662 0.788384
Si Si4 0.448646 0.051355 0.116012
Si Si5 0.435242 0.761024 0.732551
Si Si6 0.480274 0.679791 0.029256
O O1 0.750000 0.750000 0.981041
O O2 0.622635 0.877366 0.924520
O O3 0.530817 0.803036 0.006719
O O4 0.250000 0.750000 0.369255
O O5 0.251936 0.952018 0.324623
O O6 0.305527 0.944806 0.415402
O O7 0.086793 0.917266 0.389955
O O8 0.750000 0.750000 0.810061
O O9 0.591181 0.908820 0.831558
O O10 0.564381 0.772094 0.755403
O O11 0.376374 0.642264 0.753991
O O12 0.580407 0.580407 0.025881
O O13 0.362920 0.637081 0.000000
#
# Coordination Sequence:
#
# PCOD8319144 Si02
#       6
#     8  16   8   8  16  16
#     4  10  22  43  64  90 132 172 202 272 328 371
#     4  12  24  41  66  95 125 172 216 268 332 392
#     4  12  27  41  69 100 128 174 226 275 327 411
#     4  12  24  42  68  95 130 167 227 269 325 406
#     4  11  23  47  67  93 137 173 215 277 339 388
#     4  10  23  42  63  94 132 167 217 266 325 401
#
# _framework density 20.631240999999999
#
# number of rings (size 3 to 8) (size 9 to 14) (size 15 to 20)
#    0.000    0.889    4.444    2.333    4.667    4.000 
#    0.000    3.333    0.000    0.000    0.000    0.000 
#    0.000    0.000    0.000    0.000    0.000    0.000 
#
# Total GULP energy -893161.491904 kJ/mol
# GULP energy per Si atom -12405.020721 kJ/mol
# Density = 2.058428 g / cm^3
# Si number density = 20.631241 Si / 1000 Ang^3
#
#
#
# Elastic Constant Matrix: (Units=GPa)
#
#
# Indices 1 2 3 4 5 6 
#
# 1 65.5223 31.5761 15.4501 0.0000 0.0000 0.0000
# 2 31.5761 65.5206 15.4499 0.0000 0.0000 0.0000
# 3 15.4501 15.4499 139.3746 0.0000 0.0000 0.0000
# 4 0.0000 0.0000 0.0000 29.3915 0.0000 0.0000
# 5 0.0000 0.0000 0.0000 0.0000 29.3880 0.0000
# 6 0.0000 0.0000 0.0000 0.0000 0.0000 28.1866
#
#
#
# Elastic Compliance Matrix: (Units=1/GPa)
#
#
# Indices 1 2 3 4 5 6 
#
# 1 0.020067 -0.009392 -0.001183 0.000000 0.000000 0.000000
# 2 -0.009392 0.020068 -0.001183 0.000000 0.000000 0.000000
# 3 -0.001183 -0.001183 0.007437 0.000000 0.000000 0.000000
# 4 0.000000 0.000000 0.000000 0.034023 0.000000 0.000000
# 5 0.000000 0.000000 0.000000 0.000000 0.034028 0.000000
# 6 0.000000 0.000000 0.000000 0.000000 0.000000 0.035478
#
#
# Mechanical properties :
#
#
# Convention : Reuss Voigt Hill
#
# Bulk Modulus (GPa) = 41.57190 43.92995 42.75092
# Shear Modulus (GPa) = 27.37683 31.25597 29.31640
#
# Velocity S-wave (km/s) = 3.64670 3.89650 3.77367
# Velocity P-wave (km/s) = 6.15832 6.44847 6.30507
#
# Compressibility (1/GPa) = 0.02405471
#
# Stress axis : x y z
#
# Youngs Moduli (GPa) = 49.83294 49.83160 134.45788
#
# Poissons Ratio (x) = 0.46801 0.15912
# Poissons Ratio (y) = 0.46802 0.15912
# Poissons Ratio (z) = 0.05897 0.05897
#
# Static dielectric constant tensor:
#      x y z
#    x 3.823320 0.000000 0.000000 
#    y 0.000000 3.823330 0.000000 
#    z 0.000000 0.000000 3.904600 
# 
# 
# High freq. dielectric constant tensor:
#      x y z
#    x 1.810270 0.000000 0.000000 
#    y 0.000000 1.810270 0.000000 
#    z 0.000000 0.000000 1.822810 
# 
# From -- ./inp_files/7447.got.cif
#   From: 2010.03.12/outbox.cif.g09.slc.cpg/sg138_4_cif.got.tgz:7447.got - 2010.04.08 09:41:05.
