data_PCOD8319258
_publ_section_title
;
Structure prediction by ZEFSAII (Michael W. Deem and Ramdas Pophale) SiO2 
 PCOD8319258
Probable space group: I 4/M M M
;
_chemical_formula_sum "Si O2"
_cell_formula_units_Z 192
_cell_length_a 22.827680
_cell_length_b 22.827680
_cell_length_c 22.036769
_cell_angle_alpha 90.000000
_cell_angle_beta 90.000000
_cell_angle_gamma 90.000000
_cell_volume 11483.425867
_symmetry_space_group_name_H-M "I 4/M M M"
_symmetry_group_IT_number 139
_symmetry_cell_setting 'tetragonal'
loop_
_space_group_symop_operation_xyz
x,y,z
-y,x,z
-x,-y,z
y,-x,z
x,-y,-z
-x,y,-z
y,x,-z
-y,-x,-z
-x,-y,-z
y,-x,-z
x,y,-z
-y,x,-z
-x,y,z
x,-y,z
-y,-x,z
y,x,z
1/2+x,1/2+y,1/2+z
1/2-y,1/2+x,1/2+z
1/2-x,1/2-y,1/2+z
1/2+y,1/2-x,1/2+z
1/2+x,1/2-y,1/2-z
1/2-x,1/2+y,1/2-z
1/2+y,1/2+x,1/2-z
1/2-y,1/2-x,1/2-z
1/2-x,1/2-y,1/2-z
1/2+y,1/2-x,1/2-z
1/2+x,1/2+y,1/2-z
1/2-y,1/2+x,1/2-z
1/2-x,1/2+y,1/2+z
1/2+x,1/2-y,1/2+z
1/2-y,1/2-x,1/2+z
1/2+y,1/2+x,1/2+z
loop_
_atom_site_type_symbol
_atom_site_label
_atom_site_fract_x
_atom_site_fract_y
_atom_site_fract_z
Si Si1 0.835843 0.069362 0.000000
Si Si2 0.432291 0.137273 0.372728
Si Si3 0.430849 0.729796 0.378506
Si Si4 0.334938 0.067382 0.566916
Si Si5 0.162087 0.932220 0.760245
Si Si6 0.773602 0.432594 0.812811
Si Si7 0.620866 0.120866 0.750000
O O1 0.799100 0.089834 0.941406
O O2 0.898487 0.101514 0.000000
O O3 0.848261 0.000000 0.000000
O O4 0.500000 0.133104 0.391475
O O5 0.407931 0.203845 0.373083
O O6 0.394511 0.102919 0.422096
O O7 0.422670 0.108272 0.306279
O O8 0.500000 0.732032 0.375029
O O9 0.407892 0.691960 0.321774
O O10 0.310389 0.083070 0.500000
O O11 0.284318 0.081756 0.616177
O O12 0.353045 0.000000 0.571246
O O13 0.103258 0.896743 0.746813
O O14 0.205979 0.922215 0.703675
O O15 0.144411 0.000000 0.766829
O O16 0.791075 0.500000 0.797221
O O17 0.812732 0.389093 0.772270
#
# Coordination Sequence:
#
# PCOD8319258 Si02
#       7
#    16  32  32  32  32  32  16
#     4  10  20  33  50  72  97 127 165 203 243 295
#     4  10  19  30  48  71  98 133 171 209 250 294
#     4   9  18  32  49  70  96 131 171 202 235 290
#     4   9  19  33  49  70  96 130 171 211 252 298
#     4  10  19  33  54  78 103 129 159 201 251 302
#     4   9  17  31  50  71  98 131 167 206 247 291
#     4  10  16  28  49  69  94 128 168 210 242 289
#
# _framework density 16.719749
#
# number of rings (size 3 to 8) (size 9 to 14) (size 15 to 20)
#    0.000    2.500    1.667    1.000    1.167    1.583 
#    0.000    1.250    0.000    6.750    0.000    0.000 
#    0.000    0.000    0.000    6.500    0.000    0.000 
#
# Total GULP energy -1190100.488946 kJ/mol
# GULP energy per Si atom -12396.880093 kJ/mol
# Density = 1.668169 g / cm^3
# Si number density = 16.719749 Si / 1000 Ang^3
#
#
#
# Elastic Constant Matrix: (Units=GPa)
#
#
# Indices 1 2 3 4 5 6 
#
# 1 71.3245 47.5726 45.3067 0.0000 0.0000 0.0000
# 2 47.5726 71.3251 45.3069 0.0000 0.0000 0.0000
# 3 45.3067 45.3069 122.3435 0.0000 0.0000 0.0000
# 4 0.0000 0.0000 0.0000 16.5070 0.0000 0.0000
# 5 0.0000 0.0000 0.0000 0.0000 16.5069 0.0000
# 6 0.0000 0.0000 0.0000 0.0000 0.0000 20.1316
#
#
#
# Elastic Compliance Matrix: (Units=1/GPa)
#
#
# Indices 1 2 3 4 5 6 
#
# 1 0.026910 -0.015192 -0.004339 0.000000 0.000000 0.000000
# 2 -0.015192 0.026909 -0.004339 0.000000 0.000000 0.000000
# 3 -0.004339 -0.004339 0.011388 0.000000 0.000000 0.000000
# 4 0.000000 0.000000 0.000000 0.060581 0.000000 0.000000
# 5 0.000000 0.000000 0.000000 0.000000 0.060581 0.000000
# 6 0.000000 0.000000 0.000000 0.000000 0.000000 0.049673
#
#
# Mechanical properties :
#
#
# Convention : Reuss Voigt Hill
#
# Bulk Modulus (GPa) = 57.25525 60.15171 58.70348
# Shear Modulus (GPa) = 17.26496 19.08289 18.17393
#
# Velocity S-wave (km/s) = 3.21691 3.38204 3.30051
# Velocity P-wave (km/s) = 6.93660 7.16278 7.05060
#
# Compressibility (1/GPa) = 0.01746565
#
# Stress axis : x y z
#
# Youngs Moduli (GPa) = 37.16137 37.16169 87.81444
#
# Poissons Ratio (x) = 0.56455 0.38106
# Poissons Ratio (y) = 0.56455 0.38106
# Poissons Ratio (z) = 0.16126 0.16126
#
# Static dielectric constant tensor:
#      x y z
#    x 2.966770 0.000000 0.000000 
#    y 0.000000 2.966770 0.000000 
#    z 0.000000 0.000000 3.420440 
# 
# 
# High freq. dielectric constant tensor:
#      x y z
#    x 1.621550 0.000000 0.000000 
#    y 0.000000 1.621550 0.000000 
#    z 0.000000 0.000000 1.652340 
# 
# From -- ./inp_files/10617.got.cif
#   From: 2010.03.12/outbox.cif.g09.slc.cpg/sg139_6_cif.got.tgz:10617.got - 2010.04.08 09:46:31.
