data_PCOD8319370
_publ_section_title
;
Structure prediction by ZEFSAII (Michael W. Deem and Ramdas Pophale) SiO2 
 PCOD8319370
Probable space group: I 4/M M M
;
_chemical_formula_sum "Si O2"
_cell_formula_units_Z 144
_cell_length_a 28.926450
_cell_length_b 28.926450
_cell_length_c 10.002115
_cell_angle_alpha 90.000000
_cell_angle_beta 90.000000
_cell_angle_gamma 90.000000
_cell_volume 8369.164800
_symmetry_space_group_name_H-M "I 4/M M M"
_symmetry_group_IT_number 139
_symmetry_cell_setting 'tetragonal'
loop_
_space_group_symop_operation_xyz
x,y,z
-y,x,z
-x,-y,z
y,-x,z
x,-y,-z
-x,y,-z
y,x,-z
-y,-x,-z
-x,-y,-z
y,-x,-z
x,y,-z
-y,x,-z
-x,y,z
x,-y,z
-y,-x,z
y,x,z
1/2+x,1/2+y,1/2+z
1/2-y,1/2+x,1/2+z
1/2-x,1/2-y,1/2+z
1/2+y,1/2-x,1/2+z
1/2+x,1/2-y,1/2-z
1/2-x,1/2+y,1/2-z
1/2+y,1/2+x,1/2-z
1/2-y,1/2-x,1/2-z
1/2-x,1/2-y,1/2-z
1/2+y,1/2-x,1/2-z
1/2+x,1/2+y,1/2-z
1/2-y,1/2+x,1/2-z
1/2-x,1/2+y,1/2+z
1/2+x,1/2-y,1/2+z
1/2-y,1/2-x,1/2+z
1/2+y,1/2+x,1/2+z
loop_
_atom_site_type_symbol
_atom_site_label
_atom_site_fract_x
_atom_site_fract_y
_atom_site_fract_z
Si Si1 0.364954 0.238536 0.000000
Si Si2 0.289554 0.055107 0.000000
Si Si3 0.910128 0.834612 0.500000
Si Si4 0.268531 0.807869 0.000000
Si Si5 0.124355 0.303593 0.779699
Si Si6 0.627886 0.552813 0.748466
Si Si7 0.445253 0.316126 0.500000
O O1 0.374938 0.292456 0.000000
O O2 0.310231 0.229150 0.000000
O O3 0.387890 0.218628 0.863989
O O4 0.311479 0.077452 0.865606
O O5 0.236358 0.071469 0.000000
O O6 0.297321 0.000000 0.000000
O O7 0.880653 0.880653 0.500000
O O8 0.943289 0.836632 0.628246
O O9 0.272516 0.839345 0.133554
O O10 0.219938 0.780063 0.000000
O O11 0.146308 0.353693 0.750000
O O12 0.613517 0.500000 0.724346
O O13 0.580536 0.580536 0.768045
O O14 0.656822 0.574367 0.626963
O O15 0.500000 0.316385 0.500000
#
# Coordination Sequence:
#
# PCOD8319370 Si02
#       7
#    16  16  16  16  32  32  16
#     4  10  18  30  48  68  94 129 166 204 254 299
#     4  10  19  35  56  76 103 143 177 194 234 302
#     4  10  20  30  42  62  86 112 148 194 240 295
#     4   9  18  31  47  70 103 142 177 207 250 308
#     4   9  19  33  50  75 106 136 168 214 255 287
#     4  10  20  34  49  65  86 113 150 202 261 311
#     4   9  18  32  50  70  92 117 151 193 230 279
#
# _framework density 17.206019000000001
#
# number of rings (size 3 to 8) (size 9 to 14) (size 15 to 20)
#    0.000    2.444    0.000    3.000    0.000    5.111 
#    0.000    8.333    0.000    4.000    0.000    0.000 
#    0.000    1.333    0.000    0.000    0.000    0.000 
#
# Total GULP energy -892419.214563 kJ/mol
# GULP energy per Si atom -12394.711313 kJ/mol
# Density = 1.716686 g / cm^3
# Si number density = 17.206019 Si / 1000 Ang^3
#
#
#
# Elastic Constant Matrix: (Units=GPa)
#
#
# Indices 1 2 3 4 5 6 
#
# 1 79.1734 33.5864 38.1169 0.0000 0.0000 0.0000
# 2 33.5864 79.1727 38.1164 0.0000 0.0000 0.0000
# 3 38.1169 38.1164 156.7593 0.0000 0.0000 0.0000
# 4 0.0000 0.0000 0.0000 19.4326 0.0000 0.0000
# 5 0.0000 0.0000 0.0000 0.0000 19.4337 0.0000
# 6 0.0000 0.0000 0.0000 0.0000 0.0000 20.5842
#
#
#
# Elastic Compliance Matrix: (Units=1/GPa)
#
#
# Indices 1 2 3 4 5 6 
#
# 1 0.016275 -0.005662 -0.002581 0.000000 0.000000 0.000000
# 2 -0.005662 0.016275 -0.002581 0.000000 0.000000 0.000000
# 3 -0.002581 -0.002581 0.007634 0.000000 0.000000 0.000000
# 4 0.000000 0.000000 0.000000 0.051460 0.000000 0.000000
# 5 0.000000 0.000000 0.000000 0.000000 0.051457 0.000000
# 6 0.000000 0.000000 0.000000 0.000000 0.000000 0.048581
#
#
# Mechanical properties :
#
#
# Convention : Reuss Voigt Hill
#
# Bulk Modulus (GPa) = 53.94346 59.41610 56.67978
# Shear Modulus (GPa) = 22.77840 25.57583 24.17712
#
# Velocity S-wave (km/s) = 3.64244 3.85963 3.75261
# Velocity P-wave (km/s) = 7.00781 7.38034 7.19649
#
# Compressibility (1/GPa) = 0.01853793
#
# Stress axis : x y z
#
# Youngs Moduli (GPa) = 61.44541 61.44497 130.98976
#
# Poissons Ratio (x) = 0.34787 0.33804
# Poissons Ratio (y) = 0.34788 0.33803
# Poissons Ratio (z) = 0.15857 0.15857
#
# Static dielectric constant tensor:
#      x y z
#    x 2.974250 0.000000 0.000000 
#    y 0.000000 2.974260 0.000000 
#    z 0.000000 0.000000 3.664880 
# 
# 
# High freq. dielectric constant tensor:
#      x y z
#    x 1.637670 0.000000 0.000000 
#    y 0.000000 1.637670 0.000000 
#    z 0.000000 0.000000 1.689490 
# 
# From -- ./inp_files/3815.got.cif
#   From: 2010.03.12/outbox.cif.g09.slc.cpg/sg139_2_cif.got.tgz:3815.got - 2010.04.08 09:46:31.
