data_PCOD8319225
_publ_section_title
;
Structure prediction by ZEFSAII (Michael W. Deem and Ramdas Pophale) SiO2 
 PCOD8319225
Probable space group: P 42/N C M
;
_chemical_formula_sum "Si O2"
_cell_formula_units_Z 64
_cell_length_a 10.390086
_cell_length_b 10.390086
_cell_length_c 27.159073
_cell_angle_alpha 90.000000
_cell_angle_beta 90.000000
_cell_angle_gamma 90.000000
_cell_volume 2931.927500
_symmetry_space_group_name_H-M "P 42/N C M"
_symmetry_group_IT_number 138
_space_group.IT_coordinate_system_code '2'
_symmetry_cell_setting 'tetragonal'
loop_
_space_group_symop_operation_xyz
x,y,z
1/2-y,x,1/2+z
1/2-x,1/2-y,z
y,1/2-x,1/2+z
1/2+x,-y,1/2-z
-x,1/2+y,1/2-z
1/2+y,1/2+x,-z
-y,-x,-z
-x,-y,-z
1/2+y,-x,1/2-z
1/2+x,1/2+y,-z
-y,1/2+x,1/2-z
1/2-x,y,1/2+z
x,1/2-y,1/2+z
1/2-y,1/2-x,z
y,x,z
loop_
_atom_site_type_symbol
_atom_site_label
_atom_site_fract_x
_atom_site_fract_y
_atom_site_fract_z
Si Si1 0.959556 0.746270 0.451372
Si Si2 0.660799 0.141078 0.370475
Si Si3 0.242959 0.045049 0.441143
Si Si4 0.617397 0.409881 0.764848
O O1 0.893500 0.606501 0.446625
O O2 0.858479 0.858479 0.441302
O O3 0.025228 0.764319 0.505336
O O4 0.066001 0.751311 0.408999
O O5 0.750000 0.250000 0.346616
O O6 0.541332 0.204348 0.397944
O O7 0.614571 0.060380 0.323587
O O8 0.336247 0.163754 0.450659
O O9 0.101997 0.101997 0.426826
O O10 0.762965 0.431664 0.744753
O O11 0.515489 0.515489 0.742230
#
# Coordination Sequence:
#
# PCOD8319225 Si02
#       4
#    16  16  16  16
#     4   9  19  36  58  88 126 168 215 258 301 370
#     4  12  23  38  61  89 127 167 207 265 328 382
#     4   9  19  36  58  88 126 168 215 258 301 370
#     4  11  25  49  72  99 132 168 219 283 344 409
#
# _framework density 21.828644000000001
#
# number of rings (size 3 to 8) (size 9 to 14) (size 15 to 20)
#    0.000    1.750    2.500    4.500    0.000    7.500 
#    0.000    2.500    0.000    0.000    0.000    0.000 
#    0.000    0.000    0.000    0.000    0.000    0.000 
#
# Total GULP energy -793125.404991 kJ/mol
# GULP energy per Si atom -12392.584453 kJ/mol
# Density = 2.177896 g / cm^3
# Si number density = 21.828644 Si / 1000 Ang^3
#
#
#
# Elastic Constant Matrix: (Units=GPa)
#
#
# Indices 1 2 3 4 5 6 
#
# 1 73.3645 24.3171 16.2893 0.0000 0.0000 0.0000
# 2 24.3171 73.3645 16.2893 0.0000 0.0000 0.0000
# 3 16.2893 16.2893 118.7004 0.0000 0.0000 0.0000
# 4 0.0000 0.0000 0.0000 12.4785 0.0000 0.0000
# 5 0.0000 0.0000 0.0000 0.0000 12.4785 0.0000
# 6 0.0000 0.0000 0.0000 0.0000 0.0000 40.1261
#
#
#
# Elastic Compliance Matrix: (Units=1/GPa)
#
#
# Indices 1 2 3 4 5 6 
#
# 1 0.015558 -0.004830 -0.001472 0.000000 0.000000 0.000000
# 2 -0.004830 0.015558 -0.001472 0.000000 0.000000 0.000000
# 3 -0.001472 -0.001472 0.008829 0.000000 0.000000 0.000000
# 4 0.000000 0.000000 0.000000 0.080138 0.000000 0.000000
# 5 0.000000 0.000000 0.000000 0.000000 0.080138 0.000000
# 6 0.000000 0.000000 0.000000 0.000000 0.000000 0.024921
#
#
# Mechanical properties :
#
#
# Convention : Reuss Voigt Hill
#
# Bulk Modulus (GPa) = 40.98971 42.13561 41.56266
# Shear Modulus (GPa) = 20.09459 26.91888 23.50674
#
# Velocity S-wave (km/s) = 3.03737 3.51549 3.28514
# Velocity P-wave (km/s) = 5.57849 5.98524 5.78544
#
# Compressibility (1/GPa) = 0.02439637
#
# Stress axis : x y z
#
# Youngs Moduli (GPa) = 64.27396 64.27396 113.26764
#
# Poissons Ratio (x) = 0.31045 0.16676
# Poissons Ratio (y) = 0.31045 0.16676
# Poissons Ratio (z) = 0.09463 0.09463
#
# Static dielectric constant tensor:
#      x y z
#    x 4.073580 0.000000 0.000000 
#    y 0.000000 4.073580 0.000000 
#    z 0.000000 0.000000 3.817480 
# 
# 
# High freq. dielectric constant tensor:
#      x y z
#    x 1.854970 0.000000 0.000000 
#    y 0.000000 1.854970 0.000000 
#    z 0.000000 0.000000 1.854890 
# 
# From -- ./inp_files/6742.got.cif
#   From: 2010.03.12/outbox.cif.g09.slc.cpg/sg138_4_cif.got.tgz:6742.got - 2010.04.08 09:41:05.
