data_PCOD8319765
_publ_section_title
;
Structure prediction by ZEFSAII (Michael W. Deem and Ramdas Pophale) SiO2 
 PCOD8319765
Probable space group: I 4/M M M
;
_chemical_formula_sum "Si O2"
_cell_formula_units_Z 240
_cell_length_a 20.570522
_cell_length_b 20.570522
_cell_length_c 29.199980
_cell_angle_alpha 90.000000
_cell_angle_beta 90.000000
_cell_angle_gamma 90.000000
_cell_volume 12355.865697
_symmetry_space_group_name_H-M "I 4/M M M"
_symmetry_group_IT_number 139
_symmetry_cell_setting 'tetragonal'
loop_
_space_group_symop_operation_xyz
x,y,z
-y,x,z
-x,-y,z
y,-x,z
x,-y,-z
-x,y,-z
y,x,-z
-y,-x,-z
-x,-y,-z
y,-x,-z
x,y,-z
-y,x,-z
-x,y,z
x,-y,z
-y,-x,z
y,x,z
1/2+x,1/2+y,1/2+z
1/2-y,1/2+x,1/2+z
1/2-x,1/2-y,1/2+z
1/2+y,1/2-x,1/2+z
1/2+x,1/2-y,1/2-z
1/2-x,1/2+y,1/2-z
1/2+y,1/2+x,1/2-z
1/2-y,1/2-x,1/2-z
1/2-x,1/2-y,1/2-z
1/2+y,1/2-x,1/2-z
1/2+x,1/2+y,1/2-z
1/2-y,1/2+x,1/2-z
1/2-x,1/2+y,1/2+z
1/2+x,1/2-y,1/2+z
1/2-y,1/2-x,1/2+z
1/2+y,1/2+x,1/2+z
loop_
_atom_site_type_symbol
_atom_site_label
_atom_site_fract_x
_atom_site_fract_y
_atom_site_fract_z
Si Si1 0.323675 0.571972 0.124166
Si Si2 0.819068 0.427375 0.354031
Si Si3 0.429177 0.000000 0.446792
Si Si4 0.883706 0.780887 0.721853
Si Si5 0.574653 0.679960 0.318034
Si Si6 0.140562 0.608106 0.448592
Si Si7 0.363077 0.077321 0.291523
Si Si8 0.641143 0.253917 0.050652
O O1 0.348780 0.500000 0.116958
O O2 0.383805 0.616196 0.110717
O O3 0.299767 0.580585 0.175473
O O4 0.265076 0.586159 0.088854
O O5 0.825921 0.500000 0.333961
O O6 0.748526 0.399861 0.339101
O O7 0.820769 0.430890 0.409547
O O8 0.879837 0.385126 0.335289
O O9 0.389979 0.064657 0.433857
O O10 0.500000 0.000000 0.421801
O O11 0.442102 0.000000 0.500000
O O12 0.808799 0.808799 0.721035
O O13 0.921899 0.815036 0.763185
O O14 0.890199 0.703580 0.726943
O O15 0.500000 0.665091 0.332665
O O16 0.621682 0.621682 0.335680
O O17 0.150481 0.577757 0.500000
O O18 0.166732 0.680874 0.447626
O O19 0.414393 0.085608 0.250000
O O20 0.356901 0.000000 0.303958
O O21 0.703828 0.296173 0.062783
O O22 0.613065 0.270108 0.000000
#
# Coordination Sequence:
#
# PCOD8319765 Si02
#       8
#    32  32  16  32  32  32  32  32
#     4  10  20  33  52  76 103 139 178 223 279 335
#     4  11  24  39  56  82 116 155 195 236 285 341
#     4   9  18  32  50  76 108 138 175 225 275 329
#     4  10  21  38  60  83 111 145 187 239 294 345
#     4  10  21  39  62  89 120 152 190 239 293 351
#     4  10  21  36  57  81 106 144 187 235 290 339
#     4  12  24  38  57  81 115 158 203 243 284 339
#     4   9  19  35  53  76 105 135 176 230 281 333
#
# _framework density 19.423973
#
# number of rings (size 3 to 8) (size 9 to 14) (size 15 to 20)
#    0.000    1.800    1.333    2.800    1.867    3.600 
#    0.000    0.000    0.000    2.400    0.000    1.867 
#    0.000    0.000    0.000    2.933    0.000    0.000 
#
# Total GULP energy -1487299.037480 kJ/mol
# GULP energy per Si atom -12394.158646 kJ/mol
# Density = 1.937976 g / cm^3
# Si number density = 19.423973 Si / 1000 Ang^3
#
#
#
# Elastic Constant Matrix: (Units=GPa)
#
#
# Indices 1 2 3 4 5 6 
#
# 1 100.3719 47.5335 27.2014 0.0000 0.0000 0.0000
# 2 47.5335 100.3731 27.2011 0.0000 0.0000 0.0000
# 3 27.2014 27.2011 81.5700 0.0000 0.0000 0.0000
# 4 0.0000 0.0000 0.0000 16.9318 0.0000 0.0000
# 5 0.0000 0.0000 0.0000 0.0000 16.9319 0.0000
# 6 0.0000 0.0000 0.0000 0.0000 0.0000 18.0886
#
#
#
# Elastic Compliance Matrix: (Units=1/GPa)
#
#
# Indices 1 2 3 4 5 6 
#
# 1 0.013316 -0.005610 -0.002570 0.000000 0.000000 0.000000
# 2 -0.005610 0.013316 -0.002570 0.000000 0.000000 0.000000
# 3 -0.002570 -0.002570 0.013973 0.000000 0.000000 0.000000
# 4 0.000000 0.000000 0.000000 0.059061 0.000000 0.000000
# 5 0.000000 0.000000 0.000000 0.000000 0.059060 0.000000
# 6 0.000000 0.000000 0.000000 0.000000 0.000000 0.055284
#
#
# Mechanical properties :
#
#
# Convention : Reuss Voigt Hill
#
# Bulk Modulus (GPa) = 52.33794 54.02077 53.17936
# Shear Modulus (GPa) = 20.67171 22.41572 21.54372
#
# Velocity S-wave (km/s) = 3.26580 3.40078 3.33397
# Velocity P-wave (km/s) = 6.42060 6.57968 6.50063
#
# Compressibility (1/GPa) = 0.01910660
#
# Stress axis : x y z
#
# Youngs Moduli (GPa) = 75.09792 75.09911 71.56488
#
# Poissons Ratio (x) = 0.42127 0.18391
# Poissons Ratio (y) = 0.42127 0.18390
# Poissons Ratio (z) = 0.19299 0.19299
#
# Static dielectric constant tensor:
#      x y z
#    x 3.512740 0.000000 0.000000 
#    y 0.000000 3.512740 0.000000 
#    z 0.000000 0.000000 3.661390 
# 
# 
# High freq. dielectric constant tensor:
#      x y z
#    x 1.745760 0.000000 0.000000 
#    y 0.000000 1.745760 0.000000 
#    z 0.000000 0.000000 1.757760 
# 
# From -- ./inp_files/14661.got.cif
#   From: 2010.03.12/outbox.cif.g09.slc.cpg/sg139_8_cif.got.tgz:14661.got - 2010.04.08 09:46:31.
