data_PCOD8319980
_publ_section_title
;
Structure prediction by ZEFSAII (Michael W. Deem and Ramdas Pophale) SiO2 
 PCOD8319980
Probable space group: I 4/M M M
;
_chemical_formula_sum "Si O2"
_cell_formula_units_Z 160
_cell_length_a 23.928332
_cell_length_b 23.928332
_cell_length_c 14.369241
_cell_angle_alpha 90.000000
_cell_angle_beta 90.000000
_cell_angle_gamma 90.000000
_cell_volume 8227.325512
_symmetry_space_group_name_H-M "I 4/M M M"
_symmetry_group_IT_number 139
_symmetry_cell_setting 'tetragonal'
loop_
_space_group_symop_operation_xyz
x,y,z
-y,x,z
-x,-y,z
y,-x,z
x,-y,-z
-x,y,-z
y,x,-z
-y,-x,-z
-x,-y,-z
y,-x,-z
x,y,-z
-y,x,-z
-x,y,z
x,-y,z
-y,-x,z
y,x,z
1/2+x,1/2+y,1/2+z
1/2-y,1/2+x,1/2+z
1/2-x,1/2-y,1/2+z
1/2+y,1/2-x,1/2+z
1/2+x,1/2-y,1/2-z
1/2-x,1/2+y,1/2-z
1/2+y,1/2+x,1/2-z
1/2-y,1/2-x,1/2-z
1/2-x,1/2-y,1/2-z
1/2+y,1/2-x,1/2-z
1/2+x,1/2+y,1/2-z
1/2-y,1/2+x,1/2-z
1/2-x,1/2+y,1/2+z
1/2+x,1/2-y,1/2+z
1/2-y,1/2-x,1/2+z
1/2+y,1/2+x,1/2+z
loop_
_atom_site_type_symbol
_atom_site_label
_atom_site_fract_x
_atom_site_fract_y
_atom_site_fract_z
Si Si1 0.063302 0.152137 0.894691
Si Si2 0.830369 0.622592 0.602644
Si Si3 0.342034 0.749935 0.892017
Si Si4 0.934559 0.251657 0.241623
Si Si5 0.062278 0.562585 0.359873
O O1 0.098843 0.098843 0.865838
O O2 0.079628 0.201889 0.827664
O O3 0.000000 0.133297 0.881502
O O4 0.075501 0.171783 0.000000
O O5 0.804584 0.609569 0.500000
O O6 0.819505 0.687513 0.626736
O O7 0.806494 0.584189 0.685167
O O8 0.896264 0.608727 0.597466
O O9 0.293879 0.706122 0.861166
O O10 0.398977 0.740924 0.834454
O O11 0.357409 0.741675 0.000000
O O12 0.000000 0.256228 0.267477
O O13 0.078363 0.500000 0.394300
O O14 0.064615 0.564615 0.250000
O O15 0.000000 0.577858 0.394726
#
# Coordination Sequence:
#
# PCOD8319980 Si02
#       5
#    32  32  32  32  32
#     4   9  18  32  51  78 110 142 176 212 256 318
#     4  11  23  36  53  79 110 145 185 228 273 326
#     4  10  23  42  61  82 108 142 189 240 287 337
#     4  11  22  36  57  82 110 144 179 223 280 335
#     4   9  18  33  52  74 104 144 188 232 277 326
#
# _framework density 19.447389000000001
#
# number of rings (size 3 to 8) (size 9 to 14) (size 15 to 20)
#    0.000    2.000    0.000    4.200    0.000    8.200 
#    0.000    6.000    0.000    0.000    0.000    0.000 
#    0.000    0.000    0.000   18.600    0.000    0.400 
#
# Total GULP energy -991869.259209 kJ/mol
# GULP energy per Si atom -12398.365740 kJ/mol
# Density = 1.940313 g / cm^3
# Si number density = 19.447389 Si / 1000 Ang^3
#
#
#
# Elastic Constant Matrix: (Units=GPa)
#
#
# Indices 1 2 3 4 5 6 
#
# 1 101.2137 62.1562 44.5011 0.0000 0.0000 0.0000
# 2 62.1562 101.2137 44.5011 0.0000 0.0000 0.0000
# 3 44.5011 44.5011 79.9818 0.0000 0.0000 0.0000
# 4 0.0000 0.0000 0.0000 17.3129 0.0000 0.0000
# 5 0.0000 0.0000 0.0000 0.0000 17.3129 0.0000
# 6 0.0000 0.0000 0.0000 0.0000 0.0000 30.7032
#
#
#
# Elastic Compliance Matrix: (Units=1/GPa)
#
#
# Indices 1 2 3 4 5 6 
#
# 1 0.017193 -0.008410 -0.004887 0.000000 0.000000 0.000000
# 2 -0.008410 0.017193 -0.004887 0.000000 0.000000 0.000000
# 3 -0.004887 -0.004887 0.017941 0.000000 0.000000 0.000000
# 4 0.000000 0.000000 0.000000 0.057760 0.000000 0.000000
# 5 0.000000 0.000000 0.000000 0.000000 0.057760 0.000000
# 6 0.000000 0.000000 0.000000 0.000000 0.000000 0.032570
#
#
# Mechanical properties :
#
#
# Convention : Reuss Voigt Hill
#
# Bulk Modulus (GPa) = 62.65725 64.96955 63.81340
# Shear Modulus (GPa) = 20.65210 21.81587 21.23398
#
# Velocity S-wave (km/s) = 3.26229 3.35295 3.30793
# Velocity P-wave (km/s) = 6.81754 6.96204 6.89017
#
# Compressibility (1/GPa) = 0.01595985
#
# Stress axis : x y z
#
# Youngs Moduli (GPa) = 58.16198 58.16198 55.73804
#
# Poissons Ratio (x) = 0.48913 0.27239
# Poissons Ratio (y) = 0.48913 0.27239
# Poissons Ratio (z) = 0.28424 0.28424
#
# Static dielectric constant tensor:
#      x y z
#    x 3.620070 0.000000 0.000000 
#    y 0.000000 3.620070 0.000000 
#    z 0.000000 0.000000 3.608400 
# 
# 
# High freq. dielectric constant tensor:
#      x y z
#    x 1.752750 0.000000 0.000000 
#    y 0.000000 1.752750 0.000000 
#    z 0.000000 0.000000 1.761830 
# 
# From -- ./inp_files/5920.got.cif
#   From: 2010.03.12/outbox.cif.g09.slc.cpg/sg139_3_cif.got.tgz:5920.got - 2010.04.08 09:46:31.
