data_PCOD8319594
_publ_section_title
;
Structure prediction by ZEFSAII (Michael W. Deem and Ramdas Pophale) SiO2 
 PCOD8319594
Probable space group: I 4/M M M
;
_chemical_formula_sum "Si O2"
_cell_formula_units_Z 160
_cell_length_a 31.989915
_cell_length_b 31.989915
_cell_length_c 7.832503
_cell_angle_alpha 90.000000
_cell_angle_beta 90.000000
_cell_angle_gamma 90.000000
_cell_volume 8015.428458
_symmetry_space_group_name_H-M "I 4/M M M"
_symmetry_group_IT_number 139
_symmetry_cell_setting 'tetragonal'
loop_
_space_group_symop_operation_xyz
x,y,z
-y,x,z
-x,-y,z
y,-x,z
x,-y,-z
-x,y,-z
y,x,-z
-y,-x,-z
-x,-y,-z
y,-x,-z
x,y,-z
-y,x,-z
-x,y,z
x,-y,z
-y,-x,z
y,x,z
1/2+x,1/2+y,1/2+z
1/2-y,1/2+x,1/2+z
1/2-x,1/2-y,1/2+z
1/2+y,1/2-x,1/2+z
1/2+x,1/2-y,1/2-z
1/2-x,1/2+y,1/2-z
1/2+y,1/2+x,1/2-z
1/2-y,1/2-x,1/2-z
1/2-x,1/2-y,1/2-z
1/2+y,1/2-x,1/2-z
1/2+x,1/2+y,1/2-z
1/2-y,1/2+x,1/2-z
1/2-x,1/2+y,1/2+z
1/2+x,1/2-y,1/2+z
1/2-y,1/2-x,1/2+z
1/2+y,1/2+x,1/2+z
loop_
_atom_site_type_symbol
_atom_site_label
_atom_site_fract_x
_atom_site_fract_y
_atom_site_fract_z
Si Si1 0.047443 0.047443 0.296995
Si Si2 0.549204 0.742663 0.500000
Si Si3 0.450882 0.889189 0.809391
Si Si4 0.209569 0.100105 0.304416
Si Si5 0.748273 0.183956 0.199636
Si Si6 0.614644 0.385357 0.800357
Si Si7 0.664978 0.950217 0.000000
O O1 0.048773 0.048773 0.500000
O O2 0.081145 0.081145 0.220074
O O3 0.000000 0.058803 0.235686
O O4 0.500000 0.741181 0.500000
O O5 0.563909 0.723024 0.323173
O O6 0.567842 0.789014 0.500000
O O7 0.500000 0.892371 0.802233
O O8 0.434121 0.934121 0.750000
O O9 0.432967 0.855965 0.673465
O O10 0.435778 0.876811 0.000000
O O11 0.211771 0.084155 0.500000
O O12 0.239362 0.140833 0.291654
O O13 0.162104 0.107125 0.243904
O O14 0.782199 0.217802 0.260413
O O15 0.702225 0.202225 0.250000
O O16 0.750156 0.175324 0.000000
O O17 0.610129 0.389872 0.000000
O O18 0.663575 0.000000 0.000000
#
# Coordination Sequence:
#
# PCOD8319594 Si02
#       7
#    16  16  32  32  32  16  16
#     4   8  14  27  49  80 121 166 210 259 314 367
#     4  11  26  45  63  84 116 159 211 267 312 360
#     4  10  19  32  56  86 115 150 190 234 292 360
#     4  11  22  39  64  93 125 162 205 254 315 380
#     4  10  19  33  59  91 126 165 200 244 304 383
#     4   9  19  33  57  90 127 165 203 251 305 373
#     4   9  20  40  58  75 106 150 196 242 292 346
#
# _framework density 19.961504000000001
#
# number of rings (size 3 to 8) (size 9 to 14) (size 15 to 20)
#    0.000    2.100    3.000    0.900    0.000    3.400 
#    0.000    6.000    0.000    0.000    0.000    0.000 
#    0.000    2.400    0.000    0.200    0.000    0.000 
#
# Total GULP energy -991409.198752 kJ/mol
# GULP energy per Si atom -12392.614984 kJ/mol
# Density = 1.991607 g / cm^3
# Si number density = 19.961504 Si / 1000 Ang^3
#
#
#
# Elastic Constant Matrix: (Units=GPa)
#
#
# Indices 1 2 3 4 5 6 
#
# 1 103.1883 53.5346 44.9664 0.0000 0.0000 0.0000
# 2 53.5346 103.1883 44.9663 0.0000 0.0000 0.0000
# 3 44.9664 44.9663 143.0040 0.0000 0.0000 0.0000
# 4 0.0000 0.0000 0.0000 11.0440 0.0000 0.0000
# 5 0.0000 0.0000 0.0000 0.0000 11.0441 0.0000
# 6 0.0000 0.0000 0.0000 0.0000 0.0000 35.8113
#
#
#
# Elastic Compliance Matrix: (Units=1/GPa)
#
#
# Indices 1 2 3 4 5 6 
#
# 1 0.013962 -0.006177 -0.002448 0.000000 0.000000 0.000000
# 2 -0.006177 0.013962 -0.002448 0.000000 0.000000 0.000000
# 3 -0.002448 -0.002448 0.008532 0.000000 0.000000 0.000000
# 4 0.000000 0.000000 0.000000 0.090547 0.000000 0.000000
# 5 0.000000 0.000000 0.000000 0.000000 0.090546 0.000000
# 6 0.000000 0.000000 0.000000 0.000000 0.000000 0.027924
#
#
# Mechanical properties :
#
#
# Convention : Reuss Voigt Hill
#
# Bulk Modulus (GPa) = 69.87626 70.70170 70.28898
# Shear Modulus (GPa) = 18.35595 25.30743 21.83169
#
# Velocity S-wave (km/s) = 3.03573 3.56450 3.31069
# Velocity P-wave (km/s) = 6.88252 7.24132 7.06420
#
# Compressibility (1/GPa) = 0.01431101
#
# Stress axis : x y z
#
# Youngs Moduli (GPa) = 71.62055 71.62055 117.20088
#
# Poissons Ratio (x) = 0.44240 0.28692
# Poissons Ratio (y) = 0.44240 0.28692
# Poissons Ratio (z) = 0.17533 0.17533
#
# Static dielectric constant tensor:
#      x y z
#    x 3.669980 0.000000 0.000000 
#    y 0.000000 3.669950 0.000000 
#    z 0.000000 0.000000 3.926950 
# 
# 
# High freq. dielectric constant tensor:
#      x y z
#    x 1.768130 0.000000 0.000000 
#    y 0.000000 1.768130 0.000000 
#    z 0.000000 0.000000 1.783300 
# 
# From -- ./inp_files/2319.got.cif
#   From: 2010.03.12/outbox.cif.g09.slc.cpg/sg139_2_cif.got.tgz:2319.got - 2010.04.08 09:46:31.
