data_PCOD8319507
_publ_section_title
;
Structure prediction by ZEFSAII (Michael W. Deem and Ramdas Pophale) SiO2 
 PCOD8319507
Probable space group: I 4/M M M
;
_chemical_formula_sum "Si O2"
_cell_formula_units_Z 208
_cell_length_a 28.179936
_cell_length_b 28.179936
_cell_length_c 15.709506
_cell_angle_alpha 90.000000
_cell_angle_beta 90.000000
_cell_angle_gamma 90.000000
_cell_volume 12475.056848
_symmetry_space_group_name_H-M "I 4/M M M"
_symmetry_group_IT_number 139
_symmetry_cell_setting 'tetragonal'
loop_
_space_group_symop_operation_xyz
x,y,z
-y,x,z
-x,-y,z
y,-x,z
x,-y,-z
-x,y,-z
y,x,-z
-y,-x,-z
-x,-y,-z
y,-x,-z
x,y,-z
-y,x,-z
-x,y,z
x,-y,z
-y,-x,z
y,x,z
1/2+x,1/2+y,1/2+z
1/2-y,1/2+x,1/2+z
1/2-x,1/2-y,1/2+z
1/2+y,1/2-x,1/2+z
1/2+x,1/2-y,1/2-z
1/2-x,1/2+y,1/2-z
1/2+y,1/2+x,1/2-z
1/2-y,1/2-x,1/2-z
1/2-x,1/2-y,1/2-z
1/2+y,1/2-x,1/2-z
1/2+x,1/2+y,1/2-z
1/2-y,1/2+x,1/2-z
1/2-x,1/2+y,1/2+z
1/2+x,1/2-y,1/2+z
1/2-y,1/2-x,1/2+z
1/2+y,1/2+x,1/2+z
loop_
_atom_site_type_symbol
_atom_site_label
_atom_site_fract_x
_atom_site_fract_y
_atom_site_fract_z
Si Si1 0.447895 0.189267 0.764721
Si Si2 0.789853 0.862824 0.402197
Si Si3 0.394342 0.794741 0.403123
Si Si4 0.814227 0.891812 0.861101
Si Si5 0.684030 0.127712 0.598434
Si Si6 0.299157 0.447668 0.198101
Si Si7 0.054831 0.867639 0.000000
O O1 0.500000 0.164792 0.771419
O O2 0.430480 0.184020 0.666789
O O3 0.413039 0.165573 0.835769
O O4 0.454299 0.244143 0.784293
O O5 0.791284 0.851842 0.500000
O O6 0.824295 0.824295 0.355990
O O7 0.736186 0.857016 0.368448
O O8 0.807127 0.917225 0.387627
O O9 0.414956 0.799279 0.500000
O O10 0.381225 0.740345 0.383517
O O11 0.346766 0.825183 0.394652
O O12 0.842597 0.842597 0.871966
O O13 0.821974 0.913825 0.768738
O O14 0.835321 0.932758 0.919879
O O15 0.684772 0.108568 0.500000
O O16 0.323146 0.500000 0.191612
O O17 0.083104 0.916897 0.000000
O O18 0.000000 0.880911 0.000000
#
# Coordination Sequence:
#
# PCOD8319507 Si02
#       7
#    32  32  32  32  32  32  16
#     4   9  18  31  46  66  91 124 164 199 234 280
#     4   9  17  29  44  65  91 121 156 192 233 284
#     4  10  19  31  46  70  99 130 161 196 240 288
#     4  10  19  31  46  67  93 124 161 196 236 289
#     4   9  18  31  48  68  96 129 161 196 237 280
#     4   9  17  29  44  62  85 116 154 197 240 279
#     4  10  20  33  48  66  90 122 163 207 247 285
#
# _framework density 16.673269999999999
#
# number of rings (size 3 to 8) (size 9 to 14) (size 15 to 20)
#    0.000    2.615    0.769    1.385    0.000    2.231 
#    0.000    4.615    0.000    5.538    0.000    0.000 
#    0.000    7.692    0.000   20.308    0.000    1.231 
#
# Total GULP energy -1288500.021184 kJ/mol
# GULP energy per Si atom -12389.423281 kJ/mol
# Density = 1.663532 g / cm^3
# Si number density = 16.673270 Si / 1000 Ang^3
#
#
#
# Elastic Constant Matrix: (Units=GPa)
#
#
# Indices 1 2 3 4 5 6 
#
# 1 89.0246 45.5385 33.6611 0.0000 0.0000 0.0000
# 2 45.5385 89.0257 33.6614 0.0000 0.0000 0.0000
# 3 33.6611 33.6614 51.0296 0.0000 0.0000 0.0000
# 4 0.0000 0.0000 0.0000 -215.9676 0.0000 0.0000
# 5 0.0000 0.0000 0.0000 0.0000 -198.8292 0.0000
# 6 0.0000 0.0000 0.0000 0.0000 0.0000 7.9799
#
#
#
# Elastic Compliance Matrix: (Units=1/GPa)
#
#
# Indices 1 2 3 4 5 6 
#
# 1 0.017044 -0.005952 -0.007317 0.000000 0.000000 0.000000
# 2 -0.005952 0.017044 -0.007317 0.000000 0.000000 0.000000
# 3 -0.007317 -0.007317 0.029249 0.000000 0.000000 0.000000
# 4 0.000000 0.000000 0.000000 -0.004630 0.000000 0.000000
# 5 0.000000 0.000000 0.000000 0.000000 -0.005029 0.000000
# 6 0.000000 0.000000 0.000000 0.000000 0.000000 0.125316
#
#
# Mechanical properties :
#
#
# Convention : Reuss Voigt Hill
#
# Bulk Modulus (GPa) = 45.11343 50.53355 47.82349
# Shear Modulus (GPa) = 21.97299 -73.61545 -25.82123
#
# Velocity S-wave (km/s) = 3.63417 -6.65189 -3.93957
# Velocity P-wave (km/s) = 6.68772 5.35004 2.83749
#
# Compressibility (1/GPa) = 0.02216635
#
# Stress axis : x y z
#
# Youngs Moduli (GPa) = 58.67207 58.67264 34.18883
#
# Poissons Ratio (x) = 0.34921 0.25015
# Poissons Ratio (y) = 0.34920 0.25015
# Poissons Ratio (z) = 0.42929 0.42929
#
# Static dielectric constant tensor:
#      x y z
#    x 3.194000 0.000000 0.000000 
#    y 0.000000 3.194000 0.000000 
#    z 0.000000 0.000000 3.429630 
# 
# 
# High freq. dielectric constant tensor:
#      x y z
#    x 1.620600 0.000000 0.000000 
#    y 0.000000 1.620600 0.000000 
#    z 0.000000 0.000000 1.654580 
# 
# From -- ./inp_files/8972.got.cif
#   From: 2010.03.12/outbox.cif.g09.slc.cpg/sg139_5_cif.got.tgz:8972.got - 2010.04.08 09:46:31.
