data_PCOD8319760
_publ_section_title
;
Structure prediction by ZEFSAII (Michael W. Deem and Ramdas Pophale) SiO2 
 PCOD8319760
Probable space group: I 4/M M M
;
_chemical_formula_sum "Si O2"
_cell_formula_units_Z 176
_cell_length_a 18.477457
_cell_length_b 18.477457
_cell_length_c 28.017127
_cell_angle_alpha 90.000000
_cell_angle_beta 90.000000
_cell_angle_gamma 90.000000
_cell_volume 9565.507120
_symmetry_space_group_name_H-M "I 4/M M M"
_symmetry_group_IT_number 139
_symmetry_cell_setting 'tetragonal'
loop_
_space_group_symop_operation_xyz
x,y,z
-y,x,z
-x,-y,z
y,-x,z
x,-y,-z
-x,y,-z
y,x,-z
-y,-x,-z
-x,-y,-z
y,-x,-z
x,y,-z
-y,x,-z
-x,y,z
x,-y,z
-y,-x,z
y,x,z
1/2+x,1/2+y,1/2+z
1/2-y,1/2+x,1/2+z
1/2-x,1/2-y,1/2+z
1/2+y,1/2-x,1/2+z
1/2+x,1/2-y,1/2-z
1/2-x,1/2+y,1/2-z
1/2+y,1/2+x,1/2-z
1/2-y,1/2-x,1/2-z
1/2-x,1/2-y,1/2-z
1/2+y,1/2-x,1/2-z
1/2+x,1/2+y,1/2-z
1/2-y,1/2+x,1/2-z
1/2-x,1/2+y,1/2+z
1/2+x,1/2-y,1/2+z
1/2-y,1/2-x,1/2+z
1/2+y,1/2+x,1/2+z
loop_
_atom_site_type_symbol
_atom_site_label
_atom_site_fract_x
_atom_site_fract_y
_atom_site_fract_z
Si Si1 0.582202 0.302974 0.778495
Si Si2 0.345270 0.149542 0.445550
Si Si3 0.719048 0.164075 0.350989
Si Si4 0.582196 0.700726 0.579992
Si Si5 0.578845 0.000000 0.556063
Si Si6 0.263959 0.081517 0.820939
O O1 0.500000 0.324943 0.775071
O O2 0.623418 0.376583 0.788656
O O3 0.594694 0.249213 0.823104
O O4 0.608700 0.268304 0.728985
O O5 0.316796 0.144388 0.500000
O O6 0.278036 0.156150 0.408650
O O7 0.396688 0.220361 0.441163
O O8 0.382885 0.074804 0.428942
O O9 0.764948 0.235053 0.336123
O O10 0.635684 0.171730 0.334958
O O11 0.500000 0.682473 0.562882
O O12 0.638207 0.638207 0.562235
O O13 0.584774 0.703182 0.637592
O O14 0.500000 0.000000 0.580516
O O15 0.570340 0.000000 0.500000
O O16 0.295300 0.000000 0.816402
#
# Coordination Sequence:
#
# PCOD8319760 Si02
#       6
#    32  32  32  32  16  32
#     4  10  20  33  52  75 101 134 170 213 259 306
#     4  10  20  34  53  74  99 130 166 215 263 308
#     4  10  20  33  52  75 102 135 170 208 251 307
#     4  10  20  33  51  76 107 142 180 216 250 295
#     4   9  18  32  50  72  96 124 157 199 257 313
#     4   9  17  31  51  76 105 136 173 210 248 295
#
# _framework density 18.399443000000002
#
# number of rings (size 3 to 8) (size 9 to 14) (size 15 to 20)
#    0.000    2.273    0.000    4.364    1.273    5.091 
#    0.000    0.000    0.000    3.273    0.000    3.818 
#    0.000    0.000    0.000    4.000    0.000    0.000 
#
# Total GULP energy -1090542.779142 kJ/mol
# GULP energy per Si atom -12392.531581 kJ/mol
# Density = 1.835756 g / cm^3
# Si number density = 18.399443 Si / 1000 Ang^3
#
#
#
# Elastic Constant Matrix: (Units=GPa)
#
#
# Indices 1 2 3 4 5 6 
#
# 1 81.9086 35.2164 26.8896 0.0000 0.0000 0.0000
# 2 35.2164 81.9086 26.8896 0.0000 0.0000 0.0000
# 3 26.8896 26.8896 98.9607 0.0000 0.0000 0.0000
# 4 0.0000 0.0000 0.0000 21.1459 0.0000 0.0000
# 5 0.0000 0.0000 0.0000 0.0000 21.1459 0.0000
# 6 0.0000 0.0000 0.0000 0.0000 0.0000 14.7200
#
#
#
# Elastic Compliance Matrix: (Units=1/GPa)
#
#
# Indices 1 2 3 4 5 6 
#
# 1 0.015586 -0.005831 -0.002651 0.000000 0.000000 0.000000
# 2 -0.005831 0.015586 -0.002651 0.000000 0.000000 0.000000
# 3 -0.002651 -0.002651 0.011545 0.000000 0.000000 0.000000
# 4 0.000000 0.000000 0.000000 0.047290 0.000000 0.000000
# 5 0.000000 0.000000 0.000000 0.000000 0.047290 0.000000
# 6 0.000000 0.000000 0.000000 0.000000 0.000000 0.067935
#
#
# Mechanical properties :
#
#
# Convention : Reuss Voigt Hill
#
# Bulk Modulus (GPa) = 48.89279 48.97433 48.93356
# Shear Modulus (GPa) = 21.33882 22.98787 22.16335
#
# Velocity S-wave (km/s) = 3.40921 3.53849 3.47445
# Velocity P-wave (km/s) = 6.49058 6.58556 6.53824
#
# Compressibility (1/GPa) = 0.02045291
#
# Stress axis : x y z
#
# Youngs Moduli (GPa) = 64.16057 64.16057 86.61411
#
# Poissons Ratio (x) = 0.37412 0.22958
# Poissons Ratio (y) = 0.37412 0.22958
# Poissons Ratio (z) = 0.17006 0.17006
#
# Static dielectric constant tensor:
#      x y z
#    x 3.323870 0.000000 0.000000 
#    y 0.000000 3.323870 0.000000 
#    z 0.000000 0.000000 3.614850 
# 
# 
# High freq. dielectric constant tensor:
#      x y z
#    x 1.697290 0.000000 0.000000 
#    y 0.000000 1.697290 0.000000 
#    z 0.000000 0.000000 1.718260 
# 
# From -- ./inp_files/14271.got.cif
#   From: 2010.03.12/outbox.cif.g09.slc.cpg/sg139_8_cif.got.tgz:14271.got - 2010.04.08 09:46:31.
