data_PCOD8319505
_publ_section_title
;
Structure prediction by ZEFSAII (Michael W. Deem and Ramdas Pophale) SiO2 
 PCOD8319505
Probable space group: I 4/M M M
;
_chemical_formula_sum "Si O2"
_cell_formula_units_Z 128
_cell_length_a 29.349622
_cell_length_b 29.349622
_cell_length_c 9.424986
_cell_angle_alpha 90.000000
_cell_angle_beta 90.000000
_cell_angle_gamma 90.000000
_cell_volume 8118.685877
_symmetry_space_group_name_H-M "I 4/M M M"
_symmetry_group_IT_number 139
_symmetry_cell_setting 'tetragonal'
loop_
_space_group_symop_operation_xyz
x,y,z
-y,x,z
-x,-y,z
y,-x,z
x,-y,-z
-x,y,-z
y,x,-z
-y,-x,-z
-x,-y,-z
y,-x,-z
x,y,-z
-y,x,-z
-x,y,z
x,-y,z
-y,-x,z
y,x,z
1/2+x,1/2+y,1/2+z
1/2-y,1/2+x,1/2+z
1/2-x,1/2-y,1/2+z
1/2+y,1/2-x,1/2+z
1/2+x,1/2-y,1/2-z
1/2-x,1/2+y,1/2-z
1/2+y,1/2+x,1/2-z
1/2-y,1/2-x,1/2-z
1/2-x,1/2-y,1/2-z
1/2+y,1/2-x,1/2-z
1/2+x,1/2+y,1/2-z
1/2-y,1/2+x,1/2-z
1/2-x,1/2+y,1/2+z
1/2+x,1/2-y,1/2+z
1/2-y,1/2-x,1/2+z
1/2+y,1/2+x,1/2+z
loop_
_atom_site_type_symbol
_atom_site_label
_atom_site_fract_x
_atom_site_fract_y
_atom_site_fract_z
Si Si1 0.692993 0.307008 0.832653
Si Si2 0.050725 0.741940 0.660789
Si Si3 0.619214 0.380787 0.832731
Si Si4 0.448528 0.669553 0.656690
Si Si5 0.711975 0.149882 0.335304
O O1 0.656243 0.343758 0.783323
O O2 0.742174 0.324658 0.776175
O O3 0.694529 0.305472 0.000000
O O4 0.054647 0.761752 0.500000
O O5 0.055765 0.781055 0.775015
O O6 0.094828 0.710122 0.687546
O O7 0.000000 0.718376 0.678603
O O8 0.571818 0.367157 0.763506
O O9 0.614259 0.385742 0.000000
O O10 0.425257 0.670128 0.500000
O O11 0.500000 0.654567 0.639002
O O12 0.706120 0.161656 0.500000
O O13 0.669084 0.169084 0.250000
#
# Coordination Sequence:
#
# PCOD8319505 Si02
#       5
#    16  32  16  32  32
#     4   9  17  30  44  64  92 122 156 193 220 253
#     4   9  17  31  50  68  89 121 159 197 233 271
#     4  11  19  32  52  69  90 120 159 196 227 276
#     4  10  20  32  47  70  96 118 147 192 243 286
#     4  10  19  31  45  65  95 127 160 192 227 272
#
# _framework density 15.766099000000001
#
# number of rings (size 3 to 8) (size 9 to 14) (size 15 to 20)
#    0.000    2.250    2.500    1.500    0.000    2.500 
#    0.000    0.000    0.000    0.375    0.000    2.625 
#    0.000    0.500    0.000    6.250    0.000    0.000 
#
# Total GULP energy -792910.928218 kJ/mol
# GULP energy per Si atom -12389.233253 kJ/mol
# Density = 1.573021 g / cm^3
# Si number density = 15.766099 Si / 1000 Ang^3
#
#
#
# Elastic Constant Matrix: (Units=GPa)
#
#
# Indices 1 2 3 4 5 6 
#
# 1 80.5394 46.7956 42.2894 0.0000 0.0000 0.0000
# 2 46.7956 80.5391 42.2890 0.0000 0.0000 0.0000
# 3 42.2894 42.2890 95.5574 0.0000 0.0000 0.0000
# 4 0.0000 0.0000 0.0000 23.4966 0.0000 0.0000
# 5 0.0000 0.0000 0.0000 0.0000 23.4966 0.0000
# 6 0.0000 0.0000 0.0000 0.0000 0.0000 21.1188
#
#
#
# Elastic Compliance Matrix: (Units=1/GPa)
#
#
# Indices 1 2 3 4 5 6 
#
# 1 0.020379 -0.009256 -0.004923 0.000000 0.000000 0.000000
# 2 -0.009256 0.020379 -0.004922 0.000000 0.000000 0.000000
# 3 -0.004923 -0.004922 0.014822 0.000000 0.000000 0.000000
# 4 0.000000 0.000000 0.000000 0.042559 0.000000 0.000000
# 5 0.000000 0.000000 0.000000 0.000000 0.042559 0.000000
# 6 0.000000 0.000000 0.000000 0.000000 0.000000 0.047351
#
#
# Mechanical properties :
#
#
# Convention : Reuss Voigt Hill
#
# Bulk Modulus (GPa) = 57.54485 57.70932 57.62708
# Shear Modulus (GPa) = 21.54758 21.97319 21.76039
#
# Velocity S-wave (km/s) = 3.70091 3.73728 3.71914
# Velocity P-wave (km/s) = 7.40544 7.43679 7.42114
#
# Compressibility (1/GPa) = 0.01737775
#
# Stress axis : x y z
#
# Youngs Moduli (GPa) = 49.06998 49.07004 67.46811
#
# Poissons Ratio (x) = 0.45420 0.33211
# Poissons Ratio (y) = 0.45420 0.33211
# Poissons Ratio (z) = 0.24155 0.24154
#
# Static dielectric constant tensor:
#      x y z
#    x 3.012150 0.000000 0.000000 
#    y 0.000000 3.012140 0.000000 
#    z 0.000000 0.000000 3.062260 
# 
# 
# High freq. dielectric constant tensor:
#      x y z
#    x 1.582470 0.000000 0.000000 
#    y 0.000000 1.582470 0.000000 
#    z 0.000000 0.000000 1.611980 
# 
# From -- ./inp_files/1818.got.cif
#   From: 2010.03.12/outbox.cif.g09.slc.cpg/sg139_1_cif.got.tgz:1818.got - 2010.04.08 09:46:31.
