data_PCOD8319850
_publ_section_title
;
Structure prediction by ZEFSAII (Michael W. Deem and Ramdas Pophale) SiO2 
 PCOD8319850
Probable space group: I 4/M M M
;
_chemical_formula_sum "Si O2"
_cell_formula_units_Z 128
_cell_length_a 22.110978
_cell_length_b 22.110978
_cell_length_c 13.319295
_cell_angle_alpha 90.000000
_cell_angle_beta 90.000000
_cell_angle_gamma 90.000000
_cell_volume 6511.741366
_symmetry_space_group_name_H-M "I 4/M M M"
_symmetry_group_IT_number 139
_symmetry_cell_setting 'tetragonal'
loop_
_space_group_symop_operation_xyz
x,y,z
-y,x,z
-x,-y,z
y,-x,z
x,-y,-z
-x,y,-z
y,x,-z
-y,-x,-z
-x,-y,-z
y,-x,-z
x,y,-z
-y,x,-z
-x,y,z
x,-y,z
-y,-x,z
y,x,z
1/2+x,1/2+y,1/2+z
1/2-y,1/2+x,1/2+z
1/2-x,1/2-y,1/2+z
1/2+y,1/2-x,1/2+z
1/2+x,1/2-y,1/2-z
1/2-x,1/2+y,1/2-z
1/2+y,1/2+x,1/2-z
1/2-y,1/2-x,1/2-z
1/2-x,1/2-y,1/2-z
1/2+y,1/2-x,1/2-z
1/2+x,1/2+y,1/2-z
1/2-y,1/2+x,1/2-z
1/2-x,1/2+y,1/2+z
1/2+x,1/2-y,1/2+z
1/2-y,1/2-x,1/2+z
1/2+y,1/2+x,1/2+z
loop_
_atom_site_type_symbol
_atom_site_label
_atom_site_fract_x
_atom_site_fract_y
_atom_site_fract_z
Si Si1 0.570223 0.111059 0.500000
Si Si2 0.332196 0.428313 0.683492
Si Si3 0.247342 0.428586 0.500000
Si Si4 0.071178 0.226420 0.610308
Si Si5 0.068436 0.359077 0.324692
O O1 0.500000 0.119766 0.500000
O O2 0.599081 0.179348 0.500000
O O3 0.589555 0.069714 0.407831
O O4 0.343574 0.500000 0.679126
O O5 0.395049 0.395049 0.657692
O O6 0.282125 0.407983 0.601490
O O7 0.312328 0.405705 0.794831
O O8 0.243734 0.500000 0.500000
O O9 0.097735 0.206382 0.500000
O O10 0.088656 0.295797 0.628460
O O11 0.000000 0.219495 0.605535
O O12 0.121110 0.378891 0.250000
O O13 0.000000 0.355476 0.278018
#
# Coordination Sequence:
#
# PCOD8319850 Si02
#       5
#    16  32  16  32  32
#     4  11  21  33  52  76 104 141 183 228 273 312
#     4  10  20  35  59  86 112 141 174 220 274 331
#     4   9  19  36  54  78 110 148 189 217 257 331
#     4   9  18  35  55  76 105 147 193 221 254 323
#     4  11  21  33  50  76 108 143 182 227 277 325
#
# _framework density 19.656801000000002
#
# number of rings (size 3 to 8) (size 9 to 14) (size 15 to 20)
#    0.000    2.000    1.250    3.000    0.000    7.000 
#    0.000    0.000    0.000   10.500    0.000    3.500 
#    0.000    0.000    0.000    0.000    0.000    0.000 
#
# Total GULP energy -792921.830332 kJ/mol
# GULP energy per Si atom -12389.403599 kJ/mol
# Density = 1.961206 g / cm^3
# Si number density = 19.656801 Si / 1000 Ang^3
#
#
#
# Elastic Constant Matrix: (Units=GPa)
#
#
# Indices 1 2 3 4 5 6 
#
# 1 52.5612 26.9136 6.2265 0.0000 0.0000 0.0000
# 2 26.9136 52.5605 6.2241 0.0000 0.0000 0.0000
# 3 6.2265 6.2241 100.5016 0.0000 0.0000 0.0000
# 4 0.0000 0.0000 0.0000 20.9538 0.0000 0.0000
# 5 0.0000 0.0000 0.0000 0.0000 20.9538 0.0000
# 6 0.0000 0.0000 0.0000 0.0000 0.0000 18.3692
#
#
#
# Elastic Compliance Matrix: (Units=1/GPa)
#
#
# Indices 1 2 3 4 5 6 
#
# 1 0.025848 -0.013142 -0.000787 0.000000 0.000000 0.000000
# 2 -0.013142 0.025848 -0.000787 0.000000 0.000000 0.000000
# 3 -0.000787 -0.000787 0.010048 0.000000 0.000000 0.000000
# 4 0.000000 0.000000 0.000000 0.047724 0.000000 0.000000
# 5 0.000000 0.000000 0.000000 0.000000 0.047724 0.000000
# 6 0.000000 0.000000 0.000000 0.000000 0.000000 0.054439
#
#
# Mechanical properties :
#
#
# Convention : Reuss Voigt Hill
#
# Bulk Modulus (GPa) = 30.94883 31.59460 31.27172
# Shear Modulus (GPa) = 19.85434 23.13931 21.49683
#
# Velocity S-wave (km/s) = 3.18158 3.43471 3.31056
# Velocity P-wave (km/s) = 5.41067 5.64248 5.52779
#
# Compressibility (1/GPa) = 0.03231140
#
# Stress axis : x y z
#
# Youngs Moduli (GPa) = 38.68757 38.68722 99.52631
#
# Poissons Ratio (x) = 0.50844 0.07838
# Poissons Ratio (y) = 0.50844 0.07828
# Poissons Ratio (z) = 0.03047 0.03043
#
# Static dielectric constant tensor:
#      x y z
#    x 3.338360 0.000000 0.000000 
#    y 0.000000 3.338360 0.000000 
#    z 0.000000 0.000000 4.127420 
# 
# 
# High freq. dielectric constant tensor:
#      x y z
#    x 1.739790 0.000000 0.000000 
#    y 0.000000 1.739790 0.000000 
#    z 0.000000 0.000000 1.788250 
# 
# From -- ./inp_files/5431.got.cif
#   From: 2010.03.12/outbox.cif.g09.slc.cpg/sg139_3_cif.got.tgz:5431.got - 2010.04.08 09:46:31.
