data_PCOD8319182
_publ_section_title
;
Structure prediction by ZEFSAII (Michael W. Deem and Ramdas Pophale) SiO2 
 PCOD8319182
Probable space group: P 42/N C M
;
_chemical_formula_sum "Si O2"
_cell_formula_units_Z 64
_cell_length_a 12.534106
_cell_length_b 12.534106
_cell_length_c 19.249876
_cell_angle_alpha 90.000000
_cell_angle_beta 90.000000
_cell_angle_gamma 90.000000
_cell_volume 3024.228924
_symmetry_space_group_name_H-M "P 42/N C M"
_symmetry_group_IT_number 138
_space_group.IT_coordinate_system_code '2'
_symmetry_cell_setting 'tetragonal'
loop_
_space_group_symop_operation_xyz
x,y,z
1/2-y,x,1/2+z
1/2-x,1/2-y,z
y,1/2-x,1/2+z
1/2+x,-y,1/2-z
-x,1/2+y,1/2-z
1/2+y,1/2+x,-z
-y,-x,-z
-x,-y,-z
1/2+y,-x,1/2-z
1/2+x,1/2+y,-z
-y,1/2+x,1/2-z
1/2-x,y,1/2+z
x,1/2-y,1/2+z
1/2-y,1/2-x,z
y,x,z
loop_
_atom_site_type_symbol
_atom_site_label
_atom_site_fract_x
_atom_site_fract_y
_atom_site_fract_z
Si Si1 0.081696 0.248826 0.353934
Si Si2 0.134449 0.542295 0.595594
Si Si3 0.259505 0.584048 0.238860
Si Si4 0.237550 0.934380 0.472074
O O1 0.144010 0.355991 0.378368
O O2 0.163133 0.163133 0.323287
O O3 0.006081 0.281943 0.290707
O O4 0.020701 0.191290 0.418275
O O5 0.188915 0.533893 0.670360
O O6 0.217098 0.498845 0.537890
O O7 0.118185 0.665577 0.572724
O O8 0.024880 0.475121 0.594612
O O9 0.156332 0.654684 0.219356
O O10 0.151819 0.848182 0.500000
#
# Coordination Sequence:
#
# PCOD8319182 Si02
#       4
#    16  16  16  16
#     4  11  24  43  64  90 131 176 213 260 326 390
#     4  11  21  36  62  92 123 161 210 268 327 382
#     4  11  23  38  64  94 126 165 210 269 318 383
#     4  11  22  38  62  89 125 165 211 267 318 380
#
# _framework density 21.162419
#
# number of rings (size 3 to 8) (size 9 to 14) (size 15 to 20)
#    0.000    1.000    2.500    6.750    3.500    1.500 
#    0.000    1.250    0.000    4.500    0.000    0.000 
#    0.000    0.000    0.000    0.000    0.000    0.000 
#
# Total GULP energy -793121.426070 kJ/mol
# GULP energy per Si atom -12392.522282 kJ/mol
# Density = 2.111425 g / cm^3
# Si number density = 21.162419 Si / 1000 Ang^3
#
#
#
# Elastic Constant Matrix: (Units=GPa)
#
#
# Indices 1 2 3 4 5 6 
#
# 1 85.8321 45.1873 42.7543 0.0000 0.0000 0.0000
# 2 45.1873 85.8313 42.7543 0.0000 0.0000 0.0000
# 3 42.7543 42.7543 124.1910 0.0000 0.0000 0.0000
# 4 0.0000 0.0000 0.0000 30.9126 0.0000 0.0000
# 5 0.0000 0.0000 0.0000 0.0000 30.9125 0.0000
# 6 0.0000 0.0000 0.0000 0.0000 0.0000 39.9366
#
#
#
# Elastic Compliance Matrix: (Units=1/GPa)
#
#
# Indices 1 2 3 4 5 6 
#
# 1 0.017224 -0.007380 -0.003389 0.000000 0.000000 0.000000
# 2 -0.007380 0.017224 -0.003389 0.000000 0.000000 0.000000
# 3 -0.003389 -0.003389 0.010386 0.000000 0.000000 0.000000
# 4 0.000000 0.000000 0.000000 0.032349 0.000000 0.000000
# 5 0.000000 0.000000 0.000000 0.000000 0.032349 0.000000
# 6 0.000000 0.000000 0.000000 0.000000 0.000000 0.025040
#
#
# Mechanical properties :
#
#
# Convention : Reuss Voigt Hill
#
# Bulk Modulus (GPa) = 60.53984 61.91626 61.22805
# Shear Modulus (GPa) = 29.69242 31.36292 30.52767
#
# Velocity S-wave (km/s) = 3.74983 3.85386 3.80220
# Velocity P-wave (km/s) = 6.88604 7.00887 6.94773
#
# Compressibility (1/GPa) = 0.01651805
#
# Stress axis : x y z
#
# Youngs Moduli (GPa) = 58.05902 58.05836 96.28768
#
# Poissons Ratio (x) = 0.42845 0.32632
# Poissons Ratio (y) = 0.42845 0.32632
# Poissons Ratio (z) = 0.19676 0.19676
#
# Static dielectric constant tensor:
#      x y z
#    x 3.844510 0.000000 0.000000 
#    y 0.000000 3.844510 0.000000 
#    z 0.000000 0.000000 4.169400 
# 
# 
# High freq. dielectric constant tensor:
#      x y z
#    x 1.818760 0.000000 0.000000 
#    y 0.000000 1.818760 0.000000 
#    z 0.000000 0.000000 1.840710 
# 
# From -- ./inp_files/5839.got.cif
#   From: 2010.03.12/outbox.cif.g09.slc.cpg/sg138_3_cif.got.tgz:5839.got - 2010.04.08 09:41:05.
