data_PCOD8319904
_publ_section_title
;
Structure prediction by ZEFSAII (Michael W. Deem and Ramdas Pophale) SiO2 
 PCOD8319904
Probable space group: I 4/M M M
;
_chemical_formula_sum "Si O2"
_cell_formula_units_Z 240
_cell_length_a 29.557674
_cell_length_b 29.557674
_cell_length_c 14.219795
_cell_angle_alpha 90.000000
_cell_angle_beta 90.000000
_cell_angle_gamma 90.000000
_cell_volume 12423.210533
_symmetry_space_group_name_H-M "I 4/M M M"
_symmetry_group_IT_number 139
_symmetry_cell_setting 'tetragonal'
loop_
_space_group_symop_operation_xyz
x,y,z
-y,x,z
-x,-y,z
y,-x,z
x,-y,-z
-x,y,-z
y,x,-z
-y,-x,-z
-x,-y,-z
y,-x,-z
x,y,-z
-y,x,-z
-x,y,z
x,-y,z
-y,-x,z
y,x,z
1/2+x,1/2+y,1/2+z
1/2-y,1/2+x,1/2+z
1/2-x,1/2-y,1/2+z
1/2+y,1/2-x,1/2+z
1/2+x,1/2-y,1/2-z
1/2-x,1/2+y,1/2-z
1/2+y,1/2+x,1/2-z
1/2-y,1/2-x,1/2-z
1/2-x,1/2-y,1/2-z
1/2+y,1/2-x,1/2-z
1/2+x,1/2+y,1/2-z
1/2-y,1/2+x,1/2-z
1/2-x,1/2+y,1/2+z
1/2+x,1/2-y,1/2+z
1/2-y,1/2-x,1/2+z
1/2+y,1/2+x,1/2+z
loop_
_atom_site_type_symbol
_atom_site_label
_atom_site_fract_x
_atom_site_fract_y
_atom_site_fract_z
Si Si1 0.448136 0.870292 0.390963
Si Si2 0.607228 0.209922 0.697739
Si Si3 0.625308 0.230683 0.896180
Si Si4 0.905092 0.167884 0.605073
Si Si5 0.788210 0.052601 0.892959
Si Si6 0.948767 0.448767 0.250000
Si Si7 0.448828 0.374192 0.722812
Si Si8 0.797201 0.724683 0.106352
O O1 0.438835 0.879161 0.500000
O O2 0.500000 0.854390 0.373973
O O3 0.413528 0.832525 0.355835
O O4 0.437461 0.916803 0.337788
O O5 0.605346 0.200354 0.810600
O O6 0.579572 0.254580 0.673600
O O7 0.659214 0.218423 0.671271
O O8 0.605487 0.280020 0.879865
O O9 0.679497 0.232949 0.890530
O O10 0.610678 0.211790 0.000000
O O11 0.923609 0.158766 0.500000
O O12 0.858758 0.141243 0.624015
O O13 0.942980 0.151027 0.677458
O O14 0.839291 0.062505 0.860723
O O15 0.776317 0.000000 0.883148
O O16 0.782555 0.069123 0.000000
O O17 0.941266 0.500000 0.214568
O O18 0.500000 0.391570 0.715763
O O19 0.417418 0.417418 0.710981
O O20 0.766271 0.766271 0.143364
O O21 0.813404 0.734505 0.000000
#
# Coordination Sequence:
#
# PCOD8319904 Si02
#       8
#    32  32  32  32  32  16  32  32
#     4  10  22  40  63  90 121 158 197 238 291 354
#     4  12  22  36  59  87 117 154 199 240 286 341
#     4  10  21  36  54  79 114 155 193 234 282 335
#     4   9  17  33  57  81 107 144 189 231 277 341
#     4  10  21  38  59  82 111 146 185 234 287 339
#     4   9  20  40  66  96 125 154 196 248 295 340
#     4  10  21  37  57  83 112 144 186 237 295 357
#     4  10  22  37  53  80 117 155 196 241 287 334
#
# _framework density 19.318677999999998
#
# number of rings (size 3 to 8) (size 9 to 14) (size 15 to 20)
#    0.000    1.933    1.333    2.400    1.867    5.733 
#    0.000    1.333    0.000    2.400    0.000    3.733 
#    0.000    0.000    0.000    0.000    0.000    0.000 
#
# Total GULP energy -1487902.788236 kJ/mol
# GULP energy per Si atom -12399.189902 kJ/mol
# Density = 1.927471 g / cm^3
# Si number density = 19.318678 Si / 1000 Ang^3
#
#
#
# Elastic Constant Matrix: (Units=GPa)
#
#
# Indices 1 2 3 4 5 6 
#
# 1 89.0718 61.5564 48.6116 0.0000 0.0000 0.0000
# 2 61.5564 89.0718 48.6116 0.0000 0.0000 0.0000
# 3 48.6116 48.6116 147.7725 0.0000 0.0000 0.0000
# 4 0.0000 0.0000 0.0000 27.7481 0.0000 0.0000
# 5 0.0000 0.0000 0.0000 0.0000 27.7481 0.0000
# 6 0.0000 0.0000 0.0000 0.0000 0.0000-3420.0963
#
#
#
# Elastic Compliance Matrix: (Units=1/GPa)
#
#
# Indices 1 2 3 4 5 6 
#
# 1 0.022386 -0.013957 -0.002773 0.000000 0.000000 0.000000
# 2 -0.013957 0.022386 -0.002773 0.000000 0.000000 0.000000
# 3 -0.002773 -0.002773 0.008591 0.000000 0.000000 0.000000
# 4 0.000000 0.000000 0.000000 0.036038 0.000000 0.000000
# 5 0.000000 0.000000 0.000000 0.000000 0.036038 0.000000
# 6 0.000000 0.000000 0.000000 0.000000 0.000000 -0.000292
#
#
# Mechanical properties :
#
#
# Convention : Reuss Voigt Hill
#
# Bulk Modulus (GPa) = 69.64903 71.49724 70.57313
# Shear Modulus (GPa) = 29.59652 -661.77757 -316.09053
#
# Velocity S-wave (km/s) = 3.91834 -18.52841 -12.80525
# Velocity P-wave (km/s) = 7.52344 20.50967 13.49156
#
# Compressibility (1/GPa) = 0.01435770
#
# Stress axis : x y z
#
# Youngs Moduli (GPa) = 44.67111 44.67111 116.39607
#
# Poissons Ratio (x) = 0.62349 0.32273
# Poissons Ratio (y) = 0.62349 0.32273
# Poissons Ratio (z) = 0.12386 0.12386
#
# Static dielectric constant tensor:
#      x y z
#    x 3.432690 0.000000 0.000000 
#    y 0.000000 3.432690 0.000000 
#    z 0.000000 0.000000 3.852600 
# 
# 
# High freq. dielectric constant tensor:
#      x y z
#    x 1.742370 0.000000 0.000000 
#    y 0.000000 1.742370 0.000000 
#    z 0.000000 0.000000 1.766950 
# 
# From -- ./inp_files/6784.got.cif
#   From: 2010.03.12/outbox.cif.g09.slc.cpg/sg139_4_cif.got.tgz:6784.got - 2010.04.08 09:46:31.
