data_PCOD8319539
_publ_section_title
;
Structure prediction by ZEFSAII (Michael W. Deem and Ramdas Pophale) SiO2 
 PCOD8319539
Probable space group: I 4/M M M
;
_chemical_formula_sum "Si O2"
_cell_formula_units_Z 176
_cell_length_a 17.508208
_cell_length_b 17.508208
_cell_length_c 33.337429
_cell_angle_alpha 90.000000
_cell_angle_beta 90.000000
_cell_angle_gamma 90.000000
_cell_volume 10219.167054
_symmetry_space_group_name_H-M "I 4/M M M"
_symmetry_group_IT_number 139
_symmetry_cell_setting 'tetragonal'
loop_
_space_group_symop_operation_xyz
x,y,z
-y,x,z
-x,-y,z
y,-x,z
x,-y,-z
-x,y,-z
y,x,-z
-y,-x,-z
-x,-y,-z
y,-x,-z
x,y,-z
-y,x,-z
-x,y,z
x,-y,z
-y,-x,z
y,x,z
1/2+x,1/2+y,1/2+z
1/2-y,1/2+x,1/2+z
1/2-x,1/2-y,1/2+z
1/2+y,1/2-x,1/2+z
1/2+x,1/2-y,1/2-z
1/2-x,1/2+y,1/2-z
1/2+y,1/2+x,1/2-z
1/2-y,1/2-x,1/2-z
1/2-x,1/2-y,1/2-z
1/2+y,1/2-x,1/2-z
1/2+x,1/2+y,1/2-z
1/2-y,1/2+x,1/2-z
1/2-x,1/2+y,1/2+z
1/2+x,1/2-y,1/2+z
1/2-y,1/2-x,1/2+z
1/2+y,1/2+x,1/2+z
loop_
_atom_site_type_symbol
_atom_site_label
_atom_site_fract_x
_atom_site_fract_y
_atom_site_fract_z
Si Si1 0.414305 0.709304 0.177984
Si Si2 0.086567 0.371151 0.706048
Si Si3 0.714702 0.912108 0.592557
Si Si4 0.088615 0.088615 0.043909
Si Si5 0.087574 0.320219 0.868648
Si Si6 0.817276 0.817276 0.894717
Si Si7 0.716937 0.283064 0.046489
O O1 0.500000 0.678400 0.183588
O O2 0.358249 0.641752 0.190125
O O3 0.397464 0.780469 0.207270
O O4 0.400697 0.736254 0.132675
O O5 0.094989 0.405012 0.750000
O O6 0.144107 0.412905 0.675832
O O7 0.000000 0.385430 0.690545
O O8 0.630591 0.876040 0.599830
O O9 0.761416 0.870602 0.556994
O O10 0.704794 0.000000 0.580436
O O11 0.128173 0.128173 0.080848
O O12 0.000000 0.106371 0.047602
O O13 0.117578 0.117578 0.000000
O O14 0.131926 0.238984 0.867135
O O15 0.000000 0.309027 0.882853
O O16 0.769947 0.769947 0.926834
O O17 0.731798 0.268203 0.000000
#
# Coordination Sequence:
#
# PCOD8319539 Si02
#       7
#    32  32  32  16  32  16  16
#     4   9  17  31  50  73 100 131 166 203 248 297
#     4  10  21  34  52  77 103 130 163 212 264 305
#     4   9  18  32  50  72 100 130 165 210 254 298
#     4   9  17  30  51  77 101 128 163 207 261 306
#     4  10  20  33  52  76 100 133 173 207 250 307
#     4  10  20  34  49  71 105 133 168 210 246 297
#     4  10  19  31  50  72  96 132 170 204 252 305
#
# _framework density 17.222538
#
# number of rings (size 3 to 8) (size 9 to 14) (size 15 to 20)
#    0.000    2.455    0.909    3.273    3.818    3.273 
#    0.000    0.000    0.000    5.182    0.000    5.727 
#    0.000    0.000    0.000    0.000    0.000    0.000 
#
# Total GULP energy -1091035.723253 kJ/mol
# GULP energy per Si atom -12398.133219 kJ/mol
# Density = 1.718334 g / cm^3
# Si number density = 17.222538 Si / 1000 Ang^3
#
#
#
# Elastic Constant Matrix: (Units=GPa)
#
#
# Indices 1 2 3 4 5 6 
#
# 1 105.8956 62.5849 26.6394 0.0000 0.0000 0.0000
# 2 62.5849 105.8953 26.6389 0.0000 0.0000 0.0000
# 3 26.6394 26.6389 66.0220 0.0000 0.0000 0.0000
# 4 0.0000 0.0000 0.0000 20.3243 0.0000 0.0000
# 5 0.0000 0.0000 0.0000 0.0000 20.3242 0.0000
# 6 0.0000 0.0000 0.0000 0.0000 0.0000 26.6451
#
#
#
# Elastic Compliance Matrix: (Units=1/GPa)
#
#
# Indices 1 2 3 4 5 6 
#
# 1 0.014946 -0.008143 -0.002745 0.000000 0.000000 0.000000
# 2 -0.008143 0.014946 -0.002745 0.000000 0.000000 0.000000
# 3 -0.002745 -0.002745 0.017362 0.000000 0.000000 0.000000
# 4 0.000000 0.000000 0.000000 0.049202 0.000000 0.000000
# 5 0.000000 0.000000 0.000000 0.000000 0.049202 0.000000
# 6 0.000000 0.000000 0.000000 0.000000 0.000000 0.037530
#
#
# Mechanical properties :
#
#
# Convention : Reuss Voigt Hill
#
# Bulk Modulus (GPa) = 50.02956 56.61548 53.32252
# Shear Modulus (GPa) = 23.02894 24.25536 23.64215
#
# Velocity S-wave (km/s) = 3.66066 3.75687 3.70908
# Velocity P-wave (km/s) = 6.85414 7.19465 7.02646
#
# Compressibility (1/GPa) = 0.01998818
#
# Stress axis : x y z
#
# Youngs Moduli (GPa) = 66.90623 66.90625 57.59796
#
# Poissons Ratio (x) = 0.54480 0.15812
# Poissons Ratio (y) = 0.54480 0.15811
# Poissons Ratio (z) = 0.18367 0.18366
#
# Static dielectric constant tensor:
#      x y z
#    x 3.300750 0.000000 0.000000 
#    y 0.000000 3.300750 0.000000 
#    z 0.000000 0.000000 2.959870 
# 
# 
# High freq. dielectric constant tensor:
#      x y z
#    x 1.668490 0.000000 0.000000 
#    y 0.000000 1.668490 0.000000 
#    z 0.000000 0.000000 1.636450 
# 
# From -- ./inp_files/14318.got.cif
#   From: 2010.03.12/outbox.cif.g09.slc.cpg/sg139_8_cif.got.tgz:14318.got - 2010.04.08 09:46:31.
