data_PCOD8319241
_publ_section_title
;
Structure prediction by ZEFSAII (Michael W. Deem and Ramdas Pophale) SiO2 
 PCOD8319241
Probable space group: P 42/N C M
;
_chemical_formula_sum "Si O2"
_cell_formula_units_Z 112
_cell_length_a 13.436041
_cell_length_b 13.436041
_cell_length_c 36.078259
_cell_angle_alpha 90.000000
_cell_angle_beta 90.000000
_cell_angle_gamma 90.000000
_cell_volume 6513.106997
_symmetry_space_group_name_H-M "P 42/N C M"
_symmetry_group_IT_number 138
_space_group.IT_coordinate_system_code '2'
_symmetry_cell_setting 'tetragonal'
loop_
_space_group_symop_operation_xyz
x,y,z
1/2-y,x,1/2+z
1/2-x,1/2-y,z
y,1/2-x,1/2+z
1/2+x,-y,1/2-z
-x,1/2+y,1/2-z
1/2+y,1/2+x,-z
-y,-x,-z
-x,-y,-z
1/2+y,-x,1/2-z
1/2+x,1/2+y,-z
-y,1/2+x,1/2-z
1/2-x,y,1/2+z
x,1/2-y,1/2+z
1/2-y,1/2-x,z
y,x,z
loop_
_atom_site_type_symbol
_atom_site_label
_atom_site_fract_x
_atom_site_fract_y
_atom_site_fract_z
Si Si1 0.663219 0.002929 0.779183
Si Si2 0.250970 0.586004 0.569905
Si Si3 0.494287 0.161364 0.861348
Si Si4 0.338635 0.005715 0.138652
Si Si5 0.502928 0.336780 0.279182
Si Si6 0.996220 0.663634 0.500000
Si Si7 0.250970 0.586004 0.430095
O O1 0.710841 0.996354 0.820514
O O2 0.608305 0.108305 0.773261
O O3 0.585917 0.914084 0.773584
O O4 0.749999 0.991312 0.750000
O O5 0.258590 0.520474 0.607154
O O6 0.232765 0.510230 0.536058
O O7 0.158562 0.658561 0.575614
O O8 0.351193 0.648807 0.561798
O O9 0.385899 0.114102 0.869705
O O10 0.574235 0.074233 0.861375
O O11 0.496353 0.210839 0.820514
O O12 0.520477 0.241410 0.892846
O O13 0.385896 0.114105 0.130295
O O14 0.414082 0.414082 0.273582
O O15 0.080085 0.580085 0.500000
O O16 0.010229 0.732764 0.536059
O O17 0.887092 0.612909 0.500000
#
# Coordination Sequence:
#
# PCOD8319241 Si02
#       7
#    16  16  16  16  16  16  16
#     4   9  18  32  49  70  96 125 157 193 233 278
#     4   9  16  27  46  69  88 110 146 185 216 256
#     4   8  15  29  47  66  90 118 147 183 226 267
#     4   8  15  29  47  66  90 118 147 183 226 267
#     4   9  18  32  49  70  96 125 157 193 233 278
#     4   9  17  29  44  63  90 120 144 173 220 268
#     4   9  16  27  46  69  88 110 146 185 216 256
#
# _framework density 17.196093999999999
#
# number of rings (size 3 to 8) (size 9 to 14) (size 15 to 20)
#    0.000    3.286    0.000    2.143    0.000    3.429 
#    0.000    5.000    0.000   10.286    0.000    0.000 
#    0.000    0.000    0.000    0.000    0.000    0.000 
#
# Total GULP energy -1388254.761633 kJ/mol
# GULP energy per Si atom -12395.131800 kJ/mol
# Density = 1.715695 g / cm^3
# Si number density = 17.196094 Si / 1000 Ang^3
#
#
#
# Elastic Constant Matrix: (Units=GPa)
#
#
# Indices 1 2 3 4 5 6 
#
# 1 56.7927 23.2149 62.0719 0.0000 0.0000 0.0000
# 2 23.2149 56.7927 62.0719 0.0000 0.0000 0.0000
# 3 62.0719 62.0719 181.2533 0.0000 0.0000 0.0000
# 4 0.0000 0.0000 0.0000 3.0346 0.0000 0.0000
# 5 0.0000 0.0000 0.0000 0.0000 3.0346 0.0000
# 6 0.0000 0.0000 0.0000 0.0000 0.0000 11.4974
#
#
#
# Elastic Compliance Matrix: (Units=1/GPa)
#
#
# Indices 1 2 3 4 5 6 
#
# 1 0.028226 -0.001555 -0.009134 0.000000 0.000000 0.000000
# 2 -0.001555 0.028226 -0.009134 0.000000 0.000000 0.000000
# 3 -0.009134 -0.009134 0.011773 0.000000 0.000000 0.000000
# 4 0.000000 0.000000 0.000000 0.329530 0.000000 0.000000
# 5 0.000000 0.000000 0.000000 0.000000 0.329530 0.000000
# 6 0.000000 0.000000 0.000000 0.000000 0.000000 0.086977
#
#
# Mechanical properties :
#
#
# Convention : Reuss Voigt Hill
#
# Bulk Modulus (GPa) = 34.98904 65.50623 50.24764
# Shear Modulus (GPa) = 5.79082 13.34531 9.56807
#
# Velocity S-wave (km/s) = 1.83707 2.78882 2.36139
# Velocity P-wave (km/s) = 4.98909 6.96752 6.05960
#
# Compressibility (1/GPa) = 0.02858038
#
# Stress axis : x y z
#
# Youngs Moduli (GPa) = 35.42771 35.42771 84.93946
#
# Poissons Ratio (x) = 0.05509 0.77582
# Poissons Ratio (y) = 0.05509 0.77582
# Poissons Ratio (z) = 0.32359 0.32359
#
# Static dielectric constant tensor:
#      x y z
#    x 3.046380 0.000000 0.000000 
#    y 0.000000 3.046380 0.000000 
#    z 0.000000 0.000000 3.531110 
# 
# 
# High freq. dielectric constant tensor:
#      x y z
#    x 1.636960 0.000000 0.000000 
#    y 0.000000 1.636960 0.000000 
#    z 0.000000 0.000000 1.678640 
# 
# From -- ./inp_files/8253.got.cif
#   From: 2010.03.12/outbox.cif.g09.slc.cpg/sg138_5_cif.got.tgz:8253.got - 2010.04.08 09:41:05.
