data_PCOD8319728
_publ_section_title
;
Structure prediction by ZEFSAII (Michael W. Deem and Ramdas Pophale) SiO2 
 PCOD8319728
Probable space group: I 4/M M M
;
_chemical_formula_sum "Si O2"
_cell_formula_units_Z 160
_cell_length_a 32.611500
_cell_length_b 32.611500
_cell_length_c 9.077351
_cell_angle_alpha 90.000000
_cell_angle_beta 90.000000
_cell_angle_gamma 90.000000
_cell_volume 9653.852947
_symmetry_space_group_name_H-M "I 4/M M M"
_symmetry_group_IT_number 139
_symmetry_cell_setting 'tetragonal'
loop_
_space_group_symop_operation_xyz
x,y,z
-y,x,z
-x,-y,z
y,-x,z
x,-y,-z
-x,y,-z
y,x,-z
-y,-x,-z
-x,-y,-z
y,-x,-z
x,y,-z
-y,x,-z
-x,y,z
x,-y,z
-y,-x,z
y,x,z
1/2+x,1/2+y,1/2+z
1/2-y,1/2+x,1/2+z
1/2-x,1/2-y,1/2+z
1/2+y,1/2-x,1/2+z
1/2+x,1/2-y,1/2-z
1/2-x,1/2+y,1/2-z
1/2+y,1/2+x,1/2-z
1/2-y,1/2-x,1/2-z
1/2-x,1/2-y,1/2-z
1/2+y,1/2-x,1/2-z
1/2+x,1/2+y,1/2-z
1/2-y,1/2+x,1/2-z
1/2-x,1/2+y,1/2+z
1/2+x,1/2-y,1/2+z
1/2-y,1/2-x,1/2+z
1/2+y,1/2+x,1/2+z
loop_
_atom_site_type_symbol
_atom_site_label
_atom_site_fract_x
_atom_site_fract_y
_atom_site_fract_z
Si Si1 0.810735 0.371418 0.174696
Si Si2 0.563632 0.500000 0.324596
Si Si3 0.500000 0.346775 0.323294
Si Si4 0.297516 0.424337 0.666683
Si Si5 0.844591 0.779173 0.673327
Si Si6 0.294480 0.046901 0.832537
O O1 0.847622 0.347622 0.250000
O O2 0.768395 0.348427 0.224705
O O3 0.814754 0.418705 0.227690
O O4 0.815524 0.370478 0.000000
O O5 0.540320 0.540320 0.268504
O O6 0.565876 0.500000 0.500000
O O7 0.608201 0.500000 0.255837
O O8 0.500000 0.343376 0.500000
O O9 0.458457 0.326804 0.262125
O O10 0.309597 0.413221 0.500000
O O11 0.303196 0.382851 0.758318
O O12 0.253460 0.445150 0.673891
O O13 0.849095 0.781591 0.500000
O O14 0.801728 0.801728 0.722540
O O15 0.303836 0.000000 0.778788
O O16 0.310554 0.052424 0.000000
#
# Coordination Sequence:
#
# PCOD8319728 Si02
#       6
#    32  16  16  32  32  32
#     4  10  20  33  49  70  96 127 163 203 240 279
#     4   8  14  23  32  45  71 106 138 170 218 279
#     4   9  15  24  40  61  85 108 138 184 235 283
#     4   9  16  27  44  67  90 112 144 189 236 283
#     4   9  19  34  47  62  90 126 160 197 240 284
#     4   9  16  29  49  70  95 126 153 185 234 284
#
# _framework density 16.573692999999999
#
# number of rings (size 3 to 8) (size 9 to 14) (size 15 to 20)
#    0.000    2.900    1.000    0.900    0.000    2.800 
#    0.000    2.500    0.000    0.000    0.000    0.000 
#    0.000    0.400    0.000    8.600    0.000    5.400 
#
# Total GULP energy -991281.377327 kJ/mol
# GULP energy per Si atom -12391.017217 kJ/mol
# Density = 1.653597 g / cm^3
# Si number density = 16.573693 Si / 1000 Ang^3
#
#
#
# Elastic Constant Matrix: (Units=GPa)
#
#
# Indices 1 2 3 4 5 6 
#
# 1 92.9735 56.0426 31.5242 0.0000 0.0000 0.0000
# 2 56.0426 92.9735 31.5242 0.0000 0.0000 0.0000
# 3 31.5242 31.5242 33.9708 0.0000 0.0000 0.0000
# 4 0.0000 0.0000 0.0000 21.0543 0.0000 0.0000
# 5 0.0000 0.0000 0.0000 0.0000 21.0543 0.0000
# 6 0.0000 0.0000 0.0000 0.0000 0.0000 64.4021
#
#
#
# Elastic Compliance Matrix: (Units=1/GPa)
#
#
# Indices 1 2 3 4 5 6 
#
# 1 0.019063 -0.008014 -0.010253 0.000000 0.000000 0.000000
# 2 -0.008014 0.019063 -0.010253 0.000000 0.000000 0.000000
# 3 -0.010253 -0.010253 0.048466 0.000000 0.000000 0.000000
# 4 0.000000 0.000000 0.000000 0.047496 0.000000 0.000000
# 5 0.000000 0.000000 0.000000 0.000000 0.047496 0.000000
# 6 0.000000 0.000000 0.000000 0.000000 0.000000 0.015527
#
#
# Mechanical properties :
#
#
# Convention : Reuss Voigt Hill
#
# Bulk Modulus (GPa) = 33.83902 50.89997 42.36949
# Shear Modulus (GPa) = 18.93912 28.02391 23.48151
#
# Velocity S-wave (km/s) = 3.38408 4.11648 3.76812
# Velocity P-wave (km/s) = 5.97754 7.30560 6.67468
#
# Compressibility (1/GPa) = 0.02955169
#
# Stress axis : x y z
#
# Youngs Moduli (GPa) = 52.45720 52.45720 20.63297
#
# Poissons Ratio (x) = 0.42042 0.21155
# Poissons Ratio (y) = 0.42042 0.21155
# Poissons Ratio (z) = 0.53784 0.53784
#
# Static dielectric constant tensor:
#      x y z
#    x 3.162430 0.000000 0.000000 
#    y 0.000000 3.162430 0.000000 
#    z 0.000000 0.000000 2.941950 
# 
# 
# High freq. dielectric constant tensor:
#      x y z
#    x 1.626470 0.000000 0.000000 
#    y 0.000000 1.626470 0.000000 
#    z 0.000000 0.000000 1.615260 
# 
# From -- ./inp_files/2177.got.cif
#   From: 2010.03.12/outbox.cif.g09.slc.cpg/sg139_2_cif.got.tgz:2177.got - 2010.04.08 09:46:31.
