data_PCOD8319651
_publ_section_title
;
Structure prediction by ZEFSAII (Michael W. Deem and Ramdas Pophale) SiO2 
 PCOD8319651
Probable space group: I 4/M M M
;
_chemical_formula_sum "Si O2"
_cell_formula_units_Z 96
_cell_length_a 19.186736
_cell_length_b 19.186736
_cell_length_c 14.636049
_cell_angle_alpha 90.000000
_cell_angle_beta 90.000000
_cell_angle_gamma 90.000000
_cell_volume 5387.980988
_symmetry_space_group_name_H-M "I 4/M M M"
_symmetry_group_IT_number 139
_symmetry_cell_setting 'tetragonal'
loop_
_space_group_symop_operation_xyz
x,y,z
-y,x,z
-x,-y,z
y,-x,z
x,-y,-z
-x,y,-z
y,x,-z
-y,-x,-z
-x,-y,-z
y,-x,-z
x,y,-z
-y,x,-z
-x,y,z
x,-y,z
-y,-x,z
y,x,z
1/2+x,1/2+y,1/2+z
1/2-y,1/2+x,1/2+z
1/2-x,1/2-y,1/2+z
1/2+y,1/2-x,1/2+z
1/2+x,1/2-y,1/2-z
1/2-x,1/2+y,1/2-z
1/2+y,1/2+x,1/2-z
1/2-y,1/2-x,1/2-z
1/2-x,1/2-y,1/2-z
1/2+y,1/2-x,1/2-z
1/2+x,1/2+y,1/2-z
1/2-y,1/2+x,1/2-z
1/2-x,1/2+y,1/2+z
1/2+x,1/2-y,1/2+z
1/2-y,1/2-x,1/2+z
1/2+y,1/2+x,1/2+z
loop_
_atom_site_type_symbol
_atom_site_label
_atom_site_fract_x
_atom_site_fract_y
_atom_site_fract_z
Si Si1 0.420975 0.183099 0.799875
Si Si2 0.420559 0.224281 0.500000
Si Si3 0.694262 0.581221 0.325650
Si Si4 0.139837 0.578262 0.000000
O O1 0.500000 0.162738 0.772628
O O2 0.373233 0.126768 0.750000
O O3 0.404180 0.260795 0.765256
O O4 0.411620 0.186174 0.909274
O O5 0.500000 0.244880 0.500000
O O6 0.388210 0.259362 0.590503
O O7 0.416305 0.140207 0.500000
O O8 0.675770 0.500000 0.336979
O O9 0.621859 0.621859 0.319029
O O10 0.105577 0.500000 0.000000
#
# Coordination Sequence:
#
# PCOD8319651 Si02
#       4
#    32  16  32  16
#     4  10  20  35  54  79 111 143 178 220 262 312
#     4  10  19  34  53  79 110 139 178 223 264 312
#     4  10  21  37  56  78 107 140 178 228 278 324
#     4  10  20  34  52  78 114 149 178 212 256 313
#
# _framework density 17.817433999999999
#
# number of rings (size 3 to 8) (size 9 to 14) (size 15 to 20)
#    0.000    2.000    3.333    0.500    0.000    1.667 
#    0.000    4.167    0.000    3.000    0.000    0.000 
#    0.000    6.667    0.000    0.000    0.000    0.000 
#
# Total GULP energy -594900.824246 kJ/mol
# GULP energy per Si atom -12393.767172 kJ/mol
# Density = 1.777688 g / cm^3
# Si number density = 17.817434 Si / 1000 Ang^3
#
#
#
# Elastic Constant Matrix: (Units=GPa)
#
#
# Indices 1 2 3 4 5 6 
#
# 1 97.0665 61.9242 46.0112 0.0000 0.0000 0.0000
# 2 61.9242 97.0682 46.0109 0.0000 0.0000 0.0000
# 3 46.0112 46.0109 134.9983 0.0000 0.0000 0.0000
# 4 0.0000 0.0000 0.0000 17.0803 0.0000 0.0000
# 5 0.0000 0.0000 0.0000 0.0000 17.0806 0.0000
# 6 0.0000 0.0000 0.0000 0.0000 0.0000 31.9409
#
#
#
# Elastic Compliance Matrix: (Units=1/GPa)
#
#
# Indices 1 2 3 4 5 6 
#
# 1 0.018145 -0.010310 -0.002671 0.000000 0.000000 0.000000
# 2 -0.010310 0.018145 -0.002670 0.000000 0.000000 0.000000
# 3 -0.002671 -0.002670 0.009228 0.000000 0.000000 0.000000
# 4 0.000000 0.000000 0.000000 0.058547 0.000000 0.000000
# 5 0.000000 0.000000 0.000000 0.000000 0.058546 0.000000
# 6 0.000000 0.000000 0.000000 0.000000 0.000000 0.031308
#
#
# Mechanical properties :
#
#
# Convention : Reuss Voigt Hill
#
# Bulk Modulus (GPa) = 70.34079 70.78061 70.56070
# Shear Modulus (GPa) = 21.74296 24.89946 23.32121
#
# Velocity S-wave (km/s) = 3.49710 3.74234 3.62179
# Velocity P-wave (km/s) = 7.47466 7.64756 7.56161
#
# Compressibility (1/GPa) = 0.01421650
#
# Stress axis : x y z
#
# Youngs Moduli (GPa) = 55.11042 55.11170 108.36776
#
# Poissons Ratio (x) = 0.56820 0.28940
# Poissons Ratio (y) = 0.56818 0.28938
# Poissons Ratio (z) = 0.14718 0.14717
#
# Static dielectric constant tensor:
#      x y z
#    x 3.098130 0.000000 0.000000 
#    y 0.000000 3.098130 0.000000 
#    z 0.000000 0.000000 3.770710 
# 
# 
# High freq. dielectric constant tensor:
#      x y z
#    x 1.670930 0.000000 0.000000 
#    y 0.000000 1.670930 0.000000 
#    z 0.000000 0.000000 1.705950 
# 
# From -- ./inp_files/7307.got.cif
#   From: 2010.03.12/outbox.cif.g09.slc.cpg/sg139_4_cif.got.tgz:7307.got - 2010.04.08 09:46:31.
