data_PCOD8319706
_publ_section_title
;
Structure prediction by ZEFSAII (Michael W. Deem and Ramdas Pophale) SiO2 
 PCOD8319706
Probable space group: I 4/M M M
;
_chemical_formula_sum "Si O2"
_cell_formula_units_Z 176
_cell_length_a 18.143396
_cell_length_b 18.143396
_cell_length_c 30.436797
_cell_angle_alpha 90.000000
_cell_angle_beta 90.000000
_cell_angle_gamma 90.000000
_cell_volume 10019.270620
_symmetry_space_group_name_H-M "I 4/M M M"
_symmetry_group_IT_number 139
_symmetry_cell_setting 'tetragonal'
loop_
_space_group_symop_operation_xyz
x,y,z
-y,x,z
-x,-y,z
y,-x,z
x,-y,-z
-x,y,-z
y,x,-z
-y,-x,-z
-x,-y,-z
y,-x,-z
x,y,-z
-y,x,-z
-x,y,z
x,-y,z
-y,-x,z
y,x,z
1/2+x,1/2+y,1/2+z
1/2-y,1/2+x,1/2+z
1/2-x,1/2-y,1/2+z
1/2+y,1/2-x,1/2+z
1/2+x,1/2-y,1/2-z
1/2-x,1/2+y,1/2-z
1/2+y,1/2+x,1/2-z
1/2-y,1/2-x,1/2-z
1/2-x,1/2-y,1/2-z
1/2+y,1/2-x,1/2-z
1/2+x,1/2+y,1/2-z
1/2-y,1/2+x,1/2-z
1/2-x,1/2+y,1/2+z
1/2+x,1/2-y,1/2+z
1/2-y,1/2-x,1/2+z
1/2+y,1/2+x,1/2+z
loop_
_atom_site_type_symbol
_atom_site_label
_atom_site_fract_x
_atom_site_fract_y
_atom_site_fract_z
Si Si1 0.298483 0.416393 0.195094
Si Si2 0.313389 0.686612 0.585163
Si Si3 0.587014 0.805256 0.628623
Si Si4 0.789492 0.585668 0.892889
Si Si5 0.692706 0.916035 0.768267
Si Si6 0.800328 0.800328 0.551494
Si Si7 0.421403 0.578598 0.550018
O O1 0.325615 0.500000 0.199212
O O2 0.369689 0.369689 0.183155
O O3 0.239022 0.406954 0.156597
O O4 0.263443 0.386545 0.240829
O O5 0.268619 0.627901 0.613881
O O6 0.261579 0.738422 0.556539
O O7 0.359992 0.640009 0.551469
O O8 0.500000 0.808422 0.615297
O O9 0.629706 0.875277 0.606921
O O10 0.596997 0.800742 0.680491
O O11 0.797759 0.500000 0.907228
O O12 0.730783 0.625180 0.925612
O O13 0.619461 0.880540 0.750000
O O14 0.683990 0.000000 0.755292
O O15 0.815744 0.815744 0.500000
O O16 0.396564 0.500000 0.571699
O O17 0.436414 0.563587 0.500000
#
# Coordination Sequence:
#
# PCOD8319706 Si02
#       7
#    32  16  32  32  32  16  16
#     4  10  20  34  53  75 102 138 179 222 267 318
#     4  10  20  34  52  75 104 138 172 218 257 309
#     4  10  21  34  51  78 109 145 185 220 259 310
#     4  10  20  36  56  80 107 138 176 218 270 327
#     4  10  20  32  48  73 104 138 177 217 258 303
#     4  10  21  37  57  82 105 131 171 218 270 329
#     4   9  17  30  51  76  98 125 161 202 254 308
#
# _framework density 17.566148999999999
#
# number of rings (size 3 to 8) (size 9 to 14) (size 15 to 20)
#    0.000    2.091    2.727    1.091    1.273    1.455 
#    0.000    1.818    0.000    5.182    0.000    5.727 
#    0.000    0.000    0.000    0.000    0.000    0.000 
#
# Total GULP energy -1090454.361184 kJ/mol
# GULP energy per Si atom -12391.526832 kJ/mol
# Density = 1.752617 g / cm^3
# Si number density = 17.566149 Si / 1000 Ang^3
#
#
#
# Elastic Constant Matrix: (Units=GPa)
#
#
# Indices 1 2 3 4 5 6 
#
# 1 96.2733 75.8845 30.8479 0.0000 0.0000 0.0000
# 2 75.8845 96.2605 30.8534 0.0000 0.0000 0.0000
# 3 30.8479 30.8534 67.3710 0.0000 0.0000 0.0000
# 4 0.0000 0.0000 0.0000 21.4998 0.0000 0.0000
# 5 0.0000 0.0000 0.0000 0.0000 21.5000 0.0000
# 6 0.0000 0.0000 0.0000 0.0000 0.0000 22.2642
#
#
#
# Elastic Compliance Matrix: (Units=1/GPa)
#
#
# Indices 1 2 3 4 5 6 
#
# 1 0.028003 -0.021056 -0.003179 0.000000 0.000000 0.000000
# 2 -0.021056 0.028009 -0.003186 0.000000 0.000000 0.000000
# 3 -0.003179 -0.003186 0.017758 0.000000 0.000000 0.000000
# 4 0.000000 0.000000 0.000000 0.046512 0.000000 0.000000
# 5 0.000000 0.000000 0.000000 0.000000 0.046512 0.000000
# 6 0.000000 0.000000 0.000000 0.000000 0.000000 0.044915
#
#
# Mechanical properties :
#
#
# Convention : Reuss Voigt Hill
#
# Bulk Modulus (GPa) = 52.83364 59.45294 56.14329
# Shear Modulus (GPa) = 18.32448 21.20738 19.76593
#
# Velocity S-wave (km/s) = 3.23332 3.47837 3.35808
# Velocity P-wave (km/s) = 6.63938 7.07466 6.86047
#
# Compressibility (1/GPa) = 0.01892733
#
# Stress axis : x y z
#
# Youngs Moduli (GPa) = 35.71091 35.70310 56.31372
#
# Poissons Ratio (x) = 0.75178 0.17901
# Poissons Ratio (y) = 0.75194 0.17940
# Poissons Ratio (z) = 0.11352 0.11374
#
# Static dielectric constant tensor:
#      x y z
#    x 3.372160 0.000000 0.000000 
#    y 0.000000 3.372160 0.000000 
#    z 0.000000 0.000000 3.180590 
# 
# 
# High freq. dielectric constant tensor:
#      x y z
#    x 1.681800 0.000000 0.000000 
#    y 0.000000 1.681800 0.000000 
#    z 0.000000 0.000000 1.666550 
# 
# From -- ./inp_files/14296.got.cif
#   From: 2010.03.12/outbox.cif.g09.slc.cpg/sg139_8_cif.got.tgz:14296.got - 2010.04.08 09:46:31.
