data_PCOD8319394
_publ_section_title
;
Structure prediction by ZEFSAII (Michael W. Deem and Ramdas Pophale) SiO2 
 PCOD8319394
Probable space group: I 4/M M M
;
_chemical_formula_sum "Si O2"
_cell_formula_units_Z 176
_cell_length_a 26.725674
_cell_length_b 26.725674
_cell_length_c 14.885570
_cell_angle_alpha 90.000000
_cell_angle_beta 90.000000
_cell_angle_gamma 90.000000
_cell_volume 10632.191801
_symmetry_space_group_name_H-M "I 4/M M M"
_symmetry_group_IT_number 139
_symmetry_cell_setting 'tetragonal'
loop_
_space_group_symop_operation_xyz
x,y,z
-y,x,z
-x,-y,z
y,-x,z
x,-y,-z
-x,y,-z
y,x,-z
-y,-x,-z
-x,-y,-z
y,-x,-z
x,y,-z
-y,x,-z
-x,y,z
x,-y,z
-y,-x,z
y,x,z
1/2+x,1/2+y,1/2+z
1/2-y,1/2+x,1/2+z
1/2-x,1/2-y,1/2+z
1/2+y,1/2-x,1/2+z
1/2+x,1/2-y,1/2-z
1/2-x,1/2+y,1/2-z
1/2+y,1/2+x,1/2-z
1/2-y,1/2-x,1/2-z
1/2-x,1/2-y,1/2-z
1/2+y,1/2-x,1/2-z
1/2+x,1/2+y,1/2-z
1/2-y,1/2+x,1/2-z
1/2-x,1/2+y,1/2+z
1/2+x,1/2-y,1/2+z
1/2-y,1/2-x,1/2+z
1/2+y,1/2+x,1/2+z
loop_
_atom_site_type_symbol
_atom_site_label
_atom_site_fract_x
_atom_site_fract_y
_atom_site_fract_z
Si Si1 0.344283 0.267029 0.500000
Si Si2 0.944157 0.440975 0.000000
Si Si3 0.290875 0.372590 0.316325
Si Si4 0.440537 0.114822 0.174516
Si Si5 0.056538 0.135356 0.101231
Si Si6 0.296112 0.136140 0.312823
Si Si7 0.736199 0.815525 0.500000
O O1 0.325524 0.325524 0.500000
O O2 0.374602 0.257884 0.591730
O O3 0.296770 0.232835 0.500000
O O4 0.912422 0.422863 0.915589
O O5 0.950060 0.500000 0.000000
O O6 0.000000 0.416830 0.000000
O O7 0.319177 0.319177 0.304655
O O8 0.330020 0.417628 0.324010
O O9 0.254513 0.382870 0.233783
O O10 0.500000 0.125157 0.178798
O O11 0.424436 0.075565 0.250000
O O12 0.411096 0.166983 0.180881
O O13 0.080531 0.080531 0.103480
O O14 0.000000 0.129238 0.130898
O O15 0.061980 0.158280 0.000000
O O16 0.320189 0.179812 0.250000
O O17 0.278327 0.153346 0.411140
O O18 0.794244 0.794244 0.500000
#
# Coordination Sequence:
#
# PCOD8319394 Si02
#       7
#    16  16  32  32  32  32  16
#     4   9  16  27  48  69  92 125 164 204 234 277
#     4   9  17  32  56  76  88 114 156 198 244 301
#     4  10  18  31  49  70  97 135 175 204 238 296
#     4  10  21  36  53  74  99 126 160 206 257 306
#     4   9  17  29  47  72 101 133 169 209 252 300
#     4  11  22  33  49  74 102 133 165 209 257 301
#     4  11  21  33  50  73 100 129 167 211 252 296
#
# _framework density 16.553501000000001
#
# number of rings (size 3 to 8) (size 9 to 14) (size 15 to 20)
#    0.000    2.091    2.727    1.636    0.000    2.545 
#    0.000    0.909    0.000    0.000    0.000    0.000 
#    0.000    0.000    0.000    0.000    0.000    8.364 
#
# Total GULP energy -1090581.862001 kJ/mol
# GULP energy per Si atom -12392.975705 kJ/mol
# Density = 1.651582 g / cm^3
# Si number density = 16.553501 Si / 1000 Ang^3
#
#
#
# Elastic Constant Matrix: (Units=GPa)
#
#
# Indices 1 2 3 4 5 6 
#
# 1 96.9041 43.9555 50.6815 0.0000 0.0000 0.0000
# 2 43.9555 96.9046 50.6814 0.0000 0.0000 0.0000
# 3 50.6815 50.6814 128.7521 0.0000 0.0000 0.0000
# 4 0.0000 0.0000 0.0000 6.5455 0.0000 0.0000
# 5 0.0000 0.0000 0.0000 0.0000 6.5598 0.0000
# 6 0.0000 0.0000 0.0000 0.0000 0.0000 18.3599
#
#
#
# Elastic Compliance Matrix: (Units=1/GPa)
#
#
# Indices 1 2 3 4 5 6 
#
# 1 0.014396 -0.004491 -0.003899 0.000000 0.000000 0.000000
# 2 -0.004491 0.014395 -0.003899 0.000000 0.000000 0.000000
# 3 -0.003899 -0.003899 0.010836 0.000000 0.000000 0.000000
# 4 0.000000 0.000000 0.000000 0.152778 0.000000 0.000000
# 5 0.000000 0.000000 0.000000 0.000000 0.152444 0.000000
# 6 0.000000 0.000000 0.000000 0.000000 0.000000 0.054467
#
#
# Mechanical properties :
#
#
# Convention : Reuss Voigt Hill
#
# Bulk Modulus (GPa) = 66.44297 68.13308 67.28802
# Shear Modulus (GPa) = 11.65748 18.10920 14.88334
#
# Velocity S-wave (km/s) = 2.65661 3.31112 3.00176
# Velocity P-wave (km/s) = 7.04525 7.47441 7.26300
#
# Compressibility (1/GPa) = 0.01505050
#
# Stress axis : x y z
#
# Youngs Moduli (GPa) = 69.46571 69.46624 92.28171
#
# Poissons Ratio (x) = 0.31195 0.35980
# Poissons Ratio (y) = 0.31194 0.35980
# Poissons Ratio (z) = 0.27084 0.27084
#
# Static dielectric constant tensor:
#      x y z
#    x 2.996260 0.000000 0.000000 
#    y 0.000000 2.996260 0.000000 
#    z 0.000000 0.000000 3.374800 
# 
# 
# High freq. dielectric constant tensor:
#      x y z
#    x 1.625520 0.000000 0.000000 
#    y 0.000000 1.625530 0.000000 
#    z 0.000000 0.000000 1.634590 
# 
# From -- ./inp_files/4059.got.cif
#   From: 2010.03.12/outbox.cif.g09.slc.cpg/sg139_3_cif.got.tgz:4059.got - 2010.04.08 09:46:31.
