data_PCOD8319758
_publ_section_title
;
Structure prediction by ZEFSAII (Michael W. Deem and Ramdas Pophale) SiO2 
 PCOD8319758
Probable space group: I 4/M M M
;
_chemical_formula_sum "Si O2"
_cell_formula_units_Z 160
_cell_length_a 31.784656
_cell_length_b 31.784656
_cell_length_c 8.984074
_cell_angle_alpha 90.000000
_cell_angle_beta 90.000000
_cell_angle_gamma 90.000000
_cell_volume 9076.289743
_symmetry_space_group_name_H-M "I 4/M M M"
_symmetry_group_IT_number 139
_symmetry_cell_setting 'tetragonal'
loop_
_space_group_symop_operation_xyz
x,y,z
-y,x,z
-x,-y,z
y,-x,z
x,-y,-z
-x,y,-z
y,x,-z
-y,-x,-z
-x,-y,-z
y,-x,-z
x,y,-z
-y,x,-z
-x,y,z
x,-y,z
-y,-x,z
y,x,z
1/2+x,1/2+y,1/2+z
1/2-y,1/2+x,1/2+z
1/2-x,1/2-y,1/2+z
1/2+y,1/2-x,1/2+z
1/2+x,1/2-y,1/2-z
1/2-x,1/2+y,1/2-z
1/2+y,1/2+x,1/2-z
1/2-y,1/2-x,1/2-z
1/2-x,1/2-y,1/2-z
1/2+y,1/2-x,1/2-z
1/2+x,1/2+y,1/2-z
1/2-y,1/2+x,1/2-z
1/2-x,1/2+y,1/2+z
1/2+x,1/2-y,1/2+z
1/2-y,1/2-x,1/2+z
1/2+y,1/2+x,1/2+z
loop_
_atom_site_type_symbol
_atom_site_label
_atom_site_fract_x
_atom_site_fract_y
_atom_site_fract_z
Si Si1 0.255125 0.916150 0.674567
Si Si2 0.000000 0.645477 0.832787
Si Si3 0.754954 0.500000 0.333737
Si Si4 0.914835 0.647873 0.323990
Si Si5 0.383884 0.451707 0.173291
Si Si6 0.390200 0.321878 0.327137
O O1 0.249210 0.918083 0.500000
O O2 0.239219 0.959854 0.743952
O O3 0.303359 0.906627 0.716605
O O4 0.223151 0.882358 0.745962
O O5 0.041452 0.630618 0.744142
O O6 0.000000 0.695131 0.840822
O O7 0.000000 0.626199 0.000000
O O8 0.735920 0.500000 0.500000
O O9 0.916050 0.640498 0.500000
O O10 0.876689 0.623312 0.250000
O O11 0.389369 0.500000 0.224031
O O12 0.427514 0.427514 0.208306
O O13 0.345807 0.430882 0.263503
O O14 0.372475 0.448408 0.000000
O O15 0.397687 0.313779 0.500000
O O16 0.348399 0.348399 0.295781
#
# Coordination Sequence:
#
# PCOD8319758 Si02
#       6
#    32  16  16  32  32  32
#     4  10  20  33  51  75 102 132 167 208 255 306
#     4   9  17  31  51  76 108 143 175 208 248 291
#     4   9  17  29  47  73 102 130 162 202 249 301
#     4  10  20  34  54  81 111 142 175 212 253 298
#     4   9  18  32  49  69  94 126 165 210 260 313
#     4  10  21  35  50  69  95 129 168 211 261 315
#
# _framework density 17.628347999999999
#
# number of rings (size 3 to 8) (size 9 to 14) (size 15 to 20)
#    0.000    2.400    0.000    2.400    1.400    6.600 
#    0.000    1.000    0.000    0.900    0.000    4.900 
#    0.000    0.000    0.000    0.000    0.000    0.000 
#
# Total GULP energy -991944.646274 kJ/mol
# GULP energy per Si atom -12399.308078 kJ/mol
# Density = 1.758823 g / cm^3
# Si number density = 17.628348 Si / 1000 Ang^3
#
#
#
# Elastic Constant Matrix: (Units=GPa)
#
#
# Indices 1 2 3 4 5 6 
#
# 1 101.0782 53.7190 60.9632 0.0000 0.0000 0.0000
# 2 53.7190 101.0701 60.9638 0.0000 0.0000 0.0000
# 3 60.9632 60.9638 113.4178 0.0000 0.0000 0.0000
# 4 0.0000 0.0000 0.0000 29.5269 0.0000 0.0000
# 5 0.0000 0.0000 0.0000 0.0000 29.5273 0.0000
# 6 0.0000 0.0000 0.0000 0.0000 0.0000 16.0727
#
#
#
# Elastic Compliance Matrix: (Units=1/GPa)
#
#
# Indices 1 2 3 4 5 6 
#
# 1 0.016159 -0.004957 -0.006022 0.000000 0.000000 0.000000
# 2 -0.004957 0.016161 -0.006023 0.000000 0.000000 0.000000
# 3 -0.006022 -0.006023 0.015291 0.000000 0.000000 0.000000
# 4 0.000000 0.000000 0.000000 0.033867 0.000000 0.000000
# 5 0.000000 0.000000 0.000000 0.000000 0.033867 0.000000
# 6 0.000000 0.000000 0.000000 0.000000 0.000000 0.062217
#
#
# Mechanical properties :
#
#
# Convention : Reuss Voigt Hill
#
# Bulk Modulus (GPa) = 73.47648 74.09536 73.78592
# Shear Modulus (GPa) = 23.13722 24.35338 23.74530
#
# Velocity S-wave (km/s) = 3.62678 3.72087 3.67412
# Velocity P-wave (km/s) = 7.70126 7.78351 7.74249
#
# Compressibility (1/GPa) = 0.01360980
#
# Stress axis : x y z
#
# Youngs Moduli (GPa) = 61.88367 61.87576 65.39830
#
# Poissons Ratio (x) = 0.30670 0.39380
# Poissons Ratio (y) = 0.30674 0.39388
# Poissons Ratio (z) = 0.37263 0.37266
#
# Static dielectric constant tensor:
#      x y z
#    x 3.248740 0.000000 0.000000 
#    y 0.000000 3.248740 0.000000 
#    z 0.000000 0.000000 3.414310 
# 
# 
# High freq. dielectric constant tensor:
#      x y z
#    x 1.666330 0.000000 0.000000 
#    y 0.000000 1.666330 0.000000 
#    z 0.000000 0.000000 1.696660 
# 
# From -- ./inp_files/2238.got.cif
#   From: 2010.03.12/outbox.cif.g09.slc.cpg/sg139_2_cif.got.tgz:2238.got - 2010.04.08 09:46:31.
