data_PCOD8319815
_publ_section_title
;
Structure prediction by ZEFSAII (Michael W. Deem and Ramdas Pophale) SiO2 
 PCOD8319815
Probable space group: I 4/M M M
;
_chemical_formula_sum "Si O2"
_cell_formula_units_Z 160
_cell_length_a 19.367583
_cell_length_b 19.367583
_cell_length_c 22.850668
_cell_angle_alpha 90.000000
_cell_angle_beta 90.000000
_cell_angle_gamma 90.000000
_cell_volume 8571.360317
_symmetry_space_group_name_H-M "I 4/M M M"
_symmetry_group_IT_number 139
_symmetry_cell_setting 'tetragonal'
loop_
_space_group_symop_operation_xyz
x,y,z
-y,x,z
-x,-y,z
y,-x,z
x,-y,-z
-x,y,-z
y,x,-z
-y,-x,-z
-x,-y,-z
y,-x,-z
x,y,-z
-y,x,-z
-x,y,z
x,-y,z
-y,-x,z
y,x,z
1/2+x,1/2+y,1/2+z
1/2-y,1/2+x,1/2+z
1/2-x,1/2-y,1/2+z
1/2+y,1/2-x,1/2+z
1/2+x,1/2-y,1/2-z
1/2-x,1/2+y,1/2-z
1/2+y,1/2+x,1/2-z
1/2-y,1/2-x,1/2-z
1/2-x,1/2-y,1/2-z
1/2+y,1/2-x,1/2-z
1/2+x,1/2+y,1/2-z
1/2-y,1/2+x,1/2-z
1/2-x,1/2+y,1/2+z
1/2+x,1/2-y,1/2+z
1/2-y,1/2-x,1/2+z
1/2+y,1/2+x,1/2+z
loop_
_atom_site_type_symbol
_atom_site_label
_atom_site_fract_x
_atom_site_fract_y
_atom_site_fract_z
Si Si1 0.195468 0.919162 0.335733
Si Si2 0.676533 0.077917 0.110333
Si Si3 0.080444 0.695925 0.566760
Si Si4 0.180551 0.075030 0.933035
Si Si5 0.077915 0.309199 0.242665
O O1 0.125873 0.874128 0.333594
O O2 0.234758 0.903517 0.396785
O O3 0.245021 0.896267 0.281981
O O4 0.175174 0.000000 0.331053
O O5 0.615102 0.130731 0.098542
O O6 0.740011 0.098840 0.068861
O O7 0.709982 0.082563 0.174744
O O8 0.649453 0.000000 0.097678
O O9 0.106669 0.705801 0.500000
O O10 0.000000 0.679224 0.567951
O O11 0.130416 0.130416 0.901451
O O12 0.171856 0.000000 0.902178
O O13 0.159028 0.069054 0.000000
O O14 0.122696 0.377305 0.250000
O O15 0.000000 0.327883 0.262153
#
# Coordination Sequence:
#
# PCOD8319815 Si02
#       5
#    32  32  32  32  32
#     4  10  22  40  60  83 111 143 184 233 284 336
#     4  10  20  34  54  80 112 147 183 221 263 320
#     4  10  21  37  56  80 112 147 185 230 278 329
#     4   9  18  32  49  71 101 136 175 219 263 308
#     4  10  20  36  57  83 113 145 181 219 264 320
#
# _framework density 18.666815
#
# number of rings (size 3 to 8) (size 9 to 14) (size 15 to 20)
#    0.000    2.200    2.000    0.600    0.000    4.600 
#    0.000    4.000    0.000    0.000    0.000    8.400 
#    0.000    0.000    0.000    0.000    0.000    0.000 
#
# Total GULP energy -991641.699417 kJ/mol
# GULP energy per Si atom -12395.521243 kJ/mol
# Density = 1.862433 g / cm^3
# Si number density = 18.666815 Si / 1000 Ang^3
#
#
#
# Elastic Constant Matrix: (Units=GPa)
#
#
# Indices 1 2 3 4 5 6 
#
# 1 96.5707 72.8817 31.1061 0.0000 0.0000 0.0000
# 2 72.8817 96.5673 31.1063 0.0000 0.0000 0.0000
# 3 31.1061 31.1063 93.2987 0.0000 0.0000 0.0000
# 4 0.0000 0.0000 0.0000 20.8777 0.0000 0.0000
# 5 0.0000 0.0000 0.0000 0.0000 20.8780 0.0000
# 6 0.0000 0.0000 0.0000 0.0000 0.0000 41.4736
#
#
#
# Elastic Compliance Matrix: (Units=1/GPa)
#
#
# Indices 1 2 3 4 5 6 
#
# 1 0.024470 -0.017746 -0.002242 0.000000 0.000000 0.000000
# 2 -0.017746 0.024471 -0.002242 0.000000 0.000000 0.000000
# 3 -0.002242 -0.002242 0.012213 0.000000 0.000000 0.000000
# 4 0.000000 0.000000 0.000000 0.047898 0.000000 0.000000
# 5 0.000000 0.000000 0.000000 0.000000 0.047897 0.000000
# 6 0.000000 0.000000 0.000000 0.000000 0.000000 0.024112
#
#
# Mechanical properties :
#
#
# Convention : Reuss Voigt Hill
#
# Bulk Modulus (GPa) = 59.90044 61.84720 60.87382
# Shear Modulus (GPa) = 21.63695 26.73538 24.18616
#
# Velocity S-wave (km/s) = 3.40827 3.78860 3.60346
# Velocity P-wave (km/s) = 6.90270 7.23478 7.07069
#
# Compressibility (1/GPa) = 0.01669437
#
# Stress axis : x y z
#
# Youngs Moduli (GPa) = 40.86625 40.86458 81.87836
#
# Poissons Ratio (x) = 0.72518 0.18355
# Poissons Ratio (y) = 0.72521 0.18359
# Poissons Ratio (z) = 0.09161 0.09163
#
# Static dielectric constant tensor:
#      x y z
#    x 3.386780 0.000000 0.000000 
#    y 0.000000 3.386780 0.000000 
#    z 0.000000 0.000000 3.681990 
# 
# 
# High freq. dielectric constant tensor:
#      x y z
#    x 1.716860 0.000000 0.000000 
#    y 0.000000 1.716860 0.000000 
#    z 0.000000 0.000000 1.728090 
# 
# From -- ./inp_files/12931.got.cif
#   From: 2010.03.12/outbox.cif.g09.slc.cpg/sg139_7_cif.got.tgz:12931.got - 2010.04.08 09:46:31.
