data_PCOD8319537
_publ_section_title
;
Structure prediction by ZEFSAII (Michael W. Deem and Ramdas Pophale) SiO2 
 PCOD8319537
Probable space group: I 4/M M M
;
_chemical_formula_sum "Si O2"
_cell_formula_units_Z 144
_cell_length_a 22.305680
_cell_length_b 22.305680
_cell_length_c 16.487124
_cell_angle_alpha 90.000000
_cell_angle_beta 90.000000
_cell_angle_gamma 90.000000
_cell_volume 8203.059076
_symmetry_space_group_name_H-M "I 4/M M M"
_symmetry_group_IT_number 139
_symmetry_cell_setting 'tetragonal'
loop_
_space_group_symop_operation_xyz
x,y,z
-y,x,z
-x,-y,z
y,-x,z
x,-y,-z
-x,y,-z
y,x,-z
-y,-x,-z
-x,-y,-z
y,-x,-z
x,y,-z
-y,x,-z
-x,y,z
x,-y,z
-y,-x,z
y,x,z
1/2+x,1/2+y,1/2+z
1/2-y,1/2+x,1/2+z
1/2-x,1/2-y,1/2+z
1/2+y,1/2-x,1/2+z
1/2+x,1/2-y,1/2-z
1/2-x,1/2+y,1/2-z
1/2+y,1/2+x,1/2-z
1/2-y,1/2-x,1/2-z
1/2-x,1/2-y,1/2-z
1/2+y,1/2-x,1/2-z
1/2+x,1/2+y,1/2-z
1/2-y,1/2+x,1/2-z
1/2-x,1/2+y,1/2+z
1/2+x,1/2-y,1/2+z
1/2-y,1/2-x,1/2+z
1/2+y,1/2+x,1/2+z
loop_
_atom_site_type_symbol
_atom_site_label
_atom_site_fract_x
_atom_site_fract_y
_atom_site_fract_z
Si Si1 0.729369 0.931805 0.809526
Si Si2 0.626195 0.874015 0.594776
Si Si3 0.931356 0.500000 0.095117
Si Si4 0.434584 0.342538 0.595359
Si Si5 0.238928 0.335260 0.184849
O O1 0.664954 0.913835 0.844190
O O2 0.774588 0.919219 0.883204
O O3 0.755048 0.896119 0.732002
O O4 0.726888 0.000000 0.781416
O O5 0.611751 0.862419 0.500000
O O6 0.695839 0.855702 0.610507
O O7 0.608329 0.941912 0.620336
O O8 0.000000 0.500000 0.132384
O O9 0.939684 0.500000 0.000000
O O10 0.432226 0.348564 0.500000
O O11 0.500000 0.360487 0.628900
O O12 0.386987 0.386987 0.636713
O O13 0.297919 0.297919 0.153954
O O14 0.204937 0.295064 0.250000
#
# Coordination Sequence:
#
# PCOD8319537 Si02
#       5
#    32  32  16  32  32
#     4  10  19  31  50  71  96 128 165 207 250 299
#     4  10  20  33  51  73  99 131 169 212 257 305
#     4   9  18  32  50  72 100 132 162 200 254 309
#     4   9  17  28  43  66  94 124 160 199 243 296
#     4   9  19  34  49  68  97 130 167 209 255 301
#
# _framework density 17.554427
#
# number of rings (size 3 to 8) (size 9 to 14) (size 15 to 20)
#    0.000    2.556    0.000    2.000    1.556    3.778 
#    0.000    1.111    0.000    0.000    0.000    0.000 
#    0.000    0.000    0.000    0.000    0.000    6.222 
#
# Total GULP energy -892035.533224 kJ/mol
# GULP energy per Si atom -12389.382406 kJ/mol
# Density = 1.751447 g / cm^3
# Si number density = 17.554427 Si / 1000 Ang^3
#
#
#
# Elastic Constant Matrix: (Units=GPa)
#
#
# Indices 1 2 3 4 5 6 
#
# 1 106.5952 76.6443 18.8080 0.0000 0.0000 0.0000
# 2 76.6443 106.5945 18.8078 0.0000 0.0000 0.0000
# 3 18.8080 18.8078 24.1162 0.0000 0.0000 0.0000
# 4 0.0000 0.0000 0.0000 20.4364 0.0000 0.0000
# 5 0.0000 0.0000 0.0000 0.0000 20.4365 0.0000
# 6 0.0000 0.0000 0.0000 0.0000 0.0000 32.9308
#
#
#
# Elastic Compliance Matrix: (Units=1/GPa)
#
#
# Indices 1 2 3 4 5 6 
#
# 1 0.019943 -0.013445 -0.005068 0.000000 0.000000 0.000000
# 2 -0.013445 0.019943 -0.005067 0.000000 0.000000 0.000000
# 3 -0.005068 -0.005067 0.049370 0.000000 0.000000 0.000000
# 4 0.000000 0.000000 0.000000 0.048932 0.000000 0.000000
# 5 0.000000 0.000000 0.000000 0.000000 0.048932 0.000000
# 6 0.000000 0.000000 0.000000 0.000000 0.000000 0.030367
#
#
# Mechanical properties :
#
#
# Convention : Reuss Voigt Hill
#
# Bulk Modulus (GPa) = 23.75548 51.75845 37.75696
# Shear Modulus (GPa) = 17.94176 22.96377 20.45277
#
# Velocity S-wave (km/s) = 3.20044 3.62076 3.41707
# Velocity P-wave (km/s) = 5.21718 6.85772 6.09292
#
# Compressibility (1/GPa) = 0.04209555
#
# Stress axis : x y z
#
# Youngs Moduli (GPa) = 50.14297 50.14282 20.25524
#
# Poissons Ratio (x) = 0.67419 0.10264
# Poissons Ratio (y) = 0.67419 0.10264
# Poissons Ratio (z) = 0.25410 0.25409
#
# Static dielectric constant tensor:
#      x y z
#    x 3.566470 0.000000 0.000000 
#    y 0.000000 3.566480 0.000000 
#    z 0.000000 0.000000 2.982430 
# 
# 
# High freq. dielectric constant tensor:
#      x y z
#    x 1.681170 0.000000 0.000000 
#    y 0.000000 1.681170 0.000000 
#    z 0.000000 0.000000 1.643290 
# 
# From -- ./inp_files/8139.got.cif
#   From: 2010.03.12/outbox.cif.g09.slc.cpg/sg139_5_cif.got.tgz:8139.got - 2010.04.08 09:46:31.
