data_PCOD8319395
_publ_section_title
;
Structure prediction by ZEFSAII (Michael W. Deem and Ramdas Pophale) SiO2 
 PCOD8319395
Probable space group: I 4/M M M
;
_chemical_formula_sum "Si O2"
_cell_formula_units_Z 128
_cell_length_a 31.777808
_cell_length_b 31.777808
_cell_length_c 7.501215
_cell_angle_alpha 90.000000
_cell_angle_beta 90.000000
_cell_angle_gamma 90.000000
_cell_volume 7574.945052
_symmetry_space_group_name_H-M "I 4/M M M"
_symmetry_group_IT_number 139
_symmetry_cell_setting 'tetragonal'
loop_
_space_group_symop_operation_xyz
x,y,z
-y,x,z
-x,-y,z
y,-x,z
x,-y,-z
-x,y,-z
y,x,-z
-y,-x,-z
-x,-y,-z
y,-x,-z
x,y,-z
-y,x,-z
-x,y,z
x,-y,z
-y,-x,z
y,x,z
1/2+x,1/2+y,1/2+z
1/2-y,1/2+x,1/2+z
1/2-x,1/2-y,1/2+z
1/2+y,1/2-x,1/2+z
1/2+x,1/2-y,1/2-z
1/2-x,1/2+y,1/2-z
1/2+y,1/2+x,1/2-z
1/2-y,1/2-x,1/2-z
1/2-x,1/2-y,1/2-z
1/2+y,1/2-x,1/2-z
1/2+x,1/2+y,1/2-z
1/2-y,1/2+x,1/2-z
1/2-x,1/2+y,1/2+z
1/2+x,1/2-y,1/2+z
1/2-y,1/2-x,1/2+z
1/2+y,1/2+x,1/2+z
loop_
_atom_site_type_symbol
_atom_site_label
_atom_site_fract_x
_atom_site_fract_y
_atom_site_fract_z
Si Si1 0.361569 0.296552 0.000000
Si Si2 0.798618 0.577091 0.294754
Si Si3 0.234486 0.666861 0.297965
Si Si4 0.452075 0.263134 0.000000
Si Si5 0.045869 0.613307 0.207935
O O1 0.341218 0.274203 0.172166
O O2 0.412992 0.296750 0.000000
O O3 0.344882 0.344882 0.000000
O O4 0.792028 0.563086 0.500000
O O5 0.796404 0.627261 0.273885
O O6 0.844029 0.565482 0.213761
O O7 0.764167 0.552722 0.178533
O O8 0.251232 0.670465 0.500000
O O9 0.209247 0.709247 0.250000
O O10 0.500000 0.282781 0.000000
O O11 0.073122 0.573122 0.250000
O O12 0.000000 0.605909 0.293581
O O13 0.042157 0.619703 0.000000
#
# Coordination Sequence:
#
# PCOD8319395 Si02
#       5
#    16  32  32  16  32
#     4  10  22  36  48  70 104 134 163 200 236 277
#     4   9  19  33  51  72  95 115 147 199 242 282
#     4  10  18  31  49  71  97 132 168 198 236 278
#     4  10  20  34  56  78  93 121 158 191 233 278
#     4  10  21  34  46  61  80 106 139 182 239 293
#
# _framework density 16.897811999999998
#
# number of rings (size 3 to 8) (size 9 to 14) (size 15 to 20)
#    0.000    2.250    1.250    1.500    1.750    3.250 
#    0.000    1.250    0.000    0.000    0.000    0.000 
#    0.000    0.250    0.000    0.000    0.000    0.000 
#
# Total GULP energy -793213.498909 kJ/mol
# GULP energy per Si atom -12393.960920 kJ/mol
# Density = 1.685935 g / cm^3
# Si number density = 16.897812 Si / 1000 Ang^3
#
#
#
# Elastic Constant Matrix: (Units=GPa)
#
#
# Indices 1 2 3 4 5 6 
#
# 1 86.9141 62.2740 19.4252 0.0000 0.0000 0.0000
# 2 62.2740 86.9141 19.4252 0.0000 0.0000 0.0000
# 3 19.4252 19.4252 81.5013 0.0000 0.0000 0.0000
# 4 0.0000 0.0000 0.0000 4.5050 0.0000 0.0000
# 5 0.0000 0.0000 0.0000 0.0000 4.5050 0.0000
# 6 0.0000 0.0000 0.0000 0.0000 0.0000 23.4585
#
#
#
# Elastic Compliance Matrix: (Units=1/GPa)
#
#
# Indices 1 2 3 4 5 6 
#
# 1 0.023865 -0.016719 -0.001703 0.000000 0.000000 0.000000
# 2 -0.016719 0.023865 -0.001703 0.000000 0.000000 0.000000
# 3 -0.001703 -0.001703 0.013082 0.000000 0.000000 0.000000
# 4 0.000000 0.000000 0.000000 0.221977 0.000000 0.000000
# 5 0.000000 0.000000 0.000000 0.000000 0.221977 0.000000
# 6 0.000000 0.000000 0.000000 0.000000 0.000000 0.042629
#
#
# Mechanical properties :
#
#
# Convention : Reuss Voigt Hill
#
# Bulk Modulus (GPa) = 48.63469 50.84201 49.73835
# Shear Modulus (GPa) = 8.41042 16.77403 12.59222
#
# Velocity S-wave (km/s) = 2.23339 3.15409 2.73279
# Velocity P-wave (km/s) = 5.95775 6.58921 6.28142
#
# Compressibility (1/GPa) = 0.02056146
#
# Stress axis : x y z
#
# Youngs Moduli (GPa) = 41.90173 41.90173 76.44277
#
# Poissons Ratio (x) = 0.70055 0.13021
# Poissons Ratio (y) = 0.70055 0.13021
# Poissons Ratio (z) = 0.07137 0.07137
#
# Static dielectric constant tensor:
#      x y z
#    x 3.027770 0.000000 0.000000 
#    y 0.000000 3.027770 0.000000 
#    z 0.000000 0.000000 3.404820 
# 
# 
# High freq. dielectric constant tensor:
#      x y z
#    x 1.622980 0.000000 0.000000 
#    y 0.000000 1.622980 0.000000 
#    z 0.000000 0.000000 1.668740 
# 
# From -- ./inp_files/1836.got.cif
#   From: 2010.03.12/outbox.cif.g09.slc.cpg/sg139_1_cif.got.tgz:1836.got - 2010.04.08 09:46:31.
