data_PCOD8319293
_publ_section_title
;
Structure prediction by ZEFSAII (Michael W. Deem and Ramdas Pophale) SiO2 
 PCOD8319293
Probable space group: I 4/M M M
;
_chemical_formula_sum "Si O2"
_cell_formula_units_Z 112
_cell_length_a 17.562432
_cell_length_b 17.562432
_cell_length_c 21.199613
_cell_angle_alpha 90.000000
_cell_angle_beta 90.000000
_cell_angle_gamma 90.000000
_cell_volume 6538.787810
_symmetry_space_group_name_H-M "I 4/M M M"
_symmetry_group_IT_number 139
_symmetry_cell_setting 'tetragonal'
loop_
_space_group_symop_operation_xyz
x,y,z
-y,x,z
-x,-y,z
y,-x,z
x,-y,-z
-x,y,-z
y,x,-z
-y,-x,-z
-x,-y,-z
y,-x,-z
x,y,-z
-y,x,-z
-x,y,z
x,-y,z
-y,-x,z
y,x,z
1/2+x,1/2+y,1/2+z
1/2-y,1/2+x,1/2+z
1/2-x,1/2-y,1/2+z
1/2+y,1/2-x,1/2+z
1/2+x,1/2-y,1/2-z
1/2-x,1/2+y,1/2-z
1/2+y,1/2+x,1/2-z
1/2-y,1/2-x,1/2-z
1/2-x,1/2-y,1/2-z
1/2+y,1/2-x,1/2-z
1/2+x,1/2+y,1/2-z
1/2-y,1/2+x,1/2-z
1/2-x,1/2+y,1/2+z
1/2+x,1/2-y,1/2+z
1/2-y,1/2-x,1/2+z
1/2+y,1/2+x,1/2+z
loop_
_atom_site_type_symbol
_atom_site_label
_atom_site_fract_x
_atom_site_fract_y
_atom_site_fract_z
Si Si1 0.915062 0.411937 0.616984
Si Si2 0.644740 0.235101 0.570377
Si Si3 0.413480 0.291799 0.697134
Si Si4 0.865576 0.365576 0.750000
O O1 0.891531 0.500000 0.605935
O O2 0.856254 0.356409 0.580530
O O3 0.914526 0.394015 0.691048
O O4 0.000000 0.396777 0.590855
O O5 0.614498 0.253964 0.500000
O O6 0.730546 0.269455 0.578892
O O7 0.590202 0.273357 0.622346
O O8 0.500000 0.305321 0.716946
O O9 0.368016 0.368016 0.713792
O O10 0.378122 0.223565 0.737745
#
# Coordination Sequence:
#
# PCOD8319293 Si02
#       4
#    32  32  32  16
#     4  10  19  29  45  70  96 119 143 179 226 268
#     4   9  18  32  47  63  87 120 155 185 215 259
#     4  10  20  32  48  68  89 117 150 186 225 262
#     4  10  17  31  48  66  92 119 151 180 212 266
#
# _framework density 17.128556
#
# number of rings (size 3 to 8) (size 9 to 14) (size 15 to 20)
#    0.000    2.286    0.000    5.571    0.000    5.429 
#    0.000    1.429    0.000    0.000    0.000    4.000 
#    0.000    0.571    0.000    3.143    0.000    0.000 
#
# Total GULP energy -694129.582446 kJ/mol
# GULP energy per Si atom -12395.171115 kJ/mol
# Density = 1.708957 g / cm^3
# Si number density = 17.128556 Si / 1000 Ang^3
#
#
#
# Elastic Constant Matrix: (Units=GPa)
#
#
# Indices 1 2 3 4 5 6 
#
# 1 106.2851 93.6907 23.5850 0.0000 0.0000 0.0000
# 2 93.6907 106.2851 23.5850 0.0000 0.0000 0.0000
# 3 23.5850 23.5850 44.3323 0.0000 0.0000 0.0000
# 4 0.0000 0.0000 0.0000 13.6758 0.0000 0.0000
# 5 0.0000 0.0000 0.0000 0.0000 13.6758 0.0000
# 6 0.0000 0.0000 0.0000 0.0000 0.0000 31.1134
#
#
#
# Elastic Compliance Matrix: (Units=1/GPa)
#
#
# Indices 1 2 3 4 5 6 
#
# 1 0.042559 -0.036841 -0.003042 0.000000 0.000000 0.000000
# 2 -0.036841 0.042559 -0.003042 0.000000 0.000000 0.000000
# 3 -0.003042 -0.003042 0.025794 0.000000 0.000000 0.000000
# 4 0.000000 0.000000 0.000000 0.073122 0.000000 0.000000
# 5 0.000000 0.000000 0.000000 0.000000 0.073122 0.000000
# 6 0.000000 0.000000 0.000000 0.000000 0.000000 0.032140
#
#
# Mechanical properties :
#
#
# Convention : Reuss Voigt Hill
#
# Bulk Modulus (GPa) = 39.90151 59.84708 49.87429
# Shear Modulus (GPa) = 13.03776 19.42911 16.23343
#
# Velocity S-wave (km/s) = 2.76193 3.37161 3.08188
# Velocity P-wave (km/s) = 5.78938 7.08327 6.46876
#
# Compressibility (1/GPa) = 0.02506171
#
# Stress axis : x y z
#
# Youngs Moduli (GPa) = 23.49662 23.49662 38.76912
#
# Poissons Ratio (x) = 0.86564 0.11794
# Poissons Ratio (y) = 0.86564 0.11794
# Poissons Ratio (z) = 0.07148 0.07148
#
# Static dielectric constant tensor:
#      x y z
#    x 3.184520 0.000000 0.000000 
#    y 0.000000 3.184520 0.000000 
#    z 0.000000 0.000000 3.181030 
# 
# 
# High freq. dielectric constant tensor:
#      x y z
#    x 1.650830 0.000000 0.000000 
#    y 0.000000 1.650830 0.000000 
#    z 0.000000 0.000000 1.654660 
# 
# From -- ./inp_files/9711.got.cif
#   From: 2010.03.12/outbox.cif.g09.slc.cpg/sg139_5_cif.got.tgz:9711.got - 2010.04.08 09:46:31.
