data_PCOD8319041
_publ_section_title
;
Structure prediction by ZEFSAII (Michael W. Deem and Ramdas Pophale) SiO2 
 PCOD8319041
Probable space group: P 42/N C M
;
_chemical_formula_sum "Si O2"
_cell_formula_units_Z 112
_cell_length_a 15.673521
_cell_length_b 15.673521
_cell_length_c 22.750931
_cell_angle_alpha 90.000000
_cell_angle_beta 90.000000
_cell_angle_gamma 90.000000
_cell_volume 5588.976886
_symmetry_space_group_name_H-M "P 42/N C M"
_symmetry_group_IT_number 138
_space_group.IT_coordinate_system_code '2'
_symmetry_cell_setting 'tetragonal'
loop_
_space_group_symop_operation_xyz
x,y,z
1/2-y,x,1/2+z
1/2-x,1/2-y,z
y,1/2-x,1/2+z
1/2+x,-y,1/2-z
-x,1/2+y,1/2-z
1/2+y,1/2+x,-z
-y,-x,-z
-x,-y,-z
1/2+y,-x,1/2-z
1/2+x,1/2+y,-z
-y,1/2+x,1/2-z
1/2-x,y,1/2+z
x,1/2-y,1/2+z
1/2-y,1/2-x,z
y,x,z
loop_
_atom_site_type_symbol
_atom_site_label
_atom_site_fract_x
_atom_site_fract_y
_atom_site_fract_z
Si Si1 0.924999 0.309515 0.427294
Si Si2 0.458352 0.174781 0.330607
Si Si3 0.182722 0.679409 0.852381
Si Si4 0.060568 0.195044 0.239843
Si Si5 0.425678 0.563568 0.736903
Si Si6 0.252782 0.390858 0.621465
Si Si7 0.565380 0.278766 0.059407
O O1 0.017201 0.330928 0.399493
O O2 0.892120 0.242743 0.379134
O O3 0.873978 0.399035 0.429350
O O4 0.929867 0.262183 0.489593
O O5 0.450429 0.269332 0.305303
O O6 0.527453 0.130197 0.289044
O O7 0.366467 0.133534 0.323431
O O8 0.250000 0.750000 0.824939
O O9 0.114013 0.637478 0.807772
O O10 0.128980 0.716404 0.906742
O O11 0.151316 0.151316 0.238496
O O12 0.065139 0.263416 0.186161
O O13 0.983124 0.131405 0.228209
O O14 0.489207 0.489207 0.708822
O O15 0.172244 0.327757 0.618599
O O16 0.340086 0.340086 0.606303
O O17 0.234943 0.466933 0.576104
#
# Coordination Sequence:
#
# PCOD8319041 Si02
#       7
#    16  16  16  16  16  16  16
#     4  10  21  39  57  85 118 153 194 242 299 355
#     4  11  22  36  56  84 115 149 193 239 289 351
#     4  10  20  38  59  88 119 153 197 247 299 358
#     4  10  20  37  58  80 115 155 190 232 294 361
#     4  10  21  37  58  86 122 156 193 247 304 364
#     4  10  21  38  60  86 115 152 201 250 296 350
#     4  10  21  37  62  83 113 156 197 243 297 352
#
# _framework density 20.039446999999999
#
# number of rings (size 3 to 8) (size 9 to 14) (size 15 to 20)
#    0.000    1.857    1.429    2.571    0.000    7.714 
#    0.000    2.857    0.000    1.714    0.000    0.000 
#    0.000    0.000    0.000    0.000    0.000    0.000 
#
# Total GULP energy -1387499.876936 kJ/mol
# GULP energy per Si atom -12388.391758 kJ/mol
# Density = 1.999384 g / cm^3
# Si number density = 20.039447 Si / 1000 Ang^3
#
#
#
# Elastic Constant Matrix: (Units=GPa)
#
#
# Indices 1 2 3 4 5 6 
#
# 1 77.5030 20.1401 29.7028 0.0000 0.0000 0.0000
# 2 20.1401 77.5030 29.7028 0.0000 0.0000 0.0000
# 3 29.7028 29.7028 76.4307 0.0000 0.0000 0.0000
# 4 0.0000 0.0000 0.0000 26.4375 0.0000 0.0000
# 5 0.0000 0.0000 0.0000 0.0000 26.4375 0.0000
# 6 0.0000 0.0000 0.0000 0.0000 0.0000 16.8602
#
#
#
# Elastic Compliance Matrix: (Units=1/GPa)
#
#
# Indices 1 2 3 4 5 6 
#
# 1 0.015423 -0.002010 -0.005212 0.000000 0.000000 0.000000
# 2 -0.002010 0.015423 -0.005212 0.000000 0.000000 0.000000
# 3 -0.005212 -0.005212 0.017135 0.000000 0.000000 0.000000
# 4 0.000000 0.000000 0.000000 0.037825 0.000000 0.000000
# 5 0.000000 0.000000 0.000000 0.000000 0.037825 0.000000
# 6 0.000000 0.000000 0.000000 0.000000 0.000000 0.059311
#
#
# Mechanical properties :
#
#
# Convention : Reuss Voigt Hill
#
# Bulk Modulus (GPa) = 43.27035 43.39199 43.33117
# Shear Modulus (GPa) = 23.20018 24.07310 23.63664
#
# Velocity S-wave (km/s) = 3.40623 3.46972 3.43812
# Velocity P-wave (km/s) = 6.09174 6.14428 6.11807
#
# Compressibility (1/GPa) = 0.02311051
#
# Stress axis : x y z
#
# Youngs Moduli (GPa) = 64.83934 64.83934 58.35970
#
# Poissons Ratio (x) = 0.13034 0.30420
# Poissons Ratio (y) = 0.13034 0.30420
# Poissons Ratio (z) = 0.33797 0.33797
#
# Static dielectric constant tensor:
#      x y z
#    x 3.769520 0.000000 0.000000 
#    y 0.000000 3.769520 0.000000 
#    z 0.000000 0.000000 3.655360 
# 
# 
# High freq. dielectric constant tensor:
#      x y z
#    x 1.785360 0.000000 0.000000 
#    y 0.000000 1.785360 0.000000 
#    z 0.000000 0.000000 1.767120 
# 
# From -- ./inp_files/7063.got.cif
#   From: 2010.03.12/outbox.cif.g09.slc.cpg/sg138_4_cif.got.tgz:7063.got - 2010.04.08 09:41:05.
