data_PCOD8319588
_publ_section_title
;
Structure prediction by ZEFSAII (Michael W. Deem and Ramdas Pophale) SiO2 
 PCOD8319588
Probable space group: I 4/M M M
;
_chemical_formula_sum "Si O2"
_cell_formula_units_Z 128
_cell_length_a 19.597918
_cell_length_b 19.597918
_cell_length_c 17.053001
_cell_angle_alpha 90.000000
_cell_angle_beta 90.000000
_cell_angle_gamma 90.000000
_cell_volume 6549.689168
_symmetry_space_group_name_H-M "I 4/M M M"
_symmetry_group_IT_number 139
_symmetry_cell_setting 'tetragonal'
loop_
_space_group_symop_operation_xyz
x,y,z
-y,x,z
-x,-y,z
y,-x,z
x,-y,-z
-x,y,-z
y,x,-z
-y,-x,-z
-x,-y,-z
y,-x,-z
x,y,-z
-y,x,-z
-x,y,z
x,-y,z
-y,-x,z
y,x,z
1/2+x,1/2+y,1/2+z
1/2-y,1/2+x,1/2+z
1/2-x,1/2-y,1/2+z
1/2+y,1/2-x,1/2+z
1/2+x,1/2-y,1/2-z
1/2-x,1/2+y,1/2-z
1/2+y,1/2+x,1/2-z
1/2-y,1/2-x,1/2-z
1/2-x,1/2-y,1/2-z
1/2+y,1/2-x,1/2-z
1/2+x,1/2+y,1/2-z
1/2-y,1/2+x,1/2-z
1/2-x,1/2+y,1/2+z
1/2+x,1/2-y,1/2+z
1/2-y,1/2-x,1/2+z
1/2+y,1/2+x,1/2+z
loop_
_atom_site_type_symbol
_atom_site_label
_atom_site_fract_x
_atom_site_fract_y
_atom_site_fract_z
Si Si1 0.574689 0.311079 0.500000
Si Si2 0.360038 0.807853 0.913371
Si Si3 0.127060 0.762890 0.154767
Si Si4 0.579275 0.924127 0.000000
Si Si5 0.693146 0.422378 0.814107
O O1 0.500000 0.344778 0.500000
O O2 0.628476 0.371525 0.500000
O O3 0.581518 0.262069 0.575839
O O4 0.299868 0.819696 0.850192
O O5 0.406726 0.745789 0.884105
O O6 0.330998 0.787210 0.000000
O O7 0.400894 0.879702 0.922501
O O8 0.166566 0.833435 0.156671
O O9 0.082745 0.762660 0.233823
O O10 0.500000 0.935499 0.000000
O O11 0.613950 0.000000 0.000000
O O12 0.666375 0.500000 0.823048
O O13 0.628397 0.371604 0.817552
#
# Coordination Sequence:
#
# PCOD8319588 Si02
#       5
#    16  32  32  16  32
#     4  10  19  32  52  78 111 152 195 238 289 348
#     4  10  21  36  62  88 117 152 194 248 302 363
#     4  10  20  36  56  82 113 146 187 240 300 357
#     4   9  19  35  55  82 115 150 186 228 286 358
#     4  11  24  40  60  87 122 163 209 259 307 360
#
# _framework density 19.542912000000001
#
# number of rings (size 3 to 8) (size 9 to 14) (size 15 to 20)
#    0.750    1.125    1.250    3.000    0.000    6.875 
#    0.000    0.000    0.000    4.500    0.000    5.250 
#    0.000    0.000    0.000    0.000    0.000    0.000 
#
# Total GULP energy -793100.345868 kJ/mol
# GULP energy per Si atom -12392.192904 kJ/mol
# Density = 1.949843 g / cm^3
# Si number density = 19.542912 Si / 1000 Ang^3
#
#
#
# Elastic Constant Matrix: (Units=GPa)
#
#
# Indices 1 2 3 4 5 6 
#
# 1 110.1601 35.9220 39.6295 0.0000 0.0000 0.0000
# 2 35.9220 110.1608 39.6293 0.0000 0.0000 0.0000
# 3 39.6295 39.6293 80.1863 0.0000 0.0000 0.0000
# 4 0.0000 0.0000 0.0000 14.8878 0.0000 0.0000
# 5 0.0000 0.0000 0.0000 0.0000 14.8881 0.0000
# 6 0.0000 0.0000 0.0000 0.0000 0.0000 23.2747
#
#
#
# Elastic Compliance Matrix: (Units=1/GPa)
#
#
# Indices 1 2 3 4 5 6 
#
# 1 0.011412 -0.002058 -0.004623 0.000000 0.000000 0.000000
# 2 -0.002058 0.011412 -0.004623 0.000000 0.000000 0.000000
# 3 -0.004623 -0.004623 0.017040 0.000000 0.000000 0.000000
# 4 0.000000 0.000000 0.000000 0.067169 0.000000 0.000000
# 5 0.000000 0.000000 0.000000 0.000000 0.067168 0.000000
# 6 0.000000 0.000000 0.000000 0.000000 0.000000 0.042965
#
#
# Mechanical properties :
#
#
# Convention : Reuss Voigt Hill
#
# Bulk Modulus (GPa) = 57.94905 58.98543 58.46724
# Shear Modulus (GPa) = 20.36453 22.96522 21.66488
#
# Velocity S-wave (km/s) = 3.23157 3.43172 3.33315
# Velocity P-wave (km/s) = 6.60611 6.77866 6.69294
#
# Compressibility (1/GPa) = 0.01725654
#
# Stress axis : x y z
#
# Youngs Moduli (GPa) = 87.62804 87.62885 58.68490
#
# Poissons Ratio (x) = 0.18036 0.27128
# Poissons Ratio (y) = 0.18036 0.27128
# Poissons Ratio (z) = 0.40508 0.40508
#
# Static dielectric constant tensor:
#      x y z
#    x 3.377560 0.000000 0.000000 
#    y 0.000000 3.377560 0.000000 
#    z 0.000000 0.000000 3.686030 
# 
# 
# High freq. dielectric constant tensor:
#      x y z
#    x 1.750660 0.000000 0.000000 
#    y 0.000000 1.750660 0.000000 
#    z 0.000000 0.000000 1.757180 
# 
# From -- ./inp_files/8021.got.cif
#   From: 2010.03.12/outbox.cif.g09.slc.cpg/sg139_5_cif.got.tgz:8021.got - 2010.04.08 09:46:31.
