data_PCOD8319435
_publ_section_title
;
Structure prediction by ZEFSAII (Michael W. Deem and Ramdas Pophale) SiO2 
 PCOD8319435
Probable space group: I 4/M M M
;
_chemical_formula_sum "Si O2"
_cell_formula_units_Z 112
_cell_length_a 14.052092
_cell_length_b 14.052092
_cell_length_c 35.869026
_cell_angle_alpha 90.000000
_cell_angle_beta 90.000000
_cell_angle_gamma 90.000000
_cell_volume 7082.744130
_symmetry_space_group_name_H-M "I 4/M M M"
_symmetry_group_IT_number 139
_symmetry_cell_setting 'tetragonal'
loop_
_space_group_symop_operation_xyz
x,y,z
-y,x,z
-x,-y,z
y,-x,z
x,-y,-z
-x,y,-z
y,x,-z
-y,-x,-z
-x,-y,-z
y,-x,-z
x,y,-z
-y,x,-z
-x,y,z
x,-y,z
-y,-x,z
y,x,z
1/2+x,1/2+y,1/2+z
1/2-y,1/2+x,1/2+z
1/2-x,1/2-y,1/2+z
1/2+y,1/2-x,1/2+z
1/2+x,1/2-y,1/2-z
1/2-x,1/2+y,1/2-z
1/2+y,1/2+x,1/2-z
1/2-y,1/2-x,1/2-z
1/2-x,1/2-y,1/2-z
1/2+y,1/2-x,1/2-z
1/2+x,1/2+y,1/2-z
1/2-y,1/2+x,1/2-z
1/2-x,1/2+y,1/2+z
1/2+x,1/2-y,1/2+z
1/2-y,1/2-x,1/2+z
1/2+y,1/2+x,1/2+z
loop_
_atom_site_type_symbol
_atom_site_label
_atom_site_fract_x
_atom_site_fract_y
_atom_site_fract_z
Si Si1 0.605692 0.113041 0.208847
Si Si2 0.609438 0.109075 0.070573
Si Si3 0.388299 0.234879 0.641695
Si Si4 0.734166 0.111180 0.500000
O O1 0.500000 0.155556 0.201457
O O2 0.642972 0.142972 0.250000
O O3 0.678132 0.150793 0.177703
O O4 0.598900 0.000000 0.206659
O O5 0.500000 0.126293 0.081718
O O6 0.672666 0.137294 0.105754
O O7 0.625909 0.000000 0.058759
O O8 0.640553 0.173698 0.036060
O O9 0.500000 0.256198 0.644541
O O10 0.335487 0.335487 0.639181
O O11 0.833241 0.166760 0.500000
O O12 0.758418 0.000000 0.500000
#
# Coordination Sequence:
#
# PCOD8319435 Si02
#       4
#    32  32  32  16
#     4   8  14  26  44  64  84 105 133 174 219 253
#     4   9  17  30  48  67  84 104 136 179 220 248
#     4  10  19  29  42  61  86 115 143 170 203 246
#     4  10  19  30  45  65  90 116 139 165 200 247
#
# _framework density 15.813081
#
# number of rings (size 3 to 8) (size 9 to 14) (size 15 to 20)
#    0.000    2.857    0.000    3.000    0.000    6.143 
#    0.000    0.000    0.000    0.000    0.000    0.000 
#    0.000   15.429    0.000    1.143    0.000    0.000 
#
# Total GULP energy -694294.994753 kJ/mol
# GULP energy per Si atom -12398.124906 kJ/mol
# Density = 1.577709 g / cm^3
# Si number density = 15.813081 Si / 1000 Ang^3
#
#
#
# Elastic Constant Matrix: (Units=GPa)
#
#
# Indices 1 2 3 4 5 6 
#
# 1 66.5766 48.0004 56.1849 0.0000 0.0000 0.0000
# 2 48.0004 66.5792 56.1855 0.0000 0.0000 0.0000
# 3 56.1849 56.1855 134.7910 0.0000 0.0000 0.0000
# 4 0.0000 0.0000 0.0000 7.7401 0.0000 0.0000
# 5 0.0000 0.0000 0.0000 0.0000 7.7437 0.0000
# 6 0.0000 0.0000 0.0000 0.0000 0.0000 26.5768
#
#
#
# Elastic Compliance Matrix: (Units=1/GPa)
#
#
# Indices 1 2 3 4 5 6 
#
# 1 0.034296 -0.019533 -0.006154 0.000000 0.000000 0.000000
# 2 -0.019533 0.034295 -0.006153 0.000000 0.000000 0.000000
# 3 -0.006154 -0.006153 0.012549 0.000000 0.000000 0.000000
# 4 0.000000 0.000000 0.000000 0.129197 0.000000 0.000000
# 5 0.000000 0.000000 0.000000 0.000000 0.129137 0.000000
# 6 0.000000 0.000000 0.000000 0.000000 0.000000 0.037627
#
#
# Mechanical properties :
#
#
# Convention : Reuss Voigt Hill
#
# Bulk Modulus (GPa) = 57.27384 65.40982 61.34183
# Shear Modulus (GPa) = 11.19569 15.58387 13.38978
#
# Velocity S-wave (km/s) = 2.66372 3.14268 2.91306
# Velocity P-wave (km/s) = 6.76450 7.39072 7.08453
#
# Compressibility (1/GPa) = 0.01745998
#
# Stress axis : x y z
#
# Youngs Moduli (GPa) = 29.15759 29.15902 79.68839
#
# Poissons Ratio (x) = 0.56956 0.49038
# Poissons Ratio (y) = 0.56953 0.49035
# Poissons Ratio (z) = 0.17943 0.17942
#
# Static dielectric constant tensor:
#      x y z
#    x 2.794670 0.000000 0.000000 
#    y 0.000000 2.794670 0.000000 
#    z 0.000000 0.000000 3.299170 
# 
# 
# High freq. dielectric constant tensor:
#      x y z
#    x 1.584460 0.000000 0.000000 
#    y 0.000000 1.584460 0.000000 
#    z 0.000000 0.000000 1.625490 
# 
# From -- ./inp_files/13719.got.cif
#   From: 2010.03.12/outbox.cif.g09.slc.cpg/sg139_7_cif.got.tgz:13719.got - 2010.04.08 09:46:31.
