data_PCOD8319716
_publ_section_title
;
Structure prediction by ZEFSAII (Michael W. Deem and Ramdas Pophale) SiO2 
 PCOD8319716
Probable space group: I 4/M M M
;
_chemical_formula_sum "Si O2"
_cell_formula_units_Z 136
_cell_length_a 17.617681
_cell_length_b 17.617681
_cell_length_c 23.422630
_cell_angle_alpha 90.000000
_cell_angle_beta 90.000000
_cell_angle_gamma 90.000000
_cell_volume 7269.978761
_symmetry_space_group_name_H-M "I 4/M M M"
_symmetry_group_IT_number 139
_symmetry_cell_setting 'tetragonal'
loop_
_space_group_symop_operation_xyz
x,y,z
-y,x,z
-x,-y,z
y,-x,z
x,-y,-z
-x,y,-z
y,x,-z
-y,-x,-z
-x,-y,-z
y,-x,-z
x,y,-z
-y,x,-z
-x,y,z
x,-y,z
-y,-x,z
y,x,z
1/2+x,1/2+y,1/2+z
1/2-y,1/2+x,1/2+z
1/2-x,1/2-y,1/2+z
1/2+y,1/2-x,1/2+z
1/2+x,1/2-y,1/2-z
1/2-x,1/2+y,1/2-z
1/2+y,1/2+x,1/2-z
1/2-y,1/2-x,1/2-z
1/2-x,1/2-y,1/2-z
1/2+y,1/2-x,1/2-z
1/2+x,1/2+y,1/2-z
1/2-y,1/2+x,1/2-z
1/2-x,1/2+y,1/2+z
1/2+x,1/2-y,1/2+z
1/2-y,1/2-x,1/2+z
1/2+y,1/2+x,1/2+z
loop_
_atom_site_type_symbol
_atom_site_label
_atom_site_fract_x
_atom_site_fract_y
_atom_site_fract_z
Si Si1 0.500000 0.376329 0.623523
Si Si2 0.916783 0.500000 0.319364
Si Si3 0.139565 0.263972 0.288707
Si Si4 0.500000 0.309030 0.500000
Si Si5 0.852080 0.415102 0.106499
Si Si6 0.500000 0.747327 0.280845
Si Si7 0.085788 0.664297 0.000000
O O1 0.575024 0.424977 0.639090
O O2 0.500000 0.360788 0.556000
O O3 0.500000 0.296072 0.658066
O O4 0.913323 0.428269 0.358752
O O5 0.840371 0.500000 0.280777
O O6 0.000000 0.500000 0.286992
O O7 0.209853 0.209853 0.297512
O O8 0.163748 0.336253 0.250000
O O9 0.113634 0.285814 0.352174
O O10 0.072902 0.220782 0.254933
O O11 0.575341 0.255588 0.500000
O O12 0.833254 0.500000 0.084603
O O13 0.863314 0.359089 0.053689
O O14 0.000000 0.626557 0.000000
#
# Coordination Sequence:
#
# PCOD8319716 Si02
#       7
#    16  16  32   8  32  16  16
#     4  11  24  42  66  92 119 163 221 272 313 357
#     4  10  20  32  54  85 117 151 193 233 280 366
#     4  11  24  38  56  84 119 155 198 252 307 367
#     4  10  22  39  59  88 132 168 196 246 305 368
#     4  11  20  36  56  85 117 154 193 243 299 356
#     4  12  21  42  60  84 114 163 208 255 312 360
#     4  10  21  36  57  88 120 156 198 232 285 369
#
# _framework density 18.707070000000002
#
# number of rings (size 3 to 8) (size 9 to 14) (size 15 to 20)
#    0.353    0.824    4.706    2.824    0.000    0.941 
#    2.118    1.765    0.000    0.000    0.000    0.000 
#    0.000    0.000    0.000    2.235    0.000    0.000 
#
# Total GULP energy -842744.612447 kJ/mol
# GULP energy per Si atom -12393.303124 kJ/mol
# Density = 1.866449 g / cm^3
# Si number density = 18.707070 Si / 1000 Ang^3
#
#
#
# Elastic Constant Matrix: (Units=GPa)
#
#
# Indices 1 2 3 4 5 6 
#
# 1 75.5882 23.5648 28.3497 0.0000 0.0000 0.0000
# 2 23.5648 75.5882 28.3496 0.0000 0.0000 0.0000
# 3 28.3497 28.3496 104.2940 0.0000 0.0000 0.0000
# 4 0.0000 0.0000 0.0000 27.9988 0.0000 0.0000
# 5 0.0000 0.0000 0.0000 0.0000 27.9987 0.0000
# 6 0.0000 0.0000 0.0000 0.0000 0.0000 18.9532
#
#
#
# Elastic Compliance Matrix: (Units=1/GPa)
#
#
# Indices 1 2 3 4 5 6 
#
# 1 0.015582 -0.003640 -0.003246 0.000000 0.000000 0.000000
# 2 -0.003640 0.015582 -0.003246 0.000000 0.000000 0.000000
# 3 -0.003246 -0.003246 0.011353 0.000000 0.000000 0.000000
# 4 0.000000 0.000000 0.000000 0.035716 0.000000 0.000000
# 5 0.000000 0.000000 0.000000 0.000000 0.035716 0.000000
# 6 0.000000 0.000000 0.000000 0.000000 0.000000 0.052762
#
#
# Mechanical properties :
#
#
# Convention : Reuss Voigt Hill
#
# Bulk Modulus (GPa) = 44.93954 46.22207 45.58081
# Shear Modulus (GPa) = 25.72123 26.67056 26.19589
#
# Velocity S-wave (km/s) = 3.71205 3.77993 3.74615
# Velocity P-wave (km/s) = 6.51516 6.61910 6.56734
#
# Compressibility (1/GPa) = 0.02225212
#
# Stress axis : x y z
#
# Youngs Moduli (GPa) = 64.17709 64.17722 88.08260
#
# Poissons Ratio (x) = 0.23362 0.28592
# Poissons Ratio (y) = 0.23362 0.28592
# Poissons Ratio (z) = 0.20832 0.20832
#
# Static dielectric constant tensor:
#      x y z
#    x 3.389810 0.000000 0.000000 
#    y 0.000000 3.389810 0.000000 
#    z 0.000000 0.000000 3.482790 
# 
# 
# High freq. dielectric constant tensor:
#      x y z
#    x 1.715450 0.000000 0.000000 
#    y 0.000000 1.715450 0.000000 
#    z 0.000000 0.000000 1.726030 
# 
# From -- ./inp_files/11562.got.cif
#   From: 2010.03.12/outbox.cif.g09.slc.cpg/sg139_6_cif.got.tgz:11562.got - 2010.04.08 09:46:31.
