data_PCOD8319682
_publ_section_title
;
Structure prediction by ZEFSAII (Michael W. Deem and Ramdas Pophale) SiO2 
 PCOD8319682
Probable space group: I 4/M M M
;
_chemical_formula_sum "Si O2"
_cell_formula_units_Z 112
_cell_length_a 29.262003
_cell_length_b 29.262003
_cell_length_c 8.030516
_cell_angle_alpha 90.000000
_cell_angle_beta 90.000000
_cell_angle_gamma 90.000000
_cell_volume 6876.248334
_symmetry_space_group_name_H-M "I 4/M M M"
_symmetry_group_IT_number 139
_symmetry_cell_setting 'tetragonal'
loop_
_space_group_symop_operation_xyz
x,y,z
-y,x,z
-x,-y,z
y,-x,z
x,-y,-z
-x,y,-z
y,x,-z
-y,-x,-z
-x,-y,-z
y,-x,-z
x,y,-z
-y,x,-z
-x,y,z
x,-y,z
-y,-x,z
y,x,z
1/2+x,1/2+y,1/2+z
1/2-y,1/2+x,1/2+z
1/2-x,1/2-y,1/2+z
1/2+y,1/2-x,1/2+z
1/2+x,1/2-y,1/2-z
1/2-x,1/2+y,1/2-z
1/2+y,1/2+x,1/2-z
1/2-y,1/2-x,1/2-z
1/2-x,1/2-y,1/2-z
1/2+y,1/2-x,1/2-z
1/2+x,1/2+y,1/2-z
1/2-y,1/2+x,1/2-z
1/2-x,1/2+y,1/2+z
1/2+x,1/2-y,1/2+z
1/2-y,1/2-x,1/2+z
1/2+y,1/2+x,1/2+z
loop_
_atom_site_type_symbol
_atom_site_label
_atom_site_fract_x
_atom_site_fract_y
_atom_site_fract_z
Si Si1 0.445749 0.313877 0.815175
Si Si2 0.054266 0.872776 0.000000
Si Si3 0.551364 0.876326 0.195435
Si Si4 0.719388 0.052710 0.191806
O O1 0.500000 0.311273 0.800015
O O2 0.428429 0.346606 0.666756
O O3 0.425798 0.262406 0.791298
O O4 0.431030 0.331701 0.000000
O O5 0.077587 0.922414 0.000000
O O6 0.000000 0.880000 0.000000
O O7 0.500000 0.882754 0.268206
O O8 0.580488 0.919513 0.250000
O O9 0.575070 0.829548 0.263264
O O10 0.549796 0.873016 0.000000
O O11 0.714471 0.000000 0.242434
O O12 0.731112 0.059407 0.000000
#
# Coordination Sequence:
#
# PCOD8319682 Si02
#       4
#    32  16  32  32
#     4   9  16  28  47  69  92 120 154 195 242 282
#     4  10  20  33  48  70 100 132 165 195 225 267
#     4  10  20  31  42  59  85 121 161 199 240 286
#     4   9  15  26  45  66  87 112 145 190 246 292
#
# _framework density 16.287952000000001
#
# number of rings (size 3 to 8) (size 9 to 14) (size 15 to 20)
#    0.000    2.571    1.429    1.714    0.000    6.143 
#    0.000    1.429    0.000    0.000    0.000    4.000 
#    0.000    1.143    0.571    0.000    0.000    0.000 
#
# Total GULP energy -693932.355451 kJ/mol
# GULP energy per Si atom -12391.649204 kJ/mol
# Density = 1.625088 g / cm^3
# Si number density = 16.287952 Si / 1000 Ang^3
#
#
#
# Elastic Constant Matrix: (Units=GPa)
#
#
# Indices 1 2 3 4 5 6 
#
# 1 62.1451 34.8608 30.0476 0.0000 0.0000 0.0000
# 2 34.8608 62.1351 30.0440 0.0000 0.0000 0.0000
# 3 30.0476 30.0440 90.0354 0.0000 0.0000 0.0000
# 4 0.0000 0.0000 0.0000 14.9549 0.0000 0.0000
# 5 0.0000 0.0000 0.0000 0.0000 14.9548 0.0000
# 6 0.0000 0.0000 0.0000 0.0000 0.0000 2.3673
#
#
#
# Elastic Compliance Matrix: (Units=1/GPa)
#
#
# Indices 1 2 3 4 5 6 
#
# 1 0.024825 -0.011831 -0.004337 0.000000 0.000000 0.000000
# 2 -0.011831 0.024829 -0.004337 0.000000 0.000000 0.000000
# 3 -0.004337 -0.004337 0.014001 0.000000 0.000000 0.000000
# 4 0.000000 0.000000 0.000000 0.066868 0.000000 0.000000
# 5 0.000000 0.000000 0.000000 0.000000 0.066868 0.000000
# 6 0.000000 0.000000 0.000000 0.000000 0.000000 0.422415
#
#
# Mechanical properties :
#
#
# Convention : Reuss Voigt Hill
#
# Bulk Modulus (GPa) = 44.15885 44.91339 44.53612
# Shear Modulus (GPa) = 7.48096 14.41294 10.94695
#
# Velocity S-wave (km/s) = 2.14544 2.97793 2.59528
# Velocity P-wave (km/s) = 5.77126 6.28160 6.03183
#
# Compressibility (1/GPa) = 0.02264552
#
# Stress axis : x y z
#
# Youngs Moduli (GPa) = 40.28200 40.27610 71.42211
#
# Poissons Ratio (x) = 0.47650 0.30976
# Poissons Ratio (y) = 0.47657 0.30974
# Poissons Ratio (z) = 0.17470 0.17467
#
# Static dielectric constant tensor:
#      x y z
#    x 2.795340 0.000000 0.000000 
#    y 0.000000 2.795340 0.000000 
#    z 0.000000 0.000000 3.290020 
# 
# 
# High freq. dielectric constant tensor:
#      x y z
#    x 1.587990 0.000000 0.000000 
#    y 0.000000 1.587990 0.000000 
#    z 0.000000 0.000000 1.648360 
# 
# From -- ./inp_files/1685.got.cif
#   From: 2010.03.12/outbox.cif.g09.slc.cpg/sg139_1_cif.got.tgz:1685.got - 2010.04.08 09:46:31.
