data_PCOD8319396
_publ_section_title
;
Structure prediction by ZEFSAII (Michael W. Deem and Ramdas Pophale) SiO2 
 PCOD8319396
Probable space group: I 4/M M M
;
_chemical_formula_sum "Si O2"
_cell_formula_units_Z 240
_cell_length_a 20.044016
_cell_length_b 20.044016
_cell_length_c 32.490806
_cell_angle_alpha 90.000000
_cell_angle_beta 90.000000
_cell_angle_gamma 90.000000
_cell_volume 13053.589961
_symmetry_space_group_name_H-M "I 4/M M M"
_symmetry_group_IT_number 139
_symmetry_cell_setting 'tetragonal'
loop_
_space_group_symop_operation_xyz
x,y,z
-y,x,z
-x,-y,z
y,-x,z
x,-y,-z
-x,y,-z
y,x,-z
-y,-x,-z
-x,-y,-z
y,-x,-z
x,y,-z
-y,x,-z
-x,y,z
x,-y,z
-y,-x,z
y,x,z
1/2+x,1/2+y,1/2+z
1/2-y,1/2+x,1/2+z
1/2-x,1/2-y,1/2+z
1/2+y,1/2-x,1/2+z
1/2+x,1/2-y,1/2-z
1/2-x,1/2+y,1/2-z
1/2+y,1/2+x,1/2-z
1/2-y,1/2-x,1/2-z
1/2-x,1/2-y,1/2-z
1/2+y,1/2-x,1/2-z
1/2+x,1/2+y,1/2-z
1/2-y,1/2+x,1/2-z
1/2-x,1/2+y,1/2+z
1/2+x,1/2-y,1/2+z
1/2-y,1/2-x,1/2+z
1/2+y,1/2+x,1/2+z
loop_
_atom_site_type_symbol
_atom_site_label
_atom_site_fract_x
_atom_site_fract_y
_atom_site_fract_z
Si Si1 0.654432 0.762694 0.838770
Si Si2 0.312575 0.576386 0.701552
Si Si3 0.746144 0.424838 0.916931
Si Si4 0.248258 0.859241 0.873035
Si Si5 0.926548 0.286876 0.954605
Si Si6 0.578534 0.319337 0.000000
Si Si7 0.571340 0.114765 0.953710
Si Si8 0.421020 0.810916 0.760817
O O1 0.711975 0.711975 0.822126
O O2 0.618706 0.726574 0.877311
O O3 0.682779 0.835440 0.852303
O O4 0.599832 0.778982 0.804209
O O5 0.336447 0.500000 0.708177
O O6 0.373625 0.626376 0.712686
O O7 0.289602 0.585338 0.654187
O O8 0.247618 0.593649 0.728267
O O9 0.719554 0.500000 0.910089
O O10 0.715743 0.393672 0.958673
O O11 0.825767 0.423609 0.921198
O O12 0.208222 0.791779 0.875840
O O13 0.254061 0.882752 0.919691
O O14 0.934284 0.366548 0.947187
O O15 0.000000 0.255894 0.952114
O O16 0.895536 0.272279 0.000000
O O17 0.500000 0.318808 0.000000
O O18 0.605048 0.394953 0.000000
O O19 0.500000 0.077112 0.946850
O O20 0.572626 0.145127 0.000000
O O21 0.500000 0.830266 0.761297
O O22 0.376349 0.876349 0.750000
#
# Coordination Sequence:
#
# PCOD8319396 Si02
#       8
#    32  32  32  32  32  16  32  32
#     4  11  21  34  55  82 110 143 182 227 277 334
#     4  10  21  38  62  89 116 148 184 228 282 335
#     4  10  18  31  49  73 105 141 181 228 279 326
#     4  10  20  34  54  79 107 141 181 223 271 326
#     4  10  20  33  49  71 104 142 180 224 271 319
#     4  10  20  33  50  72 101 141 187 235 284 328
#     4   9  16  28  45  64  92 131 174 219 266 316
#     4  11  23  40  62  86 115 151 186 228 275 330
#
# _framework density 18.385746999999999
#
# number of rings (size 3 to 8) (size 9 to 14) (size 15 to 20)
#    0.000    1.867    3.333    1.600    0.000    1.400 
#    0.000    1.333    0.000    0.000    0.000    0.000 
#    0.000    9.600    0.000   12.400    0.000    0.000 
#
# Total GULP energy -1486984.147649 kJ/mol
# GULP energy per Si atom -12391.534564 kJ/mol
# Density = 1.834390 g / cm^3
# Si number density = 18.385747 Si / 1000 Ang^3
#
#
#
# Elastic Constant Matrix: (Units=GPa)
#
#
# Indices 1 2 3 4 5 6 
#
# 1 67.6647 49.4663 40.1719 0.0000 0.0000 0.0000
# 2 49.4663 67.6592 40.1714 0.0000 0.0000 0.0000
# 3 40.1719 40.1714 112.5984 0.0000 0.0000 0.0000
# 4 0.0000 0.0000 0.0000 25.6512 0.0000 0.0000
# 5 0.0000 0.0000 0.0000 0.0000 25.6514 0.0000
# 6 0.0000 0.0000 0.0000 0.0000 0.0000 21.9292
#
#
#
# Elastic Compliance Matrix: (Units=1/GPa)
#
#
# Indices 1 2 3 4 5 6 
#
# 1 0.033129 -0.021827 -0.004032 0.000000 0.000000 0.000000
# 2 -0.021827 0.033133 -0.004033 0.000000 0.000000 0.000000
# 3 -0.004032 -0.004033 0.011759 0.000000 0.000000 0.000000
# 4 0.000000 0.000000 0.000000 0.038985 0.000000 0.000000
# 5 0.000000 0.000000 0.000000 0.000000 0.038984 0.000000
# 6 0.000000 0.000000 0.000000 0.000000 0.000000 0.045601
#
#
# Mechanical properties :
#
#
# Convention : Reuss Voigt Hill
#
# Bulk Modulus (GPa) = 54.83933 56.39350 55.61641
# Shear Modulus (GPa) = 18.69473 22.52054 20.60763
#
# Velocity S-wave (km/s) = 3.19220 3.50364 3.35154
# Velocity P-wave (km/s) = 6.59384 6.86340 6.72997
#
# Compressibility (1/GPa) = 0.01823509
#
# Stress axis : x y z
#
# Youngs Moduli (GPa) = 30.18465 30.18170 85.04283
#
# Poissons Ratio (x) = 0.65878 0.34293
# Poissons Ratio (y) = 0.65884 0.34301
# Poissons Ratio (z) = 0.12172 0.12173
#
# Static dielectric constant tensor:
#      x y z
#    x 3.221850 0.000000 0.000000 
#    y 0.000000 3.221850 0.000000 
#    z 0.000000 0.000000 3.417130 
# 
# 
# High freq. dielectric constant tensor:
#      x y z
#    x 1.697760 0.000000 0.000000 
#    y 0.000000 1.697760 0.000000 
#    z 0.000000 0.000000 1.716340 
# 
# From -- ./inp_files/13400.got.cif
#   From: 2010.03.12/outbox.cif.g09.slc.cpg/sg139_7_cif.got.tgz:13400.got - 2010.04.08 09:46:31.
