data_PCOD8319404
_publ_section_title
;
Structure prediction by ZEFSAII (Michael W. Deem and Ramdas Pophale) SiO2 
 PCOD8319404
Probable space group: I 4/M M M
;
_chemical_formula_sum "Si O2"
_cell_formula_units_Z 208
_cell_length_a 20.834198
_cell_length_b 20.834198
_cell_length_c 26.916493
_cell_angle_alpha 90.000000
_cell_angle_beta 90.000000
_cell_angle_gamma 90.000000
_cell_volume 11683.475404
_symmetry_space_group_name_H-M "I 4/M M M"
_symmetry_group_IT_number 139
_symmetry_cell_setting 'tetragonal'
loop_
_space_group_symop_operation_xyz
x,y,z
-y,x,z
-x,-y,z
y,-x,z
x,-y,-z
-x,y,-z
y,x,-z
-y,-x,-z
-x,-y,-z
y,-x,-z
x,y,-z
-y,x,-z
-x,y,z
x,-y,z
-y,-x,z
y,x,z
1/2+x,1/2+y,1/2+z
1/2-y,1/2+x,1/2+z
1/2-x,1/2-y,1/2+z
1/2+y,1/2-x,1/2+z
1/2+x,1/2-y,1/2-z
1/2-x,1/2+y,1/2-z
1/2+y,1/2+x,1/2-z
1/2-y,1/2-x,1/2-z
1/2-x,1/2-y,1/2-z
1/2+y,1/2-x,1/2-z
1/2+x,1/2+y,1/2-z
1/2-y,1/2+x,1/2-z
1/2-x,1/2+y,1/2+z
1/2+x,1/2-y,1/2+z
1/2-y,1/2-x,1/2+z
1/2+y,1/2+x,1/2+z
loop_
_atom_site_type_symbol
_atom_site_label
_atom_site_fract_x
_atom_site_fract_y
_atom_site_fract_z
Si Si1 0.114898 0.572348 0.802154
Si Si2 0.134393 0.237948 0.416803
Si Si3 0.162088 0.268802 0.057203
Si Si4 0.201676 0.574840 0.645023
Si Si5 0.571478 0.260189 0.813652
Si Si6 0.925400 0.821351 0.787746
Si Si7 0.930868 0.824558 0.500000
O O1 0.099441 0.500000 0.823737
O O2 0.078261 0.578261 0.750000
O O3 0.097843 0.629554 0.840528
O O4 0.189939 0.577627 0.789823
O O5 0.189166 0.189166 0.432593
O O6 0.161708 0.306998 0.431618
O O7 0.120371 0.231792 0.358702
O O8 0.074156 0.220822 0.451332
O O9 0.210173 0.210173 0.070368
O O10 0.101375 0.269279 0.093458
O O11 0.139741 0.264151 0.000000
O O12 0.197065 0.500000 0.637918
O O13 0.254329 0.594079 0.686361
O O14 0.500000 0.271109 0.834618
O O15 0.586409 0.311797 0.770992
O O16 0.879869 0.879869 0.805950
O O17 0.000000 0.838777 0.798841
O O18 0.882727 0.882727 0.500000
O O19 0.000000 0.856877 0.500000
#
# Coordination Sequence:
#
# PCOD8319404 Si02
#       7
#    32  32  32  32  32  32  16
#     4  11  21  35  53  76 109 147 185 223 263 313
#     4  10  18  31  51  75 100 130 171 220 267 310
#     4  10  20  36  57  80 106 134 172 221 272 325
#     4  11  22  37  56  80 110 142 180 222 267 322
#     4  10  19  32  51  76 108 141 174 218 266 312
#     4  10  21  37  56  81 112 144 180 222 270 327
#     4  10  20  33  50  72  99 133 175 219 266 318
#
# _framework density 17.802921000000001
#
# number of rings (size 3 to 8) (size 9 to 14) (size 15 to 20)
#    0.000    1.692    3.846    1.846    0.000    1.615 
#    0.000    0.769    0.000    0.000    0.000    3.231 
#    0.000    0.000    0.000   14.308    0.000    0.000 
#
# Total GULP energy -1288855.956570 kJ/mol
# GULP energy per Si atom -12392.845736 kJ/mol
# Density = 1.776240 g / cm^3
# Si number density = 17.802921 Si / 1000 Ang^3
#
#
#
# Elastic Constant Matrix: (Units=GPa)
#
#
# Indices 1 2 3 4 5 6 
#
# 1 73.8993 40.8864 25.4884 0.0000 0.0000 0.0000
# 2 40.8864 73.8993 25.4884 0.0000 0.0000 0.0000
# 3 25.4884 25.4884 89.0462 0.0000 0.0000 0.0000
# 4 0.0000 0.0000 0.0000 25.4991 0.0000 0.0000
# 5 0.0000 0.0000 0.0000 0.0000 25.4991 0.0000
# 6 0.0000 0.0000 0.0000 0.0000 0.0000 20.9566
#
#
#
# Elastic Compliance Matrix: (Units=1/GPa)
#
#
# Indices 1 2 3 4 5 6 
#
# 1 0.020136 -0.010155 -0.002857 0.000000 0.000000 0.000000
# 2 -0.010155 0.020136 -0.002857 0.000000 0.000000 0.000000
# 3 -0.002857 -0.002857 0.012866 0.000000 0.000000 0.000000
# 4 0.000000 0.000000 0.000000 0.039217 0.000000 0.000000
# 5 0.000000 0.000000 0.000000 0.000000 0.039217 0.000000
# 6 0.000000 0.000000 0.000000 0.000000 0.000000 0.047718
#
#
# Mechanical properties :
#
#
# Convention : Reuss Voigt Hill
#
# Bulk Modulus (GPa) = 46.73008 46.73015 46.73011
# Shear Modulus (GPa) = 22.91894 24.05641 23.48768
#
# Velocity S-wave (km/s) = 3.59189 3.67994 3.63618
# Velocity P-wave (km/s) = 6.59604 6.66044 6.62832
#
# Compressibility (1/GPa) = 0.02139949
#
# Stress axis : x y z
#
# Youngs Moduli (GPa) = 49.66249 49.66249 77.72665
#
# Poissons Ratio (x) = 0.50434 0.22205
# Poissons Ratio (y) = 0.50434 0.22205
# Poissons Ratio (z) = 0.14188 0.14188
#
# Static dielectric constant tensor:
#      x y z
#    x 3.257910 0.000000 0.000000 
#    y 0.000000 3.257910 0.000000 
#    z 0.000000 0.000000 3.320840 
# 
# 
# High freq. dielectric constant tensor:
#      x y z
#    x 1.682100 0.000000 0.000000 
#    y 0.000000 1.682100 0.000000 
#    z 0.000000 0.000000 1.682910 
# 
# From -- ./inp_files/14492.got.cif
#   From: 2010.03.12/outbox.cif.g09.slc.cpg/sg139_8_cif.got.tgz:14492.got - 2010.04.08 09:46:31.
