data_PCOD8319873
_publ_section_title
;
Structure prediction by ZEFSAII (Michael W. Deem and Ramdas Pophale) SiO2 
 PCOD8319873
Probable space group: I 4/M M M
;
_chemical_formula_sum "Si O2"
_cell_formula_units_Z 144
_cell_length_a 28.387613
_cell_length_b 28.387613
_cell_length_c 9.434736
_cell_angle_alpha 90.000000
_cell_angle_beta 90.000000
_cell_angle_gamma 90.000000
_cell_volume 7603.044009
_symmetry_space_group_name_H-M "I 4/M M M"
_symmetry_group_IT_number 139
_symmetry_cell_setting 'tetragonal'
loop_
_space_group_symop_operation_xyz
x,y,z
-y,x,z
-x,-y,z
y,-x,z
x,-y,-z
-x,y,-z
y,x,-z
-y,-x,-z
-x,-y,-z
y,-x,-z
x,y,-z
-y,x,-z
-x,y,z
x,-y,z
-y,-x,z
y,x,z
1/2+x,1/2+y,1/2+z
1/2-y,1/2+x,1/2+z
1/2-x,1/2-y,1/2+z
1/2+y,1/2-x,1/2+z
1/2+x,1/2-y,1/2-z
1/2-x,1/2+y,1/2-z
1/2+y,1/2+x,1/2-z
1/2-y,1/2-x,1/2-z
1/2-x,1/2-y,1/2-z
1/2+y,1/2-x,1/2-z
1/2+x,1/2+y,1/2-z
1/2-y,1/2+x,1/2-z
1/2-x,1/2+y,1/2+z
1/2+x,1/2-y,1/2+z
1/2-y,1/2-x,1/2+z
1/2+y,1/2+x,1/2+z
loop_
_atom_site_type_symbol
_atom_site_label
_atom_site_fract_x
_atom_site_fract_y
_atom_site_fract_z
Si Si1 0.444251 0.800906 0.658821
Si Si2 0.371493 0.445959 0.163458
Si Si3 0.214972 0.785029 0.165797
Si Si4 0.107212 0.792093 0.834168
Si Si5 0.055416 0.614175 0.342969
O O1 0.426310 0.812171 0.500000
O O2 0.500000 0.800342 0.664624
O O3 0.426242 0.750663 0.709741
O O4 0.423552 0.839971 0.764910
O O5 0.371705 0.500000 0.220467
O O6 0.423965 0.423965 0.179677
O O7 0.336688 0.412085 0.249817
O O8 0.355493 0.445183 0.000000
O O9 0.250000 0.750000 0.250000
O O10 0.223536 0.839733 0.206516
O O11 0.224144 0.775857 0.000000
O O12 0.104590 0.804819 0.000000
O O13 0.077390 0.610643 0.500000
O O14 0.068782 0.568782 0.250000
O O15 0.000000 0.616794 0.352437
#
# Coordination Sequence:
#
# PCOD8319873 Si02
#       5
#    32  32  16  32  32
#     4   9  18  33  54  79 106 137 176 224 276 328
#     4  10  21  36  56  84 117 155 198 243 291 343
#     4  10  22  38  56  80 111 146 185 229 278 335
#     4  10  20  37  59  83 112 147 188 234 284 339
#     4  10  21  36  54  77 106 140 178 222 273 329
#
# _framework density 18.939782000000001
#
# number of rings (size 3 to 8) (size 9 to 14) (size 15 to 20)
#    0.000    2.222    1.111    1.333    0.000    5.778 
#    0.000    6.667    0.000    0.000    0.000    1.556 
#    0.000    0.000    0.000    0.000    0.000    0.000 
#
# Total GULP energy -892558.610046 kJ/mol
# GULP energy per Si atom -12396.647362 kJ/mol
# Density = 1.889667 g / cm^3
# Si number density = 18.939782 Si / 1000 Ang^3
#
#
#
# Elastic Constant Matrix: (Units=GPa)
#
#
# Indices 1 2 3 4 5 6 
#
# 1 52.7158 63.1556 47.7625 0.0000 0.0000 0.0000
# 2 63.1556 52.7161 47.7626 0.0000 0.0000 0.0000
# 3 47.7625 47.7626 101.2835 0.0000 0.0000 0.0000
# 4 0.0000 0.0000 0.0000 28.5014 0.0000 0.0000
# 5 0.0000 0.0000 0.0000 0.0000 28.5013 0.0000
# 6 0.0000 0.0000 0.0000 0.0000 0.0000 38.2644
#
#
#
# Elastic Compliance Matrix: (Units=1/GPa)
#
#
# Indices 1 2 3 4 5 6 
#
# 1 -0.040835 0.054954 -0.006658 0.000000 0.000000 0.000000
# 2 0.054954 -0.040834 -0.006658 0.000000 0.000000 0.000000
# 3 -0.006658 -0.006658 0.016153 0.000000 0.000000 0.000000
# 4 0.000000 0.000000 0.000000 0.035086 0.000000 0.000000
# 5 0.000000 0.000000 0.000000 0.000000 0.035086 0.000000
# 6 0.000000 0.000000 0.000000 0.000000 0.000000 0.026134
#
#
# Mechanical properties :
#
#
# Convention : Reuss Voigt Hill
#
# Bulk Modulus (GPa) = 56.31093 58.23077 57.27085
# Shear Modulus (GPa) = -107.37688 22.25573 -42.56057
#
# Velocity S-wave (km/s) = -7.53770 3.43166 -4.74556
# Velocity P-wave (km/s) = 6.77936 6.82009 0.52627
#
# Compressibility (1/GPa) = 0.01775854
#
# Stress axis : x y z
#
# Youngs Moduli (GPa) = -24.48904 -24.48912 61.90788
#
# Poissons Ratio (x) = 1.34577 0.41221
# Poissons Ratio (y) = 1.34577 0.41220
# Poissons Ratio (z) = -0.16306 -0.16306
#
# Static dielectric constant tensor:
#      x y z
#    x 3.489950 0.000000 0.000000 
#    y 0.000000 3.489950 0.000000 
#    z 0.000000 0.000000 3.658200 
# 
# 
# High freq. dielectric constant tensor:
#      x y z
#    x 1.735480 0.000000 0.000000 
#    y 0.000000 1.735480 0.000000 
#    z 0.000000 0.000000 1.735080 
# 
# From -- ./inp_files/2026.got.cif
#   From: 2010.03.12/outbox.cif.g09.slc.cpg/sg139_2_cif.got.tgz:2026.got - 2010.04.08 09:46:31.
