data_PCOD8319652
_publ_section_title
;
Structure prediction by ZEFSAII (Michael W. Deem and Ramdas Pophale) SiO2 
 PCOD8319652
Probable space group: I 4/M M M
;
_chemical_formula_sum "Si O2"
_cell_formula_units_Z 144
_cell_length_a 28.398597
_cell_length_b 28.398597
_cell_length_c 10.102930
_cell_angle_alpha 90.000000
_cell_angle_beta 90.000000
_cell_angle_gamma 90.000000
_cell_volume 8147.814134
_symmetry_space_group_name_H-M "I 4/M M M"
_symmetry_group_IT_number 139
_symmetry_cell_setting 'tetragonal'
loop_
_space_group_symop_operation_xyz
x,y,z
-y,x,z
-x,-y,z
y,-x,z
x,-y,-z
-x,y,-z
y,x,-z
-y,-x,-z
-x,-y,-z
y,-x,-z
x,y,-z
-y,x,-z
-x,y,z
x,-y,z
-y,-x,z
y,x,z
1/2+x,1/2+y,1/2+z
1/2-y,1/2+x,1/2+z
1/2-x,1/2-y,1/2+z
1/2+y,1/2-x,1/2+z
1/2+x,1/2-y,1/2-z
1/2-x,1/2+y,1/2-z
1/2+y,1/2+x,1/2-z
1/2-y,1/2-x,1/2-z
1/2-x,1/2-y,1/2-z
1/2+y,1/2-x,1/2-z
1/2+x,1/2+y,1/2-z
1/2-y,1/2+x,1/2-z
1/2-x,1/2+y,1/2+z
1/2+x,1/2-y,1/2+z
1/2-y,1/2-x,1/2+z
1/2+y,1/2+x,1/2+z
loop_
_atom_site_type_symbol
_atom_site_label
_atom_site_fract_x
_atom_site_fract_y
_atom_site_fract_z
Si Si1 0.447233 0.780402 0.646261
Si Si2 0.372527 0.446606 0.157023
Si Si3 0.218139 0.781862 0.347518
Si Si4 0.107967 0.778979 0.653769
Si Si5 0.052335 0.608469 0.146888
O O1 0.430205 0.763707 0.500000
O O2 0.500000 0.761639 0.671447
O O3 0.413958 0.762392 0.761181
O O4 0.446159 0.835959 0.652980
O O5 0.370523 0.500000 0.215873
O O6 0.420091 0.420091 0.206402
O O7 0.328233 0.414788 0.202841
O O8 0.372712 0.449370 0.000000
O O9 0.230840 0.769161 0.500000
O O10 0.250000 0.750000 0.250000
O O11 0.225592 0.836784 0.319938
O O12 0.096094 0.771089 0.500000
O O13 0.089224 0.589224 0.250000
O O14 0.000000 0.590427 0.182377
O O15 0.066259 0.591064 0.000000
#
# Coordination Sequence:
#
# PCOD8319652 Si02
#       5
#    32  32  16  32  32
#     4   9  19  35  53  75 104 135 169 213 261 308
#     4   9  16  27  46  73 105 139 173 211 257 307
#     4  10  22  38  54  74 105 139 175 221 270 322
#     4  10  19  34  54  76 103 136 176 220 262 311
#     4   9  19  35  52  72 101 134 167 208 258 310
#
# _framework density 17.673452999999999
#
# number of rings (size 3 to 8) (size 9 to 14) (size 15 to 20)
#    0.000    2.667    1.111    2.000    0.000    4.889 
#    0.000    8.889    0.000    0.000    0.000    0.000 
#    0.000    0.000    0.000    4.667    0.000    4.444 
#
# Total GULP energy -892364.532598 kJ/mol
# GULP energy per Si atom -12393.951842 kJ/mol
# Density = 1.763323 g / cm^3
# Si number density = 17.673453 Si / 1000 Ang^3
#
#
#
# Elastic Constant Matrix: (Units=GPa)
#
#
# Indices 1 2 3 4 5 6 
#
# 1 80.4052 55.3543 51.9287 0.0000 0.0000 0.0000
# 2 55.3543 80.4055 51.9288 0.0000 0.0000 0.0000
# 3 51.9287 51.9288 85.6458 0.0000 0.0000 0.0000
# 4 0.0000 0.0000 0.0000 24.3068 0.0000 0.0000
# 5 0.0000 0.0000 0.0000 0.0000 24.3069 0.0000
# 6 0.0000 0.0000 0.0000 0.0000 0.0000 34.1586
#
#
#
# Elastic Compliance Matrix: (Units=1/GPa)
#
#
# Indices 1 2 3 4 5 6 
#
# 1 0.026828 -0.013090 -0.008330 0.000000 0.000000 0.000000
# 2 -0.013090 0.026828 -0.008330 0.000000 0.000000 0.000000
# 3 -0.008330 -0.008330 0.021777 0.000000 0.000000 0.000000
# 4 0.000000 0.000000 0.000000 0.041141 0.000000 0.000000
# 5 0.000000 0.000000 0.000000 0.000000 0.041141 0.000000
# 6 0.000000 0.000000 0.000000 0.000000 0.000000 0.029275
#
#
# Mechanical properties :
#
#
# Convention : Reuss Voigt Hill
#
# Bulk Modulus (GPa) = 62.75709 62.76446 62.76078
# Shear Modulus (GPa) = 19.85691 22.37078 21.11384
#
# Velocity S-wave (km/s) = 3.35557 3.56165 3.46014
# Velocity P-wave (km/s) = 7.11333 7.24598 7.17996
#
# Compressibility (1/GPa) = 0.01593445
#
# Stress axis : x y z
#
# Youngs Moduli (GPa) = 37.27385 37.27392 45.91974
#
# Poissons Ratio (x) = 0.48792 0.38250
# Poissons Ratio (y) = 0.48792 0.38251
# Poissons Ratio (z) = 0.31049 0.31049
#
# Static dielectric constant tensor:
#      x y z
#    x 3.329780 0.000000 0.000000 
#    y 0.000000 3.329780 0.000000 
#    z 0.000000 0.000000 3.182790 
# 
# 
# High freq. dielectric constant tensor:
#      x y z
#    x 1.684490 0.000000 0.000000 
#    y 0.000000 1.684490 0.000000 
#    z 0.000000 0.000000 1.661420 
# 
# From -- ./inp_files/2027.got.cif
#   From: 2010.03.12/outbox.cif.g09.slc.cpg/sg139_2_cif.got.tgz:2027.got - 2010.04.08 09:46:31.
