data_PCOD8319344
_publ_section_title
;
Structure prediction by ZEFSAII (Michael W. Deem and Ramdas Pophale) SiO2 
 PCOD8319344
Probable space group: I 4/M M M
;
_chemical_formula_sum "Si O2"
_cell_formula_units_Z 208
_cell_length_a 19.671196
_cell_length_b 19.671196
_cell_length_c 32.128918
_cell_angle_alpha 90.000000
_cell_angle_beta 90.000000
_cell_angle_gamma 90.000000
_cell_volume 12432.476054
_symmetry_space_group_name_H-M "I 4/M M M"
_symmetry_group_IT_number 139
_symmetry_cell_setting 'tetragonal'
loop_
_space_group_symop_operation_xyz
x,y,z
-y,x,z
-x,-y,z
y,-x,z
x,-y,-z
-x,y,-z
y,x,-z
-y,-x,-z
-x,-y,-z
y,-x,-z
x,y,-z
-y,x,-z
-x,y,z
x,-y,z
-y,-x,z
y,x,z
1/2+x,1/2+y,1/2+z
1/2-y,1/2+x,1/2+z
1/2-x,1/2-y,1/2+z
1/2+y,1/2-x,1/2+z
1/2+x,1/2-y,1/2-z
1/2-x,1/2+y,1/2-z
1/2+y,1/2+x,1/2-z
1/2-y,1/2-x,1/2-z
1/2-x,1/2-y,1/2-z
1/2+y,1/2-x,1/2-z
1/2+x,1/2+y,1/2-z
1/2-y,1/2+x,1/2-z
1/2-x,1/2+y,1/2+z
1/2+x,1/2-y,1/2+z
1/2-y,1/2-x,1/2+z
1/2+y,1/2+x,1/2+z
loop_
_atom_site_type_symbol
_atom_site_label
_atom_site_fract_x
_atom_site_fract_y
_atom_site_fract_z
Si Si1 0.253737 0.855021 0.728555
Si Si2 0.696696 0.921257 0.126519
Si Si3 0.846143 0.262248 0.952351
Si Si4 0.928926 0.817642 0.500000
Si Si5 0.310046 0.579247 0.307055
Si Si6 0.820603 0.421509 0.150184
Si Si7 0.629189 0.262592 0.923087
O O1 0.197845 0.802156 0.709995
O O2 0.313485 0.813485 0.750000
O O3 0.218215 0.905069 0.761331
O O4 0.287748 0.901475 0.693869
O O5 0.726600 0.907279 0.080273
O O6 0.753546 0.898162 0.159482
O O7 0.626598 0.883200 0.137289
O O8 0.679678 0.000000 0.130444
O O9 0.812809 0.187192 0.947712
O O10 0.790207 0.317073 0.940783
O O11 0.871782 0.272652 0.000000
O O12 0.865789 0.865789 0.500000
O O13 0.926421 0.771781 0.541000
O O14 0.000000 0.858187 0.500000
O O15 0.328250 0.500000 0.310930
O O16 0.378088 0.621913 0.316212
O O17 0.845141 0.500000 0.151770
O O18 0.761484 0.412241 0.116695
O O19 0.667391 0.332610 0.911219
#
# Coordination Sequence:
#
# PCOD8319344 Si02
#       7
#    32  32  32  16  32  32  32
#     4  10  19  33  54  78 101 128 164 208 257 306
#     4  10  21  34  49  70 101 139 173 207 248 300
#     4   9  16  29  51  76  97 119 157 207 256 298
#     4  10  18  29  44  64  93 123 153 189 230 282
#     4  10  20  35  55  79 106 135 168 208 256 309
#     4  11  21  33  51  73  98 131 170 212 252 296
#     4   9  17  30  48  72  95 119 154 201 251 294
#
# _framework density 16.730376
#
# number of rings (size 3 to 8) (size 9 to 14) (size 15 to 20)
#    0.000    2.154    2.308    1.846    0.000    2.077 
#    0.000    0.000    0.000    0.000    0.000    2.154 
#    0.000   11.077    0.000   14.308    0.000    0.000 
#
# Total GULP energy -1289202.841538 kJ/mol
# GULP energy per Si atom -12396.181169 kJ/mol
# Density = 1.669230 g / cm^3
# Si number density = 16.730376 Si / 1000 Ang^3
#
#
#
# Elastic Constant Matrix: (Units=GPa)
#
#
# Indices 1 2 3 4 5 6 
#
# 1 82.0838 40.7014 40.0944 0.0000 0.0000 0.0000
# 2 40.7014 82.0838 40.0944 0.0000 0.0000 0.0000
# 3 40.0944 40.0944 108.0408 0.0000 0.0000 0.0000
# 4 0.0000 0.0000 0.0000 43.3069 0.0000 0.0000
# 5 0.0000 0.0000 0.0000 0.0000 43.3069 0.0000
# 6 0.0000 0.0000 0.0000 0.0000 0.0000 24.4757
#
#
#
# Elastic Compliance Matrix: (Units=1/GPa)
#
#
# Indices 1 2 3 4 5 6 
#
# 1 0.017457 -0.006708 -0.003989 0.000000 0.000000 0.000000
# 2 -0.006708 0.017457 -0.003989 0.000000 0.000000 0.000000
# 3 -0.003989 -0.003989 0.012217 0.000000 0.000000 0.000000
# 4 0.000000 0.000000 0.000000 0.023091 0.000000 0.000000
# 5 0.000000 0.000000 0.000000 0.000000 0.023091 0.000000
# 6 0.000000 0.000000 0.000000 0.000000 0.000000 0.040857
#
#
# Mechanical properties :
#
#
# Convention : Reuss Voigt Hill
#
# Bulk Modulus (GPa) = 56.30978 57.10985 56.70981
# Shear Modulus (GPa) = 29.50520 32.30580 30.90550
#
# Velocity S-wave (km/s) = 4.20404 4.39904 4.30265
# Velocity P-wave (km/s) = 7.56939 7.74672 7.65857
#
# Compressibility (1/GPa) = 0.01775891
#
# Stress axis : x y z
#
# Youngs Moduli (GPa) = 57.28281 57.28281 81.85592
#
# Poissons Ratio (x) = 0.38423 0.32654
# Poissons Ratio (y) = 0.38423 0.32654
# Poissons Ratio (z) = 0.22851 0.22851
#
# Static dielectric constant tensor:
#      x y z
#    x 3.023350 0.000000 0.000000 
#    y 0.000000 3.023350 0.000000 
#    z 0.000000 0.000000 3.547880 
# 
# 
# High freq. dielectric constant tensor:
#      x y z
#    x 1.632480 0.000000 0.000000 
#    y 0.000000 1.632480 0.000000 
#    z 0.000000 0.000000 1.658510 
# 
# From -- ./inp_files/14506.got.cif
#   From: 2010.03.12/outbox.cif.g09.slc.cpg/sg139_8_cif.got.tgz:14506.got - 2010.04.08 09:46:31.
