data_PCOD8319438
_publ_section_title
;
Structure prediction by ZEFSAII (Michael W. Deem and Ramdas Pophale) SiO2 
 PCOD8319438
Probable space group: I 4/M M M
;
_chemical_formula_sum "Si O2"
_cell_formula_units_Z 208
_cell_length_a 20.263709
_cell_length_b 20.263709
_cell_length_c 33.419638
_cell_angle_alpha 90.000000
_cell_angle_beta 90.000000
_cell_angle_gamma 90.000000
_cell_volume 13722.701656
_symmetry_space_group_name_H-M "I 4/M M M"
_symmetry_group_IT_number 139
_symmetry_cell_setting 'tetragonal'
loop_
_space_group_symop_operation_xyz
x,y,z
-y,x,z
-x,-y,z
y,-x,z
x,-y,-z
-x,y,-z
y,x,-z
-y,-x,-z
-x,-y,-z
y,-x,-z
x,y,-z
-y,x,-z
-x,y,z
x,-y,z
-y,-x,z
y,x,z
1/2+x,1/2+y,1/2+z
1/2-y,1/2+x,1/2+z
1/2-x,1/2-y,1/2+z
1/2+y,1/2-x,1/2+z
1/2+x,1/2-y,1/2-z
1/2-x,1/2+y,1/2-z
1/2+y,1/2+x,1/2-z
1/2-y,1/2-x,1/2-z
1/2-x,1/2-y,1/2-z
1/2+y,1/2-x,1/2-z
1/2+x,1/2+y,1/2-z
1/2-y,1/2+x,1/2-z
1/2-x,1/2+y,1/2+z
1/2+x,1/2-y,1/2+z
1/2-y,1/2-x,1/2+z
1/2+y,1/2+x,1/2+z
loop_
_atom_site_type_symbol
_atom_site_label
_atom_site_fract_x
_atom_site_fract_y
_atom_site_fract_z
Si Si1 0.879619 0.576217 0.099035
Si Si2 0.573013 0.924663 0.811591
Si Si3 0.332868 0.229030 0.869529
Si Si4 0.500000 0.921829 0.455099
Si Si5 0.322512 0.426410 0.176112
Si Si6 0.154858 0.695860 0.790644
Si Si7 0.682854 0.424944 0.267634
O O1 0.855468 0.500000 0.090466
O O2 0.916363 0.578794 0.141079
O O3 0.820984 0.631632 0.099213
O O4 0.932711 0.601507 0.066505
O O5 0.500000 0.902692 0.797224
O O6 0.625438 0.880866 0.788492
O O7 0.586033 0.000000 0.800361
O O8 0.276905 0.276905 0.889875
O O9 0.393179 0.271249 0.853204
O O10 0.297587 0.195935 0.831352
O O11 0.500000 0.892943 0.500000
O O12 0.500000 0.000000 0.454820
O O13 0.330894 0.500000 0.160940
O O14 0.394155 0.394155 0.173214
O O15 0.295709 0.421783 0.221279
O O16 0.199651 0.699651 0.750000
O O17 0.103725 0.756197 0.792686
O O18 0.668693 0.500000 0.281094
O O19 0.616862 0.383139 0.276160
#
# Coordination Sequence:
#
# PCOD8319438 Si02
#       7
#    32  32  32  16  32  32  32
#     4   9  16  28  45  65  90 114 139 173 211 253
#     4   9  17  28  40  57  84 115 143 177 222 269
#     4  10  19  29  43  59  81 116 150 181 219 266
#     4   9  16  28  50  76  96 114 138 167 203 251
#     4   9  17  28  41  57  76 103 143 187 232 271
#     4  11  20  29  42  57  79 110 149 191 229 263
#     4  10  20  32  44  57  74  98 137 190 240 281
#
# _framework density 15.157365
#
# number of rings (size 3 to 8) (size 9 to 14) (size 15 to 20)
#    0.000    2.385    2.308    1.385    0.000    2.769 
#    0.000    2.308    0.000    0.462    0.000    0.000 
#    0.000    0.000    0.000    0.000    0.000    0.000 
#
# Total GULP energy -1288944.352964 kJ/mol
# GULP energy per Si atom -12393.695702 kJ/mol
# Density = 1.512287 g / cm^3
# Si number density = 15.157365 Si / 1000 Ang^3
#
#
#
# Elastic Constant Matrix: (Units=GPa)
#
#
# Indices 1 2 3 4 5 6 
#
# 1 -87.0785 235.0594 24.7047 0.0000 0.0000 0.0000
# 2 235.0594 -87.0785 24.7047 0.0000 0.0000 0.0000
# 3 24.7047 24.7047 46.9105 0.0000 0.0000 0.0000
# 4 0.0000 0.0000 0.0000 10.5949 0.0000 0.0000
# 5 0.0000 0.0000 0.0000 0.0000 10.5949 0.0000
# 6 0.0000 0.0000 0.0000 0.0000 0.0000 29.1016
#
#
#
# Elastic Compliance Matrix: (Units=1/GPa)
#
#
# Indices 1 2 3 4 5 6 
#
# 1 0.002548 0.005652 -0.004318 0.000000 0.000000 0.000000
# 2 0.005652 0.002548 -0.004318 0.000000 0.000000 0.000000
# 3 -0.004318 -0.004318 0.025865 0.000000 0.000000 0.000000
# 4 0.000000 0.000000 0.000000 0.094385 0.000000 0.000000
# 5 0.000000 0.000000 0.000000 0.000000 0.094385 0.000000
# 6 0.000000 0.000000 0.000000 0.000000 0.000000 0.034362
#
#
# Mechanical properties :
#
#
# Convention : Reuss Voigt Hill
#
# Bulk Modulus (GPa) = 40.01325 49.07681 44.54503
# Shear Modulus (GPa) = 18.62950 -17.38939 0.62005
#
# Velocity S-wave (km/s) = 3.50962 -3.39079 0.64029
# Velocity P-wave (km/s) = 6.54821 4.13745 5.47712
#
# Compressibility (1/GPa) = 0.02499172
#
# Stress axis : x y z
#
# Youngs Moduli (GPa) = 392.53150 392.53150 38.66188
#
# Poissons Ratio (x) = -2.21852 0.16695
# Poissons Ratio (y) = -2.21852 0.16695
# Poissons Ratio (z) = 1.69498 1.69498
#
# Static dielectric constant tensor:
#      x y z
#    x 3.015000 0.000000 0.000000 
#    y 0.000000 3.015000 0.000000 
#    z 0.000000 0.000000 2.576630 
# 
# 
# High freq. dielectric constant tensor:
#      x y z
#    x 1.582720 0.000000 0.000000 
#    y 0.000000 1.582720 0.000000 
#    z 0.000000 0.000000 1.523360 
# 
# From -- ./inp_files/14494.got.cif
#   From: 2010.03.12/outbox.cif.g09.slc.cpg/sg139_8_cif.got.tgz:14494.got - 2010.04.08 09:46:31.
