data_PCOD8319025
_publ_section_title
;
Structure prediction by ZEFSAII (Michael W. Deem and Ramdas Pophale) SiO2 
 PCOD8319025
Probable space group: P 42/N C M
;
_chemical_formula_sum "Si O2"
_cell_formula_units_Z 96
_cell_length_a 14.729799
_cell_length_b 14.729799
_cell_length_c 24.208163
_cell_angle_alpha 90.000000
_cell_angle_beta 90.000000
_cell_angle_gamma 90.000000
_cell_volume 5252.371983
_symmetry_space_group_name_H-M "P 42/N C M"
_symmetry_group_IT_number 138
_space_group.IT_coordinate_system_code '2'
_symmetry_cell_setting 'tetragonal'
loop_
_space_group_symop_operation_xyz
x,y,z
1/2-y,x,1/2+z
1/2-x,1/2-y,z
y,1/2-x,1/2+z
1/2+x,-y,1/2-z
-x,1/2+y,1/2-z
1/2+y,1/2+x,-z
-y,-x,-z
-x,-y,-z
1/2+y,-x,1/2-z
1/2+x,1/2+y,-z
-y,1/2+x,1/2-z
1/2-x,y,1/2+z
x,1/2-y,1/2+z
1/2-y,1/2-x,z
y,x,z
loop_
_atom_site_type_symbol
_atom_site_label
_atom_site_fract_x
_atom_site_fract_y
_atom_site_fract_z
Si Si1 0.894902 0.254923 0.492639
Si Si2 0.191683 0.455636 0.196700
Si Si3 0.822317 0.822317 0.768770
Si Si4 0.012398 0.866584 0.419804
Si Si5 0.964906 0.305157 0.882460
Si Si6 0.616272 0.228291 0.268497
Si Si7 0.824520 0.824520 0.638784
O O1 0.858393 0.358393 0.500000
O O2 0.809957 0.190044 0.500000
O O3 0.936712 0.261035 0.431768
O O4 0.967832 0.212901 0.535821
O O5 0.117619 0.382382 0.215208
O O6 0.294044 0.420345 0.208065
O O7 0.187297 0.477908 0.132859
O O8 0.173318 0.538476 0.237334
O O9 0.750000 0.750000 0.791957
O O10 0.823866 0.823866 0.703753
O O11 0.934159 0.934159 0.443361
O O12 0.095752 0.929451 0.400234
O O13 0.916120 0.271080 0.826453
O O14 0.073636 0.300372 0.879735
O O15 0.653526 0.304170 0.224912
O O16 0.750000 0.750000 0.616534
#
# Coordination Sequence:
#
# PCOD8319025 Si02
#       7
#    16  16   8  16  16  16   8
#     4   9  21  35  56  83 116 152 188 236 294 346
#     4  10  20  36  57  81 114 147 188 233 282 341
#     4   9  18  34  56  81 110 148 183 225 284 338
#     4  10  20  35  58  86 114 148 199 248 279 335
#     4  11  21  35  59  82 112 149 192 234 293 337
#     4  11  23  34  53  83 119 151 183 234 290 347
#     4  11  22  36  59  85 113 143 184 239 293 345
#
# _framework density 18.277455
#
# number of rings (size 3 to 8) (size 9 to 14) (size 15 to 20)
#    0.000    1.833    4.167    0.000    3.500    2.333 
#    1.500    0.000    1.833    0.500    0.000    0.000 
#    0.000    0.000    0.000    0.000    0.000    0.000 
#
# Total GULP energy -1189325.460468 kJ/mol
# GULP energy per Si atom -12388.806880 kJ/mol
# Density = 1.823585 g / cm^3
# Si number density = 18.277455 Si / 1000 Ang^3
#
#
#
# Elastic Constant Matrix: (Units=GPa)
#
#
# Indices 1 2 3 4 5 6 
#
# 1 152.9196 -15.8917 48.9480 0.0000 0.0000 0.0000
# 2 -15.8917 152.9123 48.9459 0.0000 0.0000 0.0000
# 3 48.9480 48.9459 99.7018 0.0000 0.0000 0.0000
# 4 0.0000 0.0000 0.0000 58.9220 0.0000 0.0000
# 5 0.0000 0.0000 0.0000 0.0000 58.9290 0.0000
# 6 0.0000 0.0000 0.0000 0.0000 0.0000 27.1323
#
#
#
# Elastic Compliance Matrix: (Units=1/GPa)
#
#
# Indices 1 2 3 4 5 6 
#
# 1 0.008582 0.002658 -0.005518 0.000000 0.000000 0.000000
# 2 0.002658 0.008582 -0.005518 0.000000 0.000000 0.000000
# 3 -0.005518 -0.005518 0.015448 0.000000 0.000000 0.000000
# 4 0.000000 0.000000 0.000000 0.016972 0.000000 0.000000
# 5 0.000000 0.000000 0.000000 0.000000 0.016970 0.000000
# 6 0.000000 0.000000 0.000000 0.000000 0.000000 0.036856
#
#
# Mechanical properties :
#
#
# Convention : Reuss Voigt Hill
#
# Bulk Modulus (GPa) = 63.06851 63.28202 63.17527
# Shear Modulus (GPa) = 39.85593 50.56544 45.21069
#
# Velocity S-wave (km/s) = 4.67476 5.26550 4.97890
# Velocity P-wave (km/s) = 7.98242 8.46555 8.22753
#
# Compressibility (1/GPa) = 0.01585577
#
# Stress axis : x y z
#
# Youngs Moduli (GPa) = 116.52335 116.51859 64.73280
#
# Poissons Ratio (x) = -0.30973 0.35721
# Poissons Ratio (y) = -0.30975 0.35722
# Poissons Ratio (z) = 0.64301 0.64298
#
# Static dielectric constant tensor:
#      x y z
#    x 3.583720 0.000000 0.000000 
#    y 0.000000 3.583720 0.000000 
#    z 0.000000 0.000000 3.345260 
# 
# 
# High freq. dielectric constant tensor:
#      x y z
#    x 1.703030 0.000000 0.000000 
#    y 0.000000 1.703030 0.000000 
#    z 0.000000 0.000000 1.706020 
# 
# From -- ./inp_files/6314.got.cif
#   From: 2010.03.12/outbox.cif.g09.slc.cpg/sg138_4_cif.got.tgz:6314.got - 2010.04.08 09:41:05.
