data_PCOD8319659
_publ_section_title
;
Structure prediction by ZEFSAII (Michael W. Deem and Ramdas Pophale) SiO2 
 PCOD8319659
Probable space group: I 4/M M M
;
_chemical_formula_sum "Si O2"
_cell_formula_units_Z 136
_cell_length_a 24.873496
_cell_length_b 24.873496
_cell_length_c 12.024466
_cell_angle_alpha 90.000000
_cell_angle_beta 90.000000
_cell_angle_gamma 90.000000
_cell_volume 7439.426528
_symmetry_space_group_name_H-M "I 4/M M M"
_symmetry_group_IT_number 139
_symmetry_cell_setting 'tetragonal'
loop_
_space_group_symop_operation_xyz
x,y,z
-y,x,z
-x,-y,z
y,-x,z
x,-y,-z
-x,y,-z
y,x,-z
-y,-x,-z
-x,-y,-z
y,-x,-z
x,y,-z
-y,x,-z
-x,y,z
x,-y,z
-y,-x,z
y,x,z
1/2+x,1/2+y,1/2+z
1/2-y,1/2+x,1/2+z
1/2-x,1/2-y,1/2+z
1/2+y,1/2-x,1/2+z
1/2+x,1/2-y,1/2-z
1/2-x,1/2+y,1/2-z
1/2+y,1/2+x,1/2-z
1/2-y,1/2-x,1/2-z
1/2-x,1/2-y,1/2-z
1/2+y,1/2-x,1/2-z
1/2+x,1/2+y,1/2-z
1/2-y,1/2+x,1/2-z
1/2-x,1/2+y,1/2+z
1/2+x,1/2-y,1/2+z
1/2-y,1/2-x,1/2+z
1/2+y,1/2+x,1/2+z
loop_
_atom_site_type_symbol
_atom_site_label
_atom_site_fract_x
_atom_site_fract_y
_atom_site_fract_z
Si Si1 0.500000 0.639862 0.735547
Si Si2 0.219381 0.387085 0.130392
Si Si3 0.810605 0.810605 0.623489
Si Si4 0.913132 0.000000 0.000000
Si Si5 0.390644 0.109357 0.250000
Si Si6 0.900250 0.900250 0.374719
Si Si7 0.136426 0.500000 0.367969
Si Si8 0.741204 0.000000 0.263595
O O1 0.500000 0.619080 0.612208
O O2 0.550266 0.622553 0.807376
O O3 0.500000 0.701964 0.706461
O O4 0.258026 0.339111 0.182674
O O5 0.157277 0.381634 0.162890
O O6 0.237472 0.446826 0.161974
O O7 0.225493 0.381558 0.000000
O O8 0.792794 0.792794 0.500000
O O9 0.855522 0.855522 0.617258
O O10 0.946573 0.053428 0.000000
O O11 0.446923 0.109717 0.315355
O O12 0.917497 0.917497 0.500000
O O13 0.128083 0.500000 0.500000
O O14 0.199049 0.500000 0.337463
#
# Coordination Sequence:
#
# PCOD8319659 Si02
#       8
#    16  32  16   8  16  16  16  16
#     4  12  22  38  55  80 113 152 205 245 292 352
#     4  10  19  34  55  81 113 148 185 230 285 339
#     4   9  18  31  51  81 112 145 182 228 293 341
#     4  11  24  40  52  68 106 164 204 245 290 346
#     4  10  22  38  60  86 112 148 184 220 276 336
#     4  11  22  34  55  84 117 149 189 256 311 341
#     4  10  22  42  61  87 118 144 178 223 270 332
#     4  10  21  33  57  85 110 146 189 234 279 335
#
# _framework density 18.280978999999999
#
# number of rings (size 3 to 8) (size 9 to 14) (size 15 to 20)
#    0.000    1.706    3.529    1.412    0.824    1.882 
#    0.000    2.941    0.000    0.000    0.000    0.000 
#    0.000    0.000    0.000    0.000    0.000    0.000 
#
# Total GULP energy -842504.566737 kJ/mol
# GULP energy per Si atom -12389.773040 kJ/mol
# Density = 1.823937 g / cm^3
# Si number density = 18.280979 Si / 1000 Ang^3
#
#
#
# Elastic Constant Matrix: (Units=GPa)
#
#
# Indices 1 2 3 4 5 6 
#
# 1 139.2586 61.7557 50.2174 0.0000 0.0000 0.0000
# 2 61.7557 139.2559 50.2170 0.0000 0.0000 0.0000
# 3 50.2174 50.2170 118.0689 0.0000 0.0000 0.0000
# 4 0.0000 0.0000 0.0000 21.0833 0.0000 0.0000
# 5 0.0000 0.0000 0.0000 0.0000 21.0836 0.0000
# 6 0.0000 0.0000 0.0000 0.0000 0.0000 18.2981
#
#
#
# Elastic Compliance Matrix: (Units=1/GPa)
#
#
# Indices 1 2 3 4 5 6 
#
# 1 0.009610 -0.003293 -0.002687 0.000000 0.000000 0.000000
# 2 -0.003293 0.009610 -0.002687 0.000000 0.000000 0.000000
# 3 -0.002687 -0.002687 0.010755 0.000000 0.000000 0.000000
# 4 0.000000 0.000000 0.000000 0.047431 0.000000 0.000000
# 5 0.000000 0.000000 0.000000 0.000000 0.047430 0.000000
# 6 0.000000 0.000000 0.000000 0.000000 0.000000 0.054651
#
#
# Mechanical properties :
#
#
# Convention : Reuss Voigt Hill
#
# Bulk Modulus (GPa) = 79.09975 80.10707 79.60341
# Shear Modulus (GPa) = 24.87135 27.71920 26.29527
#
# Velocity S-wave (km/s) = 3.69250 3.89818 3.79673
# Velocity P-wave (km/s) = 7.84489 8.01100 7.92838
#
# Compressibility (1/GPa) = 0.01264226
#
# Stress axis : x y z
#
# Youngs Moduli (GPa) = 104.05794 104.05585 92.97829
#
# Poissons Ratio (x) = 0.34264 0.24982
# Poissons Ratio (y) = 0.34265 0.24982
# Poissons Ratio (z) = 0.27959 0.27959
#
# Static dielectric constant tensor:
#      x y z
#    x 3.353500 0.000000 0.000000 
#    y 0.000000 3.352560 0.000000 
#    z 0.000000 0.000000 3.190360 
# 
# 
# High freq. dielectric constant tensor:
#      x y z
#    x 1.721520 0.000000 0.000000 
#    y 0.000000 1.721520 0.000000 
#    z 0.000000 0.000000 1.693520 
# 
# From -- ./inp_files/3632.got.cif
#   From: 2010.03.12/outbox.cif.g09.slc.cpg/sg139_2_cif.got.tgz:3632.got - 2010.04.08 09:46:31.
