data_PCOD8319842
_publ_section_title
;
Structure prediction by ZEFSAII (Michael W. Deem and Ramdas Pophale) SiO2 
 PCOD8319842
Probable space group: I 4/M M M
;
_chemical_formula_sum "Si O2"
_cell_formula_units_Z 144
_cell_length_a 20.081121
_cell_length_b 20.081121
_cell_length_c 17.447217
_cell_angle_alpha 90.000000
_cell_angle_beta 90.000000
_cell_angle_gamma 90.000000
_cell_volume 7035.615041
_symmetry_space_group_name_H-M "I 4/M M M"
_symmetry_group_IT_number 139
_symmetry_cell_setting 'tetragonal'
loop_
_space_group_symop_operation_xyz
x,y,z
-y,x,z
-x,-y,z
y,-x,z
x,-y,-z
-x,y,-z
y,x,-z
-y,-x,-z
-x,-y,-z
y,-x,-z
x,y,-z
-y,x,-z
-x,y,z
x,-y,z
-y,-x,z
y,x,z
1/2+x,1/2+y,1/2+z
1/2-y,1/2+x,1/2+z
1/2-x,1/2-y,1/2+z
1/2+y,1/2-x,1/2+z
1/2+x,1/2-y,1/2-z
1/2-x,1/2+y,1/2-z
1/2+y,1/2+x,1/2-z
1/2-y,1/2-x,1/2-z
1/2-x,1/2-y,1/2-z
1/2+y,1/2-x,1/2-z
1/2+x,1/2+y,1/2-z
1/2-y,1/2+x,1/2-z
1/2-x,1/2+y,1/2+z
1/2+x,1/2-y,1/2+z
1/2-y,1/2-x,1/2+z
1/2+y,1/2+x,1/2+z
loop_
_atom_site_type_symbol
_atom_site_label
_atom_site_fract_x
_atom_site_fract_y
_atom_site_fract_z
Si Si1 0.771536 0.877253 0.161117
Si Si2 0.126594 0.578067 0.326942
Si Si3 0.683262 0.575838 0.500000
Si Si4 0.575830 0.681674 0.815927
Si Si5 0.577571 0.195986 0.916417
O O1 0.801488 0.801488 0.160731
O O2 0.695425 0.882460 0.186632
O O3 0.812449 0.919845 0.223664
O O4 0.774957 0.907582 0.076004
O O5 0.136027 0.500000 0.348974
O O6 0.082892 0.582892 0.250000
O O7 0.089863 0.619190 0.393197
O O8 0.662950 0.500000 0.500000
O O9 0.614244 0.614244 0.500000
O O10 0.500000 0.666854 0.839430
O O11 0.620438 0.620438 0.845672
O O12 0.604122 0.749489 0.855434
O O13 0.500000 0.206925 0.922847
O O14 0.610826 0.208066 0.000000
#
# Coordination Sequence:
#
# PCOD8319842 Si02
#       5
#    32  32  16  32  32
#     4  10  22  39  60  86 119 159 202 247 299 365
#     4  12  24  39  63  91 121 157 202 254 309 365
#     4  10  20  35  56  84 119 157 197 245 298 354
#     4  10  20  38  63  90 122 161 205 254 310 370
#     4  10  23  42  60  84 121 162 203 248 302 364
#
# _framework density 20.467293999999999
#
# number of rings (size 3 to 8) (size 9 to 14) (size 15 to 20)
#    0.000    1.556    2.222    2.667    1.556    4.111 
#    0.000    1.111    0.000    4.000    0.000    3.111 
#    0.000    0.000    0.000    0.000    0.000    0.000 
#
# Total GULP energy -892365.324077 kJ/mol
# GULP energy per Si atom -12393.962834 kJ/mol
# Density = 2.042071 g / cm^3
# Si number density = 20.467294 Si / 1000 Ang^3
#
#
#
# Elastic Constant Matrix: (Units=GPa)
#
#
# Indices 1 2 3 4 5 6 
#
# 1 88.6441 40.6423 43.4250 0.0000 0.0000 0.0000
# 2 40.6423 88.6441 43.4250 0.0000 0.0000 0.0000
# 3 43.4250 43.4250 127.5564 0.0000 0.0000 0.0000
# 4 0.0000 0.0000 0.0000 21.6125 0.0000 0.0000
# 5 0.0000 0.0000 0.0000 0.0000 21.6125 0.0000
# 6 0.0000 0.0000 0.0000 0.0000 0.0000 26.7133
#
#
#
# Elastic Compliance Matrix: (Units=1/GPa)
#
#
# Indices 1 2 3 4 5 6 
#
# 1 0.015430 -0.005402 -0.003414 0.000000 0.000000 0.000000
# 2 -0.005402 0.015430 -0.003414 0.000000 0.000000 0.000000
# 3 -0.003414 -0.003414 0.010164 0.000000 0.000000 0.000000
# 4 0.000000 0.000000 0.000000 0.046270 0.000000 0.000000
# 5 0.000000 0.000000 0.000000 0.000000 0.046270 0.000000
# 6 0.000000 0.000000 0.000000 0.000000 0.000000 0.037435
#
#
# Mechanical properties :
#
#
# Convention : Reuss Voigt Hill
#
# Bulk Modulus (GPa) = 60.36969 62.20325 61.28647
# Shear Modulus (GPa) = 24.87807 25.81114 25.34460
#
# Velocity S-wave (km/s) = 3.49019 3.55504 3.52276
# Velocity P-wave (km/s) = 6.76769 6.87812 6.82313
#
# Compressibility (1/GPa) = 0.01656460
#
# Stress axis : x y z
#
# Youngs Moduli (GPa) = 64.80734 64.80734 98.38494
#
# Poissons Ratio (x) = 0.35010 0.33588
# Poissons Ratio (y) = 0.35010 0.33588
# Poissons Ratio (z) = 0.22125 0.22125
#
# Static dielectric constant tensor:
#      x y z
#    x 3.615390 0.000000 0.000000 
#    y 0.000000 3.615390 0.000000 
#    z 0.000000 0.000000 4.126390 
# 
# 
# High freq. dielectric constant tensor:
#      x y z
#    x 1.791040 0.000000 0.000000 
#    y 0.000000 1.791040 0.000000 
#    z 0.000000 0.000000 1.807910 
# 
# From -- ./inp_files/8177.got.cif
#   From: 2010.03.12/outbox.cif.g09.slc.cpg/sg139_5_cif.got.tgz:8177.got - 2010.04.08 09:46:31.
