data_PCOD8319447
_publ_section_title
;
Structure prediction by ZEFSAII (Michael W. Deem and Ramdas Pophale) SiO2 
 PCOD8319447
Probable space group: I 4/M M M
;
_chemical_formula_sum "Si O2"
_cell_formula_units_Z 160
_cell_length_a 17.209505
_cell_length_b 17.209505
_cell_length_c 32.870194
_cell_angle_alpha 90.000000
_cell_angle_beta 90.000000
_cell_angle_gamma 90.000000
_cell_volume 9735.068796
_symmetry_space_group_name_H-M "I 4/M M M"
_symmetry_group_IT_number 139
_symmetry_cell_setting 'tetragonal'
loop_
_space_group_symop_operation_xyz
x,y,z
-y,x,z
-x,-y,z
y,-x,z
x,-y,-z
-x,y,-z
y,x,-z
-y,-x,-z
-x,-y,-z
y,-x,-z
x,y,-z
-y,x,-z
-x,y,z
x,-y,z
-y,-x,z
y,x,z
1/2+x,1/2+y,1/2+z
1/2-y,1/2+x,1/2+z
1/2-x,1/2-y,1/2+z
1/2+y,1/2-x,1/2+z
1/2+x,1/2-y,1/2-z
1/2-x,1/2+y,1/2-z
1/2+y,1/2+x,1/2-z
1/2-y,1/2-x,1/2-z
1/2-x,1/2-y,1/2-z
1/2+y,1/2-x,1/2-z
1/2+x,1/2+y,1/2-z
1/2-y,1/2+x,1/2-z
1/2-x,1/2+y,1/2+z
1/2+x,1/2-y,1/2+z
1/2-y,1/2-x,1/2+z
1/2+y,1/2+x,1/2+z
loop_
_atom_site_type_symbol
_atom_site_label
_atom_site_fract_x
_atom_site_fract_y
_atom_site_fract_z
Si Si1 0.800102 0.329469 0.615553
Si Si2 0.913056 0.789377 0.178927
Si Si3 0.587859 0.787957 0.237852
Si Si4 0.910072 0.217023 0.953342
Si Si5 0.908882 0.217619 0.348662
O O1 0.738719 0.261282 0.619228
O O2 0.786939 0.387717 0.653474
O O3 0.788725 0.376251 0.573309
O O4 0.883995 0.287088 0.619980
O O5 0.862568 0.862568 0.165173
O O6 0.904391 0.775830 0.226871
O O7 0.000000 0.810405 0.166687
O O8 0.500000 0.818631 0.233866
O O9 0.639087 0.860914 0.250000
O O10 0.614131 0.746792 0.196367
O O11 0.862061 0.137940 0.944295
O O12 0.000000 0.201005 0.942379
O O13 0.900724 0.242711 0.000000
O O14 0.862241 0.137760 0.357390
O O15 0.000000 0.200476 0.353861
#
# Coordination Sequence:
#
# PCOD8319447 Si02
#       5
#    32  32  32  32  32
#     4   9  17  30  48  67  91 123 161 195 225 273
#     4  10  19  29  44  65  90 123 159 196 235 273
#     4  10  19  31  47  67  93 125 161 198 235 278
#     4   9  17  29  47  72 101 132 164 198 235 274
#     4  10  20  33  51  73  95 121 153 192 239 288
#
# _framework density 16.435426
#
# number of rings (size 3 to 8) (size 9 to 14) (size 15 to 20)
#    0.000    2.400    2.000    1.200    0.000    1.600 
#    0.000    1.000    0.000   10.200    0.000    1.400 
#    0.000    0.000    0.000    7.800    0.000    0.000 
#
# Total GULP energy -991567.306462 kJ/mol
# GULP energy per Si atom -12394.591331 kJ/mol
# Density = 1.639802 g / cm^3
# Si number density = 16.435426 Si / 1000 Ang^3
#
#
#
# Elastic Constant Matrix: (Units=GPa)
#
#
# Indices 1 2 3 4 5 6 
#
# 1 88.1592 61.5504 33.2542 0.0000 0.0000 0.0000
# 2 61.5504 88.1560 33.2553 0.0000 0.0000 0.0000
# 3 33.2542 33.2553 80.7826 0.0000 0.0000 0.0000
# 4 0.0000 0.0000 0.0000 21.9245 0.0000 0.0000
# 5 0.0000 0.0000 0.0000 0.0000 21.9243 0.0000
# 6 0.0000 0.0000 0.0000 0.0000 0.0000 20.8888
#
#
#
# Elastic Compliance Matrix: (Units=1/GPa)
#
#
# Indices 1 2 3 4 5 6 
#
# 1 0.022879 -0.014705 -0.003365 0.000000 0.000000 0.000000
# 2 -0.014705 0.022880 -0.003366 0.000000 0.000000 0.000000
# 3 -0.003365 -0.003366 0.015150 0.000000 0.000000 0.000000
# 4 0.000000 0.000000 0.000000 0.045611 0.000000 0.000000
# 5 0.000000 0.000000 0.000000 0.000000 0.045612 0.000000
# 6 0.000000 0.000000 0.000000 0.000000 0.000000 0.047873
#
#
# Mechanical properties :
#
#
# Convention : Reuss Voigt Hill
#
# Bulk Modulus (GPa) = 55.43793 57.02418 56.23106
# Shear Modulus (GPa) = 20.08953 21.55003 20.81978
#
# Velocity S-wave (km/s) = 3.49998 3.62497 3.56302
# Velocity P-wave (km/s) = 7.08076 7.23130 7.15643
#
# Compressibility (1/GPa) = 0.01803819
#
# Stress axis : x y z
#
# Youngs Moduli (GPa) = 43.70885 43.70650 66.00874
#
# Poissons Ratio (x) = 0.64269 0.22210
# Poissons Ratio (y) = 0.64272 0.22216
# Poissons Ratio (z) = 0.14707 0.14710
#
# Static dielectric constant tensor:
#      x y z
#    x 3.039840 0.000000 0.000000 
#    y 0.000000 3.039840 0.000000 
#    z 0.000000 0.000000 3.160050 
# 
# 
# High freq. dielectric constant tensor:
#      x y z
#    x 1.619670 0.000000 0.000000 
#    y 0.000000 1.619670 0.000000 
#    z 0.000000 0.000000 1.625280 
# 
# From -- ./inp_files/14045.got.cif
#   From: 2010.03.12/outbox.cif.g09.slc.cpg/sg139_8_cif.got.tgz:14045.got - 2010.04.08 09:46:31.
