data_PCOD8319046
_publ_section_title
;
Structure prediction by ZEFSAII (Michael W. Deem and Ramdas Pophale) SiO2 
 PCOD8319046
Probable space group: P 42/N C M
;
_chemical_formula_sum "Si O2"
_cell_formula_units_Z 64
_cell_length_a 24.667320
_cell_length_b 24.667320
_cell_length_c 4.840781
_cell_angle_alpha 90.000000
_cell_angle_beta 90.000000
_cell_angle_gamma 90.000000
_cell_volume 2945.502332
_symmetry_space_group_name_H-M "P 42/N C M"
_symmetry_group_IT_number 138
_space_group.IT_coordinate_system_code '2'
_symmetry_cell_setting 'tetragonal'
loop_
_space_group_symop_operation_xyz
x,y,z
1/2-y,x,1/2+z
1/2-x,1/2-y,z
y,1/2-x,1/2+z
1/2+x,-y,1/2-z
-x,1/2+y,1/2-z
1/2+y,1/2+x,-z
-y,-x,-z
-x,-y,-z
1/2+y,-x,1/2-z
1/2+x,1/2+y,-z
-y,1/2+x,1/2-z
1/2-x,y,1/2+z
x,1/2-y,1/2+z
1/2-y,1/2-x,z
y,x,z
loop_
_atom_site_type_symbol
_atom_site_label
_atom_site_fract_x
_atom_site_fract_y
_atom_site_fract_z
Si Si1 0.557322 0.642915 0.213772
Si Si2 0.443115 0.891648 0.753183
Si Si3 0.714041 0.476230 0.476632
Si Si4 0.286279 0.372863 0.143496
O O1 0.605343 0.605343 0.342278
O O2 0.505190 0.605080 0.139277
O O3 0.536818 0.688943 0.430794
O O4 0.577836 0.673135 0.937074
O O5 0.402594 0.902594 0.500000
O O6 0.432203 0.831437 0.883984
O O7 0.434707 0.934707 0.000000
O O8 0.731203 0.469143 0.793934
O O9 0.231306 0.375856 0.962202
O O10 0.316048 0.316048 0.087162
#
# Coordination Sequence:
#
# PCOD8319046 Si02
#       4
#    16  16  16  16
#     4   9  22  37  59  85 119 162 200 241 291 349
#     4  10  22  38  59  88 120 152 195 238 287 352
#     4  10  20  37  60  82 115 157 192 234 286 336
#     4  11  23  39  58  82 113 155 209 259 303 347
#
# _framework density 21.728043
#
# number of rings (size 3 to 8) (size 9 to 14) (size 15 to 20)
#    1.500    0.500    0.000    3.750    0.000    4.500 
#    0.000    8.750    0.000    0.000    0.000    0.000 
#    0.000   35.000    0.000    0.000    0.000    0.000 
#
# Total GULP energy -792978.566714 kJ/mol
# GULP energy per Si atom -12390.290105 kJ/mol
# Density = 2.167859 g / cm^3
# Si number density = 21.728043 Si / 1000 Ang^3
#
#
#
# Elastic Constant Matrix: (Units=GPa)
#
#
# Indices 1 2 3 4 5 6 
#
# 1 76.8528 45.6987 9.8042 0.0000 0.0000 0.0000
# 2 45.6987 76.8528 9.8042 0.0000 0.0000 0.0000
# 3 9.8042 9.8042 59.8201 0.0000 0.0000 0.0000
# 4 0.0000 0.0000 0.0000 15.7359 0.0000 0.0000
# 5 0.0000 0.0000 0.0000 0.0000 15.7359 0.0000
# 6 0.0000 0.0000 0.0000 0.0000 0.0000 37.4069
#
#
#
# Elastic Compliance Matrix: (Units=1/GPa)
#
#
# Indices 1 2 3 4 5 6 
#
# 1 0.020239 -0.011859 -0.001373 0.000000 0.000000 0.000000
# 2 -0.011859 0.020239 -0.001373 0.000000 0.000000 0.000000
# 3 -0.001373 -0.001373 0.017167 0.000000 0.000000 0.000000
# 4 0.000000 0.000000 0.000000 0.063549 0.000000 0.000000
# 5 0.000000 0.000000 0.000000 0.000000 0.063549 0.000000
# 6 0.000000 0.000000 0.000000 0.000000 0.000000 0.026733
#
#
# Mechanical properties :
#
#
# Convention : Reuss Voigt Hill
#
# Bulk Modulus (GPa) = 35.17084 38.23777 36.70430
# Shear Modulus (GPa) = 19.98671 23.65697 21.82184
#
# Velocity S-wave (km/s) = 3.03621 3.30324 3.17253
# Velocity P-wave (km/s) = 5.33979 5.67319 5.50901
#
# Compressibility (1/GPa) = 0.02843265
#
# Stress axis : x y z
#
# Youngs Moduli (GPa) = 49.40940 49.40940 58.25141
#
# Poissons Ratio (x) = 0.58597 0.08000
# Poissons Ratio (y) = 0.58597 0.08000
# Poissons Ratio (z) = 0.06786 0.06786
#
# Static dielectric constant tensor:
#      x y z
#    x 3.848380 0.000000 0.000000 
#    y 0.000000 3.848380 0.000000 
#    z 0.000000 0.000000 3.568310 
# 
# 
# High freq. dielectric constant tensor:
#      x y z
#    x 1.836730 0.000000 0.000000 
#    y 0.000000 1.836730 0.000000 
#    z 0.000000 0.000000 1.852030 
# 
# From -- ./inp_files/366.got.cif
#   From: 2010.03.12/outbox.cif.g09.slc.cpg/sg138_1_cif.got.tgz:366.got - 2010.04.08 09:41:05.
