data_PCOD8319057
_publ_section_title
;
Structure prediction by ZEFSAII (Michael W. Deem and Ramdas Pophale) SiO2 
 PCOD8319057
Probable space group: P 42/N C M
;
_chemical_formula_sum "Si O2"
_cell_formula_units_Z 56
_cell_length_a 11.311383
_cell_length_b 11.311383
_cell_length_c 23.303114
_cell_angle_alpha 90.000000
_cell_angle_beta 90.000000
_cell_angle_gamma 90.000000
_cell_volume 2981.572507
_symmetry_space_group_name_H-M "P 42/N C M"
_symmetry_group_IT_number 138
_space_group.IT_coordinate_system_code '2'
_symmetry_cell_setting 'tetragonal'
loop_
_space_group_symop_operation_xyz
x,y,z
1/2-y,x,1/2+z
1/2-x,1/2-y,z
y,1/2-x,1/2+z
1/2+x,-y,1/2-z
-x,1/2+y,1/2-z
1/2+y,1/2+x,-z
-y,-x,-z
-x,-y,-z
1/2+y,-x,1/2-z
1/2+x,1/2+y,-z
-y,1/2+x,1/2-z
1/2-x,y,1/2+z
x,1/2-y,1/2+z
1/2-y,1/2-x,z
y,x,z
loop_
_atom_site_type_symbol
_atom_site_label
_atom_site_fract_x
_atom_site_fract_y
_atom_site_fract_z
Si Si1 0.182892 0.988370 0.472224
Si Si2 0.348206 0.348206 0.271671
Si Si3 0.954448 0.954448 0.839982
Si Si4 0.909882 0.590119 0.470317
Si Si5 0.515429 0.798222 0.643693
O O1 0.132835 0.867166 0.500000
O O2 0.277756 0.053442 0.512385
O O3 0.238725 0.953988 0.410996
O O4 0.075966 0.075966 0.459802
O O5 0.250000 0.250000 0.262385
O O6 0.385703 0.385703 0.208602
O O7 0.296791 0.460741 0.306230
O O8 0.912024 0.912024 0.901886
O O9 0.930681 0.096227 0.833496
O O10 0.000000 0.500000 0.500000
O O11 0.641526 0.858474 0.624296
#
# Coordination Sequence:
#
# PCOD8319057 Si02
#       5
#    16   8   8   8  16
#     4  11  22  37  63  97 121 159 214 256 306 375
#     4  10  20  38  67  84 111 165 208 249 307 367
#     4  10  22  38  60  91 117 158 206 253 312 374
#     4  12  21  39  62  86 130 165 198 253 318 379
#     4   9  18  38  65  81 118 166 200 246 309 378
#
# _framework density 18.782033999999999
#
# number of rings (size 3 to 8) (size 9 to 14) (size 15 to 20)
#    0.857    0.857    5.714    0.429    0.000    1.714 
#    5.143    0.000    0.000    0.000    0.000    0.000 
#    0.000    0.000    0.000    0.000    0.000    0.000 
#
# Total GULP energy -694078.670896 kJ/mol
# GULP energy per Si atom -12394.261980 kJ/mol
# Density = 1.873928 g / cm^3
# Si number density = 18.782034 Si / 1000 Ang^3
#
#
#
# Elastic Constant Matrix: (Units=GPa)
#
#
# Indices 1 2 3 4 5 6 
#
# 1 57.2023 32.6810 41.4908 0.0000 0.0000 0.0000
# 2 32.6810 57.2042 41.4906 0.0000 0.0000 0.0000
# 3 41.4908 41.4906 158.8701 0.0000 0.0000 0.0000
# 4 0.0000 0.0000 0.0000 34.0285 0.0000 0.0000
# 5 0.0000 0.0000 0.0000 0.0000 34.0285 0.0000
# 6 0.0000 0.0000 0.0000 0.0000 0.0000 30.6454
#
#
#
# Elastic Compliance Matrix: (Units=1/GPa)
#
#
# Indices 1 2 3 4 5 6 
#
# 1 0.027720 -0.013060 -0.003829 0.000000 0.000000 0.000000
# 2 -0.013060 0.027719 -0.003828 0.000000 0.000000 0.000000
# 3 -0.003829 -0.003828 0.008294 0.000000 0.000000 0.000000
# 4 0.000000 0.000000 0.000000 0.029387 0.000000 0.000000
# 5 0.000000 0.000000 0.000000 0.000000 0.029387 0.000000
# 6 0.000000 0.000000 0.000000 0.000000 0.000000 0.032631
#
#
# Mechanical properties :
#
#
# Convention : Reuss Voigt Hill
#
# Bulk Modulus (GPa) = 44.84354 56.06683 50.45518
# Shear Modulus (GPa) = 24.50906 30.24810 27.37858
#
# Velocity S-wave (km/s) = 3.61629 4.01743 3.82213
# Velocity P-wave (km/s) = 6.43151 7.17188 6.81176
#
# Compressibility (1/GPa) = 0.02229976
#
# Stress axis : x y z
#
# Youngs Moduli (GPa) = 36.07466 36.07625 120.56576
#
# Poissons Ratio (x) = 0.47114 0.46162
# Poissons Ratio (y) = 0.47112 0.46158
# Poissons Ratio (z) = 0.13812 0.13812
#
# Static dielectric constant tensor:
#      x y z
#    x 3.402310 0.000000 0.000000 
#    y 0.000000 3.402310 0.000000 
#    z 0.000000 0.000000 3.337000 
# 
# 
# High freq. dielectric constant tensor:
#      x y z
#    x 1.714730 0.000000 0.000000 
#    y 0.000000 1.714730 0.000000 
#    z 0.000000 0.000000 1.727950 
# 
# From -- ./inp_files/5773.got.cif
#   From: 2010.03.12/outbox.cif.g09.slc.cpg/sg138_3_cif.got.tgz:5773.got - 2010.04.08 09:41:05.
