data_PCOD8319111
_publ_section_title
;
Structure prediction by ZEFSAII (Michael W. Deem and Ramdas Pophale) SiO2 
 PCOD8319111
Probable space group: P 42/N C M
;
_chemical_formula_sum "Si O2"
_cell_formula_units_Z 96
_cell_length_a 22.706885
_cell_length_b 22.706885
_cell_length_c 8.988161
_cell_angle_alpha 90.000000
_cell_angle_beta 90.000000
_cell_angle_gamma 90.000000
_cell_volume 4634.319418
_symmetry_space_group_name_H-M "P 42/N C M"
_symmetry_group_IT_number 138
_space_group.IT_coordinate_system_code '2'
_symmetry_cell_setting 'tetragonal'
loop_
_space_group_symop_operation_xyz
x,y,z
1/2-y,x,1/2+z
1/2-x,1/2-y,z
y,1/2-x,1/2+z
1/2+x,-y,1/2-z
-x,1/2+y,1/2-z
1/2+y,1/2+x,-z
-y,-x,-z
-x,-y,-z
1/2+y,-x,1/2-z
1/2+x,1/2+y,-z
-y,1/2+x,1/2-z
1/2-x,y,1/2+z
x,1/2-y,1/2+z
1/2-y,1/2-x,z
y,x,z
loop_
_atom_site_type_symbol
_atom_site_label
_atom_site_fract_x
_atom_site_fract_y
_atom_site_fract_z
Si Si1 0.843660 0.751009 0.926719
Si Si2 0.258974 0.075504 0.821602
Si Si3 0.874532 0.530109 0.303213
Si Si4 0.689559 0.314425 0.320711
Si Si5 0.962636 0.632970 0.651677
Si Si6 0.602372 0.404638 0.172483
O O1 0.810168 0.689832 0.929741
O O2 0.803878 0.803878 0.992713
O O3 0.906659 0.744268 0.006106
O O4 0.861292 0.767392 0.758836
O O5 0.314276 0.033719 0.790836
O O6 0.197029 0.046265 0.774574
O O7 0.923525 0.576476 0.244620
O O8 0.861371 0.542731 0.474674
O O9 0.896804 0.464549 0.277724
O O10 0.692201 0.307800 0.500000
O O11 0.753627 0.331536 0.255787
O O12 0.644375 0.365608 0.276211
O O13 0.914175 0.585826 0.709865
O O14 0.026978 0.613493 0.701820
O O15 0.612629 0.387372 0.000000
#
# Coordination Sequence:
#
# PCOD8319111 Si02
#       6
#    16  16  16  16  16  16
#     4  11  22  36  56  84 120 162 205 256 318 374
#     4  12  22  37  60  86 121 160 212 266 312 372
#     4  10  21  40  64  91 124 166 217 265 315 376
#     4  11  23  43  70  98 132 165 201 252 313 380
#     4  10  21  40  64  91 124 166 217 265 315 376
#     4  10  22  41  68  97 127 165 210 257 316 381
#
# _framework density 20.715015000000001
#
# number of rings (size 3 to 8) (size 9 to 14) (size 15 to 20)
#    0.000    1.333    1.667    5.500    2.333    3.333 
#    3.000    0.000    0.000    1.000    0.000    0.000 
#    0.000    0.000    0.000    0.000    0.000    0.000 
#
# Total GULP energy -1190287.479802 kJ/mol
# GULP energy per Si atom -12398.827915 kJ/mol
# Density = 2.066787 g / cm^3
# Si number density = 20.715015 Si / 1000 Ang^3
#
#
#
# Elastic Constant Matrix: (Units=GPa)
#
#
# Indices 1 2 3 4 5 6 
#
# 1 113.4359 47.1957 23.6155 0.0000 0.0000 0.0000
# 2 47.1957 113.4358 23.6153 0.0000 0.0000 0.0000
# 3 23.6155 23.6153 62.7896 0.0000 0.0000 0.0000
# 4 0.0000 0.0000 0.0000 31.2156 0.0000 0.0000
# 5 0.0000 0.0000 0.0000 0.0000 31.2156 0.0000
# 6 0.0000 0.0000 0.0000 0.0000 0.0000 38.6015
#
#
#
# Elastic Compliance Matrix: (Units=1/GPa)
#
#
# Indices 1 2 3 4 5 6 
#
# 1 0.011048 -0.004049 -0.002633 0.000000 0.000000 0.000000
# 2 -0.004049 0.011048 -0.002633 0.000000 0.000000 0.000000
# 3 -0.002633 -0.002633 0.017906 0.000000 0.000000 0.000000
# 4 0.000000 0.000000 0.000000 0.032035 0.000000 0.000000
# 5 0.000000 0.000000 0.000000 0.000000 0.032035 0.000000
# 6 0.000000 0.000000 0.000000 0.000000 0.000000 0.025906
#
#
# Mechanical properties :
#
#
# Convention : Reuss Voigt Hill
#
# Bulk Modulus (GPa) = 46.78311 53.16826 49.97568
# Shear Modulus (GPa) = 32.10665 33.22220 32.66443
#
# Velocity S-wave (km/s) = 3.94118 4.00906 3.97526
# Velocity P-wave (km/s) = 6.58359 6.86676 6.72666
#
# Compressibility (1/GPa) = 0.02137524
#
# Stress axis : x y z
#
# Youngs Moduli (GPa) = 90.51384 90.51386 55.84595
#
# Poissons Ratio (x) = 0.36645 0.14702
# Poissons Ratio (y) = 0.36645 0.14701
# Poissons Ratio (z) = 0.23828 0.23828
#
# Static dielectric constant tensor:
#      x y z
#    x 3.759840 0.000000 0.000000 
#    y 0.000000 3.759840 0.000000 
#    z 0.000000 0.000000 3.564090 
# 
# 
# High freq. dielectric constant tensor:
#      x y z
#    x 1.817780 0.000000 0.000000 
#    y 0.000000 1.817780 0.000000 
#    z 0.000000 0.000000 1.794730 
# 
# From -- ./inp_files/1752.got.cif
#   From: 2010.03.12/outbox.cif.g09.slc.cpg/sg138_1_cif.got.tgz:1752.got - 2010.04.08 09:41:05.
