data_PCOD8319343
_publ_section_title
;
Structure prediction by ZEFSAII (Michael W. Deem and Ramdas Pophale) SiO2 
 PCOD8319343
Probable space group: I 4/M M M
;
_chemical_formula_sum "Si O2"
_cell_formula_units_Z 144
_cell_length_a 18.168442
_cell_length_b 18.168442
_cell_length_c 28.185427
_cell_angle_alpha 90.000000
_cell_angle_beta 90.000000
_cell_angle_gamma 90.000000
_cell_volume 9303.791994
_symmetry_space_group_name_H-M "I 4/M M M"
_symmetry_group_IT_number 139
_symmetry_cell_setting 'tetragonal'
loop_
_space_group_symop_operation_xyz
x,y,z
-y,x,z
-x,-y,z
y,-x,z
x,-y,-z
-x,y,-z
y,x,-z
-y,-x,-z
-x,-y,-z
y,-x,-z
x,y,-z
-y,x,-z
-x,y,z
x,-y,z
-y,-x,z
y,x,z
1/2+x,1/2+y,1/2+z
1/2-y,1/2+x,1/2+z
1/2-x,1/2-y,1/2+z
1/2+y,1/2-x,1/2+z
1/2+x,1/2-y,1/2-z
1/2-x,1/2+y,1/2-z
1/2+y,1/2+x,1/2-z
1/2-y,1/2-x,1/2-z
1/2-x,1/2-y,1/2-z
1/2+y,1/2-x,1/2-z
1/2+x,1/2+y,1/2-z
1/2-y,1/2+x,1/2-z
1/2-x,1/2+y,1/2+z
1/2+x,1/2-y,1/2+z
1/2-y,1/2-x,1/2+z
1/2+y,1/2+x,1/2+z
loop_
_atom_site_type_symbol
_atom_site_label
_atom_site_fract_x
_atom_site_fract_y
_atom_site_fract_z
Si Si1 0.416205 0.700760 0.736485
Si Si2 0.364493 0.914518 0.883069
Si Si3 0.702251 0.416974 0.625381
Si Si4 0.912903 0.500000 0.052797
Si Si5 0.083790 0.654612 0.290430
O O1 0.500000 0.682540 0.748918
O O2 0.369881 0.630120 0.751743
O O3 0.406818 0.718583 0.681031
O O4 0.387747 0.769262 0.767465
O O5 0.280381 0.904552 0.901920
O O6 0.425049 0.886844 0.921037
O O7 0.369445 0.864573 0.836524
O O8 0.379042 0.000000 0.869784
O O9 0.673096 0.500000 0.615394
O O10 0.640905 0.359096 0.607088
O O11 0.000000 0.500000 0.049461
O O12 0.878348 0.500000 0.000000
O O13 0.092476 0.592476 0.250000
O O14 0.000000 0.658926 0.306581
#
# Coordination Sequence:
#
# PCOD8319343 Si02
#       5
#    32  32  32  16  32
#     4   9  18  29  40  57  83 117 156 189 221 261
#     4  10  18  29  44  64  90 117 149 185 224 267
#     4   9  17  29  43  62  89 122 159 195 227 267
#     4   9  18  32  50  68  88 116 151 185 221 269
#     4  11  19  26  38  59  88 120 148 175 216 266
#
# _framework density 15.47756
#
# number of rings (size 3 to 8) (size 9 to 14) (size 15 to 20)
#    0.000    2.333    3.333    0.667    0.000    2.889 
#    0.000    2.222    0.000    0.667    0.000    0.000 
#    0.000    0.000    0.000    8.667    0.000    1.333 
#
# Total GULP energy -892421.013161 kJ/mol
# GULP energy per Si atom -12394.736294 kJ/mol
# Density = 1.544233 g / cm^3
# Si number density = 15.477560 Si / 1000 Ang^3
#
#
#
# Elastic Constant Matrix: (Units=GPa)
#
#
# Indices 1 2 3 4 5 6 
#
# 1 81.8018 55.0140 25.4536 0.0000 0.0000 0.0000
# 2 55.0140 81.8018 25.4536 0.0000 0.0000 0.0000
# 3 25.4536 25.4536 53.6890 0.0000 0.0000 0.0000
# 4 0.0000 0.0000 0.0000 8.9327 0.0000 0.0000
# 5 0.0000 0.0000 0.0000 0.0000 8.9327 0.0000
# 6 0.0000 0.0000 0.0000 0.0000 0.0000 25.1929
#
#
#
# Elastic Compliance Matrix: (Units=1/GPa)
#
#
# Indices 1 2 3 4 5 6 
#
# 1 0.023103 -0.014228 -0.004207 0.000000 0.000000 0.000000
# 2 -0.014228 0.023103 -0.004207 0.000000 0.000000 0.000000
# 3 -0.004207 -0.004207 0.022615 0.000000 0.000000 0.000000
# 4 0.000000 0.000000 0.000000 0.111948 0.000000 0.000000
# 5 0.000000 0.000000 0.000000 0.000000 0.111948 0.000000
# 6 0.000000 0.000000 0.000000 0.000000 0.000000 0.039694
#
#
# Mechanical properties :
#
#
# Convention : Reuss Voigt Hill
#
# Bulk Modulus (GPa) = 42.49023 47.68166 45.08595
# Shear Modulus (GPa) = 12.96884 16.03644 14.50264
#
# Velocity S-wave (km/s) = 2.89781 3.22236 3.06438
# Velocity P-wave (km/s) = 6.22164 6.68720 6.45862
#
# Compressibility (1/GPa) = 0.02353482
#
# Stress axis : x y z
#
# Youngs Moduli (GPa) = 43.28534 43.28534 44.21808
#
# Poissons Ratio (x) = 0.61586 0.18604
# Poissons Ratio (y) = 0.61586 0.18604
# Poissons Ratio (z) = 0.18212 0.18212
#
# Static dielectric constant tensor:
#      x y z
#    x 2.972840 0.000000 0.000000 
#    y 0.000000 2.972840 0.000000 
#    z 0.000000 0.000000 2.709260 
# 
# 
# High freq. dielectric constant tensor:
#      x y z
#    x 1.588170 0.000000 0.000000 
#    y 0.000000 1.588170 0.000000 
#    z 0.000000 0.000000 1.548690 
# 
# From -- ./inp_files/12784.got.cif
#   From: 2010.03.12/outbox.cif.g09.slc.cpg/sg139_7_cif.got.tgz:12784.got - 2010.04.08 09:46:31.
