data_PCOD8319764
_publ_section_title
;
Structure prediction by ZEFSAII (Michael W. Deem and Ramdas Pophale) SiO2 
 PCOD8319764
Probable space group: I 4/M M M
;
_chemical_formula_sum "Si O2"
_cell_formula_units_Z 160
_cell_length_a 30.417235
_cell_length_b 30.417235
_cell_length_c 9.845300
_cell_angle_alpha 90.000000
_cell_angle_beta 90.000000
_cell_angle_gamma 90.000000
_cell_volume 9108.952144
_symmetry_space_group_name_H-M "I 4/M M M"
_symmetry_group_IT_number 139
_symmetry_cell_setting 'tetragonal'
loop_
_space_group_symop_operation_xyz
x,y,z
-y,x,z
-x,-y,z
y,-x,z
x,-y,-z
-x,y,-z
y,x,-z
-y,-x,-z
-x,-y,-z
y,-x,-z
x,y,-z
-y,x,-z
-x,y,z
x,-y,z
-y,-x,z
y,x,z
1/2+x,1/2+y,1/2+z
1/2-y,1/2+x,1/2+z
1/2-x,1/2-y,1/2+z
1/2+y,1/2-x,1/2+z
1/2+x,1/2-y,1/2-z
1/2-x,1/2+y,1/2-z
1/2+y,1/2+x,1/2-z
1/2-y,1/2-x,1/2-z
1/2-x,1/2-y,1/2-z
1/2+y,1/2-x,1/2-z
1/2+x,1/2+y,1/2-z
1/2-y,1/2+x,1/2-z
1/2-x,1/2+y,1/2+z
1/2+x,1/2-y,1/2+z
1/2-y,1/2-x,1/2+z
1/2+y,1/2+x,1/2+z
loop_
_atom_site_type_symbol
_atom_site_label
_atom_site_fract_x
_atom_site_fract_y
_atom_site_fract_z
Si Si1 0.549724 0.727342 0.656472
Si Si2 0.053165 0.375878 0.000000
Si Si3 0.379612 0.951853 0.500000
Si Si4 0.690511 0.619715 0.154815
Si Si5 0.924266 0.679550 0.743357
Si Si6 0.665473 0.780767 0.156378
O O1 0.566043 0.730997 0.500000
O O2 0.500000 0.709755 0.661399
O O3 0.579628 0.692802 0.739146
O O4 0.551334 0.774455 0.729725
O O5 0.072619 0.350051 0.125524
O O6 0.076383 0.422930 0.000000
O O7 0.000000 0.379671 0.000000
O O8 0.347665 0.947475 0.627080
O O9 0.400251 0.000000 0.500000
O O10 0.644800 0.644800 0.179260
O O11 0.730081 0.653705 0.180939
O O12 0.693510 0.601744 0.000000
O O13 0.874227 0.688018 0.702260
O O14 0.707361 0.792640 0.250000
O O15 0.677466 0.789926 0.000000
#
# Coordination Sequence:
#
# PCOD8319764 Si02
#       6
#    32  16  16  32  32  32
#     4  10  20  35  56  82 108 135 173 217 257 302
#     4  12  24  39  54  68  93 127 159 207 272 330
#     4  12  24  37  54  74  93 121 163 211 264 332
#     4   9  20  37  52  74 110 146 176 211 255 301
#     4  11  22  37  54  76 101 126 160 212 272 320
#     4  10  20  33  52  76 102 133 171 214 254 303
#
# _framework density 17.565137
#
# number of rings (size 3 to 8) (size 9 to 14) (size 15 to 20)
#    0.000    1.600    2.000    3.600    2.800    2.200 
#    0.000    0.000    0.000    2.400    0.000    0.000 
#    0.000    0.400    0.000    4.400    0.000    3.200 
#
# Total GULP energy -991959.905613 kJ/mol
# GULP energy per Si atom -12399.498820 kJ/mol
# Density = 1.752516 g / cm^3
# Si number density = 17.565137 Si / 1000 Ang^3
#
#
#
# Elastic Constant Matrix: (Units=GPa)
#
#
# Indices 1 2 3 4 5 6 
#
# 1 58.4221 33.4713 34.0682 0.0000 0.0000 0.0000
# 2 33.4713 58.4228 34.0680 0.0000 0.0000 0.0000
# 3 34.0682 34.0680 122.7205 0.0000 0.0000 0.0000
# 4 0.0000 0.0000 0.0000 10.0689 0.0000 0.0000
# 5 0.0000 0.0000 0.0000 0.0000 10.0686 0.0000
# 6 0.0000 0.0000 0.0000 0.0000 0.0000 21.1625
#
#
#
# Elastic Compliance Matrix: (Units=1/GPa)
#
#
# Indices 1 2 3 4 5 6 
#
# 1 0.026891 -0.013188 -0.003804 0.000000 0.000000 0.000000
# 2 -0.013188 0.026890 -0.003804 0.000000 0.000000 0.000000
# 3 -0.003804 -0.003804 0.010261 0.000000 0.000000 0.000000
# 4 0.000000 0.000000 0.000000 0.099315 0.000000 0.000000
# 5 0.000000 0.000000 0.000000 0.000000 0.099319 0.000000
# 6 0.000000 0.000000 0.000000 0.000000 0.000000 0.047253
#
#
# Mechanical properties :
#
#
# Convention : Reuss Voigt Hill
#
# Bulk Modulus (GPa) = 44.54328 49.19782 46.87055
# Shear Modulus (GPa) = 13.92742 17.45719 15.69230
#
# Velocity S-wave (km/s) = 2.81891 3.15597 2.99219
# Velocity P-wave (km/s) = 6.00074 6.43038 6.21927
#
# Compressibility (1/GPa) = 0.02245008
#
# Stress axis : x y z
#
# Youngs Moduli (GPa) = 37.18756 37.18826 97.46008
#
# Poissons Ratio (x) = 0.49043 0.37074
# Poissons Ratio (y) = 0.49042 0.37072
# Poissons Ratio (z) = 0.14146 0.14146
#
# Static dielectric constant tensor:
#      x y z
#    x 3.130570 0.000000 0.000000 
#    y 0.000000 3.130570 0.000000 
#    z 0.000000 0.000000 3.460020 
# 
# 
# High freq. dielectric constant tensor:
#      x y z
#    x 1.658090 0.000000 0.000000 
#    y 0.000000 1.658090 0.000000 
#    z 0.000000 0.000000 1.699420 
# 
# From -- ./inp_files/2203.got.cif
#   From: 2010.03.12/outbox.cif.g09.slc.cpg/sg139_2_cif.got.tgz:2203.got - 2010.04.08 09:46:31.
