data_PCOD8319761
_publ_section_title
;
Structure prediction by ZEFSAII (Michael W. Deem and Ramdas Pophale) SiO2 
 PCOD8319761
Probable space group: I 4/M M M
;
_chemical_formula_sum "Si O2"
_cell_formula_units_Z 144
_cell_length_a 19.048479
_cell_length_b 19.048479
_cell_length_c 21.479669
_cell_angle_alpha 90.000000
_cell_angle_beta 90.000000
_cell_angle_gamma 90.000000
_cell_volume 7793.780880
_symmetry_space_group_name_H-M "I 4/M M M"
_symmetry_group_IT_number 139
_symmetry_cell_setting 'tetragonal'
loop_
_space_group_symop_operation_xyz
x,y,z
-y,x,z
-x,-y,z
y,-x,z
x,-y,-z
-x,y,-z
y,x,-z
-y,-x,-z
-x,-y,-z
y,-x,-z
x,y,-z
-y,x,-z
-x,y,z
x,-y,z
-y,-x,z
y,x,z
1/2+x,1/2+y,1/2+z
1/2-y,1/2+x,1/2+z
1/2-x,1/2-y,1/2+z
1/2+y,1/2-x,1/2+z
1/2+x,1/2-y,1/2-z
1/2-x,1/2+y,1/2-z
1/2+y,1/2+x,1/2-z
1/2-y,1/2-x,1/2-z
1/2-x,1/2-y,1/2-z
1/2+y,1/2-x,1/2-z
1/2+x,1/2+y,1/2-z
1/2-y,1/2+x,1/2-z
1/2-x,1/2+y,1/2+z
1/2+x,1/2-y,1/2+z
1/2-y,1/2-x,1/2+z
1/2+y,1/2+x,1/2+z
loop_
_atom_site_type_symbol
_atom_site_label
_atom_site_fract_x
_atom_site_fract_y
_atom_site_fract_z
Si Si1 0.578897 0.820109 0.136349
Si Si2 0.581417 0.210085 0.621796
Si Si3 0.684153 0.423665 0.072222
Si Si4 0.916507 0.201050 0.000000
Si Si5 0.636863 0.746054 0.748996
O O1 0.500000 0.851785 0.132282
O O2 0.634439 0.882009 0.129204
O O3 0.595264 0.765793 0.080904
O O4 0.582768 0.773261 0.199219
O O5 0.500000 0.192755 0.618427
O O6 0.604482 0.252770 0.560349
O O7 0.599420 0.256973 0.681838
O O8 0.668078 0.500000 0.102272
O O9 0.634289 0.365712 0.104629
O O10 0.668106 0.425909 0.000000
O O11 0.870880 0.129121 0.000000
O O12 0.000000 0.182130 0.000000
O O13 0.668296 0.668296 0.763072
O O14 0.700710 0.799290 0.750000
#
# Coordination Sequence:
#
# PCOD8319761 Si02
#       5
#    32  32  32  16  32
#     4  10  20  33  51  76 107 142 180 220 261 310
#     4  10  21  36  53  77 107 140 182 225 268 321
#     4   9  18  31  47  70  99 131 170 213 257 308
#     4  10  22  39  59  83 107 135 174 222 276 332
#     4   9  17  31  52  76 101 132 172 218 267 312
#
# _framework density 18.476271000000001
#
# number of rings (size 3 to 8) (size 9 to 14) (size 15 to 20)
#    0.000    2.444    0.000    2.000    1.556    3.444 
#    0.000    1.111    0.000    6.000    0.000    0.000 
#    0.000   16.000    0.000    0.000    0.000    0.000 
#
# Total GULP energy -892253.737527 kJ/mol
# GULP energy per Si atom -12392.413021 kJ/mol
# Density = 1.843422 g / cm^3
# Si number density = 18.476271 Si / 1000 Ang^3
#
#
#
# Elastic Constant Matrix: (Units=GPa)
#
#
# Indices 1 2 3 4 5 6 
#
# 1 75.4861 72.5226 30.7459 0.0000 0.0000 0.0000
# 2 72.5226 75.4843 30.7361 0.0000 0.0000 0.0000
# 3 30.7459 30.7361 90.0177 0.0000 0.0000 0.0000
# 4 0.0000 0.0000 0.0000 17.2897 0.0000 0.0000
# 5 0.0000 0.0000 0.0000 0.0000 17.2897 0.0000
# 6 0.0000 0.0000 0.0000 0.0000 0.0000 32.6588
#
#
#
# Elastic Compliance Matrix: (Units=1/GPa)
#
#
# Indices 1 2 3 4 5 6 
#
# 1 0.172715 -0.164835 -0.002710 0.000000 0.000000 0.000000
# 2 -0.164835 0.172702 -0.002668 0.000000 0.000000 0.000000
# 3 -0.002710 -0.002668 0.012945 0.000000 0.000000 0.000000
# 4 0.000000 0.000000 0.000000 0.057838 0.000000 0.000000
# 5 0.000000 0.000000 0.000000 0.000000 0.057838 0.000000
# 6 0.000000 0.000000 0.000000 0.000000 0.000000 0.030620
#
#
# Mechanical properties :
#
#
# Convention : Reuss Voigt Hill
#
# Bulk Modulus (GPa) = 55.75066 56.55526 56.15296
# Shear Modulus (GPa) = 5.87501 20.57988 13.22744
#
# Velocity S-wave (km/s) = 1.78512 3.34107 2.67856
# Velocity P-wave (km/s) = 5.87270 6.74980 6.32647
#
# Compressibility (1/GPa) = 0.01793701
#
# Stress axis : x y z
#
# Youngs Moduli (GPa) = 5.78988 5.79032 77.24793
#
# Poissons Ratio (x) = 0.95445 0.20930
# Poissons Ratio (y) = 0.95438 0.20609
# Poissons Ratio (z) = 0.01569 0.01545
#
# Static dielectric constant tensor:
#      x y z
#    x 3.449590 0.000000 0.000000 
#    y 0.000000 3.449590 0.000000 
#    z 0.000000 0.000000 3.597440 
# 
# 
# High freq. dielectric constant tensor:
#      x y z
#    x 1.709440 0.000000 0.000000 
#    y 0.000000 1.709440 0.000000 
#    z 0.000000 0.000000 1.720640 
# 
# From -- ./inp_files/8217.got.cif
#   From: 2010.03.12/outbox.cif.g09.slc.cpg/sg139_5_cif.got.tgz:8217.got - 2010.04.08 09:46:31.
