data_PCOD8319674
_publ_section_title
;
Structure prediction by ZEFSAII (Michael W. Deem and Ramdas Pophale) SiO2 
 PCOD8319674
Probable space group: I 4/M M M
;
_chemical_formula_sum "Si O2"
_cell_formula_units_Z 112
_cell_length_a 17.996641
_cell_length_b 17.996641
_cell_length_c 13.789024
_cell_angle_alpha 90.000000
_cell_angle_beta 90.000000
_cell_angle_gamma 90.000000
_cell_volume 4465.976508
_symmetry_space_group_name_H-M "I 4/M M M"
_symmetry_group_IT_number 139
_symmetry_cell_setting 'tetragonal'
loop_
_space_group_symop_operation_xyz
x,y,z
-y,x,z
-x,-y,z
y,-x,z
x,-y,-z
-x,y,-z
y,x,-z
-y,-x,-z
-x,-y,-z
y,-x,-z
x,y,-z
-y,x,-z
-x,y,z
x,-y,z
-y,-x,z
y,x,z
1/2+x,1/2+y,1/2+z
1/2-y,1/2+x,1/2+z
1/2-x,1/2-y,1/2+z
1/2+y,1/2-x,1/2+z
1/2+x,1/2-y,1/2-z
1/2-x,1/2+y,1/2-z
1/2+y,1/2+x,1/2-z
1/2-y,1/2-x,1/2-z
1/2-x,1/2-y,1/2-z
1/2+y,1/2-x,1/2-z
1/2+x,1/2+y,1/2-z
1/2-y,1/2+x,1/2-z
1/2-x,1/2+y,1/2+z
1/2+x,1/2-y,1/2+z
1/2-y,1/2-x,1/2+z
1/2+y,1/2+x,1/2+z
loop_
_atom_site_type_symbol
_atom_site_label
_atom_site_fract_x
_atom_site_fract_y
_atom_site_fract_z
Si Si1 0.915065 0.500000 0.384687
Si Si2 0.199417 0.082331 0.615418
Si Si3 0.204131 0.204131 0.833675
Si Si4 0.913286 0.086715 0.114182
Si Si5 0.849282 0.645419 0.108442
O O1 0.904703 0.500000 0.500000
O O2 0.876493 0.573565 0.339432
O O3 0.000000 0.500000 0.352215
O O4 0.203000 0.089023 0.500000
O O5 0.138083 0.138083 0.657884
O O6 0.278689 0.106178 0.662010
O O7 0.177785 0.000000 0.648722
O O8 0.250000 0.250000 0.750000
O O9 0.140153 0.140153 0.818225
O O10 0.266489 0.161626 0.895533
O O11 0.000000 0.104068 0.138118
O O12 0.898070 0.101931 0.000000
O O13 0.851845 0.612987 0.000000
#
# Coordination Sequence:
#
# PCOD8319674 Si02
#       5
#    16  32  16  16  32
#     4   9  18  32  58  94 121 149 196 258 315 364
#     4   9  16  27  46  72 103 139 184 240 293 341
#     4  12  25  39  58  92 133 171 207 255 344 437
#     4   9  20  42  75 109 135 169 229 305 366 412
#     4  10  19  35  59  85 116 157 207 258 315 384
#
# _framework density 25.078503000000001
#
# number of rings (size 3 to 8) (size 9 to 14) (size 15 to 20)
#    0.000    2.286    1.429    2.571    2.000    3.714 
#    0.000    4.286    0.000    0.000    0.000    0.000 
#    0.000    0.000    0.000    0.143    0.000    0.000 
#
# Total GULP energy -693765.212493 kJ/mol
# GULP energy per Si atom -12388.664509 kJ/mol
# Density = 2.502142 g / cm^3
# Si number density = 25.078503 Si / 1000 Ang^3
#
#
#
# Elastic Constant Matrix: (Units=GPa)
#
#
# Indices 1 2 3 4 5 6 
#
# 1 247.8308 137.5731 8.4271 0.0000 0.0000 0.0000
# 2 137.5731 247.8308 8.4272 0.0000 0.0000 0.0000
# 3 8.4271 8.4272 46.7833 0.0000 0.0000 0.0000
# 4 0.0000 0.0000 0.0000 -57.6283 0.0000 0.0000
# 5 0.0000 0.0000 0.0000 0.0000 -57.6261 0.0000
# 6 0.0000 0.0000 0.0000 0.0000 0.0000 21.4803
#
#
#
# Elastic Compliance Matrix: (Units=1/GPa)
#
#
# Indices 1 2 3 4 5 6 
#
# 1 0.005842 -0.003227 -0.000471 0.000000 0.000000 0.000000
# 2 -0.003227 0.005842 -0.000471 0.000000 0.000000 0.000000
# 3 -0.000471 -0.000471 0.021545 0.000000 0.000000 0.000000
# 4 0.000000 0.000000 0.000000 -0.017353 0.000000 0.000000
# 5 0.000000 0.000000 0.000000 0.000000 -0.017353 0.000000
# 6 0.000000 0.000000 0.000000 0.000000 0.000000 0.046554
#
#
# Mechanical properties :
#
#
# Convention : Reuss Voigt Hill
#
# Bulk Modulus (GPa) = 40.17507 94.58885 67.38196
# Shear Modulus (GPa) = 81.01893 7.11303 44.06598
#
# Velocity S-wave (km/s) = 5.69001 1.68596 4.19635
# Velocity P-wave (km/s) = 7.69564 6.44895 7.09971
#
# Compressibility (1/GPa) = 0.02489106
#
# Stress axis : x y z
#
# Youngs Moduli (GPa) = 171.16040 171.16039 46.41475
#
# Poissons Ratio (x) = 0.55237 0.02187
# Poissons Ratio (y) = 0.55237 0.02187
# Poissons Ratio (z) = 0.08063 0.08063
#
# Static dielectric constant tensor:
#      x y z
#    x 4.785160 0.000000 0.000000 
#    y 0.000000 4.785150 0.000000 
#    z 0.000000 0.000000 3.982800 
# 
# 
# High freq. dielectric constant tensor:
#      x y z
#    x 2.004390 0.000000 0.000000 
#    y 0.000000 2.004390 0.000000 
#    z 0.000000 0.000000 1.979320 
# 
# From -- ./inp_files/7602.got.cif
#   From: 2010.03.12/outbox.cif.g09.slc.cpg/sg139_4_cif.got.tgz:7602.got - 2010.04.08 09:46:31.
