data_PCOD8319181
_publ_section_title
;
Structure prediction by ZEFSAII (Michael W. Deem and Ramdas Pophale) SiO2 
 PCOD8319181
Probable space group: P 42/N C M
;
_chemical_formula_sum "Si O2"
_cell_formula_units_Z 96
_cell_length_a 23.950404
_cell_length_b 23.950404
_cell_length_c 9.869728
_cell_angle_alpha 90.000000
_cell_angle_beta 90.000000
_cell_angle_gamma 90.000000
_cell_volume 5661.491652
_symmetry_space_group_name_H-M "P 42/N C M"
_symmetry_group_IT_number 138
_space_group.IT_coordinate_system_code '2'
_symmetry_cell_setting 'tetragonal'
loop_
_space_group_symop_operation_xyz
x,y,z
1/2-y,x,1/2+z
1/2-x,1/2-y,z
y,1/2-x,1/2+z
1/2+x,-y,1/2-z
-x,1/2+y,1/2-z
1/2+y,1/2+x,-z
-y,-x,-z
-x,-y,-z
1/2+y,-x,1/2-z
1/2+x,1/2+y,-z
-y,1/2+x,1/2-z
1/2-x,y,1/2+z
x,1/2-y,1/2+z
1/2-y,1/2-x,z
y,x,z
loop_
_atom_site_type_symbol
_atom_site_label
_atom_site_fract_x
_atom_site_fract_y
_atom_site_fract_z
Si Si1 0.896411 0.805979 0.544173
Si Si2 0.331337 0.627708 0.860785
Si Si3 0.609919 0.800714 0.733495
Si Si4 0.807911 0.012392 0.212113
Si Si5 0.207813 0.981825 0.484981
Si Si6 0.365290 0.698546 0.610224
O O1 0.858372 0.858372 0.586484
O O2 0.885248 0.755871 0.648238
O O3 0.882163 0.785441 0.391907
O O4 0.961330 0.826166 0.550184
O O5 0.349265 0.565136 0.810347
O O6 0.351760 0.673806 0.755833
O O7 0.265079 0.633979 0.878937
O O8 0.362807 0.637194 0.000000
O O9 0.657690 0.842311 0.682377
O O10 0.550350 0.833094 0.712084
O O11 0.766507 0.014630 0.087396
O O12 0.777717 0.022336 0.355990
O O13 0.175361 0.926167 0.436943
O O14 0.319196 0.680805 0.500000
#
# Coordination Sequence:
#
# PCOD8319181 Si02
#       6
#    16  16  16  16  16  16
#     4   9  18  33  53  78 106 134 166 204 245 292
#     4  11  23  33  50  72 100 132 164 205 255 302
#     4   9  18  33  54  78 105 135 166 203 246 292
#     4   9  18  33  51  72  95 132 173 204 239 292
#     4   9  18  32  52  71  96 132 171 205 239 292
#     4  11  21  35  50  72  99 131 164 205 253 300
#
# _framework density 16.956662999999999
#
# number of rings (size 3 to 8) (size 9 to 14) (size 15 to 20)
#    0.000    2.333    1.667    1.000    7.000    3.000 
#    0.000    1.667    0.000    2.000    0.000    0.000 
#    0.000    0.000    0.000    0.000    0.000    0.000 
#
# Total GULP energy -1189446.023872 kJ/mol
# GULP energy per Si atom -12390.062749 kJ/mol
# Density = 1.691807 g / cm^3
# Si number density = 16.956663 Si / 1000 Ang^3
#
#
#
# Elastic Constant Matrix: (Units=GPa)
#
#
# Indices 1 2 3 4 5 6 
#
# 1 81.0365 37.7530 29.4407 0.0000 0.0000 0.0000
# 2 37.7530 81.0366 29.4406 0.0000 0.0000 0.0000
# 3 29.4407 29.4406 99.3998 0.0000 0.0000 0.0000
# 4 0.0000 0.0000 0.0000 22.9169 0.0000 0.0000
# 5 0.0000 0.0000 0.0000 0.0000 22.9181 0.0000
# 6 0.0000 0.0000 0.0000 0.0000 0.0000 3.1601
#
#
#
# Elastic Compliance Matrix: (Units=1/GPa)
#
#
# Indices 1 2 3 4 5 6 
#
# 1 0.016485 -0.006618 -0.002922 0.000000 0.000000 0.000000
# 2 -0.006618 0.016485 -0.002922 0.000000 0.000000 0.000000
# 3 -0.002922 -0.002922 0.011792 0.000000 0.000000 0.000000
# 4 0.000000 0.000000 0.000000 0.043636 0.000000 0.000000
# 5 0.000000 0.000000 0.000000 0.000000 0.043634 0.000000
# 6 0.000000 0.000000 0.000000 0.000000 0.000000 0.316446
#
#
# Mechanical properties :
#
#
# Convention : Reuss Voigt Hill
#
# Bulk Modulus (GPa) = 50.41449 50.52683 50.47066
# Shear Modulus (GPa) = 10.41632 20.78826 15.60229
#
# Velocity S-wave (km/s) = 2.48118 3.50518 3.03665
# Velocity P-wave (km/s) = 6.16476 6.80029 6.49031
#
# Compressibility (1/GPa) = 0.01983557
#
# Stress axis : x y z
#
# Youngs Moduli (GPa) = 60.66070 60.66082 84.80672
#
# Poissons Ratio (x) = 0.40147 0.24784
# Poissons Ratio (y) = 0.40147 0.24784
# Poissons Ratio (z) = 0.17727 0.17727
#
# Static dielectric constant tensor:
#      x y z
#    x 3.342460 0.000000 0.000000 
#    y 0.000000 3.342460 0.000000 
#    z 0.000000 0.000000 3.330460 
# 
# 
# High freq. dielectric constant tensor:
#      x y z
#    x 1.636330 0.000000 0.000000 
#    y 0.000000 1.636330 0.000000 
#    z 0.000000 0.000000 1.674990 
# 
# From -- ./inp_files/1735.got.cif
#   From: 2010.03.12/outbox.cif.g09.slc.cpg/sg138_1_cif.got.tgz:1735.got - 2010.04.08 09:41:05.
