data_PCOD8319915
_publ_section_title
;
Structure prediction by ZEFSAII (Michael W. Deem and Ramdas Pophale) SiO2 
 PCOD8319915
Probable space group: I 4/M M M
;
_chemical_formula_sum "Si O2"
_cell_formula_units_Z 160
_cell_length_a 19.608131
_cell_length_b 19.608131
_cell_length_c 20.574747
_cell_angle_alpha 90.000000
_cell_angle_beta 90.000000
_cell_angle_gamma 90.000000
_cell_volume 7910.554064
_symmetry_space_group_name_H-M "I 4/M M M"
_symmetry_group_IT_number 139
_symmetry_cell_setting 'tetragonal'
loop_
_space_group_symop_operation_xyz
x,y,z
-y,x,z
-x,-y,z
y,-x,z
x,-y,-z
-x,y,-z
y,x,-z
-y,-x,-z
-x,-y,-z
y,-x,-z
x,y,-z
-y,x,-z
-x,y,z
x,-y,z
-y,-x,z
y,x,z
1/2+x,1/2+y,1/2+z
1/2-y,1/2+x,1/2+z
1/2-x,1/2-y,1/2+z
1/2+y,1/2-x,1/2+z
1/2+x,1/2-y,1/2-z
1/2-x,1/2+y,1/2-z
1/2+y,1/2+x,1/2-z
1/2-y,1/2-x,1/2-z
1/2-x,1/2-y,1/2-z
1/2+y,1/2-x,1/2-z
1/2+x,1/2+y,1/2-z
1/2-y,1/2+x,1/2-z
1/2-x,1/2+y,1/2+z
1/2+x,1/2-y,1/2+z
1/2-y,1/2-x,1/2+z
1/2+y,1/2+x,1/2+z
loop_
_atom_site_type_symbol
_atom_site_label
_atom_site_fract_x
_atom_site_fract_y
_atom_site_fract_z
Si Si1 0.313633 0.423971 0.116721
Si Si2 0.163892 0.724485 0.000000
Si Si3 0.920031 0.712691 0.878859
Si Si4 0.811128 0.078011 0.763058
Si Si5 0.711368 0.076641 0.500000
Si Si6 0.425528 0.919569 0.822685
O O1 0.343895 0.500000 0.113672
O O2 0.374525 0.374525 0.097432
O O3 0.284931 0.408602 0.189307
O O4 0.254178 0.414531 0.065421
O O5 0.122336 0.748158 0.936404
O O6 0.238273 0.761728 0.000000
O O7 0.162301 0.641908 0.000000
O O8 0.902686 0.750272 0.811562
O O9 0.895481 0.633585 0.871838
O O10 0.000000 0.716918 0.895357
O O11 0.877094 0.122907 0.779044
O O12 0.833649 0.000000 0.772886
O O13 0.677004 0.000000 0.500000
O O14 0.500000 0.885998 0.839822
O O15 0.401448 0.901448 0.750000
O O16 0.433615 0.000000 0.827114
#
# Coordination Sequence:
#
# PCOD8319915 Si02
#       6
#    32  16  32  32  16  32
#     4   9  17  31  52  77 107 141 175 213 256 305
#     4  12  25  39  56  76 102 138 178 223 271 316
#     4  10  21  37  56  78 105 137 174 217 265 316
#     4   9  18  33  54  80 108 138 173 213 258 309
#     4  10  22  39  55  73 103 143 180 213 256 308
#     4   8  15  30  53  80 108 137 170 209 254 307
#
# _framework density 20.226143
#
# number of rings (size 3 to 8) (size 9 to 14) (size 15 to 20)
#    0.000    2.600    0.000    2.400    0.000    2.800 
#    0.000    6.000    0.000    9.600    0.000    0.000 
#    0.000    7.200    0.000    0.000    0.000    0.000 
#
# Total GULP energy -991466.572709 kJ/mol
# GULP energy per Si atom -12393.332159 kJ/mol
# Density = 2.018011 g / cm^3
# Si number density = 20.226143 Si / 1000 Ang^3
#
#
#
# Elastic Constant Matrix: (Units=GPa)
#
#
# Indices 1 2 3 4 5 6 
#
# 1 63.6864 31.4325 38.9396 0.0000 0.0000 0.0000
# 2 31.4325 63.6880 38.9402 0.0000 0.0000 0.0000
# 3 38.9396 38.9402 104.6379 0.0000 0.0000 0.0000
# 4 0.0000 0.0000 0.0000 26.0387 0.0000 0.0000
# 5 0.0000 0.0000 0.0000 0.0000 26.0386 0.0000
# 6 0.0000 0.0000 0.0000 0.0000 0.0000 25.6040
#
#
#
# Elastic Compliance Matrix: (Units=1/GPa)
#
#
# Indices 1 2 3 4 5 6 
#
# 1 0.023062 -0.007942 -0.005627 0.000000 0.000000 0.000000
# 2 -0.007942 0.023061 -0.005627 0.000000 0.000000 0.000000
# 3 -0.005627 -0.005627 0.013745 0.000000 0.000000 0.000000
# 4 0.000000 0.000000 0.000000 0.038404 0.000000 0.000000
# 5 0.000000 0.000000 0.000000 0.000000 0.038405 0.000000
# 6 0.000000 0.000000 0.000000 0.000000 0.000000 0.039056
#
#
# Mechanical properties :
#
#
# Convention : Reuss Voigt Hill
#
# Bulk Modulus (GPa) = 46.56004 50.07078 48.31541
# Shear Modulus (GPa) = 22.59554 23.71626 23.15590
#
# Velocity S-wave (km/s) = 3.34600 3.42797 3.38723
# Velocity P-wave (km/s) = 6.16420 6.36217 6.26397
#
# Compressibility (1/GPa) = 0.02147764
#
# Stress axis : x y z
#
# Youngs Moduli (GPa) = 43.36160 43.36263 72.75563
#
# Poissons Ratio (x) = 0.34437 0.40938
# Poissons Ratio (y) = 0.34436 0.40938
# Poissons Ratio (z) = 0.24399 0.24399
#
# Static dielectric constant tensor:
#      x y z
#    x 3.652530 0.000000 0.000000 
#    y 0.000000 3.652530 0.000000 
#    z 0.000000 0.000000 3.860370 
# 
# 
# High freq. dielectric constant tensor:
#      x y z
#    x 1.775330 0.000000 0.000000 
#    y 0.000000 1.775330 0.000000 
#    z 0.000000 0.000000 1.798930 
# 
# From -- ./inp_files/8454.got.cif
#   From: 2010.03.12/outbox.cif.g09.slc.cpg/sg139_5_cif.got.tgz:8454.got - 2010.04.08 09:46:31.
