data_PCOD8319152
_publ_section_title
;
Structure prediction by ZEFSAII (Michael W. Deem and Ramdas Pophale) SiO2 
 PCOD8319152
Probable space group: P 42/N C M
;
_chemical_formula_sum "Si O2"
_cell_formula_units_Z 96
_cell_length_a 14.996454
_cell_length_b 14.996454
_cell_length_c 21.004217
_cell_angle_alpha 90.000000
_cell_angle_beta 90.000000
_cell_angle_gamma 90.000000
_cell_volume 4723.714661
_symmetry_space_group_name_H-M "P 42/N C M"
_symmetry_group_IT_number 138
_space_group.IT_coordinate_system_code '2'
_symmetry_cell_setting 'tetragonal'
loop_
_space_group_symop_operation_xyz
x,y,z
1/2-y,x,1/2+z
1/2-x,1/2-y,z
y,1/2-x,1/2+z
1/2+x,-y,1/2-z
-x,1/2+y,1/2-z
1/2+y,1/2+x,-z
-y,-x,-z
-x,-y,-z
1/2+y,-x,1/2-z
1/2+x,1/2+y,-z
-y,1/2+x,1/2-z
1/2-x,y,1/2+z
x,1/2-y,1/2+z
1/2-y,1/2-x,z
y,x,z
loop_
_atom_site_type_symbol
_atom_site_label
_atom_site_fract_x
_atom_site_fract_y
_atom_site_fract_z
Si Si1 0.032833 0.605177 0.065426
Si Si2 0.954113 0.100990 0.091735
Si Si3 0.324198 0.324198 0.170087
Si Si4 0.588953 0.057504 0.801038
Si Si5 0.508434 0.199257 0.467869
Si Si6 0.517155 0.207703 0.714858
Si Si7 0.823267 0.823267 0.977069
O O1 0.092720 0.565720 0.122578
O O2 0.043448 0.710830 0.063594
O O3 0.931054 0.568946 0.074814
O O4 0.068997 0.568997 0.000000
O O5 0.877160 0.026551 0.084512
O O6 0.938151 0.156262 0.155599
O O7 0.945139 0.171414 0.034217
O O8 0.049132 0.049132 0.090116
O O9 0.250000 0.250000 0.176931
O O10 0.288622 0.411343 0.205675
O O11 0.346353 0.346353 0.096394
O O12 0.544474 0.149154 0.775883
O O13 0.690490 0.049364 0.776408
O O14 0.527987 0.972014 0.780112
O O15 0.405801 0.214236 0.483723
O O16 0.750000 0.750000 0.977626
#
# Coordination Sequence:
#
# PCOD8319152 Si02
#       7
#    16  16   8  16  16  16   8
#     4  10  23  42  63  89 127 170 214 272 330 402
#     4  11  20  37  63  93 133 173 210 273 331 399
#     4  11  22  39  73 103 134 176 233 285 332 415
#     4  11  26  46  70  96 135 177 222 285 343 402
#     4  11  19  36  59  92 130 169 212 257 338 395
#     4  12  23  45  68  98 132 173 233 276 342 402
#     4  11  20  32  62 104 132 167 216 276 333 401
#
# _framework density 20.322989
#
# number of rings (size 3 to 8) (size 9 to 14) (size 15 to 20)
#    0.000    1.000    5.000    2.500    2.333    0.333 
#    0.000    5.000    1.833    0.000    0.000    0.000 
#    0.000    0.000    0.000    0.000    0.000    0.000 
#
# Total GULP energy -1190062.157075 kJ/mol
# GULP energy per Si atom -12396.480803 kJ/mol
# Density = 2.027673 g / cm^3
# Si number density = 20.322989 Si / 1000 Ang^3
#
#
#
# Elastic Constant Matrix: (Units=GPa)
#
#
# Indices 1 2 3 4 5 6 
#
# 1 130.3993 34.4489 29.4981 0.0000 0.0000 0.0000
# 2 34.4489 130.3993 29.4981 0.0000 0.0000 0.0000
# 3 29.4981 29.4981 77.5262 0.0000 0.0000 0.0000
# 4 0.0000 0.0000 0.0000 33.1212 0.0000 0.0000
# 5 0.0000 0.0000 0.0000 0.0000 33.1212 0.0000
# 6 0.0000 0.0000 0.0000 0.0000 0.0000 28.4455
#
#
#
# Elastic Compliance Matrix: (Units=1/GPa)
#
#
# Indices 1 2 3 4 5 6 
#
# 1 0.008722 -0.001700 -0.002672 0.000000 0.000000 0.000000
# 2 -0.001700 0.008722 -0.002672 0.000000 0.000000 0.000000
# 3 -0.002672 -0.002672 0.014932 0.000000 0.000000 0.000000
# 4 0.000000 0.000000 0.000000 0.030192 0.000000 0.000000
# 5 0.000000 0.000000 0.000000 0.000000 0.030192 0.000000
# 6 0.000000 0.000000 0.000000 0.000000 0.000000 0.035155
#
#
# Mechanical properties :
#
#
# Convention : Reuss Voigt Hill
#
# Bulk Modulus (GPa) = 54.67719 58.35721 56.51720
# Shear Modulus (GPa) = 33.76101 35.26290 34.51196
#
# Velocity S-wave (km/s) = 4.08023 4.17000 4.12536
# Velocity P-wave (km/s) = 7.01144 7.20850 7.11065
#
# Compressibility (1/GPa) = 0.01828916
#
# Stress axis : x y z
#
# Youngs Moduli (GPa) = 114.64942 114.64942 66.96934
#
# Poissons Ratio (x) = 0.19488 0.17894
# Poissons Ratio (y) = 0.19488 0.17894
# Poissons Ratio (z) = 0.30634 0.30634
#
# Static dielectric constant tensor:
#      x y z
#    x 3.615400 0.000000 0.000000 
#    y 0.000000 3.615400 0.000000 
#    z 0.000000 0.000000 3.682700 
# 
# 
# High freq. dielectric constant tensor:
#      x y z
#    x 1.794520 0.000000 0.000000 
#    y 0.000000 1.794520 0.000000 
#    z 0.000000 0.000000 1.788090 
# 
# From -- ./inp_files/6301.got.cif
#   From: 2010.03.12/outbox.cif.g09.slc.cpg/sg138_4_cif.got.tgz:6301.got - 2010.04.08 09:41:05.
