data_PCOD8319679
_publ_section_title
;
Structure prediction by ZEFSAII (Michael W. Deem and Ramdas Pophale) SiO2 
 PCOD8319679
Probable space group: I 4/M M M
;
_chemical_formula_sum "Si O2"
_cell_formula_units_Z 160
_cell_length_a 25.621765
_cell_length_b 25.621765
_cell_length_c 13.529459
_cell_angle_alpha 90.000000
_cell_angle_beta 90.000000
_cell_angle_gamma 90.000000
_cell_volume 8881.749456
_symmetry_space_group_name_H-M "I 4/M M M"
_symmetry_group_IT_number 139
_symmetry_cell_setting 'tetragonal'
loop_
_space_group_symop_operation_xyz
x,y,z
-y,x,z
-x,-y,z
y,-x,z
x,-y,-z
-x,y,-z
y,x,-z
-y,-x,-z
-x,-y,-z
y,-x,-z
x,y,-z
-y,x,-z
-x,y,z
x,-y,z
-y,-x,z
y,x,z
1/2+x,1/2+y,1/2+z
1/2-y,1/2+x,1/2+z
1/2-x,1/2-y,1/2+z
1/2+y,1/2-x,1/2+z
1/2+x,1/2-y,1/2-z
1/2-x,1/2+y,1/2-z
1/2+y,1/2+x,1/2-z
1/2-y,1/2-x,1/2-z
1/2-x,1/2-y,1/2-z
1/2+y,1/2-x,1/2-z
1/2+x,1/2+y,1/2-z
1/2-y,1/2+x,1/2-z
1/2-x,1/2+y,1/2+z
1/2+x,1/2-y,1/2+z
1/2-y,1/2-x,1/2+z
1/2+y,1/2+x,1/2+z
loop_
_atom_site_type_symbol
_atom_site_label
_atom_site_fract_x
_atom_site_fract_y
_atom_site_fract_z
Si Si1 0.060292 0.327671 0.500000
Si Si2 0.224060 0.306747 0.000000
Si Si3 0.294577 0.438618 0.000000
Si Si4 0.940507 0.764211 0.183081
Si Si5 0.877914 0.311220 0.673948
Si Si6 0.441999 0.641873 0.182467
Si Si7 0.864765 0.221026 0.000000
O O1 0.075637 0.266080 0.500000
O O2 0.087073 0.348642 0.399047
O O3 0.000000 0.341699 0.500000
O O4 0.220288 0.338479 0.102818
O O5 0.179657 0.263697 0.000000
O O6 0.281015 0.281015 0.000000
O O7 0.323723 0.415806 0.095596
O O8 0.298564 0.500000 0.000000
O O9 0.917011 0.726663 0.267310
O O10 0.944005 0.823168 0.220383
O O11 0.901578 0.767408 0.092202
O O12 0.000000 0.745413 0.156314
O O13 0.847339 0.347339 0.750000
O O14 0.500000 0.623279 0.152698
O O15 0.409152 0.590849 0.205090
O O16 0.836603 0.163398 0.000000
#
# Coordination Sequence:
#
# PCOD8319679 Si02
#       7
#    16  16  16  32  32  32  16
#     4  10  19  36  57  81 113 150 186 226 273 320
#     4  10  23  36  51  80 118 158 189 220 278 346
#     4   9  16  30  49  72  99 132 176 215 256 320
#     4  11  22  38  57  78 106 147 191 239 288 338
#     4  11  21  36  55  82 116 147 185 234 275 333
#     4  10  20  33  50  73 100 134 180 231 283 335
#     4  11  22  38  55  78 111 151 191 234 284 342
#
# _framework density 18.014468999999998
#
# number of rings (size 3 to 8) (size 9 to 14) (size 15 to 20)
#    0.000    1.600    4.000    1.800    0.000    2.200 
#    0.000    0.000    0.000    1.800    0.000    0.000 
#    0.000   16.800    0.000    0.000    0.000    0.000 
#
# Total GULP energy -991239.071689 kJ/mol
# GULP energy per Si atom -12390.488396 kJ/mol
# Density = 1.797347 g / cm^3
# Si number density = 18.014469 Si / 1000 Ang^3
#
#
#
# Elastic Constant Matrix: (Units=GPa)
#
#
# Indices 1 2 3 4 5 6 
#
# 1 80.6801 29.6376 29.3230 0.0000 0.0000 0.0000
# 2 29.6376 80.6810 29.3232 0.0000 0.0000 0.0000
# 3 29.3230 29.3232 107.4257 0.0000 0.0000 0.0000
# 4 0.0000 0.0000 0.0000 0.0333 0.0000 0.0000
# 5 0.0000 0.0000 0.0000 0.0000 0.0593 0.0000
# 6 0.0000 0.0000 0.0000 0.0000 0.0000 25.5389
#
#
#
# Elastic Compliance Matrix: (Units=1/GPa)
#
#
# Indices 1 2 3 4 5 6 
#
# 1 0.015097 -0.004494 -0.002894 0.000000 0.000000 0.000000
# 2 -0.004494 0.015097 -0.002894 0.000000 0.000000 0.000000
# 3 -0.002894 -0.002894 0.010889 0.000000 0.000000 0.000000
# 4 0.000000 0.000000 0.000000 30.060164 0.000000 0.000000
# 5 0.000000 0.000000 0.000000 0.000000 16.871389 0.000000
# 6 0.000000 0.000000 0.000000 0.000000 0.000000 0.039156
#
#
# Mechanical properties :
#
#
# Convention : Reuss Voigt Hill
#
# Bulk Modulus (GPa) = 48.73702 49.48382 49.11042
# Shear Modulus (GPa) = 0.10629 17.15981 8.63305
#
# Velocity S-wave (km/s) = 0.24317 3.08970 2.19150
# Velocity P-wave (km/s) = 5.21459 6.34483 5.80727
#
# Compressibility (1/GPa) = 0.02051828
#
# Stress axis : x y z
#
# Youngs Moduli (GPa) = 66.23646 66.23722 91.83723
#
# Poissons Ratio (x) = 0.29767 0.26581
# Poissons Ratio (y) = 0.29767 0.26580
# Poissons Ratio (z) = 0.19171 0.19171
#
# Static dielectric constant tensor:
#      x y z
#    x 3.345050 0.000000 0.000000 
#    y 0.000000 3.345050 0.000000 
#    z 0.000000 0.000000 3.442700 
# 
# 
# High freq. dielectric constant tensor:
#      x y z
#    x 1.684910 0.000000 0.000000 
#    y 0.000000 1.684910 0.000000 
#    z 0.000000 0.000000 1.710700 
# 
# From -- ./inp_files/3964.got.cif
#   From: 2010.03.12/outbox.cif.g09.slc.cpg/sg139_2_cif.got.tgz:3964.got - 2010.04.08 09:46:31.
