data_PCOD8319830
_publ_section_title
;
Structure prediction by ZEFSAII (Michael W. Deem and Ramdas Pophale) SiO2 
 PCOD8319830
Probable space group: I 4/M M M
;
_chemical_formula_sum "Si O2"
_cell_formula_units_Z 176
_cell_length_a 17.864566
_cell_length_b 17.864566
_cell_length_c 33.613323
_cell_angle_alpha 90.000000
_cell_angle_beta 90.000000
_cell_angle_gamma 90.000000
_cell_volume 10727.447276
_symmetry_space_group_name_H-M "I 4/M M M"
_symmetry_group_IT_number 139
_symmetry_cell_setting 'tetragonal'
loop_
_space_group_symop_operation_xyz
x,y,z
-y,x,z
-x,-y,z
y,-x,z
x,-y,-z
-x,y,-z
y,x,-z
-y,-x,-z
-x,-y,-z
y,-x,-z
x,y,-z
-y,x,-z
-x,y,z
x,-y,z
-y,-x,z
y,x,z
1/2+x,1/2+y,1/2+z
1/2-y,1/2+x,1/2+z
1/2-x,1/2-y,1/2+z
1/2+y,1/2-x,1/2+z
1/2+x,1/2-y,1/2-z
1/2-x,1/2+y,1/2-z
1/2+y,1/2+x,1/2-z
1/2-y,1/2-x,1/2-z
1/2-x,1/2-y,1/2-z
1/2+y,1/2-x,1/2-z
1/2+x,1/2+y,1/2-z
1/2-y,1/2+x,1/2-z
1/2-x,1/2+y,1/2+z
1/2+x,1/2-y,1/2+z
1/2-y,1/2-x,1/2+z
1/2+y,1/2+x,1/2+z
loop_
_atom_site_type_symbol
_atom_site_label
_atom_site_fract_x
_atom_site_fract_y
_atom_site_fract_z
Si Si1 0.584694 0.704294 0.046619
Si Si2 0.175597 0.699740 0.066246
Si Si3 0.298892 0.584471 0.716619
Si Si4 0.584582 0.174948 0.779855
Si Si5 0.718240 0.410079 0.500000
Si Si6 0.825196 0.705681 0.155705
O O1 0.500000 0.700428 0.064807
O O2 0.637406 0.637406 0.064732
O O3 0.620141 0.786680 0.054823
O O4 0.579685 0.692400 0.000000
O O5 0.240003 0.759998 0.061777
O O6 0.144429 0.693367 0.111159
O O7 0.108455 0.728404 0.037894
O O8 0.314590 0.500000 0.706451
O O9 0.378109 0.621892 0.724426
O O10 0.252055 0.596972 0.756606
O O11 0.259229 0.617572 0.678038
O O12 0.500000 0.159776 0.791705
O O13 0.609352 0.109352 0.750000
O O14 0.627527 0.179011 0.821394
O O15 0.698780 0.500000 0.500000
O O16 0.640939 0.359062 0.500000
O O17 0.742764 0.742764 0.154894
#
# Coordination Sequence:
#
# PCOD8319830 Si02
#       6
#    32  32  32  32  16  32
#     4   9  16  27  45  68  95 125 156 191 229 271
#     4   9  17  31  49  69  93 124 161 194 232 282
#     4   9  17  29  45  66  93 122 151 187 231 278
#     4   9  17  29  45  66  91 119 151 188 228 268
#     4  10  20  35  55  75  96 122 152 192 242 292
#     4   9  17  29  47  68  90 118 155 195 228 266
#
# _framework density 16.406513
#
# number of rings (size 3 to 8) (size 9 to 14) (size 15 to 20)
#    0.000    2.909    0.909    0.545    0.000    4.273 
#    0.000    0.909    0.000    1.091    0.000    7.636 
#    0.000    4.364    0.000    0.000    0.000    0.000 
#
# Total GULP energy -1090521.634204 kJ/mol
# GULP energy per Si atom -12392.291298 kJ/mol
# Density = 1.636917 g / cm^3
# Si number density = 16.406513 Si / 1000 Ang^3
#
#
#
# Elastic Constant Matrix: (Units=GPa)
#
#
# Indices 1 2 3 4 5 6 
#
# 1 117.1051 35.5913 39.0686 0.0000 0.0000 0.0000
# 2 35.5913 117.1045 39.0685 0.0000 0.0000 0.0000
# 3 39.0686 39.0685 103.6361 0.0000 0.0000 0.0000
# 4 0.0000 0.0000 0.0000 9.3814 0.0000 0.0000
# 5 0.0000 0.0000 0.0000 0.0000 9.3814 0.0000
# 6 0.0000 0.0000 0.0000 0.0000 0.0000 16.0953
#
#
#
# Elastic Compliance Matrix: (Units=1/GPa)
#
#
# Indices 1 2 3 4 5 6 
#
# 1 0.010191 -0.002077 -0.003059 0.000000 0.000000 0.000000
# 2 -0.002077 0.010191 -0.003059 0.000000 0.000000 0.000000
# 3 -0.003059 -0.003059 0.011955 0.000000 0.000000 0.000000
# 4 0.000000 0.000000 0.000000 0.106593 0.000000 0.000000
# 5 0.000000 0.000000 0.000000 0.000000 0.106593 0.000000
# 6 0.000000 0.000000 0.000000 0.000000 0.000000 0.062130
#
#
# Mechanical properties :
#
#
# Convention : Reuss Voigt Hill
#
# Bulk Modulus (GPa) = 62.70249 62.81139 62.75694
# Shear Modulus (GPa) = 15.18098 21.91280 18.54689
#
# Velocity S-wave (km/s) = 3.04518 3.65857 3.36588
# Velocity P-wave (km/s) = 7.11795 7.49763 7.31025
#
# Compressibility (1/GPa) = 0.01594833
#
# Stress axis : x y z
#
# Youngs Moduli (GPa) = 98.12539 98.12483 83.64410
#
# Poissons Ratio (x) = 0.20379 0.25586
# Poissons Ratio (y) = 0.20379 0.25586
# Poissons Ratio (z) = 0.30015 0.30015
#
# Static dielectric constant tensor:
#      x y z
#    x 3.193490 0.000000 0.000000 
#    y 0.000000 3.193490 0.000000 
#    z 0.000000 0.000000 4.018100 
# 
# 
# High freq. dielectric constant tensor:
#      x y z
#    x 1.619620 0.000000 0.000000 
#    y 0.000000 1.619620 0.000000 
#    z 0.000000 0.000000 1.625590 
# 
# From -- ./inp_files/14282.got.cif
#   From: 2010.03.12/outbox.cif.g09.slc.cpg/sg139_8_cif.got.tgz:14282.got - 2010.04.08 09:46:31.
