data_PCOD8319504
_publ_section_title
;
Structure prediction by ZEFSAII (Michael W. Deem and Ramdas Pophale) SiO2 
 PCOD8319504
Probable space group: I 4/M M M
;
_chemical_formula_sum "Si O2"
_cell_formula_units_Z 144
_cell_length_a 23.569377
_cell_length_b 23.569377
_cell_length_c 17.932792
_cell_angle_alpha 90.000000
_cell_angle_beta 90.000000
_cell_angle_gamma 90.000000
_cell_volume 9961.944491
_symmetry_space_group_name_H-M "I 4/M M M"
_symmetry_group_IT_number 139
_symmetry_cell_setting 'tetragonal'
loop_
_space_group_symop_operation_xyz
x,y,z
-y,x,z
-x,-y,z
y,-x,z
x,-y,-z
-x,y,-z
y,x,-z
-y,-x,-z
-x,-y,-z
y,-x,-z
x,y,-z
-y,x,-z
-x,y,z
x,-y,z
-y,-x,z
y,x,z
1/2+x,1/2+y,1/2+z
1/2-y,1/2+x,1/2+z
1/2-x,1/2-y,1/2+z
1/2+y,1/2-x,1/2+z
1/2+x,1/2-y,1/2-z
1/2-x,1/2+y,1/2-z
1/2+y,1/2+x,1/2-z
1/2-y,1/2-x,1/2-z
1/2-x,1/2-y,1/2-z
1/2+y,1/2-x,1/2-z
1/2+x,1/2+y,1/2-z
1/2-y,1/2+x,1/2-z
1/2-x,1/2+y,1/2+z
1/2+x,1/2-y,1/2+z
1/2-y,1/2-x,1/2+z
1/2+y,1/2+x,1/2+z
loop_
_atom_site_type_symbol
_atom_site_label
_atom_site_fract_x
_atom_site_fract_y
_atom_site_fract_z
Si Si1 0.437306 0.342674 0.500000
Si Si2 0.724271 0.629070 0.916517
Si Si3 0.434850 0.339868 0.205989
Si Si4 0.704578 0.609482 0.643911
Si Si5 0.293119 0.802553 0.833657
O O1 0.500000 0.368796 0.500000
O O2 0.395091 0.395091 0.500000
O O3 0.430331 0.303379 0.427475
O O4 0.679584 0.679584 0.917765
O O5 0.700166 0.579194 0.864430
O O6 0.783683 0.653572 0.884422
O O7 0.734392 0.605280 0.000000
O O8 0.500000 0.359540 0.200573
O O9 0.396273 0.396273 0.206863
O O10 0.426005 0.302303 0.280164
O O11 0.658268 0.658268 0.643984
O O12 0.766403 0.638538 0.636941
O O13 0.246717 0.753284 0.834198
O O14 0.313977 0.813977 0.750000
#
# Coordination Sequence:
#
# PCOD8319504 Si02
#       5
#    16  32  32  32  32
#     4  10  20  31  42  58  82 114 153 191 218 242
#     4   9  17  27  41  62  83 103 130 168 213 261
#     4  10  19  31  44  57  78 110 149 190 223 248
#     4   9  17  28  42  61  81 103 135 177 221 262
#     4   9  14  24  42  62  82 100 122 160 212 264
#
# _framework density 14.455009
#
# number of rings (size 3 to 8) (size 9 to 14) (size 15 to 20)
#    0.000    2.667    2.222    0.667    1.556    0.778 
#    0.000    0.000    0.000    4.000    0.000    3.111 
#    0.000    0.000    0.000    0.000    0.000   20.000 
#
# Total GULP energy -892445.036467 kJ/mol
# GULP energy per Si atom -12395.069951 kJ/mol
# Density = 1.442211 g / cm^3
# Si number density = 14.455009 Si / 1000 Ang^3
#
#
#
# Elastic Constant Matrix: (Units=GPa)
#
#
# Indices 1 2 3 4 5 6 
#
# 1 49.0780 44.4760 34.8660 0.0000 0.0000 0.0000
# 2 44.4760 49.0780 34.8660 0.0000 0.0000 0.0000
# 3 34.8660 34.8660 132.5315 0.0000 0.0000 0.0000
# 4 0.0000 0.0000 0.0000 12.1274 0.0000 0.0000
# 5 0.0000 0.0000 0.0000 0.0000 12.1274 0.0000
# 6 0.0000 0.0000 0.0000 0.0000 0.0000 11.8293
#
#
#
# Elastic Compliance Matrix: (Units=1/GPa)
#
#
# Indices 1 2 3 4 5 6 
#
# 1 0.115296 -0.102000 -0.003498 0.000000 0.000000 0.000000
# 2 -0.102000 0.115296 -0.003498 0.000000 0.000000 0.000000
# 3 -0.003498 -0.003498 0.009386 0.000000 0.000000 0.000000
# 4 0.000000 0.000000 0.000000 0.082458 0.000000 0.000000
# 5 0.000000 0.000000 0.000000 0.000000 0.082458 0.000000
# 6 0.000000 0.000000 0.000000 0.000000 0.000000 0.084536
#
#
# Mechanical properties :
#
#
# Convention : Reuss Voigt Hill
#
# Bulk Modulus (GPa) = 45.48226 51.01149 48.24688
# Shear Modulus (GPa) = 6.99545 14.98213 10.98879
#
# Velocity S-wave (km/s) = 2.20226 3.22291 2.76018
# Velocity P-wave (km/s) = 6.16438 7.01541 6.60362
#
# Compressibility (1/GPa) = 0.02198659
#
# Stress axis : x y z
#
# Youngs Moduli (GPa) = 8.67331 8.67331 106.54356
#
# Poissons Ratio (x) = 0.88468 0.37268
# Poissons Ratio (y) = 0.88468 0.37268
# Poissons Ratio (z) = 0.03034 0.03034
#
# Static dielectric constant tensor:
#      x y z
#    x 2.572990 0.000000 0.000000 
#    y 0.000000 2.572990 0.000000 
#    z 0.000000 0.000000 3.184400 
# 
# 
# High freq. dielectric constant tensor:
#      x y z
#    x 1.513860 0.000000 0.000000 
#    y 0.000000 1.513860 0.000000 
#    z 0.000000 0.000000 1.572410 
# 
# From -- ./inp_files/8553.got.cif
#   From: 2010.03.12/outbox.cif.g09.slc.cpg/sg139_5_cif.got.tgz:8553.got - 2010.04.08 09:46:31.
