data_PCOD8319307
_publ_section_title
;
Structure prediction by ZEFSAII (Michael W. Deem and Ramdas Pophale) SiO2 
 PCOD8319307
Probable space group: I 4/M M M
;
_chemical_formula_sum "Si O2"
_cell_formula_units_Z 176
_cell_length_a 19.380527
_cell_length_b 19.380527
_cell_length_c 27.780709
_cell_angle_alpha 90.000000
_cell_angle_beta 90.000000
_cell_angle_gamma 90.000000
_cell_volume 10434.568392
_symmetry_space_group_name_H-M "I 4/M M M"
_symmetry_group_IT_number 139
_symmetry_cell_setting 'tetragonal'
loop_
_space_group_symop_operation_xyz
x,y,z
-y,x,z
-x,-y,z
y,-x,z
x,-y,-z
-x,y,-z
y,x,-z
-y,-x,-z
-x,-y,-z
y,-x,-z
x,y,-z
-y,x,-z
-x,y,z
x,-y,z
-y,-x,z
y,x,z
1/2+x,1/2+y,1/2+z
1/2-y,1/2+x,1/2+z
1/2-x,1/2-y,1/2+z
1/2+y,1/2-x,1/2+z
1/2+x,1/2-y,1/2-z
1/2-x,1/2+y,1/2-z
1/2+y,1/2+x,1/2-z
1/2-y,1/2-x,1/2-z
1/2-x,1/2-y,1/2-z
1/2+y,1/2-x,1/2-z
1/2+x,1/2+y,1/2-z
1/2-y,1/2+x,1/2-z
1/2-x,1/2+y,1/2+z
1/2+x,1/2-y,1/2+z
1/2-y,1/2-x,1/2+z
1/2+y,1/2+x,1/2+z
loop_
_atom_site_type_symbol
_atom_site_label
_atom_site_fract_x
_atom_site_fract_y
_atom_site_fract_z
Si Si1 0.755383 0.358264 0.733248
Si Si2 0.806066 0.921195 0.855916
Si Si3 0.306898 0.420572 0.175415
Si Si4 0.755378 0.640071 0.553881
Si Si5 0.190496 0.076180 0.500000
Si Si6 0.358566 0.756830 0.086844
O O1 0.709193 0.290808 0.727998
O O2 0.831753 0.331753 0.750000
O O3 0.753650 0.397004 0.681693
O O4 0.724010 0.411180 0.771699
O O5 0.874373 0.874373 0.849563
O O6 0.775284 0.916733 0.909832
O O7 0.827560 0.000000 0.846088
O O8 0.326192 0.500000 0.166869
O O9 0.376731 0.376731 0.167724
O O10 0.247331 0.395484 0.138604
O O11 0.765999 0.608772 0.500000
O O12 0.703726 0.703726 0.550403
O O13 0.828029 0.667276 0.575795
O O14 0.125954 0.125954 0.500000
O O15 0.238249 0.085903 0.546442
O O16 0.159607 0.000000 0.500000
O O17 0.296186 0.703815 0.085029
#
# Coordination Sequence:
#
# PCOD8319307 Si02
#       6
#    32  32  32  32  16  32
#     4   9  17  31  49  68  90 120 157 200 246 276
#     4  10  20  32  48  72 103 135 162 189 226 281
#     4  10  19  29  43  64  94 130 162 190 222 269
#     4   9  16  29  49  69  89 118 158 206 253 283
#     4  10  18  27  40  60  91 125 156 190 228 280
#     4   9  16  28  44  63  86 117 157 202 246 275
#
# _framework density 16.867013
#
# number of rings (size 3 to 8) (size 9 to 14) (size 15 to 20)
#    0.000    2.545    0.909    2.182    0.000    5.182 
#    0.000    0.000    0.000    6.545    0.000    2.545 
#    0.000   38.545    0.000    0.000    0.000    0.000 
#
# Total GULP energy -1090663.819047 kJ/mol
# GULP energy per Si atom -12393.907035 kJ/mol
# Density = 1.682862 g / cm^3
# Si number density = 16.867013 Si / 1000 Ang^3
#
#
#
# Elastic Constant Matrix: (Units=GPa)
#
#
# Indices 1 2 3 4 5 6 
#
# 1 55.7817 44.8187 29.7752 0.0000 0.0000 0.0000
# 2 44.8187 55.7817 29.7752 0.0000 0.0000 0.0000
# 3 29.7752 29.7752 121.1105 0.0000 0.0000 0.0000
# 4 0.0000 0.0000 0.0000 10.3926 0.0000 0.0000
# 5 0.0000 0.0000 0.0000 0.0000 10.3926 0.0000
# 6 0.0000 0.0000 0.0000 0.0000 0.0000 11.8692
#
#
#
# Elastic Compliance Matrix: (Units=1/GPa)
#
#
# Indices 1 2 3 4 5 6 
#
# 1 0.051425 -0.039791 -0.002860 0.000000 0.000000 0.000000
# 2 -0.039791 0.051425 -0.002860 0.000000 0.000000 0.000000
# 3 -0.002860 -0.002860 0.009663 0.000000 0.000000 0.000000
# 4 0.000000 0.000000 0.000000 0.096222 0.000000 0.000000
# 5 0.000000 0.000000 0.000000 0.000000 0.096222 0.000000
# 6 0.000000 0.000000 0.000000 0.000000 0.000000 0.084252
#
#
# Mechanical properties :
#
#
# Convention : Reuss Voigt Hill
#
# Bulk Modulus (GPa) = 46.53411 49.04579 47.78995
# Shear Modulus (GPa) = 10.25863 15.08454 12.67159
#
# Velocity S-wave (km/s) = 2.46886 2.99377 2.74389
# Velocity P-wave (km/s) = 5.98128 6.41024 6.19948
#
# Compressibility (1/GPa) = 0.02148961
#
# Stress axis : x y z
#
# Youngs Moduli (GPa) = 19.44595 19.44596 103.48514
#
# Poissons Ratio (x) = 0.77378 0.29597
# Poissons Ratio (y) = 0.77378 0.29597
# Poissons Ratio (z) = 0.05562 0.05562
#
# Static dielectric constant tensor:
#      x y z
#    x 2.874800 0.000000 0.000000 
#    y 0.000000 2.874800 0.000000 
#    z 0.000000 0.000000 3.516860 
# 
# 
# High freq. dielectric constant tensor:
#      x y z
#    x 1.612750 0.000000 0.000000 
#    y 0.000000 1.612750 0.000000 
#    z 0.000000 0.000000 1.675300 
# 
# From -- ./inp_files/14218.got.cif
#   From: 2010.03.12/outbox.cif.g09.slc.cpg/sg139_8_cif.got.tgz:14218.got - 2010.04.08 09:46:31.
