data_PCOD8319895
_publ_section_title
;
Structure prediction by ZEFSAII (Michael W. Deem and Ramdas Pophale) SiO2 
 PCOD8319895
Probable space group: I 4/M M M
;
_chemical_formula_sum "Si O2"
_cell_formula_units_Z 176
_cell_length_a 23.774333
_cell_length_b 23.774333
_cell_length_c 16.409224
_cell_angle_alpha 90.000000
_cell_angle_beta 90.000000
_cell_angle_gamma 90.000000
_cell_volume 9274.803697
_symmetry_space_group_name_H-M "I 4/M M M"
_symmetry_group_IT_number 139
_symmetry_cell_setting 'tetragonal'
loop_
_space_group_symop_operation_xyz
x,y,z
-y,x,z
-x,-y,z
y,-x,z
x,-y,-z
-x,y,-z
y,x,-z
-y,-x,-z
-x,-y,-z
y,-x,-z
x,y,-z
-y,x,-z
-x,y,z
x,-y,z
-y,-x,z
y,x,z
1/2+x,1/2+y,1/2+z
1/2-y,1/2+x,1/2+z
1/2-x,1/2-y,1/2+z
1/2+y,1/2-x,1/2+z
1/2+x,1/2-y,1/2-z
1/2-x,1/2+y,1/2-z
1/2+y,1/2+x,1/2-z
1/2-y,1/2-x,1/2-z
1/2-x,1/2-y,1/2-z
1/2+y,1/2-x,1/2-z
1/2+x,1/2+y,1/2-z
1/2-y,1/2+x,1/2-z
1/2-x,1/2+y,1/2+z
1/2+x,1/2-y,1/2+z
1/2-y,1/2-x,1/2+z
1/2+y,1/2+x,1/2+z
loop_
_atom_site_type_symbol
_atom_site_label
_atom_site_fract_x
_atom_site_fract_y
_atom_site_fract_z
Si Si1 0.436929 0.937356 0.096590
Si Si2 0.937169 0.847858 0.595850
Si Si3 0.656489 0.433859 0.500000
Si Si4 0.768683 0.860827 0.313430
Si Si5 0.655779 0.849715 0.591877
Si Si6 0.724899 0.633914 0.624165
O O1 0.500000 0.919872 0.125136
O O2 0.391346 0.892127 0.127885
O O3 0.422498 0.000000 0.130690
O O4 0.434460 0.939490 0.000000
O O5 0.934016 0.839240 0.500000
O O6 0.901614 0.901614 0.624837
O O7 0.913511 0.791730 0.636220
O O8 0.000000 0.858401 0.626453
O O9 0.647137 0.500000 0.500000
O O10 0.595491 0.404510 0.500000
O O11 0.690373 0.415916 0.418825
O O12 0.804709 0.804709 0.330911
O O13 0.705992 0.849762 0.343443
O O14 0.770632 0.878188 0.219713
O O15 0.674074 0.868327 0.500000
O O16 0.633317 0.786485 0.585500
O O17 0.693468 0.693468 0.607470
#
# Coordination Sequence:
#
# PCOD8319895 Si02
#       6
#    32  32  16  32  32  32
#     4   8  16  32  51  72 102 139 178 221 267 313
#     4   9  18  33  52  76 107 142 181 224 271 326
#     4  10  22  41  64  88 115 147 187 239 294 348
#     4  10  21  35  53  77 111 150 182 221 276 334
#     4  11  20  31  54  87 112 143 188 231 272 334
#     4  10  21  38  56  79 112 146 181 226 281 337
#
# _framework density 18.976143
#
# number of rings (size 3 to 8) (size 9 to 14) (size 15 to 20)
#    0.000    2.364    0.909    2.182    0.000    5.727 
#    0.000    2.727    0.000    3.273    0.000   10.182 
#    0.000    0.000    0.000    0.000    0.000    0.000 
#
# Total GULP energy -1091108.375668 kJ/mol
# GULP energy per Si atom -12398.958814 kJ/mol
# Density = 1.893295 g / cm^3
# Si number density = 18.976143 Si / 1000 Ang^3
#
#
#
# Elastic Constant Matrix: (Units=GPa)
#
#
# Indices 1 2 3 4 5 6 
#
# 1 110.0632 93.2026 42.4657 0.0000 0.0000 0.0000
# 2 93.2026 110.0638 42.4659 0.0000 0.0000 0.0000
# 3 42.4657 42.4659 37.2687 0.0000 0.0000 0.0000
# 4 0.0000 0.0000 0.0000 15.1852 0.0000 0.0000
# 5 0.0000 0.0000 0.0000 0.0000 15.1854 0.0000
# 6 0.0000 0.0000 0.0000 0.0000 0.0000 24.1835
#
#
#
# Elastic Compliance Matrix: (Units=1/GPa)
#
#
# Indices 1 2 3 4 5 6 
#
# 1 0.034350 -0.024959 -0.010700 0.000000 0.000000 0.000000
# 2 -0.024959 0.034350 -0.010700 0.000000 0.000000 0.000000
# 3 -0.010700 -0.010700 0.051216 0.000000 0.000000 0.000000
# 4 0.000000 0.000000 0.000000 0.065854 0.000000 0.000000
# 5 0.000000 0.000000 0.000000 0.000000 0.065853 0.000000
# 6 0.000000 0.000000 0.000000 0.000000 0.000000 0.041351
#
#
# Mechanical properties :
#
#
# Convention : Reuss Voigt Hill
#
# Bulk Modulus (GPa) = 36.76825 68.18490 52.47657
# Shear Modulus (GPa) = 12.66603 16.19490 14.43046
#
# Velocity S-wave (km/s) = 2.58635 2.92453 2.76062
# Velocity P-wave (km/s) = 5.32325 6.88576 6.15430
#
# Compressibility (1/GPa) = 0.02719738
#
# Stress axis : x y z
#
# Youngs Moduli (GPa) = 29.11237 29.11242 19.52503
#
# Poissons Ratio (x) = 0.72662 0.20892
# Poissons Ratio (y) = 0.72662 0.20892
# Poissons Ratio (z) = 0.31150 0.31151
#
# Static dielectric constant tensor:
#      x y z
#    x 3.597310 0.000000 0.000000 
#    y 0.000000 3.597310 0.000000 
#    z 0.000000 0.000000 3.380790 
# 
# 
# High freq. dielectric constant tensor:
#      x y z
#    x 1.733390 0.000000 0.000000 
#    y 0.000000 1.733390 0.000000 
#    z 0.000000 0.000000 1.729460 
# 
# From -- ./inp_files/6140.got.cif
#   From: 2010.03.12/outbox.cif.g09.slc.cpg/sg139_4_cif.got.tgz:6140.got - 2010.04.08 09:46:31.
