data_PCOD8319743
_publ_section_title
;
Structure prediction by ZEFSAII (Michael W. Deem and Ramdas Pophale) SiO2 
 PCOD8319743
Probable space group: I 4/M M M
;
_chemical_formula_sum "Si O2"
_cell_formula_units_Z 192
_cell_length_a 25.731809
_cell_length_b 25.731809
_cell_length_c 15.638673
_cell_angle_alpha 90.000000
_cell_angle_beta 90.000000
_cell_angle_gamma 90.000000
_cell_volume 10354.771911
_symmetry_space_group_name_H-M "I 4/M M M"
_symmetry_group_IT_number 139
_symmetry_cell_setting 'tetragonal'
loop_
_space_group_symop_operation_xyz
x,y,z
-y,x,z
-x,-y,z
y,-x,z
x,-y,-z
-x,y,-z
y,x,-z
-y,-x,-z
-x,-y,-z
y,-x,-z
x,y,-z
-y,x,-z
-x,y,z
x,-y,z
-y,-x,z
y,x,z
1/2+x,1/2+y,1/2+z
1/2-y,1/2+x,1/2+z
1/2-x,1/2-y,1/2+z
1/2+y,1/2-x,1/2+z
1/2+x,1/2-y,1/2-z
1/2-x,1/2+y,1/2-z
1/2+y,1/2+x,1/2-z
1/2-y,1/2-x,1/2-z
1/2-x,1/2-y,1/2-z
1/2+y,1/2-x,1/2-z
1/2+x,1/2+y,1/2-z
1/2-y,1/2+x,1/2-z
1/2-x,1/2+y,1/2+z
1/2+x,1/2-y,1/2+z
1/2-y,1/2-x,1/2+z
1/2+y,1/2+x,1/2+z
loop_
_atom_site_type_symbol
_atom_site_label
_atom_site_fract_x
_atom_site_fract_y
_atom_site_fract_z
Si Si1 0.829275 0.561226 0.000000
Si Si2 0.292789 0.439075 0.000000
Si Si3 0.222715 0.143913 0.093612
Si Si4 0.256324 0.442998 0.719644
Si Si5 0.190573 0.270487 0.405692
Si Si6 0.853772 0.060333 0.336772
Si Si7 0.830809 0.605836 0.818767
O O1 0.853532 0.587036 0.912076
O O2 0.842305 0.500000 0.000000
O O3 0.768150 0.573285 0.000000
O O4 0.322333 0.416595 0.082341
O O5 0.300233 0.500000 0.000000
O O6 0.170194 0.170194 0.133377
O O7 0.249240 0.098660 0.146194
O O8 0.265109 0.187734 0.083932
O O9 0.208971 0.121650 0.000000
O O10 0.254143 0.500000 0.678888
O O11 0.312579 0.434825 0.761075
O O12 0.205727 0.439579 0.781297
O O13 0.163857 0.263687 0.500000
O O14 0.215503 0.215503 0.376217
O O15 0.151725 0.289242 0.332841
O O16 0.905040 0.094961 0.319399
O O17 0.871283 0.000000 0.348668
O O18 0.875474 0.624527 0.750000
#
# Coordination Sequence:
#
# PCOD8319743 Si02
#       7
#    16  16  32  32  32  32  32
#     4  11  22  41  61  82 122 167 193 230 288 338
#     4   9  17  33  52  71 101 143 190 231 274 333
#     4   9  18  34  54  74 103 144 182 224 286 350
#     4  11  22  35  51  76 108 144 191 237 283 345
#     4   9  18  32  49  75 111 148 186 228 283 344
#     4  10  20  33  50  73 102 141 193 248 296 342
#     4  12  22  35  56  83 113 154 196 243 281 339
#
# _framework density 18.542175
#
# number of rings (size 3 to 8) (size 9 to 14) (size 15 to 20)
#    0.000    1.833    4.167    2.250    0.000    2.167 
#    0.000    0.000    0.000    1.500    0.000    0.000 
#    0.000    8.000    0.000   15.500    0.000    0.000 
#
# Total GULP energy -1189286.065565 kJ/mol
# GULP energy per Si atom -12388.396516 kJ/mol
# Density = 1.849997 g / cm^3
# Si number density = 18.542175 Si / 1000 Ang^3
#
#
#
# Elastic Constant Matrix: (Units=GPa)
#
#
# Indices 1 2 3 4 5 6 
#
# 1 58.9415 7.4705 19.3274 0.0000 0.0000 0.0000
# 2 7.4705 58.9416 19.3274 0.0000 0.0000 0.0000
# 3 19.3274 19.3274 68.3974 0.0000 0.0000 0.0000
# 4 0.0000 0.0000 0.0000 5.4353 0.0000 0.0000
# 5 0.0000 0.0000 0.0000 0.0000 5.4358 0.0000
# 6 0.0000 0.0000 0.0000 0.0000 0.0000 18.4701
#
#
#
# Elastic Compliance Matrix: (Units=1/GPa)
#
#
# Indices 1 2 3 4 5 6 
#
# 1 0.018725 -0.000703 -0.005092 0.000000 0.000000 0.000000
# 2 -0.000703 0.018725 -0.005092 0.000000 0.000000 0.000000
# 3 -0.005092 -0.005092 0.017498 0.000000 0.000000 0.000000
# 4 0.000000 0.000000 0.000000 0.183981 0.000000 0.000000
# 5 0.000000 0.000000 0.000000 0.000000 0.183965 0.000000
# 6 0.000000 0.000000 0.000000 0.000000 0.000000 0.054142
#
#
# Mechanical properties :
#
#
# Convention : Reuss Voigt Hill
#
# Bulk Modulus (GPa) = 30.14612 30.94789 30.54700
# Shear Modulus (GPa) = 9.80642 15.21193 12.50918
#
# Velocity S-wave (km/s) = 2.30221 2.86736 2.60019
# Velocity P-wave (km/s) = 4.83325 5.26205 5.05220
#
# Compressibility (1/GPa) = 0.03317177
#
# Stress axis : x y z
#
# Youngs Moduli (GPa) = 53.40456 53.40470 57.14797
#
# Poissons Ratio (x) = 0.03757 0.29102
# Poissons Ratio (y) = 0.03757 0.29102
# Poissons Ratio (z) = 0.27196 0.27196
#
# Static dielectric constant tensor:
#      x y z
#    x 3.357640 0.000000 0.000000 
#    y 0.000000 3.357630 0.000000 
#    z 0.000000 0.000000 3.569810 
# 
# 
# High freq. dielectric constant tensor:
#      x y z
#    x 1.700420 0.000000 0.000000 
#    y 0.000000 1.700420 0.000000 
#    z 0.000000 0.000000 1.718170 
# 
# From -- ./inp_files/6530.got.cif
#   From: 2010.03.12/outbox.cif.g09.slc.cpg/sg139_4_cif.got.tgz:6530.got - 2010.04.08 09:46:31.
