data_PCOD8319798
_publ_section_title
;
Structure prediction by ZEFSAII (Michael W. Deem and Ramdas Pophale) SiO2 
 PCOD8319798
Probable space group: I 4/M M M
;
_chemical_formula_sum "Si O2"
_cell_formula_units_Z 160
_cell_length_a 29.075888
_cell_length_b 29.075888
_cell_length_c 9.610151
_cell_angle_alpha 90.000000
_cell_angle_beta 90.000000
_cell_angle_gamma 90.000000
_cell_volume 8124.491454
_symmetry_space_group_name_H-M "I 4/M M M"
_symmetry_group_IT_number 139
_symmetry_cell_setting 'tetragonal'
loop_
_space_group_symop_operation_xyz
x,y,z
-y,x,z
-x,-y,z
y,-x,z
x,-y,-z
-x,y,-z
y,x,-z
-y,-x,-z
-x,-y,-z
y,-x,-z
x,y,-z
-y,x,-z
-x,y,z
x,-y,z
-y,-x,z
y,x,z
1/2+x,1/2+y,1/2+z
1/2-y,1/2+x,1/2+z
1/2-x,1/2-y,1/2+z
1/2+y,1/2-x,1/2+z
1/2+x,1/2-y,1/2-z
1/2-x,1/2+y,1/2-z
1/2+y,1/2+x,1/2-z
1/2-y,1/2-x,1/2-z
1/2-x,1/2-y,1/2-z
1/2+y,1/2-x,1/2-z
1/2+x,1/2+y,1/2-z
1/2-y,1/2+x,1/2-z
1/2-x,1/2+y,1/2+z
1/2+x,1/2-y,1/2+z
1/2-y,1/2-x,1/2+z
1/2+y,1/2+x,1/2+z
loop_
_atom_site_type_symbol
_atom_site_label
_atom_site_fract_x
_atom_site_fract_y
_atom_site_fract_z
Si Si1 0.243130 0.318258 0.160556
Si Si2 0.426147 0.500000 0.336830
Si Si3 0.163591 0.000000 0.344149
Si Si4 0.552809 0.104206 0.152709
Si Si5 0.447864 0.180988 0.347165
Si Si6 0.261187 0.575784 0.841190
O O1 0.285954 0.285954 0.198354
O O2 0.198432 0.301569 0.250000
O O3 0.261411 0.369753 0.194335
O O4 0.228709 0.313978 0.000000
O O5 0.454759 0.454759 0.293656
O O6 0.416776 0.500000 0.500000
O O7 0.377658 0.500000 0.262469
O O8 0.191259 0.048068 0.322250
O O9 0.143729 0.000000 0.500000
O O10 0.500000 0.114592 0.127283
O O11 0.559092 0.059092 0.250000
O O12 0.577069 0.144840 0.243155
O O13 0.576493 0.099086 0.000000
O O14 0.423922 0.183297 0.500000
O O15 0.500000 0.164531 0.368499
O O16 0.448256 0.229488 0.271839
O O17 0.243393 0.568354 0.000000
#
# Coordination Sequence:
#
# PCOD8319798 Si02
#       6
#    32  16  16  32  32  32
#     4   9  19  36  56  78 107 144 185 230 279 334
#     4   9  20  40  62  84 118 164 206 245 293 349
#     4  10  21  35  57  90 122 154 195 245 300 359
#     4  10  21  36  54  75 101 134 172 219 271 328
#     4  10  20  34  53  76 103 137 175 217 264 322
#     4  10  20  35  56  82 113 148 184 229 287 344
#
# _framework density 19.693539999999999
#
# number of rings (size 3 to 8) (size 9 to 14) (size 15 to 20)
#    0.000    2.300    1.000    1.500    0.000    5.800 
#    0.000    5.500    0.000    2.400    0.000    0.000 
#    0.000    0.000    0.000    0.000    0.000    0.000 
#
# Total GULP energy -991074.911770 kJ/mol
# GULP energy per Si atom -12388.436397 kJ/mol
# Density = 1.964872 g / cm^3
# Si number density = 19.693540 Si / 1000 Ang^3
#
#
#
# Elastic Constant Matrix: (Units=GPa)
#
#
# Indices 1 2 3 4 5 6 
#
# 1 89.7967 45.3445 53.6363 0.0000 0.0000 0.0000
# 2 45.3445 89.7950 53.6360 0.0000 0.0000 0.0000
# 3 53.6363 53.6360 158.7972 0.0000 0.0000 0.0000
# 4 0.0000 0.0000 0.0000 29.9636 0.0000 0.0000
# 5 0.0000 0.0000 0.0000 0.0000 29.9638 0.0000
# 6 0.0000 0.0000 0.0000 0.0000 0.0000 14.7233
#
#
#
# Elastic Compliance Matrix: (Units=1/GPa)
#
#
# Indices 1 2 3 4 5 6 
#
# 1 0.016303 -0.006193 -0.003415 0.000000 0.000000 0.000000
# 2 -0.006193 0.016304 -0.003415 0.000000 0.000000 0.000000
# 3 -0.003415 -0.003415 0.008604 0.000000 0.000000 0.000000
# 4 0.000000 0.000000 0.000000 0.033374 0.000000 0.000000
# 5 0.000000 0.000000 0.000000 0.000000 0.033374 0.000000
# 6 0.000000 0.000000 0.000000 0.000000 0.000000 0.067920
#
#
# Mechanical properties :
#
#
# Convention : Reuss Voigt Hill
#
# Bulk Modulus (GPa) = 65.93991 71.51362 68.72677
# Shear Modulus (GPa) = 24.15700 27.31495 25.73597
#
# Velocity S-wave (km/s) = 3.50615 3.72829 3.61892
# Velocity P-wave (km/s) = 7.06728 7.41118 7.24127
#
# Compressibility (1/GPa) = 0.01516532
#
# Stress axis : x y z
#
# Youngs Moduli (GPa) = 61.33722 61.33594 116.22170
#
# Poissons Ratio (x) = 0.37986 0.39689
# Poissons Ratio (y) = 0.37986 0.39690
# Poissons Ratio (z) = 0.20946 0.20946
#
# Static dielectric constant tensor:
#      x y z
#    x 3.480970 0.000000 0.000000 
#    y 0.000000 3.480980 0.000000 
#    z 0.000000 0.000000 4.009930 
# 
# 
# High freq. dielectric constant tensor:
#      x y z
#    x 1.752290 0.000000 0.000000 
#    y 0.000000 1.752290 0.000000 
#    z 0.000000 0.000000 1.783790 
# 
# From -- ./inp_files/2250.got.cif
#   From: 2010.03.12/outbox.cif.g09.slc.cpg/sg139_2_cif.got.tgz:2250.got - 2010.04.08 09:46:31.
