data_PCOD8319726
_publ_section_title
;
Structure prediction by ZEFSAII (Michael W. Deem and Ramdas Pophale) SiO2 
 PCOD8319726
Probable space group: I 4/M M M
;
_chemical_formula_sum "Si O2"
_cell_formula_units_Z 192
_cell_length_a 19.224901
_cell_length_b 19.224901
_cell_length_c 27.470333
_cell_angle_alpha 90.000000
_cell_angle_beta 90.000000
_cell_angle_gamma 90.000000
_cell_volume 10152.947679
_symmetry_space_group_name_H-M "I 4/M M M"
_symmetry_group_IT_number 139
_symmetry_cell_setting 'tetragonal'
loop_
_space_group_symop_operation_xyz
x,y,z
-y,x,z
-x,-y,z
y,-x,z
x,-y,-z
-x,y,-z
y,x,-z
-y,-x,-z
-x,-y,-z
y,-x,-z
x,y,-z
-y,x,-z
-x,y,z
x,-y,z
-y,-x,z
y,x,z
1/2+x,1/2+y,1/2+z
1/2-y,1/2+x,1/2+z
1/2-x,1/2-y,1/2+z
1/2+y,1/2-x,1/2+z
1/2+x,1/2-y,1/2-z
1/2-x,1/2+y,1/2-z
1/2+y,1/2+x,1/2-z
1/2-y,1/2-x,1/2-z
1/2-x,1/2-y,1/2-z
1/2+y,1/2-x,1/2-z
1/2+x,1/2+y,1/2-z
1/2-y,1/2+x,1/2-z
1/2-x,1/2+y,1/2+z
1/2+x,1/2-y,1/2+z
1/2-y,1/2-x,1/2+z
1/2+y,1/2+x,1/2+z
loop_
_atom_site_type_symbol
_atom_site_label
_atom_site_fract_x
_atom_site_fract_y
_atom_site_fract_z
Si Si1 0.921391 0.192655 0.180278
Si Si2 0.424925 0.691109 0.500000
Si Si3 0.142221 0.256657 0.271023
Si Si4 0.891883 0.306181 0.442053
Si Si5 0.079513 0.802081 0.636075
Si Si6 0.750551 0.636353 0.410820
Si Si7 0.421868 0.000000 0.557079
O O1 0.875971 0.124030 0.172623
O O2 0.912375 0.224001 0.233610
O O3 0.900747 0.253160 0.141700
O O4 0.000000 0.169119 0.172316
O O5 0.500000 0.654902 0.500000
O O6 0.368690 0.631311 0.500000
O O7 0.419804 0.742134 0.453631
O O8 0.210795 0.210795 0.276377
O O9 0.167803 0.332198 0.250000
O O10 0.104078 0.255316 0.323483
O O11 0.894043 0.292948 0.500000
O O12 0.921329 0.237260 0.415927
O O13 0.815440 0.314824 0.420971
O O14 0.933091 0.376482 0.427444
O O15 0.130072 0.869929 0.636000
O O16 0.000000 0.826638 0.646753
O O17 0.683152 0.683152 0.411872
O O18 0.500000 0.000000 0.581156
O O19 0.432351 0.000000 0.500000
#
# Coordination Sequence:
#
# PCOD8319726 Si02
#       7
#    32  16  32  32  32  32  16
#     4  10  20  34  53  79 112 148 189 232 277 334
#     4  10  20  33  48  73 109 145 184 228 276 338
#     4   9  18  35  57  82 111 144 187 239 291 341
#     4  11  21  38  59  83 114 149 194 243 301 359
#     4  11  23  38  60  88 121 160 202 251 302 359
#     4  10  20  34  53  79 107 139 184 237 284 331
#     4   9  20  36  54  80 113 145 179 229 292 361
#
# _framework density 18.910764
#
# number of rings (size 3 to 8) (size 9 to 14) (size 15 to 20)
#    0.000    1.917    1.667    2.500    0.000    5.417 
#    0.000    0.000    0.000    6.000    0.000    1.167 
#    0.000    0.000    0.000    0.000    0.000    0.000 
#
# Total GULP energy -1189744.137284 kJ/mol
# GULP energy per Si atom -12393.168097 kJ/mol
# Density = 1.886772 g / cm^3
# Si number density = 18.910764 Si / 1000 Ang^3
#
#
#
# Elastic Constant Matrix: (Units=GPa)
#
#
# Indices 1 2 3 4 5 6 
#
# 1 94.3633 24.9315 36.5102 0.0000 0.0000 0.0000
# 2 24.9315 94.3621 36.5094 0.0000 0.0000 0.0000
# 3 36.5102 36.5094 104.9461 0.0000 0.0000 0.0000
# 4 0.0000 0.0000 0.0000 13.3593 0.0000 0.0000
# 5 0.0000 0.0000 0.0000 0.0000 13.3599 0.0000
# 6 0.0000 0.0000 0.0000 0.0000 0.0000 -101.0957
#
#
#
# Elastic Compliance Matrix: (Units=1/GPa)
#
#
# Indices 1 2 3 4 5 6 
#
# 1 0.012527 -0.001876 -0.003705 0.000000 0.000000 0.000000
# 2 -0.001876 0.012527 -0.003705 0.000000 0.000000 0.000000
# 3 -0.003705 -0.003705 0.012107 0.000000 0.000000 0.000000
# 4 0.000000 0.000000 0.000000 0.074854 0.000000 0.000000
# 5 0.000000 0.000000 0.000000 0.000000 0.074851 0.000000
# 6 0.000000 0.000000 0.000000 0.000000 0.000000 -0.009892
#
#
# Mechanical properties :
#
#
# Convention : Reuss Voigt Hill
#
# Bulk Modulus (GPa) = 53.80117 54.39709 54.09913
# Shear Modulus (GPa) = 24.78405 -1.82729 11.47838
#
# Velocity S-wave (km/s) = 3.62412 -0.98406 2.46636
# Velocity P-wave (km/s) = 6.78411 5.24752 6.06467
#
# Compressibility (1/GPa) = 0.01858696
#
# Stress axis : x y z
#
# Youngs Moduli (GPa) = 79.82992 79.82931 82.59852
#
# Poissons Ratio (x) = 0.14977 0.30605
# Poissons Ratio (y) = 0.14977 0.30604
# Poissons Ratio (z) = 0.29579 0.29578
#
# Static dielectric constant tensor:
#      x y z
#    x 3.355570 0.000000 0.000000 
#    y 0.000000 3.355570 0.000000 
#    z 0.000000 0.000000 3.774080 
# 
# 
# High freq. dielectric constant tensor:
#      x y z
#    x 1.720230 0.000000 0.000000 
#    y 0.000000 1.720230 0.000000 
#    z 0.000000 0.000000 1.743670 
# 
# From -- ./inp_files/14372.got.cif
#   From: 2010.03.12/outbox.cif.g09.slc.cpg/sg139_8_cif.got.tgz:14372.got - 2010.04.08 09:46:31.
