data_PCOD8319865
_publ_section_title
;
Structure prediction by ZEFSAII (Michael W. Deem and Ramdas Pophale) SiO2 
 PCOD8319865
Probable space group: I 4/M M M
;
_chemical_formula_sum "Si O2"
_cell_formula_units_Z 176
_cell_length_a 26.324707
_cell_length_b 26.324707
_cell_length_c 13.678379
_cell_angle_alpha 90.000000
_cell_angle_beta 90.000000
_cell_angle_gamma 90.000000
_cell_volume 9478.982580
_symmetry_space_group_name_H-M "I 4/M M M"
_symmetry_group_IT_number 139
_symmetry_cell_setting 'tetragonal'
loop_
_space_group_symop_operation_xyz
x,y,z
-y,x,z
-x,-y,z
y,-x,z
x,-y,-z
-x,y,-z
y,x,-z
-y,-x,-z
-x,-y,-z
y,-x,-z
x,y,-z
-y,x,-z
-x,y,z
x,-y,z
-y,-x,z
y,x,z
1/2+x,1/2+y,1/2+z
1/2-y,1/2+x,1/2+z
1/2-x,1/2-y,1/2+z
1/2+y,1/2-x,1/2+z
1/2+x,1/2-y,1/2-z
1/2-x,1/2+y,1/2-z
1/2+y,1/2+x,1/2-z
1/2-y,1/2-x,1/2-z
1/2-x,1/2-y,1/2-z
1/2+y,1/2-x,1/2-z
1/2+x,1/2+y,1/2-z
1/2-y,1/2+x,1/2-z
1/2-x,1/2+y,1/2+z
1/2+x,1/2-y,1/2+z
1/2-y,1/2-x,1/2+z
1/2+y,1/2+x,1/2+z
loop_
_atom_site_type_symbol
_atom_site_label
_atom_site_fract_x
_atom_site_fract_y
_atom_site_fract_z
Si Si1 0.000000 0.555366 0.384167
Si Si2 0.721819 0.721819 0.614383
Si Si3 0.880453 0.220477 0.223638
Si Si4 0.818923 0.560034 0.738620
Si Si5 0.389373 0.100917 0.386304
Si Si6 0.942075 0.137279 0.888589
Si Si7 0.693256 0.306745 0.884472
O O1 0.949671 0.582902 0.348403
O O2 0.000000 0.500000 0.336601
O O3 0.000000 0.552318 0.500000
O O4 0.714836 0.714836 0.500000
O O5 0.738719 0.667677 0.659064
O O6 0.764131 0.764131 0.637802
O O7 0.925447 0.261133 0.220351
O O8 0.905919 0.170572 0.179902
O O9 0.859816 0.210280 0.333788
O O10 0.823311 0.500000 0.759304
O O11 0.851537 0.575790 0.643230
O O12 0.836173 0.595988 0.829376
O O13 0.377913 0.103379 0.500000
O O14 0.920095 0.079906 0.884471
O O15 0.000000 0.137011 0.850195
O O16 0.939739 0.158065 0.000000
O O17 0.684957 0.315044 0.000000
#
# Coordination Sequence:
#
# PCOD8319865 Si02
#       7
#    16  16  32  32  32  32  16
#     4   9  16  32  56  72  91 137 193 239 289 342
#     4  10  21  37  60  87 113 149 193 234 286 347
#     4  11  21  38  60  84 119 154 186 234 289 345
#     4  11  24  38  55  84 113 144 191 239 289 344
#     4  10  22  38  54  76 111 150 190 242 295 343
#     4  10  20  36  61  93 125 156 186 221 277 349
#     4  10  23  39  60  87 113 150 201 245 280 330
#
# _framework density 18.567392999999999
#
# number of rings (size 3 to 8) (size 9 to 14) (size 15 to 20)
#    0.000    1.727    2.727    2.727    5.091    3.455 
#    0.000    0.909    0.000    1.636    0.000    0.000 
#    0.000    0.727    0.000    0.000    0.000    0.000 
#
# Total GULP energy -1090860.581501 kJ/mol
# GULP energy per Si atom -12396.142972 kJ/mol
# Density = 1.852513 g / cm^3
# Si number density = 18.567393 Si / 1000 Ang^3
#
#
#
# Elastic Constant Matrix: (Units=GPa)
#
#
# Indices 1 2 3 4 5 6 
#
# 1 97.8419 34.7223 33.5169 0.0000 0.0000 0.0000
# 2 34.7223 97.8419 33.5170 0.0000 0.0000 0.0000
# 3 33.5169 33.5170 110.1915 0.0000 0.0000 0.0000
# 4 0.0000 0.0000 0.0000 21.2783 0.0000 0.0000
# 5 0.0000 0.0000 0.0000 0.0000 21.2783 0.0000
# 6 0.0000 0.0000 0.0000 0.0000 0.0000 31.1711
#
#
#
# Elastic Compliance Matrix: (Units=1/GPa)
#
#
# Indices 1 2 3 4 5 6 
#
# 1 0.012379 -0.003464 -0.002712 0.000000 0.000000 0.000000
# 2 -0.003464 0.012379 -0.002712 0.000000 0.000000 0.000000
# 3 -0.002712 -0.002712 0.010725 0.000000 0.000000 0.000000
# 4 0.000000 0.000000 0.000000 0.046996 0.000000 0.000000
# 5 0.000000 0.000000 0.000000 0.000000 0.046996 0.000000
# 6 0.000000 0.000000 0.000000 0.000000 0.000000 0.032081
#
#
# Mechanical properties :
#
#
# Convention : Reuss Voigt Hill
#
# Bulk Modulus (GPa) = 56.47256 56.59865 56.53560
# Shear Modulus (GPa) = 26.99303 28.35347 27.67325
#
# Velocity S-wave (km/s) = 3.81699 3.91200 3.86479
# Velocity P-wave (km/s) = 7.06448 7.13820 7.10144
#
# Compressibility (1/GPa) = 0.01770772
#
# Stress axis : x y z
#
# Youngs Moduli (GPa) = 80.78319 80.78314 93.24296
#
# Poissons Ratio (x) = 0.27984 0.25283
# Poissons Ratio (y) = 0.27984 0.25284
# Poissons Ratio (z) = 0.21905 0.21905
#
# Static dielectric constant tensor:
#      x y z
#    x 3.382880 0.000000 0.000000 
#    y 0.000000 3.382880 0.000000 
#    z 0.000000 0.000000 3.327840 
# 
# 
# High freq. dielectric constant tensor:
#      x y z
#    x 1.717020 0.000000 0.000000 
#    y 0.000000 1.717020 0.000000 
#    z 0.000000 0.000000 1.717060 
# 
# From -- ./inp_files/6434.got.cif
#   From: 2010.03.12/outbox.cif.g09.slc.cpg/sg139_4_cif.got.tgz:6434.got - 2010.04.08 09:46:31.
