data_PCOD8319012
_publ_section_title
;
Structure prediction by ZEFSAII (Michael W. Deem and Ramdas Pophale) SiO2 
 PCOD8319012
Probable space group: P 42/N C M
;
_chemical_formula_sum "Si O2"
_cell_formula_units_Z 112
_cell_length_a 15.254443
_cell_length_b 15.254443
_cell_length_c 29.052238
_cell_angle_alpha 90.000000
_cell_angle_beta 90.000000
_cell_angle_gamma 90.000000
_cell_volume 6760.398586
_symmetry_space_group_name_H-M "P 42/N C M"
_symmetry_group_IT_number 138
_space_group.IT_coordinate_system_code '2'
_symmetry_cell_setting 'tetragonal'
loop_
_space_group_symop_operation_xyz
x,y,z
1/2-y,x,1/2+z
1/2-x,1/2-y,z
y,1/2-x,1/2+z
1/2+x,-y,1/2-z
-x,1/2+y,1/2-z
1/2+y,1/2+x,-z
-y,-x,-z
-x,-y,-z
1/2+y,-x,1/2-z
1/2+x,1/2+y,-z
-y,1/2+x,1/2-z
1/2-x,y,1/2+z
x,1/2-y,1/2+z
1/2-y,1/2-x,z
y,x,z
loop_
_atom_site_type_symbol
_atom_site_label
_atom_site_fract_x
_atom_site_fract_y
_atom_site_fract_z
Si Si1 0.245695 0.393193 0.034606
Si Si2 0.902717 0.049177 0.226892
Si Si3 0.823335 0.823335 0.720643
Si Si4 0.229040 0.005791 0.225560
Si Si5 0.686799 0.961454 0.375032
Si Si6 0.323806 0.176195 0.882855
Si Si7 0.707021 0.941070 0.561193
Si Si8 0.903202 0.452488 0.622458
O O1 0.150726 0.349275 0.028238
O O2 0.319227 0.319227 0.035409
O O3 0.247144 0.444140 0.082951
O O4 0.264275 0.458395 0.991702
O O5 0.819044 0.041279 0.259923
O O6 0.942586 0.145974 0.233050
O O7 0.868940 0.036068 0.174628
O O8 0.977109 0.977109 0.238977
O O9 0.750000 0.750000 0.720715
O O10 0.849812 0.849812 0.668852
O O11 0.907474 0.783912 0.745096
O O12 0.240442 0.033417 0.172311
O O13 0.613390 0.886611 0.369377
O O14 0.643293 0.055928 0.385046
O O15 0.250000 0.250000 0.882784
O O16 0.290155 0.090726 0.909534
O O17 0.632587 0.867414 0.562852
O O18 0.673800 0.030796 0.585269
O O19 0.978343 0.521658 0.612070
#
# Coordination Sequence:
#
# PCOD8319012 Si02
#       8
#    16  16   8  16  16   8  16  16
#     4   9  16  24  36  56  88 128 163 201 250 302
#     4  10  20  35  52  73 104 138 171 217 264 307
#     4  11  20  30  50  78  99 129 175 215 254 316
#     4  11  20  35  51  71 104 136 175 217 260 310
#     4   9  17  30  42  60  91 127 166 210 247 299
#     4   9  16  24  38  62  93 117 151 201 250 300
#     4   9  14  23  37  57  87 123 159 197 247 306
#     4   8  15  27  43  60  86 122 160 204 253 297
#
# _framework density 16.567070000000001
#
# number of rings (size 3 to 8) (size 9 to 14) (size 15 to 20)
#    0.000    2.571    2.143    2.143    0.000    4.286 
#    0.000    2.857    0.000    0.000    0.000    0.000 
#    0.000    5.714    0.000   12.571    0.000    6.571 
#
# Total GULP energy -1388221.516281 kJ/mol
# GULP energy per Si atom -12394.834967 kJ/mol
# Density = 1.652936 g / cm^3
# Si number density = 16.567070 Si / 1000 Ang^3
#
#
#
# Elastic Constant Matrix: (Units=GPa)
#
#
# Indices 1 2 3 4 5 6 
#
# 1 56.6342 25.2726 42.7268 0.0000 0.0000 0.0000
# 2 25.2726 56.6342 42.7268 0.0000 0.0000 0.0000
# 3 42.7268 42.7268 143.3483 0.0000 0.0000 0.0000
# 4 0.0000 0.0000 0.0000 13.6166 0.0000 0.0000
# 5 0.0000 0.0000 0.0000 0.0000 13.6166 0.0000
# 6 0.0000 0.0000 0.0000 0.0000 0.0000 18.2228
#
#
#
# Elastic Compliance Matrix: (Units=1/GPa)
#
#
# Indices 1 2 3 4 5 6 
#
# 1 0.024803 -0.007084 -0.005281 0.000000 0.000000 0.000000
# 2 -0.007084 0.024803 -0.005281 0.000000 0.000000 0.000000
# 3 -0.005281 -0.005281 0.010124 0.000000 0.000000 0.000000
# 4 0.000000 0.000000 0.000000 0.073440 0.000000 0.000000
# 5 0.000000 0.000000 0.000000 0.000000 0.073440 0.000000
# 6 0.000000 0.000000 0.000000 0.000000 0.000000 0.054876
#
#
# Mechanical properties :
#
#
# Convention : Reuss Voigt Hill
#
# Bulk Modulus (GPa) = 40.92158 53.11877 47.02018
# Shear Modulus (GPa) = 16.39752 18.81721 17.60736
#
# Velocity S-wave (km/s) = 3.14947 3.37385 3.26359
# Velocity P-wave (km/s) = 6.16277 6.87820 6.53029
#
# Compressibility (1/GPa) = 0.02443699
#
# Stress axis : x y z
#
# Youngs Moduli (GPa) = 40.31831 40.31831 98.77129
#
# Poissons Ratio (x) = 0.28560 0.52165
# Poissons Ratio (y) = 0.28560 0.52165
# Poissons Ratio (z) = 0.21294 0.21294
#
# Static dielectric constant tensor:
#      x y z
#    x 2.926960 0.000000 0.000000 
#    y 0.000000 2.926960 0.000000 
#    z 0.000000 0.000000 3.370120 
# 
# 
# High freq. dielectric constant tensor:
#      x y z
#    x 1.603240 0.000000 0.000000 
#    y 0.000000 1.603240 0.000000 
#    z 0.000000 0.000000 1.652750 
# 
# From -- ./inp_files/7621.got.cif
#   From: 2010.03.12/outbox.cif.g09.slc.cpg/sg138_4_cif.got.tgz:7621.got - 2010.04.08 09:41:05.
