data_PCOD8319060
_publ_section_title
;
Structure prediction by ZEFSAII (Michael W. Deem and Ramdas Pophale) SiO2 
 PCOD8319060
Probable space group: P 42/N C M
;
_chemical_formula_sum "Si O2"
_cell_formula_units_Z 112
_cell_length_a 15.275543
_cell_length_b 15.275543
_cell_length_c 23.195964
_cell_angle_alpha 90.000000
_cell_angle_beta 90.000000
_cell_angle_gamma 90.000000
_cell_volume 5412.597594
_symmetry_space_group_name_H-M "P 42/N C M"
_symmetry_group_IT_number 138
_space_group.IT_coordinate_system_code '2'
_symmetry_cell_setting 'tetragonal'
loop_
_space_group_symop_operation_xyz
x,y,z
1/2-y,x,1/2+z
1/2-x,1/2-y,z
y,1/2-x,1/2+z
1/2+x,-y,1/2-z
-x,1/2+y,1/2-z
1/2+y,1/2+x,-z
-y,-x,-z
-x,-y,-z
1/2+y,-x,1/2-z
1/2+x,1/2+y,-z
-y,1/2+x,1/2-z
1/2-x,y,1/2+z
x,1/2-y,1/2+z
1/2-y,1/2-x,z
y,x,z
loop_
_atom_site_type_symbol
_atom_site_label
_atom_site_fract_x
_atom_site_fract_y
_atom_site_fract_z
Si Si1 0.871071 0.487048 0.464676
Si Si2 0.076563 0.834546 0.357585
Si Si3 0.251639 0.111020 0.839193
Si Si4 0.825255 0.972834 0.474631
Si Si5 0.856264 0.132984 0.865613
Si Si6 0.493761 0.635919 0.233280
Si Si7 0.453508 0.705350 0.589312
O O1 0.898934 0.398934 0.500000
O O2 0.780034 0.533643 0.482898
O O3 0.871226 0.459918 0.397417
O O4 0.940610 0.559391 0.478427
O O5 0.138157 0.748225 0.355964
O O6 0.022575 0.844773 0.299653
O O7 0.140155 0.917327 0.362102
O O8 0.012027 0.841250 0.411855
O O9 0.338799 0.161202 0.818204
O O10 0.178504 0.178504 0.860179
O O11 0.217653 0.052602 0.786466
O O12 0.269921 0.052501 0.894949
O O13 0.882266 0.882266 0.480704
O O14 0.845593 0.040953 0.527461
O O15 0.905093 0.132738 0.804144
O O16 0.890553 0.209576 0.908281
O O17 0.544646 0.544646 0.225138
#
# Coordination Sequence:
#
# PCOD8319060 Si02
#       7
#    16  16  16  16  16  16  16
#     4  10  20  39  66  92 125 166 212 261 314 379
#     4  11  25  40  60  92 128 167 213 264 322 379
#     4   9  20  39  63  91 121 156 206 265 320 378
#     4  11  24  41  62  93 132 167 211 264 321 381
#     4  10  22  40  62  92 124 167 212 268 316 377
#     4  10  22  40  62  89 125 167 214 264 322 388
#     4  11  22  40  63  92 123 168 213 260 319 381
#
# _framework density 20.692468999999999
#
# number of rings (size 3 to 8) (size 9 to 14) (size 15 to 20)
#    0.000    1.714    1.429    2.143    4.000    4.286 
#    0.000    4.286    0.000    3.429    0.000    0.000 
#    0.000    0.000    0.000    0.000    0.000    0.000 
#
# Total GULP energy -1387718.034283 kJ/mol
# GULP energy per Si atom -12390.339592 kJ/mol
# Density = 2.064537 g / cm^3
# Si number density = 20.692469 Si / 1000 Ang^3
#
#
#
# Elastic Constant Matrix: (Units=GPa)
#
#
# Indices 1 2 3 4 5 6 
#
# 1 91.3984 49.4261 43.2256 0.0000 0.0000 0.0000
# 2 49.4261 91.3984 43.2256 0.0000 0.0000 0.0000
# 3 43.2256 43.2256 137.0920 0.0000 0.0000 0.0000
# 4 0.0000 0.0000 0.0000 26.5126 0.0000 0.0000
# 5 0.0000 0.0000 0.0000 0.0000 26.5126 0.0000
# 6 0.0000 0.0000 0.0000 0.0000 0.0000 30.3930
#
#
#
# Elastic Compliance Matrix: (Units=1/GPa)
#
#
# Indices 1 2 3 4 5 6 
#
# 1 0.016315 -0.007510 -0.002776 0.000000 0.000000 0.000000
# 2 -0.007510 0.016315 -0.002776 0.000000 0.000000 0.000000
# 3 -0.002776 -0.002776 0.009045 0.000000 0.000000 0.000000
# 4 0.000000 0.000000 0.000000 0.037718 0.000000 0.000000
# 5 0.000000 0.000000 0.000000 0.000000 0.037718 0.000000
# 6 0.000000 0.000000 0.000000 0.000000 0.000000 0.032902
#
#
# Mechanical properties :
#
#
# Convention : Reuss Voigt Hill
#
# Bulk Modulus (GPa) = 64.30651 65.73812 65.02232
# Shear Modulus (GPa) = 27.57510 28.95105 28.26307
#
# Velocity S-wave (km/s) = 3.65446 3.74453 3.69977
# Velocity P-wave (km/s) = 6.99653 7.10868 7.05283
#
# Compressibility (1/GPa) = 0.01555052
#
# Stress axis : x y z
#
# Youngs Moduli (GPa) = 61.29200 61.29200 110.55614
#
# Poissons Ratio (x) = 0.46030 0.30695
# Poissons Ratio (y) = 0.46030 0.30695
# Poissons Ratio (z) = 0.17017 0.17017
#
# Static dielectric constant tensor:
#      x y z
#    x 3.829070 0.000000 0.000000 
#    y 0.000000 3.829070 0.000000 
#    z 0.000000 0.000000 3.614970 
# 
# 
# High freq. dielectric constant tensor:
#      x y z
#    x 1.809730 0.000000 0.000000 
#    y 0.000000 1.809730 0.000000 
#    z 0.000000 0.000000 1.809380 
# 
# From -- ./inp_files/7091.got.cif
#   From: 2010.03.12/outbox.cif.g09.slc.cpg/sg138_4_cif.got.tgz:7091.got - 2010.04.08 09:41:05.
