data_PCOD8319812
_publ_section_title
;
Structure prediction by ZEFSAII (Michael W. Deem and Ramdas Pophale) SiO2 
 PCOD8319812
Probable space group: I 4/M M M
;
_chemical_formula_sum "Si O2"
_cell_formula_units_Z 128
_cell_length_a 24.602101
_cell_length_b 24.602101
_cell_length_c 10.438104
_cell_angle_alpha 90.000000
_cell_angle_beta 90.000000
_cell_angle_gamma 90.000000
_cell_volume 6317.802041
_symmetry_space_group_name_H-M "I 4/M M M"
_symmetry_group_IT_number 139
_symmetry_cell_setting 'tetragonal'
loop_
_space_group_symop_operation_xyz
x,y,z
-y,x,z
-x,-y,z
y,-x,z
x,-y,-z
-x,y,-z
y,x,-z
-y,-x,-z
-x,-y,-z
y,-x,-z
x,y,-z
-y,x,-z
-x,y,z
x,-y,z
-y,-x,z
y,x,z
1/2+x,1/2+y,1/2+z
1/2-y,1/2+x,1/2+z
1/2-x,1/2-y,1/2+z
1/2+y,1/2-x,1/2+z
1/2+x,1/2-y,1/2-z
1/2-x,1/2+y,1/2-z
1/2+y,1/2+x,1/2-z
1/2-y,1/2-x,1/2-z
1/2-x,1/2-y,1/2-z
1/2+y,1/2-x,1/2-z
1/2+x,1/2+y,1/2-z
1/2-y,1/2+x,1/2-z
1/2-x,1/2+y,1/2+z
1/2+x,1/2-y,1/2+z
1/2-y,1/2-x,1/2+z
1/2+y,1/2+x,1/2+z
loop_
_atom_site_type_symbol
_atom_site_label
_atom_site_fract_x
_atom_site_fract_y
_atom_site_fract_z
Si Si1 0.126392 0.561680 0.856455
Si Si2 0.236973 0.324625 0.357705
Si Si3 0.758112 0.560982 0.745191
Si Si4 0.857249 0.941038 0.350698
O O1 0.105899 0.500000 0.840050
O O2 0.097770 0.597770 0.750000
O O3 0.190853 0.565179 0.839443
O O4 0.112079 0.582776 0.000000
O O5 0.215922 0.308466 0.500000
O O6 0.295013 0.295013 0.331079
O O7 0.193880 0.306121 0.250000
O O8 0.241568 0.390240 0.358023
O O9 0.756750 0.500000 0.681269
O O10 0.705664 0.572112 0.831199
O O11 0.868755 0.941969 0.500000
O O12 0.895526 0.895526 0.284506
O O13 0.871844 0.000000 0.290765
#
# Coordination Sequence:
#
# PCOD8319812 Si02
#       4
#    32  32  32  32
#     4  10  22  39  58  81 109 141 178 222 271 323
#     4  10  22  39  58  82 112 145 182 225 272 322
#     4  10  20  34  54  79 108 142 180 223 272 324
#     4   9  17  29  47  73 106 145 187 229 273 321
#
# _framework density 20.260211000000002
#
# number of rings (size 3 to 8) (size 9 to 14) (size 15 to 20)
#    0.000    2.250    0.000    2.250    0.000    9.500 
#    0.000    7.500    0.000    0.000    0.000    0.000 
#    0.000    0.000    0.000   23.250    0.000    0.500 
#
# Total GULP energy -793051.061583 kJ/mol
# GULP energy per Si atom -12391.422837 kJ/mol
# Density = 2.021410 g / cm^3
# Si number density = 20.260211 Si / 1000 Ang^3
#
#
#
# Elastic Constant Matrix: (Units=GPa)
#
#
# Indices 1 2 3 4 5 6 
#
# 1 131.7085 68.4874 53.8032 0.0000 0.0000 0.0000
# 2 68.4874 131.7067 53.8028 0.0000 0.0000 0.0000
# 3 53.8032 53.8028 106.1658 0.0000 0.0000 0.0000
# 4 0.0000 0.0000 0.0000 20.5025 0.0000 0.0000
# 5 0.0000 0.0000 0.0000 0.0000 20.5023 0.0000
# 6 0.0000 0.0000 0.0000 0.0000 0.0000 31.6188
#
#
#
# Elastic Compliance Matrix: (Units=1/GPa)
#
#
# Indices 1 2 3 4 5 6 
#
# 1 0.011341 -0.004476 -0.003479 0.000000 0.000000 0.000000
# 2 -0.004476 0.011342 -0.003479 0.000000 0.000000 0.000000
# 3 -0.003479 -0.003479 0.012946 0.000000 0.000000 0.000000
# 4 0.000000 0.000000 0.000000 0.048775 0.000000 0.000000
# 5 0.000000 0.000000 0.000000 0.000000 0.048775 0.000000
# 6 0.000000 0.000000 0.000000 0.000000 0.000000 0.031627
#
#
# Mechanical properties :
#
#
# Convention : Reuss Voigt Hill
#
# Bulk Modulus (GPa) = 78.37400 80.19641 79.28521
# Shear Modulus (GPa) = 26.05157 27.42391 26.73774
#
# Velocity S-wave (km/s) = 3.58976 3.68310 3.63673
# Velocity P-wave (km/s) = 7.47994 7.59974 7.54008
#
# Compressibility (1/GPa) = 0.01275933
#
# Stress axis : x y z
#
# Youngs Moduli (GPa) = 88.17266 88.17145 77.24635
#
# Poissons Ratio (x) = 0.39468 0.26875
# Poissons Ratio (y) = 0.39468 0.26875
# Poissons Ratio (z) = 0.30677 0.30676
#
# Static dielectric constant tensor:
#      x y z
#    x 3.953750 0.000000 0.000000 
#    y 0.000000 3.953760 0.000000 
#    z 0.000000 0.000000 3.302150 
# 
# 
# High freq. dielectric constant tensor:
#      x y z
#    x 1.799190 0.000000 0.000000 
#    y 0.000000 1.799190 0.000000 
#    z 0.000000 0.000000 1.755480 
# 
# From -- ./inp_files/3395.got.cif
#   From: 2010.03.12/outbox.cif.g09.slc.cpg/sg139_2_cif.got.tgz:3395.got - 2010.04.08 09:46:31.
