data_PCOD8319571
_publ_section_title
;
Structure prediction by ZEFSAII (Michael W. Deem and Ramdas Pophale) SiO2 
 PCOD8319571
Probable space group: I 4/M M M
;
_chemical_formula_sum "Si O2"
_cell_formula_units_Z 104
_cell_length_a 13.520013
_cell_length_b 13.520013
_cell_length_c 34.104093
_cell_angle_alpha 90.000000
_cell_angle_beta 90.000000
_cell_angle_gamma 90.000000
_cell_volume 6233.912789
_symmetry_space_group_name_H-M "I 4/M M M"
_symmetry_group_IT_number 139
_symmetry_cell_setting 'tetragonal'
loop_
_space_group_symop_operation_xyz
x,y,z
-y,x,z
-x,-y,z
y,-x,z
x,-y,-z
-x,y,-z
y,x,-z
-y,-x,-z
-x,-y,-z
y,-x,-z
x,y,-z
-y,x,-z
-x,y,z
x,-y,z
-y,-x,z
y,x,z
1/2+x,1/2+y,1/2+z
1/2-y,1/2+x,1/2+z
1/2-x,1/2-y,1/2+z
1/2+y,1/2-x,1/2+z
1/2+x,1/2-y,1/2-z
1/2-x,1/2+y,1/2-z
1/2+y,1/2+x,1/2-z
1/2-y,1/2-x,1/2-z
1/2-x,1/2-y,1/2-z
1/2+y,1/2-x,1/2-z
1/2+x,1/2+y,1/2-z
1/2-y,1/2+x,1/2-z
1/2-x,1/2+y,1/2+z
1/2+x,1/2-y,1/2+z
1/2-y,1/2-x,1/2+z
1/2+y,1/2+x,1/2+z
loop_
_atom_site_type_symbol
_atom_site_label
_atom_site_fract_x
_atom_site_fract_y
_atom_site_fract_z
Si Si1 0.114005 0.385996 0.750000
Si Si2 0.387636 0.885169 0.093860
Si Si3 0.275152 0.114275 0.828280
Si Si4 0.256166 0.743835 0.043764
Si Si5 0.113178 0.886823 0.500000
O O1 0.132477 0.500000 0.760573
O O2 0.147127 0.321313 0.787000
O O3 0.500000 0.845520 0.087330
O O4 0.358388 0.866438 0.138928
O O5 0.305933 0.834308 0.066459
O O6 0.383290 0.000000 0.083143
O O7 0.177998 0.177998 0.837221
O O8 0.242514 0.000000 0.827939
O O9 0.221131 0.778870 0.000000
O O10 0.340184 0.659817 0.039282
O O11 0.000000 0.861122 0.500000
#
# Coordination Sequence:
#
# PCOD8319571 Si02
#       5
#    16  32  32  16   8
#     4   9  17  30  50  76 103 129 164 208 250 296
#     4  10  20  35  55  78 104 135 173 215 256 302
#     4  10  19  32  50  75 103 135 171 208 252 299
#     4  10  21  34  52  76 103 132 166 214 268 309
#     4   9  18  32  50  74 102 131 164 202 258 325
#
# _framework density 16.682939999999999
#
# number of rings (size 3 to 8) (size 9 to 14) (size 15 to 20)
#    0.462    1.769    1.538    2.308    0.000    4.615 
#    0.000    1.538    0.000    0.462    0.000    1.077 
#    0.000    0.000    0.000    0.000    0.000    0.000 
#
# Total GULP energy -644607.086790 kJ/mol
# GULP energy per Si atom -12396.290131 kJ/mol
# Density = 1.664497 g / cm^3
# Si number density = 16.682940 Si / 1000 Ang^3
#
#
#
# Elastic Constant Matrix: (Units=GPa)
#
#
# Indices 1 2 3 4 5 6 
#
# 1 77.5559 42.7090 39.8088 0.0000 0.0000 0.0000
# 2 42.7090 77.5572 39.8086 0.0000 0.0000 0.0000
# 3 39.8088 39.8086 102.6712 0.0000 0.0000 0.0000
# 4 0.0000 0.0000 0.0000 25.6573 0.0000 0.0000
# 5 0.0000 0.0000 0.0000 0.0000 25.6571 0.0000
# 6 0.0000 0.0000 0.0000 0.0000 0.0000 32.0876
#
#
#
# Elastic Compliance Matrix: (Units=1/GPa)
#
#
# Indices 1 2 3 4 5 6 
#
# 1 0.019942 -0.008755 -0.004337 0.000000 0.000000 0.000000
# 2 -0.008755 0.019941 -0.004337 0.000000 0.000000 0.000000
# 3 -0.004337 -0.004337 0.013103 0.000000 0.000000 0.000000
# 4 0.000000 0.000000 0.000000 0.038975 0.000000 0.000000
# 5 0.000000 0.000000 0.000000 0.000000 0.038976 0.000000
# 6 0.000000 0.000000 0.000000 0.000000 0.000000 0.031165
#
#
# Mechanical properties :
#
#
# Convention : Reuss Voigt Hill
#
# Bulk Modulus (GPa) = 55.16721 55.82634 55.49677
# Shear Modulus (GPa) = 24.63021 25.71094 25.17057
#
# Velocity S-wave (km/s) = 3.84653 3.93001 3.88849
# Velocity P-wave (km/s) = 7.27100 7.35725 7.31425
#
# Compressibility (1/GPa) = 0.01812671
#
# Stress axis : x y z
#
# Youngs Moduli (GPa) = 50.14652 50.14766 76.31729
#
# Poissons Ratio (x) = 0.43905 0.33102
# Poissons Ratio (y) = 0.43904 0.33100
# Poissons Ratio (z) = 0.21750 0.21750
#
# Static dielectric constant tensor:
#      x y z
#    x 3.022030 0.000000 0.000000 
#    y 0.000000 3.022010 0.000000 
#    z 0.000000 0.000000 3.168670 
# 
# 
# High freq. dielectric constant tensor:
#      x y z
#    x 1.636390 0.000000 0.000000 
#    y 0.000000 1.636390 0.000000 
#    z 0.000000 0.000000 1.648890 
# 
# From -- ./inp_files/13773.got.cif
#   From: 2010.03.12/outbox.cif.g09.slc.cpg/sg139_7_cif.got.tgz:13773.got - 2010.04.08 09:46:31.
