data_PCOD8319062
_publ_section_title
;
Structure prediction by ZEFSAII (Michael W. Deem and Ramdas Pophale) SiO2 
 PCOD8319062
Probable space group: P 42/N C M
;
_chemical_formula_sum "Si O2"
_cell_formula_units_Z 64
_cell_length_a 11.558877
_cell_length_b 11.558877
_cell_length_c 22.676451
_cell_angle_alpha 90.000000
_cell_angle_beta 90.000000
_cell_angle_gamma 90.000000
_cell_volume 3029.747045
_symmetry_space_group_name_H-M "P 42/N C M"
_symmetry_group_IT_number 138
_space_group.IT_coordinate_system_code '2'
_symmetry_cell_setting 'tetragonal'
loop_
_space_group_symop_operation_xyz
x,y,z
1/2-y,x,1/2+z
1/2-x,1/2-y,z
y,1/2-x,1/2+z
1/2+x,-y,1/2-z
-x,1/2+y,1/2-z
1/2+y,1/2+x,-z
-y,-x,-z
-x,-y,-z
1/2+y,-x,1/2-z
1/2+x,1/2+y,-z
-y,1/2+x,1/2-z
1/2-x,y,1/2+z
x,1/2-y,1/2+z
1/2-y,1/2-x,z
y,x,z
loop_
_atom_site_type_symbol
_atom_site_label
_atom_site_fract_x
_atom_site_fract_y
_atom_site_fract_z
Si Si1 0.694242 0.995716 0.722095
Si Si2 0.348089 0.348089 0.353298
Si Si3 0.093979 0.093979 0.484179
Si Si4 0.029253 0.665897 0.331297
Si Si5 0.517720 0.324966 0.035835
O O1 0.597825 0.902176 0.710916
O O2 0.804248 0.958829 0.683224
O O3 0.723446 0.998424 0.791444
O O4 0.646623 0.116347 0.697453
O O5 0.250000 0.250000 0.362374
O O6 0.394045 0.394045 0.414782
O O7 0.050382 0.216864 0.508567
O O8 0.000000 0.000000 0.500000
O O9 0.055476 0.707149 0.397698
O O10 0.923692 0.576309 0.329761
O O11 0.431684 0.431684 0.037238
O O12 0.633085 0.366916 0.000000
#
# Coordination Sequence:
#
# PCOD8319062 Si02
#       5
#    16   8   8  16  16
#     4  10  21  37  60  89 121 165 204 263 320 378
#     4  10  20  40  64  84 119 167 219 254 309 389
#     4  12  26  40  62  96 132 173 213 270 337 388
#     4  10  21  37  61  92 124 155 209 262 317 380
#     4  10  22  43  68  94 124 171 223 274 323 389
#
# _framework density 21.123875999999999
#
# number of rings (size 3 to 8) (size 9 to 14) (size 15 to 20)
#    0.000    1.750    1.250    2.625    1.750    7.000 
#    0.000    2.500    0.000    0.000    0.000    0.000 
#    0.000    0.000    0.000    0.000    0.000    0.000 
#
# Total GULP energy -793476.646208 kJ/mol
# GULP energy per Si atom -12398.072597 kJ/mol
# Density = 2.107580 g / cm^3
# Si number density = 21.123876 Si / 1000 Ang^3
#
#
#
# Elastic Constant Matrix: (Units=GPa)
#
#
# Indices 1 2 3 4 5 6 
#
# 1 40.0598 10.0759 24.9610 0.0000 0.0000 0.0000
# 2 10.0759 40.0618 24.9612 0.0000 0.0000 0.0000
# 3 24.9610 24.9612 180.7522 0.0000 0.0000 0.0000
# 4 0.0000 0.0000 0.0000 23.7234 0.0000 0.0000
# 5 0.0000 0.0000 0.0000 0.0000 23.7235 0.0000
# 6 0.0000 0.0000 0.0000 0.0000 0.0000 29.5703
#
#
#
# Elastic Compliance Matrix: (Units=1/GPa)
#
#
# Indices 1 2 3 4 5 6 
#
# 1 0.028238 -0.005112 -0.003194 0.000000 0.000000 0.000000
# 2 -0.005112 0.028237 -0.003193 0.000000 0.000000 0.000000
# 3 -0.003194 -0.003193 0.006414 0.000000 0.000000 0.000000
# 4 0.000000 0.000000 0.000000 0.042152 0.000000 0.000000
# 5 0.000000 0.000000 0.000000 0.000000 0.042152 0.000000
# 6 0.000000 0.000000 0.000000 0.000000 0.000000 0.033818
#
#
# Mechanical properties :
#
#
# Convention : Reuss Voigt Hill
#
# Bulk Modulus (GPa) = 25.06827 42.31888 33.69358
# Shear Modulus (GPa) = 23.00882 28.79517 25.90199
#
# Velocity S-wave (km/s) = 3.30393 3.69610 3.50551
# Velocity P-wave (km/s) = 5.14273 6.18806 5.68945
#
# Compressibility (1/GPa) = 0.03989107
#
# Stress axis : x y z
#
# Youngs Moduli (GPa) = 35.41269 35.41463 155.89789
#
# Poissons Ratio (x) = 0.18105 0.49788
# Poissons Ratio (y) = 0.18104 0.49785
# Poissons Ratio (z) = 0.11309 0.11309
#
# Static dielectric constant tensor:
#      x y z
#    x 2.174440 0.000000 0.000000 
#    y 0.000000 2.221430 0.000000 
#    z 0.000000 0.000000 4.065090 
# 
# 
# High freq. dielectric constant tensor:
#      x y z
#    x 1.820700 0.000000 0.000000 
#    y 0.000000 1.820700 0.000000 
#    z 0.000000 0.000000 1.843280 
# 
# From -- ./inp_files/6770.got.cif
#   From: 2010.03.12/outbox.cif.g09.slc.cpg/sg138_4_cif.got.tgz:6770.got - 2010.04.08 09:41:05.
