data_PCOD8319718
_publ_section_title
;
Structure prediction by ZEFSAII (Michael W. Deem and Ramdas Pophale) SiO2 
 PCOD8319718
Probable space group: I 4/M M M
;
_chemical_formula_sum "Si O2"
_cell_formula_units_Z 144
_cell_length_a 24.418672
_cell_length_b 24.418672
_cell_length_c 17.037622
_cell_angle_alpha 90.000000
_cell_angle_beta 90.000000
_cell_angle_gamma 90.000000
_cell_volume 10159.049146
_symmetry_space_group_name_H-M "I 4/M M M"
_symmetry_group_IT_number 139
_symmetry_cell_setting 'tetragonal'
loop_
_space_group_symop_operation_xyz
x,y,z
-y,x,z
-x,-y,z
y,-x,z
x,-y,-z
-x,y,-z
y,x,-z
-y,-x,-z
-x,-y,-z
y,-x,-z
x,y,-z
-y,x,-z
-x,y,z
x,-y,z
-y,-x,z
y,x,z
1/2+x,1/2+y,1/2+z
1/2-y,1/2+x,1/2+z
1/2-x,1/2-y,1/2+z
1/2+y,1/2-x,1/2+z
1/2+x,1/2-y,1/2-z
1/2-x,1/2+y,1/2-z
1/2+y,1/2+x,1/2-z
1/2-y,1/2-x,1/2-z
1/2-x,1/2-y,1/2-z
1/2+y,1/2-x,1/2-z
1/2+x,1/2+y,1/2-z
1/2-y,1/2+x,1/2-z
1/2-x,1/2+y,1/2+z
1/2+x,1/2-y,1/2+z
1/2-y,1/2-x,1/2+z
1/2+y,1/2+x,1/2+z
loop_
_atom_site_type_symbol
_atom_site_label
_atom_site_fract_x
_atom_site_fract_y
_atom_site_fract_z
Si Si1 0.842905 0.935456 0.000000
Si Si2 0.210097 0.697955 0.913358
Si Si3 0.721731 0.370658 0.806633
Si Si4 0.938103 0.149615 0.590004
Si Si5 0.873711 0.218153 0.130348
O O1 0.805541 0.922631 0.923433
O O2 0.898701 0.898701 0.000000
O O3 0.858516 0.000000 0.000000
O O4 0.254857 0.745144 0.906220
O O5 0.222402 0.652870 0.845851
O O6 0.150085 0.724632 0.902591
O O7 0.212932 0.670785 0.000000
O O8 0.676889 0.323112 0.807355
O O9 0.701817 0.421438 0.858689
O O10 0.730661 0.393489 0.718937
O O11 0.928326 0.165870 0.500000
O O12 0.903260 0.096741 0.614238
O O13 0.000000 0.133484 0.607779
O O14 0.825997 0.174004 0.130212
#
# Coordination Sequence:
#
# PCOD8319718 Si02
#       5
#    16  32  32  32  32
#     4  10  20  33  46  58  76 106 145 191 230 252
#     4   9  14  22  38  59  82 101 119 148 194 252
#     4   9  16  24  38  58  77  98 125 159 202 252
#     4   9  17  28  39  52  72  98 132 172 210 246
#     4   9  16  27  40  56  77  99 126 162 205 252
#
# _framework density 14.174556000000001
#
# number of rings (size 3 to 8) (size 9 to 14) (size 15 to 20)
#    0.000    2.889    1.111    1.333    0.000    6.556 
#    0.000    1.111    0.000    0.000    0.000    6.222 
#    0.000    0.000    0.000    0.000    0.000    2.222 
#
# Total GULP energy -892224.152100 kJ/mol
# GULP energy per Si atom -12392.002112 kJ/mol
# Density = 1.414229 g / cm^3
# Si number density = 14.174556 Si / 1000 Ang^3
#
#
#
# Elastic Constant Matrix: (Units=GPa)
#
#
# Indices 1 2 3 4 5 6 
#
# 1 43.3328 41.1701 37.5714 0.0000 0.0000 0.0000
# 2 41.1701 43.3328 37.5714 0.0000 0.0000 0.0000
# 3 37.5714 37.5714 106.3812 0.0000 0.0000 0.0000
# 4 0.0000 0.0000 0.0000 14.1785 0.0000 0.0000
# 5 0.0000 0.0000 0.0000 0.0000 14.1785 0.0000
# 6 0.0000 0.0000 0.0000 0.0000 0.0000 12.9515
#
#
#
# Elastic Compliance Matrix: (Units=1/GPa)
#
#
# Indices 1 2 3 4 5 6 
#
# 1 0.239820 -0.222568 -0.006093 0.000000 0.000000 0.000000
# 2 -0.222568 0.239820 -0.006093 0.000000 0.000000 0.000000
# 3 -0.006093 -0.006093 0.013704 0.000000 0.000000 0.000000
# 4 0.000000 0.000000 0.000000 0.070529 0.000000 0.000000
# 5 0.000000 0.000000 0.000000 0.000000 0.070529 0.000000
# 6 0.000000 0.000000 0.000000 0.000000 0.000000 0.077211
#
#
# Mechanical properties :
#
#
# Convention : Reuss Voigt Hill
#
# Bulk Modulus (GPa) = 41.95338 47.29692 44.62515
# Shear Modulus (GPa) = 4.20498 13.37731 8.79115
#
# Velocity S-wave (km/s) = 1.72424 3.07539 2.49310
# Velocity P-wave (km/s) = 5.79879 6.78606 6.31176
#
# Compressibility (1/GPa) = 0.02383598
#
# Stress axis : x y z
#
# Youngs Moduli (GPa) = 4.16980 4.16980 72.97154
#
# Poissons Ratio (x) = 0.92806 0.44462
# Poissons Ratio (y) = 0.92806 0.44462
# Poissons Ratio (z) = 0.02541 0.02541
#
# Static dielectric constant tensor:
#      x y z
#    x 2.527650 0.000000 0.000000 
#    y 0.000000 2.527650 0.000000 
#    z 0.000000 0.000000 3.113590 
# 
# 
# High freq. dielectric constant tensor:
#      x y z
#    x 1.498000 0.000000 0.000000 
#    y 0.000000 1.498000 0.000000 
#    z 0.000000 0.000000 1.561640 
# 
# From -- ./inp_files/8569.got.cif
#   From: 2010.03.12/outbox.cif.g09.slc.cpg/sg139_5_cif.got.tgz:8569.got - 2010.04.08 09:46:31.
