data_PCOD8319688
_publ_section_title
;
Structure prediction by ZEFSAII (Michael W. Deem and Ramdas Pophale) SiO2 
 PCOD8319688
Probable space group: I 4/M M M
;
_chemical_formula_sum "Si O2"
_cell_formula_units_Z 160
_cell_length_a 17.898672
_cell_length_b 17.898672
_cell_length_c 28.556096
_cell_angle_alpha 90.000000
_cell_angle_beta 90.000000
_cell_angle_gamma 90.000000
_cell_volume 9148.301144
_symmetry_space_group_name_H-M "I 4/M M M"
_symmetry_group_IT_number 139
_symmetry_cell_setting 'tetragonal'
loop_
_space_group_symop_operation_xyz
x,y,z
-y,x,z
-x,-y,z
y,-x,z
x,-y,-z
-x,y,-z
y,x,-z
-y,-x,-z
-x,-y,-z
y,-x,-z
x,y,-z
-y,x,-z
-x,y,z
x,-y,z
-y,-x,z
y,x,z
1/2+x,1/2+y,1/2+z
1/2-y,1/2+x,1/2+z
1/2-x,1/2-y,1/2+z
1/2+y,1/2-x,1/2+z
1/2+x,1/2-y,1/2-z
1/2-x,1/2+y,1/2-z
1/2+y,1/2+x,1/2-z
1/2-y,1/2-x,1/2-z
1/2-x,1/2-y,1/2-z
1/2+y,1/2-x,1/2-z
1/2+x,1/2+y,1/2-z
1/2-y,1/2+x,1/2-z
1/2-x,1/2+y,1/2+z
1/2+x,1/2-y,1/2+z
1/2-y,1/2-x,1/2+z
1/2+y,1/2+x,1/2+z
loop_
_atom_site_type_symbol
_atom_site_label
_atom_site_fract_x
_atom_site_fract_y
_atom_site_fract_z
Si Si1 0.339486 0.218192 0.947032
Si Si2 0.703297 0.585496 0.190930
Si Si3 0.585755 0.000000 0.632429
Si Si4 0.348535 0.847301 0.851869
Si Si5 0.800681 0.500000 0.948727
Si Si6 0.085058 0.793078 0.800257
O O1 0.287700 0.287700 0.935847
O O2 0.327596 0.153906 0.907638
O O3 0.425040 0.248292 0.941528
O O4 0.324910 0.186876 0.000000
O O5 0.703876 0.500000 0.172228
O O6 0.621262 0.621262 0.182859
O O7 0.762481 0.636917 0.163934
O O8 0.723859 0.588095 0.245437
O O9 0.606849 0.075766 0.660345
O O10 0.627975 0.000000 0.583816
O O11 0.500000 0.000000 0.620783
O O12 0.280324 0.884562 0.825432
O O13 0.836556 0.500000 0.000000
O O14 0.135530 0.864471 0.814032
O O15 0.000000 0.809765 0.816254
#
# Coordination Sequence:
#
# PCOD8319688 Si02
#       6
#    32  32  16  32  16  32
#     4   9  17  29  47  70  95 126 165 207 250 298
#     4  10  20  34  52  75 102 134 172 211 253 300
#     4  10  20  31  48  70  98 132 160 200 249 302
#     4  11  19  34  52  74 102 134 169 208 255 304
#     4   8  16  29  44  65  92 122 160 200 242 294
#     4  10  21  35  54  77 102 133 170 211 255 307
#
# _framework density 17.489585000000002
#
# number of rings (size 3 to 8) (size 9 to 14) (size 15 to 20)
#    0.000    2.200    1.000    3.000    0.000    2.200 
#    0.000    2.000    0.000    2.100    0.000    2.100 
#    0.000    0.000    0.000    4.200    0.000    0.200 
#
# Total GULP energy -991388.039245 kJ/mol
# GULP energy per Si atom -12392.350491 kJ/mol
# Density = 1.744978 g / cm^3
# Si number density = 17.489585 Si / 1000 Ang^3
#
#
#
# Elastic Constant Matrix: (Units=GPa)
#
#
# Indices 1 2 3 4 5 6 
#
# 1 100.9461 61.8412 31.5509 0.0000 0.0000 0.0000
# 2 61.8412 100.9461 31.5509 0.0000 0.0000 0.0000
# 3 31.5509 31.5509 51.5863 0.0000 0.0000 0.0000
# 4 0.0000 0.0000 0.0000 13.4836 0.0000 0.0000
# 5 0.0000 0.0000 0.0000 0.0000 13.4836 0.0000
# 6 0.0000 0.0000 0.0000 0.0000 0.0000 22.8324
#
#
#
# Elastic Compliance Matrix: (Units=1/GPa)
#
#
# Indices 1 2 3 4 5 6 
#
# 1 0.016812 -0.008760 -0.004925 0.000000 0.000000 0.000000
# 2 -0.008760 0.016812 -0.004925 0.000000 0.000000 0.000000
# 3 -0.004925 -0.004925 0.025409 0.000000 0.000000 0.000000
# 4 0.000000 0.000000 0.000000 0.074164 0.000000 0.000000
# 5 0.000000 0.000000 0.000000 0.000000 0.074164 0.000000
# 6 0.000000 0.000000 0.000000 0.000000 0.000000 0.043797
#
#
# Mechanical properties :
#
#
# Convention : Reuss Voigt Hill
#
# Bulk Modulus (GPa) = 45.84176 55.92939 50.88558
# Shear Modulus (GPa) = 16.91190 18.52894 17.72042
#
# Velocity S-wave (km/s) = 3.11299 3.25842 3.18653
# Velocity P-wave (km/s) = 6.26009 6.79739 6.53426
#
# Compressibility (1/GPa) = 0.02181417
#
# Stress axis : x y z
#
# Youngs Moduli (GPa) = 59.48104 59.48104 39.35611
#
# Poissons Ratio (x) = 0.52106 0.19382
# Poissons Ratio (y) = 0.52106 0.19382
# Poissons Ratio (z) = 0.29293 0.29293
#
# Static dielectric constant tensor:
#      x y z
#    x 3.290000 0.000000 0.000000 
#    y 0.000000 3.290000 0.000000 
#    z 0.000000 0.000000 3.460340 
# 
# 
# High freq. dielectric constant tensor:
#      x y z
#    x 1.667200 0.000000 0.000000 
#    y 0.000000 1.667200 0.000000 
#    z 0.000000 0.000000 1.678410 
# 
# From -- ./inp_files/14089.got.cif
#   From: 2010.03.12/outbox.cif.g09.slc.cpg/sg139_8_cif.got.tgz:14089.got - 2010.04.08 09:46:31.
