data_PCOD8319269
_publ_section_title
;
Structure prediction by ZEFSAII (Michael W. Deem and Ramdas Pophale) SiO2 
 PCOD8319269
Probable space group: I 4/M M M
;
_chemical_formula_sum "Si O2"
_cell_formula_units_Z 144
_cell_length_a 21.320430
_cell_length_b 21.320430
_cell_length_c 20.531307
_cell_angle_alpha 90.000000
_cell_angle_beta 90.000000
_cell_angle_gamma 90.000000
_cell_volume 9332.726008
_symmetry_space_group_name_H-M "I 4/M M M"
_symmetry_group_IT_number 139
_symmetry_cell_setting 'tetragonal'
loop_
_space_group_symop_operation_xyz
x,y,z
-y,x,z
-x,-y,z
y,-x,z
x,-y,-z
-x,y,-z
y,x,-z
-y,-x,-z
-x,-y,-z
y,-x,-z
x,y,-z
-y,x,-z
-x,y,z
x,-y,z
-y,-x,z
y,x,z
1/2+x,1/2+y,1/2+z
1/2-y,1/2+x,1/2+z
1/2-x,1/2-y,1/2+z
1/2+y,1/2-x,1/2+z
1/2+x,1/2-y,1/2-z
1/2-x,1/2+y,1/2-z
1/2+y,1/2+x,1/2-z
1/2-y,1/2-x,1/2-z
1/2-x,1/2-y,1/2-z
1/2+y,1/2-x,1/2-z
1/2+x,1/2+y,1/2-z
1/2-y,1/2+x,1/2-z
1/2-x,1/2+y,1/2+z
1/2+x,1/2-y,1/2+z
1/2-y,1/2-x,1/2+z
1/2+y,1/2+x,1/2+z
loop_
_atom_site_type_symbol
_atom_site_label
_atom_site_fract_x
_atom_site_fract_y
_atom_site_fract_z
Si Si1 0.174292 0.072562 0.690653
Si Si2 0.297620 0.070130 0.763581
Si Si3 0.873196 0.387240 0.145098
Si Si4 0.000000 0.573066 0.073337
Si Si5 0.241069 0.427552 0.927068
O O1 0.113022 0.113022 0.705533
O O2 0.229398 0.092758 0.740040
O O3 0.198954 0.086278 0.617799
O O4 0.155942 0.000000 0.699332
O O5 0.318863 0.115477 0.822438
O O6 0.347247 0.068699 0.703456
O O7 0.293647 0.000000 0.791156
O O8 0.819090 0.384422 0.090395
O O9 0.938293 0.409678 0.114245
O O10 0.000000 0.500000 0.063255
O O11 0.000000 0.603795 0.000000
O O12 0.219840 0.500000 0.919055
O O13 0.262147 0.411784 0.000000
#
# Coordination Sequence:
#
# PCOD8319269 Si02
#       5
#    32  32  32  16  32
#     4   9  18  32  51  70  88 110 138 177 228 281
#     4   9  17  30  42  59  88 119 150 183 223 272
#     4  10  17  27  41  59  82 121 162 190 219 254
#     4  11  20  26  36  60  92 120 157 203 233 246
#     4   9  17  30  45  60  88 126 158 184 216 261
#
# _framework density 15.429575
#
# number of rings (size 3 to 8) (size 9 to 14) (size 15 to 20)
#    0.000    2.556    1.111    4.000    0.000    2.444 
#    0.000    8.889    0.000    0.000    0.000    3.111 
#    0.000    0.000    0.000    0.000    0.000    2.000 
#
# Total GULP energy -892225.118857 kJ/mol
# GULP energy per Si atom -12392.015540 kJ/mol
# Density = 1.539446 g / cm^3
# Si number density = 15.429575 Si / 1000 Ang^3
#
#
#
# Elastic Constant Matrix: (Units=GPa)
#
#
# Indices 1 2 3 4 5 6 
#
# 1 77.2373 51.4624 32.6081 0.0000 0.0000 0.0000
# 2 51.4624 77.2373 32.6081 0.0000 0.0000 0.0000
# 3 32.6081 32.6081 57.5378 0.0000 0.0000 0.0000
# 4 0.0000 0.0000 0.0000 15.5419 0.0000 0.0000
# 5 0.0000 0.0000 0.0000 0.0000 15.5419 0.0000
# 6 0.0000 0.0000 0.0000 0.0000 0.0000 26.1699
#
#
#
# Elastic Compliance Matrix: (Units=1/GPa)
#
#
# Indices 1 2 3 4 5 6 
#
# 1 0.024849 -0.013949 -0.006178 0.000000 0.000000 0.000000
# 2 -0.013949 0.024849 -0.006178 0.000000 0.000000 0.000000
# 3 -0.006178 -0.006178 0.024382 0.000000 0.000000 0.000000
# 4 0.000000 0.000000 0.000000 0.064342 0.000000 0.000000
# 5 0.000000 0.000000 0.000000 0.000000 0.064342 0.000000
# 6 0.000000 0.000000 0.000000 0.000000 0.000000 0.038212
#
#
# Mechanical properties :
#
#
# Convention : Reuss Voigt Hill
#
# Bulk Modulus (GPa) = 46.57127 49.48554 48.02840
# Shear Modulus (GPa) = 16.62563 17.80633 17.21598
#
# Velocity S-wave (km/s) = 3.28612 3.40080 3.34395
# Velocity P-wave (km/s) = 6.68182 6.89653 6.79002
#
# Compressibility (1/GPa) = 0.02147246
#
# Stress axis : x y z
#
# Youngs Moduli (GPa) = 40.24321 40.24321 41.01423
#
# Poissons Ratio (x) = 0.56133 0.25337
# Poissons Ratio (y) = 0.56133 0.25337
# Poissons Ratio (z) = 0.24860 0.24860
#
# Static dielectric constant tensor:
#      x y z
#    x 2.737670 0.000000 0.000000 
#    y 0.000000 2.737670 0.000000 
#    z 0.000000 0.000000 3.077950 
# 
# 
# High freq. dielectric constant tensor:
#      x y z
#    x 1.569790 0.000000 0.000000 
#    y 0.000000 1.569790 0.000000 
#    z 0.000000 0.000000 1.586370 
# 
# From -- ./inp_files/10290.got.cif
#   From: 2010.03.12/outbox.cif.g09.slc.cpg/sg139_6_cif.got.tgz:10290.got - 2010.04.08 09:46:31.
