data_PCOD8319353
_publ_section_title
;
Structure prediction by ZEFSAII (Michael W. Deem and Ramdas Pophale) SiO2 
 PCOD8319353
Probable space group: I 4/M M M
;
_chemical_formula_sum "Si O2"
_cell_formula_units_Z 144
_cell_length_a 19.623454
_cell_length_b 19.623454
_cell_length_c 22.773314
_cell_angle_alpha 90.000000
_cell_angle_beta 90.000000
_cell_angle_gamma 90.000000
_cell_volume 8769.546546
_symmetry_space_group_name_H-M "I 4/M M M"
_symmetry_group_IT_number 139
_symmetry_cell_setting 'tetragonal'
loop_
_space_group_symop_operation_xyz
x,y,z
-y,x,z
-x,-y,z
y,-x,z
x,-y,-z
-x,y,-z
y,x,-z
-y,-x,-z
-x,-y,-z
y,-x,-z
x,y,-z
-y,x,-z
-x,y,z
x,-y,z
-y,-x,z
y,x,z
1/2+x,1/2+y,1/2+z
1/2-y,1/2+x,1/2+z
1/2-x,1/2-y,1/2+z
1/2+y,1/2-x,1/2+z
1/2+x,1/2-y,1/2-z
1/2-x,1/2+y,1/2-z
1/2+y,1/2+x,1/2-z
1/2-y,1/2-x,1/2-z
1/2-x,1/2-y,1/2-z
1/2+y,1/2-x,1/2-z
1/2+x,1/2+y,1/2-z
1/2-y,1/2+x,1/2-z
1/2-x,1/2+y,1/2+z
1/2+x,1/2-y,1/2+z
1/2-y,1/2-x,1/2+z
1/2+y,1/2+x,1/2+z
loop_
_atom_site_type_symbol
_atom_site_label
_atom_site_fract_x
_atom_site_fract_y
_atom_site_fract_z
Si Si1 0.578571 0.862135 0.693705
Si Si2 0.286417 0.000000 0.567338
Si Si3 0.425217 0.000000 0.380138
Si Si4 0.853388 0.257078 0.108773
Si Si5 0.921482 0.190308 0.000000
Si Si6 0.257407 0.360214 0.931228
O O1 0.500000 0.849236 0.711737
O O2 0.626695 0.873306 0.750000
O O3 0.583821 0.931620 0.657211
O O4 0.605499 0.794098 0.660966
O O5 0.254651 0.933530 0.599195
O O6 0.265454 0.000000 0.500000
O O7 0.368244 0.000000 0.569831
O O8 0.500000 0.000000 0.409876
O O9 0.806547 0.193454 0.131723
O O10 0.807001 0.312923 0.077994
O O11 0.905741 0.232887 0.058842
O O12 0.878981 0.121020 0.000000
O O13 0.000000 0.170111 0.000000
O O14 0.325148 0.325148 0.903980
O O15 0.267034 0.370195 0.000000
#
# Coordination Sequence:
#
# PCOD8319353 Si02
#       6
#    32  16  16  32  16  32
#     4  11  21  34  50  67  94 133 170 202 243 291
#     4  10  18  29  46  69  94 120 156 198 242 299
#     4  10  20  31  44  66  95 126 160 198 239 291
#     4  10  19  32  51  74 100 128 161 204 250 295
#     4  10  20  35  54  77 105 135 166 202 248 298
#     4   9  16  28  45  65  92 123 152 186 235 291
#
# _framework density 16.420461
#
# number of rings (size 3 to 8) (size 9 to 14) (size 15 to 20)
#    0.000    2.000    4.444    0.667    0.000    0.778 
#    0.000    0.000    0.000    0.333    0.000    2.333 
#    0.000    0.000    0.000    0.000    0.000    0.000 
#
# Total GULP energy -892107.641529 kJ/mol
# GULP energy per Si atom -12390.383910 kJ/mol
# Density = 1.638309 g / cm^3
# Si number density = 16.420461 Si / 1000 Ang^3
#
#
#
# Elastic Constant Matrix: (Units=GPa)
#
#
# Indices 1 2 3 4 5 6 
#
# 1 111.8973 61.1507 35.7428 0.0000 0.0000 0.0000
# 2 61.1507 111.8961 35.7427 0.0000 0.0000 0.0000
# 3 35.7428 35.7427 56.6330 0.0000 0.0000 0.0000
# 4 0.0000 0.0000 0.0000 18.3745 0.0000 0.0000
# 5 0.0000 0.0000 0.0000 0.0000 18.3742 0.0000
# 6 0.0000 0.0000 0.0000 0.0000 0.0000 25.3468
#
#
#
# Elastic Compliance Matrix: (Units=1/GPa)
#
#
# Indices 1 2 3 4 5 6 
#
# 1 0.013761 -0.005945 -0.004933 0.000000 0.000000 0.000000
# 2 -0.005945 0.013761 -0.004933 0.000000 0.000000 0.000000
# 3 -0.004933 -0.004933 0.023885 0.000000 0.000000 0.000000
# 4 0.000000 0.000000 0.000000 0.054423 0.000000 0.000000
# 5 0.000000 0.000000 0.000000 0.000000 0.054424 0.000000
# 6 0.000000 0.000000 0.000000 0.000000 0.000000 0.039453
#
#
# Mechanical properties :
#
#
# Convention : Reuss Voigt Hill
#
# Bulk Modulus (GPa) = 50.54406 60.63321 55.58864
# Shear Modulus (GPa) = 21.01501 22.27178 21.64339
#
# Velocity S-wave (km/s) = 3.58132 3.68685 3.63447
# Velocity P-wave (km/s) = 6.92453 7.42492 7.17908
#
# Compressibility (1/GPa) = 0.01978472
#
# Stress axis : x y z
#
# Youngs Moduli (GPa) = 72.66770 72.66675 41.86777
#
# Poissons Ratio (x) = 0.43198 0.20655
# Poissons Ratio (y) = 0.43198 0.20655
# Poissons Ratio (z) = 0.35849 0.35849
#
# Static dielectric constant tensor:
#      x y z
#    x 3.443400 0.000000 0.000000 
#    y 0.000000 3.443400 0.000000 
#    z 0.000000 0.000000 2.801350 
# 
# 
# High freq. dielectric constant tensor:
#      x y z
#    x 1.633630 0.000000 0.000000 
#    y 0.000000 1.633630 0.000000 
#    z 0.000000 0.000000 1.597100 
# 
# From -- ./inp_files/8315.got.cif
#   From: 2010.03.12/outbox.cif.g09.slc.cpg/sg139_5_cif.got.tgz:8315.got - 2010.04.08 09:46:31.
