data_PCOD8319561
_publ_section_title
;
Structure prediction by ZEFSAII (Michael W. Deem and Ramdas Pophale) SiO2 
 PCOD8319561
Probable space group: I 4/M M M
;
_chemical_formula_sum "Si O2"
_cell_formula_units_Z 240
_cell_length_a 21.507092
_cell_length_b 21.507092
_cell_length_c 30.555124
_cell_angle_alpha 90.000000
_cell_angle_beta 90.000000
_cell_angle_gamma 90.000000
_cell_volume 14133.425574
_symmetry_space_group_name_H-M "I 4/M M M"
_symmetry_group_IT_number 139
_symmetry_cell_setting 'tetragonal'
loop_
_space_group_symop_operation_xyz
x,y,z
-y,x,z
-x,-y,z
y,-x,z
x,-y,-z
-x,y,-z
y,x,-z
-y,-x,-z
-x,-y,-z
y,-x,-z
x,y,-z
-y,x,-z
-x,y,z
x,-y,z
-y,-x,z
y,x,z
1/2+x,1/2+y,1/2+z
1/2-y,1/2+x,1/2+z
1/2-x,1/2-y,1/2+z
1/2+y,1/2-x,1/2+z
1/2+x,1/2-y,1/2-z
1/2-x,1/2+y,1/2-z
1/2+y,1/2+x,1/2-z
1/2-y,1/2-x,1/2-z
1/2-x,1/2-y,1/2-z
1/2+y,1/2-x,1/2-z
1/2+x,1/2+y,1/2-z
1/2-y,1/2+x,1/2-z
1/2-x,1/2+y,1/2+z
1/2+x,1/2-y,1/2+z
1/2-y,1/2-x,1/2+z
1/2+y,1/2+x,1/2+z
loop_
_atom_site_type_symbol
_atom_site_label
_atom_site_fract_x
_atom_site_fract_y
_atom_site_fract_z
Si Si1 0.571616 0.931861 0.616910
Si Si2 0.678836 0.780862 0.398885
Si Si3 0.929505 0.714241 0.265862
Si Si4 0.336707 0.127366 0.183403
Si Si5 0.721861 0.618692 0.087125
Si Si6 0.674142 0.430301 0.000000
Si Si7 0.670581 0.071630 0.050603
Si Si8 0.430432 0.673677 0.825730
O O1 0.500000 0.945788 0.620815
O O2 0.588070 0.886673 0.656567
O O3 0.586936 0.896728 0.571550
O O4 0.605780 0.000000 0.618277
O O5 0.718981 0.718981 0.406670
O O6 0.663187 0.787902 0.347667
O O7 0.714291 0.843150 0.414326
O O8 0.615660 0.776824 0.427448
O O9 0.916908 0.705554 0.214091
O O10 0.876882 0.675715 0.289779
O O11 0.921577 0.785316 0.281812
O O12 0.000000 0.691459 0.276257
O O13 0.664647 0.664647 0.088658
O O14 0.717883 0.578114 0.131500
O O15 0.717103 0.578250 0.042974
O O16 0.647277 0.500000 0.000000
O O17 0.615856 0.384144 0.000000
O O18 0.689840 0.000000 0.059177
O O19 0.665750 0.087304 0.000000
O O20 0.500000 0.646053 0.827357
O O21 0.383373 0.616627 0.824383
#
# Coordination Sequence:
#
# PCOD8319561 Si02
#       8
#    32  32  32  32  32  16  32  32
#     4   9  17  30  48  68  96 135 172 207 246 290
#     4  10  20  34  54  76 100 135 174 211 256 308
#     4  10  20  32  49  72  99 131 164 205 255 305
#     4  10  19  32  49  71  99 128 167 210 251 300
#     4   9  18  33  50  72 101 130 167 212 256 297
#     4  10  20  33  50  72 101 137 175 219 264 308
#     4   9  19  34  51  74 105 137 171 214 260 301
#     4  10  20  35  53  73 100 132 167 211 260 307
#
# _framework density 16.981020999999998
#
# number of rings (size 3 to 8) (size 9 to 14) (size 15 to 20)
#    0.000    2.400    1.333    1.200    0.933    1.800 
#    0.000    3.333    0.000    5.600    0.000    0.000 
#    0.000    0.267    0.000    1.467    0.000    0.267 
#
# Total GULP energy -1487286.405970 kJ/mol
# GULP energy per Si atom -12394.053383 kJ/mol
# Density = 1.694237 g / cm^3
# Si number density = 16.981021 Si / 1000 Ang^3
#
#
#
# Elastic Constant Matrix: (Units=GPa)
#
#
# Indices 1 2 3 4 5 6 
#
# 1 80.9908 42.1621 50.2265 0.0000 0.0000 0.0000
# 2 42.1621 80.9909 50.2266 0.0000 0.0000 0.0000
# 3 50.2265 50.2266 119.7628 0.0000 0.0000 0.0000
# 4 0.0000 0.0000 0.0000 21.7142 0.0000 0.0000
# 5 0.0000 0.0000 0.0000 0.0000 21.7143 0.0000
# 6 0.0000 0.0000 0.0000 0.0000 0.0000 21.6958
#
#
#
# Elastic Compliance Matrix: (Units=1/GPa)
#
#
# Indices 1 2 3 4 5 6 
#
# 1 0.019048 -0.006706 -0.005176 0.000000 0.000000 0.000000
# 2 -0.006706 0.019048 -0.005176 0.000000 0.000000 0.000000
# 3 -0.005176 -0.005176 0.012691 0.000000 0.000000 0.000000
# 4 0.000000 0.000000 0.000000 0.046053 0.000000 0.000000
# 5 0.000000 0.000000 0.000000 0.000000 0.046053 0.000000
# 6 0.000000 0.000000 0.000000 0.000000 0.000000 0.046092
#
#
# Mechanical properties :
#
#
# Convention : Reuss Voigt Hill
#
# Bulk Modulus (GPa) = 59.98388 62.99724 61.49056
# Shear Modulus (GPa) = 21.86673 22.30015 22.08344
#
# Velocity S-wave (km/s) = 3.59237 3.62780 3.61013
# Velocity P-wave (km/s) = 7.25311 7.39777 7.32580
#
# Compressibility (1/GPa) = 0.01667115
#
# Stress axis : x y z
#
# Youngs Moduli (GPa) = 52.49888 52.49888 78.79412
#
# Poissons Ratio (x) = 0.35206 0.40784
# Poissons Ratio (y) = 0.35206 0.40784
# Poissons Ratio (z) = 0.27173 0.27174
#
# Static dielectric constant tensor:
#      x y z
#    x 3.120060 0.000000 0.000000 
#    y 0.000000 3.120060 0.000000 
#    z 0.000000 0.000000 3.486990 
# 
# 
# High freq. dielectric constant tensor:
#      x y z
#    x 1.641280 0.000000 0.000000 
#    y 0.000000 1.641280 0.000000 
#    z 0.000000 0.000000 1.661800 
# 
# From -- ./inp_files/14673.got.cif
#   From: 2010.03.12/outbox.cif.g09.slc.cpg/sg139_8_cif.got.tgz:14673.got - 2010.04.08 09:46:31.
