data_PCOD8319653
_publ_section_title
;
Structure prediction by ZEFSAII (Michael W. Deem and Ramdas Pophale) SiO2 
 PCOD8319653
Probable space group: I 4/M M M
;
_chemical_formula_sum "Si O2"
_cell_formula_units_Z 240
_cell_length_a 20.562452
_cell_length_b 20.562452
_cell_length_c 30.964933
_cell_angle_alpha 90.000000
_cell_angle_beta 90.000000
_cell_angle_gamma 90.000000
_cell_volume 13092.420566
_symmetry_space_group_name_H-M "I 4/M M M"
_symmetry_group_IT_number 139
_symmetry_cell_setting 'tetragonal'
loop_
_space_group_symop_operation_xyz
x,y,z
-y,x,z
-x,-y,z
y,-x,z
x,-y,-z
-x,y,-z
y,x,-z
-y,-x,-z
-x,-y,-z
y,-x,-z
x,y,-z
-y,x,-z
-x,y,z
x,-y,z
-y,-x,z
y,x,z
1/2+x,1/2+y,1/2+z
1/2-y,1/2+x,1/2+z
1/2-x,1/2-y,1/2+z
1/2+y,1/2-x,1/2+z
1/2+x,1/2-y,1/2-z
1/2-x,1/2+y,1/2-z
1/2+y,1/2+x,1/2-z
1/2-y,1/2-x,1/2-z
1/2-x,1/2-y,1/2-z
1/2+y,1/2-x,1/2-z
1/2+x,1/2+y,1/2-z
1/2-y,1/2+x,1/2-z
1/2-x,1/2+y,1/2+z
1/2+x,1/2-y,1/2+z
1/2-y,1/2-x,1/2+z
1/2+y,1/2+x,1/2+z
loop_
_atom_site_type_symbol
_atom_site_label
_atom_site_fract_x
_atom_site_fract_y
_atom_site_fract_z
Si Si1 0.925895 0.751366 0.327089
Si Si2 0.071366 0.710064 0.829179
Si Si3 0.259245 0.365750 0.920000
Si Si4 0.575091 0.318730 0.740217
Si Si5 0.106103 0.425230 0.798677
Si Si6 0.928980 0.171974 0.050255
Si Si7 0.267077 0.840870 0.091429
Si Si8 0.682784 0.426788 0.000000
O O1 0.887951 0.768064 0.370731
O O2 0.909767 0.804437 0.290486
O O3 0.909953 0.681689 0.306302
O O4 0.000000 0.754396 0.341134
O O5 0.087052 0.751464 0.785932
O O6 0.068357 0.631748 0.823696
O O7 0.126576 0.728787 0.862299
O O8 0.000000 0.730404 0.846386
O O9 0.309973 0.309973 0.930440
O O10 0.186018 0.336734 0.924928
O O11 0.271932 0.419116 0.957128
O O12 0.500000 0.341503 0.734447
O O13 0.623365 0.376636 0.724688
O O14 0.088985 0.500000 0.813381
O O15 0.083899 0.416102 0.750000
O O16 0.885958 0.114043 0.071340
O O17 0.893611 0.240865 0.057314
O O18 0.000000 0.171335 0.072294
O O19 0.935957 0.159982 0.000000
O O20 0.219331 0.780670 0.096848
O O21 0.655556 0.500000 0.000000
O O22 0.620752 0.379249 0.000000
#
# Coordination Sequence:
#
# PCOD8319653 Si02
#       8
#    32  32  32  32  32  32  32  16
#     4  10  19  34  54  76 106 139 174 218 269 322
#     4  11  21  35  52  75 107 143 184 223 267 319
#     4  10  20  34  55  81 108 137 173 218 266 318
#     4  10  21  36  55  78 107 144 183 227 274 322
#     4  11  21  35  52  74 105 140 178 222 270 322
#     4   9  18  32  51  75 103 137 176 221 275 331
#     4  10  20  33  51  76 107 139 176 222 271 320
#     4  10  22  39  60  86 113 143 176 214 264 320
#
# _framework density 18.331216000000001
#
# number of rings (size 3 to 8) (size 9 to 14) (size 15 to 20)
#    0.000    1.867    2.667    2.000    0.933    1.267 
#    0.000    1.333    0.000    0.000    0.000    3.733 
#    0.000    1.067    0.000    0.000    0.000    0.000 
#
# Total GULP energy -1486874.534557 kJ/mol
# GULP energy per Si atom -12390.621121 kJ/mol
# Density = 1.828949 g / cm^3
# Si number density = 18.331216 Si / 1000 Ang^3
#
#
#
# Elastic Constant Matrix: (Units=GPa)
#
#
# Indices 1 2 3 4 5 6 
#
# 1 93.5371 39.8606 29.3732 0.0000 0.0000 0.0000
# 2 39.8606 93.5372 29.3729 0.0000 0.0000 0.0000
# 3 29.3732 29.3729 65.3208 0.0000 0.0000 0.0000
# 4 0.0000 0.0000 0.0000 23.7665 0.0000 0.0000
# 5 0.0000 0.0000 0.0000 0.0000 23.7651 0.0000
# 6 0.0000 0.0000 0.0000 0.0000 0.0000 18.4771
#
#
#
# Elastic Compliance Matrix: (Units=1/GPa)
#
#
# Indices 1 2 3 4 5 6 
#
# 1 0.013989 -0.004641 -0.004203 0.000000 0.000000 0.000000
# 2 -0.004641 0.013989 -0.004203 0.000000 0.000000 0.000000
# 3 -0.004203 -0.004203 0.019089 0.000000 0.000000 0.000000
# 4 0.000000 0.000000 0.000000 0.042076 0.000000 0.000000
# 5 0.000000 0.000000 0.000000 0.000000 0.042078 0.000000
# 6 0.000000 0.000000 0.000000 0.000000 0.000000 0.054121
#
#
# Mechanical properties :
#
#
# Convention : Reuss Voigt Hill
#
# Bulk Modulus (GPa) = 47.68497 49.95650 48.82073
# Shear Modulus (GPa) = 22.89079 23.45431 23.17255
#
# Velocity S-wave (km/s) = 3.53757 3.58085 3.55928
# Velocity P-wave (km/s) = 6.53876 6.66393 6.60164
#
# Compressibility (1/GPa) = 0.02097097
#
# Stress axis : x y z
#
# Youngs Moduli (GPa) = 71.48576 71.48602 52.38539
#
# Poissons Ratio (x) = 0.33179 0.22019
# Poissons Ratio (y) = 0.33179 0.22019
# Poissons Ratio (z) = 0.30048 0.30047
#
# Static dielectric constant tensor:
#      x y z
#    x 3.179610 0.000000 0.000000 
#    y 0.000000 3.179250 0.000000 
#    z 0.000000 0.000000 3.274440 
# 
# 
# High freq. dielectric constant tensor:
#      x y z
#    x 1.709440 0.000000 0.000000 
#    y 0.000000 1.709440 0.000000 
#    z 0.000000 0.000000 1.697970 
# 
# From -- ./inp_files/14680.got.cif
#   From: 2010.03.12/outbox.cif.g09.slc.cpg/sg139_8_cif.got.tgz:14680.got - 2010.04.08 09:46:31.
