data_PCOD8319632
_publ_section_title
;
Structure prediction by ZEFSAII (Michael W. Deem and Ramdas Pophale) SiO2 
 PCOD8319632
Probable space group: I 4/M M M
;
_chemical_formula_sum "Si O2"
_cell_formula_units_Z 240
_cell_length_a 20.239406
_cell_length_b 20.239406
_cell_length_c 27.684030
_cell_angle_alpha 90.000000
_cell_angle_beta 90.000000
_cell_angle_gamma 90.000000
_cell_volume 11340.307632
_symmetry_space_group_name_H-M "I 4/M M M"
_symmetry_group_IT_number 139
_symmetry_cell_setting 'tetragonal'
loop_
_space_group_symop_operation_xyz
x,y,z
-y,x,z
-x,-y,z
y,-x,z
x,-y,-z
-x,y,-z
y,x,-z
-y,-x,-z
-x,-y,-z
y,-x,-z
x,y,-z
-y,x,-z
-x,y,z
x,-y,z
-y,-x,z
y,x,z
1/2+x,1/2+y,1/2+z
1/2-y,1/2+x,1/2+z
1/2-x,1/2-y,1/2+z
1/2+y,1/2-x,1/2+z
1/2+x,1/2-y,1/2-z
1/2-x,1/2+y,1/2-z
1/2+y,1/2+x,1/2-z
1/2-y,1/2-x,1/2-z
1/2-x,1/2-y,1/2-z
1/2+y,1/2-x,1/2-z
1/2+x,1/2+y,1/2-z
1/2-y,1/2+x,1/2-z
1/2-x,1/2+y,1/2+z
1/2+x,1/2-y,1/2+z
1/2-y,1/2-x,1/2+z
1/2+y,1/2+x,1/2+z
loop_
_atom_site_type_symbol
_atom_site_label
_atom_site_fract_x
_atom_site_fract_y
_atom_site_fract_z
Si Si1 0.875251 0.424763 0.701775
Si Si2 0.803730 0.423328 0.552798
Si Si3 0.183461 0.923086 0.880986
Si Si4 0.676854 0.574382 0.801701
Si Si5 0.076873 0.627923 0.606614
Si Si6 0.728935 0.623379 0.899258
Si Si7 0.365795 0.738114 0.712159
Si Si8 0.180979 0.924741 0.500000
O O1 0.848167 0.500000 0.697426
O O2 0.917839 0.417839 0.750000
O O3 0.924185 0.409229 0.657743
O O4 0.815421 0.371801 0.700415
O O5 0.794198 0.389639 0.500000
O O6 0.790861 0.500000 0.548015
O O7 0.748409 0.396459 0.590068
O O8 0.880035 0.413950 0.568882
O O9 0.120148 0.879853 0.897586
O O10 0.197267 0.912735 0.824185
O O11 0.168017 0.000000 0.891056
O O12 0.674125 0.500000 0.785134
O O13 0.605157 0.605157 0.792026
O O14 0.693789 0.579752 0.858266
O O15 0.730007 0.610670 0.767579
O O16 0.120109 0.694263 0.612330
O O17 0.000000 0.638082 0.590035
O O18 0.697812 0.697812 0.898262
O O19 0.721989 0.592523 0.952294
O O20 0.290296 0.709705 0.707012
O O21 0.111668 0.888333 0.500000
O O22 0.161839 0.000000 0.500000
#
# Coordination Sequence:
#
# PCOD8319632 Si02
#       8
#    32  32  32  32  32  32  32  16
#     4  12  25  41  63  91 128 168 207 253 310 375
#     4  10  23  43  64  88 120 161 209 259 315 378
#     4  10  20  38  64  95 131 171 215 263 317 378
#     4  10  19  33  54  81 115 154 196 242 293 351
#     4  12  25  40  64  93 121 159 206 258 312 373
#     4  10  23  41  60  85 118 155 197 249 308 370
#     4  10  21  38  63  90 120 164 210 254 307 369
#     4  10  20  37  60  84 117 157 195 245 302 360
#
# _framework density 21.163447000000001
#
# number of rings (size 3 to 8) (size 9 to 14) (size 15 to 20)
#    0.000    1.467    1.333    4.000    0.933    3.933 
#    0.000    0.667    0.000    4.800    0.000    1.867 
#    0.000    0.000    0.000    0.000    0.000    0.000 
#
# Total GULP energy -1487461.075825 kJ/mol
# GULP energy per Si atom -12395.508965 kJ/mol
# Density = 2.111528 g / cm^3
# Si number density = 21.163447 Si / 1000 Ang^3
#
#
#
# Elastic Constant Matrix: (Units=GPa)
#
#
# Indices 1 2 3 4 5 6 
#
# 1 90.6024 33.1760 30.7582 0.0000 0.0000 0.0000
# 2 33.1760 90.6023 30.7583 0.0000 0.0000 0.0000
# 3 30.7582 30.7583 125.9923 0.0000 0.0000 0.0000
# 4 0.0000 0.0000 0.0000 17.5388 0.0000 0.0000
# 5 0.0000 0.0000 0.0000 0.0000 17.5384 0.0000
# 6 0.0000 0.0000 0.0000 0.0000 0.0000 24.8517
#
#
#
# Elastic Compliance Matrix: (Units=1/GPa)
#
#
# Indices 1 2 3 4 5 6 
#
# 1 0.013304 -0.004110 -0.002245 0.000000 0.000000 0.000000
# 2 -0.004110 0.013304 -0.002245 0.000000 0.000000 0.000000
# 3 -0.002245 -0.002245 0.009033 0.000000 0.000000 0.000000
# 4 0.000000 0.000000 0.000000 0.057016 0.000000 0.000000
# 5 0.000000 0.000000 0.000000 0.000000 0.057018 0.000000
# 6 0.000000 0.000000 0.000000 0.000000 0.000000 0.040239
#
#
# Mechanical properties :
#
#
# Convention : Reuss Voigt Hill
#
# Bulk Modulus (GPa) = 54.21986 55.17580 54.69783
# Shear Modulus (GPa) = 23.44560 26.15273 24.79916
#
# Velocity S-wave (km/s) = 3.33203 3.51914 3.42686
# Velocity P-wave (km/s) = 6.36226 6.52995 6.44665
#
# Compressibility (1/GPa) = 0.01844342
#
# Stress axis : x y z
#
# Youngs Moduli (GPa) = 75.16499 75.16492 110.70571
#
# Poissons Ratio (x) = 0.30889 0.24849
# Poissons Ratio (y) = 0.30889 0.24850
# Poissons Ratio (z) = 0.16872 0.16872
#
# Static dielectric constant tensor:
#      x y z
#    x 3.696650 0.000000 0.000000 
#    y 0.000000 3.696650 0.000000 
#    z 0.000000 0.000000 4.253640 
# 
# 
# High freq. dielectric constant tensor:
#      x y z
#    x 1.820330 0.000000 0.000000 
#    y 0.000000 1.820330 0.000000 
#    z 0.000000 0.000000 1.842610 
# 
# From -- ./inp_files/13389.got.cif
#   From: 2010.03.12/outbox.cif.g09.slc.cpg/sg139_7_cif.got.tgz:13389.got - 2010.04.08 09:46:31.
