data_PCOD8319605
_publ_section_title
;
Structure prediction by ZEFSAII (Michael W. Deem and Ramdas Pophale) SiO2 
 PCOD8319605
Probable space group: I 4/M M M
;
_chemical_formula_sum "Si O2"
_cell_formula_units_Z 128
_cell_length_a 19.634009
_cell_length_b 19.634009
_cell_length_c 20.718016
_cell_angle_alpha 90.000000
_cell_angle_beta 90.000000
_cell_angle_gamma 90.000000
_cell_volume 7986.677270
_symmetry_space_group_name_H-M "I 4/M M M"
_symmetry_group_IT_number 139
_symmetry_cell_setting 'tetragonal'
loop_
_space_group_symop_operation_xyz
x,y,z
-y,x,z
-x,-y,z
y,-x,z
x,-y,-z
-x,y,-z
y,x,-z
-y,-x,-z
-x,-y,-z
y,-x,-z
x,y,-z
-y,x,-z
-x,y,z
x,-y,z
-y,-x,z
y,x,z
1/2+x,1/2+y,1/2+z
1/2-y,1/2+x,1/2+z
1/2-x,1/2-y,1/2+z
1/2+y,1/2-x,1/2+z
1/2+x,1/2-y,1/2-z
1/2-x,1/2+y,1/2-z
1/2+y,1/2+x,1/2-z
1/2-y,1/2-x,1/2-z
1/2-x,1/2-y,1/2-z
1/2+y,1/2-x,1/2-z
1/2+x,1/2+y,1/2-z
1/2-y,1/2+x,1/2-z
1/2-x,1/2+y,1/2+z
1/2+x,1/2-y,1/2+z
1/2-y,1/2-x,1/2+z
1/2+y,1/2+x,1/2+z
loop_
_atom_site_type_symbol
_atom_site_label
_atom_site_fract_x
_atom_site_fract_y
_atom_site_fract_z
Si Si1 0.579072 0.171778 0.928317
Si Si2 0.579098 0.310872 0.135905
Si Si3 0.134805 0.422422 0.683123
Si Si4 0.641632 0.745323 0.265983
O O1 0.500000 0.155537 0.923344
O O2 0.592485 0.251656 0.916049
O O3 0.614212 0.124589 0.875985
O O4 0.606853 0.154686 0.000000
O O5 0.500000 0.332304 0.138535
O O6 0.622931 0.377069 0.116265
O O7 0.602175 0.281356 0.204075
O O8 0.116919 0.500000 0.666539
O O9 0.097515 0.402486 0.750000
O O10 0.217197 0.413717 0.689029
O O11 0.681382 0.681382 0.299161
O O12 0.697181 0.802820 0.250000
#
# Coordination Sequence:
#
# PCOD8319605 Si02
#       4
#    32  32  32  32
#     4  10  21  35  48  66  97 134 167 201 248 300
#     4  10  19  33  52  74 101 132 167 208 251 296
#     4  11  20  31  50  74  98 125 165 210 251 294
#     4   9  16  28  49  73  96 123 159 203 247 290
#
# _framework density 16.026691
#
# number of rings (size 3 to 8) (size 9 to 14) (size 15 to 20)
#    0.000    2.000    5.000    1.500    0.000    3.000 
#    0.000    1.250    0.000    0.000    0.000    3.500 
#    0.000    0.000    0.000    0.000    0.000    0.000 
#
# Total GULP energy -792968.284163 kJ/mol
# GULP energy per Si atom -12390.129440 kJ/mol
# Density = 1.599021 g / cm^3
# Si number density = 16.026691 Si / 1000 Ang^3
#
#
#
# Elastic Constant Matrix: (Units=GPa)
#
#
# Indices 1 2 3 4 5 6 
#
# 1 66.9540 33.0386 32.4769 0.0000 0.0000 0.0000
# 2 33.0386 66.9525 32.4761 0.0000 0.0000 0.0000
# 3 32.4769 32.4761 88.6568 0.0000 0.0000 0.0000
# 4 0.0000 0.0000 0.0000 16.8651 0.0000 0.0000
# 5 0.0000 0.0000 0.0000 0.0000 16.8643 0.0000
# 6 0.0000 0.0000 0.0000 0.0000 0.0000 16.6295
#
#
#
# Elastic Compliance Matrix: (Units=1/GPa)
#
#
# Indices 1 2 3 4 5 6 
#
# 1 0.021305 -0.008181 -0.004807 0.000000 0.000000 0.000000
# 2 -0.008181 0.021305 -0.004807 0.000000 0.000000 0.000000
# 3 -0.004807 -0.004807 0.014802 0.000000 0.000000 0.000000
# 4 0.000000 0.000000 0.000000 0.059294 0.000000 0.000000
# 5 0.000000 0.000000 0.000000 0.000000 0.059297 0.000000
# 6 0.000000 0.000000 0.000000 0.000000 0.000000 0.060134
#
#
# Mechanical properties :
#
#
# Convention : Reuss Voigt Hill
#
# Bulk Modulus (GPa) = 45.83131 46.50516 46.16824
# Shear Modulus (GPa) = 17.92110 18.37656 18.14883
#
# Velocity S-wave (km/s) = 3.34758 3.38985 3.36879
# Velocity P-wave (km/s) = 6.60308 6.66347 6.63334
#
# Compressibility (1/GPa) = 0.02181914
#
# Stress axis : x y z
#
# Youngs Moduli (GPa) = 46.93837 46.93761 67.56059
#
# Poissons Ratio (x) = 0.38400 0.32480
# Poissons Ratio (y) = 0.38401 0.32479
# Poissons Ratio (z) = 0.22566 0.22564
#
# Static dielectric constant tensor:
#      x y z
#    x 3.295940 0.000000 0.000000 
#    y 0.000000 3.295940 0.000000 
#    z 0.000000 0.000000 2.938580 
# 
# 
# High freq. dielectric constant tensor:
#      x y z
#    x 1.615140 0.000000 0.000000 
#    y 0.000000 1.615140 0.000000 
#    z 0.000000 0.000000 1.590550 
# 
# From -- ./inp_files/7955.got.cif
#   From: 2010.03.12/outbox.cif.g09.slc.cpg/sg139_4_cif.got.tgz:7955.got - 2010.04.08 09:46:31.
