data_PCOD8319325
_publ_section_title
;
Structure prediction by ZEFSAII (Michael W. Deem and Ramdas Pophale) SiO2 
 PCOD8319325
Probable space group: I 4/M M M
;
_chemical_formula_sum "Si O2"
_cell_formula_units_Z 112
_cell_length_a 26.263301
_cell_length_b 26.263301
_cell_length_c 9.292283
_cell_angle_alpha 90.000000
_cell_angle_beta 90.000000
_cell_angle_gamma 90.000000
_cell_volume 6409.454223
_symmetry_space_group_name_H-M "I 4/M M M"
_symmetry_group_IT_number 139
_symmetry_cell_setting 'tetragonal'
loop_
_space_group_symop_operation_xyz
x,y,z
-y,x,z
-x,-y,z
y,-x,z
x,-y,-z
-x,y,-z
y,x,-z
-y,-x,-z
-x,-y,-z
y,-x,-z
x,y,-z
-y,x,-z
-x,y,z
x,-y,z
-y,-x,z
y,x,z
1/2+x,1/2+y,1/2+z
1/2-y,1/2+x,1/2+z
1/2-x,1/2-y,1/2+z
1/2+y,1/2-x,1/2+z
1/2+x,1/2-y,1/2-z
1/2-x,1/2+y,1/2-z
1/2+y,1/2+x,1/2-z
1/2-y,1/2-x,1/2-z
1/2-x,1/2-y,1/2-z
1/2+y,1/2-x,1/2-z
1/2+x,1/2+y,1/2-z
1/2-y,1/2+x,1/2-z
1/2-x,1/2+y,1/2+z
1/2+x,1/2-y,1/2+z
1/2-y,1/2-x,1/2+z
1/2+y,1/2+x,1/2+z
loop_
_atom_site_type_symbol
_atom_site_label
_atom_site_fract_x
_atom_site_fract_y
_atom_site_fract_z
Si Si1 0.156125 0.593690 0.158802
Si Si2 0.711078 0.288923 0.827945
Si Si3 0.000000 0.346084 0.837928
Si Si4 0.224261 0.000000 0.161894
Si Si5 0.725994 0.404129 0.841226
O O1 0.145073 0.645073 0.250000
O O2 0.131872 0.548299 0.252346
O O3 0.215138 0.584127 0.141409
O O4 0.131189 0.596799 0.000000
O O5 0.750000 0.250000 0.750000
O O6 0.720876 0.347097 0.777897
O O7 0.717979 0.282022 0.000000
O O8 0.000000 0.284983 0.840650
O O9 0.000000 0.367410 0.000000
O O10 0.202869 0.051418 0.239814
O O11 0.202477 0.000000 0.000000
O O12 0.700109 0.407271 0.000000
#
# Coordination Sequence:
#
# PCOD8319325 Si02
#       5
#    32  16  16  16  32
#     4  10  18  28  43  62  83 109 141 178 218 261
#     4  10  20  32  46  68 100 137 168 195 234 288
#     4   9  17  29  43  60  80 103 136 180 223 263
#     4   9  17  29  47  67  86 113 154 199 237 269
#     4   9  18  31  46  65  92 124 157 191 229 272
#
# _framework density 17.474184999999999
#
# number of rings (size 3 to 8) (size 9 to 14) (size 15 to 20)
#    0.000    2.571    0.000    2.571    0.000    5.714 
#    0.000    0.000    0.000    0.429    0.000    3.000 
#    0.000    0.571    0.000    6.571    0.000    2.571 
#
# Total GULP energy -693839.460046 kJ/mol
# GULP energy per Si atom -12389.990358 kJ/mol
# Density = 1.743441 g / cm^3
# Si number density = 17.474185 Si / 1000 Ang^3
#
#
#
# Elastic Constant Matrix: (Units=GPa)
#
#
# Indices 1 2 3 4 5 6 
#
# 1 74.6216 19.5919 42.9537 0.0000 0.0000 0.0000
# 2 19.5919 74.6216 42.9537 0.0000 0.0000 0.0000
# 3 42.9537 42.9537 139.1042 0.0000 0.0000 0.0000
# 4 0.0000 0.0000 0.0000 22.1209 0.0000 0.0000
# 5 0.0000 0.0000 0.0000 0.0000 22.1209 0.0000
# 6 0.0000 0.0000 0.0000 0.0000 0.0000 10.7019
#
#
#
# Elastic Compliance Matrix: (Units=1/GPa)
#
#
# Indices 1 2 3 4 5 6 
#
# 1 0.016473 -0.001699 -0.004562 0.000000 0.000000 0.000000
# 2 -0.001699 0.016473 -0.004562 0.000000 0.000000 0.000000
# 3 -0.004562 -0.004562 0.010006 0.000000 0.000000 0.000000
# 4 0.000000 0.000000 0.000000 0.045206 0.000000 0.000000
# 5 0.000000 0.000000 0.000000 0.000000 0.045206 0.000000
# 6 0.000000 0.000000 0.000000 0.000000 0.000000 0.093442
#
#
# Mechanical properties :
#
#
# Convention : Reuss Voigt Hill
#
# Bulk Modulus (GPa) = 46.93481 55.48289 51.20885
# Shear Modulus (GPa) = 19.56531 23.17861 21.37196
#
# Velocity S-wave (km/s) = 3.34978 3.64600 3.50102
# Velocity P-wave (km/s) = 6.47141 7.03880 6.76106
#
# Compressibility (1/GPa) = 0.02130615
#
# Stress axis : x y z
#
# Youngs Moduli (GPa) = 60.70537 60.70535 99.93735
#
# Poissons Ratio (x) = 0.10314 0.45592
# Poissons Ratio (y) = 0.10314 0.45592
# Poissons Ratio (z) = 0.27694 0.27694
#
# Static dielectric constant tensor:
#      x y z
#    x 3.027960 0.000000 0.000000 
#    y 0.000000 3.027970 0.000000 
#    z 0.000000 0.000000 3.684220 
# 
# 
# High freq. dielectric constant tensor:
#      x y z
#    x 1.639300 0.000000 0.000000 
#    y 0.000000 1.639300 0.000000 
#    z 0.000000 0.000000 1.690750 
# 
# From -- ./inp_files/1524.got.cif
#   From: 2010.03.12/outbox.cif.g09.slc.cpg/sg139_1_cif.got.tgz:1524.got - 2010.04.08 09:46:31.
