data_PCOD8319089
_publ_section_title
;
Structure prediction by ZEFSAII (Michael W. Deem and Ramdas Pophale) SiO2 
 PCOD8319089
Probable space group: P 42/N C M
;
_chemical_formula_sum "Si O2"
_cell_formula_units_Z 80
_cell_length_a 11.044580
_cell_length_b 11.044580
_cell_length_c 31.051171
_cell_angle_alpha 90.000000
_cell_angle_beta 90.000000
_cell_angle_gamma 90.000000
_cell_volume 3787.707148
_symmetry_space_group_name_H-M "P 42/N C M"
_symmetry_group_IT_number 138
_space_group.IT_coordinate_system_code '2'
_symmetry_cell_setting 'tetragonal'
loop_
_space_group_symop_operation_xyz
x,y,z
1/2-y,x,1/2+z
1/2-x,1/2-y,z
y,1/2-x,1/2+z
1/2+x,-y,1/2-z
-x,1/2+y,1/2-z
1/2+y,1/2+x,-z
-y,-x,-z
-x,-y,-z
1/2+y,-x,1/2-z
1/2+x,1/2+y,-z
-y,1/2+x,1/2-z
1/2-x,y,1/2+z
x,1/2-y,1/2+z
1/2-y,1/2-x,z
y,x,z
loop_
_atom_site_type_symbol
_atom_site_label
_atom_site_fract_x
_atom_site_fract_y
_atom_site_fract_z
Si Si1 0.256145 0.437597 0.066630
Si Si2 0.438300 0.755496 0.014383
Si Si3 0.661273 0.140606 0.194068
Si Si4 0.622510 0.418605 0.598619
Si Si5 0.557032 0.749906 0.760686
O O1 0.160240 0.339761 0.082507
O O2 0.389712 0.389712 0.081986
O O3 0.214629 0.567032 0.086227
O O4 0.258845 0.440823 0.014024
O O5 0.455304 0.767065 0.066144
O O6 0.383643 0.883643 0.000000
O O7 0.354727 0.645274 0.000000
O O8 0.750000 0.250000 0.204891
O O9 0.677902 0.093305 0.145772
O O10 0.524600 0.189022 0.201900
O O11 0.696239 0.027298 0.223520
O O12 0.521803 0.521803 0.596504
O O13 0.645675 0.854326 0.741888
O O14 0.639487 0.639487 0.779487
#
# Coordination Sequence:
#
# PCOD8319089 Si02
#       5
#    16  16  16  16  16
#     4   9  18  33  53  78 110 149 194 241 290 347
#     4   9  18  32  54  76 106 149 191 241 284 348
#     4  12  24  40  66  96 127 167 206 262 315 379
#     4  10  21  36  58  85 118 155 201 250 305 363
#     4  11  23  43  69  94 126 165 207 258 318 387
#
# _framework density 21.120956
#
# number of rings (size 3 to 8) (size 9 to 14) (size 15 to 20)
#    0.000    1.800    2.000    2.400    5.600    3.600 
#    0.000    3.000    0.000    3.600    0.000    0.000 
#    0.000    0.000    0.000    0.000    0.000    0.000 
#
# Total GULP energy -991057.099514 kJ/mol
# GULP energy per Si atom -12388.213744 kJ/mol
# Density = 2.107288 g / cm^3
# Si number density = 21.120956 Si / 1000 Ang^3
#
#
#
# Elastic Constant Matrix: (Units=GPa)
#
#
# Indices 1 2 3 4 5 6 
#
# 1 67.9827 35.9111 8.9866 0.0000 0.0000 0.0000
# 2 35.9111 67.9840 8.9881 0.0000 0.0000 0.0000
# 3 8.9866 8.9881 96.7490 0.0000 0.0000 0.0000
# 4 0.0000 0.0000 0.0000 10.8658 0.0000 0.0000
# 5 0.0000 0.0000 0.0000 0.0000 10.8648 0.0000
# 6 0.0000 0.0000 0.0000 0.0000 0.0000 34.0240
#
#
#
# Elastic Compliance Matrix: (Units=1/GPa)
#
#
# Indices 1 2 3 4 5 6 
#
# 1 0.020481 -0.010699 -0.000908 0.000000 0.000000 0.000000
# 2 -0.010699 0.020481 -0.000909 0.000000 0.000000 0.000000
# 3 -0.000908 -0.000909 0.010505 0.000000 0.000000 0.000000
# 4 0.000000 0.000000 0.000000 0.092032 0.000000 0.000000
# 5 0.000000 0.000000 0.000000 0.000000 0.092040 0.000000
# 6 0.000000 0.000000 0.000000 0.000000 0.000000 0.029391
#
#
# Mechanical properties :
#
#
# Convention : Reuss Voigt Hill
#
# Bulk Modulus (GPa) = 37.82903 37.83191 37.83047
# Shear Modulus (GPa) = 16.73511 23.07293 19.90402
#
# Velocity S-wave (km/s) = 2.81792 3.30876 3.07316
# Velocity P-wave (km/s) = 5.34201 5.70510 5.52654
#
# Compressibility (1/GPa) = 0.02643473
#
# Stress axis : x y z
#
# Youngs Moduli (GPa) = 48.82550 48.82620 95.19409
#
# Poissons Ratio (x) = 0.52237 0.08648
# Poissons Ratio (y) = 0.52236 0.08653
# Poissons Ratio (z) = 0.04436 0.04438
#
# Static dielectric constant tensor:
#      x y z
#    x 3.928430 0.000000 0.000000 
#    y 0.000000 3.928430 0.000000 
#    z 0.000000 0.000000 3.833650 
# 
# 
# High freq. dielectric constant tensor:
#      x y z
#    x 1.822370 0.000000 0.000000 
#    y 0.000000 1.822370 0.000000 
#    z 0.000000 0.000000 1.811510 
# 
# From -- ./inp_files/7917.got.cif
#   From: 2010.03.12/outbox.cif.g09.slc.cpg/sg138_4_cif.got.tgz:7917.got - 2010.04.08 09:41:05.
