data_PCOD8319049
_publ_section_title
;
Structure prediction by ZEFSAII (Michael W. Deem and Ramdas Pophale) SiO2 
 PCOD8319049
Probable space group: P 42/N C M
;
_chemical_formula_sum "Si O2"
_cell_formula_units_Z 96
_cell_length_a 20.851852
_cell_length_b 20.851852
_cell_length_c 11.844916
_cell_angle_alpha 90.000000
_cell_angle_beta 90.000000
_cell_angle_gamma 90.000000
_cell_volume 5150.166300
_symmetry_space_group_name_H-M "P 42/N C M"
_symmetry_group_IT_number 138
_space_group.IT_coordinate_system_code '2'
_symmetry_cell_setting 'tetragonal'
loop_
_space_group_symop_operation_xyz
x,y,z
1/2-y,x,1/2+z
1/2-x,1/2-y,z
y,1/2-x,1/2+z
1/2+x,-y,1/2-z
-x,1/2+y,1/2-z
1/2+y,1/2+x,-z
-y,-x,-z
-x,-y,-z
1/2+y,-x,1/2-z
1/2+x,1/2+y,-z
-y,1/2+x,1/2-z
1/2-x,y,1/2+z
x,1/2-y,1/2+z
1/2-y,1/2-x,z
y,x,z
loop_
_atom_site_type_symbol
_atom_site_label
_atom_site_fract_x
_atom_site_fract_y
_atom_site_fract_z
Si Si1 0.167457 0.572710 0.060684
Si Si2 0.129183 0.474962 0.702543
Si Si3 0.264510 0.985688 0.859826
Si Si4 0.240841 0.645552 0.234432
Si Si5 0.426015 0.973323 0.241257
Si Si6 0.864066 0.534550 0.557019
O O1 0.223114 0.619016 0.110055
O O2 0.137189 0.533969 0.165702
O O3 0.113149 0.613149 0.000000
O O4 0.195630 0.520774 0.975211
O O5 0.092146 0.407855 0.720743
O O6 0.197510 0.474744 0.764169
O O7 0.091461 0.533174 0.760786
O O8 0.138807 0.489902 0.570991
O O9 0.246185 0.913492 0.821426
O O10 0.205434 0.032302 0.886341
O O11 0.183693 0.692354 0.276471
O O12 0.468099 0.031902 0.191581
O O13 0.408911 0.986563 0.371750
O O14 0.893268 0.606733 0.562967
#
# Coordination Sequence:
#
# PCOD8319049 Si02
#       6
#    16  16  16  16  16  16
#     4  12  22  37  55  84 119 155 196 239 290 346
#     4  10  21  39  62  88 117 153 192 241 299 351
#     4  12  23  38  62  85 120 155 193 243 297 348
#     4  11  23  39  53  77 116 163 208 234 271 334
#     4  10  20  37  61  88 118 150 194 248 303 349
#     4  10  22  39  61  85 115 155 203 246 287 347
#
# _framework density 18.640173000000001
#
# number of rings (size 3 to 8) (size 9 to 14) (size 15 to 20)
#    0.000    1.167    5.000    1.500    0.000    3.667 
#    3.000    0.000    0.000    0.500    0.000    2.333 
#    0.000    0.000    0.000    0.000    0.000    0.000 
#
# Total GULP energy -1190426.907691 kJ/mol
# GULP energy per Si atom -12400.280288 kJ/mol
# Density = 1.859775 g / cm^3
# Si number density = 18.640173 Si / 1000 Ang^3
#
#
#
# Elastic Constant Matrix: (Units=GPa)
#
#
# Indices 1 2 3 4 5 6 
#
# 1 86.0242 45.3901 39.6636 0.0000 0.0000 0.0000
# 2 45.3901 86.0242 39.6636 0.0000 0.0000 0.0000
# 3 39.6636 39.6636 103.8651 0.0000 0.0000 0.0000
# 4 0.0000 0.0000 0.0000 28.4911 0.0000 0.0000
# 5 0.0000 0.0000 0.0000 0.0000 28.4911 0.0000
# 6 0.0000 0.0000 0.0000 0.0000 0.0000 27.5774
#
#
#
# Elastic Compliance Matrix: (Units=1/GPa)
#
#
# Indices 1 2 3 4 5 6 
#
# 1 0.017250 -0.007360 -0.003776 0.000000 0.000000 0.000000
# 2 -0.007360 0.017250 -0.003776 0.000000 0.000000 0.000000
# 3 -0.003776 -0.003776 0.012512 0.000000 0.000000 0.000000
# 4 0.000000 0.000000 0.000000 0.035099 0.000000 0.000000
# 5 0.000000 0.000000 0.000000 0.000000 0.035099 0.000000
# 6 0.000000 0.000000 0.000000 0.000000 0.000000 0.036262
#
#
# Mechanical properties :
#
#
# Convention : Reuss Voigt Hill
#
# Bulk Modulus (GPa) = 58.19133 58.37202 58.28168
# Shear Modulus (GPa) = 26.45158 26.99168 26.72163
#
# Velocity S-wave (km/s) = 3.77113 3.80944 3.79033
# Velocity P-wave (km/s) = 7.08858 7.12266 7.10564
#
# Compressibility (1/GPa) = 0.01718469
#
# Stress axis : x y z
#
# Youngs Moduli (GPa) = 57.97268 57.97268 79.92240
#
# Poissons Ratio (x) = 0.42670 0.30182
# Poissons Ratio (y) = 0.42670 0.30182
# Poissons Ratio (z) = 0.21893 0.21893
#
# Static dielectric constant tensor:
#      x y z
#    x 3.401170 0.000000 0.000000 
#    y 0.000000 3.401170 0.000000 
#    z 0.000000 0.000000 3.545350 
# 
# 
# High freq. dielectric constant tensor:
#      x y z
#    x 1.709600 0.000000 0.000000 
#    y 0.000000 1.709600 0.000000 
#    z 0.000000 0.000000 1.735260 
# 
# From -- ./inp_files/3099.got.cif
#   From: 2010.03.12/outbox.cif.g09.slc.cpg/sg138_2_cif.got.tgz:3099.got - 2010.04.08 09:41:05.
