data_PCOD8319500
_publ_section_title
;
Structure prediction by ZEFSAII (Michael W. Deem and Ramdas Pophale) SiO2 
 PCOD8319500
Probable space group: I 4/M M M
;
_chemical_formula_sum "Si O2"
_cell_formula_units_Z 224
_cell_length_a 22.404928
_cell_length_b 22.404928
_cell_length_c 25.902121
_cell_angle_alpha 90.000000
_cell_angle_beta 90.000000
_cell_angle_gamma 90.000000
_cell_volume 13002.367387
_symmetry_space_group_name_H-M "I 4/M M M"
_symmetry_group_IT_number 139
_symmetry_cell_setting 'tetragonal'
loop_
_space_group_symop_operation_xyz
x,y,z
-y,x,z
-x,-y,z
y,-x,z
x,-y,-z
-x,y,-z
y,x,-z
-y,-x,-z
-x,-y,-z
y,-x,-z
x,y,-z
-y,x,-z
-x,y,z
x,-y,z
-y,-x,z
y,x,z
1/2+x,1/2+y,1/2+z
1/2-y,1/2+x,1/2+z
1/2-x,1/2-y,1/2+z
1/2+y,1/2-x,1/2+z
1/2+x,1/2-y,1/2-z
1/2-x,1/2+y,1/2-z
1/2+y,1/2+x,1/2-z
1/2-y,1/2-x,1/2-z
1/2-x,1/2-y,1/2-z
1/2+y,1/2-x,1/2-z
1/2+x,1/2+y,1/2-z
1/2-y,1/2+x,1/2-z
1/2-x,1/2+y,1/2+z
1/2+x,1/2-y,1/2+z
1/2-y,1/2-x,1/2+z
1/2+y,1/2+x,1/2+z
loop_
_atom_site_type_symbol
_atom_site_label
_atom_site_fract_x
_atom_site_fract_y
_atom_site_fract_z
Si Si1 0.830613 0.737649 0.559351
Si Si2 0.932794 0.372434 0.060097
Si Si3 0.430702 0.164462 0.769999
Si Si4 0.159907 0.933282 0.941440
Si Si5 0.233587 0.630759 0.606040
Si Si6 0.933941 0.674692 0.390640
Si Si7 0.658223 0.248205 0.275924
O O1 0.849701 0.735826 0.500000
O O2 0.801304 0.801304 0.573731
O O3 0.782113 0.685998 0.569130
O O4 0.889084 0.727653 0.593825
O O5 0.922064 0.313591 0.094841
O O6 0.885736 0.422723 0.076939
O O7 0.000000 0.395499 0.070289
O O8 0.923401 0.356693 0.000000
O O9 0.500000 0.158810 0.752012
O O10 0.391445 0.108556 0.750000
O O11 0.425735 0.160642 0.831075
O O12 0.404927 0.229361 0.750615
O O13 0.093311 0.906690 0.939268
O O14 0.200922 0.892964 0.905394
O O15 0.157470 0.000000 0.919338
O O16 0.184662 0.932590 0.000000
O O17 0.230942 0.653382 0.664331
O O18 0.000000 0.697585 0.403291
O O19 0.682550 0.317451 0.269404
O O20 0.707189 0.207189 0.250000
#
# Coordination Sequence:
#
# PCOD8319500 Si02
#       7
#    32  32  32  32  32  32  32
#     4  10  19  30  48  73  97 122 152 186 229 282
#     4  10  20  32  48  71  98 131 168 200 231 271
#     4  10  21  35  51  71  95 126 164 202 243 289
#     4  10  20  32  46  65  91 124 161 200 240 281
#     4  11  19  30  49  71  95 122 153 195 244 284
#     4  10  21  35  50  69  95 128 162 196 236 280
#     4  10  20  33  50  71  94 121 154 194 242 290
#
# _framework density 17.227632
#
# number of rings (size 3 to 8) (size 9 to 14) (size 15 to 20)
#    0.000    1.857    0.000    7.714    0.000    8.571 
#    0.000    2.857    0.000    0.000    0.000    0.000 
#    0.000    0.571    0.000    4.714    0.000    2.286 
#
# Total GULP energy -1388111.036623 kJ/mol
# GULP energy per Si atom -12393.848541 kJ/mol
# Density = 1.718842 g / cm^3
# Si number density = 17.227632 Si / 1000 Ang^3
#
#
#
# Elastic Constant Matrix: (Units=GPa)
#
#
# Indices 1 2 3 4 5 6 
#
# 1 92.0068 70.5920 39.8884 0.0000 0.0000 0.0000
# 2 70.5920 92.0071 39.8882 0.0000 0.0000 0.0000
# 3 39.8884 39.8882 79.0065 0.0000 0.0000 0.0000
# 4 0.0000 0.0000 0.0000 20.6210 0.0000 0.0000
# 5 0.0000 0.0000 0.0000 0.0000 20.6209 0.0000
# 6 0.0000 0.0000 0.0000 0.0000 0.0000 18.1945
#
#
#
# Elastic Compliance Matrix: (Units=1/GPa)
#
#
# Indices 1 2 3 4 5 6 
#
# 1 0.027436 -0.019261 -0.004128 0.000000 0.000000 0.000000
# 2 -0.019261 0.027436 -0.004127 0.000000 0.000000 0.000000
# 3 -0.004128 -0.004127 0.016825 0.000000 0.000000 0.000000
# 4 0.000000 0.000000 0.000000 0.048494 0.000000 0.000000
# 5 0.000000 0.000000 0.000000 0.000000 0.048494 0.000000
# 6 0.000000 0.000000 0.000000 0.000000 0.000000 0.054962
#
#
# Mechanical properties :
#
#
# Convention : Reuss Voigt Hill
#
# Bulk Modulus (GPa) = 60.00430 62.63971 61.32200
# Shear Modulus (GPa) = 17.59121 19.39739 18.49430
#
# Velocity S-wave (km/s) = 3.19894 3.35915 3.28002
# Velocity P-wave (km/s) = 6.96779 7.17525 7.07228
#
# Compressibility (1/GPa) = 0.01666547
#
# Stress axis : x y z
#
# Youngs Moduli (GPa) = 36.44863 36.44888 59.43590
#
# Poissons Ratio (x) = 0.70203 0.24532
# Poissons Ratio (y) = 0.70202 0.24531
# Poissons Ratio (z) = 0.15044 0.15044
#
# Static dielectric constant tensor:
#      x y z
#    x 3.321900 0.000000 0.000000 
#    y 0.000000 3.321900 0.000000 
#    z 0.000000 0.000000 3.385370 
# 
# 
# High freq. dielectric constant tensor:
#      x y z
#    x 1.649890 0.000000 0.000000 
#    y 0.000000 1.649890 0.000000 
#    z 0.000000 0.000000 1.671800 
# 
# From -- ./inp_files/12209.got.cif
#   From: 2010.03.12/outbox.cif.g09.slc.cpg/sg139_7_cif.got.tgz:12209.got - 2010.04.08 09:46:31.
