data_PCOD8319998
_publ_section_title
;
Structure prediction by ZEFSAII (Michael W. Deem and Ramdas Pophale) SiO2 
 PCOD8319998
Probable space group: I 4/M M M
;
_chemical_formula_sum "Si O2"
_cell_formula_units_Z 96
_cell_length_a 14.884447
_cell_length_b 14.884447
_cell_length_c 17.950470
_cell_angle_alpha 90.000000
_cell_angle_beta 90.000000
_cell_angle_gamma 90.000000
_cell_volume 3976.868514
_symmetry_space_group_name_H-M "I 4/M M M"
_symmetry_group_IT_number 139
_symmetry_cell_setting 'tetragonal'
loop_
_space_group_symop_operation_xyz
x,y,z
-y,x,z
-x,-y,z
y,-x,z
x,-y,-z
-x,y,-z
y,x,-z
-y,-x,-z
-x,-y,-z
y,-x,-z
x,y,-z
-y,x,-z
-x,y,z
x,-y,z
-y,-x,z
y,x,z
1/2+x,1/2+y,1/2+z
1/2-y,1/2+x,1/2+z
1/2-x,1/2-y,1/2+z
1/2+y,1/2-x,1/2+z
1/2+x,1/2-y,1/2-z
1/2-x,1/2+y,1/2-z
1/2+y,1/2+x,1/2-z
1/2-y,1/2-x,1/2-z
1/2-x,1/2-y,1/2-z
1/2+y,1/2-x,1/2-z
1/2+x,1/2+y,1/2-z
1/2-y,1/2+x,1/2-z
1/2-x,1/2+y,1/2+z
1/2+x,1/2-y,1/2+z
1/2-y,1/2-x,1/2+z
1/2+y,1/2+x,1/2+z
loop_
_atom_site_type_symbol
_atom_site_label
_atom_site_fract_x
_atom_site_fract_y
_atom_site_fract_z
Si Si1 0.355067 0.000000 0.124920
Si Si2 0.104276 0.104276 0.415467
Si Si3 0.142927 0.000000 0.087700
Si Si4 0.500000 0.233082 0.234888
Si Si5 0.177641 0.177641 0.272888
Si Si6 0.500000 0.859488 0.916546
O O1 0.359066 0.000000 0.216041
O O2 0.407853 0.085288 0.092597
O O3 0.249296 0.000000 0.107217
O O4 0.129022 0.129022 0.500000
O O5 0.166280 0.166280 0.362659
O O6 0.000000 0.123901 0.398732
O O7 0.089897 0.910104 0.116872
O O8 0.137874 0.000000 0.000000
O O9 0.583671 0.292514 0.261623
O O10 0.500000 0.216480 0.146406
O O11 0.250000 0.250000 0.250000
O O12 0.500000 0.816975 0.000000
#
# Coordination Sequence:
#
# PCOD8319998 Si02
#       6
#    16  16  16  16  16  16
#     4  11  22  43  73 101 140 188 240 304 365 451
#     4   9  18  38  71 109 149 193 241 303 378 446
#     4   9  19  37  64 104 149 191 240 296 358 432
#     4  12  28  46  70 102 154 187 241 304 376 440
#     4  12  25  45  72 108 147 197 247 301 368 453
#     4  11  24  46  73 103 137 189 249 305 370 441
#
# _framework density 24.139595
#
# number of rings (size 3 to 8) (size 9 to 14) (size 15 to 20)
#    0.000    1.333    1.667    6.000    2.333    3.000 
#    3.000    0.000    0.000    0.000    0.000    0.000 
#    0.000    0.000    0.000    0.000    0.000    0.000 
#
# Total GULP energy -594784.903552 kJ/mol
# GULP energy per Si atom -12391.352157 kJ/mol
# Density = 2.408465 g / cm^3
# Si number density = 24.139595 Si / 1000 Ang^3
#
#
#
# Elastic Constant Matrix: (Units=GPa)
#
#
# Indices 1 2 3 4 5 6 
#
# 1 169.3904 72.2772 36.7560 0.0000 0.0000 0.0000
# 2 72.2772 169.3904 36.7560 0.0000 0.0000 0.0000
# 3 36.7560 36.7560 143.0918 0.0000 0.0000 0.0000
# 4 0.0000 0.0000 0.0000 39.3776 0.0000 0.0000
# 5 0.0000 0.0000 0.0000 0.0000 39.3776 0.0000
# 6 0.0000 0.0000 0.0000 0.0000 0.0000 19.8943
#
#
#
# Elastic Compliance Matrix: (Units=1/GPa)
#
#
# Indices 1 2 3 4 5 6 
#
# 1 0.007393 -0.002904 -0.001153 0.000000 0.000000 0.000000
# 2 -0.002904 0.007393 -0.001153 0.000000 0.000000 0.000000
# 3 -0.001153 -0.001153 0.007581 0.000000 0.000000 0.000000
# 4 0.000000 0.000000 0.000000 0.025395 0.000000 0.000000
# 5 0.000000 0.000000 0.000000 0.000000 0.025395 0.000000
# 6 0.000000 0.000000 0.000000 0.000000 0.000000 0.050266
#
#
# Mechanical properties :
#
#
# Convention : Reuss Voigt Hill
#
# Bulk Modulus (GPa) = 83.70894 85.93899 84.82397
# Shear Modulus (GPa) = 36.27780 42.13545 39.20663
#
# Velocity S-wave (km/s) = 3.88085 4.18244 4.03446
# Velocity P-wave (km/s) = 7.40497 7.68127 7.54438
#
# Compressibility (1/GPa) = 0.01194616
#
# Stress axis : x y z
#
# Youngs Moduli (GPa) = 135.26392 135.26392 131.91112
#
# Poissons Ratio (x) = 0.39285 0.15209
# Poissons Ratio (y) = 0.39285 0.15209
# Poissons Ratio (z) = 0.15596 0.15596
#
# Static dielectric constant tensor:
#      x y z
#    x 4.329170 0.000000 0.000000 
#    y 0.000000 4.329170 0.000000 
#    z 0.000000 0.000000 4.625860 
# 
# 
# High freq. dielectric constant tensor:
#      x y z
#    x 1.958460 0.000000 0.000000 
#    y 0.000000 1.958460 0.000000 
#    z 0.000000 0.000000 1.974360 
# 
# From -- ./inp_files/9521.got.cif
#   From: 2010.03.12/outbox.cif.g09.slc.cpg/sg139_5_cif.got.tgz:9521.got - 2010.04.08 09:46:31.
