data_PCOD8319702
_publ_section_title
;
Structure prediction by ZEFSAII (Michael W. Deem and Ramdas Pophale) SiO2 
 PCOD8319702
Probable space group: I 4/M M M
;
_chemical_formula_sum "Si O2"
_cell_formula_units_Z 160
_cell_length_a 29.395157
_cell_length_b 29.395157
_cell_length_c 8.745153
_cell_angle_alpha 90.000000
_cell_angle_beta 90.000000
_cell_angle_gamma 90.000000
_cell_volume 7556.470309
_symmetry_space_group_name_H-M "I 4/M M M"
_symmetry_group_IT_number 139
_symmetry_cell_setting 'tetragonal'
loop_
_space_group_symop_operation_xyz
x,y,z
-y,x,z
-x,-y,z
y,-x,z
x,-y,-z
-x,y,-z
y,x,-z
-y,-x,-z
-x,-y,-z
y,-x,-z
x,y,-z
-y,x,-z
-x,y,z
x,-y,z
-y,-x,z
y,x,z
1/2+x,1/2+y,1/2+z
1/2-y,1/2+x,1/2+z
1/2-x,1/2-y,1/2+z
1/2+y,1/2-x,1/2+z
1/2+x,1/2-y,1/2-z
1/2-x,1/2+y,1/2-z
1/2+y,1/2+x,1/2-z
1/2-y,1/2-x,1/2-z
1/2-x,1/2-y,1/2-z
1/2+y,1/2-x,1/2-z
1/2+x,1/2+y,1/2-z
1/2-y,1/2+x,1/2-z
1/2-x,1/2+y,1/2+z
1/2+x,1/2-y,1/2+z
1/2-y,1/2-x,1/2+z
1/2+y,1/2+x,1/2+z
loop_
_atom_site_type_symbol
_atom_site_label
_atom_site_fract_x
_atom_site_fract_y
_atom_site_fract_z
Si Si1 0.849280 0.776000 0.821042
Si Si2 0.000000 0.254277 0.828713
Si Si3 0.500000 0.352944 0.332259
Si Si4 0.914192 0.158783 0.335179
Si Si5 0.294317 0.910387 0.681143
Si Si6 0.447560 0.882826 0.319626
O O1 0.802664 0.802664 0.764828
O O2 0.893533 0.806516 0.787853
O O3 0.861953 0.728655 0.735702
O O4 0.845440 0.766641 0.000000
O O5 0.000000 0.200963 0.844502
O O6 0.954628 0.267034 0.737771
O O7 0.000000 0.276952 0.000000
O O8 0.500000 0.375597 0.500000
O O9 0.456117 0.368098 0.238281
O O10 0.926617 0.182829 0.500000
O O11 0.878136 0.121865 0.378328
O O12 0.297072 0.909683 0.500000
O O13 0.344521 0.914409 0.750435
O O14 0.442193 0.884081 0.500000
O O15 0.500000 0.873827 0.271785
O O16 0.430973 0.930973 0.250000
#
# Coordination Sequence:
#
# PCOD8319702 Si02
#       6
#    32  16  16  32  32  32
#     4  10  20  34  53  80 118 161 202 247 302 363
#     4  11  21  33  51  81 116 154 198 246 304 363
#     4  11  21  31  49  72 101 139 177 226 287 353
#     4  10  20  32  47  69  98 133 176 228 286 349
#     4  12  23  36  60  90 124 164 208 258 311 370
#     4  11  25  45  70  98 133 172 212 262 314 373
#
# _framework density 21.173908000000001
#
# number of rings (size 3 to 8) (size 9 to 14) (size 15 to 20)
#    0.000    1.200    3.000    4.200    0.000    4.600 
#    0.000    1.000    0.000    0.900    0.000    2.100 
#    0.000    0.000    0.000    0.000    0.000    0.000 
#
# Total GULP energy -991311.667982 kJ/mol
# GULP energy per Si atom -12391.395850 kJ/mol
# Density = 2.112571 g / cm^3
# Si number density = 21.173908 Si / 1000 Ang^3
#
#
#
# Elastic Constant Matrix: (Units=GPa)
#
#
# Indices 1 2 3 4 5 6 
#
# 1 68.2053 43.7143 38.4790 0.0000 0.0000 0.0000
# 2 43.7143 68.2053 38.4790 0.0000 0.0000 0.0000
# 3 38.4790 38.4790 138.9634 0.0000 0.0000 0.0000
# 4 0.0000 0.0000 0.0000 29.3501 0.0000 0.0000
# 5 0.0000 0.0000 0.0000 0.0000 29.3501 0.0000
# 6 0.0000 0.0000 0.0000 0.0000 0.0000 22.6782
#
#
#
# Elastic Compliance Matrix: (Units=1/GPa)
#
#
# Indices 1 2 3 4 5 6 
#
# 1 0.025934 -0.014897 -0.003056 0.000000 0.000000 0.000000
# 2 -0.014897 0.025934 -0.003056 0.000000 0.000000 0.000000
# 3 -0.003056 -0.003056 0.008889 0.000000 0.000000 0.000000
# 4 0.000000 0.000000 0.000000 0.034071 0.000000 0.000000
# 5 0.000000 0.000000 0.000000 0.000000 0.034071 0.000000
# 6 0.000000 0.000000 0.000000 0.000000 0.000000 0.044095
#
#
# Mechanical properties :
#
#
# Convention : Reuss Voigt Hill
#
# Bulk Modulus (GPa) = 53.36937 57.41316 55.39126
# Shear Modulus (GPa) = 22.59796 26.58912 24.59354
#
# Velocity S-wave (km/s) = 3.27043 3.54750 3.41178
# Velocity P-wave (km/s) = 6.28657 6.62975 6.46044
#
# Compressibility (1/GPa) = 0.01873734
#
# Stress axis : x y z
#
# Youngs Moduli (GPa) = 38.55971 38.55971 112.50458
#
# Poissons Ratio (x) = 0.57444 0.34381
# Poissons Ratio (y) = 0.57444 0.34381
# Poissons Ratio (z) = 0.11784 0.11784
#
# Static dielectric constant tensor:
#      x y z
#    x 3.951160 0.000000 0.000000 
#    y 0.000000 3.951160 0.000000 
#    z 0.000000 0.000000 3.999280 
# 
# 
# High freq. dielectric constant tensor:
#      x y z
#    x 1.813580 0.000000 0.000000 
#    y 0.000000 1.813580 0.000000 
#    z 0.000000 0.000000 1.846880 
# 
# From -- ./inp_files/2248.got.cif
#   From: 2010.03.12/outbox.cif.g09.slc.cpg/sg139_2_cif.got.tgz:2248.got - 2010.04.08 09:46:31.
