data_PCOD8319048
_publ_section_title
;
Structure prediction by ZEFSAII (Michael W. Deem and Ramdas Pophale) SiO2 
 PCOD8319048
Probable space group: P 42/N C M
;
_chemical_formula_sum "Si O2"
_cell_formula_units_Z 128
_cell_length_a 22.244305
_cell_length_b 22.244305
_cell_length_c 12.485919
_cell_angle_alpha 90.000000
_cell_angle_beta 90.000000
_cell_angle_gamma 90.000000
_cell_volume 6178.146405
_symmetry_space_group_name_H-M "P 42/N C M"
_symmetry_group_IT_number 138
_space_group.IT_coordinate_system_code '2'
_symmetry_cell_setting 'tetragonal'
loop_
_space_group_symop_operation_xyz
x,y,z
1/2-y,x,1/2+z
1/2-x,1/2-y,z
y,1/2-x,1/2+z
1/2+x,-y,1/2-z
-x,1/2+y,1/2-z
1/2+y,1/2+x,-z
-y,-x,-z
-x,-y,-z
1/2+y,-x,1/2-z
1/2+x,1/2+y,-z
-y,1/2+x,1/2-z
1/2-x,y,1/2+z
x,1/2-y,1/2+z
1/2-y,1/2-x,z
y,x,z
loop_
_atom_site_type_symbol
_atom_site_label
_atom_site_fract_x
_atom_site_fract_y
_atom_site_fract_z
Si Si1 0.897781 0.505767 0.100872
Si Si2 0.119420 0.954556 0.621929
Si Si3 0.593638 0.502457 0.967707
Si Si4 0.425793 0.683326 0.845977
Si Si5 0.995366 0.771303 0.674741
Si Si6 0.325214 0.801217 0.207869
Si Si7 0.224514 0.899769 0.492187
Si Si8 0.454584 0.145102 0.312696
O O1 0.912198 0.438462 0.142228
O O2 0.837893 0.532694 0.158288
O O3 0.951846 0.548155 0.134827
O O4 0.891589 0.503239 0.972169
O O5 0.172088 0.908184 0.582866
O O6 0.131889 0.993353 0.727246
O O7 0.562599 0.562599 0.919971
O O8 0.631351 0.519384 0.071555
O O9 0.543037 0.456964 0.000000
O O10 0.632049 0.472588 0.875301
O O11 0.465359 0.733191 0.783273
O O12 0.374993 0.656179 0.765022
O O13 0.391872 0.711983 0.947847
O O14 0.945114 0.718100 0.682857
O O15 0.039661 0.765505 0.573990
O O16 0.329138 0.740454 0.281328
O O17 0.341906 0.788229 0.083788
O O18 0.392941 0.107060 0.289521
#
# Coordination Sequence:
#
# PCOD8319048 Si02
#       8
#    16  16  16  16  16  16  16  16
#     4  10  21  37  59  90 124 153 194 253 320 379
#     4  10  20  37  60  91 121 153 200 256 326 375
#     4  10  24  40  58  87 118 153 200 251 311 380
#     4  11  22  37  61  80 117 158 204 257 314 371
#     4  10  22  37  55  87 119 155 201 246 306 379
#     4  10  25  42  56  83 119 167 225 264 302 362
#     4  10  21  39  58  85 116 160 209 263 313 365
#     4  11  21  38  61  86 122 160 202 250 307 383
#
# _framework density 20.718188999999999
#
# number of rings (size 3 to 8) (size 9 to 14) (size 15 to 20)
#    0.000    1.750    2.500    1.500    3.500    6.000 
#    0.000    1.250    0.000    0.375    0.000    0.000 
#    0.000    2.250    0.000    0.000    0.000    0.125 
#
# Total GULP energy -1586169.867341 kJ/mol
# GULP energy per Si atom -12391.952089 kJ/mol
# Density = 2.067103 g / cm^3
# Si number density = 20.718189 Si / 1000 Ang^3
#
#
#
# Elastic Constant Matrix: (Units=GPa)
#
#
# Indices 1 2 3 4 5 6 
#
# 1 82.4638 35.1387 17.8900 0.0000 0.0000 0.0000
# 2 35.1387 82.4647 17.8919 0.0000 0.0000 0.0000
# 3 17.8900 17.8919 62.1048 0.0000 0.0000 0.0000
# 4 0.0000 0.0000 0.0000 24.8120 0.0000 0.0000
# 5 0.0000 0.0000 0.0000 0.0000 24.8119 0.0000
# 6 0.0000 0.0000 0.0000 0.0000 0.0000 29.6152
#
#
#
# Elastic Compliance Matrix: (Units=1/GPa)
#
#
# Indices 1 2 3 4 5 6 
#
# 1 0.015225 -0.005905 -0.002685 0.000000 0.000000 0.000000
# 2 -0.005905 0.015225 -0.002685 0.000000 0.000000 0.000000
# 3 -0.002685 -0.002685 0.017649 0.000000 0.000000 0.000000
# 4 0.000000 0.000000 0.000000 0.040303 0.000000 0.000000
# 5 0.000000 0.000000 0.000000 0.000000 0.040303 0.000000
# 6 0.000000 0.000000 0.000000 0.000000 0.000000 0.033766
#
#
# Mechanical properties :
#
#
# Convention : Reuss Voigt Hill
#
# Bulk Modulus (GPa) = 39.14001 40.98607 40.06304
# Shear Modulus (GPa) = 25.83473 26.25535 26.04504
#
# Velocity S-wave (km/s) = 3.53506 3.56372 3.54942
# Velocity P-wave (km/s) = 5.96614 6.06293 6.01473
#
# Compressibility (1/GPa) = 0.02554930
#
# Stress axis : x y z
#
# Youngs Moduli (GPa) = 65.68083 65.68065 56.66132
#
# Poissons Ratio (x) = 0.38785 0.15211
# Poissons Ratio (y) = 0.38785 0.15215
# Poissons Ratio (z) = 0.17632 0.17637
#
# Static dielectric constant tensor:
#      x y z
#    x 3.986570 0.000000 0.000000 
#    y 0.000000 3.986550 0.000000 
#    z 0.000000 0.000000 3.848250 
# 
# 
# High freq. dielectric constant tensor:
#      x y z
#    x 1.788980 0.000000 0.000000 
#    y 0.000000 1.788980 0.000000 
#    z 0.000000 0.000000 1.833170 
# 
# From -- ./inp_files/3330.got.cif
#   From: 2010.03.12/outbox.cif.g09.slc.cpg/sg138_2_cif.got.tgz:3330.got - 2010.04.08 09:41:05.
