data_PCOD8319371
_publ_section_title
;
Structure prediction by ZEFSAII (Michael W. Deem and Ramdas Pophale) SiO2 
 PCOD8319371
Probable space group: I 4/M M M
;
_chemical_formula_sum "Si O2"
_cell_formula_units_Z 240
_cell_length_a 27.250534
_cell_length_b 27.250534
_cell_length_c 18.001913
_cell_angle_alpha 90.000000
_cell_angle_beta 90.000000
_cell_angle_gamma 90.000000
_cell_volume 13368.069437
_symmetry_space_group_name_H-M "I 4/M M M"
_symmetry_group_IT_number 139
_symmetry_cell_setting 'tetragonal'
loop_
_space_group_symop_operation_xyz
x,y,z
-y,x,z
-x,-y,z
y,-x,z
x,-y,-z
-x,y,-z
y,x,-z
-y,-x,-z
-x,-y,-z
y,-x,-z
x,y,-z
-y,x,-z
-x,y,z
x,-y,z
-y,-x,z
y,x,z
1/2+x,1/2+y,1/2+z
1/2-y,1/2+x,1/2+z
1/2-x,1/2-y,1/2+z
1/2+y,1/2-x,1/2+z
1/2+x,1/2-y,1/2-z
1/2-x,1/2+y,1/2-z
1/2+y,1/2+x,1/2-z
1/2-y,1/2-x,1/2-z
1/2-x,1/2-y,1/2-z
1/2+y,1/2-x,1/2-z
1/2+x,1/2+y,1/2-z
1/2-y,1/2+x,1/2-z
1/2-x,1/2+y,1/2+z
1/2+x,1/2-y,1/2+z
1/2-y,1/2-x,1/2+z
1/2+y,1/2+x,1/2+z
loop_
_atom_site_type_symbol
_atom_site_label
_atom_site_fract_x
_atom_site_fract_y
_atom_site_fract_z
Si Si1 0.056732 0.659064 0.302320
Si Si2 0.792369 0.288964 0.083522
Si Si3 0.943745 0.133265 0.190889
Si Si4 0.693473 0.614755 0.196238
Si Si5 0.281703 0.557046 0.417999
Si Si6 0.945349 0.554652 0.750000
Si Si7 0.221364 0.617628 0.309453
Si Si8 0.900446 0.268939 0.416777
O O1 0.059853 0.599525 0.308849
O O2 0.091710 0.676677 0.234433
O O3 0.076319 0.682774 0.378646
O O4 0.000000 0.675446 0.288867
O O5 0.752727 0.247274 0.104946
O O6 0.833471 0.293519 0.146973
O O7 0.767319 0.341707 0.083281
O O8 0.813372 0.278275 0.000000
O O9 0.918411 0.081590 0.176724
O O10 0.924883 0.158639 0.265630
O O11 0.931504 0.166462 0.119869
O O12 0.000000 0.122285 0.201455
O O13 0.662158 0.662158 0.171102
O O14 0.735578 0.632478 0.253024
O O15 0.719148 0.586097 0.127710
O O16 0.282923 0.580550 0.500000
O O17 0.271336 0.500000 0.421993
O O18 0.237722 0.579190 0.371219
O O19 0.941091 0.500000 0.712067
O O20 0.921732 0.266659 0.500000
#
# Coordination Sequence:
#
# PCOD8319371 Si02
#       8
#    32  32  32  32  32  16  32  32
#     4  10  20  34  53  76  99 123 158 205 249 289
#     4  10  20  32  47  71 105 140 169 196 227 273
#     4   9  18  32  49  70  95 123 159 203 248 293
#     4   9  18  31  48  69  94 128 166 201 237 283
#     4   9  17  29  45  66  95 131 168 204 241 283
#     4   9  18  34  56  78  99 126 158 192 233 282
#     4  10  18  30  48  71  99 131 165 202 243 283
#     4  10  21  35  51  72 100 131 160 196 243 288
#
# _framework density 17.953227999999999
#
# number of rings (size 3 to 8) (size 9 to 14) (size 15 to 20)
#    0.000    2.467    0.000    2.400    0.000    6.800 
#    0.000    3.333    0.000    0.400    0.000    7.467 
#    0.000    0.000    0.000    2.933    0.000    0.000 
#
# Total GULP energy -1487171.023113 kJ/mol
# GULP energy per Si atom -12393.091859 kJ/mol
# Density = 1.791237 g / cm^3
# Si number density = 17.953228 Si / 1000 Ang^3
#
#
#
# Elastic Constant Matrix: (Units=GPa)
#
#
# Indices 1 2 3 4 5 6 
#
# 1 33.0813 77.2380 37.0383 0.0000 0.0000 0.0000
# 2 77.2380 33.0816 37.0383 0.0000 0.0000 0.0000
# 3 37.0383 37.0383 114.5277 0.0000 0.0000 0.0000
# 4 0.0000 0.0000 0.0000 18.5196 0.0000 0.0000
# 5 0.0000 0.0000 0.0000 0.0000 18.5194 0.0000
# 6 0.0000 0.0000 0.0000 0.0000 0.0000 23.8872
#
#
#
# Elastic Compliance Matrix: (Units=1/GPa)
#
#
# Indices 1 2 3 4 5 6 
#
# 1 -0.005534 0.017113 -0.003745 0.000000 0.000000 0.000000
# 2 0.017113 -0.005534 -0.003745 0.000000 0.000000 0.000000
# 3 -0.003745 -0.003745 0.011154 0.000000 0.000000 0.000000
# 4 0.000000 0.000000 0.000000 0.053997 0.000000 0.000000
# 5 0.000000 0.000000 0.000000 0.000000 0.053998 0.000000
# 6 0.000000 0.000000 0.000000 0.000000 0.000000 0.041864
#
#
# Mechanical properties :
#
#
# Convention : Reuss Voigt Hill
#
# Bulk Modulus (GPa) = 51.72509 53.70218 52.71364
# Shear Modulus (GPa) = 36.45885 14.14363 25.30124
#
# Velocity S-wave (km/s) = 4.51129 2.80983 3.75812
# Velocity P-wave (km/s) = 7.48393 6.36428 6.94670
#
# Compressibility (1/GPa) = 0.01933298
#
# Stress axis : x y z
#
# Youngs Moduli (GPa) = -180.70535 -180.70778 89.65747
#
# Poissons Ratio (x) = 3.09243 0.33574
# Poissons Ratio (y) = 3.09239 0.33574
# Poissons Ratio (z) = -0.67668 -0.67669
#
# Static dielectric constant tensor:
#      x y z
#    x 3.360550 0.000000 0.000000 
#    y 0.000000 3.360560 0.000000 
#    z 0.000000 0.000000 2.294530 
# 
# 
# High freq. dielectric constant tensor:
#      x y z
#    x 1.693290 0.000000 0.000000 
#    y 0.000000 1.693290 0.000000 
#    z 0.000000 0.000000 1.682910 
# 
# From -- ./inp_files/9082.got.cif
#   From: 2010.03.12/outbox.cif.g09.slc.cpg/sg139_5_cif.got.tgz:9082.got - 2010.04.08 09:46:31.
