data_PCOD8319405
_publ_section_title
;
Structure prediction by ZEFSAII (Michael W. Deem and Ramdas Pophale) SiO2 
 PCOD8319405
Probable space group: I 4/M M M
;
_chemical_formula_sum "Si O2"
_cell_formula_units_Z 176
_cell_length_a 17.933584
_cell_length_b 17.933584
_cell_length_c 28.803150
_cell_angle_alpha 90.000000
_cell_angle_beta 90.000000
_cell_angle_gamma 90.000000
_cell_volume 9263.480013
_symmetry_space_group_name_H-M "I 4/M M M"
_symmetry_group_IT_number 139
_symmetry_cell_setting 'tetragonal'
loop_
_space_group_symop_operation_xyz
x,y,z
-y,x,z
-x,-y,z
y,-x,z
x,-y,-z
-x,y,-z
y,x,-z
-y,-x,-z
-x,-y,-z
y,-x,-z
x,y,-z
-y,x,-z
-x,y,z
x,-y,z
-y,-x,z
y,x,z
1/2+x,1/2+y,1/2+z
1/2-y,1/2+x,1/2+z
1/2-x,1/2-y,1/2+z
1/2+y,1/2-x,1/2+z
1/2+x,1/2-y,1/2-z
1/2-x,1/2+y,1/2-z
1/2+y,1/2+x,1/2-z
1/2-y,1/2-x,1/2-z
1/2-x,1/2-y,1/2-z
1/2+y,1/2-x,1/2-z
1/2+x,1/2+y,1/2-z
1/2-y,1/2+x,1/2-z
1/2-x,1/2+y,1/2+z
1/2+x,1/2-y,1/2+z
1/2-y,1/2-x,1/2+z
1/2+y,1/2+x,1/2+z
loop_
_atom_site_type_symbol
_atom_site_label
_atom_site_fract_x
_atom_site_fract_y
_atom_site_fract_z
Si Si1 0.237965 0.880018 0.950386
Si Si2 0.086091 0.791862 0.359506
Si Si3 0.884222 0.703190 0.446980
Si Si4 0.292691 0.582000 0.352451
Si Si5 0.418073 0.000000 0.445607
Si Si6 0.186477 0.688631 0.697923
O O1 0.158460 0.841541 0.955860
O O2 0.297479 0.814413 0.941262
O O3 0.231662 0.932846 0.905956
O O4 0.256471 0.921541 0.000000
O O5 0.133676 0.866325 0.348544
O O6 0.093819 0.771858 0.413992
O O7 0.114921 0.721133 0.329327
O O8 0.000000 0.807654 0.346767
O O9 0.905053 0.725440 0.500000
O O10 0.927373 0.628508 0.430757
O O11 0.311298 0.500000 0.331646
O O12 0.364824 0.635177 0.347119
O O13 0.220950 0.616314 0.326954
O O14 0.500000 0.000000 0.421268
O O15 0.430676 0.000000 0.500000
O O16 0.247703 0.752298 0.698836
O O17 0.164300 0.664300 0.750000
#
# Coordination Sequence:
#
# PCOD8319405 Si02
#       6
#    32  32  32  32  16  32
#     4   9  17  30  49  73 102 137 180 227 267 308
#     4  11  22  37  58  84 114 149 191 237 285 342
#     4  10  18  31  51  76 108 147 189 233 281 330
#     4  10  20  34  54  82 114 148 186 224 267 323
#     4   9  18  30  44  68 105 143 179 223 278 336
#     4   9  19  38  61  81 103 136 181 230 279 334
#
# _framework density 18.99934
#
# number of rings (size 3 to 8) (size 9 to 14) (size 15 to 20)
#    0.000    2.273    2.727    0.545    0.000    3.273 
#    0.000    1.818    0.000    0.000    0.000   10.182 
#    0.000    0.000    0.000    0.000    0.000    0.000 
#
# Total GULP energy -1090407.202698 kJ/mol
# GULP energy per Si atom -12390.990940 kJ/mol
# Density = 1.895610 g / cm^3
# Si number density = 18.999340 Si / 1000 Ang^3
#
#
#
# Elastic Constant Matrix: (Units=GPa)
#
#
# Indices 1 2 3 4 5 6 
#
# 1 109.8656 34.8947 38.4176 0.0000 0.0000 0.0000
# 2 34.8947 109.8656 38.4176 0.0000 0.0000 0.0000
# 3 38.4176 38.4176 102.2531 0.0000 0.0000 0.0000
# 4 0.0000 0.0000 0.0000 10.5658 0.0000 0.0000
# 5 0.0000 0.0000 0.0000 0.0000 10.5658 0.0000
# 6 0.0000 0.0000 0.0000 0.0000 0.0000 22.7001
#
#
#
# Elastic Compliance Matrix: (Units=1/GPa)
#
#
# Indices 1 2 3 4 5 6 
#
# 1 0.010984 -0.002355 -0.003242 0.000000 0.000000 0.000000
# 2 -0.002355 0.010984 -0.003242 0.000000 0.000000 0.000000
# 3 -0.003242 -0.003242 0.012216 0.000000 0.000000 0.000000
# 4 0.000000 0.000000 0.000000 0.094645 0.000000 0.000000
# 5 0.000000 0.000000 0.000000 0.000000 0.094645 0.000000
# 6 0.000000 0.000000 0.000000 0.000000 0.000000 0.044053
#
#
# Mechanical properties :
#
#
# Convention : Reuss Voigt Hill
#
# Bulk Modulus (GPa) = 60.58587 60.60487 60.59537
# Shear Modulus (GPa) = 17.19954 22.78329 19.99142
#
# Velocity S-wave (km/s) = 3.01204 3.46665 3.24731
# Velocity P-wave (km/s) = 6.63733 6.92757 6.78400
#
# Compressibility (1/GPa) = 0.01650550
#
# Stress axis : x y z
#
# Youngs Moduli (GPa) = 91.04483 91.04483 81.86200
#
# Poissons Ratio (x) = 0.21440 0.26539
# Poissons Ratio (y) = 0.21440 0.26539
# Poissons Ratio (z) = 0.29516 0.29516
#
# Static dielectric constant tensor:
#      x y z
#    x 3.301220 0.000000 0.000000 
#    y 0.000000 3.301220 0.000000 
#    z 0.000000 0.000000 3.686010 
# 
# 
# High freq. dielectric constant tensor:
#      x y z
#    x 1.718910 0.000000 0.000000 
#    y 0.000000 1.718910 0.000000 
#    z 0.000000 0.000000 1.731430 
# 
# From -- ./inp_files/14239.got.cif
#   From: 2010.03.12/outbox.cif.g09.slc.cpg/sg139_8_cif.got.tgz:14239.got - 2010.04.08 09:46:31.
