data_PCOD8319700
_publ_section_title
;
Structure prediction by ZEFSAII (Michael W. Deem and Ramdas Pophale) SiO2 
 PCOD8319700
Probable space group: I 4/M M M
;
_chemical_formula_sum "Si O2"
_cell_formula_units_Z 96
_cell_length_a 13.237027
_cell_length_b 13.237027
_cell_length_c 31.020382
_cell_angle_alpha 90.000000
_cell_angle_beta 90.000000
_cell_angle_gamma 90.000000
_cell_volume 5435.356709
_symmetry_space_group_name_H-M "I 4/M M M"
_symmetry_group_IT_number 139
_symmetry_cell_setting 'tetragonal'
loop_
_space_group_symop_operation_xyz
x,y,z
-y,x,z
-x,-y,z
y,-x,z
x,-y,-z
-x,y,-z
y,x,-z
-y,-x,-z
-x,-y,-z
y,-x,-z
x,y,-z
-y,x,-z
-x,y,z
x,-y,z
-y,-x,z
y,x,z
1/2+x,1/2+y,1/2+z
1/2-y,1/2+x,1/2+z
1/2-x,1/2-y,1/2+z
1/2+y,1/2-x,1/2+z
1/2+x,1/2-y,1/2-z
1/2-x,1/2+y,1/2-z
1/2+y,1/2+x,1/2-z
1/2-y,1/2-x,1/2-z
1/2-x,1/2-y,1/2-z
1/2+y,1/2-x,1/2-z
1/2+x,1/2+y,1/2-z
1/2-y,1/2+x,1/2-z
1/2-x,1/2+y,1/2+z
1/2+x,1/2-y,1/2+z
1/2-y,1/2-x,1/2+z
1/2+y,1/2+x,1/2+z
loop_
_atom_site_type_symbol
_atom_site_label
_atom_site_fract_x
_atom_site_fract_y
_atom_site_fract_z
Si Si1 0.112608 0.380281 0.047279
Si Si2 0.117419 0.716492 0.209459
Si Si3 0.618769 0.221158 0.132121
O O1 0.106270 0.500000 0.049817
O O2 0.184993 0.341876 0.085248
O O3 0.000000 0.335611 0.053869
O O4 0.154315 0.346918 0.000000
O O5 0.178593 0.821408 0.208129
O O6 0.149473 0.649473 0.250000
O O7 0.137117 0.650138 0.166845
O O8 0.000000 0.743891 0.212581
O O9 0.500000 0.240479 0.133637
O O10 0.673066 0.326935 0.143102
#
# Coordination Sequence:
#
# PCOD8319700 Si02
#       3
#    32  32  32
#     4   8  14  26  45  67  89 116 154 200 247 291
#     4  10  21  36  54  77 102 128 161 199 240 288
#     4  10  20  32  47  69  97 130 168 207 246 290
#
# _framework density 17.662133999999998
#
# number of rings (size 3 to 8) (size 9 to 14) (size 15 to 20)
#    0.000    2.667    0.000    3.000    0.000    5.000 
#    0.000    0.000    0.000    6.000    0.000    4.667 
#    0.000    0.000    0.000   31.000    0.000    1.667 
#
# Total GULP energy -595022.676844 kJ/mol
# GULP energy per Si atom -12396.305768 kJ/mol
# Density = 1.762193 g / cm^3
# Si number density = 17.662134 Si / 1000 Ang^3
#
#
#
# Elastic Constant Matrix: (Units=GPa)
#
#
# Indices 1 2 3 4 5 6 
#
# 1 90.1820 37.4007 40.3181 0.0000 0.0000 0.0000
# 2 37.4007 90.1820 40.3181 0.0000 0.0000 0.0000
# 3 40.3181 40.3181 134.7668 0.0000 0.0000 0.0000
# 4 0.0000 0.0000 0.0000 24.3877 0.0000 0.0000
# 5 0.0000 0.0000 0.0000 0.0000 24.3877 0.0000
# 6 0.0000 0.0000 0.0000 0.0000 0.0000 12.2720
#
#
#
# Elastic Compliance Matrix: (Units=1/GPa)
#
#
# Indices 1 2 3 4 5 6 
#
# 1 0.014306 -0.004640 -0.002892 0.000000 0.000000 0.000000
# 2 -0.004640 0.014306 -0.002892 0.000000 0.000000 0.000000
# 3 -0.002892 -0.002892 0.009150 0.000000 0.000000 0.000000
# 4 0.000000 0.000000 0.000000 0.041004 0.000000 0.000000
# 5 0.000000 0.000000 0.000000 0.000000 0.041004 0.000000
# 6 0.000000 0.000000 0.000000 0.000000 0.000000 0.081486
#
#
# Mechanical properties :
#
#
# Convention : Reuss Voigt Hill
#
# Bulk Modulus (GPa) = 59.11885 61.24498 60.18191
# Shear Modulus (GPa) = 21.95464 25.34908 23.65186
#
# Velocity S-wave (km/s) = 3.52949 3.79254 3.66338
# Velocity P-wave (km/s) = 7.08199 7.34364 7.21400
#
# Compressibility (1/GPa) = 0.01691508
#
# Stress axis : x y z
#
# Youngs Moduli (GPa) = 69.90121 69.90121 109.28442
#
# Poissons Ratio (x) = 0.32436 0.31602
# Poissons Ratio (y) = 0.32436 0.31602
# Poissons Ratio (z) = 0.20213 0.20213
#
# Static dielectric constant tensor:
#      x y z
#    x 3.012360 0.000000 0.000000 
#    y 0.000000 3.012360 0.000000 
#    z 0.000000 0.000000 3.731940 
# 
# 
# High freq. dielectric constant tensor:
#      x y z
#    x 1.661050 0.000000 0.000000 
#    y 0.000000 1.661050 0.000000 
#    z 0.000000 0.000000 1.708400 
# 
# From -- ./inp_files/13642.got.cif
#   From: 2010.03.12/outbox.cif.g09.slc.cpg/sg139_7_cif.got.tgz:13642.got - 2010.04.08 09:46:31.
