data_PCOD8319567
_publ_section_title
;
Structure prediction by ZEFSAII (Michael W. Deem and Ramdas Pophale) SiO2 
 PCOD8319567
Probable space group: I 4/M M M
;
_chemical_formula_sum "Si O2"
_cell_formula_units_Z 176
_cell_length_a 18.769179
_cell_length_b 18.769179
_cell_length_c 27.736615
_cell_angle_alpha 90.000000
_cell_angle_beta 90.000000
_cell_angle_gamma 90.000000
_cell_volume 9771.112434
_symmetry_space_group_name_H-M "I 4/M M M"
_symmetry_group_IT_number 139
_symmetry_cell_setting 'tetragonal'
loop_
_space_group_symop_operation_xyz
x,y,z
-y,x,z
-x,-y,z
y,-x,z
x,-y,-z
-x,y,-z
y,x,-z
-y,-x,-z
-x,-y,-z
y,-x,-z
x,y,-z
-y,x,-z
-x,y,z
x,-y,z
-y,-x,z
y,x,z
1/2+x,1/2+y,1/2+z
1/2-y,1/2+x,1/2+z
1/2-x,1/2-y,1/2+z
1/2+y,1/2-x,1/2+z
1/2+x,1/2-y,1/2-z
1/2-x,1/2+y,1/2-z
1/2+y,1/2+x,1/2-z
1/2-y,1/2-x,1/2-z
1/2-x,1/2-y,1/2-z
1/2+y,1/2-x,1/2-z
1/2+x,1/2+y,1/2-z
1/2-y,1/2+x,1/2-z
1/2-x,1/2+y,1/2+z
1/2+x,1/2-y,1/2+z
1/2-y,1/2-x,1/2+z
1/2+y,1/2+x,1/2+z
loop_
_atom_site_type_symbol
_atom_site_label
_atom_site_fract_x
_atom_site_fract_y
_atom_site_fract_z
Si Si1 0.338293 0.778506 0.182526
Si Si2 0.194686 0.080635 0.758467
Si Si3 0.920081 0.277413 0.850294
Si Si4 0.417745 0.698159 0.896798
Si Si5 0.580377 0.693859 0.000000
Si Si6 0.081768 0.801620 0.945900
O O1 0.261616 0.738385 0.178445
O O2 0.375243 0.760149 0.233779
O O3 0.331140 0.862757 0.172831
O O4 0.392870 0.754268 0.141980
O O5 0.120506 0.120506 0.746704
O O6 0.207833 0.079588 0.815825
O O7 0.190077 0.000000 0.737998
O O8 0.897719 0.256074 0.904875
O O9 0.000000 0.311612 0.850051
O O10 0.500000 0.680362 0.889005
O O11 0.375491 0.624510 0.890427
O O12 0.402462 0.734683 0.949757
O O13 0.500000 0.669446 0.000000
O O14 0.619593 0.619593 0.000000
O O15 0.127946 0.872054 0.938527
O O16 0.000000 0.824583 0.938949
O O17 0.094282 0.769531 0.000000
#
# Coordination Sequence:
#
# PCOD8319567 Si02
#       6
#    32  32  32  32  16  32
#     4  10  19  32  50  72  98 130 167 203 243 292
#     4  10  20  33  52  77 104 134 165 199 241 294
#     4  10  20  34  51  71  96 127 168 213 253 292
#     4   9  17  29  46  69  98 129 161 198 241 293
#     4   8  14  25  40  62  93 125 157 193 234 284
#     4   9  17  29  45  67  96 127 159 197 243 296
#
# _framework density 18.012278999999999
#
# number of rings (size 3 to 8) (size 9 to 14) (size 15 to 20)
#    0.000    2.545    0.000    2.727    0.000    2.091 
#    1.636    2.727    0.000    8.727    0.000    5.091 
#    0.000    2.182    0.000    0.000    0.000    0.000 
#
# Total GULP energy -1090217.336585 kJ/mol
# GULP energy per Si atom -12388.833370 kJ/mol
# Density = 1.797128 g / cm^3
# Si number density = 18.012279 Si / 1000 Ang^3
#
#
#
# Elastic Constant Matrix: (Units=GPa)
#
#
# Indices 1 2 3 4 5 6 
#
# 1 84.2825 37.1228 29.0702 0.0000 0.0000 0.0000
# 2 37.1228 84.2825 29.0702 0.0000 0.0000 0.0000
# 3 29.0702 29.0702 116.7883 0.0000 0.0000 0.0000
# 4 0.0000 0.0000 0.0000 16.7431 0.0000 0.0000
# 5 0.0000 0.0000 0.0000 0.0000 16.7431 0.0000
# 6 0.0000 0.0000 0.0000 0.0000 0.0000 16.3111
#
#
#
# Elastic Compliance Matrix: (Units=1/GPa)
#
#
# Indices 1 2 3 4 5 6 
#
# 1 0.015278 -0.005926 -0.002328 0.000000 0.000000 0.000000
# 2 -0.005926 0.015278 -0.002328 0.000000 0.000000 0.000000
# 3 -0.002328 -0.002328 0.009721 0.000000 0.000000 0.000000
# 4 0.000000 0.000000 0.000000 0.059726 0.000000 0.000000
# 5 0.000000 0.000000 0.000000 0.000000 0.059726 0.000000
# 6 0.000000 0.000000 0.000000 0.000000 0.000000 0.061308
#
#
# Mechanical properties :
#
#
# Convention : Reuss Voigt Hill
#
# Bulk Modulus (GPa) = 52.31883 52.87551 52.59717
# Shear Modulus (GPa) = 20.11485 22.63215 21.37350
#
# Velocity S-wave (km/s) = 3.34538 3.54854 3.44845
# Velocity P-wave (km/s) = 6.63561 6.79768 6.71713
#
# Compressibility (1/GPa) = 0.01911358
#
# Stress axis : x y z
#
# Youngs Moduli (GPa) = 65.45325 65.45325 102.86674
#
# Poissons Ratio (x) = 0.38791 0.23945
# Poissons Ratio (y) = 0.38791 0.23945
# Poissons Ratio (z) = 0.15236 0.15236
#
# Static dielectric constant tensor:
#      x y z
#    x 3.109030 0.000000 0.000000 
#    y 0.000000 3.109030 0.000000 
#    z 0.000000 0.000000 3.952210 
# 
# 
# High freq. dielectric constant tensor:
#      x y z
#    x 1.667100 0.000000 0.000000 
#    y 0.000000 1.667100 0.000000 
#    z 0.000000 0.000000 1.729960 
# 
# From -- ./inp_files/14268.got.cif
#   From: 2010.03.12/outbox.cif.g09.slc.cpg/sg139_8_cif.got.tgz:14268.got - 2010.04.08 09:46:31.
