data_PCOD8319084
_publ_section_title
;
Structure prediction by ZEFSAII (Michael W. Deem and Ramdas Pophale) SiO2 
 PCOD8319084
Probable space group: P 42/N C M
;
_chemical_formula_sum "Si O2"
_cell_formula_units_Z 112
_cell_length_a 16.065717
_cell_length_b 16.065717
_cell_length_c 23.424669
_cell_angle_alpha 90.000000
_cell_angle_beta 90.000000
_cell_angle_gamma 90.000000
_cell_volume 6046.077196
_symmetry_space_group_name_H-M "P 42/N C M"
_symmetry_group_IT_number 138
_space_group.IT_coordinate_system_code '2'
_symmetry_cell_setting 'tetragonal'
loop_
_space_group_symop_operation_xyz
x,y,z
1/2-y,x,1/2+z
1/2-x,1/2-y,z
y,1/2-x,1/2+z
1/2+x,-y,1/2-z
-x,1/2+y,1/2-z
1/2+y,1/2+x,-z
-y,-x,-z
-x,-y,-z
1/2+y,-x,1/2-z
1/2+x,1/2+y,-z
-y,1/2+x,1/2-z
1/2-x,y,1/2+z
x,1/2-y,1/2+z
1/2-y,1/2-x,z
y,x,z
loop_
_atom_site_type_symbol
_atom_site_label
_atom_site_fract_x
_atom_site_fract_y
_atom_site_fract_z
Si Si1 0.557584 0.810329 0.876496
Si Si2 0.250486 0.115923 0.001437
Si Si3 0.613663 0.325273 0.083867
Si Si4 0.746942 0.063332 0.537511
Si Si5 0.868837 0.313920 0.762661
Si Si6 0.369524 0.651095 0.384653
Si Si7 0.150302 0.011826 0.176451
O O1 0.619754 0.880247 0.854101
O O2 0.589898 0.766995 0.933813
O O3 0.469303 0.854206 0.888719
O O4 0.554645 0.741361 0.826258
O O5 0.322704 0.177297 0.979472
O O6 0.161058 0.161058 0.998199
O O7 0.250768 0.036434 0.959408
O O8 0.675190 0.402598 0.079201
O O9 0.655513 0.249844 0.120125
O O10 0.531782 0.361365 0.114431
O O11 0.591622 0.277466 0.025630
O O12 0.832944 0.104595 0.559302
O O13 0.861665 0.215136 0.755080
O O14 0.892249 0.333869 0.828103
O O15 0.943632 0.352219 0.725960
O O16 0.078516 0.078516 0.187573
#
# Coordination Sequence:
#
# PCOD8319084 Si02
#       7
#    16  16  16  16  16  16  16
#     4  10  21  38  59  86 116 152 199 250 299 344
#     4  10  21  38  58  80 113 159 202 238 289 352
#     4  10  21  36  54  91 121 158 190 240 296 355
#     4  11  21  34  58  87 124 156 195 238 297 355
#     4  11  22  39  61  84 120 158 195 240 303 362
#     4  11  21  36  58  88 122 153 192 239 296 362
#     4  11  22  40  63  91 119 153 205 253 296 350
#
# _framework density 18.524408000000001
#
# number of rings (size 3 to 8) (size 9 to 14) (size 15 to 20)
#    0.000    1.429    5.714    2.143    2.000    3.714 
#    0.000    2.857    0.000    0.857    0.000    0.000 
#    0.000    0.000    0.000    0.000    0.000    0.000 
#
# Total GULP energy -1388462.501159 kJ/mol
# GULP energy per Si atom -12396.986617 kJ/mol
# Density = 1.848225 g / cm^3
# Si number density = 18.524408 Si / 1000 Ang^3
#
#
#
# Elastic Constant Matrix: (Units=GPa)
#
#
# Indices 1 2 3 4 5 6 
#
# 1 119.9068 72.8169 43.2970 0.0000 0.0000 0.0000
# 2 72.8169 119.9068 43.2970 0.0000 0.0000 0.0000
# 3 43.2970 43.2970 76.8681 0.0000 0.0000 0.0000
# 4 0.0000 0.0000 0.0000 25.7579 0.0000 0.0000
# 5 0.0000 0.0000 0.0000 0.0000 25.7579 0.0000
# 6 0.0000 0.0000 0.0000 0.0000 0.0000 30.8854
#
#
#
# Elastic Compliance Matrix: (Units=1/GPa)
#
#
# Indices 1 2 3 4 5 6 
#
# 1 0.014091 -0.007145 -0.003913 0.000000 0.000000 0.000000
# 2 -0.007145 0.014091 -0.003913 0.000000 0.000000 0.000000
# 3 -0.003913 -0.003913 0.017417 0.000000 0.000000 0.000000
# 4 0.000000 0.000000 0.000000 0.038823 0.000000 0.000000
# 5 0.000000 0.000000 0.000000 0.000000 0.038823 0.000000
# 6 0.000000 0.000000 0.000000 0.000000 0.000000 0.032378
#
#
# Mechanical properties :
#
#
# Convention : Reuss Voigt Hill
#
# Bulk Modulus (GPa) = 63.85940 70.61149 67.23544
# Shear Modulus (GPa) = 26.20753 26.96495 26.58624
#
# Velocity S-wave (km/s) = 3.76541 3.81943 3.79251
# Velocity P-wave (km/s) = 7.31111 7.59286 7.45332
#
# Compressibility (1/GPa) = 0.01565940
#
# Stress axis : x y z
#
# Youngs Moduli (GPa) = 70.96493 70.96493 57.41402
#
# Poissons Ratio (x) = 0.50701 0.22466
# Poissons Ratio (y) = 0.50701 0.22466
# Poissons Ratio (z) = 0.27768 0.27768
#
# Static dielectric constant tensor:
#      x y z
#    x 3.496890 0.000000 0.000000 
#    y 0.000000 3.496890 0.000000 
#    z 0.000000 0.000000 3.388580 
# 
# 
# High freq. dielectric constant tensor:
#      x y z
#    x 1.715070 0.000000 0.000000 
#    y 0.000000 1.715070 0.000000 
#    z 0.000000 0.000000 1.702540 
# 
# From -- ./inp_files/7081.got.cif
#   From: 2010.03.12/outbox.cif.g09.slc.cpg/sg138_4_cif.got.tgz:7081.got - 2010.04.08 09:41:05.
