data_PCOD8319064
_publ_section_title
;
Structure prediction by ZEFSAII (Michael W. Deem and Ramdas Pophale) SiO2 
 PCOD8319064
Probable space group: P 42/N C M
;
_chemical_formula_sum "Si O2"
_cell_formula_units_Z 96
_cell_length_a 15.351852
_cell_length_b 15.351852
_cell_length_c 19.942670
_cell_angle_alpha 90.000000
_cell_angle_beta 90.000000
_cell_angle_gamma 90.000000
_cell_volume 4700.075699
_symmetry_space_group_name_H-M "P 42/N C M"
_symmetry_group_IT_number 138
_space_group.IT_coordinate_system_code '2'
_symmetry_cell_setting 'tetragonal'
loop_
_space_group_symop_operation_xyz
x,y,z
1/2-y,x,1/2+z
1/2-x,1/2-y,z
y,1/2-x,1/2+z
1/2+x,-y,1/2-z
-x,1/2+y,1/2-z
1/2+y,1/2+x,-z
-y,-x,-z
-x,-y,-z
1/2+y,-x,1/2-z
1/2+x,1/2+y,-z
-y,1/2+x,1/2-z
1/2-x,y,1/2+z
x,1/2-y,1/2+z
1/2-y,1/2-x,z
y,x,z
loop_
_atom_site_type_symbol
_atom_site_label
_atom_site_fract_x
_atom_site_fract_y
_atom_site_fract_z
Si Si1 0.031124 0.779032 0.359376
Si Si2 0.692944 0.330380 0.166656
Si Si3 0.660537 0.981976 0.722768
Si Si4 0.886648 0.748196 0.460666
Si Si5 0.105841 0.837858 0.573688
Si Si6 0.719020 0.921235 0.104132
O O1 0.096014 0.699193 0.349005
O O2 0.086324 0.865118 0.375747
O O3 0.966874 0.799325 0.296869
O O4 0.977614 0.748743 0.423630
O O5 0.750000 0.250000 0.199288
O O6 0.672174 0.412897 0.214942
O O7 0.743531 0.359580 0.099092
O O8 0.562965 0.937036 0.719445
O O9 0.718491 0.936440 0.666720
O O10 0.825308 0.674693 0.428003
O O11 0.843336 0.843336 0.453965
O O12 0.897168 0.724090 0.539105
O O13 0.143205 0.856796 0.500000
O O14 0.002350 0.839519 0.579624
O O15 0.656264 0.843737 0.126782
#
# Coordination Sequence:
#
# PCOD8319064 Si02
#       6
#    16  16  16  16  16  16
#     4  11  23  38  61  92 125 161 206 265 323 383
#     4   9  23  39  65  91 125 168 213 260 328 394
#     4  11  25  42  61  91 130 170 217 270 324 392
#     4  10  21  39  61  86 119 158 203 257 316 378
#     4  10  20  40  65  98 126 156 206 267 328 392
#     4  10  22  41  66  91 122 167 214 263 325 398
#
# _framework density 20.425204000000001
#
# number of rings (size 3 to 8) (size 9 to 14) (size 15 to 20)
#    0.000    1.833    1.667    1.000    7.000    7.000 
#    0.000    0.000    0.000    3.000    0.000    0.000 
#    0.000    0.000    0.000    0.000    0.000    0.000 
#
# Total GULP energy -1189483.793909 kJ/mol
# GULP energy per Si atom -12390.456187 kJ/mol
# Density = 2.037872 g / cm^3
# Si number density = 20.425204 Si / 1000 Ang^3
#
#
#
# Elastic Constant Matrix: (Units=GPa)
#
#
# Indices 1 2 3 4 5 6 
#
# 1 96.4769 50.4057 38.5978 0.0000 0.0000 0.0000
# 2 50.4057 96.4771 38.5982 0.0000 0.0000 0.0000
# 3 38.5978 38.5982 105.2234 0.0000 0.0000 0.0000
# 4 0.0000 0.0000 0.0000 14.2089 0.0000 0.0000
# 5 0.0000 0.0000 0.0000 0.0000 14.2090 0.0000
# 6 0.0000 0.0000 0.0000 0.0000 0.0000 30.4787
#
#
#
# Elastic Compliance Matrix: (Units=1/GPa)
#
#
# Indices 1 2 3 4 5 6 
#
# 1 0.015070 -0.006636 -0.003094 0.000000 0.000000 0.000000
# 2 -0.006636 0.015070 -0.003094 0.000000 0.000000 0.000000
# 3 -0.003094 -0.003094 0.011773 0.000000 0.000000 0.000000
# 4 0.000000 0.000000 0.000000 0.070378 0.000000 0.000000
# 5 0.000000 0.000000 0.000000 0.000000 0.070378 0.000000
# 6 0.000000 0.000000 0.000000 0.000000 0.000000 0.032810
#
#
# Mechanical properties :
#
#
# Convention : Reuss Voigt Hill
#
# Bulk Modulus (GPa) = 61.47647 61.48673 61.48160
# Shear Modulus (GPa) = 20.28006 23.15104 21.71555
#
# Velocity S-wave (km/s) = 3.15444 3.37033 3.26417
# Velocity P-wave (km/s) = 6.59022 6.73159 6.66128
#
# Compressibility (1/GPa) = 0.01626639
#
# Stress axis : x y z
#
# Youngs Moduli (GPa) = 66.35781 66.35773 84.93773
#
# Poissons Ratio (x) = 0.44033 0.26278
# Poissons Ratio (y) = 0.44033 0.26278
# Poissons Ratio (z) = 0.20530 0.20530
#
# Static dielectric constant tensor:
#      x y z
#    x 3.755670 0.000000 0.000000 
#    y 0.000000 3.755670 0.000000 
#    z 0.000000 0.000000 3.755660 
# 
# 
# High freq. dielectric constant tensor:
#      x y z
#    x 1.794650 0.000000 0.000000 
#    y 0.000000 1.794650 0.000000 
#    z 0.000000 0.000000 1.807310 
# 
# From -- ./inp_files/6270.got.cif
#   From: 2010.03.12/outbox.cif.g09.slc.cpg/sg138_4_cif.got.tgz:6270.got - 2010.04.08 09:41:05.
