data_PCOD8319170
_publ_section_title
;
Structure prediction by ZEFSAII (Michael W. Deem and Ramdas Pophale) SiO2 
 PCOD8319170
Probable space group: P 42/N C M
;
_chemical_formula_sum "Si O2"
_cell_formula_units_Z 60
_cell_length_a 12.164359
_cell_length_b 12.164359
_cell_length_c 20.035632
_cell_angle_alpha 90.000000
_cell_angle_beta 90.000000
_cell_angle_gamma 90.000000
_cell_volume 2964.705123
_symmetry_space_group_name_H-M "P 42/N C M"
_symmetry_group_IT_number 138
_space_group.IT_coordinate_system_code '2'
_symmetry_cell_setting 'tetragonal'
loop_
_space_group_symop_operation_xyz
x,y,z
1/2-y,x,1/2+z
1/2-x,1/2-y,z
y,1/2-x,1/2+z
1/2+x,-y,1/2-z
-x,1/2+y,1/2-z
1/2+y,1/2+x,-z
-y,-x,-z
-x,-y,-z
1/2+y,-x,1/2-z
1/2+x,1/2+y,-z
-y,1/2+x,1/2-z
1/2-x,y,1/2+z
x,1/2-y,1/2+z
1/2-y,1/2-x,z
y,x,z
loop_
_atom_site_type_symbol
_atom_site_label
_atom_site_fract_x
_atom_site_fract_y
_atom_site_fract_z
Si Si1 0.250000 0.750000 0.000000
Si Si2 0.985018 0.985018 0.419640
Si Si3 0.376499 0.376499 0.318415
Si Si4 0.374377 0.125624 0.340997
Si Si5 0.660682 0.660682 0.015522
Si Si6 0.547504 0.952497 0.324390
Si Si7 0.025946 0.740298 0.420560
O O1 0.353877 0.740223 0.951942
O O2 0.009612 0.862747 0.393106
O O3 0.000000 0.000000 0.500000
O O4 0.066564 0.066564 0.381631
O O5 0.404505 0.248625 0.321306
O O6 0.414056 0.414056 0.246723
O O7 0.393476 0.106525 0.419832
O O8 0.457121 0.042880 0.305814
O O9 0.750000 0.750000 0.039716
O O10 0.721299 0.565556 0.976162
O O11 0.490778 0.851010 0.363476
#
# Coordination Sequence:
#
# PCOD8319170 Si02
#       7
#     4   8   8   8   8   8  16
#     4  12  24  40  64 110 136 180 210 296 344 396
#     4  12  23  42  70 105 132 175 232 290 338 401
#     4  11  27  43  70  94 134 185 232 281 338 422
#     4  11  24  46  69  91 134 176 231 276 337 420
#     4  11  19  42  68 102 123 174 219 280 336 411
#     4  11  28  46  64 102 134 193 218 285 346 419
#     4  11  25  40  69  99 145 168 227 276 351 411
#
# _framework density 20.238099999999999
#
# number of rings (size 3 to 8) (size 9 to 14) (size 15 to 20)
#    0.000    0.800    4.000    3.200    7.467    3.200 
#    0.000    0.000    0.000    0.000    0.000    0.000 
#    0.000    0.000    0.000    0.000    0.000    0.000 
#
# Total GULP energy -744012.609277 kJ/mol
# GULP energy per Si atom -12400.210155 kJ/mol
# Density = 2.019204 g / cm^3
# Si number density = 20.238100 Si / 1000 Ang^3
#
#
#
# Elastic Constant Matrix: (Units=GPa)
#
#
# Indices 1 2 3 4 5 6 
#
# 1 129.8460 105.5699 54.9983 0.0000 0.0000 0.0000
# 2 105.5699 129.8460 54.9983 0.0000 0.0000 0.0000
# 3 54.9983 54.9983 124.3654 0.0000 0.0000 0.0000
# 4 0.0000 0.0000 0.0000 32.5430 0.0000 0.0000
# 5 0.0000 0.0000 0.0000 0.0000 32.5430 0.0000
# 6 0.0000 0.0000 0.0000 0.0000 0.0000 41.6794
#
#
#
# Elastic Compliance Matrix: (Units=1/GPa)
#
#
# Indices 1 2 3 4 5 6 
#
# 1 0.023273 -0.017919 -0.002368 0.000000 0.000000 0.000000
# 2 -0.017919 0.023273 -0.002368 0.000000 0.000000 0.000000
# 3 -0.002368 -0.002368 0.010135 0.000000 0.000000 0.000000
# 4 0.000000 0.000000 0.000000 0.030729 0.000000 0.000000
# 5 0.000000 0.000000 0.000000 0.000000 0.030729 0.000000
# 6 0.000000 0.000000 0.000000 0.000000 0.000000 0.023993
#
#
# Mechanical properties :
#
#
# Convention : Reuss Voigt Hill
#
# Bulk Modulus (GPa) = 87.93358 90.57670 89.25514
# Shear Modulus (GPa) = 26.14623 32.58583 29.36603
#
# Velocity S-wave (km/s) = 3.59824 4.01699 3.81337
# Velocity P-wave (km/s) = 7.79788 8.14663 7.97416
#
# Compressibility (1/GPa) = 0.01137222
#
# Stress axis : x y z
#
# Youngs Moduli (GPa) = 42.96739 42.96739 98.66777
#
# Poissons Ratio (x) = 0.76995 0.23362
# Poissons Ratio (y) = 0.76995 0.23362
# Poissons Ratio (z) = 0.10174 0.10174
#
# Static dielectric constant tensor:
#      x y z
#    x 3.918310 0.000000 0.000000 
#    y 0.000000 3.918310 0.000000 
#    z 0.000000 0.000000 3.541300 
# 
# 
# High freq. dielectric constant tensor:
#      x y z
#    x 1.809030 0.000000 0.000000 
#    y 0.000000 1.809030 0.000000 
#    z 0.000000 0.000000 1.780460 
# 
# From -- ./inp_files/5923.got.cif
#   From: 2010.03.12/outbox.cif.g09.slc.cpg/sg138_3_cif.got.tgz:5923.got - 2010.04.08 09:41:05.
