data_PCOD8319890
_publ_section_title
;
Structure prediction by ZEFSAII (Michael W. Deem and Ramdas Pophale) SiO2 
 PCOD8319890
Probable space group: I 4/M M M
;
_chemical_formula_sum "Si O2"
_cell_formula_units_Z 192
_cell_length_a 22.708917
_cell_length_b 22.708917
_cell_length_c 22.687183
_cell_angle_alpha 90.000000
_cell_angle_beta 90.000000
_cell_angle_gamma 90.000000
_cell_volume 11699.664825
_symmetry_space_group_name_H-M "I 4/M M M"
_symmetry_group_IT_number 139
_symmetry_cell_setting 'tetragonal'
loop_
_space_group_symop_operation_xyz
x,y,z
-y,x,z
-x,-y,z
y,-x,z
x,-y,-z
-x,y,-z
y,x,-z
-y,-x,-z
-x,-y,-z
y,-x,-z
x,y,-z
-y,x,-z
-x,y,z
x,-y,z
-y,-x,z
y,x,z
1/2+x,1/2+y,1/2+z
1/2-y,1/2+x,1/2+z
1/2-x,1/2-y,1/2+z
1/2+y,1/2-x,1/2+z
1/2+x,1/2-y,1/2-z
1/2-x,1/2+y,1/2-z
1/2+y,1/2+x,1/2-z
1/2-y,1/2-x,1/2-z
1/2-x,1/2-y,1/2-z
1/2+y,1/2-x,1/2-z
1/2+x,1/2+y,1/2-z
1/2-y,1/2+x,1/2-z
1/2-x,1/2+y,1/2+z
1/2+x,1/2-y,1/2+z
1/2-y,1/2-x,1/2+z
1/2+y,1/2+x,1/2+z
loop_
_atom_site_type_symbol
_atom_site_label
_atom_site_fract_x
_atom_site_fract_y
_atom_site_fract_z
Si Si1 0.065241 0.430575 0.065036
Si Si2 0.207132 0.430938 0.736455
Si Si3 0.868678 0.648042 0.345693
Si Si4 0.066775 0.839367 0.400169
Si Si5 0.747046 0.843588 0.566636
Si Si6 0.339951 0.434186 0.239446
O O1 0.062917 0.500000 0.065055
O O2 0.110210 0.411806 0.114605
O O3 0.000000 0.405540 0.079132
O O4 0.085331 0.408231 0.000000
O O5 0.192360 0.500000 0.730290
O O6 0.179530 0.394633 0.682859
O O7 0.181200 0.408147 0.797863
O O8 0.276757 0.419094 0.732936
O O9 0.835521 0.694368 0.387348
O O10 0.103862 0.896138 0.422024
O O11 0.093340 0.779463 0.427169
O O12 0.069805 0.834123 0.330296
O O13 0.000000 0.846413 0.422744
O O14 0.723229 0.837182 0.500000
O O15 0.793206 0.793206 0.583008
O O16 0.359988 0.500000 0.257865
O O17 0.388100 0.388100 0.263864
#
# Coordination Sequence:
#
# PCOD8319890 Si02
#       6
#    32  32  32  32  32  32
#     4   9  18  32  49  69  92 117 151 199 245 284
#     4  10  21  33  47  71 100 125 155 199 239 282
#     4  11  20  32  51  69  91 128 164 191 236 295
#     4   9  17  30  47  67  94 125 157 196 240 282
#     4  10  21  35  49  69  96 124 161 207 244 276
#     4   9  17  31  49  69  96 125 155 193 234 278
#
# _framework density 16.410726
#
# number of rings (size 3 to 8) (size 9 to 14) (size 15 to 20)
#    0.000    2.333    1.667    2.000    0.000    2.000 
#    0.000    3.333    0.000    4.000    0.000    2.333 
#    0.000    0.000    0.000    0.000    0.000    0.500 
#
# Total GULP energy -1190262.395131 kJ/mol
# GULP energy per Si atom -12398.566616 kJ/mol
# Density = 1.637337 g / cm^3
# Si number density = 16.410726 Si / 1000 Ang^3
#
#
#
# Elastic Constant Matrix: (Units=GPa)
#
#
# Indices 1 2 3 4 5 6 
#
# 1 101.8616 57.9539 44.9798 0.0000 0.0000 0.0000
# 2 57.9539 101.8616 44.9798 0.0000 0.0000 0.0000
# 3 44.9798 44.9798 73.1448 0.0000 0.0000 0.0000
# 4 0.0000 0.0000 0.0000 15.8009 0.0000 0.0000
# 5 0.0000 0.0000 0.0000 0.0000 15.8009 0.0000
# 6 0.0000 0.0000 0.0000 0.0000 0.0000 24.5724
#
#
#
# Elastic Compliance Matrix: (Units=1/GPa)
#
#
# Indices 1 2 3 4 5 6 
#
# 1 0.016172 -0.006603 -0.005885 0.000000 0.000000 0.000000
# 2 -0.006603 0.016172 -0.005885 0.000000 0.000000 0.000000
# 3 -0.005885 -0.005885 0.020909 0.000000 0.000000 0.000000
# 4 0.000000 0.000000 0.000000 0.063287 0.000000 0.000000
# 5 0.000000 0.000000 0.000000 0.000000 0.063287 0.000000
# 6 0.000000 0.000000 0.000000 0.000000 0.000000 0.040696
#
#
# Mechanical properties :
#
#
# Convention : Reuss Voigt Hill
#
# Bulk Modulus (GPa) = 60.57182 63.63277 62.10230
# Shear Modulus (GPa) = 19.02785 19.83182 19.42983
#
# Velocity S-wave (km/s) = 3.40880 3.48007 3.44462
# Velocity P-wave (km/s) = 7.24453 7.41668 7.33111
#
# Compressibility (1/GPa) = 0.01650933
#
# Stress axis : x y z
#
# Youngs Moduli (GPa) = 61.83368 61.83368 47.82584
#
# Poissons Ratio (x) = 0.40826 0.28145
# Poissons Ratio (y) = 0.40826 0.28145
# Poissons Ratio (z) = 0.36388 0.36388
#
# Static dielectric constant tensor:
#      x y z
#    x 3.165960 0.000000 0.000000 
#    y 0.000000 3.165960 0.000000 
#    z 0.000000 0.000000 3.021470 
# 
# 
# High freq. dielectric constant tensor:
#      x y z
#    x 1.630040 0.000000 0.000000 
#    y 0.000000 1.630040 0.000000 
#    z 0.000000 0.000000 1.616230 
# 
# From -- ./inp_files/11905.got.cif
#   From: 2010.03.12/outbox.cif.g09.slc.cpg/sg139_6_cif.got.tgz:11905.got - 2010.04.08 09:46:31.
