data_PCOD8319390
_publ_section_title
;
Structure prediction by ZEFSAII (Michael W. Deem and Ramdas Pophale) SiO2 
 PCOD8319390
Probable space group: I 4/M M M
;
_chemical_formula_sum "Si O2"
_cell_formula_units_Z 208
_cell_length_a 20.942153
_cell_length_b 20.942153
_cell_length_c 31.164322
_cell_angle_alpha 90.000000
_cell_angle_beta 90.000000
_cell_angle_gamma 90.000000
_cell_volume 13667.854260
_symmetry_space_group_name_H-M "I 4/M M M"
_symmetry_group_IT_number 139
_symmetry_cell_setting 'tetragonal'
loop_
_space_group_symop_operation_xyz
x,y,z
-y,x,z
-x,-y,z
y,-x,z
x,-y,-z
-x,y,-z
y,x,-z
-y,-x,-z
-x,-y,-z
y,-x,-z
x,y,-z
-y,x,-z
-x,y,z
x,-y,z
-y,-x,z
y,x,z
1/2+x,1/2+y,1/2+z
1/2-y,1/2+x,1/2+z
1/2-x,1/2-y,1/2+z
1/2+y,1/2-x,1/2+z
1/2+x,1/2-y,1/2-z
1/2-x,1/2+y,1/2-z
1/2+y,1/2+x,1/2-z
1/2-y,1/2-x,1/2-z
1/2-x,1/2-y,1/2-z
1/2+y,1/2-x,1/2-z
1/2+x,1/2+y,1/2-z
1/2-y,1/2+x,1/2-z
1/2-x,1/2+y,1/2+z
1/2+x,1/2-y,1/2+z
1/2-y,1/2-x,1/2+z
1/2+y,1/2+x,1/2+z
loop_
_atom_site_type_symbol
_atom_site_label
_atom_site_fract_x
_atom_site_fract_y
_atom_site_fract_z
Si Si1 0.574477 0.801895 0.451748
Si Si2 0.073327 0.573327 0.250000
Si Si3 0.751116 0.649835 0.770404
Si Si4 0.675496 0.426443 0.297342
Si Si5 0.125351 0.357447 0.328058
Si Si6 0.570817 0.927056 0.095228
Si Si7 0.760433 0.135848 0.127320
O O1 0.599048 0.789958 0.500000
O O2 0.500000 0.787014 0.447663
O O3 0.588512 0.875971 0.440391
O O4 0.611030 0.753261 0.420528
O O5 0.085814 0.500000 0.237424
O O6 0.118086 0.590992 0.290074
O O7 0.690663 0.690663 0.787515
O O8 0.802926 0.697075 0.750000
O O9 0.729809 0.599454 0.734652
O O10 0.785869 0.611963 0.809556
O O11 0.663857 0.500000 0.288557
O O12 0.609179 0.390821 0.287995
O O13 0.696436 0.414750 0.346651
O O14 0.076666 0.377511 0.365467
O O15 0.196201 0.356769 0.346242
O O16 0.500000 0.918764 0.075102
O O17 0.580321 0.000000 0.112064
O O18 0.796061 0.203940 0.124571
#
# Coordination Sequence:
#
# PCOD8319390 Si02
#       7
#    32  16  32  32  32  32  32
#     4   9  18  31  47  66  85 107 136 170 209 255
#     4  11  22  30  37  56  88 122 153 182 212 243
#     4  10  18  31  45  62  86 112 145 182 218 258
#     4  10  20  32  47  65  85 113 146 180 219 260
#     4  11  18  28  42  60  83 114 144 181 212 251
#     4   9  18  30  42  59  86 117 147 176 205 242
#     4  10  19  31  47  65  84 107 136 173 220 264
#
# _framework density 15.21819
#
# number of rings (size 3 to 8) (size 9 to 14) (size 15 to 20)
#    0.000    2.077    2.308    1.846    0.000    6.308 
#    0.000    1.538    0.000    0.000    0.000    0.000 
#    0.000    0.000    0.000   14.308    0.000    0.000 
#
# Total GULP energy -1289127.332961 kJ/mol
# GULP energy per Si atom -12395.455125 kJ/mol
# Density = 1.518355 g / cm^3
# Si number density = 15.218190 Si / 1000 Ang^3
#
#
#
# Elastic Constant Matrix: (Units=GPa)
#
#
# Indices 1 2 3 4 5 6 
#
# 1 80.4962 37.3482 40.5195 0.0000 0.0000 0.0000
# 2 37.3482 80.4953 40.5189 0.0000 0.0000 0.0000
# 3 40.5195 40.5189 97.6173 0.0000 0.0000 0.0000
# 4 0.0000 0.0000 0.0000 17.7668 0.0000 0.0000
# 5 0.0000 0.0000 0.0000 0.0000 17.7668 0.0000
# 6 0.0000 0.0000 0.0000 0.0000 0.0000 22.7870
#
#
#
# Elastic Compliance Matrix: (Units=1/GPa)
#
#
# Indices 1 2 3 4 5 6 
#
# 1 0.017526 -0.005650 -0.004929 0.000000 0.000000 0.000000
# 2 -0.005650 0.017526 -0.004929 0.000000 0.000000 0.000000
# 3 -0.004929 -0.004929 0.014336 0.000000 0.000000 0.000000
# 4 0.000000 0.000000 0.000000 0.056285 0.000000 0.000000
# 5 0.000000 0.000000 0.000000 0.000000 0.056285 0.000000
# 6 0.000000 0.000000 0.000000 0.000000 0.000000 0.043885
#
#
# Mechanical properties :
#
#
# Convention : Reuss Voigt Hill
#
# Bulk Modulus (GPa) = 54.43644 55.04245 54.73944
# Shear Modulus (GPa) = 20.57750 21.01226 20.79488
#
# Velocity S-wave (km/s) = 3.68117 3.71985 3.70056
# Velocity P-wave (km/s) = 7.34277 7.39575 7.36931
#
# Compressibility (1/GPa) = 0.01837005
#
# Stress axis : x y z
#
# Youngs Moduli (GPa) = 57.05841 57.05805 69.75320
#
# Poissons Ratio (x) = 0.32240 0.34384
# Poissons Ratio (y) = 0.32240 0.34383
# Poissons Ratio (z) = 0.28126 0.28126
#
# Static dielectric constant tensor:
#      x y z
#    x 2.913020 0.000000 0.000000 
#    y 0.000000 2.913020 0.000000 
#    z 0.000000 0.000000 2.958090 
# 
# 
# High freq. dielectric constant tensor:
#      x y z
#    x 1.572480 0.000000 0.000000 
#    y 0.000000 1.572480 0.000000 
#    z 0.000000 0.000000 1.570550 
# 
# From -- ./inp_files/14517.got.cif
#   From: 2010.03.12/outbox.cif.g09.slc.cpg/sg139_8_cif.got.tgz:14517.got - 2010.04.08 09:46:31.
