data_PCOD8319039
_publ_section_title
;
Structure prediction by ZEFSAII (Michael W. Deem and Ramdas Pophale) SiO2 
 PCOD8319039
Probable space group: P 42/N C M
;
_chemical_formula_sum "Si O2"
_cell_formula_units_Z 116
_cell_length_a 17.878687
_cell_length_b 17.878687
_cell_length_c 18.120873
_cell_angle_alpha 90.000000
_cell_angle_beta 90.000000
_cell_angle_gamma 90.000000
_cell_volume 5792.290825
_symmetry_space_group_name_H-M "P 42/N C M"
_symmetry_group_IT_number 138
_space_group.IT_coordinate_system_code '2'
_symmetry_cell_setting 'tetragonal'
loop_
_space_group_symop_operation_xyz
x,y,z
1/2-y,x,1/2+z
1/2-x,1/2-y,z
y,1/2-x,1/2+z
1/2+x,-y,1/2-z
-x,1/2+y,1/2-z
1/2+y,1/2+x,-z
-y,-x,-z
-x,-y,-z
1/2+y,-x,1/2-z
1/2+x,1/2+y,-z
-y,1/2+x,1/2-z
1/2-x,y,1/2+z
x,1/2-y,1/2+z
1/2-y,1/2-x,z
y,x,z
loop_
_atom_site_type_symbol
_atom_site_label
_atom_site_fract_x
_atom_site_fract_y
_atom_site_fract_z
Si Si1 0.570585 0.696985 0.688443
Si Si2 0.632897 0.754325 0.832368
Si Si3 0.065347 0.554331 0.339874
Si Si4 0.168131 0.600549 0.768691
Si Si5 0.997788 0.199333 0.078414
Si Si6 0.054546 0.176101 0.921325
Si Si7 0.750000 0.250000 0.000000
Si Si8 0.229061 0.637069 0.131129
O O1 0.620077 0.620077 0.683563
O O2 0.599194 0.753310 0.750723
O O3 0.484459 0.683966 0.709129
O O4 0.577019 0.743876 0.613006
O O5 0.660221 0.839780 0.850897
O O6 0.705996 0.705996 0.832749
O O7 0.579032 0.716472 0.891063
O O8 0.101280 0.584540 0.264400
O O9 0.041700 0.624078 0.391454
O O10 0.128062 0.500465 0.371239
O O11 0.989592 0.510409 0.322773
O O12 0.168319 0.648342 0.844262
O O13 0.220759 0.638972 0.706164
O O14 0.947972 0.270877 0.102131
O O15 0.004595 0.192102 0.991940
O O16 0.129539 0.129539 0.939901
O O17 0.744212 0.318709 0.942174
#
# Coordination Sequence:
#
# PCOD8319039 Si02
#       8
#    16  16  16  16  16  16   4  16
#     4  11  23  42  66  93 127 170 220 274 326 384
#     4  10  20  38  63  92 128 169 214 260 312 377
#     4  10  20  36  64  96 128 165 212 271 325 378
#     4  11  22  42  65  92 127 166 213 267 322 389
#     4  11  23  39  63  94 131 170 211 264 322 383
#     4  11  24  38  62  95 131 168 214 269 323 386
#     4  12  28  42  64  96 128 174 212 264 336 384
#     4  11  25  40  66  93 129 169 212 268 322 395
#
# _framework density 20.026619
#
# number of rings (size 3 to 8) (size 9 to 14) (size 15 to 20)
#    0.000    1.241    2.759    4.138    5.793    2.483 
#    0.000    0.690    0.000    0.828    0.000    0.000 
#    0.000    0.000    0.000    0.000    0.000    0.000 
#
# Total GULP energy -1437055.677843 kJ/mol
# GULP energy per Si atom -12388.411016 kJ/mol
# Density = 1.998104 g / cm^3
# Si number density = 20.026619 Si / 1000 Ang^3
#
#
#
# Elastic Constant Matrix: (Units=GPa)
#
#
# Indices 1 2 3 4 5 6 
#
# 1 85.9243 45.7228 37.4852 0.0000 0.0000 0.0000
# 2 45.7228 85.9243 37.4852 0.0000 0.0000 0.0000
# 3 37.4852 37.4852 90.6248 0.0000 0.0000 0.0000
# 4 0.0000 0.0000 0.0000 26.0337 0.0000 0.0000
# 5 0.0000 0.0000 0.0000 0.0000 26.0337 0.0000
# 6 0.0000 0.0000 0.0000 0.0000 0.0000 100.4169
#
#
#
# Elastic Compliance Matrix: (Units=1/GPa)
#
#
# Indices 1 2 3 4 5 6 
#
# 1 0.017406 -0.007469 -0.004110 0.000000 0.000000 0.000000
# 2 -0.007469 0.017406 -0.004110 0.000000 0.000000 0.000000
# 3 -0.004110 -0.004110 0.014435 0.000000 0.000000 0.000000
# 4 0.000000 0.000000 0.000000 0.038412 0.000000 0.000000
# 5 0.000000 0.000000 0.000000 0.000000 0.038412 0.000000
# 6 0.000000 0.000000 0.000000 0.000000 0.000000 0.009958
#
#
# Mechanical properties :
#
#
# Convention : Reuss Voigt Hill
#
# Bulk Modulus (GPa) = 55.96732 55.98438 55.97585
# Shear Modulus (GPa) = 28.84132 39.94888 34.39510
#
# Velocity S-wave (km/s) = 3.79905 4.47115 4.14873
# Velocity P-wave (km/s) = 6.87392 7.39396 7.13868
#
# Compressibility (1/GPa) = 0.01786757
#
# Stress axis : x y z
#
# Youngs Moduli (GPa) = 57.45250 57.45250 69.27772
#
# Poissons Ratio (x) = 0.42911 0.28474
# Poissons Ratio (y) = 0.42911 0.28474
# Poissons Ratio (z) = 0.23614 0.23614
#
# Static dielectric constant tensor:
#      x y z
#    x 3.823790 0.000000 0.000000 
#    y 0.000000 3.823790 0.000000 
#    z 0.000000 0.000000 3.692030 
# 
# 
# High freq. dielectric constant tensor:
#      x y z
#    x 1.785010 0.000000 0.000000 
#    y 0.000000 1.785010 0.000000 
#    z 0.000000 0.000000 1.777160 
# 
# From -- ./inp_files/5354.got.cif
#   From: 2010.03.12/outbox.cif.g09.slc.cpg/sg138_3_cif.got.tgz:5354.got - 2010.04.08 09:41:05.
