data_PCOD8319433
_publ_section_title
;
Structure prediction by ZEFSAII (Michael W. Deem and Ramdas Pophale) SiO2 
 PCOD8319433
Probable space group: I 4/M M M
;
_chemical_formula_sum "Si O2"
_cell_formula_units_Z 128
_cell_length_a 28.428572
_cell_length_b 28.428572
_cell_length_c 10.224839
_cell_angle_alpha 90.000000
_cell_angle_beta 90.000000
_cell_angle_gamma 90.000000
_cell_volume 8263.548276
_symmetry_space_group_name_H-M "I 4/M M M"
_symmetry_group_IT_number 139
_symmetry_cell_setting 'tetragonal'
loop_
_space_group_symop_operation_xyz
x,y,z
-y,x,z
-x,-y,z
y,-x,z
x,-y,-z
-x,y,-z
y,x,-z
-y,-x,-z
-x,-y,-z
y,-x,-z
x,y,-z
-y,x,-z
-x,y,z
x,-y,z
-y,-x,z
y,x,z
1/2+x,1/2+y,1/2+z
1/2-y,1/2+x,1/2+z
1/2-x,1/2-y,1/2+z
1/2+y,1/2-x,1/2+z
1/2+x,1/2-y,1/2-z
1/2-x,1/2+y,1/2-z
1/2+y,1/2+x,1/2-z
1/2-y,1/2-x,1/2-z
1/2-x,1/2-y,1/2-z
1/2+y,1/2-x,1/2-z
1/2+x,1/2+y,1/2-z
1/2-y,1/2+x,1/2-z
1/2-x,1/2+y,1/2+z
1/2+x,1/2-y,1/2+z
1/2-y,1/2-x,1/2+z
1/2+y,1/2+x,1/2+z
loop_
_atom_site_type_symbol
_atom_site_label
_atom_site_fract_x
_atom_site_fract_y
_atom_site_fract_z
Si Si1 0.107695 0.892306 0.852455
Si Si2 0.614804 0.055189 0.350129
Si Si3 0.945675 0.945675 0.638748
Si Si4 0.797775 0.054611 0.850173
Si Si5 0.779592 0.444342 0.855846
O O1 0.076015 0.923986 0.764537
O O2 0.161430 0.906959 0.824133
O O3 0.094608 0.905393 0.000000
O O4 0.600317 0.066463 0.500000
O O5 0.580650 0.080650 0.250000
O O6 0.667892 0.073617 0.323952
O O7 0.610817 0.000000 0.322898
O O8 0.925564 0.925564 0.500000
O O9 0.000000 0.934535 0.643724
O O10 0.756065 0.072464 0.756403
O O11 0.812932 0.000000 0.819325
O O12 0.780548 0.057731 0.000000
O O13 0.781018 0.500000 0.859887
O O14 0.763646 0.425778 0.000000
#
# Coordination Sequence:
#
# PCOD8319433 Si02
#       5
#    16  32  16  32  32
#     4  10  19  29  41  60  85 109 136 175 223 271
#     4   9  18  31  46  67  95 124 152 179 207 243
#     4   9  18  30  40  52  74 105 141 177 210 253
#     4   9  17  28  42  61  84 110 142 179 218 262
#     4   8  15  29  46  62  83 112 145 180 215 250
#
# _framework density 15.489713
#
# number of rings (size 3 to 8) (size 9 to 14) (size 15 to 20)
#    0.000    3.125    0.000    2.625    0.000    4.250 
#    0.000    6.875    0.000    0.000    0.000    0.875 
#    0.000    0.000    0.000    0.000    0.000    0.000 
#
# Total GULP energy -792922.576827 kJ/mol
# GULP energy per Si atom -12389.415263 kJ/mol
# Density = 1.545446 g / cm^3
# Si number density = 15.489713 Si / 1000 Ang^3
#
#
#
# Elastic Constant Matrix: (Units=GPa)
#
#
# Indices 1 2 3 4 5 6 
#
# 1 -22.7448 132.6439 63.8609 0.0000 0.0000 0.0000
# 2 132.6439 -22.7432 63.8822 0.0000 0.0000 0.0000
# 3 63.8609 63.8822 116.9747 0.0000 0.0000 0.0000
# 4 0.0000 0.0000 0.0000 30.8289 0.0000 0.0000
# 5 0.0000 0.0000 0.0000 0.0000 30.8284 0.0000
# 6 0.0000 0.0000 0.0000 0.0000 0.0000 12.9714
#
#
#
# Elastic Compliance Matrix: (Units=1/GPa)
#
#
# Indices 1 2 3 4 5 6 
#
# 1 0.009238 0.015672 -0.013602 0.000000 0.000000 0.000000
# 2 0.015672 0.009234 -0.013599 0.000000 0.000000 0.000000
# 3 -0.013602 -0.013599 0.023401 0.000000 0.000000 0.000000
# 4 0.000000 0.000000 0.000000 0.032437 0.000000 0.000000
# 5 0.000000 0.000000 0.000000 0.000000 0.032438 0.000000
# 6 0.000000 0.000000 0.000000 0.000000 0.000000 0.077093
#
#
# Mechanical properties :
#
#
# Convention : Reuss Voigt Hill
#
# Bulk Modulus (GPa) = 53.14843 65.80675 59.47759
# Shear Modulus (GPa) = 23.45541 2.33236 12.89389
#
# Velocity S-wave (km/s) = 3.89557 1.22842 2.88829
# Velocity P-wave (km/s) = 7.39057 6.67746 7.04304
#
# Compressibility (1/GPa) = 0.01881523
#
# Stress axis : x y z
#
# Youngs Moduli (GPa) = 108.25147 108.29233 42.73307
#
# Poissons Ratio (x) = -1.69710 0.58124
# Poissons Ratio (y) = -1.69646 0.58111
# Poissons Ratio (z) = 1.47241 1.47263
#
# Static dielectric constant tensor:
#      x y z
#    x 2.865460 0.000000 0.000000 
#    y 0.000000 2.865460 0.000000 
#    z 0.000000 0.000000 3.275930 
# 
# 
# High freq. dielectric constant tensor:
#      x y z
#    x 1.567010 0.000000 0.000000 
#    y 0.000000 1.567010 0.000000 
#    z 0.000000 0.000000 1.612760 
# 
# From -- ./inp_files/1839.got.cif
#   From: 2010.03.12/outbox.cif.g09.slc.cpg/sg139_1_cif.got.tgz:1839.got - 2010.04.08 09:46:31.
