data_PCOD8319442
_publ_section_title
;
Structure prediction by ZEFSAII (Michael W. Deem and Ramdas Pophale) SiO2 
 PCOD8319442
Probable space group: I 4/M M M
;
_chemical_formula_sum "Si O2"
_cell_formula_units_Z 128
_cell_length_a 28.769485
_cell_length_b 28.769485
_cell_length_c 9.326645
_cell_angle_alpha 90.000000
_cell_angle_beta 90.000000
_cell_angle_gamma 90.000000
_cell_volume 7719.508005
_symmetry_space_group_name_H-M "I 4/M M M"
_symmetry_group_IT_number 139
_symmetry_cell_setting 'tetragonal'
loop_
_space_group_symop_operation_xyz
x,y,z
-y,x,z
-x,-y,z
y,-x,z
x,-y,-z
-x,y,-z
y,x,-z
-y,-x,-z
-x,-y,-z
y,-x,-z
x,y,-z
-y,x,-z
-x,y,z
x,-y,z
-y,-x,z
y,x,z
1/2+x,1/2+y,1/2+z
1/2-y,1/2+x,1/2+z
1/2-x,1/2-y,1/2+z
1/2+y,1/2-x,1/2+z
1/2+x,1/2-y,1/2-z
1/2-x,1/2+y,1/2-z
1/2+y,1/2+x,1/2-z
1/2-y,1/2-x,1/2-z
1/2-x,1/2-y,1/2-z
1/2+y,1/2-x,1/2-z
1/2+x,1/2+y,1/2-z
1/2-y,1/2+x,1/2-z
1/2-x,1/2+y,1/2+z
1/2+x,1/2-y,1/2+z
1/2-y,1/2-x,1/2+z
1/2+y,1/2+x,1/2+z
loop_
_atom_site_type_symbol
_atom_site_label
_atom_site_fract_x
_atom_site_fract_y
_atom_site_fract_z
Si Si1 0.446608 0.297928 0.837591
Si Si2 0.380475 0.055159 0.334864
Si Si3 0.449764 0.449764 0.668253
Si Si4 0.111880 0.888121 0.341296
Si Si5 0.945121 0.708109 0.839062
O O1 0.500000 0.315933 0.801696
O O2 0.404302 0.334911 0.820899
O O3 0.431396 0.256880 0.732274
O O4 0.447061 0.279045 0.000000
O O5 0.380563 0.071759 0.500000
O O6 0.424336 0.075665 0.250000
O O7 0.333814 0.074345 0.258181
O O8 0.384184 0.000000 0.325248
O O9 0.500000 0.435513 0.730266
O O10 0.451846 0.451846 0.500000
O O11 0.412953 0.412953 0.712881
O O12 0.095629 0.904372 0.500000
O O13 0.000000 0.703636 0.846471
O O14 0.924009 0.705708 0.000000
#
# Coordination Sequence:
#
# PCOD8319442 Si02
#       5
#    32  32  16  16  32
#     4   9  17  29  44  63  89 119 152 193 240 286
#     4  10  20  33  50  73 102 134 164 193 224 259
#     4   9  18  30  40  52  76 111 147 183 226 279
#     4  10  19  29  43  64  87 113 148 191 238 287
#     4   9  17  30  48  68  90 119 157 197 234 273
#
# _framework density 16.581368000000001
#
# number of rings (size 3 to 8) (size 9 to 14) (size 15 to 20)
#    0.000    2.625    0.000    2.625    0.000    7.250 
#    0.000    4.375    0.000    0.000    0.000    0.875 
#    0.000    0.000    0.000    0.000    0.000    0.000 
#
# Total GULP energy -792875.874274 kJ/mol
# GULP energy per Si atom -12388.685536 kJ/mol
# Density = 1.654363 g / cm^3
# Si number density = 16.581368 Si / 1000 Ang^3
#
#
#
# Elastic Constant Matrix: (Units=GPa)
#
#
# Indices 1 2 3 4 5 6 
#
# 1 60.3824 30.9264 46.7026 0.0000 0.0000 0.0000
# 2 30.9264 60.3976 46.7056 0.0000 0.0000 0.0000
# 3 46.7026 46.7056 121.4642 0.0000 0.0000 0.0000
# 4 0.0000 0.0000 0.0000 27.0836 0.0000 0.0000
# 5 0.0000 0.0000 0.0000 0.0000 27.0834 0.0000
# 6 0.0000 0.0000 0.0000 0.0000 0.0000 13.4580
#
#
#
# Elastic Compliance Matrix: (Units=1/GPa)
#
#
# Indices 1 2 3 4 5 6 
#
# 1 0.025999 -0.007945 -0.006942 0.000000 0.000000 0.000000
# 2 -0.007945 0.025991 -0.006939 0.000000 0.000000 0.000000
# 3 -0.006942 -0.006939 0.013570 0.000000 0.000000 0.000000
# 4 0.000000 0.000000 0.000000 0.036923 0.000000 0.000000
# 5 0.000000 0.000000 0.000000 0.000000 0.036923 0.000000
# 6 0.000000 0.000000 0.000000 0.000000 0.000000 0.074305
#
#
# Mechanical properties :
#
#
# Convention : Reuss Voigt Hill
#
# Bulk Modulus (GPa) = 45.64335 54.54593 50.09464
# Shear Modulus (GPa) = 18.89166 21.38564 20.13865
#
# Velocity S-wave (km/s) = 3.37906 3.59519 3.48880
# Velocity P-wave (km/s) = 6.54299 7.08528 6.81953
#
# Compressibility (1/GPa) = 0.02190900
#
# Stress axis : x y z
#
# Youngs Moduli (GPa) = 38.46260 38.47429 73.69029
#
# Poissons Ratio (x) = 0.30567 0.51154
# Poissons Ratio (y) = 0.30558 0.51137
# Poissons Ratio (z) = 0.26700 0.26699
#
# Static dielectric constant tensor:
#      x y z
#    x 2.962830 0.000000 0.000000 
#    y 0.000000 2.962820 0.000000 
#    z 0.000000 0.000000 3.356420 
# 
# 
# High freq. dielectric constant tensor:
#      x y z
#    x 1.612210 0.000000 0.000000 
#    y 0.000000 1.612210 0.000000 
#    z 0.000000 0.000000 1.654830 
# 
# From -- ./inp_files/1842.got.cif
#   From: 2010.03.12/outbox.cif.g09.slc.cpg/sg139_1_cif.got.tgz:1842.got - 2010.04.08 09:46:31.
