data_PCOD8319147
_publ_section_title
;
Structure prediction by ZEFSAII (Michael W. Deem and Ramdas Pophale) SiO2 
 PCOD8319147
Probable space group: P 42/N C M
;
_chemical_formula_sum "Si O2"
_cell_formula_units_Z 72
_cell_length_a 18.992679
_cell_length_b 18.992679
_cell_length_c 9.570386
_cell_angle_alpha 90.000000
_cell_angle_beta 90.000000
_cell_angle_gamma 90.000000
_cell_volume 3452.247397
_symmetry_space_group_name_H-M "P 42/N C M"
_symmetry_group_IT_number 138
_space_group.IT_coordinate_system_code '2'
_symmetry_cell_setting 'tetragonal'
loop_
_space_group_symop_operation_xyz
x,y,z
1/2-y,x,1/2+z
1/2-x,1/2-y,z
y,1/2-x,1/2+z
1/2+x,-y,1/2-z
-x,1/2+y,1/2-z
1/2+y,1/2+x,-z
-y,-x,-z
-x,-y,-z
1/2+y,-x,1/2-z
1/2+x,1/2+y,-z
-y,1/2+x,1/2-z
1/2-x,y,1/2+z
x,1/2-y,1/2+z
1/2-y,1/2-x,z
y,x,z
loop_
_atom_site_type_symbol
_atom_site_label
_atom_site_fract_x
_atom_site_fract_y
_atom_site_fract_z
Si Si1 0.884914 0.104398 0.667077
Si Si2 0.619562 0.619562 0.801993
Si Si3 0.457789 0.765867 0.739774
Si Si4 0.519176 0.519176 0.655846
Si Si5 0.691052 0.691052 0.565497
Si Si6 0.551875 0.733885 0.979482
O O1 0.885162 0.114839 0.500000
O O2 0.896179 0.175920 0.755669
O O3 0.809926 0.075076 0.713470
O O4 0.947850 0.052161 0.720127
O O5 0.579170 0.579170 0.676206
O O6 0.673102 0.673102 0.726327
O O7 0.565639 0.660716 0.900423
O O8 0.493203 0.775031 0.891667
O O9 0.519875 0.782485 0.630570
O O10 0.500000 0.500000 0.500000
O O11 0.750000 0.750000 0.567686
O O12 0.719626 0.622161 0.487392
#
# Coordination Sequence:
#
# PCOD8319147 Si02
#       6
#    16   8  16   8   8  16
#     4  11  24  46  74 104 140 188 239 291 362 424
#     4  12  24  44  67 102 149 186 241 296 340 439
#     4  12  26  47  72 105 140 185 243 299 360 420
#     4  10  22  43  72  96 134 195 240 283 351 428
#     4  12  26  39  65 102 148 191 228 275 366 436
#     4  12  25  44  69 102 145 186 234 295 353 425
#
# _framework density 20.855979000000001
#
# number of rings (size 3 to 8) (size 9 to 14) (size 15 to 20)
#    0.000    0.444    7.778    0.000    4.667    3.111 
#    0.000    2.222    0.000    0.000    0.000    0.000 
#    0.000    0.000    0.000    0.000    0.000    0.000 
#
# Total GULP energy -892604.688958 kJ/mol
# GULP energy per Si atom -12397.287347 kJ/mol
# Density = 2.080851 g / cm^3
# Si number density = 20.855979 Si / 1000 Ang^3
#
#
#
# Elastic Constant Matrix: (Units=GPa)
#
#
# Indices 1 2 3 4 5 6 
#
# 1 129.4081 72.5142 45.3258 0.0000 0.0000 0.0000
# 2 72.5142 129.4075 45.3261 0.0000 0.0000 0.0000
# 3 45.3258 45.3261 70.8242 0.0000 0.0000 0.0000
# 4 0.0000 0.0000 0.0000 35.9277 0.0000 0.0000
# 5 0.0000 0.0000 0.0000 0.0000 35.9277 0.0000
# 6 0.0000 0.0000 0.0000 0.0000 0.0000 39.6091
#
#
#
# Elastic Compliance Matrix: (Units=1/GPa)
#
#
# Indices 1 2 3 4 5 6 
#
# 1 0.012263 -0.005314 -0.004447 0.000000 0.000000 0.000000
# 2 -0.005314 0.012263 -0.004447 0.000000 0.000000 0.000000
# 3 -0.004447 -0.004447 0.019812 0.000000 0.000000 0.000000
# 4 0.000000 0.000000 0.000000 0.027834 0.000000 0.000000
# 5 0.000000 0.000000 0.000000 0.000000 0.027834 0.000000
# 6 0.000000 0.000000 0.000000 0.000000 0.000000 0.025247
#
#
# Mechanical properties :
#
#
# Convention : Reuss Voigt Hill
#
# Bulk Modulus (GPa) = 62.81073 72.88579 67.84826
# Shear Modulus (GPa) = 31.45153 33.39113 32.42133
#
# Velocity S-wave (km/s) = 3.88755 4.00563 3.94704
# Velocity P-wave (km/s) = 7.09454 7.51109 7.30579
#
# Compressibility (1/GPa) = 0.01592085
#
# Stress axis : x y z
#
# Youngs Moduli (GPa) = 81.54785 81.54698 50.47533
#
# Poissons Ratio (x) = 0.43333 0.22447
# Poissons Ratio (y) = 0.43333 0.22448
# Poissons Ratio (z) = 0.36265 0.36266
#
# Static dielectric constant tensor:
#      x y z
#    x 3.911650 0.000000 0.000000 
#    y 0.000000 3.911650 0.000000 
#    z 0.000000 0.000000 3.763840 
# 
# 
# High freq. dielectric constant tensor:
#      x y z
#    x 1.823360 0.000000 0.000000 
#    y 0.000000 1.823360 0.000000 
#    z 0.000000 0.000000 1.810680 
# 
# From -- ./inp_files/1556.got.cif
#   From: 2010.03.12/outbox.cif.g09.slc.cpg/sg138_1_cif.got.tgz:1556.got - 2010.04.08 09:41:05.
