data_PCOD8319342
_publ_section_title
;
Structure prediction by ZEFSAII (Michael W. Deem and Ramdas Pophale) SiO2 
 PCOD8319342
Probable space group: I 4/M M M
;
_chemical_formula_sum "Si O2"
_cell_formula_units_Z 144
_cell_length_a 22.437311
_cell_length_b 22.437311
_cell_length_c 17.804873
_cell_angle_alpha 90.000000
_cell_angle_beta 90.000000
_cell_angle_gamma 90.000000
_cell_volume 8963.559292
_symmetry_space_group_name_H-M "I 4/M M M"
_symmetry_group_IT_number 139
_symmetry_cell_setting 'tetragonal'
loop_
_space_group_symop_operation_xyz
x,y,z
-y,x,z
-x,-y,z
y,-x,z
x,-y,-z
-x,y,-z
y,x,-z
-y,-x,-z
-x,-y,-z
y,-x,-z
x,y,-z
-y,x,-z
-x,y,z
x,-y,z
-y,-x,z
y,x,z
1/2+x,1/2+y,1/2+z
1/2-y,1/2+x,1/2+z
1/2-x,1/2-y,1/2+z
1/2+y,1/2-x,1/2+z
1/2+x,1/2-y,1/2-z
1/2-x,1/2+y,1/2-z
1/2+y,1/2+x,1/2-z
1/2-y,1/2-x,1/2-z
1/2-x,1/2-y,1/2-z
1/2+y,1/2-x,1/2-z
1/2+x,1/2+y,1/2-z
1/2-y,1/2+x,1/2-z
1/2-x,1/2+y,1/2+z
1/2+x,1/2-y,1/2+z
1/2-y,1/2-x,1/2+z
1/2+y,1/2+x,1/2+z
loop_
_atom_site_type_symbol
_atom_site_label
_atom_site_fract_x
_atom_site_fract_y
_atom_site_fract_z
Si Si1 0.190251 0.286356 0.086995
Si Si2 0.566302 0.265563 0.584944
Si Si3 0.162962 0.067165 0.229301
Si Si4 0.432336 0.332174 0.000000
Si Si5 0.223010 0.876042 0.638537
O O1 0.225872 0.225872 0.111871
O O2 0.119472 0.280558 0.102783
O O3 0.211978 0.345060 0.132202
O O4 0.203237 0.298559 0.000000
O O5 0.574113 0.290288 0.500000
O O6 0.500000 0.235972 0.594441
O O7 0.572135 0.320596 0.641800
O O8 0.103028 0.103028 0.246103
O O9 0.216977 0.092660 0.280316
O O10 0.149640 0.000000 0.253431
O O11 0.423041 0.290274 0.927265
O O12 0.500000 0.355530 0.000000
O O13 0.389888 0.389888 0.000000
O O14 0.177220 0.822781 0.627727
#
# Coordination Sequence:
#
# PCOD8319342 Si02
#       5
#    32  32  32  16  32
#     4   9  15  26  46  68  90 116 147 182 227 279
#     4   9  18  31  46  65  90 118 148 184 227 275
#     4  10  20  32  45  63  89 121 157 194 227 261
#     4  10  18  29  44  62  89 123 155 187 220 256
#     4   9  17  29  44  64  88 115 149 189 228 267
#
# _framework density 16.065047
#
# number of rings (size 3 to 8) (size 9 to 14) (size 15 to 20)
#    0.000    2.667    1.111    1.333    0.000    2.556 
#    0.000    3.333    0.000    4.000    0.000    3.111 
#    0.000    4.444    0.000    9.778    0.000    0.444 
#
# Total GULP energy -892312.886471 kJ/mol
# GULP energy per Si atom -12393.234534 kJ/mol
# Density = 1.602848 g / cm^3
# Si number density = 16.065047 Si / 1000 Ang^3
#
#
#
# Elastic Constant Matrix: (Units=GPa)
#
#
# Indices 1 2 3 4 5 6 
#
# 1 91.5848 62.6302 36.5922 0.0000 0.0000 0.0000
# 2 62.6302 91.5848 36.5922 0.0000 0.0000 0.0000
# 3 36.5922 36.5922 76.5720 0.0000 0.0000 0.0000
# 4 0.0000 0.0000 0.0000 19.9283 0.0000 0.0000
# 5 0.0000 0.0000 0.0000 0.0000 19.9283 0.0000
# 6 0.0000 0.0000 0.0000 0.0000 0.0000 17.2345
#
#
#
# Elastic Compliance Matrix: (Units=1/GPa)
#
#
# Indices 1 2 3 4 5 6 
#
# 1 0.021462 -0.013075 -0.004008 0.000000 0.000000 0.000000
# 2 -0.013075 0.021462 -0.004008 0.000000 0.000000 0.000000
# 3 -0.004008 -0.004008 0.016890 0.000000 0.000000 0.000000
# 4 0.000000 0.000000 0.000000 0.050180 0.000000 0.000000
# 5 0.000000 0.000000 0.000000 0.000000 0.050180 0.000000
# 6 0.000000 0.000000 0.000000 0.000000 0.000000 0.058023
#
#
# Mechanical properties :
#
#
# Convention : Reuss Voigt Hill
#
# Bulk Modulus (GPa) = 56.71508 59.04120 57.87814
# Shear Modulus (GPa) = 18.77904 19.68003 19.22953
#
# Velocity S-wave (km/s) = 3.42268 3.50383 3.46349
# Velocity P-wave (km/s) = 7.14141 7.29385 7.21803
#
# Compressibility (1/GPa) = 0.01763199
#
# Stress axis : x y z
#
# Youngs Moduli (GPa) = 46.59484 46.59484 59.20671
#
# Poissons Ratio (x) = 0.60924 0.23728
# Poissons Ratio (y) = 0.60924 0.23728
# Poissons Ratio (z) = 0.18674 0.18674
#
# Static dielectric constant tensor:
#      x y z
#    x 2.956820 0.000000 0.000000 
#    y 0.000000 2.956820 0.000000 
#    z 0.000000 0.000000 3.175450 
# 
# 
# High freq. dielectric constant tensor:
#      x y z
#    x 1.591430 0.000000 0.000000 
#    y 0.000000 1.591430 0.000000 
#    z 0.000000 0.000000 1.629860 
# 
# From -- ./inp_files/8209.got.cif
#   From: 2010.03.12/outbox.cif.g09.slc.cpg/sg139_5_cif.got.tgz:8209.got - 2010.04.08 09:46:31.
