data_PCOD8319526
_publ_section_title
;
Structure prediction by ZEFSAII (Michael W. Deem and Ramdas Pophale) SiO2 
 PCOD8319526
Probable space group: I 4/M M M
;
_chemical_formula_sum "Si O2"
_cell_formula_units_Z 144
_cell_length_a 18.345875
_cell_length_b 18.345875
_cell_length_c 25.924354
_cell_angle_alpha 90.000000
_cell_angle_beta 90.000000
_cell_angle_gamma 90.000000
_cell_volume 8725.389108
_symmetry_space_group_name_H-M "I 4/M M M"
_symmetry_group_IT_number 139
_symmetry_cell_setting 'tetragonal'
loop_
_space_group_symop_operation_xyz
x,y,z
-y,x,z
-x,-y,z
y,-x,z
x,-y,-z
-x,y,-z
y,x,-z
-y,-x,-z
-x,-y,-z
y,-x,-z
x,y,-z
-y,x,-z
-x,y,z
x,-y,z
-y,-x,z
y,x,z
1/2+x,1/2+y,1/2+z
1/2-y,1/2+x,1/2+z
1/2-x,1/2-y,1/2+z
1/2+y,1/2-x,1/2+z
1/2+x,1/2-y,1/2-z
1/2-x,1/2+y,1/2-z
1/2+y,1/2+x,1/2-z
1/2-y,1/2-x,1/2-z
1/2-x,1/2-y,1/2-z
1/2+y,1/2-x,1/2-z
1/2+x,1/2+y,1/2-z
1/2-y,1/2+x,1/2-z
1/2-x,1/2+y,1/2+z
1/2+x,1/2-y,1/2+z
1/2-y,1/2-x,1/2+z
1/2+y,1/2+x,1/2+z
loop_
_atom_site_type_symbol
_atom_site_label
_atom_site_fract_x
_atom_site_fract_y
_atom_site_fract_z
Si Si1 0.688917 0.809142 0.307071
Si Si2 0.702493 0.416098 0.361278
Si Si3 0.414281 0.801855 0.899392
Si Si4 0.414862 0.704813 0.000000
Si Si5 0.917076 0.683848 0.056271
O O1 0.759428 0.759428 0.303716
O O2 0.664653 0.835348 0.250000
O O3 0.618855 0.763374 0.324772
O O4 0.715334 0.874437 0.345042
O O5 0.688926 0.500000 0.345493
O O6 0.625618 0.374383 0.358405
O O7 0.736573 0.408299 0.418172
O O8 0.500000 0.805363 0.889259
O O9 0.383308 0.880307 0.914516
O O10 0.395347 0.747657 0.946970
O O11 0.500000 0.684960 0.000000
O O12 0.369757 0.630244 0.000000
O O13 0.000000 0.659861 0.053855
O O14 0.882031 0.692339 0.000000
#
# Coordination Sequence:
#
# PCOD8319526 Si02
#       5
#    32  32  32  16  32
#     4   9  18  33  51  70  94 127 165 203 248 298
#     4   9  18  31  47  69  95 124 161 200 240 287
#     4  10  19  31  48  74  99 124 162 203 246 292
#     4  10  20  33  49  71  99 127 160 202 248 300
#     4   9  17  30  46  66  95 128 159 190 230 279
#
# _framework density 16.503561999999999
#
# number of rings (size 3 to 8) (size 9 to 14) (size 15 to 20)
#    0.000    2.667    1.111    0.667    0.000    3.000 
#    0.000    1.111    0.000    0.000    0.000    6.222 
#    0.000    5.333    0.000    0.000    0.000    0.000 
#
# Total GULP energy -892016.077485 kJ/mol
# GULP energy per Si atom -12389.112187 kJ/mol
# Density = 1.646600 g / cm^3
# Si number density = 16.503562 Si / 1000 Ang^3
#
#
#
# Elastic Constant Matrix: (Units=GPa)
#
#
# Indices 1 2 3 4 5 6 
#
# 1 93.7892 46.8784 41.6526 0.0000 0.0000 0.0000
# 2 46.8784 93.7911 41.6529 0.0000 0.0000 0.0000
# 3 41.6526 41.6529 131.1053 0.0000 0.0000 0.0000
# 4 0.0000 0.0000 0.0000 19.0625 0.0000 0.0000
# 5 0.0000 0.0000 0.0000 0.0000 19.0624 0.0000
# 6 0.0000 0.0000 0.0000 0.0000 0.0000 18.7916
#
#
#
# Elastic Compliance Matrix: (Units=1/GPa)
#
#
# Indices 1 2 3 4 5 6 
#
# 1 0.015037 -0.006280 -0.002782 0.000000 0.000000 0.000000
# 2 -0.006280 0.015036 -0.002782 0.000000 0.000000 0.000000
# 3 -0.002782 -0.002782 0.009395 0.000000 0.000000 0.000000
# 4 0.000000 0.000000 0.000000 0.052459 0.000000 0.000000
# 5 0.000000 0.000000 0.000000 0.000000 0.052459 0.000000
# 6 0.000000 0.000000 0.000000 0.000000 0.000000 0.053215
#
#
# Mechanical properties :
#
#
# Convention : Reuss Voigt Hill
#
# Bulk Modulus (GPa) = 63.37074 64.33927 63.85501
# Shear Modulus (GPa) = 22.07020 23.95007 23.01013
#
# Velocity S-wave (km/s) = 3.66088 3.81360 3.73802
# Velocity P-wave (km/s) = 7.50673 7.64599 7.57668
#
# Compressibility (1/GPa) = 0.01578015
#
# Stress axis : x y z
#
# Youngs Moduli (GPa) = 66.50403 66.50548 106.43799
#
# Poissons Ratio (x) = 0.41766 0.29611
# Poissons Ratio (y) = 0.41765 0.29610
# Poissons Ratio (z) = 0.18501 0.18501
#
# Static dielectric constant tensor:
#      x y z
#    x 2.987960 0.000000 0.000000 
#    y 0.000000 2.987960 0.000000 
#    z 0.000000 0.000000 3.469210 
# 
# 
# High freq. dielectric constant tensor:
#      x y z
#    x 1.626100 0.000000 0.000000 
#    y 0.000000 1.626100 0.000000 
#    z 0.000000 0.000000 1.642230 
# 
# From -- ./inp_files/12749.got.cif
#   From: 2010.03.12/outbox.cif.g09.slc.cpg/sg139_7_cif.got.tgz:12749.got - 2010.04.08 09:46:31.
