data_PCOD8319234
_publ_section_title
;
Structure prediction by ZEFSAII (Michael W. Deem and Ramdas Pophale) SiO2 
 PCOD8319234
Probable space group: P 42/N C M
;
_chemical_formula_sum "Si O2"
_cell_formula_units_Z 96
_cell_length_a 13.648980
_cell_length_b 13.648980
_cell_length_c 31.081075
_cell_angle_alpha 90.000000
_cell_angle_beta 90.000000
_cell_angle_gamma 90.000000
_cell_volume 5790.238145
_symmetry_space_group_name_H-M "P 42/N C M"
_symmetry_group_IT_number 138
_space_group.IT_coordinate_system_code '2'
_symmetry_cell_setting 'tetragonal'
loop_
_space_group_symop_operation_xyz
x,y,z
1/2-y,x,1/2+z
1/2-x,1/2-y,z
y,1/2-x,1/2+z
1/2+x,-y,1/2-z
-x,1/2+y,1/2-z
1/2+y,1/2+x,-z
-y,-x,-z
-x,-y,-z
1/2+y,-x,1/2-z
1/2+x,1/2+y,-z
-y,1/2+x,1/2-z
1/2-x,y,1/2+z
x,1/2-y,1/2+z
1/2-y,1/2-x,z
y,x,z
loop_
_atom_site_type_symbol
_atom_site_label
_atom_site_fract_x
_atom_site_fract_y
_atom_site_fract_z
Si Si1 0.159825 0.495283 0.327749
Si Si2 0.995284 0.659824 0.327749
Si Si3 0.004562 0.339730 0.423098
Si Si4 0.088542 0.750000 0.750000
Si Si5 0.995439 0.839731 0.923098
Si Si6 0.745553 0.411111 0.500000
O O1 0.208246 0.490647 0.375364
O O2 0.241133 0.519315 0.291903
O O3 0.108108 0.391893 0.316862
O O4 0.079847 0.579846 0.327694
O O5 0.891894 0.608107 0.316862
O O6 0.990648 0.708245 0.375364
O O7 0.019315 0.741132 0.291903
O O8 0.921078 0.421077 0.424253
O O9 0.979844 0.255942 0.457866
O O10 0.108079 0.391921 0.434261
O O11 0.154290 0.845710 0.742885
O O12 0.891923 0.891923 0.934261
O O13 0.020157 0.755943 0.957865
O O14 0.828423 0.328423 0.500000
O O15 0.638520 0.361481 0.500000
#
# Coordination Sequence:
#
# PCOD8319234 Si02
#       6
#    16  16  16  16  16  16
#     4   8  14  24  36  49  67  94 125 154 189 235
#     4   8  14  24  36  49  67  94 125 154 189 235
#     4   8  13  21  31  41  57  86 122 153 181 222
#     4   9  16  24  36  55  74  92 120 159 196 226
#     4   8  13  21  31  41  57  86 122 153 181 222
#     4   9  15  19  25  41  63  87 118 157 196 225
#
# _framework density 16.579630000000002
#
# number of rings (size 3 to 8) (size 9 to 14) (size 15 to 20)
#    0.000    3.667    0.000    2.500    0.000    3.333 
#    0.000    6.667    0.000    0.500    0.000    0.000 
#    0.000    0.000    0.000    1.500    0.000   32.000 
#
# Total GULP energy -1189486.637133 kJ/mol
# GULP energy per Si atom -12390.485803 kJ/mol
# Density = 1.654189 g / cm^3
# Si number density = 16.579630 Si / 1000 Ang^3
#
#
#
# Elastic Constant Matrix: (Units=GPa)
#
#
# Indices 1 2 3 4 5 6 
#
# 1 40.5129 33.8878 60.1109 0.0000 0.0000 0.0000
# 2 33.8878 40.5126 60.1107 0.0000 0.0000 0.0000
# 3 60.1109 60.1107 179.2119 0.0000 0.0000 0.0000
# 4 0.0000 0.0000 0.0000 6.7648 0.0000 0.0000
# 5 0.0000 0.0000 0.0000 0.0000 6.7649 0.0000
# 6 0.0000 0.0000 0.0000 0.0000 0.0000 14.6817
#
#
#
# Elastic Compliance Matrix: (Units=1/GPa)
#
#
# Indices 1 2 3 4 5 6 
#
# 1 0.090145 -0.060799 -0.009843 0.000000 0.000000 0.000000
# 2 -0.060799 0.090146 -0.009843 0.000000 0.000000 0.000000
# 3 -0.009843 -0.009843 0.012183 0.000000 0.000000 0.000000
# 4 0.000000 0.000000 0.000000 0.147825 0.000000 0.000000
# 5 0.000000 0.000000 0.000000 0.000000 0.147823 0.000000
# 6 0.000000 0.000000 0.000000 0.000000 0.000000 0.068112
#
#
# Mechanical properties :
#
#
# Convention : Reuss Voigt Hill
#
# Bulk Modulus (GPa) = 31.74348 63.16178 47.45263
# Shear Modulus (GPa) = 6.87091 12.71747 9.79419
#
# Velocity S-wave (km/s) = 2.03794 2.77258 2.43314
# Velocity P-wave (km/s) = 4.97245 6.95904 6.04787
#
# Compressibility (1/GPa) = 0.03150253
#
# Stress axis : x y z
#
# Youngs Moduli (GPa) = 11.09327 11.09315 82.08076
#
# Poissons Ratio (x) = 0.67445 0.80793
# Poissons Ratio (y) = 0.67446 0.80794
# Poissons Ratio (z) = 0.10919 0.10919
#
# Static dielectric constant tensor:
#      x y z
#    x 2.791580 0.000000 0.000000 
#    y 0.000000 2.791580 0.000000 
#    z 0.000000 0.000000 3.654450 
# 
# 
# High freq. dielectric constant tensor:
#      x y z
#    x 1.587880 0.000000 0.000000 
#    y 0.000000 1.587880 0.000000 
#    z 0.000000 0.000000 1.658060 
# 
# From -- ./inp_files/8177.got.cif
#   From: 2010.03.12/outbox.cif.g09.slc.cpg/sg138_5_cif.got.tgz:8177.got - 2010.04.08 09:41:05.
