data_PCOD8319511
_publ_section_title
;
Structure prediction by ZEFSAII (Michael W. Deem and Ramdas Pophale) SiO2 
 PCOD8319511
Probable space group: I 4/M M M
;
_chemical_formula_sum "Si O2"
_cell_formula_units_Z 144
_cell_length_a 19.433915
_cell_length_b 19.433915
_cell_length_c 22.304425
_cell_angle_alpha 90.000000
_cell_angle_beta 90.000000
_cell_angle_gamma 90.000000
_cell_volume 8423.869486
_symmetry_space_group_name_H-M "I 4/M M M"
_symmetry_group_IT_number 139
_symmetry_cell_setting 'tetragonal'
loop_
_space_group_symop_operation_xyz
x,y,z
-y,x,z
-x,-y,z
y,-x,z
x,-y,-z
-x,y,-z
y,x,-z
-y,-x,-z
-x,-y,-z
y,-x,-z
x,y,-z
-y,x,-z
-x,y,z
x,-y,z
-y,-x,z
y,x,z
1/2+x,1/2+y,1/2+z
1/2-y,1/2+x,1/2+z
1/2-x,1/2-y,1/2+z
1/2+y,1/2-x,1/2+z
1/2+x,1/2-y,1/2-z
1/2-x,1/2+y,1/2-z
1/2+y,1/2+x,1/2-z
1/2-y,1/2-x,1/2-z
1/2-x,1/2-y,1/2-z
1/2+y,1/2-x,1/2-z
1/2+x,1/2+y,1/2-z
1/2-y,1/2+x,1/2-z
1/2-x,1/2+y,1/2+z
1/2+x,1/2-y,1/2+z
1/2-y,1/2-x,1/2+z
1/2+y,1/2+x,1/2+z
loop_
_atom_site_type_symbol
_atom_site_label
_atom_site_fract_x
_atom_site_fract_y
_atom_site_fract_z
Si Si1 0.656077 0.232162 0.838188
Si Si2 0.808189 0.078578 0.756987
Si Si3 0.242415 0.869972 0.877619
Si Si4 0.078978 0.804399 0.000000
Si Si5 0.423565 0.685496 0.931252
O O1 0.722355 0.277646 0.822716
O O2 0.605420 0.241537 0.780946
O O3 0.682299 0.154511 0.852806
O O4 0.617400 0.255304 0.897847
O O5 0.874995 0.125005 0.740668
O O6 0.791562 0.081467 0.827479
O O7 0.824722 0.000000 0.739604
O O8 0.198188 0.801813 0.888386
O O9 0.243812 0.909238 0.941349
O O10 0.128005 0.871996 0.000000
O O11 0.000000 0.830265 0.000000
O O12 0.500000 0.678957 0.905082
O O13 0.388284 0.611717 0.921225
O O14 0.423632 0.707622 0.000000
#
# Coordination Sequence:
#
# PCOD8319511 Si02
#       5
#    32  32  32  16  32
#     4   9  17  29  46  65  89 122 159 198 242 277
#     4  10  19  31  47  69  99 131 161 193 230 281
#     4   9  18  31  48  68  93 126 162 201 243 278
#     4  10  20  33  50  74 103 133 162 192 228 278
#     4   9  17  27  40  61  91 124 157 192 229 278
#
# _framework density 17.094282
#
# number of rings (size 3 to 8) (size 9 to 14) (size 15 to 20)
#    0.000    2.667    0.000    2.000    1.556    3.222 
#    0.000    1.111    0.000    8.000    0.000    0.000 
#    0.000   40.000    0.000    0.000    0.000    0.000 
#
# Total GULP energy -892197.348876 kJ/mol
# GULP energy per Si atom -12391.629845 kJ/mol
# Density = 1.705537 g / cm^3
# Si number density = 17.094282 Si / 1000 Ang^3
#
#
#
# Elastic Constant Matrix: (Units=GPa)
#
#
# Indices 1 2 3 4 5 6 
#
# 1 56.7512 47.5260 28.3405 0.0000 0.0000 0.0000
# 2 47.5260 56.7506 28.3403 0.0000 0.0000 0.0000
# 3 28.3405 28.3403 99.4190 0.0000 0.0000 0.0000
# 4 0.0000 0.0000 0.0000 17.5788 0.0000 0.0000
# 5 0.0000 0.0000 0.0000 0.0000 17.5790 0.0000
# 6 0.0000 0.0000 0.0000 0.0000 0.0000 14.7376
#
#
#
# Elastic Compliance Matrix: (Units=1/GPa)
#
#
# Indices 1 2 3 4 5 6 
#
# 1 0.059875 -0.048527 -0.003235 0.000000 0.000000 0.000000
# 2 -0.048527 0.059876 -0.003235 0.000000 0.000000 0.000000
# 3 -0.003235 -0.003235 0.011903 0.000000 0.000000 0.000000
# 4 0.000000 0.000000 0.000000 0.056887 0.000000 0.000000
# 5 0.000000 0.000000 0.000000 0.000000 0.056886 0.000000
# 6 0.000000 0.000000 0.000000 0.000000 0.000000 0.067853
#
#
# Mechanical properties :
#
#
# Convention : Reuss Voigt Hill
#
# Bulk Modulus (GPa) = 46.16916 46.81494 46.49205
# Shear Modulus (GPa) = 11.61458 17.22668 14.42063
#
# Velocity S-wave (km/s) = 2.60944 3.17794 2.90762
# Velocity P-wave (km/s) = 6.01216 6.39621 6.20716
#
# Compressibility (1/GPa) = 0.02165948
#
# Stress axis : x y z
#
# Youngs Moduli (GPa) = 16.70147 16.70128 84.01419
#
# Poissons Ratio (x) = 0.81046 0.27178
# Poissons Ratio (y) = 0.81047 0.27178
# Poissons Ratio (z) = 0.05403 0.05403
#
# Static dielectric constant tensor:
#      x y z
#    x 3.054160 0.000000 0.000000 
#    y 0.000000 3.054160 0.000000 
#    z 0.000000 0.000000 3.474150 
# 
# 
# High freq. dielectric constant tensor:
#      x y z
#    x 1.626010 0.000000 0.000000 
#    y 0.000000 1.626010 0.000000 
#    z 0.000000 0.000000 1.684350 
# 
# From -- ./inp_files/10231.got.cif
#   From: 2010.03.12/outbox.cif.g09.slc.cpg/sg139_6_cif.got.tgz:10231.got - 2010.04.08 09:46:31.
