data_PCOD8319806
_publ_section_title
;
Structure prediction by ZEFSAII (Michael W. Deem and Ramdas Pophale) SiO2 
 PCOD8319806
Probable space group: I 4/M M M
;
_chemical_formula_sum "Si O2"
_cell_formula_units_Z 160
_cell_length_a 22.876935
_cell_length_b 22.876935
_cell_length_c 16.812401
_cell_angle_alpha 90.000000
_cell_angle_beta 90.000000
_cell_angle_gamma 90.000000
_cell_volume 8798.839919
_symmetry_space_group_name_H-M "I 4/M M M"
_symmetry_group_IT_number 139
_symmetry_cell_setting 'tetragonal'
loop_
_space_group_symop_operation_xyz
x,y,z
-y,x,z
-x,-y,z
y,-x,z
x,-y,-z
-x,y,-z
y,x,-z
-y,-x,-z
-x,-y,-z
y,-x,-z
x,y,-z
-y,x,-z
-x,y,z
x,-y,z
-y,-x,z
y,x,z
1/2+x,1/2+y,1/2+z
1/2-y,1/2+x,1/2+z
1/2-x,1/2-y,1/2+z
1/2+y,1/2-x,1/2+z
1/2+x,1/2-y,1/2-z
1/2-x,1/2+y,1/2-z
1/2+y,1/2+x,1/2-z
1/2-y,1/2-x,1/2-z
1/2-x,1/2-y,1/2-z
1/2+y,1/2-x,1/2-z
1/2+x,1/2+y,1/2-z
1/2-y,1/2+x,1/2-z
1/2-x,1/2+y,1/2+z
1/2+x,1/2-y,1/2+z
1/2-y,1/2-x,1/2+z
1/2+y,1/2+x,1/2+z
loop_
_atom_site_type_symbol
_atom_site_label
_atom_site_fract_x
_atom_site_fract_y
_atom_site_fract_z
Si Si1 0.634091 0.112566 0.909799
Si Si2 0.436390 0.000000 0.093988
Si Si3 0.767643 0.432191 0.307152
Si Si4 0.432481 0.769674 0.122575
Si Si5 0.569245 0.669276 0.000000
Si Si6 0.840602 0.933867 0.911221
O O1 0.687468 0.112321 0.848338
O O2 0.603017 0.175126 0.909953
O O3 0.593809 0.059813 0.877743
O O4 0.655290 0.099481 0.000000
O O5 0.500000 0.000000 0.134014
O O6 0.441262 0.000000 0.000000
O O7 0.785146 0.500000 0.323177
O O8 0.761345 0.418112 0.214743
O O9 0.706535 0.416500 0.346309
O O10 0.500000 0.784423 0.107350
O O11 0.416249 0.709635 0.076860
O O12 0.500000 0.650282 0.000000
O O13 0.611598 0.611598 0.000000
O O14 0.897972 0.897972 0.892582
O O15 0.860388 0.000000 0.901662
O O16 0.815686 0.921685 0.000000
#
# Coordination Sequence:
#
# PCOD8319806 Si02
#       6
#    32  16  32  32  16  32
#     4  11  19  32  54  80 112 155 197 239 281 325
#     4   9  18  28  46  78 112 147 192 244 283 319
#     4  10  20  34  53  79 114 151 191 233 278 329
#     4  10  21  37  58  81 112 152 188 229 285 351
#     4  10  22  43  68  93 115 143 183 233 296 360
#     4   9  18  33  54  80 110 142 177 220 274 337
#
# _framework density 18.184215999999999
#
# number of rings (size 3 to 8) (size 9 to 14) (size 15 to 20)
#    0.000    2.100    2.000    1.800    0.000    2.700 
#    0.000    2.000    0.000    2.400    0.000    5.600 
#    0.000    0.000    0.000    0.000    0.000    0.000 
#
# Total GULP energy -991718.875187 kJ/mol
# GULP energy per Si atom -12396.485940 kJ/mol
# Density = 1.814283 g / cm^3
# Si number density = 18.184216 Si / 1000 Ang^3
#
#
#
# Elastic Constant Matrix: (Units=GPa)
#
#
# Indices 1 2 3 4 5 6 
#
# 1 93.8909 66.5016 48.0925 0.0000 0.0000 0.0000
# 2 66.5016 93.8909 48.0925 0.0000 0.0000 0.0000
# 3 48.0925 48.0925 118.9509 0.0000 0.0000 0.0000
# 4 0.0000 0.0000 0.0000 17.0725 0.0000 0.0000
# 5 0.0000 0.0000 0.0000 0.0000 17.0725 0.0000
# 6 0.0000 0.0000 0.0000 0.0000 0.0000 31.7294
#
#
#
# Elastic Compliance Matrix: (Units=1/GPa)
#
#
# Indices 1 2 3 4 5 6 
#
# 1 0.022370 -0.014140 -0.003327 0.000000 0.000000 0.000000
# 2 -0.014140 0.022370 -0.003327 0.000000 0.000000 0.000000
# 3 -0.003327 -0.003327 0.011097 0.000000 0.000000 0.000000
# 4 0.000000 0.000000 0.000000 0.058574 0.000000 0.000000
# 5 0.000000 0.000000 0.000000 0.000000 0.058574 0.000000
# 6 0.000000 0.000000 0.000000 0.000000 0.000000 0.031517
#
#
# Mechanical properties :
#
#
# Convention : Reuss Voigt Hill
#
# Bulk Modulus (GPa) = 70.18624 70.23397 70.21010
# Shear Modulus (GPa) = 19.93289 22.77797 21.35543
#
# Velocity S-wave (km/s) = 3.31443 3.54308 3.43066
# Velocity P-wave (km/s) = 7.30263 7.44616 7.37475
#
# Compressibility (1/GPa) = 0.01424781
#
# Stress axis : x y z
#
# Youngs Moduli (GPa) = 44.70194 44.70194 90.11061
#
# Poissons Ratio (x) = 0.63210 0.29984
# Poissons Ratio (y) = 0.63210 0.29984
# Poissons Ratio (z) = 0.14875 0.14875
#
# Static dielectric constant tensor:
#      x y z
#    x 3.275640 0.000000 0.000000 
#    y 0.000000 3.275640 0.000000 
#    z 0.000000 0.000000 3.446120 
# 
# 
# High freq. dielectric constant tensor:
#      x y z
#    x 1.691970 0.000000 0.000000 
#    y 0.000000 1.691970 0.000000 
#    z 0.000000 0.000000 1.710470 
# 
# From -- ./inp_files/8432.got.cif
#   From: 2010.03.12/outbox.cif.g09.slc.cpg/sg139_5_cif.got.tgz:8432.got - 2010.04.08 09:46:31.
