data_PCOD8319425
_publ_section_title
;
Structure prediction by ZEFSAII (Michael W. Deem and Ramdas Pophale) SiO2 
 PCOD8319425
Probable space group: I 4/M M M
;
_chemical_formula_sum "Si O2"
_cell_formula_units_Z 160
_cell_length_a 22.834272
_cell_length_b 22.834272
_cell_length_c 15.826416
_cell_angle_alpha 90.000000
_cell_angle_beta 90.000000
_cell_angle_gamma 90.000000
_cell_volume 8251.956256
_symmetry_space_group_name_H-M "I 4/M M M"
_symmetry_group_IT_number 139
_symmetry_cell_setting 'tetragonal'
loop_
_space_group_symop_operation_xyz
x,y,z
-y,x,z
-x,-y,z
y,-x,z
x,-y,-z
-x,y,-z
y,x,-z
-y,-x,-z
-x,-y,-z
y,-x,-z
x,y,-z
-y,x,-z
-x,y,z
x,-y,z
-y,-x,z
y,x,z
1/2+x,1/2+y,1/2+z
1/2-y,1/2+x,1/2+z
1/2-x,1/2-y,1/2+z
1/2+y,1/2-x,1/2+z
1/2+x,1/2-y,1/2-z
1/2-x,1/2+y,1/2-z
1/2+y,1/2+x,1/2-z
1/2-y,1/2-x,1/2-z
1/2-x,1/2-y,1/2-z
1/2+y,1/2-x,1/2-z
1/2+x,1/2+y,1/2-z
1/2-y,1/2+x,1/2-z
1/2-x,1/2+y,1/2+z
1/2+x,1/2-y,1/2+z
1/2-y,1/2-x,1/2+z
1/2+y,1/2+x,1/2+z
loop_
_atom_site_type_symbol
_atom_site_label
_atom_site_fract_x
_atom_site_fract_y
_atom_site_fract_z
Si Si1 0.338175 0.566691 0.000000
Si Si2 0.933650 0.933650 0.899807
Si Si3 0.139092 0.276816 0.795864
Si Si4 0.662324 0.662324 0.601080
Si Si5 0.568660 0.242818 0.864645
Si Si6 0.623067 0.883752 0.405832
Si Si7 0.000000 0.565599 0.399383
O O1 0.301845 0.581143 0.084282
O O2 0.358371 0.500000 0.000000
O O3 0.396551 0.603450 0.000000
O O4 0.885868 0.885868 0.867157
O O5 0.000000 0.917491 0.868551
O O6 0.932943 0.932943 0.000000
O O7 0.198627 0.301374 0.750000
O O8 0.149273 0.226739 0.864299
O O9 0.093206 0.250008 0.729622
O O10 0.107841 0.330071 0.844817
O O11 0.664401 0.664401 0.500000
O O12 0.500000 0.227422 0.864482
O O13 0.604877 0.192280 0.911695
O O14 0.598645 0.870848 0.500000
O O15 0.594732 0.941227 0.363426
O O16 0.000000 0.500000 0.367332
O O17 0.000000 0.572350 0.500000
#
# Coordination Sequence:
#
# PCOD8319425 Si02
#       7
#    16  16  32  16  32  32  16
#     4  10  22  39  66  98 120 154 200 240 306 376
#     4   8  16  34  61  88 110 139 187 238 276 328
#     4  10  23  37  54  84 123 159 194 250 304 349
#     4  11  22  39  60  85 121 155 199 232 297 370
#     4  10  20  37  61  85 115 156 202 250 292 356
#     4  10  18  35  58  80 116 158 206 250 302 348
#     4   9  18  30  54  84 112 149 199 257 299 347
#
# _framework density 19.389341000000002
#
# number of rings (size 3 to 8) (size 9 to 14) (size 15 to 20)
#    0.000    2.200    2.000    1.200    1.400    1.700 
#    1.800    0.000    0.000    6.000    0.000    0.000 
#    0.000    0.000    0.000    0.000    0.000    0.000 
#
# Total GULP energy -991653.084831 kJ/mol
# GULP energy per Si atom -12395.663560 kJ/mol
# Density = 1.934521 g / cm^3
# Si number density = 19.389341 Si / 1000 Ang^3
#
#
#
# Elastic Constant Matrix: (Units=GPa)
#
#
# Indices 1 2 3 4 5 6 
#
# 1 110.5956 68.8809 48.9894 0.0000 0.0000 0.0000
# 2 68.8809 110.6002 48.9900 0.0000 0.0000 0.0000
# 3 48.9894 48.9900 104.2635 0.0000 0.0000 0.0000
# 4 0.0000 0.0000 0.0000 18.7726 0.0000 0.0000
# 5 0.0000 0.0000 0.0000 0.0000 18.7729 0.0000
# 6 0.0000 0.0000 0.0000 0.0000 0.0000 30.8882
#
#
#
# Elastic Compliance Matrix: (Units=1/GPa)
#
#
# Indices 1 2 3 4 5 6 
#
# 1 0.015733 -0.008239 -0.003521 0.000000 0.000000 0.000000
# 2 -0.008239 0.015732 -0.003521 0.000000 0.000000 0.000000
# 3 -0.003521 -0.003521 0.012900 0.000000 0.000000 0.000000
# 4 0.000000 0.000000 0.000000 0.053269 0.000000 0.000000
# 5 0.000000 0.000000 0.000000 0.000000 0.053268 0.000000
# 6 0.000000 0.000000 0.000000 0.000000 0.000000 0.032375
#
#
# Mechanical properties :
#
#
# Convention : Reuss Voigt Hill
#
# Bulk Modulus (GPa) = 72.44639 73.24224 72.84432
# Shear Modulus (GPa) = 22.88959 24.26000 23.57480
#
# Velocity S-wave (km/s) = 3.43960 3.54107 3.49071
# Velocity P-wave (km/s) = 7.29518 7.38752 7.34149
#
# Compressibility (1/GPa) = 0.01380331
#
# Stress axis : x y z
#
# Youngs Moduli (GPa) = 63.56132 63.56418 77.51951
#
# Poissons Ratio (x) = 0.52368 0.27296
# Poissons Ratio (y) = 0.52365 0.27295
# Poissons Ratio (z) = 0.22381 0.22381
#
# Static dielectric constant tensor:
#      x y z
#    x 3.515200 0.000000 0.000000 
#    y 0.000000 3.515190 0.000000 
#    z 0.000000 0.000000 3.472940 
# 
# 
# High freq. dielectric constant tensor:
#      x y z
#    x 1.748790 0.000000 0.000000 
#    y 0.000000 1.748790 0.000000 
#    z 0.000000 0.000000 1.746260 
# 
# From -- ./inp_files/8506.got.cif
#   From: 2010.03.12/outbox.cif.g09.slc.cpg/sg139_5_cif.got.tgz:8506.got - 2010.04.08 09:46:31.
