data_PCOD8319236
_publ_section_title
;
Structure prediction by ZEFSAII (Michael W. Deem and Ramdas Pophale) SiO2 
 PCOD8319236
Probable space group: P 42/N C M
;
_chemical_formula_sum "Si O2"
_cell_formula_units_Z 112
_cell_length_a 13.384210
_cell_length_b 13.384210
_cell_length_c 36.122646
_cell_angle_alpha 90.000000
_cell_angle_beta 90.000000
_cell_angle_gamma 90.000000
_cell_volume 6470.905230
_symmetry_space_group_name_H-M "P 42/N C M"
_symmetry_group_IT_number 138
_space_group.IT_coordinate_system_code '2'
_symmetry_cell_setting 'tetragonal'
loop_
_space_group_symop_operation_xyz
x,y,z
1/2-y,x,1/2+z
1/2-x,1/2-y,z
y,1/2-x,1/2+z
1/2+x,-y,1/2-z
-x,1/2+y,1/2-z
1/2+y,1/2+x,-z
-y,-x,-z
-x,-y,-z
1/2+y,-x,1/2-z
1/2+x,1/2+y,-z
-y,1/2+x,1/2-z
1/2-x,y,1/2+z
x,1/2-y,1/2+z
1/2-y,1/2-x,z
y,x,z
loop_
_atom_site_type_symbol
_atom_site_label
_atom_site_fract_x
_atom_site_fract_y
_atom_site_fract_z
Si Si1 0.163316 0.004758 0.541052
Si Si2 0.754577 0.413794 0.391526
Si Si3 0.250000 0.086686 0.750000
Si Si4 0.086206 0.745424 0.608474
Si Si5 0.000629 0.336009 0.178571
Si Si6 0.336011 0.000627 0.821429
Si Si7 0.336684 0.004758 0.958948
O O1 0.247773 0.982474 0.571696
O O2 0.079475 0.920525 0.542909
O O3 0.212364 0.005513 0.500000
O O4 0.111487 0.111487 0.549370
O O5 0.863836 0.363836 0.389936
O O6 0.670187 0.329814 0.392774
O O7 0.738419 0.482727 0.355645
O O8 0.346143 0.153858 0.741101
O O9 0.153859 0.153859 0.758899
O O10 0.269138 0.016580 0.785180
O O11 0.230864 0.016581 0.714819
O O12 0.017274 0.761582 0.644356
O O13 0.017526 0.752227 0.571696
O O14 0.905280 0.405278 0.185924
O O15 0.097914 0.402087 0.169375
O O16 0.402088 0.097913 0.830625
O O17 0.388513 0.111488 0.950629
#
# Coordination Sequence:
#
# PCOD8319236 Si02
#       7
#    16  16  16  16  16  16  16
#     4   8  13  21  33  49  72 106 145 179 211 250
#     4   9  16  24  35  54  80 108 138 173 211 249
#     4   9  18  32  48  65  84 106 136 175 212 244
#     4   9  16  24  35  54  80 108 138 173 211 249
#     4   9  17  29  44  60  80 108 137 164 201 250
#     4   9  17  29  44  60  80 108 137 164 201 250
#     4   8  13  21  33  49  72 106 145 179 211 250
#
# _framework density 17.308243000000001
#
# number of rings (size 3 to 8) (size 9 to 14) (size 15 to 20)
#    0.000    3.286    0.000    1.714    0.000    5.143 
#    0.000    2.857    0.000    0.000    0.000    0.000 
#    0.000    1.143    0.000   13.143    0.000   16.857 
#
# Total GULP energy -1388407.059013 kJ/mol
# GULP energy per Si atom -12396.491598 kJ/mol
# Density = 1.726885 g / cm^3
# Si number density = 17.308243 Si / 1000 Ang^3
#
#
#
# Elastic Constant Matrix: (Units=GPa)
#
#
# Indices 1 2 3 4 5 6 
#
# 1 53.9944 35.1368 69.2906 0.0000 0.0000 0.0000
# 2 35.1368 53.9944 69.2906 0.0000 0.0000 0.0000
# 3 69.2906 69.2906 193.2604 0.0000 0.0000 0.0000
# 4 0.0000 0.0000 0.0000 13.2540 0.0000 0.0000
# 5 0.0000 0.0000 0.0000 0.0000 13.2540 0.0000
# 6 0.0000 0.0000 0.0000 0.0000 0.0000 17.0697
#
#
#
# Elastic Compliance Matrix: (Units=1/GPa)
#
#
# Indices 1 2 3 4 5 6 
#
# 1 0.039190 -0.013839 -0.009090 0.000000 0.000000 0.000000
# 2 -0.013839 0.039190 -0.009090 0.000000 0.000000 0.000000
# 3 -0.009090 -0.009090 0.011692 0.000000 0.000000 0.000000
# 4 0.000000 0.000000 0.000000 0.075449 0.000000 0.000000
# 5 0.000000 0.000000 0.000000 0.000000 0.075449 0.000000
# 6 0.000000 0.000000 0.000000 0.000000 0.000000 0.058583
#
#
# Mechanical properties :
#
#
# Convention : Reuss Voigt Hill
#
# Bulk Modulus (GPa) = 38.40575 72.07612 55.24093
# Shear Modulus (GPa) = 13.43117 17.21763 15.32440
#
# Velocity S-wave (km/s) = 2.78870 3.15741 2.97876
# Velocity P-wave (km/s) = 5.71022 7.41791 6.61936
#
# Compressibility (1/GPa) = 0.02603777
#
# Stress axis : x y z
#
# Youngs Moduli (GPa) = 25.51644 25.51644 85.52721
#
# Poissons Ratio (x) = 0.35311 0.77740
# Poissons Ratio (y) = 0.35311 0.77740
# Poissons Ratio (z) = 0.23193 0.23193
#
# Static dielectric constant tensor:
#      x y z
#    x 2.987940 0.000000 0.000000 
#    y 0.000000 2.987940 0.000000 
#    z 0.000000 0.000000 3.509320 
# 
# 
# High freq. dielectric constant tensor:
#      x y z
#    x 1.631830 0.000000 0.000000 
#    y 0.000000 1.631830 0.000000 
#    z 0.000000 0.000000 1.684300 
# 
# From -- ./inp_files/8247.got.cif
#   From: 2010.03.12/outbox.cif.g09.slc.cpg/sg138_5_cif.got.tgz:8247.got - 2010.04.08 09:41:05.
