data_PCOD8319423
_publ_section_title
;
Structure prediction by ZEFSAII (Michael W. Deem and Ramdas Pophale) SiO2 
 PCOD8319423
Probable space group: I 4/M M M
;
_chemical_formula_sum "Si O2"
_cell_formula_units_Z 192
_cell_length_a 26.235882
_cell_length_b 26.235882
_cell_length_c 15.439811
_cell_angle_alpha 90.000000
_cell_angle_beta 90.000000
_cell_angle_gamma 90.000000
_cell_volume 10627.553934
_symmetry_space_group_name_H-M "I 4/M M M"
_symmetry_group_IT_number 139
_symmetry_cell_setting 'tetragonal'
loop_
_space_group_symop_operation_xyz
x,y,z
-y,x,z
-x,-y,z
y,-x,z
x,-y,-z
-x,y,-z
y,x,-z
-y,-x,-z
-x,-y,-z
y,-x,-z
x,y,-z
-y,x,-z
-x,y,z
x,-y,z
-y,-x,z
y,x,z
1/2+x,1/2+y,1/2+z
1/2-y,1/2+x,1/2+z
1/2-x,1/2-y,1/2+z
1/2+y,1/2-x,1/2+z
1/2+x,1/2-y,1/2-z
1/2-x,1/2+y,1/2-z
1/2+y,1/2+x,1/2-z
1/2-y,1/2-x,1/2-z
1/2-x,1/2-y,1/2-z
1/2+y,1/2-x,1/2-z
1/2+x,1/2+y,1/2-z
1/2-y,1/2+x,1/2-z
1/2-x,1/2+y,1/2+z
1/2+x,1/2-y,1/2+z
1/2-y,1/2-x,1/2+z
1/2+y,1/2+x,1/2+z
loop_
_atom_site_type_symbol
_atom_site_label
_atom_site_fract_x
_atom_site_fract_y
_atom_site_fract_z
Si Si1 0.500000 0.088857 0.598776
Si Si2 0.911487 0.606332 0.651050
Si Si3 0.685369 0.000000 0.650809
Si Si4 0.607589 0.202734 0.595026
Si Si5 0.248141 0.167039 0.753888
Si Si6 0.706294 0.500000 0.094765
Si Si7 0.804309 0.112338 0.398280
Si Si8 0.697998 0.000000 0.155171
O O1 0.500000 0.106971 0.500000
O O2 0.553471 0.060352 0.619467
O O3 0.500000 0.136661 0.663273
O O4 0.897014 0.602987 0.750000
O O5 0.858036 0.616846 0.603198
O O6 0.949538 0.652458 0.633330
O O7 0.732324 0.000000 0.585288
O O8 0.713734 0.000000 0.744173
O O9 0.627705 0.218835 0.500000
O O10 0.630483 0.239148 0.667422
O O11 0.548222 0.216509 0.601531
O O12 0.196731 0.196731 0.777808
O O13 0.295468 0.204533 0.750000
O O14 0.239893 0.137838 0.661907
O O15 0.687716 0.553955 0.136597
O O16 0.681958 0.500000 0.000000
O O17 0.786851 0.113690 0.500000
O O18 0.857340 0.142661 0.386887
#
# Coordination Sequence:
#
# PCOD8319423 Si02
#       8
#    16  32  16  32  32  16  32  16
#     4  10  20  35  51  66  91 122 165 219 273 336
#     4  11  20  36  51  72  94 131 177 225 280 333
#     4  12  22  33  54  72 101 134 173 231 283 328
#     4  11  22  35  55  75 103 137 173 223 274 324
#     4  10  22  37  53  77 107 140 185 224 261 320
#     4  10  22  34  51  83 112 136 173 219 267 336
#     4   9  19  38  61  83 112 148 181 224 280 332
#     4  10  18  34  52  74  93 124 172 215 262 317
#
# _framework density 18.066244999999999
#
# number of rings (size 3 to 8) (size 9 to 14) (size 15 to 20)
#    0.000    1.667    3.333    3.750    2.333    2.667 
#    0.000    2.917    0.000    0.250    0.000    1.750 
#    0.000    0.000    0.000    0.000    0.000    0.000 
#
# Total GULP energy -1189345.662411 kJ/mol
# GULP energy per Si atom -12389.017317 kJ/mol
# Density = 1.802513 g / cm^3
# Si number density = 18.066245 Si / 1000 Ang^3
#
#
#
# Elastic Constant Matrix: (Units=GPa)
#
#
# Indices 1 2 3 4 5 6 
#
# 1 87.5235 49.8281 37.6211 0.0000 0.0000 0.0000
# 2 49.8281 87.5250 37.6214 0.0000 0.0000 0.0000
# 3 37.6211 37.6214 106.9668 0.0000 0.0000 0.0000
# 4 0.0000 0.0000 0.0000 43.1642 0.0000 0.0000
# 5 0.0000 0.0000 0.0000 0.0000 43.1622 0.0000
# 6 0.0000 0.0000 0.0000 0.0000 0.0000 23.7588
#
#
#
# Elastic Compliance Matrix: (Units=1/GPa)
#
#
# Indices 1 2 3 4 5 6 
#
# 1 0.017773 -0.008755 -0.003172 0.000000 0.000000 0.000000
# 2 -0.008755 0.017773 -0.003172 0.000000 0.000000 0.000000
# 3 -0.003172 -0.003172 0.011580 0.000000 0.000000 0.000000
# 4 0.000000 0.000000 0.000000 0.023167 0.000000 0.000000
# 5 0.000000 0.000000 0.000000 0.000000 0.023168 0.000000
# 6 0.000000 0.000000 0.000000 0.000000 0.000000 0.042090
#
#
# Mechanical properties :
#
#
# Convention : Reuss Voigt Hill
#
# Bulk Modulus (GPa) = 59.07057 59.12851 59.09954
# Shear Modulus (GPa) = 29.17307 32.48003 30.82655
#
# Velocity S-wave (km/s) = 4.02280 4.24468 4.13523
# Velocity P-wave (km/s) = 7.37189 7.53809 7.45546
#
# Compressibility (1/GPa) = 0.01692890
#
# Stress axis : x y z
#
# Youngs Moduli (GPa) = 56.26470 56.26570 86.35764
#
# Poissons Ratio (x) = 0.49260 0.27391
# Poissons Ratio (y) = 0.49259 0.27390
# Poissons Ratio (z) = 0.17846 0.17846
#
# Static dielectric constant tensor:
#      x y z
#    x 3.681510 0.000000 0.000000 
#    y 0.000000 3.681480 0.000000 
#    z 0.000000 0.000000 3.392570 
# 
# 
# High freq. dielectric constant tensor:
#      x y z
#    x 1.680770 0.000000 0.000000 
#    y 0.000000 1.680770 0.000000 
#    z 0.000000 0.000000 1.704210 
# 
# From -- ./inp_files/6570.got.cif
#   From: 2010.03.12/outbox.cif.g09.slc.cpg/sg139_4_cif.got.tgz:6570.got - 2010.04.08 09:46:31.
