data_PCOD8319274
_publ_section_title
;
Structure prediction by ZEFSAII (Michael W. Deem and Ramdas Pophale) SiO2 
 PCOD8319274
Probable space group: I 4/M M M
;
_chemical_formula_sum "Si O2"
_cell_formula_units_Z 192
_cell_length_a 21.347554
_cell_length_b 21.347554
_cell_length_c 27.090322
_cell_angle_alpha 90.000000
_cell_angle_beta 90.000000
_cell_angle_gamma 90.000000
_cell_volume 12345.549035
_symmetry_space_group_name_H-M "I 4/M M M"
_symmetry_group_IT_number 139
_symmetry_cell_setting 'tetragonal'
loop_
_space_group_symop_operation_xyz
x,y,z
-y,x,z
-x,-y,z
y,-x,z
x,-y,-z
-x,y,-z
y,x,-z
-y,-x,-z
-x,-y,-z
y,-x,-z
x,y,-z
-y,x,-z
-x,y,z
x,-y,z
-y,-x,z
y,x,z
1/2+x,1/2+y,1/2+z
1/2-y,1/2+x,1/2+z
1/2-x,1/2-y,1/2+z
1/2+y,1/2-x,1/2+z
1/2+x,1/2-y,1/2-z
1/2-x,1/2+y,1/2-z
1/2+y,1/2+x,1/2-z
1/2-y,1/2-x,1/2-z
1/2-x,1/2-y,1/2-z
1/2+y,1/2-x,1/2-z
1/2+x,1/2+y,1/2-z
1/2-y,1/2+x,1/2-z
1/2-x,1/2+y,1/2+z
1/2+x,1/2-y,1/2+z
1/2-y,1/2-x,1/2+z
1/2+y,1/2+x,1/2+z
loop_
_atom_site_type_symbol
_atom_site_label
_atom_site_fract_x
_atom_site_fract_y
_atom_site_fract_z
Si Si1 0.571473 0.068156 0.905040
Si Si2 0.218149 0.572854 0.254993
Si Si3 0.146889 0.367418 0.826902
Si Si4 0.574743 0.146105 0.000000
Si Si5 0.823169 0.926835 0.830239
Si Si6 0.344584 0.755841 0.604305
Si Si7 0.795068 0.694004 0.500000
O O1 0.500000 0.054007 0.912931
O O2 0.579279 0.108159 0.855328
O O3 0.606260 0.000000 0.901860
O O4 0.594342 0.105821 0.952710
O O5 0.207640 0.500000 0.247970
O O6 0.207999 0.605340 0.201509
O O7 0.164191 0.598108 0.290187
O O8 0.286319 0.586942 0.278701
O O9 0.171169 0.319694 0.867818
O O10 0.500000 0.167847 0.000000
O O11 0.628237 0.201475 0.000000
O O12 0.887453 0.887453 0.830071
O O13 0.777624 0.908380 0.876226
O O14 0.840037 0.000000 0.835389
O O15 0.288652 0.711348 0.620166
O O16 0.346506 0.769414 0.546164
O O17 0.763741 0.763741 0.500000
#
# Coordination Sequence:
#
# PCOD8319274 Si02
#       7
#    32  32  32  16  32  32  16
#     4  10  19  29  41  59  88 124 158 190 222 263
#     4   9  18  29  42  63  88 115 148 189 227 264
#     4  10  17  28  45  61  85 118 154 186 223 266
#     4  10  19  32  46  67  95 124 157 195 237 273
#     4   9  18  33  50  69  93 118 149 192 239 289
#     4   9  18  31  47  67  91 116 148 188 230 274
#     4  10  18  33  51  70  95 124 157 193 233 277
#
# _framework density 15.552163
#
# number of rings (size 3 to 8) (size 9 to 14) (size 15 to 20)
#    0.000    2.500    1.667    1.250    0.000    2.500 
#    0.000    3.750    0.000    4.000    0.000    0.000 
#    0.000    3.500    0.000    0.000    0.000    0.000 
#
# Total GULP energy -1189297.190534 kJ/mol
# GULP energy per Si atom -12388.512401 kJ/mol
# Density = 1.551677 g / cm^3
# Si number density = 15.552163 Si / 1000 Ang^3
#
#
#
# Elastic Constant Matrix: (Units=GPa)
#
#
# Indices 1 2 3 4 5 6 
#
# 1 79.8845 43.9076 34.3024 0.0000 0.0000 0.0000
# 2 43.9076 79.8845 34.3024 0.0000 0.0000 0.0000
# 3 34.3024 34.3024 97.0451 0.0000 0.0000 0.0000
# 4 0.0000 0.0000 0.0000 16.3695 0.0000 0.0000
# 5 0.0000 0.0000 0.0000 0.0000 16.3695 0.0000
# 6 0.0000 0.0000 0.0000 0.0000 0.0000 18.7392
#
#
#
# Elastic Compliance Matrix: (Units=1/GPa)
#
#
# Indices 1 2 3 4 5 6 
#
# 1 0.018921 -0.008875 -0.003551 0.000000 0.000000 0.000000
# 2 -0.008875 0.018921 -0.003551 0.000000 0.000000 0.000000
# 3 -0.003551 -0.003551 0.012815 0.000000 0.000000 0.000000
# 4 0.000000 0.000000 0.000000 0.061089 0.000000 0.000000
# 5 0.000000 0.000000 0.000000 0.000000 0.061089 0.000000
# 6 0.000000 0.000000 0.000000 0.000000 0.000000 0.053364
#
#
# Mechanical properties :
#
#
# Convention : Reuss Voigt Hill
#
# Bulk Modulus (GPa) = 53.46744 53.53765 53.50255
# Shear Modulus (GPa) = 18.91173 19.91578 19.41375
#
# Velocity S-wave (km/s) = 3.49093 3.58240 3.53696
# Velocity P-wave (km/s) = 7.12059 7.18406 7.15240
#
# Compressibility (1/GPa) = 0.01870297
#
# Stress axis : x y z
#
# Youngs Moduli (GPa) = 52.85190 52.85190 78.03498
#
# Poissons Ratio (x) = 0.46905 0.27710
# Poissons Ratio (y) = 0.46905 0.27710
# Poissons Ratio (z) = 0.18767 0.18767
#
# Static dielectric constant tensor:
#      x y z
#    x 3.051350 0.000000 0.000000 
#    y 0.000000 3.051350 0.000000 
#    z 0.000000 0.000000 3.253650 
# 
# 
# High freq. dielectric constant tensor:
#      x y z
#    x 1.583170 0.000000 0.000000 
#    y 0.000000 1.583170 0.000000 
#    z 0.000000 0.000000 1.603330 
# 
# From -- ./inp_files/13336.got.cif
#   From: 2010.03.12/outbox.cif.g09.slc.cpg/sg139_7_cif.got.tgz:13336.got - 2010.04.08 09:46:31.
