data_PCOD8319422
_publ_section_title
;
Structure prediction by ZEFSAII (Michael W. Deem and Ramdas Pophale) SiO2 
 PCOD8319422
Probable space group: I 4/M M M
;
_chemical_formula_sum "Si O2"
_cell_formula_units_Z 104
_cell_length_a 14.856892
_cell_length_b 14.856892
_cell_length_c 26.122839
_cell_angle_alpha 90.000000
_cell_angle_beta 90.000000
_cell_angle_gamma 90.000000
_cell_volume 5766.022151
_symmetry_space_group_name_H-M "I 4/M M M"
_symmetry_group_IT_number 139
_symmetry_cell_setting 'tetragonal'
loop_
_space_group_symop_operation_xyz
x,y,z
-y,x,z
-x,-y,z
y,-x,z
x,-y,-z
-x,y,-z
y,x,-z
-y,-x,-z
-x,-y,-z
y,-x,-z
x,y,-z
-y,x,-z
-x,y,z
x,-y,z
-y,-x,z
y,x,z
1/2+x,1/2+y,1/2+z
1/2-y,1/2+x,1/2+z
1/2-x,1/2-y,1/2+z
1/2+y,1/2-x,1/2+z
1/2+x,1/2-y,1/2-z
1/2-x,1/2+y,1/2-z
1/2+y,1/2+x,1/2-z
1/2-y,1/2-x,1/2-z
1/2-x,1/2-y,1/2-z
1/2+y,1/2-x,1/2-z
1/2+x,1/2+y,1/2-z
1/2-y,1/2+x,1/2-z
1/2-x,1/2+y,1/2+z
1/2+x,1/2-y,1/2+z
1/2-y,1/2-x,1/2+z
1/2+y,1/2+x,1/2+z
loop_
_atom_site_type_symbol
_atom_site_label
_atom_site_fract_x
_atom_site_fract_y
_atom_site_fract_z
Si Si1 0.188743 0.336099 0.942707
Si Si2 0.307223 0.000000 0.365269
Si Si3 0.353164 0.500000 0.669413
Si Si4 0.000000 0.500000 0.636150
Si Si5 0.000000 0.305542 0.909135
Si Si6 0.145400 0.000000 0.711692
O O1 0.261106 0.261106 0.929093
O O2 0.201739 0.413469 0.901062
O O3 0.090907 0.287898 0.940815
O O4 0.203399 0.374759 0.000000
O O5 0.403845 0.000000 0.334466
O O6 0.234448 0.000000 0.321369
O O7 0.411451 0.411451 0.655600
O O8 0.258401 0.500000 0.640539
O O9 0.328230 0.500000 0.729044
O O10 0.088268 0.500000 0.601440
O O11 0.088331 0.088331 0.697988
#
# Coordination Sequence:
#
# PCOD8319422 Si02
#       6
#    32  16  16   8  16  16
#     4  10  20  32  49  74 101 131 168 208 248 294
#     4  10  18  34  52  70  98 134 167 203 250 294
#     4   9  18  33  54  78 100 125 162 208 256 304
#     4   8  20  32  46  68  92 126 168 200 230 276
#     4  10  18  34  52  70  98 134 167 203 250 294
#     4   9  18  33  54  78 100 125 162 208 256 304
#
# _framework density 18.036698999999999
#
# number of rings (size 3 to 8) (size 9 to 14) (size 15 to 20)
#    0.000    2.462    0.000    3.692    0.000    0.000 
#    0.000   11.538    0.000   16.615    0.000   12.923 
#    0.000    0.000    0.000    0.000    0.000    0.000 
#
# Total GULP energy -644319.341155 kJ/mol
# GULP energy per Si atom -12390.756561 kJ/mol
# Density = 1.799565 g / cm^3
# Si number density = 18.036699 Si / 1000 Ang^3
#
#
#
# Elastic Constant Matrix: (Units=GPa)
#
#
# Indices 1 2 3 4 5 6 
#
# 1 129.5167 44.1322 47.5637 0.0000 0.0000 0.0000
# 2 44.1322 129.5167 47.5637 0.0000 0.0000 0.0000
# 3 47.5637 47.5637 64.6284 0.0000 0.0000 0.0000
# 4 0.0000 0.0000 0.0000 23.0578 0.0000 0.0000
# 5 0.0000 0.0000 0.0000 0.0000 23.0578 0.0000
# 6 0.0000 0.0000 0.0000 0.0000 0.0000 19.0729
#
#
#
# Elastic Compliance Matrix: (Units=1/GPa)
#
#
# Indices 1 2 3 4 5 6 
#
# 1 0.010680 -0.001031 -0.007101 0.000000 0.000000 0.000000
# 2 -0.001031 0.010680 -0.007101 0.000000 0.000000 0.000000
# 3 -0.007101 -0.007101 0.025925 0.000000 0.000000 0.000000
# 4 0.000000 0.000000 0.000000 0.043369 0.000000 0.000000
# 5 0.000000 0.000000 0.000000 0.000000 0.043369 0.000000
# 6 0.000000 0.000000 0.000000 0.000000 0.000000 0.052430
#
#
# Mechanical properties :
#
#
# Convention : Reuss Voigt Hill
#
# Bulk Modulus (GPa) = 59.45837 66.90899 63.18368
# Shear Modulus (GPa) = 22.46905 25.33119 23.90012
#
# Velocity S-wave (km/s) = 3.53333 3.75163 3.64412
# Velocity P-wave (km/s) = 7.04860 7.47950 7.26724
#
# Compressibility (1/GPa) = 0.01681849
#
# Stress axis : x y z
#
# Youngs Moduli (GPa) = 93.63041 93.63041 38.57231
#
# Poissons Ratio (x) = 0.09657 0.27391
# Poissons Ratio (y) = 0.09657 0.27391
# Poissons Ratio (z) = 0.66488 0.66488
#
# Static dielectric constant tensor:
#      x y z
#    x 3.519260 0.000000 0.000000 
#    y 0.000000 3.519260 0.000000 
#    z 0.000000 0.000000 3.034600 
# 
# 
# High freq. dielectric constant tensor:
#      x y z
#    x 1.709750 0.000000 0.000000 
#    y 0.000000 1.709750 0.000000 
#    z 0.000000 0.000000 1.676980 
# 
# From -- ./inp_files/11122.got.cif
#   From: 2010.03.12/outbox.cif.g09.slc.cpg/sg139_6_cif.got.tgz:11122.got - 2010.04.08 09:46:31.
