data_PCOD8319440
_publ_section_title
;
Structure prediction by ZEFSAII (Michael W. Deem and Ramdas Pophale) SiO2 
 PCOD8319440
Probable space group: I 4/M M M
;
_chemical_formula_sum "Si O2"
_cell_formula_units_Z 192
_cell_length_a 20.873183
_cell_length_b 20.873183
_cell_length_c 29.366176
_cell_angle_alpha 90.000000
_cell_angle_beta 90.000000
_cell_angle_gamma 90.000000
_cell_volume 12794.542425
_symmetry_space_group_name_H-M "I 4/M M M"
_symmetry_group_IT_number 139
_symmetry_cell_setting 'tetragonal'
loop_
_space_group_symop_operation_xyz
x,y,z
-y,x,z
-x,-y,z
y,-x,z
x,-y,-z
-x,y,-z
y,x,-z
-y,-x,-z
-x,-y,-z
y,-x,-z
x,y,-z
-y,x,-z
-x,y,z
x,-y,z
-y,-x,z
y,x,z
1/2+x,1/2+y,1/2+z
1/2-y,1/2+x,1/2+z
1/2-x,1/2-y,1/2+z
1/2+y,1/2-x,1/2+z
1/2+x,1/2-y,1/2-z
1/2-x,1/2+y,1/2-z
1/2+y,1/2+x,1/2-z
1/2-y,1/2-x,1/2-z
1/2-x,1/2-y,1/2-z
1/2+y,1/2-x,1/2-z
1/2+x,1/2+y,1/2-z
1/2-y,1/2+x,1/2-z
1/2-x,1/2+y,1/2+z
1/2+x,1/2-y,1/2+z
1/2-y,1/2-x,1/2+z
1/2+y,1/2+x,1/2+z
loop_
_atom_site_type_symbol
_atom_site_label
_atom_site_fract_x
_atom_site_fract_y
_atom_site_fract_z
Si Si1 0.184776 0.575058 0.947504
Si Si2 0.259483 0.157082 0.370653
Si Si3 0.243166 0.350939 0.770012
Si Si4 0.737362 0.363235 0.613153
Si Si5 0.574393 0.679632 0.299701
Si Si6 0.834506 0.429600 0.552667
O O1 0.181234 0.500000 0.938071
O O2 0.234509 0.607264 0.912493
O O3 0.115320 0.604861 0.936716
O O4 0.205283 0.589316 0.000000
O O5 0.191309 0.191309 0.378344
O O6 0.263267 0.121960 0.321609
O O7 0.315653 0.209134 0.367540
O O8 0.292634 0.292634 0.769995
O O9 0.175620 0.324380 0.750000
O O10 0.269181 0.409047 0.739551
O O11 0.678326 0.321675 0.593036
O O12 0.712574 0.409517 0.652541
O O13 0.767972 0.405816 0.573858
O O14 0.500000 0.661746 0.297397
O O15 0.614450 0.614450 0.293055
O O16 0.819570 0.431864 0.500000
O O17 0.852074 0.500000 0.571607
#
# Coordination Sequence:
#
# PCOD8319440 Si02
#       6
#    32  32  32  32  32  32
#     4   9  18  30  42  60  88 117 143 175 214 257
#     4   9  16  27  46  67  86 109 137 176 219 257
#     4   9  15  27  45  64  85 107 137 177 218 258
#     4   9  16  27  43  63  85 108 137 174 217 257
#     4  10  19  29  43  63  87 116 145 174 210 254
#     4   9  17  28  42  60  82 110 145 180 211 250
#
# _framework density 15.006398000000001
#
# number of rings (size 3 to 8) (size 9 to 14) (size 15 to 20)
#    0.000    2.833    1.667    0.500    0.000    1.833 
#    0.000    5.000    0.000    0.000    0.000    0.000 
#    0.000    0.667    0.000   17.333    0.000    0.500 
#
# Total GULP energy -1189924.819519 kJ/mol
# GULP energy per Si atom -12395.050203 kJ/mol
# Density = 1.497224 g / cm^3
# Si number density = 15.006398 Si / 1000 Ang^3
#
#
#
# Elastic Constant Matrix: (Units=GPa)
#
#
# Indices 1 2 3 4 5 6 
#
# 1 82.5256 38.1570 46.8186 0.0000 0.0000 0.0000
# 2 38.1570 82.5254 46.8193 0.0000 0.0000 0.0000
# 3 46.8186 46.8193 71.6779 0.0000 0.0000 0.0000
# 4 0.0000 0.0000 0.0000 19.5083 0.0000 0.0000
# 5 0.0000 0.0000 0.0000 0.0000 19.5083 0.0000
# 6 0.0000 0.0000 0.0000 0.0000 0.0000 11.7867
#
#
#
# Elastic Compliance Matrix: (Units=1/GPa)
#
#
# Indices 1 2 3 4 5 6 
#
# 1 0.019670 -0.002869 -0.010974 0.000000 0.000000 0.000000
# 2 -0.002869 0.019670 -0.010975 0.000000 0.000000 0.000000
# 3 -0.010974 -0.010975 0.028288 0.000000 0.000000 0.000000
# 4 0.000000 0.000000 0.000000 0.051260 0.000000 0.000000
# 5 0.000000 0.000000 0.000000 0.000000 0.051260 0.000000
# 6 0.000000 0.000000 0.000000 0.000000 0.000000 0.084841
#
#
# Mechanical properties :
#
#
# Convention : Reuss Voigt Hill
#
# Bulk Modulus (GPa) = 55.57715 55.59098 55.58406
# Shear Modulus (GPa) = 16.09677 17.15627 16.62652
#
# Velocity S-wave (km/s) = 3.27870 3.38489 3.33222
# Velocity P-wave (km/s) = 7.17281 7.23891 7.20594
#
# Compressibility (1/GPa) = 0.01799301
#
# Stress axis : x y z
#
# Youngs Moduli (GPa) = 50.83974 50.83865 35.35094
#
# Poissons Ratio (x) = 0.14584 0.38794
# Poissons Ratio (y) = 0.14584 0.38796
# Poissons Ratio (z) = 0.55792 0.55793
#
# Static dielectric constant tensor:
#      x y z
#    x 2.798050 0.000000 0.000000 
#    y 0.000000 2.798050 0.000000 
#    z 0.000000 0.000000 3.012360 
# 
# 
# High freq. dielectric constant tensor:
#      x y z
#    x 1.555610 0.000000 0.000000 
#    y 0.000000 1.555610 0.000000 
#    z 0.000000 0.000000 1.581580 
# 
# From -- ./inp_files/13254.got.cif
#   From: 2010.03.12/outbox.cif.g09.slc.cpg/sg139_7_cif.got.tgz:13254.got - 2010.04.08 09:46:31.
