data_PCOD8319002
_publ_section_title
;
Structure prediction by ZEFSAII (Michael W. Deem and Ramdas Pophale) SiO2 
 PCOD8319002
Probable space group: P 42/N C M
;
_chemical_formula_sum "Si O2"
_cell_formula_units_Z 104
_cell_length_a 17.392021
_cell_length_b 17.392021
_cell_length_c 18.789617
_cell_angle_alpha 90.000000
_cell_angle_beta 90.000000
_cell_angle_gamma 90.000000
_cell_volume 5683.528341
_symmetry_space_group_name_H-M "P 42/N C M"
_symmetry_group_IT_number 138
_space_group.IT_coordinate_system_code '2'
_symmetry_cell_setting 'tetragonal'
loop_
_space_group_symop_operation_xyz
x,y,z
1/2-y,x,1/2+z
1/2-x,1/2-y,z
y,1/2-x,1/2+z
1/2+x,-y,1/2-z
-x,1/2+y,1/2-z
1/2+y,1/2+x,-z
-y,-x,-z
-x,-y,-z
1/2+y,-x,1/2-z
1/2+x,1/2+y,-z
-y,1/2+x,1/2-z
1/2-x,y,1/2+z
x,1/2-y,1/2+z
1/2-y,1/2-x,z
y,x,z
loop_
_atom_site_type_symbol
_atom_site_label
_atom_site_fract_x
_atom_site_fract_y
_atom_site_fract_z
Si Si1 0.382889 0.506227 0.746287
Si Si2 0.871153 0.371153 0.000000
Si Si3 0.248235 0.372918 0.502653
Si Si4 0.127244 0.707564 0.563940
Si Si5 0.672553 0.164317 0.719559
Si Si6 0.842716 0.536310 0.603106
Si Si7 0.850522 0.976676 0.410939
O O1 0.468429 0.468429 0.745009
O O2 0.388949 0.598200 0.759218
O O3 0.332777 0.471241 0.811529
O O4 0.338417 0.488231 0.673331
O O5 0.876431 0.299082 0.946464
O O6 0.870234 0.443806 0.948371
O O7 0.178000 0.322001 0.535028
O O8 0.320593 0.320593 0.484164
O O9 0.224274 0.409325 0.427119
O O10 0.271693 0.438916 0.559176
O O11 0.176418 0.676418 0.500000
O O12 0.171937 0.686271 0.635627
O O13 0.045000 0.665575 0.564067
O O14 0.641234 0.245898 0.745321
O O15 0.926391 0.573610 0.585442
O O16 0.921566 0.921566 0.427131
#
# Coordination Sequence:
#
# PCOD8319002 Si02
#       7
#    16   8  16  16  16  16  16
#     4   9  19  36  57  77 107 145 180 218 264 320
#     4  12  22  34  54  78 112 138 172 224 258 324
#     4   9  17  32  55  81 107 136 174 219 265 315
#     4  11  24  35  53  81 105 139 180 224 266 309
#     4  10  22  36  55  79 109 146 180 216 268 322
#     4   9  18  37  57  77 104 140 179 218 266 317
#     4  10  20  34  55  82 108 141 176 217 270 320
#
# _framework density 18.298492
#
# number of rings (size 3 to 8) (size 9 to 14) (size 15 to 20)
#    0.000    2.154    1.538    1.385    6.462    0.308 
#    0.000    0.769    0.000    5.538    0.000    0.000 
#    0.000    0.000    0.000    0.000    0.000    0.000 
#
# Total GULP energy -1289179.012032 kJ/mol
# GULP energy per Si atom -12395.952039 kJ/mol
# Density = 1.825684 g / cm^3
# Si number density = 18.298492 Si / 1000 Ang^3
#
#
#
# Elastic Constant Matrix: (Units=GPa)
#
#
# Indices 1 2 3 4 5 6 
#
# 1 85.6862 44.1883 46.3066 0.0000 0.0000 0.0000
# 2 44.1883 85.6862 46.3066 0.0000 0.0000 0.0000
# 3 46.3066 46.3066 112.2701 0.0000 0.0000 0.0000
# 4 0.0000 0.0000 0.0000 24.4612 0.0000 0.0000
# 5 0.0000 0.0000 0.0000 0.0000 24.4612 0.0000
# 6 0.0000 0.0000 0.0000 0.0000 0.0000 26.7072
#
#
#
# Elastic Compliance Matrix: (Units=1/GPa)
#
#
# Indices 1 2 3 4 5 6 
#
# 1 0.017503 -0.006595 -0.004499 0.000000 0.000000 0.000000
# 2 -0.006595 0.017503 -0.004499 0.000000 0.000000 0.000000
# 3 -0.004499 -0.004499 0.012618 0.000000 0.000000 0.000000
# 4 0.000000 0.000000 0.000000 0.040881 0.000000 0.000000
# 5 0.000000 0.000000 0.000000 0.000000 0.040881 0.000000
# 6 0.000000 0.000000 0.000000 0.000000 0.000000 0.037443
#
#
# Mechanical properties :
#
#
# Convention : Reuss Voigt Hill
#
# Bulk Modulus (GPa) = 60.83411 61.91617 61.37514
# Shear Modulus (GPa) = 24.57066 24.91531 24.74299
#
# Velocity S-wave (km/s) = 3.66836 3.69400 3.68120
# Velocity P-wave (km/s) = 7.15961 7.21833 7.18903
#
# Compressibility (1/GPa) = 0.01643815
#
# Stress axis : x y z
#
# Youngs Moduli (GPa) = 57.13360 57.13360 79.24902
#
# Poissons Ratio (x) = 0.37678 0.35655
# Poissons Ratio (y) = 0.37678 0.35655
# Poissons Ratio (z) = 0.25705 0.25705
#
# Static dielectric constant tensor:
#      x y z
#    x 3.486170 0.000000 0.000000 
#    y 0.000000 3.486170 0.000000 
#    z 0.000000 0.000000 3.518210 
# 
# 
# High freq. dielectric constant tensor:
#      x y z
#    x 1.706570 0.000000 0.000000 
#    y 0.000000 1.706570 0.000000 
#    z 0.000000 0.000000 1.714630 
# 
# From -- ./inp_files/5314.got.cif
#   From: 2010.03.12/outbox.cif.g09.slc.cpg/sg138_3_cif.got.tgz:5314.got - 2010.04.08 09:41:05.
