data_PCOD8319229
_publ_section_title
;
Structure prediction by ZEFSAII (Michael W. Deem and Ramdas Pophale) SiO2 
 PCOD8319229
Probable space group: P 42/N C M
;
_chemical_formula_sum "Si O2"
_cell_formula_units_Z 36
_cell_length_a 10.047726
_cell_length_b 10.047726
_cell_length_c 17.582545
_cell_angle_alpha 90.000000
_cell_angle_beta 90.000000
_cell_angle_gamma 90.000000
_cell_volume 1775.077440
_symmetry_space_group_name_H-M "P 42/N C M"
_symmetry_group_IT_number 138
_space_group.IT_coordinate_system_code '2'
_symmetry_cell_setting 'tetragonal'
loop_
_space_group_symop_operation_xyz
x,y,z
1/2-y,x,1/2+z
1/2-x,1/2-y,z
y,1/2-x,1/2+z
1/2+x,-y,1/2-z
-x,1/2+y,1/2-z
1/2+y,1/2+x,-z
-y,-x,-z
-x,-y,-z
1/2+y,-x,1/2-z
1/2+x,1/2+y,-z
-y,1/2+x,1/2-z
1/2-x,y,1/2+z
x,1/2-y,1/2+z
1/2-y,1/2-x,z
y,x,z
loop_
_atom_site_type_symbol
_atom_site_label
_atom_site_fract_x
_atom_site_fract_y
_atom_site_fract_z
Si Si1 0.965395 0.743193 0.520162
Si Si2 0.750000 0.250000 0.750000
Si Si3 0.084918 0.636704 0.878906
O O1 0.904481 0.595520 0.532383
O O2 0.849220 0.849220 0.514084
O O3 0.059485 0.784085 0.590316
O O4 0.045640 0.750273 0.440616
O O5 0.623676 0.292748 0.699395
O O6 0.963525 0.536476 0.863938
#
# Coordination Sequence:
#
# PCOD8319229 Si02
#       3
#    16   4  16
#     4   8  15  33  59  78  95 128 174 218 253 288
#     4  12  24  34  48  76 112 142 164 196 252 314
#     4   9  20  36  51  74 106 133 166 212 252 295
#
# _framework density 20.280804
#
# number of rings (size 3 to 8) (size 9 to 14) (size 15 to 20)
#    0.000    3.111    0.000    2.667    0.000    7.111 
#    0.000    2.222    0.000    0.000    0.000    0.000 
#    0.000    0.000    0.000    0.000    0.000    0.000 
#
# Total GULP energy -446232.757117 kJ/mol
# GULP energy per Si atom -12395.354364 kJ/mol
# Density = 2.023464 g / cm^3
# Si number density = 20.280804 Si / 1000 Ang^3
#
#
#
# Elastic Constant Matrix: (Units=GPa)
#
#
# Indices 1 2 3 4 5 6 
#
# 1 27.8893 7.0977 -2.4628 0.0000 0.0000 0.0000
# 2 7.0977 27.8893 -2.4628 0.0000 0.0000 0.0000
# 3 -2.4628 -2.4628 82.3239 0.0000 0.0000 0.0000
# 4 0.0000 0.0000 0.0000 27.7493 0.0000 0.0000
# 5 0.0000 0.0000 0.0000 0.0000 27.7493 0.0000
# 6 0.0000 0.0000 0.0000 0.0000 0.0000 49.7393
#
#
#
# Elastic Compliance Matrix: (Units=1/GPa)
#
#
# Indices 1 2 3 4 5 6 
#
# 1 0.038400 -0.009697 0.000859 0.000000 0.000000 0.000000
# 2 -0.009697 0.038400 0.000859 0.000000 0.000000 0.000000
# 3 0.000859 0.000859 0.012199 0.000000 0.000000 0.000000
# 4 0.000000 0.000000 0.000000 0.036037 0.000000 0.000000
# 5 0.000000 0.000000 0.000000 0.000000 0.036037 0.000000
# 6 0.000000 0.000000 0.000000 0.000000 0.000000 0.020105
#
#
# Mechanical properties :
#
#
# Convention : Reuss Voigt Hill
#
# Bulk Modulus (GPa) = 13.69130 15.82741 14.75935
# Shear Modulus (GPa) = 22.57523 30.10960 26.34241
#
# Velocity S-wave (km/s) = 3.33998 3.85728 3.60791
# Velocity P-wave (km/s) = 4.65183 5.25920 4.96481
#
# Compressibility (1/GPa) = 0.07303908
#
# Stress axis : x y z
#
# Youngs Moduli (GPa) = 26.04191 26.04191 81.97715
#
# Poissons Ratio (x) = 0.25252 -0.07039
# Poissons Ratio (y) = 0.25252 -0.07039
# Poissons Ratio (z) = -0.02236 -0.02236
#
# Static dielectric constant tensor:
#      x y z
#    x 3.958970 0.000000 0.000000 
#    y 0.000000 3.958970 0.000000 
#    z 0.000000 0.000000 3.435880 
# 
# 
# High freq. dielectric constant tensor:
#      x y z
#    x 1.792410 0.000000 0.000000 
#    y 0.000000 1.792410 0.000000 
#    z 0.000000 0.000000 1.770380 
# 
# From -- ./inp_files/2121.got.cif
#   From: 2010.03.12/outbox.cif.g09.slc.cpg/sg138_2_cif.got.tgz:2121.got - 2010.04.08 09:41:05.
