data_PCOD8319133
_publ_section_title
;
Structure prediction by ZEFSAII (Michael W. Deem and Ramdas Pophale) SiO2 
 PCOD8319133
Probable space group: P 42/N C M
;
_chemical_formula_sum "Si O2"
_cell_formula_units_Z 64
_cell_length_a 12.172636
_cell_length_b 12.172636
_cell_length_c 22.244153
_cell_angle_alpha 90.000000
_cell_angle_beta 90.000000
_cell_angle_gamma 90.000000
_cell_volume 3295.984377
_symmetry_space_group_name_H-M "P 42/N C M"
_symmetry_group_IT_number 138
_space_group.IT_coordinate_system_code '2'
_symmetry_cell_setting 'tetragonal'
loop_
_space_group_symop_operation_xyz
x,y,z
1/2-y,x,1/2+z
1/2-x,1/2-y,z
y,1/2-x,1/2+z
1/2+x,-y,1/2-z
-x,1/2+y,1/2-z
1/2+y,1/2+x,-z
-y,-x,-z
-x,-y,-z
1/2+y,-x,1/2-z
1/2+x,1/2+y,-z
-y,1/2+x,1/2-z
1/2-x,y,1/2+z
x,1/2-y,1/2+z
1/2-y,1/2-x,z
y,x,z
loop_
_atom_site_type_symbol
_atom_site_label
_atom_site_fract_x
_atom_site_fract_y
_atom_site_fract_z
Si Si1 0.795110 0.067351 0.167141
Si Si2 0.824902 0.998303 0.874342
Si Si3 0.658979 0.841022 0.611205
Si Si4 0.443977 0.623150 0.301262
Si Si5 0.342565 0.342565 0.024194
O O1 0.874734 0.136265 0.122826
O O2 0.672239 0.114030 0.164466
O O3 0.846680 0.079469 0.232858
O O4 0.790845 0.942016 0.147167
O O5 0.717895 0.984733 0.832888
O O6 0.798643 0.952506 0.941474
O O7 0.923164 0.923164 0.845865
O O8 0.750000 0.750000 0.607183
O O9 0.624726 0.875275 0.543475
O O10 0.508934 0.508934 0.305636
O O11 0.250000 0.250000 0.026828
#
# Coordination Sequence:
#
# PCOD8319133 Si02
#       5
#    16  16   8  16   8
#     4  12  23  39  60  95 132 174 210 273 330 396
#     4  10  22  40  66  92 124 174 220 262 332 393
#     4  11  23  43  67  97 133 173 226 276 329 387
#     4  12  24  39  60  94 136 170 216 268 335 395
#     4   9  21  43  69  95 129 173 225 280 319 395
#
# _framework density 19.417566000000001
#
# number of rings (size 3 to 8) (size 9 to 14) (size 15 to 20)
#    0.750    0.250    5.000    2.250    0.000    3.000 
#    0.000    1.250    0.000    7.500    0.000    0.000 
#    0.000    0.000    0.000    0.000    0.000    0.000 
#
# Total GULP energy -793520.664548 kJ/mol
# GULP energy per Si atom -12398.760384 kJ/mol
# Density = 1.937337 g / cm^3
# Si number density = 19.417566 Si / 1000 Ang^3
#
#
#
# Elastic Constant Matrix: (Units=GPa)
#
#
# Indices 1 2 3 4 5 6 
#
# 1 115.9829 29.0313 27.3103 0.0000 0.0000 0.0000
# 2 29.0313 115.9829 27.3103 0.0000 0.0000 0.0000
# 3 27.3103 27.3103 65.7307 0.0000 0.0000 0.0000
# 4 0.0000 0.0000 0.0000 -9.3832 0.0000 0.0000
# 5 0.0000 0.0000 0.0000 0.0000 -9.3832 0.0000
# 6 0.0000 0.0000 0.0000 0.0000 0.0000 34.4646
#
#
#
# Elastic Compliance Matrix: (Units=1/GPa)
#
#
# Indices 1 2 3 4 5 6 
#
# 1 0.009838 -0.001663 -0.003397 0.000000 0.000000 0.000000
# 2 -0.001663 0.009838 -0.003397 0.000000 0.000000 0.000000
# 3 -0.003397 -0.003397 0.018036 0.000000 0.000000 0.000000
# 4 0.000000 0.000000 0.000000 -0.106574 0.000000 0.000000
# 5 0.000000 0.000000 0.000000 0.000000 -0.106574 0.000000
# 6 0.000000 0.000000 0.000000 0.000000 0.000000 0.029015
#
#
# Mechanical properties :
#
#
# Convention : Reuss Voigt Hill
#
# Bulk Modulus (GPa) = 48.07729 51.66669 49.87199
# Shear Modulus (GPa) = -40.79142 17.40930 -11.69106
#
# Velocity S-wave (km/s) = -4.58836 2.99753 -2.45641
# Velocity P-wave (km/s) = 1.80481 6.21661 4.20648
#
# Compressibility (1/GPa) = 0.02079984
#
# Stress axis : x y z
#
# Youngs Moduli (GPa) = 101.64712 101.64712 55.44412
#
# Poissons Ratio (x) = 0.16901 0.18833
# Poissons Ratio (y) = 0.16901 0.18833
# Poissons Ratio (z) = 0.34527 0.34527
#
# Static dielectric constant tensor:
#      x y z
#    x 3.706160 0.000000 0.000000 
#    y 0.000000 3.706160 0.000000 
#    z 0.000000 0.000000 3.481290 
# 
# 
# High freq. dielectric constant tensor:
#      x y z
#    x 1.763400 0.000000 0.000000 
#    y 0.000000 1.763400 0.000000 
#    z 0.000000 0.000000 1.735000 
# 
# From -- ./inp_files/6775.got.cif
#   From: 2010.03.12/outbox.cif.g09.slc.cpg/sg138_4_cif.got.tgz:6775.got - 2010.04.08 09:41:05.
