data_PCOD8319463
_publ_section_title
;
Structure prediction by ZEFSAII (Michael W. Deem and Ramdas Pophale) SiO2 
 PCOD8319463
Probable space group: I 4/M M M
;
_chemical_formula_sum "Si O2"
_cell_formula_units_Z 176
_cell_length_a 17.621797
_cell_length_b 17.621797
_cell_length_c 32.508301
_cell_angle_alpha 90.000000
_cell_angle_beta 90.000000
_cell_angle_gamma 90.000000
_cell_volume 10094.728900
_symmetry_space_group_name_H-M "I 4/M M M"
_symmetry_group_IT_number 139
_symmetry_cell_setting 'tetragonal'
loop_
_space_group_symop_operation_xyz
x,y,z
-y,x,z
-x,-y,z
y,-x,z
x,-y,-z
-x,y,-z
y,x,-z
-y,-x,-z
-x,-y,-z
y,-x,-z
x,y,-z
-y,x,-z
-x,y,z
x,-y,z
-y,-x,z
y,x,z
1/2+x,1/2+y,1/2+z
1/2-y,1/2+x,1/2+z
1/2-x,1/2-y,1/2+z
1/2+y,1/2-x,1/2+z
1/2+x,1/2-y,1/2-z
1/2-x,1/2+y,1/2-z
1/2+y,1/2+x,1/2-z
1/2-y,1/2-x,1/2-z
1/2-x,1/2-y,1/2-z
1/2+y,1/2-x,1/2-z
1/2+x,1/2+y,1/2-z
1/2-y,1/2+x,1/2-z
1/2-x,1/2+y,1/2+z
1/2+x,1/2-y,1/2+z
1/2-y,1/2-x,1/2+z
1/2+y,1/2+x,1/2+z
loop_
_atom_site_type_symbol
_atom_site_label
_atom_site_fract_x
_atom_site_fract_y
_atom_site_fract_z
Si Si1 0.915487 0.203781 0.663029
Si Si2 0.086640 0.352026 0.709417
Si Si3 0.590694 0.714897 0.500000
Si Si4 0.800136 0.322994 0.430099
Si Si5 0.585419 0.913949 0.625058
Si Si6 0.585687 0.295538 0.933735
O O1 0.867796 0.132205 0.676675
O O2 0.884909 0.275311 0.688000
O O3 0.910470 0.221486 0.614780
O O4 0.000000 0.183664 0.676178
O O5 0.135774 0.364227 0.750000
O O6 0.097068 0.416335 0.674470
O O7 0.000000 0.347948 0.724007
O O8 0.500000 0.701947 0.500000
O O9 0.633184 0.633184 0.500000
O O10 0.615572 0.763085 0.460310
O O11 0.733819 0.266182 0.412558
O O12 0.845261 0.367207 0.394618
O O13 0.862543 0.270585 0.454132
O O14 0.500000 0.909196 0.608246
O O15 0.618566 0.000000 0.615317
O O16 0.500000 0.294096 0.951018
O O17 0.621790 0.378211 0.943545
#
# Coordination Sequence:
#
# PCOD8319463 Si02
#       6
#    32  32  16  32  32  32
#     4   9  17  29  45  66  92 123 160 202 247 294
#     4  10  19  30  44  65  95 129 167 208 249 297
#     4  10  22  39  59  83 106 130 162 202 246 298
#     4  10  19  33  53  74 101 132 163 201 250 303
#     4  10  19  31  49  71  98 133 169 207 253 302
#     4   9  16  28  47  69  97 133 169 205 246 291
#
# _framework density 17.434840999999999
#
# number of rings (size 3 to 8) (size 9 to 14) (size 15 to 20)
#    0.000    2.364    1.818    1.636    0.000    1.727 
#    0.000    3.636    0.000    3.273    0.000    0.000 
#    0.000    3.636    0.000    6.000    0.000    0.182 
#
# Total GULP energy -1090321.577125 kJ/mol
# GULP energy per Si atom -12390.017922 kJ/mol
# Density = 1.739516 g / cm^3
# Si number density = 17.434841 Si / 1000 Ang^3
#
#
#
# Elastic Constant Matrix: (Units=GPa)
#
#
# Indices 1 2 3 4 5 6 
#
# 1 107.0856 56.7184 30.8575 0.0000 0.0000 0.0000
# 2 56.7184 107.0856 30.8579 0.0000 0.0000 0.0000
# 3 30.8575 30.8579 57.4606 0.0000 0.0000 0.0000
# 4 0.0000 0.0000 0.0000 18.7284 0.0000 0.0000
# 5 0.0000 0.0000 0.0000 0.0000 18.7280 0.0000
# 6 0.0000 0.0000 0.0000 0.0000 0.0000 28.7368
#
#
#
# Elastic Compliance Matrix: (Units=1/GPa)
#
#
# Indices 1 2 3 4 5 6 
#
# 1 0.013754 -0.006100 -0.004110 0.000000 0.000000 0.000000
# 2 -0.006100 0.013754 -0.004110 0.000000 0.000000 0.000000
# 3 -0.004110 -0.004110 0.021818 0.000000 0.000000 0.000000
# 4 0.000000 0.000000 0.000000 0.053395 0.000000 0.000000
# 5 0.000000 0.000000 0.000000 0.000000 0.053396 0.000000
# 6 0.000000 0.000000 0.000000 0.000000 0.000000 0.034799
#
#
# Mechanical properties :
#
#
# Convention : Reuss Voigt Hill
#
# Bulk Modulus (GPa) = 48.34612 56.49995 52.42304
# Shear Modulus (GPa) = 22.07990 23.45184 22.76587
#
# Velocity S-wave (km/s) = 3.56255 3.67156 3.61746
# Velocity P-wave (km/s) = 6.68671 7.10285 6.89792
#
# Compressibility (1/GPa) = 0.02068418
#
# Stress axis : x y z
#
# Youngs Moduli (GPa) = 72.70744 72.70715 45.83450
#
# Poissons Ratio (x) = 0.44354 0.18838
# Poissons Ratio (y) = 0.44354 0.18839
# Poissons Ratio (z) = 0.29883 0.29884
#
# Static dielectric constant tensor:
#      x y z
#    x 3.309120 0.000000 0.000000 
#    y 0.000000 3.309120 0.000000 
#    z 0.000000 0.000000 2.945190 
# 
# 
# High freq. dielectric constant tensor:
#      x y z
#    x 1.674460 0.000000 0.000000 
#    y 0.000000 1.674460 0.000000 
#    z 0.000000 0.000000 1.644950 
# 
# From -- ./inp_files/14225.got.cif
#   From: 2010.03.12/outbox.cif.g09.slc.cpg/sg139_8_cif.got.tgz:14225.got - 2010.04.08 09:46:31.
