data_PCOD8319029
_publ_section_title
;
Structure prediction by ZEFSAII (Michael W. Deem and Ramdas Pophale) SiO2 
 PCOD8319029
Probable space group: P 42/N C M
;
_chemical_formula_sum "Si O2"
_cell_formula_units_Z 64
_cell_length_a 12.174089
_cell_length_b 12.174089
_cell_length_c 25.786490
_cell_angle_alpha 90.000000
_cell_angle_beta 90.000000
_cell_angle_gamma 90.000000
_cell_volume 3821.775533
_symmetry_space_group_name_H-M "P 42/N C M"
_symmetry_group_IT_number 138
_space_group.IT_coordinate_system_code '2'
_symmetry_cell_setting 'tetragonal'
loop_
_space_group_symop_operation_xyz
x,y,z
1/2-y,x,1/2+z
1/2-x,1/2-y,z
y,1/2-x,1/2+z
1/2+x,-y,1/2-z
-x,1/2+y,1/2-z
1/2+y,1/2+x,-z
-y,-x,-z
-x,-y,-z
1/2+y,-x,1/2-z
1/2+x,1/2+y,-z
-y,1/2+x,1/2-z
1/2-x,y,1/2+z
x,1/2-y,1/2+z
1/2-y,1/2-x,z
y,x,z
loop_
_atom_site_type_symbol
_atom_site_label
_atom_site_fract_x
_atom_site_fract_y
_atom_site_fract_z
Si Si1 0.661098 0.838902 0.627294
Si Si2 0.350023 0.521900 0.143156
Si Si3 0.014602 0.014602 0.939553
Si Si4 0.043206 0.634601 0.808679
Si Si5 0.538574 0.281824 0.802590
O O1 0.750000 0.750000 0.608125
O O2 0.605756 0.894245 0.576244
O O3 0.569519 0.778736 0.661932
O O4 0.408664 0.408664 0.162368
O O5 0.396738 0.550227 0.085496
O O6 0.218081 0.513767 0.143987
O O7 0.382660 0.618069 0.182574
O O8 0.000000 0.000000 0.000000
O O9 0.005079 0.698459 0.756935
O O10 0.170903 0.606483 0.809208
O O11 0.976638 0.523363 0.817055
#
# Coordination Sequence:
#
# PCOD8319029 Si02
#       5
#     8  16   8  16  16
#     4  10  20  36  54  84 110 146 194 239 276 342
#     4   9  20  36  54  80 106 139 192 222 285 336
#     4   8  18  40  64  80 106 140 194 248 282 336
#     4  12  22  32  50  78 115 158 184 226 277 335
#     4  11  20  33  50  75 113 154 192 215 271 340
#
# _framework density 16.746141999999999
#
# number of rings (size 3 to 8) (size 9 to 14) (size 15 to 20)
#    0.750    1.000    5.000    1.500    0.000    1.500 
#    0.000    1.250    0.000   12.000    0.000    8.750 
#    0.000    0.000    0.000    0.000    0.000    0.000 
#
# Total GULP energy -793197.554255 kJ/mol
# GULP energy per Si atom -12393.711785 kJ/mol
# Density = 1.670803 g / cm^3
# Si number density = 16.746142 Si / 1000 Ang^3
#
#
#
# Elastic Constant Matrix: (Units=GPa)
#
#
# Indices 1 2 3 4 5 6 
#
# 1 78.4360 21.7557 23.4771 0.0000 0.0000 0.0000
# 2 21.7557 78.4360 23.4771 0.0000 0.0000 0.0000
# 3 23.4771 23.4771 88.7847 0.0000 0.0000 0.0000
# 4 0.0000 0.0000 0.0000 15.3873 0.0000 0.0000
# 5 0.0000 0.0000 0.0000 0.0000 15.3873 0.0000
# 6 0.0000 0.0000 0.0000 0.0000 0.0000 25.9738
#
#
#
# Elastic Compliance Matrix: (Units=1/GPa)
#
#
# Indices 1 2 3 4 5 6 
#
# 1 0.014518 -0.003125 -0.003013 0.000000 0.000000 0.000000
# 2 -0.003125 0.014518 -0.003013 0.000000 0.000000 0.000000
# 3 -0.003013 -0.003013 0.012856 0.000000 0.000000 0.000000
# 4 0.000000 0.000000 0.000000 0.064989 0.000000 0.000000
# 5 0.000000 0.000000 0.000000 0.000000 0.064989 0.000000
# 6 0.000000 0.000000 0.000000 0.000000 0.000000 0.038500
#
#
# Mechanical properties :
#
#
# Convention : Reuss Voigt Hill
#
# Bulk Modulus (GPa) = 42.38797 42.56406 42.47602
# Shear Modulus (GPa) = 21.13866 23.14614 22.14240
#
# Velocity S-wave (km/s) = 3.55674 3.72180 3.64020
# Velocity P-wave (km/s) = 6.49879 6.62883 6.56413
#
# Compressibility (1/GPa) = 0.02359160
#
# Stress axis : x y z
#
# Youngs Moduli (GPa) = 68.88122 68.88122 77.78230
#
# Poissons Ratio (x) = 0.21526 0.23432
# Poissons Ratio (y) = 0.21526 0.23432
# Poissons Ratio (z) = 0.20751 0.20751
#
# Static dielectric constant tensor:
#      x y z
#    x 3.152330 0.000000 0.000000 
#    y 0.000000 3.152330 0.000000 
#    z 0.000000 0.000000 2.725090 
# 
# 
# High freq. dielectric constant tensor:
#      x y z
#    x 1.648460 0.000000 0.000000 
#    y 0.000000 1.648460 0.000000 
#    z 0.000000 0.000000 1.599980 
# 
# From -- ./inp_files/6801.got.cif
#   From: 2010.03.12/outbox.cif.g09.slc.cpg/sg138_4_cif.got.tgz:6801.got - 2010.04.08 09:41:05.
