data_PCOD8319437
_publ_section_title
;
Structure prediction by ZEFSAII (Michael W. Deem and Ramdas Pophale) SiO2 
 PCOD8319437
Probable space group: I 4/M M M
;
_chemical_formula_sum "Si O2"
_cell_formula_units_Z 128
_cell_length_a 32.444527
_cell_length_b 32.444527
_cell_length_c 10.533361
_cell_angle_alpha 90.000000
_cell_angle_beta 90.000000
_cell_angle_gamma 90.000000
_cell_volume 11087.914356
_symmetry_space_group_name_H-M "I 4/M M M"
_symmetry_group_IT_number 139
_symmetry_cell_setting 'tetragonal'
loop_
_space_group_symop_operation_xyz
x,y,z
-y,x,z
-x,-y,z
y,-x,z
x,-y,-z
-x,y,-z
y,x,-z
-y,-x,-z
-x,-y,-z
y,-x,-z
x,y,-z
-y,x,-z
-x,y,z
x,-y,z
-y,-x,z
y,x,z
1/2+x,1/2+y,1/2+z
1/2-y,1/2+x,1/2+z
1/2-x,1/2-y,1/2+z
1/2+y,1/2-x,1/2+z
1/2+x,1/2-y,1/2-z
1/2-x,1/2+y,1/2-z
1/2+y,1/2+x,1/2-z
1/2-y,1/2-x,1/2-z
1/2-x,1/2-y,1/2-z
1/2+y,1/2-x,1/2-z
1/2+x,1/2+y,1/2-z
1/2-y,1/2+x,1/2-z
1/2-x,1/2+y,1/2+z
1/2+x,1/2-y,1/2+z
1/2-y,1/2-x,1/2+z
1/2+y,1/2+x,1/2+z
loop_
_atom_site_type_symbol
_atom_site_label
_atom_site_fract_x
_atom_site_fract_y
_atom_site_fract_z
Si Si1 0.320953 0.251422 0.500000
Si Si2 0.254682 0.814888 0.500000
Si Si3 0.000000 0.131759 0.355042
Si Si4 0.342908 0.590870 0.854200
Si Si5 0.932502 0.000000 0.136624
Si Si6 0.848701 0.220127 0.257042
O O1 0.287333 0.287333 0.500000
O O2 0.298990 0.207119 0.500000
O O3 0.349729 0.254968 0.375268
O O4 0.218561 0.781440 0.500000
O O5 0.251581 0.843467 0.625302
O O6 0.041822 0.157166 0.329036
O O7 0.000000 0.094609 0.259835
O O8 0.000000 0.115113 0.500000
O O9 0.386824 0.613177 0.820425
O O10 0.306220 0.609357 0.769170
O O11 0.332285 0.600550 0.000000
O O12 0.959430 0.040571 0.142650
O O13 0.908387 0.000000 0.000000
O O14 0.810036 0.189965 0.258538
#
# Coordination Sequence:
#
# PCOD8319437 Si02
#       6
#    16  16  16  32  16  32
#     4   9  16  22  32  53  70  82 107 130 143 173
#     4   9  14  22  36  49  66  90 107 122 147 181
#     4  10  19  29  43  58  66  80 112 142 162 198
#     4   9  16  27  40  52  67  85 105 133 169 203
#     4   9  18  32  44  54  70  84  94 120 170 222
#     4   9  15  24  35  48  68  89 105 125 154 186
#
# _framework density 11.5441
#
# number of rings (size 3 to 8) (size 9 to 14) (size 15 to 20)
#    0.000    2.875    1.250    1.875    0.000    4.500 
#    2.250    0.625    0.000    0.000    0.000    0.000 
#    0.000    0.000    0.000    0.000    0.000    0.000 
#
# Total GULP energy -793101.029962 kJ/mol
# GULP energy per Si atom -12392.203593 kJ/mol
# Density = 1.151783 g / cm^3
# Si number density = 11.544100 Si / 1000 Ang^3
#
#
#
# Elastic Constant Matrix: (Units=GPa)
#
#
# Indices 1 2 3 4 5 6 
#
# 1 44.5504 36.0050 37.4379 0.0000 0.0000 0.0000
# 2 36.0050 44.5506 37.4378 0.0000 0.0000 0.0000
# 3 37.4379 37.4378 100.2150 0.0000 0.0000 0.0000
# 4 0.0000 0.0000 0.0000 7.9650 0.0000 0.0000
# 5 0.0000 0.0000 0.0000 0.0000 7.9650 0.0000
# 6 0.0000 0.0000 0.0000 0.0000 0.0000 12.2559
#
#
#
# Elastic Compliance Matrix: (Units=1/GPa)
#
#
# Indices 1 2 3 4 5 6 
#
# 1 0.068019 -0.049001 -0.007105 0.000000 0.000000 0.000000
# 2 -0.049001 0.068018 -0.007104 0.000000 0.000000 0.000000
# 3 -0.007105 -0.007104 0.015287 0.000000 0.000000 0.000000
# 4 0.000000 0.000000 0.000000 0.125550 0.000000 0.000000
# 5 0.000000 0.000000 0.000000 0.000000 0.125549 0.000000
# 6 0.000000 0.000000 0.000000 0.000000 0.000000 0.081593
#
#
# Mechanical properties :
#
#
# Convention : Reuss Voigt Hill
#
# Bulk Modulus (GPa) = 40.15483 45.67526 42.91505
# Shear Modulus (GPa) = 8.08097 10.86620 9.47359
#
# Velocity S-wave (km/s) = 2.64864 3.07135 2.86779
# Velocity P-wave (km/s) = 6.64929 7.22699 6.94415
#
# Compressibility (1/GPa) = 0.02490360
#
# Stress axis : x y z
#
# Youngs Moduli (GPa) = 14.70179 14.70195 65.41677
#
# Poissons Ratio (x) = 0.72041 0.46476
# Poissons Ratio (y) = 0.72041 0.46473
# Poissons Ratio (z) = 0.10445 0.10445
#
# Static dielectric constant tensor:
#      x y z
#    x 2.219590 0.000000 0.000000 
#    y 0.000000 2.219600 0.000000 
#    z 0.000000 0.000000 2.675660 
# 
# 
# High freq. dielectric constant tensor:
#      x y z
#    x 1.398800 0.000000 0.000000 
#    y 0.000000 1.398800 0.000000 
#    z 0.000000 0.000000 1.451860 
# 
# From -- ./inp_files/4154.got.cif
#   From: 2010.03.12/outbox.cif.g09.slc.cpg/sg139_3_cif.got.tgz:4154.got - 2010.04.08 09:46:31.
