data_PCOD8319703
_publ_section_title
;
Structure prediction by ZEFSAII (Michael W. Deem and Ramdas Pophale) SiO2 
 PCOD8319703
Probable space group: I 4/M M M
;
_chemical_formula_sum "Si O2"
_cell_formula_units_Z 160
_cell_length_a 31.476968
_cell_length_b 31.476968
_cell_length_c 8.975240
_cell_angle_alpha 90.000000
_cell_angle_beta 90.000000
_cell_angle_gamma 90.000000
_cell_volume 8892.663434
_symmetry_space_group_name_H-M "I 4/M M M"
_symmetry_group_IT_number 139
_symmetry_cell_setting 'tetragonal'
loop_
_space_group_symop_operation_xyz
x,y,z
-y,x,z
-x,-y,z
y,-x,z
x,-y,-z
-x,y,-z
y,x,-z
-y,-x,-z
-x,-y,-z
y,-x,-z
x,y,-z
-y,x,-z
-x,y,z
x,-y,z
-y,-x,z
y,x,z
1/2+x,1/2+y,1/2+z
1/2-y,1/2+x,1/2+z
1/2-x,1/2-y,1/2+z
1/2+y,1/2-x,1/2+z
1/2+x,1/2-y,1/2-z
1/2-x,1/2+y,1/2-z
1/2+y,1/2+x,1/2-z
1/2-y,1/2-x,1/2-z
1/2-x,1/2-y,1/2-z
1/2+y,1/2-x,1/2-z
1/2+x,1/2+y,1/2-z
1/2-y,1/2+x,1/2-z
1/2-x,1/2+y,1/2+z
1/2+x,1/2-y,1/2+z
1/2-y,1/2-x,1/2+z
1/2+y,1/2+x,1/2+z
loop_
_atom_site_type_symbol
_atom_site_label
_atom_site_fract_x
_atom_site_fract_y
_atom_site_fract_z
Si Si1 0.266392 0.049779 0.171374
Si Si2 0.179860 0.820141 0.826027
Si Si3 0.382387 0.382387 0.823261
Si Si4 0.168093 0.609084 0.833935
Si Si5 0.549951 0.670158 0.327578
Si Si6 0.819217 0.262768 0.335183
O O1 0.305603 0.071547 0.256360
O O2 0.218457 0.062643 0.225348
O O3 0.272574 0.000000 0.194727
O O4 0.270815 0.062868 0.000000
O O5 0.145636 0.854365 0.785403
O O6 0.223400 0.837731 0.756100
O O7 0.185275 0.814726 0.000000
O O8 0.367004 0.429603 0.775990
O O9 0.376037 0.376037 0.000000
O O10 0.124910 0.624910 0.750000
O O11 0.199272 0.648346 0.842909
O O12 0.154895 0.594259 0.000000
O O13 0.563544 0.664239 0.500000
O O14 0.500000 0.664144 0.310219
O O15 0.806809 0.247530 0.500000
O O16 0.776848 0.276848 0.250000
#
# Coordination Sequence:
#
# PCOD8319703 Si02
#       6
#    32  16  16  32  32  32
#     4   9  18  33  53  76 102 132 167 209 255 301
#     4  12  23  33  46  64  90 125 164 205 244 285
#     4  12  24  35  51  77 105 130 159 201 253 303
#     4  10  20  32  48  69  95 129 166 205 247 293
#     4   9  19  37  59  80 103 134 170 206 249 305
#     4  10  20  33  46  63  89 123 163 204 247 292
#
# _framework density 17.992359
#
# number of rings (size 3 to 8) (size 9 to 14) (size 15 to 20)
#    0.000    2.000    0.000    5.700    0.000    7.200 
#    0.000    2.000    0.000    0.300    0.000    2.100 
#    0.000    0.400    0.000    4.200    0.000    1.800 
#
# Total GULP energy -991211.075551 kJ/mol
# GULP energy per Si atom -12390.138444 kJ/mol
# Density = 1.795141 g / cm^3
# Si number density = 17.992359 Si / 1000 Ang^3
#
#
#
# Elastic Constant Matrix: (Units=GPa)
#
#
# Indices 1 2 3 4 5 6 
#
# 1 63.4350 26.4802 38.8028 0.0000 0.0000 0.0000
# 2 26.4802 63.4350 38.8027 0.0000 0.0000 0.0000
# 3 38.8028 38.8027 137.7814 0.0000 0.0000 0.0000
# 4 0.0000 0.0000 0.0000 29.5177 0.0000 0.0000
# 5 0.0000 0.0000 0.0000 0.0000 29.5177 0.0000
# 6 0.0000 0.0000 0.0000 0.0000 0.0000 34.2668
#
#
#
# Elastic Compliance Matrix: (Units=1/GPa)
#
#
# Indices 1 2 3 4 5 6 
#
# 1 0.020877 -0.006184 -0.004138 0.000000 0.000000 0.000000
# 2 -0.006184 0.020877 -0.004138 0.000000 0.000000 0.000000
# 3 -0.004138 -0.004138 0.009589 0.000000 0.000000 0.000000
# 4 0.000000 0.000000 0.000000 0.033878 0.000000 0.000000
# 5 0.000000 0.000000 0.000000 0.000000 0.033878 0.000000
# 6 0.000000 0.000000 0.000000 0.000000 0.000000 0.029183
#
#
# Mechanical properties :
#
#
# Convention : Reuss Voigt Hill
#
# Bulk Modulus (GPa) = 44.59728 52.53586 48.56657
# Shear Modulus (GPa) = 27.07482 29.36482 28.21982
#
# Velocity S-wave (km/s) = 3.88338 4.04427 3.96464
# Velocity P-wave (km/s) = 6.70433 7.14637 6.92888
#
# Compressibility (1/GPa) = 0.02242289
#
# Stress axis : x y z
#
# Youngs Moduli (GPa) = 47.90064 47.90072 104.29092
#
# Poissons Ratio (x) = 0.29620 0.43155
# Poissons Ratio (y) = 0.29619 0.43155
# Poissons Ratio (z) = 0.19821 0.19821
#
# Static dielectric constant tensor:
#      x y z
#    x 3.425670 0.000000 0.000000 
#    y 0.000000 3.425670 0.000000 
#    z 0.000000 0.000000 3.561550 
# 
# 
# High freq. dielectric constant tensor:
#      x y z
#    x 1.677670 0.000000 0.000000 
#    y 0.000000 1.677670 0.000000 
#    z 0.000000 0.000000 1.704740 
# 
# From -- ./inp_files/2219.got.cif
#   From: 2010.03.12/outbox.cif.g09.slc.cpg/sg139_2_cif.got.tgz:2219.got - 2010.04.08 09:46:31.
