data_PCOD8319276
_publ_section_title
;
Structure prediction by ZEFSAII (Michael W. Deem and Ramdas Pophale) SiO2 
 PCOD8319276
Probable space group: I 4/M M M
;
_chemical_formula_sum "Si O2"
_cell_formula_units_Z 192
_cell_length_a 22.886943
_cell_length_b 22.886943
_cell_length_c 22.223047
_cell_angle_alpha 90.000000
_cell_angle_beta 90.000000
_cell_angle_gamma 90.000000
_cell_volume 11640.702248
_symmetry_space_group_name_H-M "I 4/M M M"
_symmetry_group_IT_number 139
_symmetry_cell_setting 'tetragonal'
loop_
_space_group_symop_operation_xyz
x,y,z
-y,x,z
-x,-y,z
y,-x,z
x,-y,-z
-x,y,-z
y,x,-z
-y,-x,-z
-x,-y,-z
y,-x,-z
x,y,-z
-y,x,-z
-x,y,z
x,-y,z
-y,-x,z
y,x,z
1/2+x,1/2+y,1/2+z
1/2-y,1/2+x,1/2+z
1/2-x,1/2-y,1/2+z
1/2+y,1/2-x,1/2+z
1/2+x,1/2-y,1/2-z
1/2-x,1/2+y,1/2-z
1/2+y,1/2+x,1/2-z
1/2-y,1/2-x,1/2-z
1/2-x,1/2-y,1/2-z
1/2+y,1/2-x,1/2-z
1/2+x,1/2+y,1/2-z
1/2-y,1/2+x,1/2-z
1/2-x,1/2+y,1/2+z
1/2+x,1/2-y,1/2+z
1/2-y,1/2-x,1/2+z
1/2+y,1/2+x,1/2+z
loop_
_atom_site_type_symbol
_atom_site_label
_atom_site_fract_x
_atom_site_fract_y
_atom_site_fract_z
Si Si1 0.932349 0.162390 0.000000
Si Si2 0.726925 0.932549 0.430267
Si Si3 0.636282 0.888401 0.928723
Si Si4 0.837977 0.067173 0.353729
Si Si5 0.567609 0.255217 0.390188
Si Si6 0.160729 0.066198 0.215360
Si Si7 0.000000 0.434947 0.071536
O O1 0.914909 0.198793 0.941204
O O2 0.897877 0.102124 0.000000
O O3 0.000000 0.145606 0.000000
O O4 0.741360 0.922484 0.500000
O O5 0.671776 0.894342 0.409705
O O6 0.782948 0.911790 0.392710
O O7 0.711752 0.000000 0.417259
O O8 0.698740 0.891481 0.896261
O O9 0.597195 0.942013 0.905074
O O10 0.645362 0.892776 0.000000
O O11 0.894061 0.105939 0.371065
O O12 0.820590 0.075664 0.284232
O O13 0.854189 0.000000 0.368059
O O14 0.500000 0.236465 0.398084
O O15 0.580417 0.282969 0.325110
O O16 0.106976 0.106976 0.196707
O O17 0.139586 0.000000 0.203709
O O18 0.000000 0.500000 0.098676
O O19 0.000000 0.437404 0.000000
#
# Coordination Sequence:
#
# PCOD8319276 Si02
#       7
#    16  32  32  32  32  32  16
#     4  10  20  31  46  64  90 126 162 206 251 291
#     4   9  18  32  51  74 101 130 158 191 238 293
#     4  10  17  28  47  70  99 130 162 199 242 289
#     4   9  18  34  54  75  99 125 157 198 242 291
#     4  10  18  30  47  68  96 128 161 200 247 291
#     4   9  18  32  51  72  95 123 160 202 246 292
#     4   9  16  24  42  72 102 124 154 204 253 289
#
# _framework density 16.493849999999998
#
# number of rings (size 3 to 8) (size 9 to 14) (size 15 to 20)
#    0.000    2.583    1.667    1.000    0.000    2.750 
#    0.000    4.167    0.000    5.000    0.000    2.333 
#    0.000    0.000    0.000    0.000    0.000    0.000 
#
# Total GULP energy -1190539.381780 kJ/mol
# GULP energy per Si atom -12401.451894 kJ/mol
# Density = 1.645631 g / cm^3
# Si number density = 16.493850 Si / 1000 Ang^3
#
#
#
# Elastic Constant Matrix: (Units=GPa)
#
#
# Indices 1 2 3 4 5 6 
#
# 1 117.8593 82.2682 48.1513 0.0000 0.0000 0.0000
# 2 82.2682 117.8619 48.1517 0.0000 0.0000 0.0000
# 3 48.1513 48.1517 56.7752 0.0000 0.0000 0.0000
# 4 0.0000 0.0000 0.0000 22.7909 0.0000 0.0000
# 5 0.0000 0.0000 0.0000 0.0000 22.7911 0.0000
# 6 0.0000 0.0000 0.0000 0.0000 0.0000 31.3137
#
#
#
# Elastic Compliance Matrix: (Units=1/GPa)
#
#
# Indices 1 2 3 4 5 6 
#
# 1 0.018269 -0.009827 -0.007160 0.000000 0.000000 0.000000
# 2 -0.009827 0.018269 -0.007160 0.000000 0.000000 0.000000
# 3 -0.007160 -0.007160 0.029758 0.000000 0.000000 0.000000
# 4 0.000000 0.000000 0.000000 0.043877 0.000000 0.000000
# 5 0.000000 0.000000 0.000000 0.000000 0.043877 0.000000
# 6 0.000000 0.000000 0.000000 0.000000 0.000000 0.031935
#
#
# Mechanical properties :
#
#
# Convention : Reuss Voigt Hill
#
# Bulk Modulus (GPa) = 55.54676 72.18213 63.86445
# Shear Modulus (GPa) = 20.80914 22.97414 21.89164
#
# Velocity S-wave (km/s) = 3.55580 3.73619 3.64711
# Velocity P-wave (km/s) = 7.11397 7.90381 7.51927
#
# Compressibility (1/GPa) = 0.01800285
#
# Stress axis : x y z
#
# Youngs Moduli (GPa) = 54.73680 54.73815 33.60446
#
# Poissons Ratio (x) = 0.53791 0.24061
# Poissons Ratio (y) = 0.53789 0.24060
# Poissons Ratio (z) = 0.39191 0.39191
#
# Static dielectric constant tensor:
#      x y z
#    x 3.073040 0.000000 0.000000 
#    y 0.000000 3.073040 0.000000 
#    z 0.000000 0.000000 2.986790 
# 
# 
# High freq. dielectric constant tensor:
#      x y z
#    x 1.632380 0.000000 0.000000 
#    y 0.000000 1.632380 0.000000 
#    z 0.000000 0.000000 1.615760 
# 
# From -- ./inp_files/11985.got.cif
#   From: 2010.03.12/outbox.cif.g09.slc.cpg/sg139_6_cif.got.tgz:11985.got - 2010.04.08 09:46:31.
