data_PCOD8319033
_publ_section_title
;
Structure prediction by ZEFSAII (Michael W. Deem and Ramdas Pophale) SiO2 
 PCOD8319033
Probable space group: P 42/N C M
;
_chemical_formula_sum "Si O2"
_cell_formula_units_Z 56
_cell_length_a 14.072934
_cell_length_b 14.072934
_cell_length_c 13.881568
_cell_angle_alpha 90.000000
_cell_angle_beta 90.000000
_cell_angle_gamma 90.000000
_cell_volume 2749.209441
_symmetry_space_group_name_H-M "P 42/N C M"
_symmetry_group_IT_number 138
_space_group.IT_coordinate_system_code '2'
_symmetry_cell_setting 'tetragonal'
loop_
_space_group_symop_operation_xyz
x,y,z
1/2-y,x,1/2+z
1/2-x,1/2-y,z
y,1/2-x,1/2+z
1/2+x,-y,1/2-z
-x,1/2+y,1/2-z
1/2+y,1/2+x,-z
-y,-x,-z
-x,-y,-z
1/2+y,-x,1/2-z
1/2+x,1/2+y,-z
-y,1/2+x,1/2-z
1/2-x,y,1/2+z
x,1/2-y,1/2+z
1/2-y,1/2-x,z
y,x,z
loop_
_atom_site_type_symbol
_atom_site_label
_atom_site_fract_x
_atom_site_fract_y
_atom_site_fract_z
Si Si1 0.137594 0.137594 0.329665
Si Si2 0.123777 0.123777 0.116491
Si Si3 0.890725 0.390725 0.000000
Si Si4 0.018582 0.481418 0.147272
Si Si5 0.033355 0.466645 0.357831
Si Si6 0.225662 0.018584 0.956670
O O1 0.163820 0.163820 0.218572
O O2 0.095675 0.227628 0.385591
O O3 0.058548 0.058548 0.327021
O O4 0.209858 0.073542 0.057932
O O5 0.045500 0.045500 0.137648
O O6 0.969430 0.400055 0.083809
O O7 0.784369 0.417708 0.036010
O O8 0.059716 0.440285 0.247009
O O9 0.990825 0.375057 0.411370
#
# Coordination Sequence:
#
# PCOD8319033 Si02
#       6
#     8   8   8   8   8  16
#     4   9  20  37  53  85 111 146 197 238 275 356
#     4  10  22  40  57  80 123 157 184 236 306 347
#     4   9  18  34  59  86 106 150 201 243 270 345
#     4   8  17  35  56  74 113 151 191 222 297 342
#     4  10  21  37  58  82 117 161 182 230 300 364
#     4  10  20  36  58  86 114 148 196 233 290 348
#
# _framework density 20.369492000000001
#
# number of rings (size 3 to 8) (size 9 to 14) (size 15 to 20)
#    0.000    2.571    0.000    2.571    4.000    2.286 
#    0.000    5.714    0.000    0.000    0.000    0.000 
#    0.000    0.000    0.000    0.000    0.000    0.000 
#
# Total GULP energy -693804.240167 kJ/mol
# GULP energy per Si atom -12389.361432 kJ/mol
# Density = 2.032313 g / cm^3
# Si number density = 20.369492 Si / 1000 Ang^3
#
#
#
# Elastic Constant Matrix: (Units=GPa)
#
#
# Indices 1 2 3 4 5 6 
#
# 1 134.3068 -22.4953 29.6591 0.0000 0.0000 0.0000
# 2 -22.4953 134.3068 29.6591 0.0000 0.0000 0.0000
# 3 29.6591 29.6591 156.8899 0.0000 0.0000 0.0000
# 4 0.0000 0.0000 0.0000 24.9825 0.0000 0.0000
# 5 0.0000 0.0000 0.0000 0.0000 24.9825 0.0000
# 6 0.0000 0.0000 0.0000 0.0000 0.0000 34.6192
#
#
#
# Elastic Compliance Matrix: (Units=1/GPa)
#
#
# Indices 1 2 3 4 5 6 
#
# 1 0.008159 0.001782 -0.001879 0.000000 0.000000 0.000000
# 2 0.001782 0.008159 -0.001879 0.000000 0.000000 0.000000
# 3 -0.001879 -0.001879 0.007084 0.000000 0.000000 0.000000
# 4 0.000000 0.000000 0.000000 0.040028 0.000000 0.000000
# 5 0.000000 0.000000 0.000000 0.000000 0.040028 0.000000
# 6 0.000000 0.000000 0.000000 0.000000 0.000000 0.028886
#
#
# Mechanical properties :
#
#
# Convention : Reuss Voigt Hill
#
# Bulk Modulus (GPa) = 51.41721 55.46102 53.43911
# Shear Modulus (GPa) = 35.01868 42.82887 38.92378
#
# Velocity S-wave (km/s) = 4.15079 4.59039 4.37611
# Velocity P-wave (km/s) = 6.94760 7.44192 7.19900
#
# Compressibility (1/GPa) = 0.01944874
#
# Stress axis : x y z
#
# Youngs Moduli (GPa) = 122.56366 122.56366 141.15522
#
# Poissons Ratio (x) = -0.21835 0.26526
# Poissons Ratio (y) = -0.21835 0.26526
# Poissons Ratio (z) = 0.23032 0.23032
#
# Static dielectric constant tensor:
#      x y z
#    x 3.717330 0.000000 0.000000 
#    y 0.000000 3.717330 0.000000 
#    z 0.000000 0.000000 4.709590 
# 
# 
# High freq. dielectric constant tensor:
#      x y z
#    x 1.777230 0.000000 0.000000 
#    y 0.000000 1.777230 0.000000 
#    z 0.000000 0.000000 1.816120 
# 
# From -- ./inp_files/3854.got.cif
#   From: 2010.03.12/outbox.cif.g09.slc.cpg/sg138_2_cif.got.tgz:3854.got - 2010.04.08 09:41:05.
