data_PCOD8319673
_publ_section_title
;
Structure prediction by ZEFSAII (Michael W. Deem and Ramdas Pophale) SiO2 
 PCOD8319673
Probable space group: I 4/M M M
;
_chemical_formula_sum "Si O2"
_cell_formula_units_Z 176
_cell_length_a 18.292805
_cell_length_b 18.292805
_cell_length_c 27.261561
_cell_angle_alpha 90.000000
_cell_angle_beta 90.000000
_cell_angle_gamma 90.000000
_cell_volume 9122.446597
_symmetry_space_group_name_H-M "I 4/M M M"
_symmetry_group_IT_number 139
_symmetry_cell_setting 'tetragonal'
loop_
_space_group_symop_operation_xyz
x,y,z
-y,x,z
-x,-y,z
y,-x,z
x,-y,-z
-x,y,-z
y,x,-z
-y,-x,-z
-x,-y,-z
y,-x,-z
x,y,-z
-y,x,-z
-x,y,z
x,-y,z
-y,-x,z
y,x,z
1/2+x,1/2+y,1/2+z
1/2-y,1/2+x,1/2+z
1/2-x,1/2-y,1/2+z
1/2+y,1/2-x,1/2+z
1/2+x,1/2-y,1/2-z
1/2-x,1/2+y,1/2-z
1/2+y,1/2+x,1/2-z
1/2-y,1/2-x,1/2-z
1/2-x,1/2-y,1/2-z
1/2+y,1/2-x,1/2-z
1/2+x,1/2+y,1/2-z
1/2-y,1/2+x,1/2-z
1/2-x,1/2+y,1/2+z
1/2+x,1/2-y,1/2+z
1/2-y,1/2-x,1/2+z
1/2+y,1/2+x,1/2+z
loop_
_atom_site_type_symbol
_atom_site_label
_atom_site_fract_x
_atom_site_fract_y
_atom_site_fract_z
Si Si1 0.917215 0.196345 0.642556
Si Si2 0.082360 0.500000 0.942669
Si Si3 0.197336 0.081051 0.753551
Si Si4 0.799830 0.799830 0.058579
Si Si5 0.850017 0.416819 0.298309
Si Si6 0.639718 0.164810 0.899375
Si Si7 0.081944 0.918057 0.941812
O O1 0.883458 0.116543 0.636053
O O2 0.904118 0.224370 0.698112
O O3 0.880168 0.250566 0.604374
O O4 0.000000 0.189017 0.627848
O O5 0.123543 0.423834 0.929617
O O6 0.000000 0.500000 0.919591
O O7 0.075170 0.500000 0.000000
O O8 0.135295 0.135295 0.771695
O O9 0.264363 0.092196 0.789477
O O10 0.164211 0.000000 0.757105
O O11 0.721603 0.832021 0.077815
O O12 0.859214 0.859214 0.077269
O O13 0.794453 0.794453 0.000000
O O14 0.871136 0.500000 0.310245
O O15 0.894107 0.394107 0.250000
O O16 0.866840 0.368660 0.345302
O O17 0.000000 0.897277 0.923176
O O18 0.082376 0.917625 0.000000
#
# Coordination Sequence:
#
# PCOD8319673 Si02
#       7
#    32  16  32  16  32  32  16
#     4  10  19  35  58  88 118 156 200 250 299 364
#     4  11  26  46  66  88 123 169 215 265 320 382
#     4   9  19  34  55  83 119 156 198 240 294 358
#     4  11  25  42  66  97 126 162 215 275 324 382
#     4  11  24  38  58  89 124 164 207 255 307 377
#     4  12  23  40  64  91 124 163 211 256 319 380
#     4   8  16  35  64  93 119 151 193 250 320 380
#
# _framework density 19.29307
#
# number of rings (size 3 to 8) (size 9 to 14) (size 15 to 20)
#    0.000    1.636    3.636    1.364    2.545    2.364 
#    0.000    3.636    0.000    0.000    0.000    0.000 
#    0.000    1.455    0.000    0.000    0.000    0.000 
#
# Total GULP energy -1090491.583644 kJ/mol
# GULP energy per Si atom -12391.949814 kJ/mol
# Density = 1.924916 g / cm^3
# Si number density = 19.293070 Si / 1000 Ang^3
#
#
#
# Elastic Constant Matrix: (Units=GPa)
#
#
# Indices 1 2 3 4 5 6 
#
# 1 103.3247 63.1616 31.5411 0.0000 0.0000 0.0000
# 2 63.1616 103.3246 31.5411 0.0000 0.0000 0.0000
# 3 31.5411 31.5411 61.7507 0.0000 0.0000 0.0000
# 4 0.0000 0.0000 0.0000 20.0298 0.0000 0.0000
# 5 0.0000 0.0000 0.0000 0.0000 20.0298 0.0000
# 6 0.0000 0.0000 0.0000 0.0000 0.0000 35.9701
#
#
#
# Elastic Compliance Matrix: (Units=1/GPa)
#
#
# Indices 1 2 3 4 5 6 
#
# 1 0.016173 -0.008725 -0.003804 0.000000 0.000000 0.000000
# 2 -0.008725 0.016173 -0.003804 0.000000 0.000000 0.000000
# 3 -0.003804 -0.003804 0.020080 0.000000 0.000000 0.000000
# 4 0.000000 0.000000 0.000000 0.049926 0.000000 0.000000
# 5 0.000000 0.000000 0.000000 0.000000 0.049926 0.000000
# 6 0.000000 0.000000 0.000000 0.000000 0.000000 0.027801
#
#
# Mechanical properties :
#
#
# Convention : Reuss Voigt Hill
#
# Bulk Modulus (GPa) = 50.60918 57.87640 54.24279
# Shear Modulus (GPa) = 22.79638 24.68301 23.73969
#
# Velocity S-wave (km/s) = 3.44115 3.58071 3.51162
# Velocity P-wave (km/s) = 6.48671 6.86724 6.67968
#
# Compressibility (1/GPa) = 0.01975926
#
# Stress axis : x y z
#
# Youngs Moduli (GPa) = 61.83052 61.83053 49.79967
#
# Poissons Ratio (x) = 0.53949 0.18945
# Poissons Ratio (y) = 0.53949 0.18945
# Poissons Ratio (z) = 0.23522 0.23522
#
# Static dielectric constant tensor:
#      x y z
#    x 3.734810 0.000000 0.000000 
#    y 0.000000 3.734820 0.000000 
#    z 0.000000 0.000000 3.374400 
# 
# 
# High freq. dielectric constant tensor:
#      x y z
#    x 1.761870 0.000000 0.000000 
#    y 0.000000 1.761870 0.000000 
#    z 0.000000 0.000000 1.730980 
# 
# From -- ./inp_files/13160.got.cif
#   From: 2010.03.12/outbox.cif.g09.slc.cpg/sg139_7_cif.got.tgz:13160.got - 2010.04.08 09:46:31.
