data_PCOD8319992
_publ_section_title
;
Structure prediction by ZEFSAII (Michael W. Deem and Ramdas Pophale) SiO2 
 PCOD8319992
Probable space group: I 4/M M M
;
_chemical_formula_sum "Si O2"
_cell_formula_units_Z 96
_cell_length_a 23.884696
_cell_length_b 23.884696
_cell_length_c 10.358291
_cell_angle_alpha 90.000000
_cell_angle_beta 90.000000
_cell_angle_gamma 90.000000
_cell_volume 5909.184415
_symmetry_space_group_name_H-M "I 4/M M M"
_symmetry_group_IT_number 139
_symmetry_cell_setting 'tetragonal'
loop_
_space_group_symop_operation_xyz
x,y,z
-y,x,z
-x,-y,z
y,-x,z
x,-y,-z
-x,y,-z
y,x,-z
-y,-x,-z
-x,-y,-z
y,-x,-z
x,y,-z
-y,x,-z
-x,y,z
x,-y,z
-y,-x,z
y,x,z
1/2+x,1/2+y,1/2+z
1/2-y,1/2+x,1/2+z
1/2-x,1/2-y,1/2+z
1/2+y,1/2-x,1/2+z
1/2+x,1/2-y,1/2-z
1/2-x,1/2+y,1/2-z
1/2+y,1/2+x,1/2-z
1/2-y,1/2-x,1/2-z
1/2-x,1/2-y,1/2-z
1/2+y,1/2-x,1/2-z
1/2+x,1/2+y,1/2-z
1/2-y,1/2+x,1/2-z
1/2-x,1/2+y,1/2+z
1/2+x,1/2-y,1/2+z
1/2-y,1/2-x,1/2+z
1/2+y,1/2+x,1/2+z
loop_
_atom_site_type_symbol
_atom_site_label
_atom_site_fract_x
_atom_site_fract_y
_atom_site_fract_z
Si Si1 0.776577 0.435055 0.349205
Si Si2 0.116732 0.383269 0.750000
Si Si3 0.849432 0.062236 0.846478
Si Si4 0.937466 0.565750 0.000000
O O1 0.785970 0.422367 0.500000
O O2 0.789612 0.500000 0.320132
O O3 0.817180 0.395151 0.266277
O O4 0.713351 0.420476 0.305850
O O5 0.095146 0.415533 0.874219
O O6 0.893525 0.106476 0.787033
O O7 0.863812 0.000000 0.794042
O O8 0.853053 0.061605 0.000000
O O9 0.941948 0.500000 0.000000
O O10 0.000000 0.592327 0.000000
#
# Coordination Sequence:
#
# PCOD8319992 Si02
#       4
#    32  16  32  16
#     4   9  17  30  45  62  88 124 161 193 231 282
#     4  12  20  31  47  64  88 124 162 196 234 285
#     4   8  14  25  43  67  94 122 152 188 231 280
#     4  11  22  32  44  64  89 116 154 208 255 282
#
# _framework density 16.245898
#
# number of rings (size 3 to 8) (size 9 to 14) (size 15 to 20)
#    0.000    2.500    1.667    5.000    0.000    1.667 
#    0.000    2.500    0.000    0.000    0.000    0.000 
#    0.000    0.000    0.000    0.000    0.000   15.333 
#
# Total GULP energy -595023.441165 kJ/mol
# GULP energy per Si atom -12396.321691 kJ/mol
# Density = 1.620892 g / cm^3
# Si number density = 16.245898 Si / 1000 Ang^3
#
#
#
# Elastic Constant Matrix: (Units=GPa)
#
#
# Indices 1 2 3 4 5 6 
#
# 1 130.8478 89.7184 33.3470 0.0000 0.0000 0.0000
# 2 89.7184 130.8455 33.3470 0.0000 0.0000 0.0000
# 3 33.3470 33.3470 59.8145 0.0000 0.0000 0.0000
# 4 0.0000 0.0000 0.0000 15.7360 0.0000 0.0000
# 5 0.0000 0.0000 0.0000 0.0000 15.7365 0.0000
# 6 0.0000 0.0000 0.0000 0.0000 0.0000 31.8314
#
#
#
# Elastic Compliance Matrix: (Units=1/GPa)
#
#
# Indices 1 2 3 4 5 6 
#
# 1 0.014883 -0.009431 -0.003040 0.000000 0.000000 0.000000
# 2 -0.009431 0.014884 -0.003040 0.000000 0.000000 0.000000
# 3 -0.003040 -0.003040 0.020108 0.000000 0.000000 0.000000
# 4 0.000000 0.000000 0.000000 0.063549 0.000000 0.000000
# 5 0.000000 0.000000 0.000000 0.000000 0.063547 0.000000
# 6 0.000000 0.000000 0.000000 0.000000 0.000000 0.031416
#
#
# Mechanical properties :
#
#
# Convention : Reuss Voigt Hill
#
# Bulk Modulus (GPa) = 53.03975 70.48141 61.76058
# Shear Modulus (GPa) = 20.35065 23.66713 22.00889
#
# Velocity S-wave (km/s) = 3.54314 3.82095 3.68467
# Velocity P-wave (km/s) = 7.03260 7.93376 7.49673
#
# Compressibility (1/GPa) = 0.01885378
#
# Stress axis : x y z
#
# Youngs Moduli (GPa) = 67.18861 67.18724 49.73107
#
# Poissons Ratio (x) = 0.63361 0.15118
# Poissons Ratio (y) = 0.63363 0.15119
# Poissons Ratio (z) = 0.20426 0.20426
#
# Static dielectric constant tensor:
#      x y z
#    x 3.275970 0.000000 0.000000 
#    y 0.000000 3.276000 0.000000 
#    z 0.000000 0.000000 2.627250 
# 
# 
# High freq. dielectric constant tensor:
#      x y z
#    x 1.625220 0.000000 0.000000 
#    y 0.000000 1.625220 0.000000 
#    z 0.000000 0.000000 1.576830 
# 
# From -- ./inp_files/1132.got.cif
#   From: 2010.03.12/outbox.cif.g09.slc.cpg/sg139_1_cif.got.tgz:1132.got - 2010.04.08 09:46:31.
