data_PCOD8319054
_publ_section_title
;
Structure prediction by ZEFSAII (Michael W. Deem and Ramdas Pophale) SiO2 
 PCOD8319054
Probable space group: P 42/N C M
;
_chemical_formula_sum "Si O2"
_cell_formula_units_Z 64
_cell_length_a 13.422527
_cell_length_b 13.422527
_cell_length_c 16.662146
_cell_angle_alpha 90.000000
_cell_angle_beta 90.000000
_cell_angle_gamma 90.000000
_cell_volume 3001.922722
_symmetry_space_group_name_H-M "P 42/N C M"
_symmetry_group_IT_number 138
_space_group.IT_coordinate_system_code '2'
_symmetry_cell_setting 'tetragonal'
loop_
_space_group_symop_operation_xyz
x,y,z
1/2-y,x,1/2+z
1/2-x,1/2-y,z
y,1/2-x,1/2+z
1/2+x,-y,1/2-z
-x,1/2+y,1/2-z
1/2+y,1/2+x,-z
-y,-x,-z
-x,-y,-z
1/2+y,-x,1/2-z
1/2+x,1/2+y,-z
-y,1/2+x,1/2-z
1/2-x,y,1/2+z
x,1/2-y,1/2+z
1/2-y,1/2-x,z
y,x,z
loop_
_atom_site_type_symbol
_atom_site_label
_atom_site_fract_x
_atom_site_fract_y
_atom_site_fract_z
Si Si1 0.832371 0.989825 0.678504
Si Si2 0.538922 0.120569 0.274297
Si Si3 0.967666 0.131655 0.074459
Si Si4 0.660754 0.000849 0.996067
O O1 0.735741 0.009495 0.732682
O O2 0.908704 0.082971 0.691885
O O3 0.801459 0.977425 0.586183
O O4 0.889547 0.889547 0.708524
O O5 0.617192 0.098416 0.345945
O O6 0.437143 0.062858 0.292594
O O7 0.900521 0.099480 0.000000
O O8 0.997188 0.247192 0.064861
O O9 0.069463 0.069463 0.079295
O O10 0.583918 0.916083 0.965967
O O11 0.607532 0.107532 0.000000
#
# Coordination Sequence:
#
# PCOD8319054 Si02
#       4
#    16  16  16  16
#     4  10  22  40  60  85 118 157 198 243 297 350
#     4  10  22  40  60  87 122 153 193 246 295 354
#     4  10  20  38  61  87 118 151 192 247 300 349
#     4  10  22  39  59  86 120 156 197 246 294 349
#
# _framework density 21.319668
#
# number of rings (size 3 to 8) (size 9 to 14) (size 15 to 20)
#    0.000    2.000    2.500    0.000    3.500    2.000 
#    0.000    2.500    0.000    4.500    0.000    0.000 
#    0.000    0.000    0.000    0.000    0.000    0.000 
#
# Total GULP energy -793636.633343 kJ/mol
# GULP energy per Si atom -12400.572396 kJ/mol
# Density = 2.127114 g / cm^3
# Si number density = 21.319668 Si / 1000 Ang^3
#
#
#
# Elastic Constant Matrix: (Units=GPa)
#
#
# Indices 1 2 3 4 5 6 
#
# 1 126.4404 56.4299 11.5335 0.0000 0.0000 0.0000
# 2 56.4299 126.4413 11.5335 0.0000 0.0000 0.0000
# 3 11.5335 11.5335 29.7693 0.0000 0.0000 0.0000
# 4 0.0000 0.0000 0.0000 28.3734 0.0000 0.0000
# 5 0.0000 0.0000 0.0000 0.0000 28.3734 0.0000
# 6 0.0000 0.0000 0.0000 0.0000 0.0000 18.1718
#
#
#
# Elastic Compliance Matrix: (Units=1/GPa)
#
#
# Indices 1 2 3 4 5 6 
#
# 1 0.010016 -0.004267 -0.002227 0.000000 0.000000 0.000000
# 2 -0.004267 0.010016 -0.002227 0.000000 0.000000 0.000000
# 3 -0.002227 -0.002227 0.035318 0.000000 0.000000 0.000000
# 4 0.000000 0.000000 0.000000 0.035244 0.000000 0.000000
# 5 0.000000 0.000000 0.000000 0.000000 0.035244 0.000000
# 6 0.000000 0.000000 0.000000 0.000000 0.000000 0.055030
#
#
# Mechanical properties :
#
#
# Convention : Reuss Voigt Hill
#
# Bulk Modulus (GPa) = 26.38077 49.07165 37.72621
# Shear Modulus (GPa) = 23.70246 28.52734 26.11490
#
# Velocity S-wave (km/s) = 3.33793 3.66194 3.50368
# Velocity P-wave (km/s) = 5.22077 6.39897 5.83966
#
# Compressibility (1/GPa) = 0.03790640
#
# Stress axis : x y z
#
# Youngs Moduli (GPa) = 99.83598 99.83675 28.31452
#
# Poissons Ratio (x) = 0.42601 0.06307
# Poissons Ratio (y) = 0.42601 0.06307
# Poissons Ratio (z) = 0.22238 0.22238
#
# Static dielectric constant tensor:
#      x y z
#    x 3.699770 0.000000 0.000000 
#    y 0.000000 3.699780 0.000000 
#    z 0.000000 0.000000 3.847910 
# 
# 
# High freq. dielectric constant tensor:
#      x y z
#    x 1.826990 0.000000 0.000000 
#    y 0.000000 1.826990 0.000000 
#    z 0.000000 0.000000 1.839380 
# 
# From -- ./inp_files/5856.got.cif
#   From: 2010.03.12/outbox.cif.g09.slc.cpg/sg138_3_cif.got.tgz:5856.got - 2010.04.08 09:41:05.
