data_PCOD8319238
_publ_section_title
;
Structure prediction by ZEFSAII (Michael W. Deem and Ramdas Pophale) SiO2 
 PCOD8319238
Probable space group: P 42/N C M
;
_chemical_formula_sum "Si O2"
_cell_formula_units_Z 96
_cell_length_a 14.034882
_cell_length_b 14.034882
_cell_length_c 30.399753
_cell_angle_alpha 90.000000
_cell_angle_beta 90.000000
_cell_angle_gamma 90.000000
_cell_volume 5988.079894
_symmetry_space_group_name_H-M "P 42/N C M"
_symmetry_group_IT_number 138
_space_group.IT_coordinate_system_code '2'
_symmetry_cell_setting 'tetragonal'
loop_
_space_group_symop_operation_xyz
x,y,z
1/2-y,x,1/2+z
1/2-x,1/2-y,z
y,1/2-x,1/2+z
1/2+x,-y,1/2-z
-x,1/2+y,1/2-z
1/2+y,1/2+x,-z
-y,-x,-z
-x,-y,-z
1/2+y,-x,1/2-z
1/2+x,1/2+y,-z
-y,1/2+x,1/2-z
1/2-x,y,1/2+z
x,1/2-y,1/2+z
1/2-y,1/2-x,z
y,x,z
loop_
_atom_site_type_symbol
_atom_site_label
_atom_site_fract_x
_atom_site_fract_y
_atom_site_fract_z
Si Si1 0.745025 0.594822 0.955187
Si Si2 0.741949 0.099905 0.198497
Si Si3 0.472629 0.180120 0.133292
Si Si4 0.769063 0.091748 0.795723
Si Si5 0.479048 0.631743 0.621474
Si Si6 0.513303 0.147356 0.976584
O O1 0.824176 0.675825 0.956301
O O2 0.639969 0.639969 0.959070
O O3 0.754656 0.537840 0.909720
O O4 0.761618 0.524252 0.996228
O O5 0.670275 0.187860 0.199121
O O6 0.851970 0.133275 0.192204
O O7 0.730314 0.049472 0.246125
O O8 0.713090 0.029393 0.158825
O O9 0.373872 0.126129 0.145231
O O10 0.502032 0.251358 0.172496
O O11 0.553939 0.103306 0.124870
O O12 0.581580 0.581580 0.627348
O O13 0.468409 0.680546 0.573527
O O14 0.437658 0.062343 0.976048
O O15 0.609403 0.109403 0.000000
#
# Coordination Sequence:
#
# PCOD8319238 Si02
#       6
#    16  16  16  16  16  16
#     4   9  16  25  38  59  86 112 139 170 208 258
#     4   8  14  25  40  60  81 108 141 169 207 249
#     4   9  15  24  40  62  82 103 134 175 216 245
#     4   8  14  25  41  58  81 109 138 172 207 249
#     4   9  15  23  40  64  85 104 134 177 213 243
#     4   9  14  23  39  60  83 105 133 172 215 248
#
# _framework density 16.031849999999999
#
# number of rings (size 3 to 8) (size 9 to 14) (size 15 to 20)
#    0.000    3.333    1.667    1.000    0.000    0.000 
#    0.000    0.833    0.000    3.000    0.000    1.167 
#    0.000    0.000    0.000    0.000    0.000    0.000 
#
# Total GULP energy -1189650.828867 kJ/mol
# GULP energy per Si atom -12392.196134 kJ/mol
# Density = 1.599536 g / cm^3
# Si number density = 16.031850 Si / 1000 Ang^3
#
#
#
# Elastic Constant Matrix: (Units=GPa)
#
#
# Indices 1 2 3 4 5 6 
#
# 1 37.9440 25.3790 50.0191 0.0000 0.0000 0.0000
# 2 25.3790 37.9440 50.0191 0.0000 0.0000 0.0000
# 3 50.0191 50.0191 172.6003 0.0000 0.0000 0.0000
# 4 0.0000 0.0000 0.0000 22.8274 0.0000 0.0000
# 5 0.0000 0.0000 0.0000 0.0000 22.8274 0.0000
# 6 0.0000 0.0000 0.0000 0.0000 0.0000 15.2823
#
#
#
# Elastic Compliance Matrix: (Units=1/GPa)
#
#
# Indices 1 2 3 4 5 6 
#
# 1 0.054357 -0.025230 -0.008441 0.000000 0.000000 0.000000
# 2 -0.025230 0.054357 -0.008441 0.000000 0.000000 0.000000
# 3 -0.008441 -0.008441 0.010686 0.000000 0.000000 0.000000
# 4 0.000000 0.000000 0.000000 0.043807 0.000000 0.000000
# 5 0.000000 0.000000 0.000000 0.000000 0.043807 0.000000
# 6 0.000000 0.000000 0.000000 0.000000 0.000000 0.065435
#
#
# Mechanical properties :
#
#
# Convention : Reuss Voigt Hill
#
# Bulk Modulus (GPa) = 28.42812 55.48030 41.95421
# Shear Modulus (GPa) = 13.57232 20.39219 16.98225
#
# Velocity S-wave (km/s) = 2.91277 3.57035 3.25819
# Velocity P-wave (km/s) = 5.39287 7.18874 6.35457
#
# Compressibility (1/GPa) = 0.03517644
#
# Stress axis : x y z
#
# Youngs Moduli (GPa) = 18.39700 18.39700 93.57998
#
# Poissons Ratio (x) = 0.46415 0.78990
# Poissons Ratio (y) = 0.46415 0.78990
# Poissons Ratio (z) = 0.15529 0.15529
#
# Static dielectric constant tensor:
#      x y z
#    x 2.852760 0.000000 0.000000 
#    y 0.000000 2.852760 0.000000 
#    z 0.000000 0.000000 3.377830 
# 
# 
# High freq. dielectric constant tensor:
#      x y z
#    x 1.572570 0.000000 0.000000 
#    y 0.000000 1.572570 0.000000 
#    z 0.000000 0.000000 1.631160 
# 
# From -- ./inp_files/8178.got.cif
#   From: 2010.03.12/outbox.cif.g09.slc.cpg/sg138_5_cif.got.tgz:8178.got - 2010.04.08 09:41:05.
