data_PCOD8319352
_publ_section_title
;
Structure prediction by ZEFSAII (Michael W. Deem and Ramdas Pophale) SiO2 
 PCOD8319352
Probable space group: I 4/M M M
;
_chemical_formula_sum "Si O2"
_cell_formula_units_Z 240
_cell_length_a 26.172040
_cell_length_b 26.172040
_cell_length_c 19.432967
_cell_angle_alpha 90.000000
_cell_angle_beta 90.000000
_cell_angle_gamma 90.000000
_cell_volume 13311.109742
_symmetry_space_group_name_H-M "I 4/M M M"
_symmetry_group_IT_number 139
_symmetry_cell_setting 'tetragonal'
loop_
_space_group_symop_operation_xyz
x,y,z
-y,x,z
-x,-y,z
y,-x,z
x,-y,-z
-x,y,-z
y,x,-z
-y,-x,-z
-x,-y,-z
y,-x,-z
x,y,-z
-y,x,-z
-x,y,z
x,-y,z
-y,-x,z
y,x,z
1/2+x,1/2+y,1/2+z
1/2-y,1/2+x,1/2+z
1/2-x,1/2-y,1/2+z
1/2+y,1/2-x,1/2+z
1/2+x,1/2-y,1/2-z
1/2-x,1/2+y,1/2-z
1/2+y,1/2+x,1/2-z
1/2-y,1/2-x,1/2-z
1/2-x,1/2-y,1/2-z
1/2+y,1/2-x,1/2-z
1/2+x,1/2+y,1/2-z
1/2-y,1/2+x,1/2-z
1/2-x,1/2+y,1/2+z
1/2+x,1/2-y,1/2+z
1/2-y,1/2-x,1/2+z
1/2+y,1/2+x,1/2+z
loop_
_atom_site_type_symbol
_atom_site_label
_atom_site_fract_x
_atom_site_fract_y
_atom_site_fract_z
Si Si1 0.848733 0.634991 0.830076
Si Si2 0.191695 0.110545 0.621173
Si Si3 0.060171 0.731504 0.287238
Si Si4 0.726546 0.807861 0.421427
Si Si5 0.058769 0.246229 0.136947
Si Si6 0.351209 0.058629 0.922171
Si Si7 0.859669 0.941516 0.918732
Si Si8 0.942440 0.858865 0.500000
O O1 0.852953 0.647048 0.750000
O O2 0.813852 0.584273 0.833167
O O3 0.821145 0.682100 0.870255
O O4 0.902668 0.622331 0.867724
O O5 0.143737 0.143737 0.647911
O O6 0.214092 0.079251 0.684969
O O7 0.232654 0.147106 0.585110
O O8 0.175017 0.068533 0.566490
O O9 0.080644 0.730386 0.208356
O O10 0.000000 0.725262 0.292820
O O11 0.706374 0.806715 0.500000
O O12 0.753816 0.753816 0.402618
O O13 0.066293 0.289836 0.079573
O O14 0.082861 0.192255 0.113667
O O15 0.000000 0.233534 0.149333
O O16 0.365098 0.000000 0.901295
O O17 0.369754 0.070163 0.000000
O O18 0.907393 0.907393 0.893713
O O19 0.869894 0.000000 0.895492
O O20 0.852831 0.938934 0.000000
O O21 0.909415 0.909415 0.500000
O O22 0.000000 0.877326 0.500000
#
# Coordination Sequence:
#
# PCOD8319352 Si02
#       8
#    32  32  32  32  32  32  32  16
#     4  11  21  33  53  81 109 139 175 222 272 322
#     4   9  17  30  49  72  97 131 171 209 256 310
#     4  10  20  34  53  78 108 137 171 216 266 316
#     4   9  17  32  51  70 100 140 177 212 259 321
#     4   9  17  31  50  72  97 131 171 215 263 309
#     4  10  20  36  58  79 103 140 182 218 259 321
#     4   9  17  29  46  70 101 138 181 228 275 321
#     4  10  18  29  46  68  96 130 173 219 261 311
#
# _framework density 18.030052000000001
#
# number of rings (size 3 to 8) (size 9 to 14) (size 15 to 20)
#    0.000    2.400    2.000    1.200    0.000    2.600 
#    0.000    1.333    0.000    2.800    0.000    1.867 
#    0.000    3.200    0.000    0.000    0.000    0.000 
#
# Total GULP energy -1487333.619243 kJ/mol
# GULP energy per Si atom -12394.446827 kJ/mol
# Density = 1.798902 g / cm^3
# Si number density = 18.030052 Si / 1000 Ang^3
#
#
#
# Elastic Constant Matrix: (Units=GPa)
#
#
# Indices 1 2 3 4 5 6 
#
# 1 77.7512 24.4928 34.9409 0.0000 0.0000 0.0000
# 2 24.4928 77.7513 34.9408 0.0000 0.0000 0.0000
# 3 34.9409 34.9408 96.4851 0.0000 0.0000 0.0000
# 4 0.0000 0.0000 0.0000 25.5642 0.0000 0.0000
# 5 0.0000 0.0000 0.0000 0.0000 25.5639 0.0000
# 6 0.0000 0.0000 0.0000 0.0000 0.0000 18.5998
#
#
#
# Elastic Compliance Matrix: (Units=1/GPa)
#
#
# Indices 1 2 3 4 5 6 
#
# 1 0.015887 -0.002889 -0.004707 0.000000 0.000000 0.000000
# 2 -0.002889 0.015887 -0.004707 0.000000 0.000000 0.000000
# 3 -0.004707 -0.004707 0.013773 0.000000 0.000000 0.000000
# 4 0.000000 0.000000 0.000000 0.039117 0.000000 0.000000
# 5 0.000000 0.000000 0.000000 0.000000 0.039118 0.000000
# 6 0.000000 0.000000 0.000000 0.000000 0.000000 0.053764
#
#
# Mechanical properties :
#
#
# Convention : Reuss Voigt Hill
#
# Bulk Modulus (GPa) = 47.75339 48.97075 48.36207
# Shear Modulus (GPa) = 23.90822 24.45311 24.18067
#
# Velocity S-wave (km/s) = 3.64541 3.68671 3.66612
# Velocity P-wave (km/s) = 6.65294 6.73365 6.69342
#
# Compressibility (1/GPa) = 0.02094092
#
# Stress axis : x y z
#
# Youngs Moduli (GPa) = 62.94453 62.94472 72.60370
#
# Poissons Ratio (x) = 0.18187 0.34174
# Poissons Ratio (y) = 0.18187 0.34174
# Poissons Ratio (z) = 0.29628 0.29627
#
# Static dielectric constant tensor:
#      x y z
#    x 3.296600 0.000000 0.000000 
#    y 0.000000 3.296600 0.000000 
#    z 0.000000 0.000000 3.590380 
# 
# 
# High freq. dielectric constant tensor:
#      x y z
#    x 1.684880 0.000000 0.000000 
#    y 0.000000 1.684880 0.000000 
#    z 0.000000 0.000000 1.696650 
# 
# From -- ./inp_files/9068.got.cif
#   From: 2010.03.12/outbox.cif.g09.slc.cpg/sg139_5_cif.got.tgz:9068.got - 2010.04.08 09:46:31.
