data_PCOD8319527
_publ_section_title
;
Structure prediction by ZEFSAII (Michael W. Deem and Ramdas Pophale) SiO2 
 PCOD8319527
Probable space group: I 4/M M M
;
_chemical_formula_sum "Si O2"
_cell_formula_units_Z 168
_cell_length_a 23.987380
_cell_length_b 23.987380
_cell_length_c 14.547843
_cell_angle_alpha 90.000000
_cell_angle_beta 90.000000
_cell_angle_gamma 90.000000
_cell_volume 8370.747384
_symmetry_space_group_name_H-M "I 4/M M M"
_symmetry_group_IT_number 139
_symmetry_cell_setting 'tetragonal'
loop_
_space_group_symop_operation_xyz
x,y,z
-y,x,z
-x,-y,z
y,-x,z
x,-y,-z
-x,y,-z
y,x,-z
-y,-x,-z
-x,-y,-z
y,-x,-z
x,y,-z
-y,x,-z
-x,y,z
x,-y,z
-y,-x,z
y,x,z
1/2+x,1/2+y,1/2+z
1/2-y,1/2+x,1/2+z
1/2-x,1/2-y,1/2+z
1/2+y,1/2-x,1/2+z
1/2+x,1/2-y,1/2-z
1/2-x,1/2+y,1/2-z
1/2+y,1/2+x,1/2-z
1/2-y,1/2-x,1/2-z
1/2-x,1/2-y,1/2-z
1/2+y,1/2-x,1/2-z
1/2+x,1/2+y,1/2-z
1/2-y,1/2+x,1/2-z
1/2-x,1/2+y,1/2+z
1/2+x,1/2-y,1/2+z
1/2-y,1/2-x,1/2+z
1/2+y,1/2+x,1/2+z
loop_
_atom_site_type_symbol
_atom_site_label
_atom_site_fract_x
_atom_site_fract_y
_atom_site_fract_z
Si Si1 0.500000 0.675534 0.674270
Si Si2 0.296229 0.936831 0.390140
Si Si3 0.358790 0.889457 0.100485
Si Si4 0.500000 0.196407 0.610513
Si Si5 0.106425 0.193863 0.279061
Si Si6 0.180940 0.733777 0.161533
Si Si7 0.906279 0.000000 0.000000
O O1 0.500000 0.740681 0.646073
O O2 0.552350 0.662866 0.739618
O O3 0.500000 0.633748 0.588503
O O4 0.296029 0.933102 0.500000
O O5 0.353368 0.907872 0.350539
O O6 0.240651 0.906716 0.355052
O O7 0.296474 0.000000 0.353895
O O8 0.306927 0.846826 0.087871
O O9 0.337168 0.945854 0.150719
O O10 0.379903 0.907362 0.000000
O O11 0.500000 0.198004 0.500000
O O12 0.147671 0.147671 0.323998
O O13 0.135320 0.221036 0.190567
O O14 0.234873 0.765128 0.118566
O O15 0.198311 0.698311 0.250000
O O16 0.944750 0.055251 0.000000
#
# Coordination Sequence:
#
# PCOD8319527 Si02
#       7
#    16  32  32  16  32  32   8
#     4  12  21  38  61  87 117 154 192 234 283 341
#     4  10  21  38  58  81 111 149 194 242 294 348
#     4  10  20  34  53  77 108 150 194 235 286 348
#     4  10  20  35  53  79 113 150 191 236 283 340
#     4  11  22  35  57  86 113 147 190 235 288 348
#     4  10  19  31  48  76 111 140 175 227 285 345
#     4  11  26  46  64  86 122 164 203 244 282 328
#
# _framework density 20.069894000000001
#
# number of rings (size 3 to 8) (size 9 to 14) (size 15 to 20)
#    0.000    1.571    5.238    0.571    0.000    0.762 
#    0.000    2.381    0.000    2.857    0.000    0.000 
#    0.000    1.524    0.000    0.000    0.000    0.095 
#
# Total GULP energy -1040810.266663 kJ/mol
# GULP energy per Si atom -12390.598413 kJ/mol
# Density = 2.002421 g / cm^3
# Si number density = 20.069894 Si / 1000 Ang^3
#
#
#
# Elastic Constant Matrix: (Units=GPa)
#
#
# Indices 1 2 3 4 5 6 
#
# 1 135.9755 80.6828 19.9903 0.0000 0.0000 0.0000
# 2 80.6828 135.9751 19.9902 0.0000 0.0000 0.0000
# 3 19.9903 19.9902 18.4123 0.0000 0.0000 0.0000
# 4 0.0000 0.0000 0.0000 24.4906 0.0000 0.0000
# 5 0.0000 0.0000 0.0000 0.0000 24.4910 0.0000
# 6 0.0000 0.0000 0.0000 0.0000 0.0000 33.2808
#
#
#
# Elastic Compliance Matrix: (Units=1/GPa)
#
#
# Indices 1 2 3 4 5 6 
#
# 1 0.011929 -0.006157 -0.006267 0.000000 0.000000 0.000000
# 2 -0.006157 0.011929 -0.006267 0.000000 0.000000 0.000000
# 3 -0.006267 -0.006267 0.067919 0.000000 0.000000 0.000000
# 4 0.000000 0.000000 0.000000 0.040832 0.000000 0.000000
# 5 0.000000 0.000000 0.000000 0.000000 0.040831 0.000000
# 6 0.000000 0.000000 0.000000 0.000000 0.000000 0.030047
#
#
# Mechanical properties :
#
#
# Convention : Reuss Voigt Hill
#
# Bulk Modulus (GPa) = 18.38359 59.07662 38.73011
# Shear Modulus (GPa) = 19.30505 27.76578 23.53542
#
# Velocity S-wave (km/s) = 3.10480 3.72352 3.42815
# Velocity P-wave (km/s) = 4.69390 6.92715 5.91685
#
# Compressibility (1/GPa) = 0.05439634
#
# Stress axis : x y z
#
# Youngs Moduli (GPa) = 83.83082 83.83059 14.72343
#
# Poissons Ratio (x) = 0.51613 0.09227
# Poissons Ratio (y) = 0.51613 0.09227
# Poissons Ratio (z) = 0.52534 0.52533
#
# Static dielectric constant tensor:
#      x y z
#    x 3.924270 0.000000 0.000000 
#    y 0.000000 3.924270 0.000000 
#    z 0.000000 0.000000 3.267310 
# 
# 
# High freq. dielectric constant tensor:
#      x y z
#    x 1.787460 0.000000 0.000000 
#    y 0.000000 1.787460 0.000000 
#    z 0.000000 0.000000 1.756310 
# 
# From -- ./inp_files/6155.got.cif
#   From: 2010.03.12/outbox.cif.g09.slc.cpg/sg139_4_cif.got.tgz:6155.got - 2010.04.08 09:46:31.
