data_PCOD8319851
_publ_section_title
;
Structure prediction by ZEFSAII (Michael W. Deem and Ramdas Pophale) SiO2 
 PCOD8319851
Probable space group: I 4/M M M
;
_chemical_formula_sum "Si O2"
_cell_formula_units_Z 160
_cell_length_a 21.876511
_cell_length_b 21.876511
_cell_length_c 18.698664
_cell_angle_alpha 90.000000
_cell_angle_beta 90.000000
_cell_angle_gamma 90.000000
_cell_volume 8948.839032
_symmetry_space_group_name_H-M "I 4/M M M"
_symmetry_group_IT_number 139
_symmetry_cell_setting 'tetragonal'
loop_
_space_group_symop_operation_xyz
x,y,z
-y,x,z
-x,-y,z
y,-x,z
x,-y,-z
-x,y,-z
y,x,-z
-y,-x,-z
-x,-y,-z
y,-x,-z
x,y,-z
-y,x,-z
-x,y,z
x,-y,z
-y,-x,z
y,x,z
1/2+x,1/2+y,1/2+z
1/2-y,1/2+x,1/2+z
1/2-x,1/2-y,1/2+z
1/2+y,1/2-x,1/2+z
1/2+x,1/2-y,1/2-z
1/2-x,1/2+y,1/2-z
1/2+y,1/2+x,1/2-z
1/2-y,1/2-x,1/2-z
1/2-x,1/2-y,1/2-z
1/2+y,1/2-x,1/2-z
1/2+x,1/2+y,1/2-z
1/2-y,1/2+x,1/2-z
1/2-x,1/2+y,1/2+z
1/2+x,1/2-y,1/2+z
1/2-y,1/2-x,1/2+z
1/2+y,1/2+x,1/2+z
loop_
_atom_site_type_symbol
_atom_site_label
_atom_site_fract_x
_atom_site_fract_y
_atom_site_fract_z
Si Si1 0.927749 0.568192 0.671372
Si Si2 0.649670 0.154687 0.081865
Si Si3 0.228965 0.068531 0.420194
Si Si4 0.341514 0.760197 0.703013
Si Si5 0.669111 0.429421 0.225162
O O1 0.902545 0.500000 0.661136
O O2 0.907253 0.592748 0.750000
O O3 0.901083 0.607592 0.607704
O O4 0.000000 0.569294 0.666422
O O5 0.621369 0.221701 0.092837
O O6 0.712577 0.144821 0.124878
O O7 0.665451 0.141640 0.000000
O O8 0.200657 0.076228 0.500000
O O9 0.176707 0.076564 0.360601
O O10 0.257870 0.000000 0.412733
O O11 0.290802 0.709199 0.694900
O O12 0.316657 0.816657 0.750000
O O13 0.402473 0.730002 0.736652
O O14 0.660825 0.500000 0.248719
O O15 0.608751 0.391250 0.247430
#
# Coordination Sequence:
#
# PCOD8319851 Si02
#       5
#    32  32  32  32  32
#     4   9  19  34  50  70 100 142 188 227 262 302
#     4  11  21  32  50  77 107 141 180 222 265 316
#     4   9  18  31  48  75 110 146 183 221 264 315
#     4  10  20  36  54  76 106 139 175 214 264 323
#     4  10  21  37  58  81 106 141 181 225 274 321
#
# _framework density 17.879414000000001
#
# number of rings (size 3 to 8) (size 9 to 14) (size 15 to 20)
#    0.000    2.200    2.000    1.800    0.000    3.400 
#    0.000    3.000    0.000    0.000    0.000    2.800 
#    0.000    0.000    0.000    4.400    0.000    0.000 
#
# Total GULP energy -991737.202966 kJ/mol
# GULP energy per Si atom -12396.715037 kJ/mol
# Density = 1.783872 g / cm^3
# Si number density = 17.879414 Si / 1000 Ang^3
#
#
#
# Elastic Constant Matrix: (Units=GPa)
#
#
# Indices 1 2 3 4 5 6 
#
# 1 69.4569 45.2413 36.3928 0.0000 0.0000 0.0000
# 2 45.2413 69.4563 36.3925 0.0000 0.0000 0.0000
# 3 36.3928 36.3925 99.7099 0.0000 0.0000 0.0000
# 4 0.0000 0.0000 0.0000 18.9410 0.0000 0.0000
# 5 0.0000 0.0000 0.0000 0.0000 18.9408 0.0000
# 6 0.0000 0.0000 0.0000 0.0000 0.0000 16.3774
#
#
#
# Elastic Compliance Matrix: (Units=1/GPa)
#
#
# Indices 1 2 3 4 5 6 
#
# 1 0.026321 -0.014975 -0.004141 0.000000 0.000000 0.000000
# 2 -0.014975 0.026321 -0.004141 0.000000 0.000000 0.000000
# 3 -0.004141 -0.004141 0.013052 0.000000 0.000000 0.000000
# 4 0.000000 0.000000 0.000000 0.052796 0.000000 0.000000
# 5 0.000000 0.000000 0.000000 0.000000 0.052796 0.000000
# 6 0.000000 0.000000 0.000000 0.000000 0.000000 0.061060
#
#
# Mechanical properties :
#
#
# Convention : Reuss Voigt Hill
#
# Bulk Modulus (GPa) = 52.13775 52.74182 52.43979
# Shear Modulus (GPa) = 17.52823 18.89162 18.20993
#
# Velocity S-wave (km/s) = 3.13446 3.25409 3.19483
# Velocity P-wave (km/s) = 6.50568 6.60919 6.55764
#
# Compressibility (1/GPa) = 0.01917996
#
# Stress axis : x y z
#
# Youngs Moduli (GPa) = 37.99210 37.99184 76.61574
#
# Poissons Ratio (x) = 0.56892 0.31729
# Poissons Ratio (y) = 0.56892 0.31729
# Poissons Ratio (z) = 0.15734 0.15734
#
# Static dielectric constant tensor:
#      x y z
#    x 3.192580 0.000000 0.000000 
#    y 0.000000 3.192570 0.000000 
#    z 0.000000 0.000000 3.358170 
# 
# 
# High freq. dielectric constant tensor:
#      x y z
#    x 1.680140 0.000000 0.000000 
#    y 0.000000 1.680140 0.000000 
#    z 0.000000 0.000000 1.685590 
# 
# From -- ./inp_files/8367.got.cif
#   From: 2010.03.12/outbox.cif.g09.slc.cpg/sg139_5_cif.got.tgz:8367.got - 2010.04.08 09:46:31.
