data_PCOD8319309
_publ_section_title
;
Structure prediction by ZEFSAII (Michael W. Deem and Ramdas Pophale) SiO2 
 PCOD8319309
Probable space group: I 4/M M M
;
_chemical_formula_sum "Si O2"
_cell_formula_units_Z 176
_cell_length_a 18.372279
_cell_length_b 18.372279
_cell_length_c 27.473405
_cell_angle_alpha 90.000000
_cell_angle_beta 90.000000
_cell_angle_gamma 90.000000
_cell_volume 9273.390587
_symmetry_space_group_name_H-M "I 4/M M M"
_symmetry_group_IT_number 139
_symmetry_cell_setting 'tetragonal'
loop_
_space_group_symop_operation_xyz
x,y,z
-y,x,z
-x,-y,z
y,-x,z
x,-y,-z
-x,y,-z
y,x,-z
-y,-x,-z
-x,-y,-z
y,-x,-z
x,y,-z
-y,x,-z
-x,y,z
x,-y,z
-y,-x,z
y,x,z
1/2+x,1/2+y,1/2+z
1/2-y,1/2+x,1/2+z
1/2-x,1/2-y,1/2+z
1/2+y,1/2-x,1/2+z
1/2+x,1/2-y,1/2-z
1/2-x,1/2+y,1/2-z
1/2+y,1/2+x,1/2-z
1/2-y,1/2-x,1/2-z
1/2-x,1/2-y,1/2-z
1/2+y,1/2-x,1/2-z
1/2+x,1/2+y,1/2-z
1/2-y,1/2+x,1/2-z
1/2-x,1/2+y,1/2+z
1/2+x,1/2-y,1/2+z
1/2-y,1/2-x,1/2+z
1/2+y,1/2+x,1/2+z
loop_
_atom_site_type_symbol
_atom_site_label
_atom_site_fract_x
_atom_site_fract_y
_atom_site_fract_z
Si Si1 0.419547 0.802839 0.913066
Si Si2 0.150839 0.731951 0.944152
Si Si3 0.417605 0.298483 0.824714
Si Si4 0.298515 0.583248 0.353711
Si Si5 0.806835 0.924157 0.500000
Si Si6 0.200973 0.583556 0.264761
O O1 0.500000 0.842183 0.912973
O O2 0.352612 0.854450 0.927904
O O3 0.403179 0.769084 0.860513
O O4 0.420887 0.739614 0.951903
O O5 0.232056 0.767945 0.938359
O O6 0.095365 0.775283 0.909690
O O7 0.124683 0.738961 0.000000
O O8 0.500000 0.327282 0.830507
O O9 0.364907 0.364907 0.837134
O O10 0.402618 0.269125 0.770755
O O11 0.322637 0.500000 0.346361
O O12 0.366987 0.633014 0.339628
O O13 0.230114 0.602504 0.318753
O O14 0.856521 0.856521 0.500000
O O15 0.851399 0.000000 0.500000
O O16 0.174315 0.500000 0.261330
O O17 0.133286 0.633286 0.250000
#
# Coordination Sequence:
#
# PCOD8319309 Si02
#       6
#    32  32  32  32  16  32
#     4  10  19  30  47  73 103 137 178 225 270 314
#     4  10  19  32  54  79 104 138 179 225 275 325
#     4  10  20  32  48  72 102 138 180 223 268 318
#     4  10  22  39  59  85 113 141 176 217 265 322
#     4  10  18  27  40  60  91 131 174 220 266 312
#     4  10  21  37  57  82 111 143 179 219 261 309
#
# _framework density 18.979033999999999
#
# number of rings (size 3 to 8) (size 9 to 14) (size 15 to 20)
#    0.000    2.000    0.909    3.273    0.000    3.909 
#    0.000    0.000    0.000    8.182    0.000    3.818 
#    0.000    0.000    0.000    0.000    0.000    0.000 
#
# Total GULP energy -1090797.789152 kJ/mol
# GULP energy per Si atom -12395.429422 kJ/mol
# Density = 1.893584 g / cm^3
# Si number density = 18.979034 Si / 1000 Ang^3
#
#
#
# Elastic Constant Matrix: (Units=GPa)
#
#
# Indices 1 2 3 4 5 6 
#
# 1 88.4829 49.1717 25.3655 0.0000 0.0000 0.0000
# 2 49.1717 88.4829 25.3655 0.0000 0.0000 0.0000
# 3 25.3655 25.3655 107.0536 0.0000 0.0000 0.0000
# 4 0.0000 0.0000 0.0000 21.2661 0.0000 0.0000
# 5 0.0000 0.0000 0.0000 0.0000 21.2661 0.0000
# 6 0.0000 0.0000 0.0000 0.0000 0.0000 22.3069
#
#
#
# Elastic Compliance Matrix: (Units=1/GPa)
#
#
# Indices 1 2 3 4 5 6 
#
# 1 0.016699 -0.008739 -0.001886 0.000000 0.000000 0.000000
# 2 -0.008739 0.016699 -0.001886 0.000000 0.000000 0.000000
# 3 -0.001886 -0.001886 0.010235 0.000000 0.000000 0.000000
# 4 0.000000 0.000000 0.000000 0.047023 0.000000 0.000000
# 5 0.000000 0.000000 0.000000 0.000000 0.047023 0.000000
# 6 0.000000 0.000000 0.000000 0.000000 0.000000 0.044829
#
#
# Mechanical properties :
#
#
# Convention : Reuss Voigt Hill
#
# Bulk Modulus (GPa) = 53.73394 53.75828 53.74611
# Shear Modulus (GPa) = 23.39361 25.24228 24.31794
#
# Velocity S-wave (km/s) = 3.51465 3.65089 3.58342
# Velocity P-wave (km/s) = 6.69657 6.79401 6.74547
#
# Compressibility (1/GPa) = 0.01861021
#
# Stress axis : x y z
#
# Youngs Moduli (GPa) = 59.88446 59.88446 97.70546
#
# Poissons Ratio (x) = 0.52334 0.18427
# Poissons Ratio (y) = 0.52334 0.18427
# Poissons Ratio (z) = 0.11294 0.11294
#
# Static dielectric constant tensor:
#      x y z
#    x 3.389440 0.000000 0.000000 
#    y 0.000000 3.389440 0.000000 
#    z 0.000000 0.000000 3.819130 
# 
# 
# High freq. dielectric constant tensor:
#      x y z
#    x 1.716990 0.000000 0.000000 
#    y 0.000000 1.716990 0.000000 
#    z 0.000000 0.000000 1.762080 
# 
# From -- ./inp_files/13104.got.cif
#   From: 2010.03.12/outbox.cif.g09.slc.cpg/sg139_7_cif.got.tgz:13104.got - 2010.04.08 09:46:31.
