data_PCOD8319512
_publ_section_title
;
Structure prediction by ZEFSAII (Michael W. Deem and Ramdas Pophale) SiO2 
 PCOD8319512
Probable space group: I 4/M M M
;
_chemical_formula_sum "Si O2"
_cell_formula_units_Z 144
_cell_length_a 20.365803
_cell_length_b 20.365803
_cell_length_c 20.365785
_cell_angle_alpha 90.000000
_cell_angle_beta 90.000000
_cell_angle_gamma 90.000000
_cell_volume 8447.033793
_symmetry_space_group_name_H-M "I 4/M M M"
_symmetry_group_IT_number 139
_symmetry_cell_setting 'tetragonal'
loop_
_space_group_symop_operation_xyz
x,y,z
-y,x,z
-x,-y,z
y,-x,z
x,-y,-z
-x,y,-z
y,x,-z
-y,-x,-z
-x,-y,-z
y,-x,-z
x,y,-z
-y,x,-z
-x,y,z
x,-y,z
-y,-x,z
y,x,z
1/2+x,1/2+y,1/2+z
1/2-y,1/2+x,1/2+z
1/2-x,1/2-y,1/2+z
1/2+y,1/2-x,1/2+z
1/2+x,1/2-y,1/2-z
1/2-x,1/2+y,1/2-z
1/2+y,1/2+x,1/2-z
1/2-y,1/2-x,1/2-z
1/2-x,1/2-y,1/2-z
1/2+y,1/2-x,1/2-z
1/2+x,1/2+y,1/2-z
1/2-y,1/2+x,1/2-z
1/2-x,1/2+y,1/2+z
1/2+x,1/2-y,1/2+z
1/2-y,1/2-x,1/2+z
1/2+y,1/2+x,1/2+z
loop_
_atom_site_type_symbol
_atom_site_label
_atom_site_fract_x
_atom_site_fract_y
_atom_site_fract_z
Si Si1 0.784292 0.106651 0.500000
Si Si2 0.638520 0.250001 0.361480
Si Si3 0.318881 0.790831 0.500000
Si Si4 0.000000 0.784292 0.393350
Si Si5 0.000000 0.893350 0.715708
Si Si6 0.500000 0.290832 0.681119
Si Si7 0.500000 0.818880 0.209168
Si Si8 0.861480 0.638521 0.750000
O O1 0.837076 0.162924 0.500000
O O2 0.711318 0.136311 0.500000
O O3 0.794619 0.064897 0.435104
O O4 0.694872 0.305128 0.351727
O O5 0.639653 0.217214 0.433431
O O6 0.566569 0.282787 0.360347
O O7 0.648272 0.194873 0.305127
O O8 0.261663 0.738338 0.500000
O O9 0.000000 0.711318 0.363690
O O10 0.000000 0.837077 0.337077
O O11 0.064897 0.935104 0.705381
O O12 0.000000 0.863690 0.788682
O O13 0.500000 0.238338 0.738338
O O14 0.566568 0.860346 0.217214
#
# Coordination Sequence:
#
# PCOD8319512 Si02
#       8
#    16  32  16  16  16  16  16  16
#     4  10  19  31  47  69  99 134 171 210 254 308
#     4  10  19  33  52  74 100 130 166 207 255 310
#     4   9  19  32  48  71  95 123 162 207 252 298
#     4  10  19  31  47  69  99 134 171 210 254 308
#     4  10  19  31  47  69  99 134 171 210 254 308
#     4   9  19  32  48  71  95 123 162 207 252 298
#     4   9  19  32  48  71  95 123 162 207 252 298
#     4  10  19  33  52  74 100 130 166 207 255 310
#
# _framework density 17.047404
#
# number of rings (size 3 to 8) (size 9 to 14) (size 15 to 20)
#    0.000    2.333    0.000    3.000    0.000    0.667 
#    0.000    6.667    0.000    2.667    0.000    0.000 
#    0.000   21.333    0.000    0.000    0.000    0.000 
#
# Total GULP energy -892505.738049 kJ/mol
# GULP energy per Si atom -12395.913028 kJ/mol
# Density = 1.700860 g / cm^3
# Si number density = 17.047404 Si / 1000 Ang^3
#
#
#
# Elastic Constant Matrix: (Units=GPa)
#
#
# Indices 1 2 3 4 5 6 
#
# 1 114.6169 53.0213 53.0216 0.0000 0.0000 0.0000
# 2 53.0213 114.6155 53.0213 0.0000 0.0000 0.0000
# 3 53.0216 53.0213 114.6162 0.0000 0.0000 0.0000
# 4 0.0000 0.0000 0.0000 -174.4959 0.0000 0.0000
# 5 0.0000 0.0000 0.0000 0.0000 -175.0113 0.0000
# 6 0.0000 0.0000 0.0000 0.0000 0.0000 -175.0241
#
#
#
# Elastic Compliance Matrix: (Units=1/GPa)
#
#
# Indices 1 2 3 4 5 6 
#
# 1 0.012334 -0.003901 -0.003901 0.000000 0.000000 0.000000
# 2 -0.003901 0.012334 -0.003901 0.000000 0.000000 0.000000
# 3 -0.003901 -0.003901 0.012334 0.000000 0.000000 0.000000
# 4 0.000000 0.000000 0.000000 -0.005731 0.000000 0.000000
# 5 0.000000 0.000000 0.000000 0.000000 -0.005714 0.000000
# 6 0.000000 0.000000 0.000000 0.000000 0.000000 -0.005713
#
#
# Mechanical properties :
#
#
# Convention : Reuss Voigt Hill
#
# Bulk Modulus (GPa) = 73.55301 73.55301 73.55301
# Shear Modulus (GPa) = 104.64114 -92.58730 6.02692
#
# Velocity S-wave (km/s) = 7.84319 -7.37764 1.88230
# Velocity P-wave (km/s) = 11.19200 5.41599 6.92560
#
# Compressibility (1/GPa) = 0.01359564
#
# Stress axis : x y z
#
# Youngs Moduli (GPa) = 81.07683 81.07593 81.07628
#
# Poissons Ratio (x) = 0.31628 0.31629
# Poissons Ratio (y) = 0.31629 0.31629
# Poissons Ratio (z) = 0.31629 0.31629
#
# Static dielectric constant tensor:
#      x y z
#    x 3.295600 0.000000 0.000000 
#    y 0.000000 3.295600 0.000000 
#    z 0.000000 0.000000 3.295610 
# 
# 
# High freq. dielectric constant tensor:
#      x y z
#    x 1.658870 0.000000 0.000000 
#    y 0.000000 1.658870 0.000000 
#    z 0.000000 0.000000 1.658870 
# 
# From -- ./inp_files/8359.got.cif
#   From: 2010.03.12/outbox.cif.g09.slc.cpg/sg139_5_cif.got.tgz:8359.got - 2010.04.08 09:46:31.
