data_PCOD8319256
_publ_section_title
;
Structure prediction by ZEFSAII (Michael W. Deem and Ramdas Pophale) SiO2 
 PCOD8319256
Probable space group: I 4/M M M
;
_chemical_formula_sum "Si O2"
_cell_formula_units_Z 192
_cell_length_a 29.096313
_cell_length_b 29.096313
_cell_length_c 14.004193
_cell_angle_alpha 90.000000
_cell_angle_beta 90.000000
_cell_angle_gamma 90.000000
_cell_volume 11855.885797
_symmetry_space_group_name_H-M "I 4/M M M"
_symmetry_group_IT_number 139
_symmetry_cell_setting 'tetragonal'
loop_
_space_group_symop_operation_xyz
x,y,z
-y,x,z
-x,-y,z
y,-x,z
x,-y,-z
-x,y,-z
y,x,-z
-y,-x,-z
-x,-y,-z
y,-x,-z
x,y,-z
-y,x,-z
-x,y,z
x,-y,z
-y,-x,z
y,x,z
1/2+x,1/2+y,1/2+z
1/2-y,1/2+x,1/2+z
1/2-x,1/2-y,1/2+z
1/2+y,1/2-x,1/2+z
1/2+x,1/2-y,1/2-z
1/2-x,1/2+y,1/2-z
1/2+y,1/2+x,1/2-z
1/2-y,1/2-x,1/2-z
1/2-x,1/2-y,1/2-z
1/2+y,1/2-x,1/2-z
1/2+x,1/2+y,1/2-z
1/2-y,1/2+x,1/2-z
1/2-x,1/2+y,1/2+z
1/2+x,1/2-y,1/2+z
1/2-y,1/2-x,1/2+z
1/2+y,1/2+x,1/2+z
loop_
_atom_site_type_symbol
_atom_site_label
_atom_site_fract_x
_atom_site_fract_y
_atom_site_fract_z
Si Si1 0.864088 0.788012 0.691008
Si Si2 0.889463 0.623592 0.895001
Si Si3 0.157544 0.446421 0.226290
Si Si4 0.051725 0.749755 0.609993
Si Si5 0.805308 0.320379 0.855918
Si Si6 0.346203 0.727834 0.601577
O O1 0.835528 0.835528 0.682284
O O2 0.913254 0.791210 0.637509
O O3 0.835390 0.747795 0.638158
O O4 0.875979 0.774492 0.801520
O O5 0.881788 0.574890 0.842123
O O6 0.922930 0.655872 0.831134
O O7 0.839863 0.647141 0.913821
O O8 0.911716 0.615887 0.000000
O O9 0.147388 0.500000 0.236839
O O10 0.206890 0.436625 0.178358
O O11 0.058096 0.734789 0.500000
O O12 0.000000 0.767545 0.627728
O O13 0.824729 0.324729 0.750000
O O14 0.808642 0.268417 0.892748
O O15 0.374298 0.733222 0.500000
O O16 0.319527 0.680474 0.596430
#
# Coordination Sequence:
#
# PCOD8319256 Si02
#       6
#    32  32  32  32  32  32
#     4  10  19  30  46  69  97 125 158 198 233 270
#     4  11  20  32  51  71  90 116 151 194 242 292
#     4  10  20  35  51  70  94 120 154 196 237 284
#     4  10  20  34  50  66  91 129 166 197 235 284
#     4  10  16  27  41  62  93 123 151 186 228 269
#     4   9  17  27  40  61  92 129 158 180 219 275
#
# _framework density 16.194488
#
# number of rings (size 3 to 8) (size 9 to 14) (size 15 to 20)
#    0.000    2.000    3.333    2.500    0.000    4.333 
#    0.000    0.000    0.000    5.500    0.000    4.667 
#    0.000    0.333    0.000    1.833    0.000    0.000 
#
# Total GULP energy -1189300.379127 kJ/mol
# GULP energy per Si atom -12388.545616 kJ/mol
# Density = 1.615763 g / cm^3
# Si number density = 16.194488 Si / 1000 Ang^3
#
#
#
# Elastic Constant Matrix: (Units=GPa)
#
#
# Indices 1 2 3 4 5 6 
#
# 1 70.0742 32.6994 34.9849 0.0000 0.0000 0.0000
# 2 32.6994 70.0742 34.9849 0.0000 0.0000 0.0000
# 3 34.9849 34.9849 121.3423 0.0000 0.0000 0.0000
# 4 0.0000 0.0000 0.0000 14.6887 0.0000 0.0000
# 5 0.0000 0.0000 0.0000 0.0000 14.6887 0.0000
# 6 0.0000 0.0000 0.0000 0.0000 0.0000 16.4948
#
#
#
# Elastic Compliance Matrix: (Units=1/GPa)
#
#
# Indices 1 2 3 4 5 6 
#
# 1 0.019431 -0.007325 -0.003490 0.000000 0.000000 0.000000
# 2 -0.007325 0.019431 -0.003490 0.000000 0.000000 0.000000
# 3 -0.003490 -0.003490 0.010254 0.000000 0.000000 0.000000
# 4 0.000000 0.000000 0.000000 0.068080 0.000000 0.000000
# 5 0.000000 0.000000 0.000000 0.000000 0.068080 0.000000
# 6 0.000000 0.000000 0.000000 0.000000 0.000000 0.060625
#
#
# Mechanical properties :
#
#
# Convention : Reuss Voigt Hill
#
# Bulk Modulus (GPa) = 48.76882 51.86991 50.31937
# Shear Modulus (GPa) = 17.77163 19.76253 18.76708
#
# Velocity S-wave (km/s) = 3.31628 3.49710 3.40789
# Velocity P-wave (km/s) = 6.69652 6.95739 6.82820
#
# Compressibility (1/GPa) = 0.02050490
#
# Stress axis : x y z
#
# Youngs Moduli (GPa) = 51.46347 51.46347 97.52408
#
# Poissons Ratio (x) = 0.37696 0.34041
# Poissons Ratio (y) = 0.37696 0.34041
# Poissons Ratio (z) = 0.17963 0.17963
#
# Static dielectric constant tensor:
#      x y z
#    x 2.813470 0.000000 0.000000 
#    y 0.000000 2.813470 0.000000 
#    z 0.000000 0.000000 3.538060 
# 
# 
# High freq. dielectric constant tensor:
#      x y z
#    x 1.582060 0.000000 0.000000 
#    y 0.000000 1.582060 0.000000 
#    z 0.000000 0.000000 1.646400 
# 
# From -- ./inp_files/6688.got.cif
#   From: 2010.03.12/outbox.cif.g09.slc.cpg/sg139_4_cif.got.tgz:6688.got - 2010.04.08 09:46:31.
