data_PCOD8319177
_publ_section_title
;
Structure prediction by ZEFSAII (Michael W. Deem and Ramdas Pophale) SiO2 
 PCOD8319177
Probable space group: P 42/N C M
;
_chemical_formula_sum "Si O2"
_cell_formula_units_Z 64
_cell_length_a 14.864133
_cell_length_b 14.864133
_cell_length_c 14.032257
_cell_angle_alpha 90.000000
_cell_angle_beta 90.000000
_cell_angle_gamma 90.000000
_cell_volume 3100.321238
_symmetry_space_group_name_H-M "P 42/N C M"
_symmetry_group_IT_number 138
_space_group.IT_coordinate_system_code '2'
_symmetry_cell_setting 'tetragonal'
loop_
_space_group_symop_operation_xyz
x,y,z
1/2-y,x,1/2+z
1/2-x,1/2-y,z
y,1/2-x,1/2+z
1/2+x,-y,1/2-z
-x,1/2+y,1/2-z
1/2+y,1/2+x,-z
-y,-x,-z
-x,-y,-z
1/2+y,-x,1/2-z
1/2+x,1/2+y,-z
-y,1/2+x,1/2-z
1/2-x,y,1/2+z
x,1/2-y,1/2+z
1/2-y,1/2-x,z
y,x,z
loop_
_atom_site_type_symbol
_atom_site_label
_atom_site_fract_x
_atom_site_fract_y
_atom_site_fract_z
Si Si1 0.344953 0.487766 0.673639
Si Si2 0.831996 0.190758 0.388520
Si Si3 0.512202 0.653648 0.911327
Si Si4 0.657490 0.460789 0.122327
O O1 0.425526 0.425526 0.628719
O O2 0.350942 0.594049 0.656233
O O3 0.249877 0.457185 0.629563
O O4 0.354528 0.474086 0.787399
O O5 0.750000 0.250000 0.344034
O O6 0.817651 0.182350 0.500000
O O7 0.923523 0.242426 0.368550
O O8 0.581308 0.581308 0.868930
O O9 0.412134 0.624153 0.878930
O O10 0.518441 0.650308 0.026062
#
# Coordination Sequence:
#
# PCOD8319177 Si02
#       4
#    16  16  16  16
#     4  12  25  39  60  96 132 167 209 261 320 385
#     4  11  20  39  64  94 126 158 206 269 332 373
#     4  11  22  42  65  87 122 169 214 259 310 377
#     4  11  21  40  66  94 122 161 213 268 320 381
#
# _framework density 20.64302
#
# number of rings (size 3 to 8) (size 9 to 14) (size 15 to 20)
#    0.000    0.750    5.000    6.000    0.000    1.000 
#    0.000    1.250    0.000    3.000    0.000    0.000 
#    0.000    0.000    0.000    0.000    0.000    0.000 
#
# Total GULP energy -793186.136837 kJ/mol
# GULP energy per Si atom -12393.533388 kJ/mol
# Density = 2.059604 g / cm^3
# Si number density = 20.643020 Si / 1000 Ang^3
#
#
#
# Elastic Constant Matrix: (Units=GPa)
#
#
# Indices 1 2 3 4 5 6 
#
# 1 80.0957 105.7487 29.9234 0.0000 0.0000 0.0000
# 2 105.7487 80.0951 29.9234 0.0000 0.0000 0.0000
# 3 29.9234 29.9234 96.3756 0.0000 0.0000 0.0000
# 4 0.0000 0.0000 0.0000 13.9922 0.0000 0.0000
# 5 0.0000 0.0000 0.0000 0.0000 13.9922 0.0000
# 6 0.0000 0.0000 0.0000 0.0000 0.0000 48.3283
#
#
#
# Elastic Compliance Matrix: (Units=1/GPa)
#
#
# Indices 1 2 3 4 5 6 
#
# 1 -0.016501 0.022480 -0.001856 0.000000 0.000000 0.000000
# 2 0.022480 -0.016501 -0.001856 0.000000 0.000000 0.000000
# 3 -0.001856 -0.001856 0.011529 0.000000 0.000000 0.000000
# 4 0.000000 0.000000 0.000000 0.071468 0.000000 0.000000
# 5 0.000000 0.000000 0.000000 0.000000 0.071468 0.000000
# 6 0.000000 0.000000 0.000000 0.000000 0.000000 0.020692
#
#
# Mechanical properties :
#
#
# Convention : Reuss Voigt Hill
#
# Bulk Modulus (GPa) = 62.26304 65.30635 63.78469
# Shear Modulus (GPa) = 45.46555 21.32728 33.39641
#
# Velocity S-wave (km/s) = 4.69814 3.21775 4.02656
# Velocity P-wave (km/s) = 7.72381 6.74610 7.25145
#
# Compressibility (1/GPa) = 0.01606089
#
# Stress axis : x y z
#
# Youngs Moduli (GPa) = -60.60136 -60.60082 86.73944
#
# Poissons Ratio (x) = 1.36231 0.16102
# Poissons Ratio (y) = 1.36232 0.16101
# Poissons Ratio (z) = -0.11249 -0.11249
#
# Static dielectric constant tensor:
#      x y z
#    x 3.661250 0.000000 0.000000 
#    y 0.000000 3.661240 0.000000 
#    z 0.000000 0.000000 3.887930 
# 
# 
# High freq. dielectric constant tensor:
#      x y z
#    x 1.797370 0.000000 0.000000 
#    y 0.000000 1.797370 0.000000 
#    z 0.000000 0.000000 1.812400 
# 
# From -- ./inp_files/3881.got.cif
#   From: 2010.03.12/outbox.cif.g09.slc.cpg/sg138_2_cif.got.tgz:3881.got - 2010.04.08 09:41:05.
