data_PCOD8319519
_publ_section_title
;
Structure prediction by ZEFSAII (Michael W. Deem and Ramdas Pophale) SiO2 
 PCOD8319519
Probable space group: I 4/M M M
;
_chemical_formula_sum "Si O2"
_cell_formula_units_Z 192
_cell_length_a 19.424439
_cell_length_b 19.424439
_cell_length_c 29.115300
_cell_angle_alpha 90.000000
_cell_angle_beta 90.000000
_cell_angle_gamma 90.000000
_cell_volume 10985.459792
_symmetry_space_group_name_H-M "I 4/M M M"
_symmetry_group_IT_number 139
_symmetry_cell_setting 'tetragonal'
loop_
_space_group_symop_operation_xyz
x,y,z
-y,x,z
-x,-y,z
y,-x,z
x,-y,-z
-x,y,-z
y,x,-z
-y,-x,-z
-x,-y,-z
y,-x,-z
x,y,-z
-y,x,-z
-x,y,z
x,-y,z
-y,-x,z
y,x,z
1/2+x,1/2+y,1/2+z
1/2-y,1/2+x,1/2+z
1/2-x,1/2-y,1/2+z
1/2+y,1/2-x,1/2+z
1/2+x,1/2-y,1/2-z
1/2-x,1/2+y,1/2-z
1/2+y,1/2+x,1/2-z
1/2-y,1/2-x,1/2-z
1/2-x,1/2-y,1/2-z
1/2+y,1/2-x,1/2-z
1/2+x,1/2+y,1/2-z
1/2-y,1/2+x,1/2-z
1/2-x,1/2+y,1/2+z
1/2+x,1/2-y,1/2+z
1/2-y,1/2-x,1/2+z
1/2+y,1/2+x,1/2+z
loop_
_atom_site_type_symbol
_atom_site_label
_atom_site_fract_x
_atom_site_fract_y
_atom_site_fract_z
Si Si1 0.648884 0.238892 0.142861
Si Si2 0.420130 0.689291 0.605388
Si Si3 0.319371 0.075326 0.052121
Si Si4 0.919415 0.195077 0.273413
Si Si5 0.806326 0.580588 0.948086
Si Si6 0.753565 0.356335 0.310693
O O1 0.716968 0.283033 0.135951
O O2 0.593874 0.275493 0.175866
O O3 0.614637 0.237432 0.092469
O O4 0.673115 0.164764 0.165307
O O5 0.500000 0.675330 0.595311
O O6 0.378609 0.621392 0.590396
O O7 0.389986 0.754533 0.577473
O O8 0.407123 0.707467 0.658293
O O9 0.389439 0.117283 0.057316
O O10 0.333642 0.000000 0.073557
O O11 0.296108 0.069260 0.000000
O O12 0.874370 0.125631 0.264526
O O13 0.896423 0.256398 0.238042
O O14 0.000000 0.176993 0.268180
O O15 0.810484 0.500000 0.939891
O O16 0.777610 0.596966 0.000000
O O17 0.715592 0.284409 0.301197
#
# Coordination Sequence:
#
# PCOD8319519 Si02
#       6
#    32  32  32  32  32  32
#     4  10  19  33  52  75 103 133 170 213 259 314
#     4  10  19  31  48  71 100 132 169 212 254 302
#     4   9  18  32  49  68  91 125 168 209 253 308
#     4  10  20  33  51  74 102 136 171 211 259 310
#     4  10  20  33  51  76 104 132 167 215 268 318
#     4   9  17  31  50  72  96 128 170 213 252 296
#
# _framework density 17.477647999999999
#
# number of rings (size 3 to 8) (size 9 to 14) (size 15 to 20)
#    0.000    2.333    1.667    1.500    0.000    3.333 
#    0.000    3.333    0.000    3.000    0.000    2.333 
#    0.000    2.667    0.000   15.500    0.000    0.167 
#
# Total GULP energy -1189472.149782 kJ/mol
# GULP energy per Si atom -12390.334894 kJ/mol
# Density = 1.743787 g / cm^3
# Si number density = 17.477648 Si / 1000 Ang^3
#
#
#
# Elastic Constant Matrix: (Units=GPa)
#
#
# Indices 1 2 3 4 5 6 
#
# 1 80.7870 37.3318 43.0250 0.0000 0.0000 0.0000
# 2 37.3318 80.7870 43.0250 0.0000 0.0000 0.0000
# 3 43.0250 43.0250 113.7670 0.0000 0.0000 0.0000
# 4 0.0000 0.0000 0.0000 25.6188 0.0000 0.0000
# 5 0.0000 0.0000 0.0000 0.0000 25.6188 0.0000
# 6 0.0000 0.0000 0.0000 0.0000 0.0000 15.8127
#
#
#
# Elastic Compliance Matrix: (Units=1/GPa)
#
#
# Indices 1 2 3 4 5 6 
#
# 1 0.017349 -0.005663 -0.004419 0.000000 0.000000 0.000000
# 2 -0.005663 0.017349 -0.004419 0.000000 0.000000 0.000000
# 3 -0.004419 -0.004419 0.012133 0.000000 0.000000 0.000000
# 4 0.000000 0.000000 0.000000 0.039034 0.000000 0.000000
# 5 0.000000 0.000000 0.000000 0.000000 0.039034 0.000000
# 6 0.000000 0.000000 0.000000 0.000000 0.000000 0.063240
#
#
# Mechanical properties :
#
#
# Convention : Reuss Voigt Hill
#
# Bulk Modulus (GPa) = 56.09657 58.01160 57.05408
# Shear Modulus (GPa) = 22.41306 23.54067 22.97686
#
# Velocity S-wave (km/s) = 3.58492 3.67400 3.62973
# Velocity P-wave (km/s) = 7.02150 7.15972 7.09095
#
# Compressibility (1/GPa) = 0.01782640
#
# Stress axis : x y z
#
# Youngs Moduli (GPa) = 57.64061 57.64061 82.42318
#
# Poissons Ratio (x) = 0.32644 0.36425
# Poissons Ratio (y) = 0.32644 0.36425
# Poissons Ratio (z) = 0.25473 0.25473
#
# Static dielectric constant tensor:
#      x y z
#    x 3.117520 0.000000 0.000000 
#    y 0.000000 3.117520 0.000000 
#    z 0.000000 0.000000 3.476700 
# 
# 
# High freq. dielectric constant tensor:
#      x y z
#    x 1.654810 0.000000 0.000000 
#    y 0.000000 1.654810 0.000000 
#    z 0.000000 0.000000 1.689900 
# 
# From -- ./inp_files/13282.got.cif
#   From: 2010.03.12/outbox.cif.g09.slc.cpg/sg139_7_cif.got.tgz:13282.got - 2010.04.08 09:46:31.
