data_PCOD8319797
_publ_section_title
;
Structure prediction by ZEFSAII (Michael W. Deem and Ramdas Pophale) SiO2 
 PCOD8319797
Probable space group: I 4/M M M
;
_chemical_formula_sum "Si O2"
_cell_formula_units_Z 160
_cell_length_a 29.376918
_cell_length_b 29.376918
_cell_length_c 10.040375
_cell_angle_alpha 90.000000
_cell_angle_beta 90.000000
_cell_angle_gamma 90.000000
_cell_volume 8664.876870
_symmetry_space_group_name_H-M "I 4/M M M"
_symmetry_group_IT_number 139
_symmetry_cell_setting 'tetragonal'
loop_
_space_group_symop_operation_xyz
x,y,z
-y,x,z
-x,-y,z
y,-x,z
x,-y,-z
-x,y,-z
y,x,-z
-y,-x,-z
-x,-y,-z
y,-x,-z
x,y,-z
-y,x,-z
-x,y,z
x,-y,z
-y,-x,z
y,x,z
1/2+x,1/2+y,1/2+z
1/2-y,1/2+x,1/2+z
1/2-x,1/2-y,1/2+z
1/2+y,1/2-x,1/2+z
1/2+x,1/2-y,1/2-z
1/2-x,1/2+y,1/2-z
1/2+y,1/2+x,1/2-z
1/2-y,1/2-x,1/2-z
1/2-x,1/2-y,1/2-z
1/2+y,1/2-x,1/2-z
1/2+x,1/2+y,1/2-z
1/2-y,1/2+x,1/2-z
1/2-x,1/2+y,1/2+z
1/2+x,1/2-y,1/2+z
1/2-y,1/2-x,1/2+z
1/2+y,1/2+x,1/2+z
loop_
_atom_site_type_symbol
_atom_site_label
_atom_site_fract_x
_atom_site_fract_y
_atom_site_fract_z
Si Si1 0.378266 0.550669 0.341376
Si Si2 0.314419 0.756678 0.149944
Si Si3 0.286403 0.915625 0.348344
Si Si4 0.946306 0.386960 0.653982
Si Si5 0.551722 0.719487 0.643584
O O1 0.382123 0.549656 0.500000
O O2 0.386049 0.500000 0.282265
O O3 0.416439 0.583562 0.278472
O O4 0.328479 0.571966 0.302383
O O5 0.295309 0.704692 0.167670
O O6 0.288984 0.788984 0.250000
O O7 0.367295 0.762702 0.181135
O O8 0.304637 0.773716 0.000000
O O9 0.278086 0.931239 0.500000
O O10 0.340139 0.918927 0.317018
O O11 0.260331 0.948340 0.248486
O O12 0.939298 0.401649 0.500000
O O13 0.925850 0.425850 0.750000
O O14 0.000000 0.380657 0.684781
O O15 0.573978 0.733964 0.500000
O O16 0.500000 0.706907 0.615018
#
# Coordination Sequence:
#
# PCOD8319797 Si02
#       5
#    32  32  32  32  32
#     4   8  14  25  41  63  93 128 167 213 262 309
#     4   9  18  32  49  71 100 132 165 201 240 281
#     4  10  20  34  53  76 103 134 168 207 248 295
#     4  10  22  39  58  81 107 135 170 212 259 313
#     4   9  18  31  46  67  96 127 159 199 246 294
#
# _framework density 18.465350999999998
#
# number of rings (size 3 to 8) (size 9 to 14) (size 15 to 20)
#    0.000    2.800    0.000    2.400    0.000    4.400 
#    0.000    2.000    0.000    0.000    0.000    0.000 
#    0.000    0.000    0.000    4.400    0.000    4.400 
#
# Total GULP energy -991065.908291 kJ/mol
# GULP energy per Si atom -12388.323854 kJ/mol
# Density = 1.842332 g / cm^3
# Si number density = 18.465351 Si / 1000 Ang^3
#
#
#
# Elastic Constant Matrix: (Units=GPa)
#
#
# Indices 1 2 3 4 5 6 
#
# 1 82.4432 40.0713 42.5003 0.0000 0.0000 0.0000
# 2 40.0713 82.4432 42.5003 0.0000 0.0000 0.0000
# 3 42.5003 42.5003 62.3912 0.0000 0.0000 0.0000
# 4 0.0000 0.0000 0.0000 21.3787 0.0000 0.0000
# 5 0.0000 0.0000 0.0000 0.0000 21.3787 0.0000
# 6 0.0000 0.0000 0.0000 0.0000 0.0000 27.8916
#
#
#
# Elastic Compliance Matrix: (Units=1/GPa)
#
#
# Indices 1 2 3 4 5 6 
#
# 1 0.019539 -0.004062 -0.010543 0.000000 0.000000 0.000000
# 2 -0.004062 0.019539 -0.010543 0.000000 0.000000 0.000000
# 3 -0.010543 -0.010543 0.030391 0.000000 0.000000 0.000000
# 4 0.000000 0.000000 0.000000 0.046775 0.000000 0.000000
# 5 0.000000 0.000000 0.000000 0.000000 0.046775 0.000000
# 6 0.000000 0.000000 0.000000 0.000000 0.000000 0.035853
#
#
# Mechanical properties :
#
#
# Convention : Reuss Voigt Hill
#
# Bulk Modulus (GPa) = 52.15397 53.04683 52.60040
# Shear Modulus (GPa) = 19.56501 20.94351 20.25426
#
# Velocity S-wave (km/s) = 3.25861 3.37145 3.31551
# Velocity P-wave (km/s) = 6.51641 6.62916 6.57302
#
# Compressibility (1/GPa) = 0.01917400
#
# Stress axis : x y z
#
# Youngs Moduli (GPa) = 51.18049 51.18049 32.90441
#
# Poissons Ratio (x) = 0.20789 0.34690
# Poissons Ratio (y) = 0.20789 0.34690
# Poissons Ratio (z) = 0.53958 0.53958
#
# Static dielectric constant tensor:
#      x y z
#    x 3.418260 0.000000 0.000000 
#    y 0.000000 3.418260 0.000000 
#    z 0.000000 0.000000 3.120270 
# 
# 
# High freq. dielectric constant tensor:
#      x y z
#    x 1.711510 0.000000 0.000000 
#    y 0.000000 1.711510 0.000000 
#    z 0.000000 0.000000 1.697500 
# 
# From -- ./inp_files/3900.got.cif
#   From: 2010.03.12/outbox.cif.g09.slc.cpg/sg139_2_cif.got.tgz:3900.got - 2010.04.08 09:46:31.
