data_PCOD8319471
_publ_section_title
;
Structure prediction by ZEFSAII (Michael W. Deem and Ramdas Pophale) SiO2 
 PCOD8319471
Probable space group: I 4/M M M
;
_chemical_formula_sum "Si O2"
_cell_formula_units_Z 192
_cell_length_a 18.574479
_cell_length_b 18.574479
_cell_length_c 30.777566
_cell_angle_alpha 90.000000
_cell_angle_beta 90.000000
_cell_angle_gamma 90.000000
_cell_volume 10618.607137
_symmetry_space_group_name_H-M "I 4/M M M"
_symmetry_group_IT_number 139
_symmetry_cell_setting 'tetragonal'
loop_
_space_group_symop_operation_xyz
x,y,z
-y,x,z
-x,-y,z
y,-x,z
x,-y,-z
-x,y,-z
y,x,-z
-y,-x,-z
-x,-y,-z
y,-x,-z
x,y,-z
-y,x,-z
-x,y,z
x,-y,z
-y,-x,z
y,x,z
1/2+x,1/2+y,1/2+z
1/2-y,1/2+x,1/2+z
1/2-x,1/2-y,1/2+z
1/2+y,1/2-x,1/2+z
1/2+x,1/2-y,1/2-z
1/2-x,1/2+y,1/2-z
1/2+y,1/2+x,1/2-z
1/2-y,1/2-x,1/2-z
1/2-x,1/2-y,1/2-z
1/2+y,1/2-x,1/2-z
1/2+x,1/2+y,1/2-z
1/2-y,1/2+x,1/2-z
1/2-x,1/2+y,1/2+z
1/2+x,1/2-y,1/2+z
1/2-y,1/2-x,1/2+z
1/2+y,1/2+x,1/2+z
loop_
_atom_site_type_symbol
_atom_site_label
_atom_site_fract_x
_atom_site_fract_y
_atom_site_fract_z
Si Si1 0.579134 0.305631 0.411850
Si Si2 0.726567 0.916945 0.000000
Si Si3 0.079511 0.294597 0.168132
Si Si4 0.771141 0.652497 0.000000
Si Si5 0.196044 0.918466 0.749467
Si Si6 0.349391 0.767007 0.167258
Si Si7 0.415877 0.298161 0.082889
O O1 0.500000 0.340622 0.411845
O O2 0.633722 0.366279 0.396773
O O3 0.598671 0.276182 0.458907
O O4 0.583255 0.239751 0.379105
O O5 0.663042 0.857679 0.000000
O O6 0.696667 0.000000 0.000000
O O7 0.089945 0.234530 0.204586
O O8 0.146221 0.349149 0.169807
O O9 0.000000 0.331849 0.174154
O O10 0.751354 0.607170 0.042608
O O11 0.729013 0.729013 0.000000
O O12 0.118981 0.881020 0.752501
O O13 0.244307 0.883013 0.712597
O O14 0.181057 0.000000 0.736651
O O15 0.269902 0.730098 0.161863
O O16 0.399430 0.743789 0.127371
O O17 0.500000 0.315768 0.080110
O O18 0.373955 0.373955 0.081526
#
# Coordination Sequence:
#
# PCOD8319471 Si02
#       7
#    32  16  32  16  32  32  32
#     4  10  19  30  45  67  96 129 165 206 253 304
#     4  10  20  33  51  74 100 132 173 220 261 295
#     4  10  20  33  51  75 101 130 169 215 257 298
#     4  10  19  33  55  78 103 137 175 214 256 304
#     4  10  20  33  51  76 104 135 170 209 256 308
#     4  10  19  33  54  76 101 135 173 212 253 299
#     4  10  21  36  56  82 108 136 168 204 251 305
#
# _framework density 18.081467
#
# number of rings (size 3 to 8) (size 9 to 14) (size 15 to 20)
#    0.000    2.000    0.000    4.500    0.000    3.167 
#    0.000    0.000    0.000   13.000    0.000    4.667 
#    0.000    0.000    0.000    0.000    0.000    0.000 
#
# Total GULP energy -1190269.999346 kJ/mol
# GULP energy per Si atom -12398.645827 kJ/mol
# Density = 1.804031 g / cm^3
# Si number density = 18.081467 Si / 1000 Ang^3
#
#
#
# Elastic Constant Matrix: (Units=GPa)
#
#
# Indices 1 2 3 4 5 6 
#
# 1 109.4704 44.0426 11.9996 0.0000 0.0000 0.0000
# 2 44.0426 109.4704 11.9996 0.0000 0.0000 0.0000
# 3 11.9996 11.9996 77.1268 0.0000 0.0000 0.0000
# 4 0.0000 0.0000 0.0000 4.0467 0.0000 0.0000
# 5 0.0000 0.0000 0.0000 0.0000 4.0467 0.0000
# 6 0.0000 0.0000 0.0000 0.0000 0.0000 19.7813
#
#
#
# Elastic Compliance Matrix: (Units=1/GPa)
#
#
# Indices 1 2 3 4 5 6 
#
# 1 0.010980 -0.004304 -0.001039 0.000000 0.000000 0.000000
# 2 -0.004304 0.010980 -0.001039 0.000000 0.000000 0.000000
# 3 -0.001039 -0.001039 0.013289 0.000000 0.000000 0.000000
# 4 0.000000 0.000000 0.000000 0.247113 0.000000 0.000000
# 5 0.000000 0.000000 0.000000 0.000000 0.247113 0.000000
# 6 0.000000 0.000000 0.000000 0.000000 0.000000 0.050553
#
#
# Mechanical properties :
#
#
# Convention : Reuss Voigt Hill
#
# Bulk Modulus (GPa) = 44.47038 48.01682 46.24360
# Shear Modulus (GPa) = 8.32935 20.77666 14.55301
#
# Velocity S-wave (km/s) = 2.14862 3.39345 2.84008
# Velocity P-wave (km/s) = 5.55007 6.47823 6.03203
#
# Compressibility (1/GPa) = 0.02248688
#
# Stress axis : x y z
#
# Youngs Moduli (GPa) = 91.07252 91.07252 75.25088
#
# Poissons Ratio (x) = 0.39195 0.07817
# Poissons Ratio (y) = 0.39195 0.07817
# Poissons Ratio (z) = 0.09460 0.09460
#
# Static dielectric constant tensor:
#      x y z
#    x 3.286820 0.000000 0.000000 
#    y 0.000000 3.286820 0.000000 
#    z 0.000000 0.000000 3.583660 
# 
# 
# High freq. dielectric constant tensor:
#      x y z
#    x 1.685360 0.000000 0.000000 
#    y 0.000000 1.685360 0.000000 
#    z 0.000000 0.000000 1.728550 
# 
# From -- ./inp_files/14349.got.cif
#   From: 2010.03.12/outbox.cif.g09.slc.cpg/sg139_8_cif.got.tgz:14349.got - 2010.04.08 09:46:31.
