data_PCOD8319308
_publ_section_title
;
Structure prediction by ZEFSAII (Michael W. Deem and Ramdas Pophale) SiO2 
 PCOD8319308
Probable space group: I 4/M M M
;
_chemical_formula_sum "Si O2"
_cell_formula_units_Z 176
_cell_length_a 18.721887
_cell_length_b 18.721887
_cell_length_c 27.606900
_cell_angle_alpha 90.000000
_cell_angle_beta 90.000000
_cell_angle_gamma 90.000000
_cell_volume 9676.468371
_symmetry_space_group_name_H-M "I 4/M M M"
_symmetry_group_IT_number 139
_symmetry_cell_setting 'tetragonal'
loop_
_space_group_symop_operation_xyz
x,y,z
-y,x,z
-x,-y,z
y,-x,z
x,-y,-z
-x,y,-z
y,x,-z
-y,-x,-z
-x,-y,-z
y,-x,-z
x,y,-z
-y,x,-z
-x,y,z
x,-y,z
-y,-x,z
y,x,z
1/2+x,1/2+y,1/2+z
1/2-y,1/2+x,1/2+z
1/2-x,1/2-y,1/2+z
1/2+y,1/2-x,1/2+z
1/2+x,1/2-y,1/2-z
1/2-x,1/2+y,1/2-z
1/2+y,1/2+x,1/2-z
1/2-y,1/2-x,1/2-z
1/2-x,1/2-y,1/2-z
1/2+y,1/2-x,1/2-z
1/2+x,1/2+y,1/2-z
1/2-y,1/2+x,1/2-z
1/2-x,1/2+y,1/2+z
1/2+x,1/2-y,1/2+z
1/2-y,1/2-x,1/2+z
1/2+y,1/2+x,1/2+z
loop_
_atom_site_type_symbol
_atom_site_label
_atom_site_fract_x
_atom_site_fract_y
_atom_site_fract_z
Si Si1 0.749887 0.631452 0.946199
Si Si2 0.801378 0.079878 0.650769
Si Si3 0.695516 0.577625 0.500000
Si Si4 0.763130 0.356721 0.587830
Si Si5 0.302030 0.917967 0.265506
Si Si6 0.918302 0.199895 0.821627
O O1 0.698977 0.698977 0.952118
O O2 0.717552 0.577607 0.906488
O O3 0.825634 0.658683 0.924800
O O4 0.759034 0.595864 0.000000
O O5 0.864876 0.135125 0.661950
O O6 0.730414 0.101312 0.681511
O O7 0.826533 0.000000 0.665484
O O8 0.660833 0.500000 0.500000
O O9 0.631155 0.631155 0.500000
O O10 0.744501 0.586079 0.453042
O O11 0.707353 0.292648 0.587905
O O12 0.760586 0.396065 0.639489
O O13 0.367076 0.867076 0.250000
O O14 0.234876 0.906570 0.230390
O O15 0.329574 0.000000 0.263622
O O16 0.871197 0.128804 0.826890
O O17 0.000000 0.176649 0.829761
#
# Coordination Sequence:
#
# PCOD8319308 Si02
#       6
#    32  32  16  32  32  32
#     4   9  16  29  50  73  96 126 169 218 264 307
#     4  10  21  35  53  79 110 143 178 215 257 310
#     4  10  18  27  40  60  91 127 164 206 252 308
#     4   9  16  28  45  66  91 123 166 214 260 300
#     4  10  21  37  56  80 107 134 171 215 262 315
#     4  10  20  32  48  71 101 138 178 218 259 307
#
# _framework density 18.188454
#
# number of rings (size 3 to 8) (size 9 to 14) (size 15 to 20)
#    0.000    2.364    0.909    2.182    0.000    3.909 
#    0.000    0.000    0.000    6.545    0.000    2.545 
#    0.000    0.727    0.000    0.000    0.000    0.000 
#
# Total GULP energy -1090631.117561 kJ/mol
# GULP energy per Si atom -12393.535427 kJ/mol
# Density = 1.814706 g / cm^3
# Si number density = 18.188454 Si / 1000 Ang^3
#
#
#
# Elastic Constant Matrix: (Units=GPa)
#
#
# Indices 1 2 3 4 5 6 
#
# 1 76.5667 52.4889 27.3097 0.0000 0.0000 0.0000
# 2 52.4889 76.5667 27.3097 0.0000 0.0000 0.0000
# 3 27.3097 27.3097 111.0900 0.0000 0.0000 0.0000
# 4 0.0000 0.0000 0.0000 18.6272 0.0000 0.0000
# 5 0.0000 0.0000 0.0000 0.0000 18.6272 0.0000
# 6 0.0000 0.0000 0.0000 0.0000 0.0000 19.4857
#
#
#
# Elastic Compliance Matrix: (Units=1/GPa)
#
#
# Indices 1 2 3 4 5 6 
#
# 1 0.025090 -0.016442 -0.002126 0.000000 0.000000 0.000000
# 2 -0.016442 0.025090 -0.002126 0.000000 0.000000 0.000000
# 3 -0.002126 -0.002126 0.010047 0.000000 0.000000 0.000000
# 4 0.000000 0.000000 0.000000 0.053685 0.000000 0.000000
# 5 0.000000 0.000000 0.000000 0.000000 0.053685 0.000000
# 6 0.000000 0.000000 0.000000 0.000000 0.000000 0.051320
#
#
# Mechanical properties :
#
#
# Convention : Reuss Voigt Hill
#
# Bulk Modulus (GPa) = 53.07984 53.16002 53.11993
# Shear Modulus (GPa) = 18.75577 21.82237 20.28907
#
# Velocity S-wave (km/s) = 3.21470 3.46756 3.34352
# Velocity P-wave (km/s) = 6.55940 6.73222 6.64637
#
# Compressibility (1/GPa) = 0.01883954
#
# Stress axis : x y z
#
# Youngs Moduli (GPa) = 39.85613 39.85613 99.53189
#
# Poissons Ratio (x) = 0.65531 0.21161
# Poissons Ratio (y) = 0.65531 0.21161
# Poissons Ratio (z) = 0.08474 0.08474
#
# Static dielectric constant tensor:
#      x y z
#    x 3.107180 0.000000 0.000000 
#    y 0.000000 3.107180 0.000000 
#    z 0.000000 0.000000 3.733280 
# 
# 
# High freq. dielectric constant tensor:
#      x y z
#    x 1.679020 0.000000 0.000000 
#    y 0.000000 1.679020 0.000000 
#    z 0.000000 0.000000 1.728890 
# 
# From -- ./inp_files/13135.got.cif
#   From: 2010.03.12/outbox.cif.g09.slc.cpg/sg139_7_cif.got.tgz:13135.got - 2010.04.08 09:46:31.
