data_PCOD8319332
_publ_section_title
;
Structure prediction by ZEFSAII (Michael W. Deem and Ramdas Pophale) SiO2 
 PCOD8319332
Probable space group: I 4/M M M
;
_chemical_formula_sum "Si O2"
_cell_formula_units_Z 160
_cell_length_a 31.201974
_cell_length_b 31.201974
_cell_length_c 9.331282
_cell_angle_alpha 90.000000
_cell_angle_beta 90.000000
_cell_angle_gamma 90.000000
_cell_volume 9084.592591
_symmetry_space_group_name_H-M "I 4/M M M"
_symmetry_group_IT_number 139
_symmetry_cell_setting 'tetragonal'
loop_
_space_group_symop_operation_xyz
x,y,z
-y,x,z
-x,-y,z
y,-x,z
x,-y,-z
-x,y,-z
y,x,-z
-y,-x,-z
-x,-y,-z
y,-x,-z
x,y,-z
-y,x,-z
-x,y,z
x,-y,z
-y,-x,z
y,x,z
1/2+x,1/2+y,1/2+z
1/2-y,1/2+x,1/2+z
1/2-x,1/2-y,1/2+z
1/2+y,1/2-x,1/2+z
1/2+x,1/2-y,1/2-z
1/2-x,1/2+y,1/2-z
1/2+y,1/2+x,1/2-z
1/2-y,1/2-x,1/2-z
1/2-x,1/2-y,1/2-z
1/2+y,1/2-x,1/2-z
1/2+x,1/2+y,1/2-z
1/2-y,1/2+x,1/2-z
1/2-x,1/2+y,1/2+z
1/2+x,1/2-y,1/2+z
1/2-y,1/2-x,1/2+z
1/2+y,1/2+x,1/2+z
loop_
_atom_site_type_symbol
_atom_site_label
_atom_site_fract_x
_atom_site_fract_y
_atom_site_fract_z
Si Si1 0.450972 0.790835 0.165844
Si Si2 0.398716 0.398716 0.158162
Si Si3 0.826371 0.173630 0.664993
Si Si4 0.953245 0.154705 0.841917
Si Si5 0.452236 0.891060 0.835083
Si Si6 0.612327 0.268899 0.664986
O O1 0.500000 0.778492 0.213406
O O2 0.443944 0.841023 0.187270
O O3 0.413137 0.769739 0.259418
O O4 0.444759 0.777482 0.000000
O O5 0.362472 0.362472 0.164885
O O6 0.382808 0.441770 0.233051
O O7 0.411513 0.411513 0.000000
O O8 0.814317 0.185684 0.500000
O O9 0.784069 0.155142 0.748128
O O10 0.920322 0.192622 0.831704
O O11 0.000000 0.172900 0.802561
O O12 0.952285 0.134517 0.000000
O O13 0.500000 0.902861 0.780583
O O14 0.417138 0.917138 0.750000
O O15 0.447650 0.903525 0.000000
O O16 0.624545 0.256872 0.500000
#
# Coordination Sequence:
#
# PCOD8319332 Si02
#       6
#    32  16  16  32  32  32
#     4   9  18  32  48  68  98 133 165 200 246 299
#     4   9  17  27  39  56  76 100 134 175 216 261
#     4   9  17  29  43  61  89 125 159 189 231 287
#     4   9  17  28  41  57  79 107 136 169 215 270
#     4   9  19  35  53  75 104 137 173 211 249 290
#     4  10  18  28  44  68  95 121 154 196 238 282
#
# _framework density 17.612237
#
# number of rings (size 3 to 8) (size 9 to 14) (size 15 to 20)
#    0.000    2.800    0.000    3.000    0.000    6.200 
#    0.000    3.000    0.000    0.300    0.000    2.800 
#    0.000    0.000    0.000    0.000    0.000    0.000 
#
# Total GULP energy -991294.979717 kJ/mol
# GULP energy per Si atom -12391.187246 kJ/mol
# Density = 1.757215 g / cm^3
# Si number density = 17.612237 Si / 1000 Ang^3
#
#
#
# Elastic Constant Matrix: (Units=GPa)
#
#
# Indices 1 2 3 4 5 6 
#
# 1 55.7124 32.7135 44.1780 0.0000 0.0000 0.0000
# 2 32.7135 55.7123 44.1780 0.0000 0.0000 0.0000
# 3 44.1780 44.1780 112.1967 0.0000 0.0000 0.0000
# 4 0.0000 0.0000 0.0000 22.8965 0.0000 0.0000
# 5 0.0000 0.0000 0.0000 0.0000 22.8958 0.0000
# 6 0.0000 0.0000 0.0000 0.0000 0.0000 35.5670
#
#
#
# Elastic Compliance Matrix: (Units=1/GPa)
#
#
# Indices 1 2 3 4 5 6 
#
# 1 0.031062 -0.012418 -0.007341 0.000000 0.000000 0.000000
# 2 -0.012418 0.031063 -0.007341 0.000000 0.000000 0.000000
# 3 -0.007341 -0.007341 0.014694 0.000000 0.000000 0.000000
# 4 0.000000 0.000000 0.000000 0.043675 0.000000 0.000000
# 5 0.000000 0.000000 0.000000 0.000000 0.043676 0.000000
# 6 0.000000 0.000000 0.000000 0.000000 0.000000 0.028116
#
#
# Mechanical properties :
#
#
# Convention : Reuss Voigt Hill
#
# Bulk Modulus (GPa) = 44.21288 51.75116 47.98202
# Shear Modulus (GPa) = 19.68294 23.10864 21.39579
#
# Velocity S-wave (km/s) = 3.34664 3.62619 3.48922
# Velocity P-wave (km/s) = 6.33177 6.85418 6.59815
#
# Compressibility (1/GPa) = 0.02261784
#
# Stress axis : x y z
#
# Youngs Moduli (GPa) = 32.19319 32.19310 68.05349
#
# Poissons Ratio (x) = 0.39977 0.49960
# Poissons Ratio (y) = 0.39978 0.49961
# Poissons Ratio (z) = 0.23634 0.23634
#
# Static dielectric constant tensor:
#      x y z
#    x 3.111310 0.000000 0.000000 
#    y 0.000000 3.111310 0.000000 
#    z 0.000000 0.000000 3.524370 
# 
# 
# High freq. dielectric constant tensor:
#      x y z
#    x 1.658820 0.000000 0.000000 
#    y 0.000000 1.658820 0.000000 
#    z 0.000000 0.000000 1.689530 
# 
# From -- ./inp_files/2202.got.cif
#   From: 2010.03.12/outbox.cif.g09.slc.cpg/sg139_2_cif.got.tgz:2202.got - 2010.04.08 09:46:31.
