data_PCOD8319185
_publ_section_title
;
Structure prediction by ZEFSAII (Michael W. Deem and Ramdas Pophale) SiO2 
 PCOD8319185
Probable space group: P 42/N C M
;
_chemical_formula_sum "Si O2"
_cell_formula_units_Z 72
_cell_length_a 14.022449
_cell_length_b 14.022449
_cell_length_c 18.422588
_cell_angle_alpha 90.000000
_cell_angle_beta 90.000000
_cell_angle_gamma 90.000000
_cell_volume 3622.416455
_symmetry_space_group_name_H-M "P 42/N C M"
_symmetry_group_IT_number 138
_space_group.IT_coordinate_system_code '2'
_symmetry_cell_setting 'tetragonal'
loop_
_space_group_symop_operation_xyz
x,y,z
1/2-y,x,1/2+z
1/2-x,1/2-y,z
y,1/2-x,1/2+z
1/2+x,-y,1/2-z
-x,1/2+y,1/2-z
1/2+y,1/2+x,-z
-y,-x,-z
-x,-y,-z
1/2+y,-x,1/2-z
1/2+x,1/2+y,-z
-y,1/2+x,1/2-z
1/2-x,y,1/2+z
x,1/2-y,1/2+z
1/2-y,1/2-x,z
y,x,z
loop_
_atom_site_type_symbol
_atom_site_label
_atom_site_fract_x
_atom_site_fract_y
_atom_site_fract_z
Si Si1 0.520561 0.979440 0.417288
Si Si2 0.377754 0.122247 0.343770
Si Si3 0.455598 0.199843 0.923604
Si Si4 0.259733 0.480478 0.088127
Si Si5 0.672917 0.175924 0.914255
Si Si6 0.324552 0.324552 0.690942
O O1 0.629663 0.004991 0.401705
O O2 0.500000 0.000000 0.500000
O O3 0.455310 0.044691 0.366911
O O4 0.273063 0.098435 0.372418
O O5 0.377705 0.122296 0.256446
O O6 0.403386 0.096615 0.919652
O O7 0.563396 0.194640 0.892594
O O8 0.451572 0.238259 0.005500
O O9 0.199080 0.571231 0.113403
O O10 0.233192 0.396134 0.140848
O O11 0.750000 0.250000 0.880002
O O12 0.681499 0.181499 0.000000
O O13 0.250000 0.250000 0.725254
#
# Coordination Sequence:
#
# PCOD8319185 Si02
#       6
#     8   8  16  16  16   8
#     4  12  22  40  74 102 124 168 231 284 327 395
#     4  12  26  43  66  94 131 168 223 277 333 398
#     4  11  21  37  66  97 126 169 225 277 328 390
#     4  11  22  39  67  94 129 173 216 271 337 390
#     4   9  20  35  59  93 131 164 211 274 330 381
#     4  12  26  46  59  93 136 173 210 270 343 401
#
# _framework density 19.876234
#
# number of rings (size 3 to 8) (size 9 to 14) (size 15 to 20)
#    0.000    1.111    4.444    2.333    4.667    1.333 
#    4.000    0.000    0.000    0.000    0.000    0.000 
#    0.000    0.000    0.000    0.000    0.000    0.000 
#
# Total GULP energy -892918.244126 kJ/mol
# GULP energy per Si atom -12401.642280 kJ/mol
# Density = 1.983100 g / cm^3
# Si number density = 19.876234 Si / 1000 Ang^3
#
#
#
# Elastic Constant Matrix: (Units=GPa)
#
#
# Indices 1 2 3 4 5 6 
#
# 1 156.8796 37.7172 32.2516 0.0000 0.0000 0.0000
# 2 37.7172 156.8796 32.2516 0.0000 0.0000 0.0000
# 3 32.2516 32.2516 81.0931 0.0000 0.0000 0.0000
# 4 0.0000 0.0000 0.0000 13.6852 0.0000 0.0000
# 5 0.0000 0.0000 0.0000 0.0000 13.6852 0.0000
# 6 0.0000 0.0000 0.0000 0.0000 0.0000 51.1813
#
#
#
# Elastic Compliance Matrix: (Units=1/GPa)
#
#
# Indices 1 2 3 4 5 6 
#
# 1 0.007156 -0.001236 -0.002354 0.000000 0.000000 0.000000
# 2 -0.001236 0.007156 -0.002354 0.000000 0.000000 0.000000
# 3 -0.002354 -0.002354 0.014204 0.000000 0.000000 0.000000
# 4 0.000000 0.000000 0.000000 0.073072 0.000000 0.000000
# 5 0.000000 0.000000 0.000000 0.000000 0.073072 0.000000
# 6 0.000000 0.000000 0.000000 0.000000 0.000000 0.019538
#
#
# Mechanical properties :
#
#
# Convention : Reuss Voigt Hill
#
# Bulk Modulus (GPa) = 60.14720 66.58812 63.36766
# Shear Modulus (GPa) = 23.62636 35.21913 29.42275
#
# Velocity S-wave (km/s) = 3.45146 4.21399 3.85164
# Velocity P-wave (km/s) = 6.79779 7.56644 7.19239
#
# Compressibility (1/GPa) = 0.01662588
#
# Stress axis : x y z
#
# Youngs Moduli (GPa) = 139.75206 139.75206 70.40267
#
# Poissons Ratio (x) = 0.17279 0.16574
# Poissons Ratio (y) = 0.17279 0.16574
# Poissons Ratio (z) = 0.32899 0.32899
#
# Static dielectric constant tensor:
#      x y z
#    x 3.803200 0.000000 0.000000 
#    y 0.000000 3.803200 0.000000 
#    z 0.000000 0.000000 3.253860 
# 
# 
# High freq. dielectric constant tensor:
#      x y z
#    x 1.793730 0.000000 0.000000 
#    y 0.000000 1.793730 0.000000 
#    z 0.000000 0.000000 1.735230 
# 
# From -- ./inp_files/5060.got.cif
#   From: 2010.03.12/outbox.cif.g09.slc.cpg/sg138_3_cif.got.tgz:5060.got - 2010.04.08 09:41:05.
