data_PCOD8319869
_publ_section_title
;
Structure prediction by ZEFSAII (Michael W. Deem and Ramdas Pophale) SiO2 
 PCOD8319869
Probable space group: I 4/M M M
;
_chemical_formula_sum "Si O2"
_cell_formula_units_Z 96
_cell_length_a 25.466253
_cell_length_b 25.466253
_cell_length_c 7.669981
_cell_angle_alpha 90.000000
_cell_angle_beta 90.000000
_cell_angle_gamma 90.000000
_cell_volume 4974.213099
_symmetry_space_group_name_H-M "I 4/M M M"
_symmetry_group_IT_number 139
_symmetry_cell_setting 'tetragonal'
loop_
_space_group_symop_operation_xyz
x,y,z
-y,x,z
-x,-y,z
y,-x,z
x,-y,-z
-x,y,-z
y,x,-z
-y,-x,-z
-x,-y,-z
y,-x,-z
x,y,-z
-y,x,-z
-x,y,z
x,-y,z
-y,-x,z
y,x,z
1/2+x,1/2+y,1/2+z
1/2-y,1/2+x,1/2+z
1/2-x,1/2-y,1/2+z
1/2+y,1/2-x,1/2+z
1/2+x,1/2-y,1/2-z
1/2-x,1/2+y,1/2-z
1/2+y,1/2+x,1/2-z
1/2-y,1/2-x,1/2-z
1/2-x,1/2-y,1/2-z
1/2+y,1/2-x,1/2-z
1/2+x,1/2+y,1/2-z
1/2-y,1/2+x,1/2-z
1/2-x,1/2+y,1/2+z
1/2+x,1/2-y,1/2+z
1/2-y,1/2-x,1/2+z
1/2+y,1/2+x,1/2+z
loop_
_atom_site_type_symbol
_atom_site_label
_atom_site_fract_x
_atom_site_fract_y
_atom_site_fract_z
Si Si1 0.500000 0.083676 0.298029
Si Si2 0.792669 0.207332 0.202184
Si Si3 0.300916 0.000000 0.204762
Si Si4 0.942080 0.143205 0.500000
Si Si5 0.779082 0.089113 0.207230
O O1 0.500000 0.092962 0.500000
O O2 0.447740 0.052261 0.250000
O O3 0.500000 0.141112 0.206703
O O4 0.750000 0.250000 0.250000
O O5 0.773449 0.150058 0.269769
O O6 0.797935 0.202066 0.000000
O O7 0.271538 0.053961 0.260135
O O8 0.306385 0.000000 0.000000
O O9 0.906329 0.093672 0.500000
O O10 0.934024 0.174180 0.679973
O O11 0.000000 0.120869 0.500000
O O12 0.791204 0.084256 0.000000
#
# Coordination Sequence:
#
# PCOD8319869 Si02
#       5
#    16  16  16  16  32
#     4  10  20  37  56  80 114 158 199 252 314 360
#     4  10  22  36  58  86 122 163 197 247 309 361
#     4   9  19  37  62  83 112 149 208 251 294 363
#     4  12  24  39  66  94 120 160 206 246 304 368
#     4  10  21  40  60  86 121 164 202 246 303 366
#
# _framework density 19.299534999999999
#
# number of rings (size 3 to 8) (size 9 to 14) (size 15 to 20)
#    0.000    1.833    3.333    1.000    2.333    1.500 
#    6.000    0.000    0.000    0.000    0.000    2.333 
#    0.000    0.000    0.000    0.000    0.000    0.000 
#
# Total GULP energy -594736.031638 kJ/mol
# GULP energy per Si atom -12390.333992 kJ/mol
# Density = 1.925561 g / cm^3
# Si number density = 19.299535 Si / 1000 Ang^3
#
#
#
# Elastic Constant Matrix: (Units=GPa)
#
#
# Indices 1 2 3 4 5 6 
#
# 1 193.9041 104.4904 26.7087 0.0000 0.0000 0.0000
# 2 104.4904 193.9004 26.7102 0.0000 0.0000 0.0000
# 3 26.7087 26.7102 56.4320 0.0000 0.0000 0.0000
# 4 0.0000 0.0000 0.0000 25.5825 0.0000 0.0000
# 5 0.0000 0.0000 0.0000 0.0000 25.5938 0.0000
# 6 0.0000 0.0000 0.0000 0.0000 0.0000 28.8893
#
#
#
# Elastic Compliance Matrix: (Units=1/GPa)
#
#
# Indices 1 2 3 4 5 6 
#
# 1 0.007423 -0.003761 -0.001733 0.000000 0.000000 0.000000
# 2 -0.003761 0.007423 -0.001733 0.000000 0.000000 0.000000
# 3 -0.001733 -0.001733 0.019361 0.000000 0.000000 0.000000
# 4 0.000000 0.000000 0.000000 0.039089 0.000000 0.000000
# 5 0.000000 0.000000 0.000000 0.000000 0.039072 0.000000
# 6 0.000000 0.000000 0.000000 0.000000 0.000000 0.034615
#
#
# Mechanical properties :
#
#
# Convention : Reuss Voigt Hill
#
# Bulk Modulus (GPa) = 50.62796 84.45058 67.53927
# Shear Modulus (GPa) = 29.75809 35.10159 32.42984
#
# Velocity S-wave (km/s) = 3.93097 4.26934 4.10365
# Velocity P-wave (km/s) = 6.84785 8.25566 7.58449
#
# Compressibility (1/GPa) = 0.01975193
#
# Stress axis : x y z
#
# Youngs Moduli (GPa) = 134.72065 134.71682 51.65040
#
# Poissons Ratio (x) = 0.50672 0.08950
# Poissons Ratio (y) = 0.50673 0.08952
# Poissons Ratio (z) = 0.23345 0.23349
#
# Static dielectric constant tensor:
#      x y z
#    x 3.574690 0.000000 0.000000 
#    y 0.000000 3.574450 0.000000 
#    z 0.000000 0.000000 3.641270 
# 
# 
# High freq. dielectric constant tensor:
#      x y z
#    x 1.752830 0.000000 0.000000 
#    y 0.000000 1.752830 0.000000 
#    z 0.000000 0.000000 1.752570 
# 
# From -- ./inp_files/1230.got.cif
#   From: 2010.03.12/outbox.cif.g09.slc.cpg/sg139_1_cif.got.tgz:1230.got - 2010.04.08 09:46:31.
