data_PCOD8319710
_publ_section_title
;
Structure prediction by ZEFSAII (Michael W. Deem and Ramdas Pophale) SiO2 
 PCOD8319710
Probable space group: I 4/M M M
;
_chemical_formula_sum "Si O2"
_cell_formula_units_Z 160
_cell_length_a 17.742516
_cell_length_b 17.742516
_cell_length_c 29.189938
_cell_angle_alpha 90.000000
_cell_angle_beta 90.000000
_cell_angle_gamma 90.000000
_cell_volume 9188.901235
_symmetry_space_group_name_H-M "I 4/M M M"
_symmetry_group_IT_number 139
_symmetry_cell_setting 'tetragonal'
loop_
_space_group_symop_operation_xyz
x,y,z
-y,x,z
-x,-y,z
y,-x,z
x,-y,-z
-x,y,-z
y,x,-z
-y,-x,-z
-x,-y,-z
y,-x,-z
x,y,-z
-y,x,-z
-x,y,z
x,-y,z
-y,-x,z
y,x,z
1/2+x,1/2+y,1/2+z
1/2-y,1/2+x,1/2+z
1/2-x,1/2-y,1/2+z
1/2+y,1/2-x,1/2+z
1/2+x,1/2-y,1/2-z
1/2-x,1/2+y,1/2-z
1/2+y,1/2+x,1/2-z
1/2-y,1/2-x,1/2-z
1/2-x,1/2-y,1/2-z
1/2+y,1/2-x,1/2-z
1/2+x,1/2+y,1/2-z
1/2-y,1/2+x,1/2-z
1/2-x,1/2+y,1/2+z
1/2+x,1/2-y,1/2+z
1/2-y,1/2-x,1/2+z
1/2+y,1/2+x,1/2+z
loop_
_atom_site_type_symbol
_atom_site_label
_atom_site_fract_x
_atom_site_fract_y
_atom_site_fract_z
Si Si1 0.713549 0.837230 0.948614
Si Si2 0.258350 0.500000 0.274820
Si Si3 0.414305 0.157716 0.872779
Si Si4 0.242776 0.000000 0.923030
Si Si5 0.860010 0.264301 0.282167
Si Si6 0.364162 0.000000 0.155100
Si Si7 0.500000 0.377709 0.354106
O O1 0.780834 0.780834 0.932233
O O2 0.641324 0.829476 0.915672
O O3 0.743117 0.923417 0.951168
O O4 0.687809 0.815573 0.000000
O O5 0.275841 0.571932 0.243769
O O6 0.171903 0.500000 0.293758
O O7 0.314277 0.500000 0.316495
O O8 0.500000 0.178290 0.887430
O O9 0.386749 0.209691 0.831727
O O10 0.415193 0.072603 0.854066
O O11 0.295044 0.000000 0.879139
O O12 0.157047 0.000000 0.905054
O O13 0.793332 0.206669 0.290923
O O14 0.832689 0.332689 0.250000
O O15 0.574655 0.425346 0.347533
#
# Coordination Sequence:
#
# PCOD8319710 Si02
#       7
#    32  16  32  16  32  16  16
#     4  10  21  37  57  81 109 142 182 229 279 334
#     4  11  19  35  50  72 107 143 183 220 265 316
#     4  11  21  36  54  78 109 142 182 224 275 328
#     4   9  18  33  55  78 107 139 175 216 271 325
#     4  11  22  34  53  78 106 142 183 225 269 319
#     4   9  19  32  50  76 105 138 173 211 258 315
#     4  10  20  32  49  75 106 142 182 221 262 314
#
# _framework density 17.412310000000002
#
# number of rings (size 3 to 8) (size 9 to 14) (size 15 to 20)
#    0.000    1.700    3.000    2.400    0.000    0.400 
#    0.000    0.000    0.000    3.600    0.000    4.200 
#    0.000    0.000    0.000    4.800    0.000    0.000 
#
# Total GULP energy -991757.159849 kJ/mol
# GULP energy per Si atom -12396.964498 kJ/mol
# Density = 1.737268 g / cm^3
# Si number density = 17.412310 Si / 1000 Ang^3
#
#
#
# Elastic Constant Matrix: (Units=GPa)
#
#
# Indices 1 2 3 4 5 6 
#
# 1 101.5931 38.2965 42.9082 0.0000 0.0000 0.0000
# 2 38.2965 101.5931 42.9082 0.0000 0.0000 0.0000
# 3 42.9082 42.9082 97.9705 0.0000 0.0000 0.0000
# 4 0.0000 0.0000 0.0000 29.2702 0.0000 0.0000
# 5 0.0000 0.0000 0.0000 0.0000 29.2702 0.0000
# 6 0.0000 0.0000 0.0000 0.0000 0.0000 29.4653
#
#
#
# Elastic Compliance Matrix: (Units=1/GPa)
#
#
# Indices 1 2 3 4 5 6 
#
# 1 0.012787 -0.003012 -0.004281 0.000000 0.000000 0.000000
# 2 -0.003012 0.012787 -0.004281 0.000000 0.000000 0.000000
# 3 -0.004281 -0.004281 0.013957 0.000000 0.000000 0.000000
# 4 0.000000 0.000000 0.000000 0.034164 0.000000 0.000000
# 5 0.000000 0.000000 0.000000 0.000000 0.034164 0.000000
# 6 0.000000 0.000000 0.000000 0.000000 0.000000 0.033938
#
#
# Mechanical properties :
#
#
# Convention : Reuss Voigt Hill
#
# Bulk Modulus (GPa) = 61.04117 61.04250 61.04184
# Shear Modulus (GPa) = 29.34164 29.40409 29.37287
#
# Velocity S-wave (km/s) = 4.10946 4.11383 4.11165
# Velocity P-wave (km/s) = 7.59272 7.59592 7.59432
#
# Compressibility (1/GPa) = 0.01638239
#
# Stress axis : x y z
#
# Youngs Moduli (GPa) = 78.20638 78.20638 71.64817
#
# Poissons Ratio (x) = 0.23555 0.30673
# Poissons Ratio (y) = 0.23555 0.30673
# Poissons Ratio (z) = 0.33481 0.33481
#
# Static dielectric constant tensor:
#      x y z
#    x 3.173340 0.000000 0.000000 
#    y 0.000000 3.173340 0.000000 
#    z 0.000000 0.000000 3.182250 
# 
# 
# High freq. dielectric constant tensor:
#      x y z
#    x 1.669750 0.000000 0.000000 
#    y 0.000000 1.669750 0.000000 
#    z 0.000000 0.000000 1.672160 
# 
# From -- ./inp_files/13055.got.cif
#   From: 2010.03.12/outbox.cif.g09.slc.cpg/sg139_7_cif.got.tgz:13055.got - 2010.04.08 09:46:31.
