data_PCOD8319490
_publ_section_title
;
Structure prediction by ZEFSAII (Michael W. Deem and Ramdas Pophale) SiO2 
 PCOD8319490
Probable space group: I 4/M M M
;
_chemical_formula_sum "Si O2"
_cell_formula_units_Z 160
_cell_length_a 31.558365
_cell_length_b 31.558365
_cell_length_c 8.882029
_cell_angle_alpha 90.000000
_cell_angle_beta 90.000000
_cell_angle_gamma 90.000000
_cell_volume 8845.882708
_symmetry_space_group_name_H-M "I 4/M M M"
_symmetry_group_IT_number 139
_symmetry_cell_setting 'tetragonal'
loop_
_space_group_symop_operation_xyz
x,y,z
-y,x,z
-x,-y,z
y,-x,z
x,-y,-z
-x,y,-z
y,x,-z
-y,-x,-z
-x,-y,-z
y,-x,-z
x,y,-z
-y,x,-z
-x,y,z
x,-y,z
-y,-x,z
y,x,z
1/2+x,1/2+y,1/2+z
1/2-y,1/2+x,1/2+z
1/2-x,1/2-y,1/2+z
1/2+y,1/2-x,1/2+z
1/2+x,1/2-y,1/2-z
1/2-x,1/2+y,1/2-z
1/2+y,1/2+x,1/2-z
1/2-y,1/2-x,1/2-z
1/2-x,1/2-y,1/2-z
1/2+y,1/2-x,1/2-z
1/2+x,1/2+y,1/2-z
1/2-y,1/2+x,1/2-z
1/2-x,1/2+y,1/2+z
1/2+x,1/2-y,1/2+z
1/2-y,1/2-x,1/2+z
1/2+y,1/2+x,1/2+z
loop_
_atom_site_type_symbol
_atom_site_label
_atom_site_fract_x
_atom_site_fract_y
_atom_site_fract_z
Si Si1 0.269076 0.500000 0.324705
Si Si2 0.000000 0.323742 0.178575
Si Si3 0.094400 0.343851 0.179716
Si Si4 0.355059 0.233413 0.830513
Si Si5 0.307063 0.422837 0.167023
Si Si6 0.207080 0.792921 0.170044
Si Si7 0.135668 0.864333 0.830673
O O1 0.262351 0.500000 0.500000
O O2 0.222923 0.500000 0.248454
O O3 0.294162 0.459128 0.278933
O O4 0.955245 0.344211 0.232750
O O5 0.000000 0.322945 0.000000
O O6 0.113275 0.386726 0.250000
O O7 0.122521 0.304337 0.238313
O O8 0.097575 0.343786 0.000000
O O9 0.387209 0.271772 0.838540
O O10 0.311663 0.250767 0.752794
O O11 0.344376 0.217511 0.000000
O O12 0.349690 0.405111 0.238792
O O13 0.315924 0.440542 0.000000
O O14 0.171414 0.828587 0.167314
O O15 0.219710 0.780291 0.000000
O O16 0.123046 0.876955 0.000000
#
# Coordination Sequence:
#
# PCOD8319490 Si02
#       7
#    16  16  32  32  32  16  16
#     4  11  19  31  51  77 104 139 178 218 265 320
#     4   9  20  37  59  80 108 139 169 209 261 317
#     4  11  22  39  59  83 108 138 174 216 264 319
#     4  10  19  32  50  75 106 142 180 222 263 309
#     4  10  19  30  46  72 105 138 175 222 268 310
#     4   9  17  29  48  72 101 143 186 224 259 302
#     4   9  17  29  45  66  96 140 184 217 258 316
#
# _framework density 18.087510000000002
#
# number of rings (size 3 to 8) (size 9 to 14) (size 15 to 20)
#    0.000    2.000    2.000    2.700    0.000    4.000 
#    0.000    2.500    0.000    0.300    0.000    2.100 
#    0.000    0.400    0.000    4.000    0.000    2.400 
#
# Total GULP energy -991452.344756 kJ/mol
# GULP energy per Si atom -12393.154309 kJ/mol
# Density = 1.804634 g / cm^3
# Si number density = 18.087510 Si / 1000 Ang^3
#
#
#
# Elastic Constant Matrix: (Units=GPa)
#
#
# Indices 1 2 3 4 5 6 
#
# 1 52.7285 104.4423 39.7218 0.0000 0.0000 0.0000
# 2 104.4423 52.7233 39.7163 0.0000 0.0000 0.0000
# 3 39.7218 39.7163 107.9763 0.0000 0.0000 0.0000
# 4 0.0000 0.0000 0.0000 27.2056 0.0000 0.0000
# 5 0.0000 0.0000 0.0000 0.0000 27.2060 0.0000
# 6 0.0000 0.0000 0.0000 0.0000 0.0000 18.6862
#
#
#
# Elastic Compliance Matrix: (Units=1/GPa)
#
#
# Indices 1 2 3 4 5 6 
#
# 1 -0.005760 0.013576 -0.002875 0.000000 0.000000 0.000000
# 2 0.013576 -0.005760 -0.002875 0.000000 0.000000 0.000000
# 3 -0.002875 -0.002875 0.011376 0.000000 0.000000 0.000000
# 4 0.000000 0.000000 0.000000 0.036757 0.000000 0.000000
# 5 0.000000 0.000000 0.000000 0.000000 0.036757 0.000000
# 6 0.000000 0.000000 0.000000 0.000000 0.000000 0.053516
#
#
# Mechanical properties :
#
#
# Convention : Reuss Voigt Hill
#
# Bulk Modulus (GPa) = 64.48349 64.57657 64.53003
# Shear Modulus (GPa) = 42.95437 16.58940 29.77188
#
# Velocity S-wave (km/s) = 4.87849 3.03177 4.06148
# Velocity P-wave (km/s) = 8.21347 6.93075 7.59922
#
# Compressibility (1/GPa) = 0.01550785
#
# Stress axis : x y z
#
# Youngs Moduli (GPa) = -173.60675 -173.60129 87.90090
#
# Poissons Ratio (x) = 2.35681 0.25268
# Poissons Ratio (y) = 2.35688 0.25276
# Poissons Ratio (z) = -0.49904 -0.49919
#
# Static dielectric constant tensor:
#      x y z
#    x 3.283870 0.000000 0.000000 
#    y 0.000000 3.283870 0.000000 
#    z 0.000000 0.000000 3.550110 
# 
# 
# High freq. dielectric constant tensor:
#      x y z
#    x 1.682330 0.000000 0.000000 
#    y 0.000000 1.682330 0.000000 
#    z 0.000000 0.000000 1.712030 
# 
# From -- ./inp_files/2306.got.cif
#   From: 2010.03.12/outbox.cif.g09.slc.cpg/sg139_2_cif.got.tgz:2306.got - 2010.04.08 09:46:31.
