data_PCOD8319091
_publ_section_title
;
Structure prediction by ZEFSAII (Michael W. Deem and Ramdas Pophale) SiO2 
 PCOD8319091
Probable space group: P 42/N C M
;
_chemical_formula_sum "Si O2"
_cell_formula_units_Z 96
_cell_length_a 14.821292
_cell_length_b 14.821292
_cell_length_c 20.021588
_cell_angle_alpha 90.000000
_cell_angle_beta 90.000000
_cell_angle_gamma 90.000000
_cell_volume 4398.156182
_symmetry_space_group_name_H-M "P 42/N C M"
_symmetry_group_IT_number 138
_space_group.IT_coordinate_system_code '2'
_symmetry_cell_setting 'tetragonal'
loop_
_space_group_symop_operation_xyz
x,y,z
1/2-y,x,1/2+z
1/2-x,1/2-y,z
y,1/2-x,1/2+z
1/2+x,-y,1/2-z
-x,1/2+y,1/2-z
1/2+y,1/2+x,-z
-y,-x,-z
-x,-y,-z
1/2+y,-x,1/2-z
1/2+x,1/2+y,-z
-y,1/2+x,1/2-z
1/2-x,y,1/2+z
x,1/2-y,1/2+z
1/2-y,1/2-x,z
y,x,z
loop_
_atom_site_type_symbol
_atom_site_label
_atom_site_fract_x
_atom_site_fract_y
_atom_site_fract_z
Si Si1 0.097149 0.654765 0.765301
Si Si2 0.248406 0.102454 0.948440
Si Si3 0.972588 0.832565 0.676208
Si Si4 0.224072 0.082572 0.703789
Si Si5 0.305624 0.835570 0.637994
Si Si6 0.665525 0.520376 0.922660
O O1 0.153285 0.570533 0.792652
O O2 0.106105 0.679038 0.685419
O O3 0.128388 0.741789 0.804417
O O4 0.991537 0.645444 0.782678
O O5 0.333317 0.166684 0.964392
O O6 0.163116 0.163116 0.925942
O O7 0.272825 0.029179 0.891481
O O8 0.225142 0.044733 0.013538
O O9 0.929598 0.929598 0.659404
O O10 0.909396 0.784758 0.730562
O O11 0.177967 0.177967 0.689164
O O12 0.287912 0.061319 0.641856
O O13 0.250000 0.750000 0.605743
O O14 0.333753 0.910417 0.582514
O O15 0.564253 0.564253 0.928169
#
# Coordination Sequence:
#
# PCOD8319091 Si02
#       6
#    16  16  16  16  16  16
#     4  11  19  36  56  83 117 155 203 257 315 373
#     4   9  19  37  59  85 127 176 209 249 319 393
#     4  11  21  35  58  89 121 159 207 256 311 385
#     4  11  22  33  54  88 122 154 200 264 322 375
#     4  11  19  36  62  87 118 160 209 260 322 382
#     4  10  21  36  59  90 125 161 205 258 319 384
#
# _framework density 21.827328000000001
#
# number of rings (size 3 to 8) (size 9 to 14) (size 15 to 20)
#    0.000    1.500    5.000    2.000    0.000    3.333 
#    0.000    3.333    0.000   17.000    0.000   10.500 
#    0.000    0.000    0.000    0.000    0.000    0.000 
#
# Total GULP energy -1189270.756437 kJ/mol
# GULP energy per Si atom -12388.237046 kJ/mol
# Density = 2.177765 g / cm^3
# Si number density = 21.827328 Si / 1000 Ang^3
#
#
#
# Elastic Constant Matrix: (Units=GPa)
#
#
# Indices 1 2 3 4 5 6 
#
# 1 86.8794 31.8717 30.6978 0.0000 0.0000 0.0000
# 2 31.8717 86.8794 30.6978 0.0000 0.0000 0.0000
# 3 30.6978 30.6978 103.9606 0.0000 0.0000 0.0000
# 4 0.0000 0.0000 0.0000 37.8688 0.0000 0.0000
# 5 0.0000 0.0000 0.0000 0.0000 37.8688 0.0000
# 6 0.0000 0.0000 0.0000 0.0000 0.0000 18.8992
#
#
#
# Elastic Compliance Matrix: (Units=1/GPa)
#
#
# Indices 1 2 3 4 5 6 
#
# 1 0.014059 -0.004121 -0.002935 0.000000 0.000000 0.000000
# 2 -0.004121 0.014059 -0.002935 0.000000 0.000000 0.000000
# 3 -0.002935 -0.002935 0.011352 0.000000 0.000000 0.000000
# 4 0.000000 0.000000 0.000000 0.026407 0.000000 0.000000
# 5 0.000000 0.000000 0.000000 0.000000 0.026407 0.000000
# 6 0.000000 0.000000 0.000000 0.000000 0.000000 0.052912
#
#
# Mechanical properties :
#
#
# Convention : Reuss Voigt Hill
#
# Bulk Modulus (GPa) = 51.30797 51.58378 51.44587
# Shear Modulus (GPa) = 29.12534 31.22417 30.17475
#
# Velocity S-wave (km/s) = 3.65684 3.78631 3.72214
# Velocity P-wave (km/s) = 6.43330 6.54208 6.48792
#
# Compressibility (1/GPa) = 0.01949015
#
# Stress axis : x y z
#
# Youngs Moduli (GPa) = 71.13016 71.13016 88.08948
#
# Poissons Ratio (x) = 0.29309 0.25851
# Poissons Ratio (y) = 0.29309 0.25851
# Poissons Ratio (z) = 0.20874 0.20874
#
# Static dielectric constant tensor:
#      x y z
#    x 4.359210 0.000000 0.000000 
#    y 0.000000 4.359210 0.000000 
#    z 0.000000 0.000000 3.796740 
# 
# 
# High freq. dielectric constant tensor:
#      x y z
#    x 1.861030 0.000000 0.000000 
#    y 0.000000 1.861030 0.000000 
#    z 0.000000 0.000000 1.840510 
# 
# From -- ./inp_files/6218.got.cif
#   From: 2010.03.12/outbox.cif.g09.slc.cpg/sg138_4_cif.got.tgz:6218.got - 2010.04.08 09:41:05.
