data_PCOD8319616
_publ_section_title
;
Structure prediction by ZEFSAII (Michael W. Deem and Ramdas Pophale) SiO2 
 PCOD8319616
Probable space group: I 4/M M M
;
_chemical_formula_sum "Si O2"
_cell_formula_units_Z 144
_cell_length_a 20.309012
_cell_length_b 20.309012
_cell_length_c 19.524001
_cell_angle_alpha 90.000000
_cell_angle_beta 90.000000
_cell_angle_gamma 90.000000
_cell_volume 8052.790740
_symmetry_space_group_name_H-M "I 4/M M M"
_symmetry_group_IT_number 139
_symmetry_cell_setting 'tetragonal'
loop_
_space_group_symop_operation_xyz
x,y,z
-y,x,z
-x,-y,z
y,-x,z
x,-y,-z
-x,y,-z
y,x,-z
-y,-x,-z
-x,-y,-z
y,-x,-z
x,y,-z
-y,x,-z
-x,y,z
x,-y,z
-y,-x,z
y,x,z
1/2+x,1/2+y,1/2+z
1/2-y,1/2+x,1/2+z
1/2-x,1/2-y,1/2+z
1/2+y,1/2-x,1/2+z
1/2+x,1/2-y,1/2-z
1/2-x,1/2+y,1/2-z
1/2+y,1/2+x,1/2-z
1/2-y,1/2-x,1/2-z
1/2-x,1/2-y,1/2-z
1/2+y,1/2-x,1/2-z
1/2+x,1/2+y,1/2-z
1/2-y,1/2+x,1/2-z
1/2-x,1/2+y,1/2+z
1/2+x,1/2-y,1/2+z
1/2-y,1/2-x,1/2+z
1/2+y,1/2+x,1/2+z
loop_
_atom_site_type_symbol
_atom_site_label
_atom_site_fract_x
_atom_site_fract_y
_atom_site_fract_z
Si Si1 0.424962 0.000000 0.919088
Si Si2 0.074215 0.817841 0.159703
Si Si3 0.425797 0.679429 0.815690
Si Si4 0.354829 0.244976 0.076689
Si Si5 0.685143 0.099941 0.079710
O O1 0.381455 0.062889 0.895067
O O2 0.500000 0.000000 0.887193
O O3 0.433488 0.000000 0.000000
O O4 0.126650 0.873350 0.134317
O O5 0.089402 0.798217 0.238254
O O6 0.076692 0.750994 0.116995
O O7 0.000000 0.847226 0.153155
O O8 0.500000 0.656949 0.825172
O O9 0.383486 0.616514 0.837053
O O10 0.410857 0.739072 0.867839
O O11 0.296296 0.296296 0.081979
O O12 0.323753 0.175805 0.096379
O O13 0.385486 0.243850 0.000000
O O14 0.696392 0.085194 0.000000
#
# Coordination Sequence:
#
# PCOD8319616 Si02
#       5
#    16  32  32  32  32
#     4   9  18  32  50  74 101 129 168 214 259 316
#     4  10  20  34  53  77 106 142 182 223 268 316
#     4   9  19  34  51  75 104 136 174 215 262 314
#     4   9  18  32  51  76 102 128 164 212 262 313
#     4  10  19  33  53  76 103 136 175 218 265 314
#
# _framework density 17.882000000000001
#
# number of rings (size 3 to 8) (size 9 to 14) (size 15 to 20)
#    0.000    2.556    1.111    0.667    0.000    4.000 
#    0.000    7.778    0.000    0.000    0.000    4.667 
#    0.000    0.000    0.000    0.000    0.000    0.000 
#
# Total GULP energy -892420.029056 kJ/mol
# GULP energy per Si atom -12394.722626 kJ/mol
# Density = 1.784130 g / cm^3
# Si number density = 17.882000 Si / 1000 Ang^3
#
#
#
# Elastic Constant Matrix: (Units=GPa)
#
#
# Indices 1 2 3 4 5 6 
#
# 1 107.0300 34.0949 41.8981 0.0000 0.0000 0.0000
# 2 34.0949 107.0300 41.8981 0.0000 0.0000 0.0000
# 3 41.8981 41.8981 59.3227 0.0000 0.0000 0.0000
# 4 0.0000 0.0000 0.0000 24.6542 0.0000 0.0000
# 5 0.0000 0.0000 0.0000 0.0000 24.6543 0.0000
# 6 0.0000 0.0000 0.0000 0.0000 0.0000 17.4310
#
#
#
# Elastic Compliance Matrix: (Units=1/GPa)
#
#
# Indices 1 2 3 4 5 6 
#
# 1 0.012957 -0.000754 -0.008619 0.000000 0.000000 0.000000
# 2 -0.000754 0.012957 -0.008619 0.000000 0.000000 0.000000
# 3 -0.008619 -0.008619 0.029032 0.000000 0.000000 0.000000
# 4 0.000000 0.000000 0.000000 0.040561 0.000000 0.000000
# 5 0.000000 0.000000 0.000000 0.000000 0.040561 0.000000
# 6 0.000000 0.000000 0.000000 0.000000 0.000000 0.057369
#
#
# Mechanical properties :
#
#
# Convention : Reuss Voigt Hill
#
# Bulk Modulus (GPa) = 52.73506 56.57387 54.65447
# Shear Modulus (GPa) = 21.20958 23.71401 22.46179
#
# Velocity S-wave (km/s) = 3.44770 3.64557 3.54801
# Velocity P-wave (km/s) = 6.73821 7.03038 6.88584
#
# Compressibility (1/GPa) = 0.01896271
#
# Stress axis : x y z
#
# Youngs Moduli (GPa) = 77.17660 77.17660 34.44472
#
# Poissons Ratio (x) = 0.05815 0.29689
# Poissons Ratio (y) = 0.05815 0.29689
# Poissons Ratio (z) = 0.66520 0.66520
#
# Static dielectric constant tensor:
#      x y z
#    x 3.380800 0.000000 0.000000 
#    y 0.000000 3.380800 0.000000 
#    z 0.000000 0.000000 3.344380 
# 
# 
# High freq. dielectric constant tensor:
#      x y z
#    x 1.693320 0.000000 0.000000 
#    y 0.000000 1.693320 0.000000 
#    z 0.000000 0.000000 1.678010 
# 
# From -- ./inp_files/8193.got.cif
#   From: 2010.03.12/outbox.cif.g09.slc.cpg/sg139_5_cif.got.tgz:8193.got - 2010.04.08 09:46:31.
