data_PCOD8319907
_publ_section_title
;
Structure prediction by ZEFSAII (Michael W. Deem and Ramdas Pophale) SiO2 
 PCOD8319907
Probable space group: I 4/M M M
;
_chemical_formula_sum "Si O2"
_cell_formula_units_Z 176
_cell_length_a 24.118415
_cell_length_b 24.118415
_cell_length_c 15.014771
_cell_angle_alpha 90.000000
_cell_angle_beta 90.000000
_cell_angle_gamma 90.000000
_cell_volume 8734.061392
_symmetry_space_group_name_H-M "I 4/M M M"
_symmetry_group_IT_number 139
_symmetry_cell_setting 'tetragonal'
loop_
_space_group_symop_operation_xyz
x,y,z
-y,x,z
-x,-y,z
y,-x,z
x,-y,-z
-x,y,-z
y,x,-z
-y,-x,-z
-x,-y,-z
y,-x,-z
x,y,-z
-y,x,-z
-x,y,z
x,-y,z
-y,-x,z
y,x,z
1/2+x,1/2+y,1/2+z
1/2-y,1/2+x,1/2+z
1/2-x,1/2-y,1/2+z
1/2+y,1/2-x,1/2+z
1/2+x,1/2-y,1/2-z
1/2-x,1/2+y,1/2-z
1/2+y,1/2+x,1/2-z
1/2-y,1/2-x,1/2-z
1/2-x,1/2-y,1/2-z
1/2+y,1/2-x,1/2-z
1/2+x,1/2+y,1/2-z
1/2-y,1/2+x,1/2-z
1/2-x,1/2+y,1/2+z
1/2+x,1/2-y,1/2+z
1/2-y,1/2-x,1/2+z
1/2+y,1/2+x,1/2+z
loop_
_atom_site_type_symbol
_atom_site_label
_atom_site_fract_x
_atom_site_fract_y
_atom_site_fract_z
Si Si1 0.316615 0.228882 0.102507
Si Si2 0.640834 0.888037 0.845009
Si Si3 0.314945 0.407458 0.096352
Si Si4 0.749395 0.063724 0.098940
Si Si5 0.566174 0.066100 0.000000
Si Si6 0.061216 0.847479 0.781782
O O1 0.266204 0.266204 0.145088
O O2 0.324598 0.169102 0.145864
O O3 0.376088 0.257630 0.115024
O O4 0.302306 0.220569 0.000000
O O5 0.610432 0.889569 0.750000
O O6 0.689733 0.932842 0.853287
O O7 0.592782 0.902589 0.915461
O O8 0.361784 0.361784 0.089155
O O9 0.327464 0.446971 0.179414
O O10 0.312159 0.439270 0.000000
O O11 0.798478 0.089495 0.159684
O O12 0.763987 0.000000 0.088776
O O13 0.748135 0.091609 0.000000
O O14 0.500000 0.075604 0.000000
O O15 0.579838 0.000000 0.000000
O O16 0.098594 0.901407 0.790214
O O17 0.000000 0.863332 0.816312
#
# Coordination Sequence:
#
# PCOD8319907 Si02
#       6
#    32  32  32  32  16  32
#     4   9  17  32  55  86 126 161 191 238 303 367
#     4  12  23  38  66  97 125 159 206 251 304 372
#     4   8  15  30  52  76 113 158 193 235 294 358
#     4  10  21  39  61  82 113 156 195 241 298 356
#     4  11  26  48  67  86 122 168 214 271 328 373
#     4  10  21  36  55  83 116 155 207 257 306 365
#
# _framework density 20.150993
#
# number of rings (size 3 to 8) (size 9 to 14) (size 15 to 20)
#    0.000    2.091    1.818    2.727    0.000    3.455 
#    0.000    1.818    0.000    0.000    0.000    5.091 
#    0.000    0.000    0.000    0.000    0.000    0.000 
#
# Total GULP energy -1090294.604405 kJ/mol
# GULP energy per Si atom -12389.711414 kJ/mol
# Density = 2.010513 g / cm^3
# Si number density = 20.150993 Si / 1000 Ang^3
#
#
#
# Elastic Constant Matrix: (Units=GPa)
#
#
# Indices 1 2 3 4 5 6 
#
# 1 87.5093 35.4628 40.9838 0.0000 0.0000 0.0000
# 2 35.4628 87.5088 40.9836 0.0000 0.0000 0.0000
# 3 40.9838 40.9836 132.4108 0.0000 0.0000 0.0000
# 4 0.0000 0.0000 0.0000 24.3474 0.0000 0.0000
# 5 0.0000 0.0000 0.0000 0.0000 24.3474 0.0000
# 6 0.0000 0.0000 0.0000 0.0000 0.0000 30.2702
#
#
#
# Elastic Compliance Matrix: (Units=1/GPa)
#
#
# Indices 1 2 3 4 5 6 
#
# 1 0.014730 -0.004484 -0.003171 0.000000 0.000000 0.000000
# 2 -0.004484 0.014730 -0.003171 0.000000 0.000000 0.000000
# 3 -0.003171 -0.003171 0.009515 0.000000 0.000000 0.000000
# 4 0.000000 0.000000 0.000000 0.041072 0.000000 0.000000
# 5 0.000000 0.000000 0.000000 0.000000 0.041072 0.000000
# 6 0.000000 0.000000 0.000000 0.000000 0.000000 0.033036
#
#
# Mechanical properties :
#
#
# Convention : Reuss Voigt Hill
#
# Bulk Modulus (GPa) = 57.73051 60.25436 58.99243
# Shear Modulus (GPa) = 27.53579 28.45957 27.99768
#
# Velocity S-wave (km/s) = 3.70059 3.76216 3.73150
# Velocity P-wave (km/s) = 6.85349 6.98843 6.92129
#
# Compressibility (1/GPa) = 0.01732186
#
# Stress axis : x y z
#
# Youngs Moduli (GPa) = 67.89008 67.88976 105.09297
#
# Poissons Ratio (x) = 0.30442 0.33328
# Poissons Ratio (y) = 0.30442 0.33328
# Poissons Ratio (z) = 0.21530 0.21530
#
# Static dielectric constant tensor:
#      x y z
#    x 3.598690 0.000000 0.000000 
#    y 0.000000 3.598680 0.000000 
#    z 0.000000 0.000000 3.978590 
# 
# 
# High freq. dielectric constant tensor:
#      x y z
#    x 1.775040 0.000000 0.000000 
#    y 0.000000 1.775040 0.000000 
#    z 0.000000 0.000000 1.791910 
# 
# From -- ./inp_files/6091.got.cif
#   From: 2010.03.12/outbox.cif.g09.slc.cpg/sg139_4_cif.got.tgz:6091.got - 2010.04.08 09:46:31.
