data_PCOD8319009
_publ_section_title
;
Structure prediction by ZEFSAII (Michael W. Deem and Ramdas Pophale) SiO2 
 PCOD8319009
Probable space group: P 42/N C M
;
_chemical_formula_sum "Si O2"
_cell_formula_units_Z 96
_cell_length_a 22.746852
_cell_length_b 22.746852
_cell_length_c 8.979444
_cell_angle_alpha 90.000000
_cell_angle_beta 90.000000
_cell_angle_gamma 90.000000
_cell_volume 4646.137413
_symmetry_space_group_name_H-M "P 42/N C M"
_symmetry_group_IT_number 138
_space_group.IT_coordinate_system_code '2'
_symmetry_cell_setting 'tetragonal'
loop_
_space_group_symop_operation_xyz
x,y,z
1/2-y,x,1/2+z
1/2-x,1/2-y,z
y,1/2-x,1/2+z
1/2+x,-y,1/2-z
-x,1/2+y,1/2-z
1/2+y,1/2+x,-z
-y,-x,-z
-x,-y,-z
1/2+y,-x,1/2-z
1/2+x,1/2+y,-z
-y,1/2+x,1/2-z
1/2-x,y,1/2+z
x,1/2-y,1/2+z
1/2-y,1/2-x,z
y,x,z
loop_
_atom_site_type_symbol
_atom_site_label
_atom_site_fract_x
_atom_site_fract_y
_atom_site_fract_z
Si Si1 0.461225 0.754099 0.969439
Si Si2 0.520286 0.825430 0.718179
Si Si3 0.679803 0.588338 0.752382
Si Si4 0.053784 0.540744 0.325678
Si Si5 0.373484 0.282484 0.928522
Si Si6 0.329053 0.550886 0.274863
O O1 0.492652 0.709623 0.080411
O O2 0.423954 0.801187 0.070168
O O3 0.505635 0.793873 0.873140
O O4 0.422841 0.711377 0.860356
O O5 0.500421 0.892671 0.720076
O O6 0.589678 0.822736 0.688500
O O7 0.613288 0.613288 0.755190
O O8 0.714909 0.622383 0.622111
O O9 0.679456 0.519402 0.723184
O O10 0.711925 0.600291 0.907150
O O11 0.054262 0.554262 0.500000
O O12 0.063921 0.602004 0.238504
O O13 0.993081 0.506920 0.281721
O O14 0.306445 0.306445 0.924524
#
# Coordination Sequence:
#
# PCOD8319009 Si02
#       6
#    16  16  16  16  16  16
#     4  10  20  34  62  76 111 149 194 230 268 338
#     4  11  19  38  56  84 110 152 190 231 280 347
#     4  11  21  35  53  73 100 140 184 230 277 326
#     4  11  22  35  57  89 125 156 190 243 304 363
#     4  11  21  35  53  73 100 140 184 230 277 326
#     4  11  19  38  56  84 110 152 190 231 280 347
#
# _framework density 20.662324000000002
#
# number of rings (size 3 to 8) (size 9 to 14) (size 15 to 20)
#    0.000    1.167    6.667    1.000    0.000    4.333 
#    0.000    5.000    0.000    0.000    0.000    0.000 
#    0.000   46.667    0.000    0.000    0.000    0.000 
#
# Total GULP energy -1189294.229948 kJ/mol
# GULP energy per Si atom -12388.481562 kJ/mol
# Density = 2.061530 g / cm^3
# Si number density = 20.662324 Si / 1000 Ang^3
#
#
#
# Elastic Constant Matrix: (Units=GPa)
#
#
# Indices 1 2 3 4 5 6 
#
# 1 59.7414 11.1668 6.5432 0.0000 0.0000 0.0000
# 2 11.1668 59.7414 6.5432 0.0000 0.0000 0.0000
# 3 6.5432 6.5432 73.8294 0.0000 0.0000 0.0000
# 4 0.0000 0.0000 0.0000 13.7093 0.0000 0.0000
# 5 0.0000 0.0000 0.0000 0.0000 13.7093 0.0000
# 6 0.0000 0.0000 0.0000 0.0000 0.0000 28.6509
#
#
#
# Elastic Compliance Matrix: (Units=1/GPa)
#
#
# Indices 1 2 3 4 5 6 
#
# 1 0.017462 -0.003125 -0.001271 0.000000 0.000000 0.000000
# 2 -0.003125 0.017462 -0.001271 0.000000 0.000000 0.000000
# 3 -0.001271 -0.001271 0.013770 0.000000 0.000000 0.000000
# 4 0.000000 0.000000 0.000000 0.072943 0.000000 0.000000
# 5 0.000000 0.000000 0.000000 0.000000 0.072943 0.000000
# 6 0.000000 0.000000 0.000000 0.000000 0.000000 0.034903
#
#
# Mechanical properties :
#
#
# Convention : Reuss Voigt Hill
#
# Bulk Modulus (GPa) = 26.76526 26.86873 26.81699
# Shear Modulus (GPa) = 19.74180 22.48449 21.11315
#
# Velocity S-wave (km/s) = 3.09439 3.30235 3.20006
# Velocity P-wave (km/s) = 5.07432 5.25096 5.16340
#
# Compressibility (1/GPa) = 0.03736186
#
# Stress axis : x y z
#
# Youngs Moduli (GPa) = 57.26696 57.26696 72.62184
#
# Poissons Ratio (x) = 0.17895 0.09228
# Poissons Ratio (y) = 0.17895 0.09228
# Poissons Ratio (z) = 0.07277 0.07277
#
# Static dielectric constant tensor:
#      x y z
#    x 3.681670 0.000000 0.000000 
#    y 0.000000 3.681670 0.000000 
#    z 0.000000 0.000000 4.196740 
# 
# 
# High freq. dielectric constant tensor:
#      x y z
#    x 1.781330 0.000000 0.000000 
#    y 0.000000 1.781330 0.000000 
#    z 0.000000 0.000000 1.820890 
# 
# From -- ./inp_files/1712.got.cif
#   From: 2010.03.12/outbox.cif.g09.slc.cpg/sg138_1_cif.got.tgz:1712.got - 2010.04.08 09:41:05.
