data_PCOD8319486
_publ_section_title
;
Structure prediction by ZEFSAII (Michael W. Deem and Ramdas Pophale) SiO2 
 PCOD8319486
Probable space group: I 4/M M M
;
_chemical_formula_sum "Si O2"
_cell_formula_units_Z 176
_cell_length_a 19.441730
_cell_length_b 19.441730
_cell_length_c 27.490161
_cell_angle_alpha 90.000000
_cell_angle_beta 90.000000
_cell_angle_gamma 90.000000
_cell_volume 10390.754845
_symmetry_space_group_name_H-M "I 4/M M M"
_symmetry_group_IT_number 139
_symmetry_cell_setting 'tetragonal'
loop_
_space_group_symop_operation_xyz
x,y,z
-y,x,z
-x,-y,z
y,-x,z
x,-y,-z
-x,y,-z
y,x,-z
-y,-x,-z
-x,-y,-z
y,-x,-z
x,y,-z
-y,x,-z
-x,y,z
x,-y,z
-y,-x,z
y,x,z
1/2+x,1/2+y,1/2+z
1/2-y,1/2+x,1/2+z
1/2-x,1/2-y,1/2+z
1/2+y,1/2-x,1/2+z
1/2+x,1/2-y,1/2-z
1/2-x,1/2+y,1/2-z
1/2+y,1/2+x,1/2-z
1/2-y,1/2-x,1/2-z
1/2-x,1/2-y,1/2-z
1/2+y,1/2-x,1/2-z
1/2+x,1/2+y,1/2-z
1/2-y,1/2+x,1/2-z
1/2-x,1/2+y,1/2+z
1/2+x,1/2-y,1/2+z
1/2-y,1/2-x,1/2+z
1/2+y,1/2+x,1/2+z
loop_
_atom_site_type_symbol
_atom_site_label
_atom_site_fract_x
_atom_site_fract_y
_atom_site_fract_z
Si Si1 0.220157 0.665857 0.142520
Si Si2 0.690232 0.578412 0.589639
Si Si3 0.077004 0.500000 0.442357
Si Si4 0.236771 0.874656 0.190950
Si Si5 0.334784 0.871404 0.055792
Si Si6 0.807802 0.922086 0.710739
O O1 0.268228 0.731773 0.136310
O O2 0.154273 0.687999 0.175734
O O3 0.194230 0.645568 0.088738
O O4 0.260171 0.602539 0.166242
O O5 0.675931 0.500000 0.573960
O O6 0.623536 0.623536 0.576045
O O7 0.704688 0.580899 0.647285
O O8 0.754897 0.608377 0.560317
O O9 0.074245 0.500000 0.500000
O O10 0.118072 0.433337 0.424409
O O11 0.000000 0.500000 0.420223
O O12 0.190837 0.809164 0.203930
O O13 0.238085 0.919703 0.239992
O O14 0.351105 0.852681 0.000000
O O15 0.876809 0.876809 0.714860
O O16 0.830538 0.000000 0.700446
#
# Coordination Sequence:
#
# PCOD8319486 Si02
#       6
#    32  32  16  32  32  32
#     4   9  18  31  49  72  96 125 162 203 243 287
#     4  10  19  30  46  70 100 136 175 207 238 279
#     4   9  18  32  50  70  91 117 149 189 242 300
#     4   8  15  29  48  68  93 126 164 204 242 280
#     4  10  19  33  51  71  96 124 157 200 250 298
#     4  10  19  31  48  71  99 129 162 200 244 295
#
# _framework density 16.938134000000002
#
# number of rings (size 3 to 8) (size 9 to 14) (size 15 to 20)
#    0.000    2.636    0.909    2.727    0.000    4.727 
#    0.000    0.000    0.000    3.273    0.000    1.273 
#    0.000    0.000    0.000    4.000    0.000    0.000 
#
# Total GULP energy -1090950.085064 kJ/mol
# GULP energy per Si atom -12397.160058 kJ/mol
# Density = 1.689958 g / cm^3
# Si number density = 16.938134 Si / 1000 Ang^3
#
#
#
# Elastic Constant Matrix: (Units=GPa)
#
#
# Indices 1 2 3 4 5 6 
#
# 1 85.1708 23.9380 34.7985 0.0000 0.0000 0.0000
# 2 23.9380 85.1708 34.7985 0.0000 0.0000 0.0000
# 3 34.7985 34.7985 87.5857 0.0000 0.0000 0.0000
# 4 0.0000 0.0000 0.0000 17.1627 0.0000 0.0000
# 5 0.0000 0.0000 0.0000 0.0000 17.1627 0.0000
# 6 0.0000 0.0000 0.0000 0.0000 0.0000 14.8770
#
#
#
# Elastic Compliance Matrix: (Units=1/GPa)
#
#
# Indices 1 2 3 4 5 6 
#
# 1 0.014304 -0.002027 -0.004877 0.000000 0.000000 0.000000
# 2 -0.002027 0.014304 -0.004877 0.000000 0.000000 0.000000
# 3 -0.004877 -0.004877 0.015293 0.000000 0.000000 0.000000
# 4 0.000000 0.000000 0.000000 0.058266 0.000000 0.000000
# 5 0.000000 0.000000 0.000000 0.000000 0.058266 0.000000
# 6 0.000000 0.000000 0.000000 0.000000 0.000000 0.067218
#
#
# Mechanical properties :
#
#
# Convention : Reuss Voigt Hill
#
# Bulk Modulus (GPa) = 49.17421 49.44414 49.30918
# Shear Modulus (GPa) = 19.38034 20.79998 20.09016
#
# Velocity S-wave (km/s) = 3.38625 3.50808 3.44770
# Velocity P-wave (km/s) = 6.66210 6.75746 6.70995
#
# Compressibility (1/GPa) = 0.02033586
#
# Stress axis : x y z
#
# Youngs Moduli (GPa) = 69.91178 69.91178 65.38889
#
# Poissons Ratio (x) = 0.14174 0.31893
# Poissons Ratio (y) = 0.14174 0.31893
# Poissons Ratio (z) = 0.34099 0.34099
#
# Static dielectric constant tensor:
#      x y z
#    x 3.075380 0.000000 0.000000 
#    y 0.000000 3.075380 0.000000 
#    z 0.000000 0.000000 3.133770 
# 
# 
# High freq. dielectric constant tensor:
#      x y z
#    x 1.635860 0.000000 0.000000 
#    y 0.000000 1.635860 0.000000 
#    z 0.000000 0.000000 1.645190 
# 
# From -- ./inp_files/14240.got.cif
#   From: 2010.03.12/outbox.cif.g09.slc.cpg/sg139_8_cif.got.tgz:14240.got - 2010.04.08 09:46:31.
