data_PCOD8319859
_publ_section_title
;
Structure prediction by ZEFSAII (Michael W. Deem and Ramdas Pophale) SiO2 
 PCOD8319859
Probable space group: I 4/M M M
;
_chemical_formula_sum "Si O2"
_cell_formula_units_Z 144
_cell_length_a 21.817814
_cell_length_b 21.817814
_cell_length_c 16.484577
_cell_angle_alpha 90.000000
_cell_angle_beta 90.000000
_cell_angle_gamma 90.000000
_cell_volume 7846.939017
_symmetry_space_group_name_H-M "I 4/M M M"
_symmetry_group_IT_number 139
_symmetry_cell_setting 'tetragonal'
loop_
_space_group_symop_operation_xyz
x,y,z
-y,x,z
-x,-y,z
y,-x,z
x,-y,-z
-x,y,-z
y,x,-z
-y,-x,-z
-x,-y,-z
y,-x,-z
x,y,-z
-y,x,-z
-x,y,z
x,-y,z
-y,-x,z
y,x,z
1/2+x,1/2+y,1/2+z
1/2-y,1/2+x,1/2+z
1/2-x,1/2-y,1/2+z
1/2+y,1/2-x,1/2+z
1/2+x,1/2-y,1/2-z
1/2-x,1/2+y,1/2-z
1/2+y,1/2+x,1/2-z
1/2-y,1/2-x,1/2-z
1/2-x,1/2-y,1/2-z
1/2+y,1/2-x,1/2-z
1/2+x,1/2+y,1/2-z
1/2-y,1/2+x,1/2-z
1/2-x,1/2+y,1/2+z
1/2+x,1/2-y,1/2+z
1/2-y,1/2-x,1/2+z
1/2+y,1/2+x,1/2+z
loop_
_atom_site_type_symbol
_atom_site_label
_atom_site_fract_x
_atom_site_fract_y
_atom_site_fract_z
Si Si1 0.783799 0.115455 0.815204
Si Si2 0.500000 0.154007 0.411564
Si Si3 0.170812 0.070877 0.500000
Si Si4 0.631065 0.839572 0.597151
Si Si5 0.200371 0.000000 0.089212
Si Si6 0.928964 0.261450 0.643561
O O1 0.830120 0.169881 0.796050
O O2 0.726697 0.144871 0.864002
O O3 0.819298 0.062223 0.864793
O O4 0.761977 0.084816 0.732521
O O5 0.500000 0.123221 0.500000
O O6 0.564398 0.136055 0.369155
O O7 0.500000 0.226972 0.418050
O O8 0.108208 0.108208 0.500000
O O9 0.209321 0.088624 0.579377
O O10 0.152316 0.000000 0.500000
O O11 0.629998 0.831804 0.500000
O O12 0.679214 0.889017 0.625527
O O13 0.169854 0.000000 0.000000
O O14 0.000000 0.279905 0.635078
#
# Coordination Sequence:
#
# PCOD8319859 Si02
#       6
#    32  16  16  32  16  32
#     4  11  22  37  59  88 119 152 192 238 290 343
#     4   7  14  30  53  76 109 149 190 227 270 327
#     4  10  22  39  60  83 113 153 197 245 298 354
#     4  10  20  36  57  86 119 156 194 237 284 342
#     4   9  18  36  58  83 117 155 188 226 282 345
#     4  11  22  39  59  83 119 158 194 238 296 347
#
# _framework density 18.351105
#
# number of rings (size 3 to 8) (size 9 to 14) (size 15 to 20)
#    0.000    2.000    2.222    3.333    0.000    4.556 
#    0.000    0.556    0.000    2.333    0.000    0.778 
#    0.000    0.000    0.000    0.000    0.000    0.000 
#
# Total GULP energy -892443.796879 kJ/mol
# GULP energy per Si atom -12395.052734 kJ/mol
# Density = 1.830934 g / cm^3
# Si number density = 18.351105 Si / 1000 Ang^3
#
#
#
# Elastic Constant Matrix: (Units=GPa)
#
#
# Indices 1 2 3 4 5 6 
#
# 1 74.8530 44.7999 9.0253 0.0000 0.0000 0.0000
# 2 44.7999 74.8530 9.0253 0.0000 0.0000 0.0000
# 3 9.0253 9.0253 90.7287 0.0000 0.0000 0.0000
# 4 0.0000 0.0000 0.0000 18.3437 0.0000 0.0000
# 5 0.0000 0.0000 0.0000 0.0000 18.3437 0.0000
# 6 0.0000 0.0000 0.0000 0.0000 0.0000 -1.4186
#
#
#
# Elastic Compliance Matrix: (Units=1/GPa)
#
#
# Indices 1 2 3 4 5 6 
#
# 1 0.020880 -0.012395 -0.000844 0.000000 0.000000 0.000000
# 2 -0.012395 0.020880 -0.000844 0.000000 0.000000 0.000000
# 3 -0.000844 -0.000844 0.011190 0.000000 0.000000 0.000000
# 4 0.000000 0.000000 0.000000 0.054514 0.000000 0.000000
# 5 0.000000 0.000000 0.000000 0.000000 0.054514 0.000000
# 6 0.000000 0.000000 0.000000 0.000000 0.000000 -0.704918
#
#
# Mechanical properties :
#
#
# Convention : Reuss Voigt Hill
#
# Bulk Modulus (GPa) = 40.34970 40.68174 40.51572
# Shear Modulus (GPa) = -9.87141 18.89273 4.51066
#
# Velocity S-wave (km/s) = -2.32182 3.21209 1.56949
# Velocity P-wave (km/s) = 3.85325 5.99778 5.04088
#
# Compressibility (1/GPa) = 0.02478333
#
# Stress axis : x y z
#
# Youngs Moduli (GPa) = 47.89355 47.89355 89.36718
#
# Poissons Ratio (x) = 0.59363 0.07543
# Poissons Ratio (y) = 0.59363 0.07543
# Poissons Ratio (z) = 0.04042 0.04042
#
# Static dielectric constant tensor:
#      x y z
#    x 3.412470 0.000000 0.000000 
#    y 0.000000 3.412470 0.000000 
#    z 0.000000 0.000000 3.619190 
# 
# 
# High freq. dielectric constant tensor:
#      x y z
#    x 1.699320 0.000000 0.000000 
#    y 0.000000 1.699320 0.000000 
#    z 0.000000 0.000000 1.724300 
# 
# From -- ./inp_files/8247.got.cif
#   From: 2010.03.12/outbox.cif.g09.slc.cpg/sg139_5_cif.got.tgz:8247.got - 2010.04.08 09:46:31.
