data_PCOD8319499
_publ_section_title
;
Structure prediction by ZEFSAII (Michael W. Deem and Ramdas Pophale) SiO2 
 PCOD8319499
Probable space group: I 4/M M M
;
_chemical_formula_sum "Si O2"
_cell_formula_units_Z 192
_cell_length_a 20.472141
_cell_length_b 20.472141
_cell_length_c 25.751767
_cell_angle_alpha 90.000000
_cell_angle_beta 90.000000
_cell_angle_gamma 90.000000
_cell_volume 10792.785911
_symmetry_space_group_name_H-M "I 4/M M M"
_symmetry_group_IT_number 139
_symmetry_cell_setting 'tetragonal'
loop_
_space_group_symop_operation_xyz
x,y,z
-y,x,z
-x,-y,z
y,-x,z
x,-y,-z
-x,y,-z
y,x,-z
-y,-x,-z
-x,-y,-z
y,-x,-z
x,y,-z
-y,x,-z
-x,y,z
x,-y,z
-y,-x,z
y,x,z
1/2+x,1/2+y,1/2+z
1/2-y,1/2+x,1/2+z
1/2-x,1/2-y,1/2+z
1/2+y,1/2-x,1/2+z
1/2+x,1/2-y,1/2-z
1/2-x,1/2+y,1/2-z
1/2+y,1/2+x,1/2-z
1/2-y,1/2-x,1/2-z
1/2-x,1/2-y,1/2-z
1/2+y,1/2-x,1/2-z
1/2+x,1/2+y,1/2-z
1/2-y,1/2+x,1/2-z
1/2-x,1/2+y,1/2+z
1/2+x,1/2-y,1/2+z
1/2-y,1/2-x,1/2+z
1/2+y,1/2+x,1/2+z
loop_
_atom_site_type_symbol
_atom_site_label
_atom_site_fract_x
_atom_site_fract_y
_atom_site_fract_z
Si Si1 0.926648 0.179510 0.353211
Si Si2 0.683361 0.423868 0.264226
Si Si3 0.135751 0.245284 0.443405
Si Si4 0.424633 0.071226 0.689255
Si Si5 0.241741 0.650722 0.441968
Si Si6 0.791407 0.576635 0.655316
O O1 0.882752 0.117249 0.365711
O O2 0.913629 0.206832 0.295301
O O3 0.914142 0.236489 0.395617
O O4 0.000000 0.154404 0.358634
O O5 0.666844 0.500000 0.275532
O O6 0.618147 0.381854 0.275658
O O7 0.742654 0.397516 0.299797
O O8 0.100056 0.242486 0.500000
O O9 0.189563 0.189563 0.440859
O O10 0.172003 0.314045 0.437827
O O11 0.500000 0.066474 0.673574
O O12 0.416750 0.083251 0.750000
O O13 0.392867 0.135106 0.661303
O O14 0.392169 0.000000 0.674161
O O15 0.251502 0.621949 0.500000
O O16 0.300204 0.699797 0.428095
O O17 0.240386 0.592852 0.400274
O O18 0.797396 0.500000 0.661524
#
# Coordination Sequence:
#
# PCOD8319499 Si02
#       6
#    32  32  32  32  32  32
#     4   9  17  29  45  66  94 126 158 194 234 274
#     4   9  18  31  46  68  98 129 162 198 237 282
#     4   8  15  29  46  61  80 111 151 190 226 265
#     4   8  15  29  47  66  91 125 160 187 219 275
#     4   9  18  33  51  68  88 118 155 192 233 284
#     4  10  19  30  48  73  97 121 151 192 238 279
#
# _framework density 17.789660000000001
#
# number of rings (size 3 to 8) (size 9 to 14) (size 15 to 20)
#    0.000    3.167    0.000    2.000    0.000    2.333 
#    0.000    4.167    0.000    6.500    0.000    4.667 
#    0.000    0.000    0.000   15.500    0.000    0.167 
#
# Total GULP energy -1189381.776292 kJ/mol
# GULP energy per Si atom -12389.393503 kJ/mol
# Density = 1.774917 g / cm^3
# Si number density = 17.789660 Si / 1000 Ang^3
#
#
#
# Elastic Constant Matrix: (Units=GPa)
#
#
# Indices 1 2 3 4 5 6 
#
# 1 41.6459 25.3928 33.5431 0.0000 0.0000 0.0000
# 2 25.3928 41.6453 33.5429 0.0000 0.0000 0.0000
# 3 33.5431 33.5429 106.4103 0.0000 0.0000 0.0000
# 4 0.0000 0.0000 0.0000 26.1971 0.0000 0.0000
# 5 0.0000 0.0000 0.0000 0.0000 26.1971 0.0000
# 6 0.0000 0.0000 0.0000 0.0000 0.0000 14.5023
#
#
#
# Elastic Compliance Matrix: (Units=1/GPa)
#
#
# Indices 1 2 3 4 5 6 
#
# 1 0.041659 -0.019869 -0.006869 0.000000 0.000000 0.000000
# 2 -0.019869 0.041660 -0.006869 0.000000 0.000000 0.000000
# 3 -0.006869 -0.006869 0.013728 0.000000 0.000000 0.000000
# 4 0.000000 0.000000 0.000000 0.038172 0.000000 0.000000
# 5 0.000000 0.000000 0.000000 0.000000 0.038172 0.000000
# 6 0.000000 0.000000 0.000000 0.000000 0.000000 0.068954
#
#
# Mechanical properties :
#
#
# Convention : Reuss Voigt Hill
#
# Bulk Modulus (GPa) = 33.51918 41.62880 37.57399
# Shear Modulus (GPa) = 15.64932 19.86081 17.75507
#
# Velocity S-wave (km/s) = 2.96917 3.34492 3.16263
# Velocity P-wave (km/s) = 5.53511 6.19430 5.87396
#
# Compressibility (1/GPa) = 0.02983367
#
# Stress axis : x y z
#
# Youngs Moduli (GPa) = 24.00447 24.00413 72.84347
#
# Poissons Ratio (x) = 0.47693 0.50035
# Poissons Ratio (y) = 0.47693 0.50036
# Poissons Ratio (z) = 0.16488 0.16488
#
# Static dielectric constant tensor:
#      x y z
#    x 3.197930 0.000000 0.000000 
#    y 0.000000 3.197930 0.000000 
#    z 0.000000 0.000000 3.426120 
# 
# 
# High freq. dielectric constant tensor:
#      x y z
#    x 1.667830 0.000000 0.000000 
#    y 0.000000 1.667830 0.000000 
#    z 0.000000 0.000000 1.688220 
# 
# From -- ./inp_files/11934.got.cif
#   From: 2010.03.12/outbox.cif.g09.slc.cpg/sg139_6_cif.got.tgz:11934.got - 2010.04.08 09:46:31.
