data_PCOD8319446
_publ_section_title
;
Structure prediction by ZEFSAII (Michael W. Deem and Ramdas Pophale) SiO2 
 PCOD8319446
Probable space group: I 4/M M M
;
_chemical_formula_sum "Si O2"
_cell_formula_units_Z 144
_cell_length_a 18.386451
_cell_length_b 18.386451
_cell_length_c 27.613674
_cell_angle_alpha 90.000000
_cell_angle_beta 90.000000
_cell_angle_gamma 90.000000
_cell_volume 9335.122272
_symmetry_space_group_name_H-M "I 4/M M M"
_symmetry_group_IT_number 139
_symmetry_cell_setting 'tetragonal'
loop_
_space_group_symop_operation_xyz
x,y,z
-y,x,z
-x,-y,z
y,-x,z
x,-y,-z
-x,y,-z
y,x,-z
-y,-x,-z
-x,-y,-z
y,-x,-z
x,y,-z
-y,x,-z
-x,y,z
x,-y,z
-y,-x,z
y,x,z
1/2+x,1/2+y,1/2+z
1/2-y,1/2+x,1/2+z
1/2-x,1/2-y,1/2+z
1/2+y,1/2-x,1/2+z
1/2+x,1/2-y,1/2-z
1/2-x,1/2+y,1/2-z
1/2+y,1/2+x,1/2-z
1/2-y,1/2-x,1/2-z
1/2-x,1/2-y,1/2-z
1/2+y,1/2-x,1/2-z
1/2+x,1/2+y,1/2-z
1/2-y,1/2+x,1/2-z
1/2-x,1/2+y,1/2+z
1/2+x,1/2-y,1/2+z
1/2-y,1/2-x,1/2+z
1/2+y,1/2+x,1/2+z
loop_
_atom_site_type_symbol
_atom_site_label
_atom_site_fract_x
_atom_site_fract_y
_atom_site_fract_z
Si Si1 0.582905 0.831251 0.788703
Si Si2 0.342301 0.915498 0.942952
Si Si3 0.082178 0.801959 0.780168
Si Si4 0.000000 0.414728 0.552313
Si Si5 0.331903 0.215229 0.641701
O O1 0.500000 0.849165 0.804713
O O2 0.607928 0.892073 0.750000
O O3 0.587838 0.752385 0.764728
O O4 0.634960 0.828624 0.835241
O O5 0.423504 0.895010 0.922283
O O6 0.288196 0.864687 0.912505
O O7 0.324770 0.000000 0.932874
O O8 0.334665 0.898396 0.000000
O O9 0.126085 0.873916 0.765911
O O10 0.114102 0.765307 0.827953
O O11 0.000000 0.824802 0.791114
O O12 0.000000 0.500000 0.543175
O O13 0.000000 0.375730 0.500000
O O14 0.251956 0.251956 0.639788
#
# Coordination Sequence:
#
# PCOD8319446 Si02
#       5
#    32  32  32  16  32
#     4   9  18  31  45  63  88 115 145 178 216 262
#     4   9  17  29  44  62  86 114 145 180 217 258
#     4   9  17  30  46  63  85 111 142 180 217 257
#     4   7  12  24  40  58  80 106 135 169 211 255
#     4  10  19  29  44  64  88 119 149 177 216 263
#
# _framework density 15.425615000000001
#
# number of rings (size 3 to 8) (size 9 to 14) (size 15 to 20)
#    0.000    3.000    0.000    2.667    1.556    4.444 
#    0.000    0.000    0.000    0.000    0.000    0.000 
#    0.000    0.000    0.000   20.667    0.000    6.222 
#
# Total GULP energy -892131.285514 kJ/mol
# GULP energy per Si atom -12390.712299 kJ/mol
# Density = 1.539051 g / cm^3
# Si number density = 15.425615 Si / 1000 Ang^3
#
#
#
# Elastic Constant Matrix: (Units=GPa)
#
#
# Indices 1 2 3 4 5 6 
#
# 1 90.2486 49.4005 33.4125 0.0000 0.0000 0.0000
# 2 49.4005 90.2473 33.4125 0.0000 0.0000 0.0000
# 3 33.4125 33.4125 70.1939 0.0000 0.0000 0.0000
# 4 0.0000 0.0000 0.0000 13.2413 0.0000 0.0000
# 5 0.0000 0.0000 0.0000 0.0000 13.2417 0.0000
# 6 0.0000 0.0000 0.0000 0.0000 0.0000 20.1063
#
#
#
# Elastic Compliance Matrix: (Units=1/GPa)
#
#
# Indices 1 2 3 4 5 6 
#
# 1 0.016877 -0.007604 -0.004414 0.000000 0.000000 0.000000
# 2 -0.007604 0.016877 -0.004414 0.000000 0.000000 0.000000
# 3 -0.004414 -0.004414 0.018448 0.000000 0.000000 0.000000
# 4 0.000000 0.000000 0.000000 0.075522 0.000000 0.000000
# 5 0.000000 0.000000 0.000000 0.000000 0.075519 0.000000
# 6 0.000000 0.000000 0.000000 0.000000 0.000000 0.049736
#
#
# Mechanical properties :
#
#
# Convention : Reuss Voigt Hill
#
# Bulk Modulus (GPa) = 51.71033 53.68233 52.69633
# Shear Modulus (GPa) = 17.10634 18.28213 17.69424
#
# Velocity S-wave (km/s) = 3.33371 3.44638 3.39051
# Velocity P-wave (km/s) = 6.95797 7.12131 7.04011
#
# Compressibility (1/GPa) = 0.01933850
#
# Stress axis : x y z
#
# Youngs Moduli (GPa) = 59.25208 59.25104 54.20518
#
# Poissons Ratio (x) = 0.45055 0.23926
# Poissons Ratio (y) = 0.45056 0.23927
# Poissons Ratio (z) = 0.26153 0.26154
#
# Static dielectric constant tensor:
#      x y z
#    x 2.963270 0.000000 0.000000 
#    y 0.000000 2.963270 0.000000 
#    z 0.000000 0.000000 2.751740 
# 
# 
# High freq. dielectric constant tensor:
#      x y z
#    x 1.580200 0.000000 0.000000 
#    y 0.000000 1.580200 0.000000 
#    z 0.000000 0.000000 1.580000 
# 
# From -- ./inp_files/12763.got.cif
#   From: 2010.03.12/outbox.cif.g09.slc.cpg/sg139_7_cif.got.tgz:12763.got - 2010.04.08 09:46:31.
