data_PCOD8319330
_publ_section_title
;
Structure prediction by ZEFSAII (Michael W. Deem and Ramdas Pophale) SiO2 
 PCOD8319330
Probable space group: I 4/M M M
;
_chemical_formula_sum "Si O2"
_cell_formula_units_Z 160
_cell_length_a 18.023610
_cell_length_b 18.023610
_cell_length_c 31.916992
_cell_angle_alpha 90.000000
_cell_angle_beta 90.000000
_cell_angle_gamma 90.000000
_cell_volume 10368.251366
_symmetry_space_group_name_H-M "I 4/M M M"
_symmetry_group_IT_number 139
_symmetry_cell_setting 'tetragonal'
loop_
_space_group_symop_operation_xyz
x,y,z
-y,x,z
-x,-y,z
y,-x,z
x,-y,-z
-x,y,-z
y,x,-z
-y,-x,-z
-x,-y,-z
y,-x,-z
x,y,-z
-y,x,-z
-x,y,z
x,-y,z
-y,-x,z
y,x,z
1/2+x,1/2+y,1/2+z
1/2-y,1/2+x,1/2+z
1/2-x,1/2-y,1/2+z
1/2+y,1/2-x,1/2+z
1/2+x,1/2-y,1/2-z
1/2-x,1/2+y,1/2-z
1/2+y,1/2+x,1/2-z
1/2-y,1/2-x,1/2-z
1/2-x,1/2-y,1/2-z
1/2+y,1/2-x,1/2-z
1/2+x,1/2+y,1/2-z
1/2-y,1/2+x,1/2-z
1/2-x,1/2+y,1/2+z
1/2+x,1/2-y,1/2+z
1/2-y,1/2-x,1/2+z
1/2+y,1/2+x,1/2+z
loop_
_atom_site_type_symbol
_atom_site_label
_atom_site_fract_x
_atom_site_fract_y
_atom_site_fract_z
Si Si1 0.295560 0.585021 0.287535
Si Si2 0.679913 0.197745 0.654240
Si Si3 0.414859 0.700788 0.500000
Si Si4 0.186649 0.412822 0.570924
Si Si5 0.088292 0.419683 0.000000
Si Si6 0.085532 0.793722 0.310860
O O1 0.303939 0.500000 0.302975
O O2 0.371802 0.628199 0.298888
O O3 0.225545 0.624169 0.309585
O O4 0.279778 0.588815 0.238484
O O5 0.740007 0.259994 0.644123
O O6 0.632762 0.182862 0.613152
O O7 0.721325 0.122193 0.667866
O O8 0.500000 0.685141 0.500000
O O9 0.378387 0.621613 0.500000
O O10 0.392570 0.742396 0.542735
O O11 0.183920 0.500000 0.581620
O O12 0.118004 0.385482 0.542825
O O13 0.124318 0.500000 0.000000
O O14 0.000000 0.418513 0.000000
O O15 0.131549 0.868452 0.322543
O O16 0.000000 0.802838 0.325940
#
# Coordination Sequence:
#
# PCOD8319330 Si02
#       6
#    32  32  16  32  16  32
#     4   9  17  29  45  64  88 118 149 182 217 251
#     4  10  18  28  44  65  88 114 144 177 215 260
#     4   9  17  29  43  60  84 112 144 180 215 251
#     4   9  17  28  43  62  83 111 143 173 210 255
#     4   8  15  28  43  59  80 104 133 170 208 247
#     4   9  18  31  46  65  87 112 144 181 220 261
#
# _framework density 15.431724000000001
#
# number of rings (size 3 to 8) (size 9 to 14) (size 15 to 20)
#    0.000    2.900    0.000    3.000    0.000    3.700 
#    0.000    2.000    0.000    1.800    0.000    8.400 
#    0.000    0.000    0.000    0.000    0.000   40.600 
#
# Total GULP energy -991498.499700 kJ/mol
# GULP energy per Si atom -12393.731246 kJ/mol
# Density = 1.539660 g / cm^3
# Si number density = 15.431724 Si / 1000 Ang^3
#
#
#
# Elastic Constant Matrix: (Units=GPa)
#
#
# Indices 1 2 3 4 5 6 
#
# 1 81.3452 69.9929 44.2456 0.0000 0.0000 0.0000
# 2 69.9929 81.3452 44.2456 0.0000 0.0000 0.0000
# 3 44.2456 44.2456 72.7810 0.0000 0.0000 0.0000
# 4 0.0000 0.0000 0.0000 16.6784 0.0000 0.0000
# 5 0.0000 0.0000 0.0000 0.0000 16.6784 0.0000
# 6 0.0000 0.0000 0.0000 0.0000 0.0000 17.0121
#
#
#
# Elastic Compliance Matrix: (Units=1/GPa)
#
#
# Indices 1 2 3 4 5 6 
#
# 1 0.049170 -0.038918 -0.006232 0.000000 0.000000 0.000000
# 2 -0.038918 0.049170 -0.006232 0.000000 0.000000 0.000000
# 3 -0.006232 -0.006232 0.021318 0.000000 0.000000 0.000000
# 4 0.000000 0.000000 0.000000 0.059958 0.000000 0.000000
# 5 0.000000 0.000000 0.000000 0.000000 0.059958 0.000000
# 6 0.000000 0.000000 0.000000 0.000000 0.000000 0.058782
#
#
# Mechanical properties :
#
#
# Convention : Reuss Voigt Hill
#
# Bulk Modulus (GPa) = 59.20055 61.38219 60.29137
# Shear Modulus (GPa) = 12.29252 15.20628 13.74940
#
# Velocity S-wave (km/s) = 2.82543 3.14250 2.98817
# Velocity P-wave (km/s) = 7.00644 7.28217 7.14564
#
# Compressibility (1/GPa) = 0.01689174
#
# Stress axis : x y z
#
# Youngs Moduli (GPa) = 20.33758 20.33758 46.90947
#
# Poissons Ratio (x) = 0.79150 0.29236
# Poissons Ratio (y) = 0.79150 0.29236
# Poissons Ratio (z) = 0.12675 0.12675
#
# Static dielectric constant tensor:
#      x y z
#    x 3.071220 0.000000 0.000000 
#    y 0.000000 3.071220 0.000000 
#    z 0.000000 0.000000 2.847870 
# 
# 
# High freq. dielectric constant tensor:
#      x y z
#    x 1.585040 0.000000 0.000000 
#    y 0.000000 1.585040 0.000000 
#    z 0.000000 0.000000 1.587200 
# 
# From -- ./inp_files/14120.got.cif
#   From: 2010.03.12/outbox.cif.g09.slc.cpg/sg139_8_cif.got.tgz:14120.got - 2010.04.08 09:46:31.
