data_PCOD8319520
_publ_section_title
;
Structure prediction by ZEFSAII (Michael W. Deem and Ramdas Pophale) SiO2 
 PCOD8319520
Probable space group: I 4/M M M
;
_chemical_formula_sum "Si O2"
_cell_formula_units_Z 192
_cell_length_a 26.235704
_cell_length_b 26.235704
_cell_length_c 15.167682
_cell_angle_alpha 90.000000
_cell_angle_beta 90.000000
_cell_angle_gamma 90.000000
_cell_volume 10440.100026
_symmetry_space_group_name_H-M "I 4/M M M"
_symmetry_group_IT_number 139
_symmetry_cell_setting 'tetragonal'
loop_
_space_group_symop_operation_xyz
x,y,z
-y,x,z
-x,-y,z
y,-x,z
x,-y,-z
-x,y,-z
y,x,-z
-y,-x,-z
-x,-y,-z
y,-x,-z
x,y,-z
-y,x,-z
-x,y,z
x,-y,z
-y,-x,z
y,x,z
1/2+x,1/2+y,1/2+z
1/2-y,1/2+x,1/2+z
1/2-x,1/2-y,1/2+z
1/2+y,1/2-x,1/2+z
1/2+x,1/2-y,1/2-z
1/2-x,1/2+y,1/2-z
1/2+y,1/2+x,1/2-z
1/2-y,1/2-x,1/2-z
1/2-x,1/2-y,1/2-z
1/2+y,1/2-x,1/2-z
1/2+x,1/2+y,1/2-z
1/2-y,1/2+x,1/2-z
1/2-x,1/2+y,1/2+z
1/2+x,1/2-y,1/2+z
1/2-y,1/2-x,1/2+z
1/2+y,1/2+x,1/2+z
loop_
_atom_site_type_symbol
_atom_site_label
_atom_site_fract_x
_atom_site_fract_y
_atom_site_fract_z
Si Si1 0.942935 0.138088 0.827032
Si Si2 0.821054 0.906545 0.000000
Si Si3 0.858814 0.440846 0.254020
Si Si4 0.442095 0.218823 0.899158
Si Si5 0.377736 0.703179 0.794511
Si Si6 0.856853 0.705227 0.821311
Si Si7 0.238757 0.675456 0.500000
O O1 0.913933 0.086068 0.849315
O O2 0.940940 0.174806 0.912571
O O3 0.919972 0.164400 0.740663
O O4 0.000000 0.123503 0.803909
O O5 0.766925 0.878801 0.000000
O O6 0.863615 0.863615 0.000000
O O7 0.865212 0.500000 0.280647
O O8 0.914493 0.414493 0.250000
O O9 0.831961 0.434265 0.158652
O O10 0.822389 0.412445 0.325910
O O11 0.500000 0.239160 0.886580
O O12 0.402194 0.262682 0.871382
O O13 0.431228 0.204002 0.000000
O O14 0.328601 0.671400 0.829982
O O15 0.361093 0.736390 0.709725
O O16 0.824755 0.675246 0.750000
O O17 0.825701 0.703212 0.913111
O O18 0.275397 0.724604 0.500000
#
# Coordination Sequence:
#
# PCOD8319520 Si02
#       7
#    32  16  32  32  32  32  16
#     4  10  19  31  48  71 101 137 176 221 270 316
#     4   9  17  31  48  69  97 133 176 220 261 305
#     4   9  19  38  60  83 112 143 175 222 276 327
#     4   9  18  34  56  77 101 140 181 214 263 328
#     4  10  19  32  51  75 104 134 174 227 267 309
#     4  10  21  38  55  78 112 145 180 225 270 321
#     4  11  20  35  57  78 110 155 190 220 269 325
#
# _framework density 18.390629000000001
#
# number of rings (size 3 to 8) (size 9 to 14) (size 15 to 20)
#    0.000    2.333    1.667    1.250    0.000    2.667 
#   13.500    0.417    0.000    1.500    0.000    2.333 
#    0.000    0.000    0.000   15.500    0.000    0.000 
#
# Total GULP energy -1190151.424353 kJ/mol
# GULP energy per Si atom -12397.410670 kJ/mol
# Density = 1.834877 g / cm^3
# Si number density = 18.390629 Si / 1000 Ang^3
#
#
#
# Elastic Constant Matrix: (Units=GPa)
#
#
# Indices 1 2 3 4 5 6 
#
# 1 97.1316 51.1624 34.3113 0.0000 0.0000 0.0000
# 2 51.1624 97.1307 34.3134 0.0000 0.0000 0.0000
# 3 34.3113 34.3134 99.8385 0.0000 0.0000 0.0000
# 4 0.0000 0.0000 0.0000 20.9800 0.0000 0.0000
# 5 0.0000 0.0000 0.0000 0.0000 20.9799 0.0000
# 6 0.0000 0.0000 0.0000 0.0000 0.0000 26.8553
#
#
#
# Elastic Compliance Matrix: (Units=1/GPa)
#
#
# Indices 1 2 3 4 5 6 
#
# 1 0.014886 -0.006868 -0.002756 0.000000 0.000000 0.000000
# 2 -0.006868 0.014887 -0.002756 0.000000 0.000000 0.000000
# 3 -0.002756 -0.002756 0.011910 0.000000 0.000000 0.000000
# 4 0.000000 0.000000 0.000000 0.047665 0.000000 0.000000
# 5 0.000000 0.000000 0.000000 0.000000 0.047665 0.000000
# 6 0.000000 0.000000 0.000000 0.000000 0.000000 0.037237
#
#
# Mechanical properties :
#
#
# Convention : Reuss Voigt Hill
#
# Bulk Modulus (GPa) = 59.08628 59.29722 59.19175
# Shear Modulus (GPa) = 24.43207 25.38393 24.90800
#
# Velocity S-wave (km/s) = 3.64882 3.71922 3.68419
# Velocity P-wave (km/s) = 7.06754 7.12437 7.09601
#
# Compressibility (1/GPa) = 0.01692440
#
# Stress axis : x y z
#
# Youngs Moduli (GPa) = 67.17675 67.17494 83.96002
#
# Poissons Ratio (x) = 0.46133 0.23136
# Poissons Ratio (y) = 0.46134 0.23141
# Poissons Ratio (z) = 0.18511 0.18514
#
# Static dielectric constant tensor:
#      x y z
#    x 3.431300 0.000000 0.000000 
#    y 0.000000 3.431300 0.000000 
#    z 0.000000 0.000000 3.287020 
# 
# 
# High freq. dielectric constant tensor:
#      x y z
#    x 1.707660 0.000000 0.000000 
#    y 0.000000 1.707660 0.000000 
#    z 0.000000 0.000000 1.696310 
# 
# From -- ./inp_files/6495.got.cif
#   From: 2010.03.12/outbox.cif.g09.slc.cpg/sg139_4_cif.got.tgz:6495.got - 2010.04.08 09:46:31.
