data_PCOD8319266
_publ_section_title
;
Structure prediction by ZEFSAII (Michael W. Deem and Ramdas Pophale) SiO2 
 PCOD8319266
Probable space group: I 4/M M M
;
_chemical_formula_sum "Si O2"
_cell_formula_units_Z 208
_cell_length_a 20.767144
_cell_length_b 20.767144
_cell_length_c 27.458023
_cell_angle_alpha 90.000000
_cell_angle_beta 90.000000
_cell_angle_gamma 90.000000
_cell_volume 11841.938823
_symmetry_space_group_name_H-M "I 4/M M M"
_symmetry_group_IT_number 139
_symmetry_cell_setting 'tetragonal'
loop_
_space_group_symop_operation_xyz
x,y,z
-y,x,z
-x,-y,z
y,-x,z
x,-y,-z
-x,y,-z
y,x,-z
-y,-x,-z
-x,-y,-z
y,-x,-z
x,y,-z
-y,x,-z
-x,y,z
x,-y,z
-y,-x,z
y,x,z
1/2+x,1/2+y,1/2+z
1/2-y,1/2+x,1/2+z
1/2-x,1/2-y,1/2+z
1/2+y,1/2-x,1/2+z
1/2+x,1/2-y,1/2-z
1/2-x,1/2+y,1/2-z
1/2+y,1/2+x,1/2-z
1/2-y,1/2-x,1/2-z
1/2-x,1/2-y,1/2-z
1/2+y,1/2-x,1/2-z
1/2+x,1/2+y,1/2-z
1/2-y,1/2+x,1/2-z
1/2-x,1/2+y,1/2+z
1/2+x,1/2-y,1/2+z
1/2-y,1/2-x,1/2+z
1/2+y,1/2+x,1/2+z
loop_
_atom_site_type_symbol
_atom_site_label
_atom_site_fract_x
_atom_site_fract_y
_atom_site_fract_z
Si Si1 0.696745 0.929875 0.381044
Si Si2 0.275853 0.618695 0.201719
Si Si3 0.429781 0.889681 0.664821
Si Si4 0.149007 0.649007 0.250000
Si Si5 0.200363 0.694479 0.443067
Si Si6 0.735240 0.070877 0.108615
Si Si7 0.176229 0.928147 0.802345
O O1 0.758298 0.924916 0.344827
O O2 0.629942 0.935062 0.350067
O O3 0.698437 0.869339 0.417414
O O4 0.703228 0.000000 0.407675
O O5 0.330598 0.669403 0.186941
O O6 0.210540 0.655596 0.215312
O O7 0.296255 0.576479 0.247914
O O8 0.500000 0.925106 0.669957
O O9 0.414441 0.853625 0.715927
O O10 0.437243 0.838863 0.621732
O O11 0.186930 0.695559 0.500000
O O12 0.244787 0.755213 0.427296
O O13 0.239391 0.628469 0.430700
O O14 0.771986 0.093184 0.157433
O O15 0.759818 0.000000 0.089193
O O16 0.114034 0.885967 0.809636
O O17 0.153498 0.000000 0.812026
#
# Coordination Sequence:
#
# PCOD8319266 Si02
#       7
#    32  32  32  16  32  32  32
#     4  10  21  35  51  71  98 134 172 211 254 307
#     4  10  19  30  47  72 100 130 166 207 253 302
#     4   9  18  30  44  65  95 130 165 204 240 277
#     4  10  17  26  44  69  94 128 168 209 243 286
#     4  10  21  37  56  78 102 127 163 215 270 320
#     4   9  17  32  52  74 101 130 164 202 243 300
#     4  10  19  30  47  70  99 134 167 202 242 289
#
# _framework density 17.564691
#
# number of rings (size 3 to 8) (size 9 to 14) (size 15 to 20)
#    0.000    2.308    1.538    1.615    0.000    3.538 
#    0.000    0.000    0.000    0.000    0.000    4.308 
#    0.000    2.769    0.000   21.077    0.000    0.000 
#
# Total GULP energy -1288398.158880 kJ/mol
# GULP energy per Si atom -12388.443835 kJ/mol
# Density = 1.752471 g / cm^3
# Si number density = 17.564691 Si / 1000 Ang^3
#
#
#
# Elastic Constant Matrix: (Units=GPa)
#
#
# Indices 1 2 3 4 5 6 
#
# 1 95.5536 48.9892 36.9567 0.0000 0.0000 0.0000
# 2 48.9892 95.5536 36.9567 0.0000 0.0000 0.0000
# 3 36.9567 36.9567 64.1308 0.0000 0.0000 0.0000
# 4 0.0000 0.0000 0.0000 18.0808 0.0000 0.0000
# 5 0.0000 0.0000 0.0000 0.0000 18.0808 0.0000
# 6 0.0000 0.0000 0.0000 0.0000 0.0000 10.9818
#
#
#
# Elastic Compliance Matrix: (Units=1/GPa)
#
#
# Indices 1 2 3 4 5 6 
#
# 1 0.015642 -0.005833 -0.005653 0.000000 0.000000 0.000000
# 2 -0.005833 0.015642 -0.005653 0.000000 0.000000 0.000000
# 3 -0.005653 -0.005653 0.022108 0.000000 0.000000 0.000000
# 4 0.000000 0.000000 0.000000 0.055307 0.000000 0.000000
# 5 0.000000 0.000000 0.000000 0.000000 0.055307 0.000000
# 6 0.000000 0.000000 0.000000 0.000000 0.000000 0.091060
#
#
# Mechanical properties :
#
#
# Convention : Reuss Voigt Hill
#
# Bulk Modulus (GPa) = 52.31376 55.67146 53.99261
# Shear Modulus (GPa) = 16.90813 18.25105 17.57959
#
# Velocity S-wave (km/s) = 3.10598 3.22697 3.16705
# Velocity P-wave (km/s) = 6.53536 6.75635 6.64678
#
# Compressibility (1/GPa) = 0.01911543
#
# Stress axis : x y z
#
# Youngs Moduli (GPa) = 63.92950 63.92950 45.23258
#
# Poissons Ratio (x) = 0.37292 0.25568
# Poissons Ratio (y) = 0.37292 0.25568
# Poissons Ratio (z) = 0.36137 0.36137
#
# Static dielectric constant tensor:
#      x y z
#    x 3.314150 0.000000 0.000000 
#    y 0.000000 3.314150 0.000000 
#    z 0.000000 0.000000 3.047920 
# 
# 
# High freq. dielectric constant tensor:
#      x y z
#    x 1.673050 0.000000 0.000000 
#    y 0.000000 1.673050 0.000000 
#    z 0.000000 0.000000 1.652490 
# 
# From -- ./inp_files/14552.got.cif
#   From: 2010.03.12/outbox.cif.g09.slc.cpg/sg139_8_cif.got.tgz:14552.got - 2010.04.08 09:46:31.
