data_PCOD8319940
_publ_section_title
;
Structure prediction by ZEFSAII (Michael W. Deem and Ramdas Pophale) SiO2 
 PCOD8319940
Probable space group: I 4/M M M
;
_chemical_formula_sum "Si O2"
_cell_formula_units_Z 176
_cell_length_a 18.218785
_cell_length_b 18.218785
_cell_length_c 25.894398
_cell_angle_alpha 90.000000
_cell_angle_beta 90.000000
_cell_angle_gamma 90.000000
_cell_volume 8594.975447
_symmetry_space_group_name_H-M "I 4/M M M"
_symmetry_group_IT_number 139
_symmetry_cell_setting 'tetragonal'
loop_
_space_group_symop_operation_xyz
x,y,z
-y,x,z
-x,-y,z
y,-x,z
x,-y,-z
-x,y,-z
y,x,-z
-y,-x,-z
-x,-y,-z
y,-x,-z
x,y,-z
-y,x,-z
-x,y,z
x,-y,z
-y,-x,z
y,x,z
1/2+x,1/2+y,1/2+z
1/2-y,1/2+x,1/2+z
1/2-x,1/2-y,1/2+z
1/2+y,1/2-x,1/2+z
1/2+x,1/2-y,1/2-z
1/2-x,1/2+y,1/2-z
1/2+y,1/2+x,1/2-z
1/2-y,1/2-x,1/2-z
1/2-x,1/2-y,1/2-z
1/2+y,1/2-x,1/2-z
1/2+x,1/2+y,1/2-z
1/2-y,1/2+x,1/2-z
1/2-x,1/2+y,1/2+z
1/2+x,1/2-y,1/2+z
1/2-y,1/2-x,1/2+z
1/2+y,1/2+x,1/2+z
loop_
_atom_site_type_symbol
_atom_site_label
_atom_site_fract_x
_atom_site_fract_y
_atom_site_fract_z
Si Si1 0.699854 0.415333 0.627751
Si Si2 0.085001 0.797570 0.440003
Si Si3 0.080303 0.414360 0.500000
Si Si4 0.700403 0.583140 0.748268
Si Si5 0.652751 0.844468 0.402522
Si Si6 0.916008 0.649694 0.702412
O O1 0.700657 0.500000 0.608645
O O2 0.619137 0.380864 0.617527
O O3 0.719130 0.410310 0.688034
O O4 0.757672 0.364392 0.596661
O O5 0.088412 0.774764 0.500000
O O6 0.122888 0.877113 0.431377
O O7 0.132660 0.738091 0.408227
O O8 0.000000 0.801115 0.421074
O O9 0.070750 0.500000 0.500000
O O10 0.121937 0.392771 0.551300
O O11 0.000000 0.376021 0.500000
O O12 0.680923 0.500000 0.763154
O O13 0.631306 0.631306 0.765057
O O14 0.770354 0.612406 0.779748
O O15 0.622091 0.873129 0.347871
O O16 0.906065 0.593936 0.750000
O O17 0.000000 0.652957 0.686530
#
# Coordination Sequence:
#
# PCOD8319940 Si02
#       6
#    32  32  16  32  32  32
#     4  10  21  38  62  91 124 161 202 251 306 367
#     4  10  21  38  61  90 125 165 210 258 307 360
#     4  11  24  40  61  90 124 164 207 255 310 366
#     4   9  19  36  57  86 121 157 200 247 298 358
#     4  12  22  40  64  90 122 161 203 254 309 365
#     4  11  23  38  58  85 119 159 199 244 299 359
#
# _framework density 20.477080000000001
#
# number of rings (size 3 to 8) (size 9 to 14) (size 15 to 20)
#    0.000    1.545    2.727    2.727    0.000    3.273 
#    0.000    2.727    0.000    0.000    0.000    2.545 
#    0.000    2.182    0.000    0.000    0.000    0.000 
#
# Total GULP energy -1091181.705478 kJ/mol
# GULP energy per Si atom -12399.792108 kJ/mol
# Density = 2.043047 g / cm^3
# Si number density = 20.477080 Si / 1000 Ang^3
#
#
#
# Elastic Constant Matrix: (Units=GPa)
#
#
# Indices 1 2 3 4 5 6 
#
# 1 104.3202 60.5408 30.0698 0.0000 0.0000 0.0000
# 2 60.5408 104.3227 30.0706 0.0000 0.0000 0.0000
# 3 30.0698 30.0706 87.9724 0.0000 0.0000 0.0000
# 4 0.0000 0.0000 0.0000 13.2990 0.0000 0.0000
# 5 0.0000 0.0000 0.0000 0.0000 13.2976 0.0000
# 6 0.0000 0.0000 0.0000 0.0000 0.0000 35.6911
#
#
#
# Elastic Compliance Matrix: (Units=1/GPa)
#
#
# Indices 1 2 3 4 5 6 
#
# 1 0.014886 -0.007956 -0.002369 0.000000 0.000000 0.000000
# 2 -0.007956 0.014885 -0.002369 0.000000 0.000000 0.000000
# 3 -0.002369 -0.002369 0.012987 0.000000 0.000000 0.000000
# 4 0.000000 0.000000 0.000000 0.075194 0.000000 0.000000
# 5 0.000000 0.000000 0.000000 0.000000 0.075202 0.000000
# 6 0.000000 0.000000 0.000000 0.000000 0.000000 0.028018
#
#
# Mechanical properties :
#
#
# Convention : Reuss Voigt Hill
#
# Bulk Modulus (GPa) = 57.56634 59.77528 58.67081
# Shear Modulus (GPa) = 19.81395 24.18647 22.00021
#
# Velocity S-wave (km/s) = 3.11403 3.44051 3.28133
# Velocity P-wave (km/s) = 6.41117 6.71100 6.56280
#
# Compressibility (1/GPa) = 0.01737126
#
# Stress axis : x y z
#
# Youngs Moduli (GPa) = 67.17905 67.18042 77.00299
#
# Poissons Ratio (x) = 0.53447 0.18239
# Poissons Ratio (y) = 0.53446 0.18240
# Poissons Ratio (z) = 0.15912 0.15913
#
# Static dielectric constant tensor:
#      x y z
#    x 3.738370 0.000000 0.000000 
#    y 0.000000 3.738370 0.000000 
#    z 0.000000 0.000000 3.556250 
# 
# 
# High freq. dielectric constant tensor:
#      x y z
#    x 1.800150 0.000000 0.000000 
#    y 0.000000 1.800150 0.000000 
#    z 0.000000 0.000000 1.789710 
# 
# From -- ./inp_files/13155.got.cif
#   From: 2010.03.12/outbox.cif.g09.slc.cpg/sg139_7_cif.got.tgz:13155.got - 2010.04.08 09:46:31.
