data_PCOD8319739
_publ_section_title
;
Structure prediction by ZEFSAII (Michael W. Deem and Ramdas Pophale) SiO2 
 PCOD8319739
Probable space group: I 4/M M M
;
_chemical_formula_sum "Si O2"
_cell_formula_units_Z 144
_cell_length_a 22.990923
_cell_length_b 22.990923
_cell_length_c 17.315750
_cell_angle_alpha 90.000000
_cell_angle_beta 90.000000
_cell_angle_gamma 90.000000
_cell_volume 9152.803124
_symmetry_space_group_name_H-M "I 4/M M M"
_symmetry_group_IT_number 139
_symmetry_cell_setting 'tetragonal'
loop_
_space_group_symop_operation_xyz
x,y,z
-y,x,z
-x,-y,z
y,-x,z
x,-y,-z
-x,y,-z
y,x,-z
-y,-x,-z
-x,-y,-z
y,-x,-z
x,y,-z
-y,x,-z
-x,y,z
x,-y,z
-y,-x,z
y,x,z
1/2+x,1/2+y,1/2+z
1/2-y,1/2+x,1/2+z
1/2-x,1/2-y,1/2+z
1/2+y,1/2-x,1/2+z
1/2+x,1/2-y,1/2-z
1/2-x,1/2+y,1/2-z
1/2+y,1/2+x,1/2-z
1/2-y,1/2-x,1/2-z
1/2-x,1/2-y,1/2-z
1/2+y,1/2-x,1/2-z
1/2+x,1/2+y,1/2-z
1/2-y,1/2+x,1/2-z
1/2-x,1/2+y,1/2+z
1/2+x,1/2-y,1/2+z
1/2-y,1/2-x,1/2+z
1/2+y,1/2+x,1/2+z
loop_
_atom_site_type_symbol
_atom_site_label
_atom_site_fract_x
_atom_site_fract_y
_atom_site_fract_z
Si Si1 0.250397 0.840652 0.786101
Si Si2 0.229561 0.866394 0.376288
Si Si3 0.067187 0.837391 0.500000
Si Si4 0.640866 0.835500 0.586206
Si Si5 0.932283 0.566295 0.161515
O O1 0.193269 0.806732 0.817240
O O2 0.295032 0.795032 0.750000
O O3 0.233332 0.883782 0.715032
O O4 0.281660 0.874304 0.856389
O O5 0.192533 0.807468 0.385955
O O6 0.199959 0.918577 0.423374
O O7 0.292047 0.853053 0.411597
O O8 0.102697 0.897304 0.500000
O O9 0.000000 0.853819 0.500000
O O10 0.624518 0.815298 0.500000
O O11 0.603465 0.891915 0.606368
O O12 0.913821 0.500000 0.143931
O O13 0.917949 0.582052 0.250000
O O14 0.000000 0.574880 0.144584
#
# Coordination Sequence:
#
# PCOD8319739 Si02
#       5
#    32  32  16  32  32
#     4   8  15  27  44  64  88 117 146 176 221 272
#     4   9  17  31  47  66  94 121 148 189 230 267
#     4  10  20  33  50  72  99 127 153 187 231 277
#     4  11  19  27  44  68  91 117 149 192 232 280
#     4   9  19  35  49  58  75 110 155 200 241 277
#
# _framework density 15.732886000000001
#
# number of rings (size 3 to 8) (size 9 to 14) (size 15 to 20)
#    0.000    2.667    1.111    4.667    0.000    3.222 
#    0.000    2.222    0.000    0.000    0.000    0.000 
#    0.000    0.000    0.000    0.000    0.000    0.222 
#
# Total GULP energy -892471.316443 kJ/mol
# GULP energy per Si atom -12395.434951 kJ/mol
# Density = 1.569708 g / cm^3
# Si number density = 15.732886 Si / 1000 Ang^3
#
#
#
# Elastic Constant Matrix: (Units=GPa)
#
#
# Indices 1 2 3 4 5 6 
#
# 1 60.5356 28.4875 49.5143 0.0000 0.0000 0.0000
# 2 28.4875 60.5358 49.5143 0.0000 0.0000 0.0000
# 3 49.5143 49.5143 135.2687 0.0000 0.0000 0.0000
# 4 0.0000 0.0000 0.0000 18.3871 0.0000 0.0000
# 5 0.0000 0.0000 0.0000 0.0000 18.3876 0.0000
# 6 0.0000 0.0000 0.0000 0.0000 0.0000 20.7229
#
#
#
# Elastic Compliance Matrix: (Units=1/GPa)
#
#
# Indices 1 2 3 4 5 6 
#
# 1 0.025076 -0.006127 -0.006936 0.000000 0.000000 0.000000
# 2 -0.006127 0.025076 -0.006936 0.000000 0.000000 0.000000
# 3 -0.006936 -0.006936 0.012470 0.000000 0.000000 0.000000
# 4 0.000000 0.000000 0.000000 0.054386 0.000000 0.000000
# 5 0.000000 0.000000 0.000000 0.000000 0.054385 0.000000
# 6 0.000000 0.000000 0.000000 0.000000 0.000000 0.048256
#
#
# Mechanical properties :
#
#
# Convention : Reuss Voigt Hill
#
# Bulk Modulus (GPa) = 44.20170 56.81914 50.51042
# Shear Modulus (GPa) = 18.71342 20.08779 19.40061
#
# Velocity S-wave (km/s) = 3.45258 3.57711 3.51540
# Velocity P-wave (km/s) = 6.63700 7.29755 6.97510
#
# Compressibility (1/GPa) = 0.02262357
#
# Stress axis : x y z
#
# Youngs Moduli (GPa) = 39.87902 39.87918 80.18950
#
# Poissons Ratio (x) = 0.24435 0.55620
# Poissons Ratio (y) = 0.24435 0.55619
# Poissons Ratio (z) = 0.27660 0.27660
#
# Static dielectric constant tensor:
#      x y z
#    x 2.804340 0.000000 0.000000 
#    y 0.000000 2.804330 0.000000 
#    z 0.000000 0.000000 3.383040 
# 
# 
# High freq. dielectric constant tensor:
#      x y z
#    x 1.577260 0.000000 0.000000 
#    y 0.000000 1.577260 0.000000 
#    z 0.000000 0.000000 1.611950 
# 
# From -- ./inp_files/8221.got.cif
#   From: 2010.03.12/outbox.cif.g09.slc.cpg/sg139_5_cif.got.tgz:8221.got - 2010.04.08 09:46:31.
