data_PCOD8319719
_publ_section_title
;
Structure prediction by ZEFSAII (Michael W. Deem and Ramdas Pophale) SiO2 
 PCOD8319719
Probable space group: I 4/M M M
;
_chemical_formula_sum "Si O2"
_cell_formula_units_Z 160
_cell_length_a 31.923042
_cell_length_b 31.923042
_cell_length_c 8.681557
_cell_angle_alpha 90.000000
_cell_angle_beta 90.000000
_cell_angle_gamma 90.000000
_cell_volume 8847.206408
_symmetry_space_group_name_H-M "I 4/M M M"
_symmetry_group_IT_number 139
_symmetry_cell_setting 'tetragonal'
loop_
_space_group_symop_operation_xyz
x,y,z
-y,x,z
-x,-y,z
y,-x,z
x,-y,-z
-x,y,-z
y,x,-z
-y,-x,-z
-x,-y,-z
y,-x,-z
x,y,-z
-y,x,-z
-x,y,z
x,-y,z
-y,-x,z
y,x,z
1/2+x,1/2+y,1/2+z
1/2-y,1/2+x,1/2+z
1/2-x,1/2-y,1/2+z
1/2+y,1/2-x,1/2+z
1/2+x,1/2-y,1/2-z
1/2-x,1/2+y,1/2-z
1/2+y,1/2+x,1/2-z
1/2-y,1/2-x,1/2-z
1/2-x,1/2-y,1/2-z
1/2+y,1/2-x,1/2-z
1/2+x,1/2+y,1/2-z
1/2-y,1/2+x,1/2-z
1/2-x,1/2+y,1/2+z
1/2+x,1/2-y,1/2+z
1/2-y,1/2-x,1/2+z
1/2+y,1/2+x,1/2+z
loop_
_atom_site_type_symbol
_atom_site_label
_atom_site_fract_x
_atom_site_fract_y
_atom_site_fract_z
Si Si1 0.266160 0.951341 0.179202
Si Si2 0.177078 0.822923 0.822230
Si Si3 0.383609 0.383609 0.823179
Si Si4 0.169171 0.608738 0.827441
Si Si5 0.547618 0.677879 0.183119
Si Si6 0.820636 0.261802 0.326799
O O1 0.308663 0.929531 0.239284
O O2 0.222619 0.934963 0.255335
O O3 0.271629 0.000000 0.218209
O O4 0.262213 0.942214 0.000000
O O5 0.151105 0.848896 0.699493
O O6 0.224658 0.835173 0.784447
O O7 0.166664 0.833336 0.000000
O O8 0.362630 0.426135 0.751512
O O9 0.392863 0.392863 0.000000
O O10 0.126120 0.626120 0.750000
O O11 0.202511 0.645314 0.829247
O O12 0.157814 0.594167 0.000000
O O13 0.500000 0.671047 0.238476
O O14 0.551653 0.679824 0.000000
O O15 0.811480 0.245846 0.500000
O O16 0.778285 0.278285 0.250000
#
# Coordination Sequence:
#
# PCOD8319719 Si02
#       6
#    32  16  16  32  32  32
#     4  10  20  33  50  73 101 131 164 204 247 290
#     4  12  23  31  42  62  88 117 151 191 232 275
#     4  10  20  33  49  69  92 118 151 193 240 291
#     4  10  20  33  50  70  94 126 162 200 241 286
#     4   9  18  33  52  72  95 125 160 198 243 296
#     4  10  20  33  46  61  85 119 157 194 232 273
#
# _framework density 18.084804999999999
#
# number of rings (size 3 to 8) (size 9 to 14) (size 15 to 20)
#    0.000    2.000    0.000    4.200    0.000    9.200 
#    0.000    0.000    0.000    0.300    0.000    2.100 
#    0.000    0.400    0.000   10.100    0.000    8.000 
#
# Total GULP energy -991244.750053 kJ/mol
# GULP energy per Si atom -12390.559376 kJ/mol
# Density = 1.804364 g / cm^3
# Si number density = 18.084805 Si / 1000 Ang^3
#
#
#
# Elastic Constant Matrix: (Units=GPa)
#
#
# Indices 1 2 3 4 5 6 
#
# 1 64.6567 57.5902 22.9969 0.0000 0.0000 0.0000
# 2 57.5902 64.6569 22.9980 0.0000 0.0000 0.0000
# 3 22.9969 22.9980 68.0353 0.0000 0.0000 0.0000
# 4 0.0000 0.0000 0.0000 21.9974 0.0000 0.0000
# 5 0.0000 0.0000 0.0000 0.0000 21.9973 0.0000
# 6 0.0000 0.0000 0.0000 0.0000 0.0000 34.5650
#
#
#
# Elastic Compliance Matrix: (Units=1/GPa)
#
#
# Indices 1 2 3 4 5 6 
#
# 1 0.075441 -0.066069 -0.003167 0.000000 0.000000 0.000000
# 2 -0.066069 0.075441 -0.003169 0.000000 0.000000 0.000000
# 3 -0.003167 -0.003169 0.016840 0.000000 0.000000 0.000000
# 4 0.000000 0.000000 0.000000 0.045460 0.000000 0.000000
# 5 0.000000 0.000000 0.000000 0.000000 0.045460 0.000000
# 6 0.000000 0.000000 0.000000 0.000000 0.000000 0.028931
#
#
# Mechanical properties :
#
#
# Convention : Reuss Voigt Hill
#
# Bulk Modulus (GPa) = 43.64482 44.94657 44.29570
# Shear Modulus (GPa) = 11.36312 21.96286 16.66299
#
# Velocity S-wave (km/s) = 2.50936 3.48866 3.03872
# Velocity P-wave (km/s) = 5.70803 6.41364 6.07110
#
# Compressibility (1/GPa) = 0.02291223
#
# Stress axis : x y z
#
# Youngs Moduli (GPa) = 13.25547 13.25535 59.38260
#
# Poissons Ratio (x) = 0.87577 0.18805
# Poissons Ratio (y) = 0.87577 0.18819
# Poissons Ratio (z) = 0.04198 0.04201
#
# Static dielectric constant tensor:
#      x y z
#    x 3.386800 0.000000 0.000000 
#    y 0.000000 3.386800 0.000000 
#    z 0.000000 0.000000 3.445260 
# 
# 
# High freq. dielectric constant tensor:
#      x y z
#    x 1.682180 0.000000 0.000000 
#    y 0.000000 1.682180 0.000000 
#    z 0.000000 0.000000 1.703130 
# 
# From -- ./inp_files/2218.got.cif
#   From: 2010.03.12/outbox.cif.g09.slc.cpg/sg139_2_cif.got.tgz:2218.got - 2010.04.08 09:46:31.
