data_PCOD8319196
_publ_section_title
;
Structure prediction by ZEFSAII (Michael W. Deem and Ramdas Pophale) SiO2 
 PCOD8319196
Probable space group: P 42/N C M
;
_chemical_formula_sum "Si O2"
_cell_formula_units_Z 96
_cell_length_a 22.098653
_cell_length_b 22.098653
_cell_length_c 8.825086
_cell_angle_alpha 90.000000
_cell_angle_beta 90.000000
_cell_angle_gamma 90.000000
_cell_volume 4309.734847
_symmetry_space_group_name_H-M "P 42/N C M"
_symmetry_group_IT_number 138
_space_group.IT_coordinate_system_code '2'
_symmetry_cell_setting 'tetragonal'
loop_
_space_group_symop_operation_xyz
x,y,z
1/2-y,x,1/2+z
1/2-x,1/2-y,z
y,1/2-x,1/2+z
1/2+x,-y,1/2-z
-x,1/2+y,1/2-z
1/2+y,1/2+x,-z
-y,-x,-z
-x,-y,-z
1/2+y,-x,1/2-z
1/2+x,1/2+y,-z
-y,1/2+x,1/2-z
1/2-x,y,1/2+z
x,1/2-y,1/2+z
1/2-y,1/2-x,z
y,x,z
loop_
_atom_site_type_symbol
_atom_site_label
_atom_site_fract_x
_atom_site_fract_y
_atom_site_fract_z
Si Si1 0.609893 0.479921 0.943114
Si Si2 0.961627 0.703143 0.930414
Si Si3 0.991488 0.410351 0.903637
Si Si4 0.320109 0.416000 0.908666
Si Si5 0.339013 0.734018 0.693623
Si Si6 0.417834 0.725477 0.943483
O O1 0.614292 0.474746 0.762078
O O2 0.662425 0.438432 0.017588
O O3 0.544436 0.455564 0.000000
O O4 0.627073 0.546309 0.004258
O O5 0.940132 0.690925 0.760453
O O6 0.030197 0.725121 0.942261
O O7 0.964692 0.638967 0.016166
O O8 0.918187 0.754914 0.005165
O O9 0.029610 0.470391 0.875361
O O10 0.931171 0.431171 0.000000
O O11 0.347183 0.347183 0.903448
O O12 0.289643 0.682086 0.699516
O O13 0.401604 0.712414 0.768723
O O14 0.355853 0.753056 0.524365
#
# Coordination Sequence:
#
# PCOD8319196 Si02
#       6
#    16  16  16  16  16  16
#     4  11  22  38  61  91 129 170 216 271 334 405
#     4  11  23  42  66  94 128 167 217 274 338 412
#     4  11  24  41  65  98 133 169 211 265 332 405
#     4  11  24  43  69  97 130 176 222 276 347 414
#     4  11  22  35  52  76 113 162 213 264 319 383
#     4  11  22  37  56  82 114 156 208 262 322 385
#
# _framework density 22.275153
#
# number of rings (size 3 to 8) (size 9 to 14) (size 15 to 20)
#    0.000    1.000    0.000    9.000    0.000    6.667 
#    0.000    0.833    0.000    4.000    0.000    0.000 
#    0.000    0.000    0.000    0.000    0.000    0.000 
#
# Total GULP energy -1189320.026355 kJ/mol
# GULP energy per Si atom -12388.750275 kJ/mol
# Density = 2.222445 g / cm^3
# Si number density = 22.275153 Si / 1000 Ang^3
#
#
#
# Elastic Constant Matrix: (Units=GPa)
#
#
# Indices 1 2 3 4 5 6 
#
# 1 84.4831 39.7926 38.5299 0.0000 0.0000 0.0000
# 2 39.7926 84.4822 38.5298 0.0000 0.0000 0.0000
# 3 38.5299 38.5298 144.6698 0.0000 0.0000 0.0000
# 4 0.0000 0.0000 0.0000 20.9394 0.0000 0.0000
# 5 0.0000 0.0000 0.0000 0.0000 20.9398 0.0000
# 6 0.0000 0.0000 0.0000 0.0000 0.0000 48.2686
#
#
#
# Elastic Compliance Matrix: (Units=1/GPa)
#
#
# Indices 1 2 3 4 5 6 
#
# 1 0.016007 -0.006369 -0.002567 0.000000 0.000000 0.000000
# 2 -0.006369 0.016007 -0.002567 0.000000 0.000000 0.000000
# 3 -0.002567 -0.002567 0.008280 0.000000 0.000000 0.000000
# 4 0.000000 0.000000 0.000000 0.047757 0.000000 0.000000
# 5 0.000000 0.000000 0.000000 0.000000 0.047756 0.000000
# 6 0.000000 0.000000 0.000000 0.000000 0.000000 0.020717
#
#
# Mechanical properties :
#
#
# Convention : Reuss Voigt Hill
#
# Bulk Modulus (GPa) = 57.84217 60.81553 59.32885
# Shear Modulus (GPa) = 26.98425 31.14841 29.06633
#
# Velocity S-wave (km/s) = 3.48430 3.74351 3.61623
# Velocity P-wave (km/s) = 6.49697 6.78575 6.64293
#
# Compressibility (1/GPa) = 0.01728842
#
# Stress axis : x y z
#
# Youngs Moduli (GPa) = 62.47158 62.47091 120.77843
#
# Poissons Ratio (x) = 0.39788 0.31003
# Poissons Ratio (y) = 0.39788 0.31004
# Poissons Ratio (z) = 0.16036 0.16036
#
# Static dielectric constant tensor:
#      x y z
#    x 3.957220 0.000000 0.000000 
#    y 0.000000 3.957230 0.000000 
#    z 0.000000 0.000000 3.905360 
# 
# 
# High freq. dielectric constant tensor:
#      x y z
#    x 1.870580 0.000000 0.000000 
#    y 0.000000 1.870580 0.000000 
#    z 0.000000 0.000000 1.890860 
# 
# From -- ./inp_files/1706.got.cif
#   From: 2010.03.12/outbox.cif.g09.slc.cpg/sg138_1_cif.got.tgz:1706.got - 2010.04.08 09:41:05.
