data_PCOD8319958
_publ_section_title
;
Structure prediction by ZEFSAII (Michael W. Deem and Ramdas Pophale) SiO2 
 PCOD8319958
Probable space group: I 4/M M M
;
_chemical_formula_sum "Si O2"
_cell_formula_units_Z 144
_cell_length_a 21.536343
_cell_length_b 21.536343
_cell_length_c 17.472616
_cell_angle_alpha 90.000000
_cell_angle_beta 90.000000
_cell_angle_gamma 90.000000
_cell_volume 8104.045137
_symmetry_space_group_name_H-M "I 4/M M M"
_symmetry_group_IT_number 139
_symmetry_cell_setting 'tetragonal'
loop_
_space_group_symop_operation_xyz
x,y,z
-y,x,z
-x,-y,z
y,-x,z
x,-y,-z
-x,y,-z
y,x,-z
-y,-x,-z
-x,-y,-z
y,-x,-z
x,y,-z
-y,x,-z
-x,y,z
x,-y,z
-y,-x,z
y,x,z
1/2+x,1/2+y,1/2+z
1/2-y,1/2+x,1/2+z
1/2-x,1/2-y,1/2+z
1/2+y,1/2-x,1/2+z
1/2+x,1/2-y,1/2-z
1/2-x,1/2+y,1/2-z
1/2+y,1/2+x,1/2-z
1/2-y,1/2-x,1/2-z
1/2-x,1/2-y,1/2-z
1/2+y,1/2-x,1/2-z
1/2+x,1/2+y,1/2-z
1/2-y,1/2+x,1/2-z
1/2-x,1/2+y,1/2+z
1/2+x,1/2-y,1/2+z
1/2-y,1/2-x,1/2+z
1/2+y,1/2+x,1/2+z
loop_
_atom_site_type_symbol
_atom_site_label
_atom_site_fract_x
_atom_site_fract_y
_atom_site_fract_z
Si Si1 0.125920 0.645877 0.335679
Si Si2 0.500000 0.143150 0.085865
Si Si3 0.829904 0.070874 0.000000
Si Si4 0.287482 0.386893 0.186725
Si Si5 0.000000 0.791167 0.411792
Si Si6 0.630779 0.732299 0.358357
O O1 0.120936 0.620936 0.250000
O O2 0.064569 0.617639 0.377122
O O3 0.125265 0.719176 0.342570
O O4 0.193256 0.629690 0.370656
O O5 0.500000 0.217078 0.090900
O O6 0.500000 0.118426 0.000000
O O7 0.791477 0.087036 0.924815
O O8 0.895136 0.104865 0.000000
O O9 0.846942 0.000000 0.000000
O O10 0.325150 0.325150 0.169100
O O11 0.317403 0.441660 0.136004
O O12 0.286248 0.401169 0.277629
O O13 0.000000 0.814991 0.500000
O O14 0.699746 0.699746 0.363240
#
# Coordination Sequence:
#
# PCOD8319958 Si02
#       6
#    32  16  16  32  16  32
#     4   9  17  31  51  76 103 137 172 214 260 313
#     4   9  18  30  48  73 104 134 170 206 254 311
#     4  10  22  37  54  81 111 139 175 217 266 326
#     4   9  17  30  50  72  99 133 169 213 263 315
#     4   9  18  30  44  70 102 131 168 208 253 315
#     4   9  18  32  52  79 106 133 170 219 271 317
#
# _framework density 17.768903000000002
#
# number of rings (size 3 to 8) (size 9 to 14) (size 15 to 20)
#    0.000    2.889    0.000    0.667    3.111    3.222 
#    2.000    0.000    0.000    0.667    0.000    2.333 
#    0.000    0.000    0.000    0.000    0.000    0.000 
#
# Total GULP energy -892055.790666 kJ/mol
# GULP energy per Si atom -12389.663759 kJ/mol
# Density = 1.772846 g / cm^3
# Si number density = 17.768903 Si / 1000 Ang^3
#
#
#
# Elastic Constant Matrix: (Units=GPa)
#
#
# Indices 1 2 3 4 5 6 
#
# 1 102.6401 38.2292 59.6107 0.0000 0.0000 0.0000
# 2 38.2292 102.6392 59.6105 0.0000 0.0000 0.0000
# 3 59.6107 59.6105 118.9351 0.0000 0.0000 0.0000
# 4 0.0000 0.0000 0.0000 22.0217 0.0000 0.0000
# 5 0.0000 0.0000 0.0000 0.0000 22.0150 0.0000
# 6 0.0000 0.0000 0.0000 0.0000 0.0000 7.9080
#
#
#
# Elastic Compliance Matrix: (Units=1/GPa)
#
#
# Indices 1 2 3 4 5 6 
#
# 1 0.013927 -0.001599 -0.006179 0.000000 0.000000 0.000000
# 2 -0.001599 0.013927 -0.006179 0.000000 0.000000 0.000000
# 3 -0.006179 -0.006179 0.014602 0.000000 0.000000 0.000000
# 4 0.000000 0.000000 0.000000 0.045410 0.000000 0.000000
# 5 0.000000 0.000000 0.000000 0.000000 0.045424 0.000000
# 6 0.000000 0.000000 0.000000 0.000000 0.000000 0.126454
#
#
# Mechanical properties :
#
#
# Convention : Reuss Voigt Hill
#
# Bulk Modulus (GPa) = 68.76434 71.01281 69.88857
# Shear Modulus (GPa) = 17.09382 21.50653 19.30017
#
# Velocity S-wave (km/s) = 3.10499 3.48278 3.29930
# Velocity P-wave (km/s) = 7.18595 7.49829 7.34378
#
# Compressibility (1/GPa) = 0.01454242
#
# Stress axis : x y z
#
# Youngs Moduli (GPa) = 71.80426 71.80358 68.48498
#
# Poissons Ratio (x) = 0.11479 0.42316
# Poissons Ratio (y) = 0.11479 0.42317
# Poissons Ratio (z) = 0.44367 0.44367
#
# Static dielectric constant tensor:
#      x y z
#    x 3.277750 0.000000 0.000000 
#    y 0.000000 3.277750 0.000000 
#    z 0.000000 0.000000 3.494180 
# 
# 
# High freq. dielectric constant tensor:
#      x y z
#    x 1.667290 0.000000 0.000000 
#    y 0.000000 1.667290 0.000000 
#    z 0.000000 0.000000 1.696010 
# 
# From -- ./inp_files/8252.got.cif
#   From: 2010.03.12/outbox.cif.g09.slc.cpg/sg139_5_cif.got.tgz:8252.got - 2010.04.08 09:46:31.
