data_PCOD8319618
_publ_section_title
;
Structure prediction by ZEFSAII (Michael W. Deem and Ramdas Pophale) SiO2 
 PCOD8319618
Probable space group: I 4/M M M
;
_chemical_formula_sum "Si O2"
_cell_formula_units_Z 144
_cell_length_a 26.680548
_cell_length_b 26.680548
_cell_length_c 10.843820
_cell_angle_alpha 90.000000
_cell_angle_beta 90.000000
_cell_angle_gamma 90.000000
_cell_volume 7719.191068
_symmetry_space_group_name_H-M "I 4/M M M"
_symmetry_group_IT_number 139
_symmetry_cell_setting 'tetragonal'
loop_
_space_group_symop_operation_xyz
x,y,z
-y,x,z
-x,-y,z
y,-x,z
x,-y,-z
-x,y,-z
y,x,-z
-y,-x,-z
-x,-y,-z
y,-x,-z
x,y,-z
-y,x,-z
-x,y,z
x,-y,z
-y,-x,z
y,x,z
1/2+x,1/2+y,1/2+z
1/2-y,1/2+x,1/2+z
1/2-x,1/2-y,1/2+z
1/2+y,1/2-x,1/2+z
1/2+x,1/2-y,1/2-z
1/2-x,1/2+y,1/2-z
1/2+y,1/2+x,1/2-z
1/2-y,1/2-x,1/2-z
1/2-x,1/2-y,1/2-z
1/2+y,1/2-x,1/2-z
1/2+x,1/2+y,1/2-z
1/2-y,1/2+x,1/2-z
1/2-x,1/2+y,1/2+z
1/2+x,1/2-y,1/2+z
1/2-y,1/2-x,1/2+z
1/2+y,1/2+x,1/2+z
loop_
_atom_site_type_symbol
_atom_site_label
_atom_site_fract_x
_atom_site_fract_y
_atom_site_fract_z
Si Si1 0.305017 0.615512 0.793863
Si Si2 0.229543 0.445207 0.643481
Si Si3 0.058383 0.140133 0.500000
Si Si4 0.307445 0.773540 0.130246
Si Si5 0.940385 0.382964 0.141922
O O1 0.349186 0.650815 0.739154
O O2 0.273770 0.591463 0.683937
O O3 0.328085 0.572505 0.879452
O O4 0.267042 0.648643 0.873571
O O5 0.235081 0.451862 0.500000
O O6 0.236234 0.500000 0.706407
O O7 0.174098 0.424177 0.674201
O O8 0.087596 0.087596 0.500000
O O9 0.000000 0.127973 0.500000
O O10 0.253570 0.746431 0.131721
O O11 0.310098 0.810098 0.250000
O O12 0.311708 0.804153 0.000000
O O13 0.917189 0.417189 0.250000
O O14 0.000000 0.388524 0.148579
O O15 0.923223 0.397053 0.000000
#
# Coordination Sequence:
#
# PCOD8319618 Si02
#       5
#    32  32  16  32  32
#     4  10  19  33  53  77 105 138 181 226 270 323
#     4   9  19  36  54  73 103 141 177 217 268 326
#     4  10  20  35  56  80 108 140 179 233 291 345
#     4   9  17  30  46  66  98 137 173 210 252 301
#     4   9  19  37  58  80 110 146 184 230 283 336
#
# _framework density 18.654805
#
# number of rings (size 3 to 8) (size 9 to 14) (size 15 to 20)
#    0.000    2.667    1.111    2.000    0.000    3.000 
#    2.000    5.556    0.000    0.000    0.000    0.000 
#    0.000    0.000    0.000   20.667    0.000    0.222 
#
# Total GULP energy -891955.257559 kJ/mol
# GULP energy per Si atom -12388.267466 kJ/mol
# Density = 1.861235 g / cm^3
# Si number density = 18.654805 Si / 1000 Ang^3
#
#
#
# Elastic Constant Matrix: (Units=GPa)
#
#
# Indices 1 2 3 4 5 6 
#
# 1 81.6953 40.1275 49.8042 0.0000 0.0000 0.0000
# 2 40.1275 81.6953 49.8042 0.0000 0.0000 0.0000
# 3 49.8042 49.8042 109.0806 0.0000 0.0000 0.0000
# 4 0.0000 0.0000 0.0000 24.1362 0.0000 0.0000
# 5 0.0000 0.0000 0.0000 0.0000 24.1362 0.0000
# 6 0.0000 0.0000 0.0000 0.0000 0.0000 23.8363
#
#
#
# Elastic Compliance Matrix: (Units=1/GPa)
#
#
# Indices 1 2 3 4 5 6 
#
# 1 0.018578 -0.005479 -0.005981 0.000000 0.000000 0.000000
# 2 -0.005479 0.018578 -0.005981 0.000000 0.000000 0.000000
# 3 -0.005981 -0.005981 0.014629 0.000000 0.000000 0.000000
# 4 0.000000 0.000000 0.000000 0.041432 0.000000 0.000000
# 5 0.000000 0.000000 0.000000 0.000000 0.041432 0.000000
# 6 0.000000 0.000000 0.000000 0.000000 0.000000 0.041953
#
#
# Mechanical properties :
#
#
# Convention : Reuss Voigt Hill
#
# Bulk Modulus (GPa) = 59.15860 61.32702 60.24281
# Shear Modulus (GPa) = 23.02917 23.27076 23.14997
#
# Velocity S-wave (km/s) = 3.51734 3.53574 3.52656
# Velocity P-wave (km/s) = 6.94814 7.04377 6.99612
#
# Compressibility (1/GPa) = 0.01690371
#
# Stress axis : x y z
#
# Youngs Moduli (GPa) = 53.82746 53.82746 68.35824
#
# Poissons Ratio (x) = 0.29493 0.40882
# Poissons Ratio (y) = 0.29493 0.40882
# Poissons Ratio (z) = 0.32192 0.32192
#
# Static dielectric constant tensor:
#      x y z
#    x 3.469360 0.000000 0.000000 
#    y 0.000000 3.469360 0.000000 
#    z 0.000000 0.000000 3.502760 
# 
# 
# High freq. dielectric constant tensor:
#      x y z
#    x 1.712030 0.000000 0.000000 
#    y 0.000000 1.712030 0.000000 
#    z 0.000000 0.000000 1.723290 
# 
# From -- ./inp_files/1976.got.cif
#   From: 2010.03.12/outbox.cif.g09.slc.cpg/sg139_1_cif.got.tgz:1976.got - 2010.04.08 09:46:31.
