data_PCOD8319871
_publ_section_title
;
Structure prediction by ZEFSAII (Michael W. Deem and Ramdas Pophale) SiO2 
 PCOD8319871
Probable space group: I 4/M M M
;
_chemical_formula_sum "Si O2"
_cell_formula_units_Z 112
_cell_length_a 17.924647
_cell_length_b 17.924647
_cell_length_c 19.111766
_cell_angle_alpha 90.000000
_cell_angle_beta 90.000000
_cell_angle_gamma 90.000000
_cell_volume 6140.476062
_symmetry_space_group_name_H-M "I 4/M M M"
_symmetry_group_IT_number 139
_symmetry_cell_setting 'tetragonal'
loop_
_space_group_symop_operation_xyz
x,y,z
-y,x,z
-x,-y,z
y,-x,z
x,-y,-z
-x,y,-z
y,x,-z
-y,-x,-z
-x,-y,-z
y,-x,-z
x,y,-z
-y,x,-z
-x,y,z
x,-y,z
-y,-x,z
y,x,z
1/2+x,1/2+y,1/2+z
1/2-y,1/2+x,1/2+z
1/2-x,1/2-y,1/2+z
1/2+y,1/2-x,1/2+z
1/2+x,1/2-y,1/2-z
1/2-x,1/2+y,1/2-z
1/2+y,1/2+x,1/2-z
1/2-y,1/2-x,1/2-z
1/2-x,1/2-y,1/2-z
1/2+y,1/2-x,1/2-z
1/2+x,1/2+y,1/2-z
1/2-y,1/2+x,1/2-z
1/2-x,1/2+y,1/2+z
1/2+x,1/2-y,1/2+z
1/2-y,1/2-x,1/2+z
1/2+y,1/2+x,1/2+z
loop_
_atom_site_type_symbol
_atom_site_label
_atom_site_fract_x
_atom_site_fract_y
_atom_site_fract_z
Si Si1 0.376458 0.500000 0.917905
Si Si2 0.415126 0.160747 0.423945
Si Si3 0.000000 0.254843 0.303514
Si Si4 0.584214 0.000000 0.368133
Si Si5 0.139432 0.745678 0.207897
O O1 0.426192 0.426192 0.901412
O O2 0.299579 0.500000 0.871994
O O3 0.353626 0.500000 0.000000
O O4 0.381292 0.181371 0.500000
O O5 0.500000 0.186734 0.419851
O O6 0.372320 0.203652 0.364381
O O7 0.408323 0.072051 0.416210
O O8 0.000000 0.344830 0.315846
O O9 0.069251 0.236101 0.255209
O O10 0.500000 0.000000 0.331700
O O11 0.174944 0.825057 0.189056
O O12 0.195615 0.695615 0.250000
#
# Coordination Sequence:
#
# PCOD8319871 Si02
#       5
#    16  32  16  16  32
#     4   9  20  40  64  90 118 149 190 238 290 349
#     4  10  20  37  58  82 111 147 189 231 278 333
#     4  12  21  38  61  84 115 154 191 233 283 338
#     4  10  21  36  58  83 115 146 188 228 270 336
#     4  11  23  38  55  84 116 147 190 236 279 336
#
# _framework density 18.239629000000001
#
# number of rings (size 3 to 8) (size 9 to 14) (size 15 to 20)
#    0.000    1.571    4.286    1.714    0.000    3.429 
#    2.571    0.000    0.000    0.000    0.000    0.000 
#    0.000    2.286    0.000    0.000    0.000    0.000 
#
# Total GULP energy -693906.938485 kJ/mol
# GULP energy per Si atom -12391.195330 kJ/mol
# Density = 1.819811 g / cm^3
# Si number density = 18.239629 Si / 1000 Ang^3
#
#
#
# Elastic Constant Matrix: (Units=GPa)
#
#
# Indices 1 2 3 4 5 6 
#
# 1 87.1117 69.3662 61.4901 0.0000 0.0000 0.0000
# 2 69.3662 87.1117 61.4902 0.0000 0.0000 0.0000
# 3 61.4901 61.4902 143.9133 0.0000 0.0000 0.0000
# 4 0.0000 0.0000 0.0000 -53.0584 0.0000 0.0000
# 5 0.0000 0.0000 0.0000 0.0000 -53.0584 0.0000
# 6 0.0000 0.0000 0.0000 0.0000 0.0000 31.7005
#
#
#
# Elastic Compliance Matrix: (Units=1/GPa)
#
#
# Indices 1 2 3 4 5 6 
#
# 1 0.032987 -0.023365 -0.004111 0.000000 0.000000 0.000000
# 2 -0.023365 0.032987 -0.004111 0.000000 0.000000 0.000000
# 3 -0.004111 -0.004111 0.010462 0.000000 0.000000 0.000000
# 4 0.000000 0.000000 0.000000 -0.018847 0.000000 0.000000
# 5 0.000000 0.000000 0.000000 0.000000 -0.018847 0.000000
# 6 0.000000 0.000000 0.000000 0.000000 0.000000 0.031545
#
#
# Mechanical properties :
#
#
# Convention : Reuss Voigt Hill
#
# Bulk Modulus (GPa) = 75.41030 78.09219 76.75125
# Shear Modulus (GPa) = 36.26300 -6.49725 14.88287
#
# Velocity S-wave (km/s) = 4.46370 -1.88942 2.85961
# Velocity P-wave (km/s) = 8.24622 6.17638 7.28518
#
# Compressibility (1/GPa) = 0.01326079
#
# Stress axis : x y z
#
# Youngs Moduli (GPa) = 30.31504 30.31504 95.58652
#
# Poissons Ratio (x) = 0.70832 0.39296
# Poissons Ratio (y) = 0.70832 0.39296
# Poissons Ratio (z) = 0.12463 0.12463
#
# Static dielectric constant tensor:
#      x y z
#    x 2.689340 0.000000 0.000000 
#    y 0.000000 2.689340 0.000000 
#    z 0.000000 0.000000 3.592150 
# 
# 
# High freq. dielectric constant tensor:
#      x y z
#    x 1.704290 0.000000 0.000000 
#    y 0.000000 1.704290 0.000000 
#    z 0.000000 0.000000 1.709280 
# 
# From -- ./inp_files/7611.got.cif
#   From: 2010.03.12/outbox.cif.g09.slc.cpg/sg139_4_cif.got.tgz:7611.got - 2010.04.08 09:46:31.
