data_PCOD8319782
_publ_section_title
;
Structure prediction by ZEFSAII (Michael W. Deem and Ramdas Pophale) SiO2 
 PCOD8319782
Probable space group: I 4/M M M
;
_chemical_formula_sum "Si O2"
_cell_formula_units_Z 144
_cell_length_a 28.880244
_cell_length_b 28.880244
_cell_length_c 9.407768
_cell_angle_alpha 90.000000
_cell_angle_beta 90.000000
_cell_angle_gamma 90.000000
_cell_volume 7846.722883
_symmetry_space_group_name_H-M "I 4/M M M"
_symmetry_group_IT_number 139
_symmetry_cell_setting 'tetragonal'
loop_
_space_group_symop_operation_xyz
x,y,z
-y,x,z
-x,-y,z
y,-x,z
x,-y,-z
-x,y,-z
y,x,-z
-y,-x,-z
-x,-y,-z
y,-x,-z
x,y,-z
-y,x,-z
-x,y,z
x,-y,z
-y,-x,z
y,x,z
1/2+x,1/2+y,1/2+z
1/2-y,1/2+x,1/2+z
1/2-x,1/2-y,1/2+z
1/2+y,1/2-x,1/2+z
1/2+x,1/2-y,1/2-z
1/2-x,1/2+y,1/2-z
1/2+y,1/2+x,1/2-z
1/2-y,1/2-x,1/2-z
1/2-x,1/2-y,1/2-z
1/2+y,1/2-x,1/2-z
1/2+x,1/2+y,1/2-z
1/2-y,1/2+x,1/2-z
1/2-x,1/2+y,1/2+z
1/2+x,1/2-y,1/2+z
1/2-y,1/2-x,1/2+z
1/2+y,1/2+x,1/2+z
loop_
_atom_site_type_symbol
_atom_site_label
_atom_site_fract_x
_atom_site_fract_y
_atom_site_fract_z
Si Si1 0.445603 0.801333 0.837526
Si Si2 0.374484 0.447538 0.168451
Si Si3 0.215022 0.784979 0.330534
Si Si4 0.109743 0.787278 0.667759
Si Si5 0.054479 0.612973 0.158016
O O1 0.500000 0.794538 0.820322
O O2 0.421774 0.755040 0.782534
O O3 0.426147 0.842019 0.738426
O O4 0.432325 0.812724 0.000000
O O5 0.372745 0.500000 0.231900
O O6 0.423448 0.423448 0.208820
O O7 0.333432 0.414715 0.231229
O O8 0.368779 0.450685 0.000000
O O9 0.221777 0.778224 0.500000
O O10 0.250000 0.750000 0.250000
O O11 0.223423 0.838049 0.280635
O O12 0.111283 0.793350 0.500000
O O13 0.068421 0.568421 0.250000
O O14 0.000000 0.614258 0.149721
O O15 0.075910 0.610552 0.000000
#
# Coordination Sequence:
#
# PCOD8319782 Si02
#       5
#    32  32  16  32  32
#     4   9  17  30  50  74  97 125 166 211 251 296
#     4   9  15  23  38  63  97 137 177 213 252 301
#     4  10  20  34  50  68  95 129 167 209 256 306
#     4   9  16  29  47  67  93 129 170 211 254 303
#     4  10  21  36  53  74 101 131 163 202 250 303
#
# _framework density 18.351610000000001
#
# number of rings (size 3 to 8) (size 9 to 14) (size 15 to 20)
#    0.000    2.667    1.111    1.333    0.000    5.333 
#    0.000    5.556    0.000    0.000    0.000    0.000 
#    0.000    0.000    0.000    0.000    0.000    2.000 
#
# Total GULP energy -892311.127234 kJ/mol
# GULP energy per Si atom -12393.210100 kJ/mol
# Density = 1.830984 g / cm^3
# Si number density = 18.351610 Si / 1000 Ang^3
#
#
#
# Elastic Constant Matrix: (Units=GPa)
#
#
# Indices 1 2 3 4 5 6 
#
# 1 71.3355 77.2373 33.5014 0.0000 0.0000 0.0000
# 2 77.2373 71.3356 33.5015 0.0000 0.0000 0.0000
# 3 33.5014 33.5015 65.5016 0.0000 0.0000 0.0000
# 4 0.0000 0.0000 0.0000 14.8061 0.0000 0.0000
# 5 0.0000 0.0000 0.0000 0.0000 14.8061 0.0000
# 6 0.0000 0.0000 0.0000 0.0000 0.0000 37.9795
#
#
#
# Elastic Compliance Matrix: (Units=1/GPa)
#
#
# Indices 1 2 3 4 5 6 
#
# 1 -0.080346 0.089094 -0.004475 0.000000 0.000000 0.000000
# 2 0.089094 -0.080346 -0.004474 0.000000 0.000000 0.000000
# 3 -0.004475 -0.004474 0.019844 0.000000 0.000000 0.000000
# 4 0.000000 0.000000 0.000000 0.067540 0.000000 0.000000
# 5 0.000000 0.000000 0.000000 0.000000 0.067540 0.000000
# 6 0.000000 0.000000 0.000000 0.000000 0.000000 0.026330
#
#
# Mechanical properties :
#
#
# Convention : Reuss Voigt Hill
#
# Bulk Modulus (GPa) = 51.43268 55.18368 53.30818
# Shear Modulus (GPa) = -37.52421 17.78050 -9.87186
#
# Velocity S-wave (km/s) = -4.52678 3.11606 -2.32185
# Velocity P-wave (km/s) = 0.87450 6.56368 4.68224
#
# Compressibility (1/GPa) = 0.01944289
#
# Stress axis : x y z
#
# Youngs Moduli (GPa) = -12.44621 -12.44621 50.39325
#
# Poissons Ratio (x) = 1.10889 0.22550
# Poissons Ratio (y) = 1.10889 0.22548
# Poissons Ratio (z) = -0.05569 -0.05569
#
# Static dielectric constant tensor:
#      x y z
#    x 3.527990 0.000000 0.000000 
#    y 0.000000 3.527990 0.000000 
#    z 0.000000 0.000000 3.086350 
# 
# 
# High freq. dielectric constant tensor:
#      x y z
#    x 1.718240 0.000000 0.000000 
#    y 0.000000 1.718240 0.000000 
#    z 0.000000 0.000000 1.654400 
# 
# From -- ./inp_files/2001.got.cif
#   From: 2010.03.12/outbox.cif.g09.slc.cpg/sg139_2_cif.got.tgz:2001.got - 2010.04.08 09:46:31.
