data_PCOD8319384
_publ_section_title
;
Structure prediction by ZEFSAII (Michael W. Deem and Ramdas Pophale) SiO2 
 PCOD8319384
Probable space group: I 4/M M M
;
_chemical_formula_sum "Si O2"
_cell_formula_units_Z 176
_cell_length_a 23.314907
_cell_length_b 23.314907
_cell_length_c 17.509664
_cell_angle_alpha 90.000000
_cell_angle_beta 90.000000
_cell_angle_gamma 90.000000
_cell_volume 9517.988752
_symmetry_space_group_name_H-M "I 4/M M M"
_symmetry_group_IT_number 139
_symmetry_cell_setting 'tetragonal'
loop_
_space_group_symop_operation_xyz
x,y,z
-y,x,z
-x,-y,z
y,-x,z
x,-y,-z
-x,y,-z
y,x,-z
-y,-x,-z
-x,-y,-z
y,-x,-z
x,y,-z
-y,x,-z
-x,y,z
x,-y,z
-y,-x,z
y,x,z
1/2+x,1/2+y,1/2+z
1/2-y,1/2+x,1/2+z
1/2-x,1/2-y,1/2+z
1/2+y,1/2-x,1/2+z
1/2+x,1/2-y,1/2-z
1/2-x,1/2+y,1/2-z
1/2+y,1/2+x,1/2-z
1/2-y,1/2-x,1/2-z
1/2-x,1/2-y,1/2-z
1/2+y,1/2-x,1/2-z
1/2+x,1/2+y,1/2-z
1/2-y,1/2+x,1/2-z
1/2-x,1/2+y,1/2+z
1/2+x,1/2-y,1/2+z
1/2-y,1/2-x,1/2+z
1/2+y,1/2+x,1/2+z
loop_
_atom_site_type_symbol
_atom_site_label
_atom_site_fract_x
_atom_site_fract_y
_atom_site_fract_z
Si Si1 0.731583 0.433680 0.644903
Si Si2 0.065313 0.156899 0.000000
Si Si3 0.139570 0.333859 0.909244
Si Si4 0.563386 0.062890 0.590574
Si Si5 0.137596 0.232285 0.413207
Si Si6 0.337497 0.566950 0.798505
O O1 0.752686 0.500000 0.641363
O O2 0.692722 0.417780 0.573604
O O3 0.784573 0.390044 0.641004
O O4 0.694085 0.421439 0.719181
O O5 0.097496 0.097496 0.000000
O O6 0.000000 0.138803 0.000000
O O7 0.109771 0.392069 0.880747
O O8 0.205630 0.340732 0.885762
O O9 0.131373 0.322268 0.000000
O O10 0.562560 0.061581 0.500000
O O11 0.500000 0.080008 0.620466
O O12 0.580520 0.000000 0.622123
O O13 0.115178 0.235573 0.500000
O O14 0.192345 0.192345 0.404490
O O15 0.085123 0.207431 0.364063
O O16 0.353639 0.500000 0.808721
O O17 0.396033 0.603967 0.803011
#
# Coordination Sequence:
#
# PCOD8319384 Si02
#       6
#    32  16  32  32  32  32
#     4  10  20  34  52  79 112 146 186 231 271 313
#     4  10  20  33  50  74 105 141 183 231 278 324
#     4  10  18  30  51  78 106 148 190 219 261 323
#     4   8  14  24  40  66 100 134 173 223 265 299
#     4   9  20  37  55  79 108 135 170 218 271 326
#     4  10  22  40  60  82 109 140 177 225 281 337
#
# _framework density 18.491302000000001
#
# number of rings (size 3 to 8) (size 9 to 14) (size 15 to 20)
#    0.000    2.545    0.909    1.636    0.000    4.273 
#    0.000    3.636    0.000    3.273    0.000    2.545 
#    0.000    4.364    0.000    0.182    0.000    0.000 
#
# Total GULP energy -1090987.744320 kJ/mol
# GULP energy per Si atom -12397.588004 kJ/mol
# Density = 1.844921 g / cm^3
# Si number density = 18.491302 Si / 1000 Ang^3
#
#
#
# Elastic Constant Matrix: (Units=GPa)
#
#
# Indices 1 2 3 4 5 6 
#
# 1 117.6393 70.5268 44.6164 0.0000 0.0000 0.0000
# 2 70.5268 117.6393 44.6164 0.0000 0.0000 0.0000
# 3 44.6164 44.6164 75.4389 0.0000 0.0000 0.0000
# 4 0.0000 0.0000 0.0000 23.8242 0.0000 0.0000
# 5 0.0000 0.0000 0.0000 0.0000 23.8242 0.0000
# 6 0.0000 0.0000 0.0000 0.0000 0.0000 21.3254
#
#
#
# Elastic Compliance Matrix: (Units=1/GPa)
#
#
# Indices 1 2 3 4 5 6 
#
# 1 0.014306 -0.006920 -0.004368 0.000000 0.000000 0.000000
# 2 -0.006920 0.014306 -0.004368 0.000000 0.000000 0.000000
# 3 -0.004368 -0.004368 0.018423 0.000000 0.000000 0.000000
# 4 0.000000 0.000000 0.000000 0.041974 0.000000 0.000000
# 5 0.000000 0.000000 0.000000 0.000000 0.041974 0.000000
# 6 0.000000 0.000000 0.000000 0.000000 0.000000 0.046893
#
#
# Mechanical properties :
#
#
# Convention : Reuss Voigt Hill
#
# Bulk Modulus (GPa) = 63.60634 70.02630 66.81632
# Shear Modulus (GPa) = 23.31777 23.85860 23.58818
#
# Velocity S-wave (km/s) = 3.55493 3.59592 3.57548
# Velocity P-wave (km/s) = 7.16398 7.42919 7.29779
#
# Compressibility (1/GPa) = 0.01572170
#
# Stress axis : x y z
#
# Youngs Moduli (GPa) = 69.90130 69.90130 54.28080
#
# Poissons Ratio (x) = 0.48371 0.23711
# Poissons Ratio (y) = 0.48371 0.23711
# Poissons Ratio (z) = 0.30535 0.30535
#
# Static dielectric constant tensor:
#      x y z
#    x 3.474250 0.000000 0.000000 
#    y 0.000000 3.474250 0.000000 
#    z 0.000000 0.000000 3.243970 
# 
# 
# High freq. dielectric constant tensor:
#      x y z
#    x 1.720510 0.000000 0.000000 
#    y 0.000000 1.720510 0.000000 
#    z 0.000000 0.000000 1.696470 
# 
# From -- ./inp_files/6128.got.cif
#   From: 2010.03.12/outbox.cif.g09.slc.cpg/sg139_4_cif.got.tgz:6128.got - 2010.04.08 09:46:31.
