data_PCOD8319554
_publ_section_title
;
Structure prediction by ZEFSAII (Michael W. Deem and Ramdas Pophale) SiO2 
 PCOD8319554
Probable space group: I 4/M M M
;
_chemical_formula_sum "Si O2"
_cell_formula_units_Z 144
_cell_length_a 18.906390
_cell_length_b 18.906390
_cell_length_c 25.700731
_cell_angle_alpha 90.000000
_cell_angle_beta 90.000000
_cell_angle_gamma 90.000000
_cell_volume 9186.766976
_symmetry_space_group_name_H-M "I 4/M M M"
_symmetry_group_IT_number 139
_symmetry_cell_setting 'tetragonal'
loop_
_space_group_symop_operation_xyz
x,y,z
-y,x,z
-x,-y,z
y,-x,z
x,-y,-z
-x,y,-z
y,x,-z
-y,-x,-z
-x,-y,-z
y,-x,-z
x,y,-z
-y,x,-z
-x,y,z
x,-y,z
-y,-x,z
y,x,z
1/2+x,1/2+y,1/2+z
1/2-y,1/2+x,1/2+z
1/2-x,1/2-y,1/2+z
1/2+y,1/2-x,1/2+z
1/2+x,1/2-y,1/2-z
1/2-x,1/2+y,1/2-z
1/2+y,1/2+x,1/2-z
1/2-y,1/2-x,1/2-z
1/2-x,1/2-y,1/2-z
1/2+y,1/2-x,1/2-z
1/2+x,1/2+y,1/2-z
1/2-y,1/2+x,1/2-z
1/2-x,1/2+y,1/2+z
1/2+x,1/2-y,1/2+z
1/2-y,1/2-x,1/2+z
1/2+y,1/2+x,1/2+z
loop_
_atom_site_type_symbol
_atom_site_label
_atom_site_fract_x
_atom_site_fract_y
_atom_site_fract_z
Si Si1 0.419257 0.694682 0.756418
Si Si2 0.347411 0.082056 0.895012
Si Si3 0.692612 0.420709 0.635391
Si Si4 0.916132 0.579536 0.000000
Si Si5 0.082701 0.653523 0.298017
O O1 0.500000 0.672478 0.767987
O O2 0.369414 0.630586 0.774939
O O3 0.408444 0.711522 0.695687
O O4 0.397749 0.764814 0.787644
O O5 0.263065 0.091764 0.898100
O O6 0.379578 0.110585 0.948921
O O7 0.377913 0.130211 0.849727
O O8 0.367161 0.000000 0.884378
O O9 0.663519 0.500000 0.626949
O O10 0.632628 0.367373 0.615489
O O11 0.885220 0.500000 0.000000
O O12 0.000000 0.577828 0.000000
O O13 0.105349 0.605349 0.250000
O O14 0.000000 0.643324 0.306351
#
# Coordination Sequence:
#
# PCOD8319554 Si02
#       5
#    32  32  32  16  32
#     4   9  18  31  46  67  93 121 155 190 228 277
#     4  10  19  32  47  66  92 123 158 193 228 270
#     4   9  17  30  47  67  92 121 154 192 233 278
#     4   9  18  32  49  66  85 117 159 194 223 260
#     4  11  20  29  43  67  96 123 151 184 225 274
#
# _framework density 15.674720000000001
#
# number of rings (size 3 to 8) (size 9 to 14) (size 15 to 20)
#    0.000    2.333    2.222    1.333    0.000    4.222 
#    0.000    2.778    0.000    0.000    0.000    0.000 
#    0.000    4.444    0.000    0.000    0.000   10.222 
#
# Total GULP energy -892882.335904 kJ/mol
# GULP energy per Si atom -12401.143554 kJ/mol
# Density = 1.563904 g / cm^3
# Si number density = 15.674720 Si / 1000 Ang^3
#
#
#
# Elastic Constant Matrix: (Units=GPa)
#
#
# Indices 1 2 3 4 5 6 
#
# 1 85.9557 52.9203 36.9945 0.0000 0.0000 0.0000
# 2 52.9203 85.9557 36.9945 0.0000 0.0000 0.0000
# 3 36.9945 36.9945 85.2528 0.0000 0.0000 0.0000
# 4 0.0000 0.0000 0.0000 14.4980 0.0000 0.0000
# 5 0.0000 0.0000 0.0000 0.0000 14.4980 0.0000
# 6 0.0000 0.0000 0.0000 0.0000 0.0000 29.1952
#
#
#
# Elastic Compliance Matrix: (Units=1/GPa)
#
#
# Indices 1 2 3 4 5 6 
#
# 1 0.019818 -0.010452 -0.004064 0.000000 0.000000 0.000000
# 2 -0.010452 0.019818 -0.004064 0.000000 0.000000 0.000000
# 3 -0.004064 -0.004064 0.015257 0.000000 0.000000 0.000000
# 4 0.000000 0.000000 0.000000 0.068975 0.000000 0.000000
# 5 0.000000 0.000000 0.000000 0.000000 0.068975 0.000000
# 6 0.000000 0.000000 0.000000 0.000000 0.000000 0.034252
#
#
# Mechanical properties :
#
#
# Convention : Reuss Voigt Hill
#
# Bulk Modulus (GPa) = 56.39517 56.77588 56.58553
# Shear Modulus (GPa) = 18.50697 20.32188 19.41443
#
# Velocity S-wave (km/s) = 3.43984 3.60457 3.52317
# Velocity P-wave (km/s) = 7.19953 7.32283 7.26144
#
# Compressibility (1/GPa) = 0.01773201
#
# Stress axis : x y z
#
# Youngs Moduli (GPa) = 50.45847 50.45847 65.54322
#
# Poissons Ratio (x) = 0.52741 0.26639
# Poissons Ratio (y) = 0.52741 0.26639
# Poissons Ratio (z) = 0.20508 0.20508
#
# Static dielectric constant tensor:
#      x y z
#    x 3.005840 0.000000 0.000000 
#    y 0.000000 3.005840 0.000000 
#    z 0.000000 0.000000 2.933810 
# 
# 
# High freq. dielectric constant tensor:
#      x y z
#    x 1.598610 0.000000 0.000000 
#    y 0.000000 1.598610 0.000000 
#    z 0.000000 0.000000 1.577610 
# 
# From -- ./inp_files/11482.got.cif
#   From: 2010.03.12/outbox.cif.g09.slc.cpg/sg139_6_cif.got.tgz:11482.got - 2010.04.08 09:46:31.
