data_PCOD8319763
_publ_section_title
;
Structure prediction by ZEFSAII (Michael W. Deem and Ramdas Pophale) SiO2 
 PCOD8319763
Probable space group: I 4/M M M
;
_chemical_formula_sum "Si O2"
_cell_formula_units_Z 240
_cell_length_a 20.901090
_cell_length_b 20.901090
_cell_length_c 29.241907
_cell_angle_alpha 90.000000
_cell_angle_beta 90.000000
_cell_angle_gamma 90.000000
_cell_volume 12774.489751
_symmetry_space_group_name_H-M "I 4/M M M"
_symmetry_group_IT_number 139
_symmetry_cell_setting 'tetragonal'
loop_
_space_group_symop_operation_xyz
x,y,z
-y,x,z
-x,-y,z
y,-x,z
x,-y,-z
-x,y,-z
y,x,-z
-y,-x,-z
-x,-y,-z
y,-x,-z
x,y,-z
-y,x,-z
-x,y,z
x,-y,z
-y,-x,z
y,x,z
1/2+x,1/2+y,1/2+z
1/2-y,1/2+x,1/2+z
1/2-x,1/2-y,1/2+z
1/2+y,1/2-x,1/2+z
1/2+x,1/2-y,1/2-z
1/2-x,1/2+y,1/2-z
1/2+y,1/2+x,1/2-z
1/2-y,1/2-x,1/2-z
1/2-x,1/2-y,1/2-z
1/2+y,1/2-x,1/2-z
1/2+x,1/2+y,1/2-z
1/2-y,1/2+x,1/2-z
1/2-x,1/2+y,1/2+z
1/2+x,1/2-y,1/2+z
1/2-y,1/2-x,1/2+z
1/2+y,1/2+x,1/2+z
loop_
_atom_site_type_symbol
_atom_site_label
_atom_site_fract_x
_atom_site_fract_y
_atom_site_fract_z
Si Si1 0.326516 0.573066 0.127366
Si Si2 0.815503 0.427800 0.356345
Si Si3 0.429678 0.000000 0.446519
Si Si4 0.074554 0.768419 0.719325
Si Si5 0.575997 0.679902 0.316667
Si Si6 0.137349 0.613714 0.448103
Si Si7 0.374917 0.073887 0.293966
Si Si8 0.636865 0.259314 0.050968
O O1 0.344841 0.500000 0.133720
O O2 0.391334 0.608667 0.113261
O O3 0.298772 0.605191 0.173709
O O4 0.274719 0.580880 0.086863
O O5 0.820358 0.500000 0.338385
O O6 0.744832 0.402421 0.342859
O O7 0.820484 0.425343 0.411593
O O8 0.875533 0.390880 0.333979
O O9 0.390928 0.063205 0.432575
O O10 0.500000 0.000000 0.422675
O O11 0.439973 0.000000 0.500000
O O12 0.093242 0.809064 0.763634
O O13 0.094351 0.694696 0.724816
O O14 0.000000 0.770979 0.711179
O O15 0.500000 0.664913 0.324091
O O16 0.619356 0.619356 0.333455
O O17 0.147884 0.586987 0.500000
O O18 0.159011 0.686611 0.444806
O O19 0.421218 0.078783 0.250000
O O20 0.377955 0.000000 0.312446
O O21 0.699353 0.300648 0.062638
O O22 0.610602 0.273439 0.000000
#
# Coordination Sequence:
#
# PCOD8319763 Si02
#       8
#    32  32  16  32  32  32  32  32
#     4  10  20  33  52  75 100 135 174 221 278 333
#     4  11  23  37  54  81 115 150 186 229 279 326
#     4   9  18  32  50  76 108 138 175 223 269 319
#     4   9  18  35  55  76 108 142 178 228 275 322
#     4  10  21  39  61  85 114 145 181 230 286 343
#     4  10  21  36  56  79 106 145 186 230 279 326
#     4  11  21  35  54  78 110 152 197 230 263 315
#     4   9  19  35  53  75 102 133 177 229 274 324
#
# _framework density 18.787444000000001
#
# number of rings (size 3 to 8) (size 9 to 14) (size 15 to 20)
#    0.000    2.067    1.333    2.000    1.867    2.800 
#    0.000    2.000    0.000    2.400    0.000    1.867 
#    0.000    0.000    0.000    2.933    0.000    0.000 
#
# Total GULP energy -1487376.543992 kJ/mol
# GULP energy per Si atom -12394.804533 kJ/mol
# Density = 1.874468 g / cm^3
# Si number density = 18.787444 Si / 1000 Ang^3
#
#
#
# Elastic Constant Matrix: (Units=GPa)
#
#
# Indices 1 2 3 4 5 6 
#
# 1 85.2398 41.4924 26.3209 0.0000 0.0000 0.0000
# 2 41.4924 85.2402 26.3209 0.0000 0.0000 0.0000
# 3 26.3209 26.3209 91.6181 0.0000 0.0000 0.0000
# 4 0.0000 0.0000 0.0000 23.2015 0.0000 0.0000
# 5 0.0000 0.0000 0.0000 0.0000 23.2015 0.0000
# 6 0.0000 0.0000 0.0000 0.0000 0.0000 25.6088
#
#
#
# Elastic Compliance Matrix: (Units=1/GPa)
#
#
# Indices 1 2 3 4 5 6 
#
# 1 0.015909 -0.006949 -0.002574 0.000000 0.000000 0.000000
# 2 -0.006949 0.015909 -0.002574 0.000000 0.000000 0.000000
# 3 -0.002574 -0.002574 0.012394 0.000000 0.000000 0.000000
# 4 0.000000 0.000000 0.000000 0.043101 0.000000 0.000000
# 5 0.000000 0.000000 0.000000 0.000000 0.043101 0.000000
# 6 0.000000 0.000000 0.000000 0.000000 0.000000 0.039049
#
#
# Mechanical properties :
#
#
# Convention : Reuss Voigt Hill
#
# Bulk Modulus (GPa) = 49.95676 50.04071 49.99873
# Shear Modulus (GPa) = 24.95885 25.59996 25.27941
#
# Velocity S-wave (km/s) = 3.64879 3.69536 3.67215
# Velocity P-wave (km/s) = 6.66332 6.70079 6.68208
#
# Compressibility (1/GPa) = 0.02001731
#
# Stress axis : x y z
#
# Youngs Moduli (GPa) = 62.85687 62.85720 80.68498
#
# Poissons Ratio (x) = 0.43681 0.20769
# Poissons Ratio (y) = 0.43681 0.20769
# Poissons Ratio (z) = 0.16180 0.16180
#
# Static dielectric constant tensor:
#      x y z
#    x 3.340800 0.000000 0.000000 
#    y 0.000000 3.340800 0.000000 
#    z 0.000000 0.000000 3.574650 
# 
# 
# High freq. dielectric constant tensor:
#      x y z
#    x 1.716450 0.000000 0.000000 
#    y 0.000000 1.716450 0.000000 
#    z 0.000000 0.000000 1.731240 
# 
# From -- ./inp_files/14660.got.cif
#   From: 2010.03.12/outbox.cif.g09.slc.cpg/sg139_8_cif.got.tgz:14660.got - 2010.04.08 09:46:31.
