data_PCOD8319997
_publ_section_title
;
Structure prediction by ZEFSAII (Michael W. Deem and Ramdas Pophale) SiO2 
 PCOD8319997
Probable space group: I 4/M M M
;
_chemical_formula_sum "Si O2"
_cell_formula_units_Z 160
_cell_length_a 23.511684
_cell_length_b 23.511684
_cell_length_c 15.627140
_cell_angle_alpha 90.000000
_cell_angle_beta 90.000000
_cell_angle_gamma 90.000000
_cell_volume 8638.671811
_symmetry_space_group_name_H-M "I 4/M M M"
_symmetry_group_IT_number 139
_symmetry_cell_setting 'tetragonal'
loop_
_space_group_symop_operation_xyz
x,y,z
-y,x,z
-x,-y,z
y,-x,z
x,-y,-z
-x,y,-z
y,x,-z
-y,-x,-z
-x,-y,-z
y,-x,-z
x,y,-z
-y,x,-z
-x,y,z
x,-y,z
-y,-x,z
y,x,z
1/2+x,1/2+y,1/2+z
1/2-y,1/2+x,1/2+z
1/2-x,1/2-y,1/2+z
1/2+y,1/2-x,1/2+z
1/2+x,1/2-y,1/2-z
1/2-x,1/2+y,1/2-z
1/2+y,1/2+x,1/2-z
1/2-y,1/2-x,1/2-z
1/2-x,1/2-y,1/2-z
1/2+y,1/2-x,1/2-z
1/2+x,1/2+y,1/2-z
1/2-y,1/2+x,1/2-z
1/2-x,1/2+y,1/2+z
1/2+x,1/2-y,1/2+z
1/2-y,1/2-x,1/2+z
1/2+y,1/2+x,1/2+z
loop_
_atom_site_type_symbol
_atom_site_label
_atom_site_fract_x
_atom_site_fract_y
_atom_site_fract_z
Si Si1 0.243761 0.500000 0.596514
Si Si2 0.500000 0.243761 0.096514
Si Si3 0.382332 0.382332 0.250000
Si Si4 0.289299 0.120160 0.651432
Si Si5 0.669324 0.500000 0.750000
Si Si6 0.822184 0.822184 0.904112
Si Si7 0.379840 0.789299 0.651432
Si Si8 0.177816 0.177816 0.404112
O O1 0.268074 0.500000 0.500000
O O2 0.294465 0.500000 0.663491
O O3 0.206934 0.442394 0.609210
O O4 0.557606 0.206934 0.109210
O O5 0.500000 0.294465 0.163491
O O6 0.500000 0.268074 0.000000
O O7 0.372972 0.448380 0.250000
O O8 0.357507 0.357507 0.336793
O O9 0.357507 0.357507 0.163207
O O10 0.351385 0.148615 0.642516
O O11 0.270761 0.112693 0.750000
O O12 0.244313 0.163060 0.607875
O O13 0.836940 0.755687 0.892125
O O14 0.839964 0.839964 0.000000
O O15 0.160036 0.160036 0.500000
#
# Coordination Sequence:
#
# PCOD8319997 Si02
#       8
#    16  16  16  32  16  16  32  16
#     4  12  22  38  63  86 120 161 201 246 297 358
#     4  12  22  38  63  86 120 161 201 246 297 358
#     4  12  24  41  61  86 122 152 208 250 295 353
#     4  11  22  38  60  88 124 158 195 246 303 362
#     4  12  24  43  60  88 118 157 206 250 294 356
#     4  12  21  35  60  89 120 153 190 247 309 363
#     4  11  22  38  60  88 124 158 195 246 303 362
#     4  12  21  35  60  89 120 153 190 247 309 363
#
# _framework density 18.521366
#
# number of rings (size 3 to 8) (size 9 to 14) (size 15 to 20)
#    0.000    0.400    8.000    1.800    0.000    5.800 
#    0.000    0.000    0.000    0.600    0.000    7.000 
#    0.000    0.000    0.000    0.000    0.000    0.000 
#
# Total GULP energy -991891.260706 kJ/mol
# GULP energy per Si atom -12398.640759 kJ/mol
# Density = 1.847921 g / cm^3
# Si number density = 18.521366 Si / 1000 Ang^3
#
#
#
# Elastic Constant Matrix: (Units=GPa)
#
#
# Indices 1 2 3 4 5 6 
#
# 1 108.7209 72.0113 45.5146 0.0000 0.0000 0.0000
# 2 72.0113 108.7209 45.5146 0.0000 0.0000 0.0000
# 3 45.5146 45.5146 167.9519 0.0000 0.0000 0.0000
# 4 0.0000 0.0000 0.0000 7.1948 0.0000 0.0000
# 5 0.0000 0.0000 0.0000 0.0000 7.1948 0.0000
# 6 0.0000 0.0000 0.0000 0.0000 0.0000 26.2981
#
#
#
# Elastic Compliance Matrix: (Units=1/GPa)
#
#
# Indices 1 2 3 4 5 6 
#
# 1 0.016824 -0.010417 -0.001736 0.000000 0.000000 0.000000
# 2 -0.010417 0.016824 -0.001736 0.000000 0.000000 0.000000
# 3 -0.001736 -0.001736 0.006895 0.000000 0.000000 0.000000
# 4 0.000000 0.000000 0.000000 0.138990 0.000000 0.000000
# 5 0.000000 0.000000 0.000000 0.000000 0.138990 0.000000
# 6 0.000000 0.000000 0.000000 0.000000 0.000000 0.038026
#
#
# Mechanical properties :
#
#
# Convention : Reuss Voigt Hill
#
# Bulk Modulus (GPa) = 78.34103 79.05272 78.69687
# Shear Modulus (GPa) = 12.86725 22.96108 17.91417
#
# Velocity S-wave (km/s) = 2.63862 3.52477 3.11338
# Velocity P-wave (km/s) = 7.18836 7.70324 7.45025
#
# Compressibility (1/GPa) = 0.01276470
#
# Stress axis : x y z
#
# Youngs Moduli (GPa) = 59.43813 59.43813 145.02762
#
# Poissons Ratio (x) = 0.61914 0.25183
# Poissons Ratio (y) = 0.61914 0.25183
# Poissons Ratio (z) = 0.10321 0.10321
#
# Static dielectric constant tensor:
#      x y z
#    x 3.453650 0.000000 0.000000 
#    y 0.000000 3.453650 0.000000 
#    z 0.000000 0.000000 3.667560 
# 
# 
# High freq. dielectric constant tensor:
#      x y z
#    x 1.705150 0.000000 0.000000 
#    y 0.000000 1.705150 0.000000 
#    z 0.000000 0.000000 1.740240 
# 
# From -- ./inp_files/6051.got.cif
#   From: 2010.03.12/outbox.cif.g09.slc.cpg/sg139_4_cif.got.tgz:6051.got - 2010.04.08 09:46:31.
