data_PCOD8319369
_publ_section_title
;
Structure prediction by ZEFSAII (Michael W. Deem and Ramdas Pophale) SiO2 
 PCOD8319369
Probable space group: I 4/M M M
;
_chemical_formula_sum "Si O2"
_cell_formula_units_Z 128
_cell_length_a 32.389058
_cell_length_b 32.389058
_cell_length_c 7.805770
_cell_angle_alpha 90.000000
_cell_angle_beta 90.000000
_cell_angle_gamma 90.000000
_cell_volume 8188.651434
_symmetry_space_group_name_H-M "I 4/M M M"
_symmetry_group_IT_number 139
_symmetry_cell_setting 'tetragonal'
loop_
_space_group_symop_operation_xyz
x,y,z
-y,x,z
-x,-y,z
y,-x,z
x,-y,-z
-x,y,-z
y,x,-z
-y,-x,-z
-x,-y,-z
y,-x,-z
x,y,-z
-y,x,-z
-x,y,z
x,-y,z
-y,-x,z
y,x,z
1/2+x,1/2+y,1/2+z
1/2-y,1/2+x,1/2+z
1/2-x,1/2-y,1/2+z
1/2+y,1/2-x,1/2+z
1/2+x,1/2-y,1/2-z
1/2-x,1/2+y,1/2-z
1/2+y,1/2+x,1/2-z
1/2-y,1/2-x,1/2-z
1/2-x,1/2-y,1/2-z
1/2+y,1/2-x,1/2-z
1/2+x,1/2+y,1/2-z
1/2-y,1/2+x,1/2-z
1/2-x,1/2+y,1/2+z
1/2+x,1/2-y,1/2+z
1/2-y,1/2-x,1/2+z
1/2+y,1/2+x,1/2+z
loop_
_atom_site_type_symbol
_atom_site_label
_atom_site_fract_x
_atom_site_fract_y
_atom_site_fract_z
Si Si1 0.612486 0.953535 0.200554
Si Si2 0.547007 0.612218 0.192426
Si Si3 0.090205 0.156246 0.000000
Si Si4 0.450232 0.742221 0.500000
Si Si5 0.951382 0.700023 0.310863
O O1 0.573180 0.926821 0.250000
O O2 0.653945 0.933529 0.281989
O O3 0.604487 0.000000 0.269293
O O4 0.619578 0.954167 0.000000
O O5 0.500000 0.606915 0.246277
O O6 0.566999 0.566999 0.201457
O O7 0.568454 0.642055 0.326348
O O8 0.551546 0.630874 0.000000
O O9 0.137612 0.137612 0.000000
O O10 0.082863 0.205020 0.000000
O O11 0.500000 0.730470 0.500000
O O12 0.436960 0.767680 0.331997
O O13 0.938068 0.715923 0.500000
O O14 0.000000 0.695605 0.293814
#
# Coordination Sequence:
#
# PCOD8319369 Si02
#       5
#    32  32  16  16  32
#     4  10  19  31  46  66  97 135 170 204 235 263
#     4   9  17  28  41  58  82 113 149 186 222 264
#     4  10  20  32  45  63  89 117 145 184 238 291
#     4  10  18  30  48  68  89 117 154 193 235 288
#     4   9  17  30  47  67  91 119 153 197 242 274
#
# _framework density 15.63139
#
# number of rings (size 3 to 8) (size 9 to 14) (size 15 to 20)
#    0.000    2.500    1.250    1.875    0.000    3.000 
#    0.000    5.000    0.000    2.250    0.000    0.000 
#    0.000    1.000    0.000    0.000    0.000    0.000 
#
# Total GULP energy -793018.686581 kJ/mol
# GULP energy per Si atom -12390.916978 kJ/mol
# Density = 1.559581 g / cm^3
# Si number density = 15.631390 Si / 1000 Ang^3
#
#
#
# Elastic Constant Matrix: (Units=GPa)
#
#
# Indices 1 2 3 4 5 6 
#
# 1 85.8245 42.3726 37.5204 0.0000 0.0000 0.0000
# 2 42.3726 85.8179 37.5235 0.0000 0.0000 0.0000
# 3 37.5204 37.5235 102.6649 0.0000 0.0000 0.0000
# 4 0.0000 0.0000 0.0000 17.0559 0.0000 0.0000
# 5 0.0000 0.0000 0.0000 0.0000 17.0556 0.0000
# 6 0.0000 0.0000 0.0000 0.0000 0.0000 14.0808
#
#
#
# Elastic Compliance Matrix: (Units=1/GPa)
#
#
# Indices 1 2 3 4 5 6 
#
# 1 0.016469 -0.006546 -0.003626 0.000000 0.000000 0.000000
# 2 -0.006546 0.016471 -0.003628 0.000000 0.000000 0.000000
# 3 -0.003626 -0.003628 0.012392 0.000000 0.000000 0.000000
# 4 0.000000 0.000000 0.000000 0.058631 0.000000 0.000000
# 5 0.000000 0.000000 0.000000 0.000000 0.058632 0.000000
# 6 0.000000 0.000000 0.000000 0.000000 0.000000 0.071019
#
#
# Mechanical properties :
#
#
# Convention : Reuss Voigt Hill
#
# Bulk Modulus (GPa) = 56.39690 56.57115 56.48402
# Shear Modulus (GPa) = 18.71797 20.09783 19.40790
#
# Velocity S-wave (km/s) = 3.46419 3.58961 3.52745
# Velocity P-wave (km/s) = 7.22208 7.31093 7.26664
#
# Compressibility (1/GPa) = 0.01773147
#
# Stress axis : x y z
#
# Youngs Moduli (GPa) = 60.72095 60.71350 80.69982
#
# Poissons Ratio (x) = 0.39742 0.29264
# Poissons Ratio (y) = 0.39747 0.29275
# Poissons Ratio (z) = 0.22019 0.22025
#
# Static dielectric constant tensor:
#      x y z
#    x 2.441430 0.000000 0.000000 
#    y 0.000000 2.441640 0.000000 
#    z 0.000000 0.000000 3.343180 
# 
# 
# High freq. dielectric constant tensor:
#      x y z
#    x 1.566480 0.000000 0.000000 
#    y 0.000000 1.566480 0.000000 
#    z 0.000000 0.000000 1.627320 
# 
# From -- ./inp_files/1792.got.cif
#   From: 2010.03.12/outbox.cif.g09.slc.cpg/sg139_1_cif.got.tgz:1792.got - 2010.04.08 09:46:31.
