data_PCOD8319432
_publ_section_title
;
Structure prediction by ZEFSAII (Michael W. Deem and Ramdas Pophale) SiO2 
 PCOD8319432
Probable space group: I 4/M M M
;
_chemical_formula_sum "Si O2"
_cell_formula_units_Z 128
_cell_length_a 21.333940
_cell_length_b 21.333940
_cell_length_c 19.527884
_cell_angle_alpha 90.000000
_cell_angle_beta 90.000000
_cell_angle_gamma 90.000000
_cell_volume 8887.862461
_symmetry_space_group_name_H-M "I 4/M M M"
_symmetry_group_IT_number 139
_symmetry_cell_setting 'tetragonal'
loop_
_space_group_symop_operation_xyz
x,y,z
-y,x,z
-x,-y,z
y,-x,z
x,-y,-z
-x,y,-z
y,x,-z
-y,-x,-z
-x,-y,-z
y,-x,-z
x,y,-z
-y,x,-z
-x,y,z
x,-y,z
-y,-x,z
y,x,z
1/2+x,1/2+y,1/2+z
1/2-y,1/2+x,1/2+z
1/2-x,1/2-y,1/2+z
1/2+y,1/2-x,1/2+z
1/2+x,1/2-y,1/2-z
1/2-x,1/2+y,1/2-z
1/2+y,1/2+x,1/2-z
1/2-y,1/2-x,1/2-z
1/2-x,1/2-y,1/2-z
1/2+y,1/2-x,1/2-z
1/2+x,1/2+y,1/2-z
1/2-y,1/2+x,1/2-z
1/2-x,1/2+y,1/2+z
1/2+x,1/2-y,1/2+z
1/2-y,1/2-x,1/2+z
1/2+y,1/2+x,1/2+z
loop_
_atom_site_type_symbol
_atom_site_label
_atom_site_fract_x
_atom_site_fract_y
_atom_site_fract_z
Si Si1 0.238557 0.069981 0.576783
Si Si2 0.171592 0.929268 0.286066
Si Si3 0.800211 0.301982 0.076098
Si Si4 0.844596 0.740751 0.788317
O O1 0.210061 0.078025 0.500000
O O2 0.184075 0.077927 0.632756
O O3 0.290529 0.123820 0.588702
O O4 0.268831 0.000000 0.584489
O O5 0.111725 0.888276 0.265440
O O6 0.233725 0.909626 0.242678
O O7 0.155681 0.000000 0.265846
O O8 0.733220 0.266781 0.086174
O O9 0.850122 0.274643 0.130600
O O10 0.827054 0.289478 0.000000
O O11 0.794360 0.794360 0.772693
O O12 0.822625 0.677376 0.750000
#
# Coordination Sequence:
#
# PCOD8319432 Si02
#       4
#    32  32  32  32
#     4   9  16  24  35  55  84 114 142 168 194 230
#     4  10  19  29  41  57  80 112 145 174 203 237
#     4   9  15  23  38  58  79 103 131 165 208 252
#     4   9  15  25  40  58  79 101 128 167 212 251
#
# _framework density 14.401662999999999
#
# number of rings (size 3 to 8) (size 9 to 14) (size 15 to 20)
#    0.000    2.750    2.500    0.750    0.000    1.750 
#    0.000    0.000    0.000    0.750    0.000    3.500 
#    0.000    3.500    0.000   16.000    0.000    0.000 
#
# Total GULP energy -793007.477462 kJ/mol
# GULP energy per Si atom -12390.741835 kJ/mol
# Density = 1.436888 g / cm^3
# Si number density = 14.401663 Si / 1000 Ang^3
#
#
#
# Elastic Constant Matrix: (Units=GPa)
#
#
# Indices 1 2 3 4 5 6 
#
# 1 59.3414 37.3915 38.6743 0.0000 0.0000 0.0000
# 2 37.3915 59.3417 38.6738 0.0000 0.0000 0.0000
# 3 38.6743 38.6738 94.2349 0.0000 0.0000 0.0000
# 4 0.0000 0.0000 0.0000 17.2560 0.0000 0.0000
# 5 0.0000 0.0000 0.0000 0.0000 17.2559 0.0000
# 6 0.0000 0.0000 0.0000 0.0000 0.0000 12.8456
#
#
#
# Elastic Compliance Matrix: (Units=1/GPa)
#
#
# Indices 1 2 3 4 5 6 
#
# 1 0.030473 -0.015085 -0.006315 0.000000 0.000000 0.000000
# 2 -0.015085 0.030472 -0.006315 0.000000 0.000000 0.000000
# 3 -0.006315 -0.006315 0.015795 0.000000 0.000000 0.000000
# 4 0.000000 0.000000 0.000000 0.057951 0.000000 0.000000
# 5 0.000000 0.000000 0.000000 0.000000 0.057951 0.000000
# 6 0.000000 0.000000 0.000000 0.000000 0.000000 0.077848
#
#
# Mechanical properties :
#
#
# Convention : Reuss Voigt Hill
#
# Bulk Modulus (GPa) = 46.92683 49.15523 48.04103
# Shear Modulus (GPa) = 15.01396 16.01673 15.51534
#
# Velocity S-wave (km/s) = 3.23230 3.33850 3.28583
# Velocity P-wave (km/s) = 6.82535 7.00475 6.91563
#
# Compressibility (1/GPa) = 0.02130977
#
# Stress axis : x y z
#
# Youngs Moduli (GPa) = 32.81618 32.81669 63.31099
#
# Poissons Ratio (x) = 0.49505 0.39982
# Poissons Ratio (y) = 0.49504 0.39979
# Poissons Ratio (z) = 0.20724 0.20723
#
# Static dielectric constant tensor:
#      x y z
#    x 2.618390 0.000000 0.000000 
#    y 0.000000 2.618390 0.000000 
#    z 0.000000 0.000000 3.027870 
# 
# 
# High freq. dielectric constant tensor:
#      x y z
#    x 1.513730 0.000000 0.000000 
#    y 0.000000 1.513730 0.000000 
#    z 0.000000 0.000000 1.563340 
# 
# From -- ./inp_files/7947.got.cif
#   From: 2010.03.12/outbox.cif.g09.slc.cpg/sg139_4_cif.got.tgz:7947.got - 2010.04.08 09:46:31.
