data_PCOD8319356
_publ_section_title
;
Structure prediction by ZEFSAII (Michael W. Deem and Ramdas Pophale) SiO2 
 PCOD8319356
Probable space group: I 4/M M M
;
_chemical_formula_sum "Si O2"
_cell_formula_units_Z 192
_cell_length_a 29.363824
_cell_length_b 29.363824
_cell_length_c 15.643924
_cell_angle_alpha 90.000000
_cell_angle_beta 90.000000
_cell_angle_gamma 90.000000
_cell_volume 13488.725668
_symmetry_space_group_name_H-M "I 4/M M M"
_symmetry_group_IT_number 139
_symmetry_cell_setting 'tetragonal'
loop_
_space_group_symop_operation_xyz
x,y,z
-y,x,z
-x,-y,z
y,-x,z
x,-y,-z
-x,y,-z
y,x,-z
-y,-x,-z
-x,-y,-z
y,-x,-z
x,y,-z
-y,x,-z
-x,y,z
x,-y,z
-y,-x,z
y,x,z
1/2+x,1/2+y,1/2+z
1/2-y,1/2+x,1/2+z
1/2-x,1/2-y,1/2+z
1/2+y,1/2-x,1/2+z
1/2+x,1/2-y,1/2-z
1/2-x,1/2+y,1/2-z
1/2+y,1/2+x,1/2-z
1/2-y,1/2-x,1/2-z
1/2-x,1/2-y,1/2-z
1/2+y,1/2-x,1/2-z
1/2+x,1/2+y,1/2-z
1/2-y,1/2+x,1/2-z
1/2-x,1/2+y,1/2+z
1/2+x,1/2-y,1/2+z
1/2-y,1/2-x,1/2+z
1/2+y,1/2+x,1/2+z
loop_
_atom_site_type_symbol
_atom_site_label
_atom_site_fract_x
_atom_site_fract_y
_atom_site_fract_z
Si Si1 0.550666 0.927518 0.095280
Si Si2 0.247655 0.176214 0.240474
Si Si3 0.671605 0.949191 0.355195
Si Si4 0.948575 0.645691 0.834873
Si Si5 0.135387 0.279278 0.404682
Si Si6 0.865840 0.697832 0.904329
O O1 0.500000 0.940402 0.131981
O O2 0.554350 0.873085 0.086861
O O3 0.590935 0.947276 0.153686
O O4 0.556250 0.947683 0.000000
O O5 0.198778 0.198778 0.218509
O O6 0.284652 0.215349 0.250000
O O7 0.243503 0.150953 0.332267
O O8 0.261570 0.141285 0.164603
O O9 0.657018 0.933009 0.260783
O O10 0.711448 0.918112 0.393461
O O11 0.691673 0.000000 0.354136
O O12 0.914519 0.672971 0.896513
O O13 0.000000 0.662459 0.853102
O O14 0.145361 0.259759 0.500000
O O15 0.160145 0.327325 0.389620
O O16 0.862565 0.718575 0.000000
#
# Coordination Sequence:
#
# PCOD8319356 Si02
#       6
#    32  32  32  32  32  32
#     4  10  20  31  42  57  75  98 133 173 212 254
#     4   9  18  31  46  63  83 101 121 153 195 247
#     4  10  19  30  44  59  77 102 134 169 202 245
#     4  11  21  31  44  59  77 104 138 172 209 252
#     4  10  18  29  47  64  81 103 127 159 201 247
#     4  10  19  30  45  62  81 104 131 161 198 246
#
# _framework density 14.234109999999999
#
# number of rings (size 3 to 8) (size 9 to 14) (size 15 to 20)
#    0.000    2.000    3.333    1.500    0.000    3.333 
#    0.000    4.167    0.000    3.000    0.000    0.000 
#    0.000    0.000    0.000    0.000    0.000    0.000 
#
# Total GULP energy -1190008.723733 kJ/mol
# GULP energy per Si atom -12395.924206 kJ/mol
# Density = 1.420171 g / cm^3
# Si number density = 14.234110 Si / 1000 Ang^3
#
#
#
# Elastic Constant Matrix: (Units=GPa)
#
#
# Indices 1 2 3 4 5 6 
#
# 1 41.0148 30.0105 26.6642 0.0000 0.0000 0.0000
# 2 30.0105 41.0145 26.6640 0.0000 0.0000 0.0000
# 3 26.6642 26.6640 95.3413 0.0000 0.0000 0.0000
# 4 0.0000 0.0000 0.0000 10.5839 0.0000 0.0000
# 5 0.0000 0.0000 0.0000 0.0000 10.5839 0.0000
# 6 0.0000 0.0000 0.0000 0.0000 0.0000 18.7756
#
#
#
# Elastic Compliance Matrix: (Units=1/GPa)
#
#
# Indices 1 2 3 4 5 6 
#
# 1 0.054348 -0.036526 -0.004984 0.000000 0.000000 0.000000
# 2 -0.036526 0.054348 -0.004984 0.000000 0.000000 0.000000
# 3 -0.004984 -0.004984 0.013277 0.000000 0.000000 0.000000
# 4 0.000000 0.000000 0.000000 0.094483 0.000000 0.000000
# 5 0.000000 0.000000 0.000000 0.000000 0.094483 0.000000
# 6 0.000000 0.000000 0.000000 0.000000 0.000000 0.053261
#
#
# Mechanical properties :
#
#
# Convention : Reuss Voigt Hill
#
# Bulk Modulus (GPa) = 34.50265 38.22755 36.36510
# Shear Modulus (GPa) = 10.71006 14.25746 12.48376
#
# Velocity S-wave (km/s) = 2.74601 3.16830 2.96468
# Velocity P-wave (km/s) = 5.86056 6.34813 6.10921
#
# Compressibility (1/GPa) = 0.02898328
#
# Stress axis : x y z
#
# Youngs Moduli (GPa) = 18.39996 18.39986 75.32094
#
# Poissons Ratio (x) = 0.67208 0.37542
# Poissons Ratio (y) = 0.67208 0.37541
# Poissons Ratio (z) = 0.09171 0.09171
#
# Static dielectric constant tensor:
#      x y z
#    x 2.572540 0.000000 0.000000 
#    y 0.000000 2.572540 0.000000 
#    z 0.000000 0.000000 2.979520 
# 
# 
# High freq. dielectric constant tensor:
#      x y z
#    x 1.498620 0.000000 0.000000 
#    y 0.000000 1.498620 0.000000 
#    z 0.000000 0.000000 1.564600 
# 
# From -- ./inp_files/6618.got.cif
#   From: 2010.03.12/outbox.cif.g09.slc.cpg/sg139_4_cif.got.tgz:6618.got - 2010.04.08 09:46:31.
