data_PCOD8319678
_publ_section_title
;
Structure prediction by ZEFSAII (Michael W. Deem and Ramdas Pophale) SiO2 
 PCOD8319678
Probable space group: I 4/M M M
;
_chemical_formula_sum "Si O2"
_cell_formula_units_Z 104
_cell_length_a 14.441571
_cell_length_b 14.441571
_cell_length_c 26.800839
_cell_angle_alpha 90.000000
_cell_angle_beta 90.000000
_cell_angle_gamma 90.000000
_cell_volume 5589.555456
_symmetry_space_group_name_H-M "I 4/M M M"
_symmetry_group_IT_number 139
_symmetry_cell_setting 'tetragonal'
loop_
_space_group_symop_operation_xyz
x,y,z
-y,x,z
-x,-y,z
y,-x,z
x,-y,-z
-x,y,-z
y,x,-z
-y,-x,-z
-x,-y,-z
y,-x,-z
x,y,-z
-y,x,-z
-x,y,z
x,-y,z
-y,-x,z
y,x,z
1/2+x,1/2+y,1/2+z
1/2-y,1/2+x,1/2+z
1/2-x,1/2-y,1/2+z
1/2+y,1/2-x,1/2+z
1/2+x,1/2-y,1/2-z
1/2-x,1/2+y,1/2-z
1/2+y,1/2+x,1/2-z
1/2-y,1/2-x,1/2-z
1/2-x,1/2-y,1/2-z
1/2+y,1/2-x,1/2-z
1/2+x,1/2+y,1/2-z
1/2-y,1/2+x,1/2-z
1/2-x,1/2+y,1/2+z
1/2+x,1/2-y,1/2+z
1/2-y,1/2-x,1/2+z
1/2+y,1/2+x,1/2+z
loop_
_atom_site_type_symbol
_atom_site_label
_atom_site_fract_x
_atom_site_fract_y
_atom_site_fract_z
Si Si1 0.500000 0.654761 0.267604
Si Si2 0.698741 0.000000 0.681971
Si Si3 0.298388 0.000000 0.142498
Si Si4 0.000000 0.500000 0.314345
Si Si5 0.397504 0.243458 0.000000
Si Si6 0.838126 0.314548 0.603166
O O1 0.408360 0.591641 0.271059
O O2 0.500000 0.710838 0.216036
O O3 0.500000 0.732105 0.309894
O O4 0.700526 0.089626 0.647518
O O5 0.600400 0.000000 0.714631
O O6 0.408625 0.000000 0.151901
O O7 0.278112 0.092119 0.110725
O O8 0.384915 0.179673 0.048820
O O9 0.500000 0.285788 0.000000
O O10 0.329478 0.329478 0.000000
O O11 0.772086 0.227915 0.605760
#
# Coordination Sequence:
#
# PCOD8319678 Si02
#       6
#    16  16  16   8  16  32
#     4  11  24  39  56  79 108 148 198 243 278 328
#     4  10  19  36  57  81 112 148 187 230 283 333
#     4  10  21  38  56  79 110 146 187 236 288 326
#     4   8  20  33  52  81 104 132 176 225 272 337
#     4  10  20  36  57  87 120 150 188 229 273 339
#     4  10  20  35  57  83 114 150 186 229 281 338
#
# _framework density 18.60613
#
# number of rings (size 3 to 8) (size 9 to 14) (size 15 to 20)
#    0.000    2.000    1.538    1.846    0.000    6.308 
#    0.000    8.462    0.000    0.000    0.000    0.000 
#    0.000    9.846    0.000    0.000    0.000    0.000 
#
# Total GULP energy -644350.346519 kJ/mol
# GULP energy per Si atom -12391.352818 kJ/mol
# Density = 1.856378 g / cm^3
# Si number density = 18.606130 Si / 1000 Ang^3
#
#
#
# Elastic Constant Matrix: (Units=GPa)
#
#
# Indices 1 2 3 4 5 6 
#
# 1 107.8710 30.4203 52.9386 0.0000 0.0000 0.0000
# 2 30.4203 107.8710 52.9386 0.0000 0.0000 0.0000
# 3 52.9386 52.9386 120.0506 0.0000 0.0000 0.0000
# 4 0.0000 0.0000 0.0000 38.3623 0.0000 0.0000
# 5 0.0000 0.0000 0.0000 0.0000 38.3623 0.0000
# 6 0.0000 0.0000 0.0000 0.0000 0.0000 11.6721
#
#
#
# Elastic Compliance Matrix: (Units=1/GPa)
#
#
# Indices 1 2 3 4 5 6 
#
# 1 0.011914 -0.000997 -0.004814 0.000000 0.000000 0.000000
# 2 -0.000997 0.011914 -0.004814 0.000000 0.000000 0.000000
# 3 -0.004814 -0.004814 0.012575 0.000000 0.000000 0.000000
# 4 0.000000 0.000000 0.000000 0.026067 0.000000 0.000000
# 5 0.000000 0.000000 0.000000 0.000000 0.026067 0.000000
# 6 0.000000 0.000000 0.000000 0.000000 0.000000 0.085674
#
#
# Mechanical properties :
#
#
# Convention : Reuss Voigt Hill
#
# Bulk Modulus (GPa) = 65.99310 67.59864 66.79587
# Shear Modulus (GPa) = 24.93592 30.97902 27.95747
#
# Velocity S-wave (km/s) = 3.66484 4.08486 3.88054
# Velocity P-wave (km/s) = 7.31120 7.65887 7.48705
#
# Compressibility (1/GPa) = 0.01515310
#
# Stress axis : x y z
#
# Youngs Moduli (GPa) = 83.93439 83.93439 79.52023
#
# Poissons Ratio (x) = 0.08371 0.38281
# Poissons Ratio (y) = 0.08371 0.38281
# Poissons Ratio (z) = 0.40405 0.40405
#
# Static dielectric constant tensor:
#      x y z
#    x 3.670140 0.000000 0.000000 
#    y 0.000000 3.670140 0.000000 
#    z 0.000000 0.000000 3.480410 
# 
# 
# High freq. dielectric constant tensor:
#      x y z
#    x 1.730860 0.000000 0.000000 
#    y 0.000000 1.730860 0.000000 
#    z 0.000000 0.000000 1.716890 
# 
# From -- ./inp_files/11123.got.cif
#   From: 2010.03.12/outbox.cif.g09.slc.cpg/sg139_6_cif.got.tgz:11123.got - 2010.04.08 09:46:31.
