data_PCOD8319557
_publ_section_title
;
Structure prediction by ZEFSAII (Michael W. Deem and Ramdas Pophale) SiO2 
 PCOD8319557
Probable space group: I 4/M M M
;
_chemical_formula_sum "Si O2"
_cell_formula_units_Z 192
_cell_length_a 17.701312
_cell_length_b 17.701312
_cell_length_c 36.194265
_cell_angle_alpha 90.000000
_cell_angle_beta 90.000000
_cell_angle_gamma 90.000000
_cell_volume 11340.982380
_symmetry_space_group_name_H-M "I 4/M M M"
_symmetry_group_IT_number 139
_symmetry_cell_setting 'tetragonal'
loop_
_space_group_symop_operation_xyz
x,y,z
-y,x,z
-x,-y,z
y,-x,z
x,-y,-z
-x,y,-z
y,x,-z
-y,-x,-z
-x,-y,-z
y,-x,-z
x,y,-z
-y,x,-z
-x,y,z
x,-y,z
-y,-x,z
y,x,z
1/2+x,1/2+y,1/2+z
1/2-y,1/2+x,1/2+z
1/2-x,1/2-y,1/2+z
1/2+y,1/2-x,1/2+z
1/2+x,1/2-y,1/2-z
1/2-x,1/2+y,1/2-z
1/2+y,1/2+x,1/2-z
1/2-y,1/2-x,1/2-z
1/2-x,1/2-y,1/2-z
1/2+y,1/2-x,1/2-z
1/2+x,1/2+y,1/2-z
1/2-y,1/2+x,1/2-z
1/2-x,1/2+y,1/2+z
1/2+x,1/2-y,1/2+z
1/2-y,1/2-x,1/2+z
1/2+y,1/2+x,1/2+z
loop_
_atom_site_type_symbol
_atom_site_label
_atom_site_fract_x
_atom_site_fract_y
_atom_site_fract_z
Si Si1 0.413263 0.586738 0.456615
Si Si2 0.584832 0.202430 0.864251
Si Si3 0.085823 0.914178 0.456349
Si Si4 0.082363 0.797357 0.704717
Si Si5 0.810247 0.189754 0.409074
Si Si6 0.186660 0.186660 0.096216
Si Si7 0.706435 0.088929 0.145276
Si Si8 0.196584 0.586240 0.729583
O O1 0.394693 0.500000 0.445699
O O2 0.401547 0.598454 0.500000
O O3 0.356061 0.643940 0.436704
O O4 0.500000 0.192569 0.879363
O O5 0.586253 0.223163 0.820902
O O6 0.624957 0.270143 0.885643
O O7 0.627395 0.122899 0.869560
O O8 0.089862 0.910139 0.500000
O O9 0.147103 0.852898 0.442301
O O10 0.000000 0.894281 0.443202
O O11 0.142887 0.857114 0.691073
O O12 0.096792 0.773189 0.746957
O O13 0.000000 0.835433 0.701024
O O14 0.747151 0.252850 0.420797
O O15 0.124842 0.226098 0.122042
O O16 0.715810 0.112775 0.188134
O O17 0.706024 0.000000 0.138898
O O18 0.168979 0.500000 0.728997
O O19 0.131564 0.631564 0.750000
#
# Coordination Sequence:
#
# PCOD8319557 Si02
#       8
#    16  32  16  32  16  16  32  32
#     4   9  18  35  61  87 107 130 158 192 242 300
#     4  10  19  32  48  69  96 126 164 208 252 293
#     4   9  18  33  53  76 102 133 166 198 234 280
#     4  10  20  33  48  65  88 120 159 208 256 292
#     4  10  19  32  49  74 101 133 164 197 240 289
#     4  10  21  34  52  78 107 133 163 202 244 297
#     4  10  21  34  49  71  98 132 170 206 254 306
#     4  10  20  32  47  67  90 123 166 211 257 298
#
# _framework density 16.929749999999999
#
# number of rings (size 3 to 8) (size 9 to 14) (size 15 to 20)
#    0.000    2.167    2.500    1.500    1.167    1.333 
#    0.000    1.667    0.000    0.000    0.000    0.000 
#    0.000    0.000    0.000   31.000    0.000    0.167 
#
# Total GULP energy -1189922.267398 kJ/mol
# GULP energy per Si atom -12395.023619 kJ/mol
# Density = 1.689122 g / cm^3
# Si number density = 16.929750 Si / 1000 Ang^3
#
#
#
# Elastic Constant Matrix: (Units=GPa)
#
#
# Indices 1 2 3 4 5 6 
#
# 1 106.3271 62.5804 39.6018 0.0000 0.0000 0.0000
# 2 62.5804 106.3270 39.6017 0.0000 0.0000 0.0000
# 3 39.6018 39.6017 65.7266 0.0000 0.0000 0.0000
# 4 0.0000 0.0000 0.0000 25.9472 0.0000 0.0000
# 5 0.0000 0.0000 0.0000 0.0000 25.9472 0.0000
# 6 0.0000 0.0000 0.0000 0.0000 0.0000 36.3796
#
#
#
# Elastic Compliance Matrix: (Units=1/GPa)
#
#
# Indices 1 2 3 4 5 6 
#
# 1 0.015555 -0.007304 -0.004972 0.000000 0.000000 0.000000
# 2 -0.007304 0.015555 -0.004972 0.000000 0.000000 0.000000
# 3 -0.004972 -0.004972 0.021206 0.000000 0.000000 0.000000
# 4 0.000000 0.000000 0.000000 0.038540 0.000000 0.000000
# 5 0.000000 0.000000 0.000000 0.000000 0.038540 0.000000
# 6 0.000000 0.000000 0.000000 0.000000 0.000000 0.027488
#
#
# Mechanical properties :
#
#
# Convention : Reuss Voigt Hill
#
# Bulk Modulus (GPa) = 56.11065 62.43870 59.27468
# Shear Modulus (GPa) = 25.33962 26.76125 26.05044
#
# Velocity S-wave (km/s) = 3.87298 3.98014 3.92693
# Velocity P-wave (km/s) = 7.29487 7.62123 7.45984
#
# Compressibility (1/GPa) = 0.01782193
#
# Stress axis : x y z
#
# Youngs Moduli (GPa) = 64.28660 64.28660 47.15668
#
# Poissons Ratio (x) = 0.46952 0.23446
# Poissons Ratio (y) = 0.46952 0.23446
# Poissons Ratio (z) = 0.31963 0.31963
#
# Static dielectric constant tensor:
#      x y z
#    x 3.155210 0.000000 0.000000 
#    y 0.000000 3.155210 0.000000 
#    z 0.000000 0.000000 2.994900 
# 
# 
# High freq. dielectric constant tensor:
#      x y z
#    x 1.654080 0.000000 0.000000 
#    y 0.000000 1.654080 0.000000 
#    z 0.000000 0.000000 1.634180 
# 
# From -- ./inp_files/14412.got.cif
#   From: 2010.03.12/outbox.cif.g09.slc.cpg/sg139_8_cif.got.tgz:14412.got - 2010.04.08 09:46:31.
