data_PCOD8319791
_publ_section_title
;
Structure prediction by ZEFSAII (Michael W. Deem and Ramdas Pophale) SiO2 
 PCOD8319791
Probable space group: I 4/M M M
;
_chemical_formula_sum "Si O2"
_cell_formula_units_Z 176
_cell_length_a 18.190080
_cell_length_b 18.190080
_cell_length_c 27.806996
_cell_angle_alpha 90.000000
_cell_angle_beta 90.000000
_cell_angle_gamma 90.000000
_cell_volume 9200.751319
_symmetry_space_group_name_H-M "I 4/M M M"
_symmetry_group_IT_number 139
_symmetry_cell_setting 'tetragonal'
loop_
_space_group_symop_operation_xyz
x,y,z
-y,x,z
-x,-y,z
y,-x,z
x,-y,-z
-x,y,-z
y,x,-z
-y,-x,-z
-x,-y,-z
y,-x,-z
x,y,-z
-y,x,-z
-x,y,z
x,-y,z
-y,-x,z
y,x,z
1/2+x,1/2+y,1/2+z
1/2-y,1/2+x,1/2+z
1/2-x,1/2-y,1/2+z
1/2+y,1/2-x,1/2+z
1/2+x,1/2-y,1/2-z
1/2-x,1/2+y,1/2-z
1/2+y,1/2+x,1/2-z
1/2-y,1/2-x,1/2-z
1/2-x,1/2-y,1/2-z
1/2+y,1/2-x,1/2-z
1/2+x,1/2+y,1/2-z
1/2-y,1/2+x,1/2-z
1/2-x,1/2+y,1/2+z
1/2+x,1/2-y,1/2+z
1/2-y,1/2-x,1/2+z
1/2+y,1/2+x,1/2+z
loop_
_atom_site_type_symbol
_atom_site_label
_atom_site_fract_x
_atom_site_fract_y
_atom_site_fract_z
Si Si1 0.193994 0.585125 0.142412
Si Si2 0.701660 0.584608 0.597054
Si Si3 0.918791 0.500000 0.556967
Si Si4 0.304515 0.916785 0.186922
Si Si5 0.338265 0.853783 0.054878
Si Si6 0.796187 0.916344 0.727306
O O1 0.172386 0.500000 0.133613
O O2 0.131287 0.625061 0.173501
O O3 0.206905 0.627658 0.091190
O O4 0.269534 0.590883 0.172160
O O5 0.693850 0.500000 0.580133
O O6 0.620971 0.620971 0.598131
O O7 0.738462 0.591443 0.648957
O O8 0.751375 0.631961 0.559568
O O9 0.921891 0.500000 0.500000
O O10 0.875969 0.428531 0.574666
O O11 0.000000 0.500000 0.579393
O O12 0.270316 0.891369 0.237790
O O13 0.333256 0.000000 0.189777
O O14 0.358246 0.832854 0.000000
O O15 0.867312 0.867312 0.735778
O O16 0.818642 0.000000 0.739475
#
# Coordination Sequence:
#
# PCOD8319791 Si02
#       6
#    32  32  16  32  32  32
#     4  10  21  33  51  81 112 143 177 212 257 316
#     4  10  20  34  52  75 104 139 181 228 274 320
#     4   9  16  28  50  74  95 125 163 207 258 302
#     4   9  19  35  54  78 109 143 179 217 259 309
#     4  10  20  35  52  74 105 138 178 223 266 314
#     4  10  21  38  58  80 106 136 175 221 266 316
#
# _framework density 19.128872999999999
#
# number of rings (size 3 to 8) (size 9 to 14) (size 15 to 20)
#    0.000    2.273    0.909    1.636    1.273    6.545 
#    0.000    0.000    0.000    6.545    0.000    1.273 
#    0.000    0.000    0.000    4.000    0.000    0.000 
#
# Total GULP energy -1091006.270789 kJ/mol
# GULP energy per Si atom -12397.798532 kJ/mol
# Density = 1.908533 g / cm^3
# Si number density = 19.128873 Si / 1000 Ang^3
#
#
#
# Elastic Constant Matrix: (Units=GPa)
#
#
# Indices 1 2 3 4 5 6 
#
# 1 73.5581 46.9340 23.6835 0.0000 0.0000 0.0000
# 2 46.9340 73.5581 23.6835 0.0000 0.0000 0.0000
# 3 23.6835 23.6835 100.8613 0.0000 0.0000 0.0000
# 4 0.0000 0.0000 0.0000 17.8234 0.0000 0.0000
# 5 0.0000 0.0000 0.0000 0.0000 17.8234 0.0000
# 6 0.0000 0.0000 0.0000 0.0000 0.0000 31.2044
#
#
#
# Elastic Compliance Matrix: (Units=1/GPa)
#
#
# Indices 1 2 3 4 5 6 
#
# 1 0.023352 -0.014208 -0.002147 0.000000 0.000000 0.000000
# 2 -0.014208 0.023352 -0.002147 0.000000 0.000000 0.000000
# 3 -0.002147 -0.002147 0.010923 0.000000 0.000000 0.000000
# 4 0.000000 0.000000 0.000000 0.056106 0.000000 0.000000
# 5 0.000000 0.000000 0.000000 0.000000 0.056106 0.000000
# 6 0.000000 0.000000 0.000000 0.000000 0.000000 0.032047
#
#
# Mechanical properties :
#
#
# Convention : Reuss Voigt Hill
#
# Bulk Modulus (GPa) = 48.49281 48.50885 48.50083
# Shear Modulus (GPa) = 20.34476 23.61534 21.98005
#
# Velocity S-wave (km/s) = 3.26477 3.51741 3.39344
# Velocity P-wave (km/s) = 6.29422 6.47381 6.38465
#
# Compressibility (1/GPa) = 0.02062161
#
# Stress axis : x y z
#
# Youngs Moduli (GPa) = 42.82353 42.82353 91.55103
#
# Poissons Ratio (x) = 0.60845 0.19656
# Poissons Ratio (y) = 0.60845 0.19656
# Poissons Ratio (z) = 0.09194 0.09194
#
# Static dielectric constant tensor:
#      x y z
#    x 3.337550 0.000000 0.000000 
#    y 0.000000 3.337550 0.000000 
#    z 0.000000 0.000000 3.579590 
# 
# 
# High freq. dielectric constant tensor:
#      x y z
#    x 1.724150 0.000000 0.000000 
#    y 0.000000 1.724150 0.000000 
#    z 0.000000 0.000000 1.749250 
# 
# From -- ./inp_files/14241.got.cif
#   From: 2010.03.12/outbox.cif.g09.slc.cpg/sg139_8_cif.got.tgz:14241.got - 2010.04.08 09:46:31.
