data_PCOD8319110
_publ_section_title
;
Structure prediction by ZEFSAII (Michael W. Deem and Ramdas Pophale) SiO2 
 PCOD8319110
Probable space group: P 42/N C M
;
_chemical_formula_sum "Si O2"
_cell_formula_units_Z 80
_cell_length_a 11.873607
_cell_length_b 11.873607
_cell_length_c 27.256405
_cell_angle_alpha 90.000000
_cell_angle_beta 90.000000
_cell_angle_gamma 90.000000
_cell_volume 3842.677295
_symmetry_space_group_name_H-M "P 42/N C M"
_symmetry_group_IT_number 138
_space_group.IT_coordinate_system_code '2'
_symmetry_cell_setting 'tetragonal'
loop_
_space_group_symop_operation_xyz
x,y,z
1/2-y,x,1/2+z
1/2-x,1/2-y,z
y,1/2-x,1/2+z
1/2+x,-y,1/2-z
-x,1/2+y,1/2-z
1/2+y,1/2+x,-z
-y,-x,-z
-x,-y,-z
1/2+y,-x,1/2-z
1/2+x,1/2+y,-z
-y,1/2+x,1/2-z
1/2-x,y,1/2+z
x,1/2-y,1/2+z
1/2-y,1/2-x,z
y,x,z
loop_
_atom_site_type_symbol
_atom_site_label
_atom_site_fract_x
_atom_site_fract_y
_atom_site_fract_z
Si Si1 0.795699 0.376177 0.630150
Si Si2 0.175049 0.986478 0.973472
Si Si3 0.654903 0.845098 0.979872
Si Si4 0.045059 0.869622 0.705597
Si Si5 0.840293 0.659708 0.870687
Si Si6 0.773357 0.472058 0.305455
O O1 0.750000 0.250000 0.619896
O O2 0.806765 0.447244 0.581465
O O3 0.719428 0.460411 0.662087
O O4 0.912541 0.364522 0.659537
O O5 0.126308 0.873693 0.000000
O O6 0.082466 0.082466 0.976029
O O7 0.292481 0.040201 0.995204
O O8 0.750000 0.750000 0.981779
O O9 0.617594 0.882407 0.924318
O O10 0.983508 0.831471 0.755896
O O11 0.177303 0.888829 0.715100
O O12 0.982741 0.982741 0.687197
O O13 0.750000 0.750000 0.886188
O O14 0.782127 0.566496 0.838106
#
# Coordination Sequence:
#
# PCOD8319110 Si02
#       6
#    16  16   8  16   8  16
#     4  10  23  38  64  90 123 165 207 252 319 375
#     4  10  21  40  64  91 124 162 209 259 321 388
#     4   9  20  38  63  91 129 167 208 267 323 378
#     4  11  22  39  62  88 124 164 207 254 311 385
#     4  11  22  38  63  95 125 162 218 268 308 368
#     4  11  21  40  62  87 125 168 209 256 315 380
#
# _framework density 20.818816999999999
#
# number of rings (size 3 to 8) (size 9 to 14) (size 15 to 20)
#    0.000    1.600    3.000    1.800    1.400    3.600 
#    1.800    0.000    0.000    3.600    0.000    0.000 
#    0.000    0.000    0.000    0.000    0.000    0.000 
#
# Total GULP energy -991166.541583 kJ/mol
# GULP energy per Si atom -12389.581770 kJ/mol
# Density = 2.077143 g / cm^3
# Si number density = 20.818817 Si / 1000 Ang^3
#
#
#
# Elastic Constant Matrix: (Units=GPa)
#
#
# Indices 1 2 3 4 5 6 
#
# 1 59.9399 50.3499 43.3438 0.0000 0.0000 0.0000
# 2 50.3499 59.9405 43.3437 0.0000 0.0000 0.0000
# 3 43.3438 43.3437 150.2158 0.0000 0.0000 0.0000
# 4 0.0000 0.0000 0.0000 42.7674 0.0000 0.0000
# 5 0.0000 0.0000 0.0000 0.0000 42.7654 0.0000
# 6 0.0000 0.0000 0.0000 0.0000 0.0000 34.4928
#
#
#
# Elastic Compliance Matrix: (Units=1/GPa)
#
#
# Indices 1 2 3 4 5 6 
#
# 1 0.057999 -0.046273 -0.003384 0.000000 0.000000 0.000000
# 2 -0.046273 0.057999 -0.003383 0.000000 0.000000 0.000000
# 3 -0.003384 -0.003383 0.008610 0.000000 0.000000 0.000000
# 4 0.000000 0.000000 0.000000 0.023382 0.000000 0.000000
# 5 0.000000 0.000000 0.000000 0.000000 0.023383 0.000000
# 6 0.000000 0.000000 0.000000 0.000000 0.000000 0.028992
#
#
# Mechanical properties :
#
#
# Convention : Reuss Voigt Hill
#
# Bulk Modulus (GPa) = 53.97148 60.46344 57.21746
# Shear Modulus (GPa) = 15.99382 32.87573 24.43478
#
# Velocity S-wave (km/s) = 2.77472 3.97814 3.42963
# Velocity P-wave (km/s) = 6.02047 7.08566 6.57467
#
# Compressibility (1/GPa) = 0.01852830
#
# Stress axis : x y z
#
# Youngs Moduli (GPa) = 17.24153 17.24178 116.14780
#
# Poissons Ratio (x) = 0.79782 0.39301
# Poissons Ratio (y) = 0.79781 0.39298
# Poissons Ratio (z) = 0.05834 0.05834
#
# Static dielectric constant tensor:
#      x y z
#    x 3.877860 0.000000 0.000000 
#    y 0.000000 3.877850 0.000000 
#    z 0.000000 0.000000 3.791400 
# 
# 
# High freq. dielectric constant tensor:
#      x y z
#    x 1.808130 0.000000 0.000000 
#    y 0.000000 1.808130 0.000000 
#    z 0.000000 0.000000 1.827910 
# 
# From -- ./inp_files/7962.got.cif
#   From: 2010.03.12/outbox.cif.g09.slc.cpg/sg138_4_cif.got.tgz:7962.got - 2010.04.08 09:41:05.
