data_PCOD8319972
_publ_section_title
;
Structure prediction by ZEFSAII (Michael W. Deem and Ramdas Pophale) SiO2 
 PCOD8319972
Probable space group: I 4/M M M
;
_chemical_formula_sum "Si O2"
_cell_formula_units_Z 176
_cell_length_a 22.959874
_cell_length_b 22.959874
_cell_length_c 16.629105
_cell_angle_alpha 90.000000
_cell_angle_beta 90.000000
_cell_angle_gamma 90.000000
_cell_volume 8766.129384
_symmetry_space_group_name_H-M "I 4/M M M"
_symmetry_group_IT_number 139
_symmetry_cell_setting 'tetragonal'
loop_
_space_group_symop_operation_xyz
x,y,z
-y,x,z
-x,-y,z
y,-x,z
x,-y,-z
-x,y,-z
y,x,-z
-y,-x,-z
-x,-y,-z
y,-x,-z
x,y,-z
-y,x,-z
-x,y,z
x,-y,z
-y,-x,z
y,x,z
1/2+x,1/2+y,1/2+z
1/2-y,1/2+x,1/2+z
1/2-x,1/2-y,1/2+z
1/2+y,1/2-x,1/2+z
1/2+x,1/2-y,1/2-z
1/2-x,1/2+y,1/2-z
1/2+y,1/2+x,1/2-z
1/2-y,1/2-x,1/2-z
1/2-x,1/2-y,1/2-z
1/2+y,1/2-x,1/2-z
1/2+x,1/2+y,1/2-z
1/2-y,1/2+x,1/2-z
1/2-x,1/2+y,1/2+z
1/2+x,1/2-y,1/2+z
1/2-y,1/2-x,1/2+z
1/2+y,1/2+x,1/2+z
loop_
_atom_site_type_symbol
_atom_site_label
_atom_site_fract_x
_atom_site_fract_y
_atom_site_fract_z
Si Si1 0.879852 0.789736 0.646771
Si Si2 0.371463 0.000000 0.095943
Si Si3 0.783735 0.117673 0.826402
Si Si4 0.337096 0.435557 0.000000
Si Si5 0.682132 0.176456 0.593385
Si Si6 0.935278 0.613263 0.594829
Si Si7 0.500000 0.738206 0.404972
O O1 0.854055 0.854055 0.657423
O O2 0.902235 0.771191 0.734669
O O3 0.929375 0.794885 0.578093
O O4 0.825923 0.749684 0.616046
O O5 0.406557 0.054861 0.130501
O O6 0.304862 0.000000 0.127282
O O7 0.369453 0.000000 0.000000
O O8 0.838695 0.161306 0.836774
O O9 0.725484 0.149298 0.856753
O O10 0.795008 0.058114 0.874945
O O11 0.364387 0.500000 0.000000
O O12 0.388648 0.388648 0.000000
O O13 0.670395 0.190417 0.500000
O O14 0.663722 0.110228 0.616988
O O15 0.941524 0.606552 0.500000
O O16 0.000000 0.624662 0.631913
O O17 0.500000 0.735940 0.500000
#
# Coordination Sequence:
#
# PCOD8319972 Si02
#       7
#    32  16  32  16  32  32  16
#     4  10  22  40  60  87 122 159 198 247 307 372
#     4   9  15  30  51  74 110 153 196 240 285 331
#     4  11  24  40  62  89 122 161 203 257 319 376
#     4  10  22  41  66  94 126 163 205 253 312 384
#     4  11  20  34  57  88 123 160 207 254 303 365
#     4   9  17  28  46  76 113 155 199 239 282 338
#     4  11  22  39  62  89 123 154 200 255 309 378
#
# _framework density 20.077276999999999
#
# number of rings (size 3 to 8) (size 9 to 14) (size 15 to 20)
#    0.000    1.818    2.727    1.909    1.273    5.545 
#    0.000    0.000    0.000    0.273    0.000    0.636 
#    0.000    0.000    0.000    0.000    0.000    0.182 
#
# Total GULP energy -1090514.785287 kJ/mol
# GULP energy per Si atom -12392.213469 kJ/mol
# Density = 2.003158 g / cm^3
# Si number density = 20.077277 Si / 1000 Ang^3
#
#
#
# Elastic Constant Matrix: (Units=GPa)
#
#
# Indices 1 2 3 4 5 6 
#
# 1 104.6963 46.4200 45.4138 0.0000 0.0000 0.0000
# 2 46.4200 104.6963 45.4138 0.0000 0.0000 0.0000
# 3 45.4138 45.4138 116.9526 0.0000 0.0000 0.0000
# 4 0.0000 0.0000 0.0000 17.5693 0.0000 0.0000
# 5 0.0000 0.0000 0.0000 0.0000 17.5693 0.0000
# 6 0.0000 0.0000 0.0000 0.0000 0.0000 25.1996
#
#
#
# Elastic Compliance Matrix: (Units=1/GPa)
#
#
# Indices 1 2 3 4 5 6 
#
# 1 0.012896 -0.004264 -0.003352 0.000000 0.000000 0.000000
# 2 -0.004264 0.012896 -0.003352 0.000000 0.000000 0.000000
# 3 -0.003352 -0.003352 0.011154 0.000000 0.000000 0.000000
# 4 0.000000 0.000000 0.000000 0.056918 0.000000 0.000000
# 5 0.000000 0.000000 0.000000 0.000000 0.056918 0.000000
# 6 0.000000 0.000000 0.000000 0.000000 0.000000 0.039683
#
#
# Mechanical properties :
#
#
# Convention : Reuss Voigt Hill
#
# Bulk Modulus (GPa) = 66.62172 66.76002 66.69087
# Shear Modulus (GPa) = 22.99884 24.67414 23.83649
#
# Velocity S-wave (km/s) = 3.38822 3.50945 3.44937
# Velocity P-wave (km/s) = 6.96860 7.05304 7.01095
#
# Compressibility (1/GPa) = 0.01501012
#
# Stress axis : x y z
#
# Youngs Moduli (GPa) = 77.54433 77.54433 89.65694
#
# Poissons Ratio (x) = 0.33063 0.30052
# Poissons Ratio (y) = 0.33063 0.30052
# Poissons Ratio (z) = 0.25992 0.25992
#
# Static dielectric constant tensor:
#      x y z
#    x 3.631120 0.000000 0.000000 
#    y 0.000000 3.631120 0.000000 
#    z 0.000000 0.000000 3.607150 
# 
# 
# High freq. dielectric constant tensor:
#      x y z
#    x 1.775440 0.000000 0.000000 
#    y 0.000000 1.775440 0.000000 
#    z 0.000000 0.000000 1.771990 
# 
# From -- ./inp_files/6152.got.cif
#   From: 2010.03.12/outbox.cif.g09.slc.cpg/sg139_4_cif.got.tgz:6152.got - 2010.04.08 09:46:31.
