data_PCOD8319768
_publ_section_title
;
Structure prediction by ZEFSAII (Michael W. Deem and Ramdas Pophale) SiO2 
 PCOD8319768
Probable space group: I 4/M M M
;
_chemical_formula_sum "Si O2"
_cell_formula_units_Z 144
_cell_length_a 26.961872
_cell_length_b 26.961872
_cell_length_c 10.626024
_cell_angle_alpha 90.000000
_cell_angle_beta 90.000000
_cell_angle_gamma 90.000000
_cell_volume 7724.508895
_symmetry_space_group_name_H-M "I 4/M M M"
_symmetry_group_IT_number 139
_symmetry_cell_setting 'tetragonal'
loop_
_space_group_symop_operation_xyz
x,y,z
-y,x,z
-x,-y,z
y,-x,z
x,-y,-z
-x,y,-z
y,x,-z
-y,-x,-z
-x,-y,-z
y,-x,-z
x,y,-z
-y,x,-z
-x,y,z
x,-y,z
-y,-x,z
y,x,z
1/2+x,1/2+y,1/2+z
1/2-y,1/2+x,1/2+z
1/2-x,1/2-y,1/2+z
1/2+y,1/2-x,1/2+z
1/2+x,1/2-y,1/2-z
1/2-x,1/2+y,1/2-z
1/2+y,1/2+x,1/2-z
1/2-y,1/2-x,1/2-z
1/2-x,1/2-y,1/2-z
1/2+y,1/2-x,1/2-z
1/2+x,1/2+y,1/2-z
1/2-y,1/2+x,1/2-z
1/2-x,1/2+y,1/2+z
1/2+x,1/2-y,1/2+z
1/2-y,1/2-x,1/2+z
1/2+y,1/2+x,1/2+z
loop_
_atom_site_type_symbol
_atom_site_label
_atom_site_fract_x
_atom_site_fract_y
_atom_site_fract_z
Si Si1 0.384289 0.305158 0.294647
Si Si2 0.945155 0.132561 0.645422
Si Si3 0.558004 0.363418 0.500000
Si Si4 0.362994 0.807160 0.355352
Si Si5 0.609875 0.056958 0.858490
O O1 0.329607 0.329607 0.307842
O O2 0.411183 0.317216 0.161702
O O3 0.424524 0.331689 0.381721
O O4 0.379857 0.247962 0.325432
O O5 0.952602 0.124166 0.500000
O O6 0.914154 0.085847 0.703504
O O7 0.000000 0.135474 0.708891
O O8 0.500000 0.370587 0.500000
O O9 0.582494 0.417507 0.500000
O O10 0.342371 0.811138 0.500000
O O11 0.322337 0.822337 0.250000
O O12 0.411422 0.840646 0.338460
O O13 0.570226 0.070226 0.750000
O O14 0.625003 0.000000 0.842246
O O15 0.588016 0.066449 0.000000
#
# Coordination Sequence:
#
# PCOD8319768 Si02
#       5
#    32  32  16  32  32
#     4  10  20  35  53  76 106 139 179 226 278 331
#     4   9  18  32  50  74 106 143 184 230 278 331
#     4  10  20  33  52  78 110 146 185 229 275 327
#     4  10  21  38  58  81 109 143 182 231 279 334
#     4   9  19  35  54  78 107 138 174 214 260 318
#
# _framework density 18.641961999999999
#
# number of rings (size 3 to 8) (size 9 to 14) (size 15 to 20)
#    0.000    2.444    1.111    0.667    0.000    4.111 
#    0.000    2.222    0.000    4.000    0.000    0.000 
#    0.000    0.000    0.000    0.000    0.000    0.000 
#
# Total GULP energy -891970.739055 kJ/mol
# GULP energy per Si atom -12388.482487 kJ/mol
# Density = 1.859953 g / cm^3
# Si number density = 18.641962 Si / 1000 Ang^3
#
#
#
# Elastic Constant Matrix: (Units=GPa)
#
#
# Indices 1 2 3 4 5 6 
#
# 1 113.3809 49.4646 50.0554 0.0000 0.0000 0.0000
# 2 49.4646 113.3756 50.0543 0.0000 0.0000 0.0000
# 3 50.0554 50.0543 92.3667 0.0000 0.0000 0.0000
# 4 0.0000 0.0000 0.0000 -22.8141 0.0000 0.0000
# 5 0.0000 0.0000 0.0000 0.0000 -22.8200 0.0000
# 6 0.0000 0.0000 0.0000 0.0000 0.0000 12.7515
#
#
#
# Elastic Compliance Matrix: (Units=1/GPa)
#
#
# Indices 1 2 3 4 5 6 
#
# 1 0.012427 -0.003219 -0.004990 0.000000 0.000000 0.000000
# 2 -0.003219 0.012428 -0.004990 0.000000 0.000000 0.000000
# 3 -0.004990 -0.004990 0.016235 0.000000 0.000000 0.000000
# 4 0.000000 0.000000 0.000000 -0.043833 0.000000 0.000000
# 5 0.000000 0.000000 0.000000 0.000000 -0.043821 0.000000
# 6 0.000000 0.000000 0.000000 0.000000 0.000000 0.078422
#
#
# Mechanical properties :
#
#
# Convention : Reuss Voigt Hill
#
# Bulk Modulus (GPa) = 68.06797 68.69686 68.38241
# Shear Modulus (GPa) = 79.17165 4.72676 41.94921
#
# Velocity S-wave (km/s) = 6.52394 1.59407 4.74883
# Velocity P-wave (km/s) = 9.66135 6.34970 8.17497
#
# Compressibility (1/GPa) = 0.01469120
#
# Stress axis : x y z
#
# Youngs Moduli (GPa) = 80.46898 80.46511 61.59489
#
# Poissons Ratio (x) = 0.25899 0.30738
# Poissons Ratio (y) = 0.25900 0.30739
# Poissons Ratio (z) = 0.40156 0.40156
#
# Static dielectric constant tensor:
#      x y z
#    x 3.404940 0.000000 0.000000 
#    y 0.000000 3.404940 0.000000 
#    z 0.000000 0.000000 3.558320 
# 
# 
# High freq. dielectric constant tensor:
#      x y z
#    x 1.713080 0.000000 0.000000 
#    y 0.000000 1.713080 0.000000 
#    z 0.000000 0.000000 1.741450 
# 
# From -- ./inp_files/3739.got.cif
#   From: 2010.03.12/outbox.cif.g09.slc.cpg/sg139_2_cif.got.tgz:3739.got - 2010.04.08 09:46:31.
