data_PCOD8319698
_publ_section_title
;
Structure prediction by ZEFSAII (Michael W. Deem and Ramdas Pophale) SiO2 
 PCOD8319698
Probable space group: I 4/M M M
;
_chemical_formula_sum "Si O2"
_cell_formula_units_Z 112
_cell_length_a 13.526497
_cell_length_b 13.526497
_cell_length_c 35.833058
_cell_angle_alpha 90.000000
_cell_angle_beta 90.000000
_cell_angle_gamma 90.000000
_cell_volume 6556.235629
_symmetry_space_group_name_H-M "I 4/M M M"
_symmetry_group_IT_number 139
_symmetry_cell_setting 'tetragonal'
loop_
_space_group_symop_operation_xyz
x,y,z
-y,x,z
-x,-y,z
y,-x,z
x,-y,-z
-x,y,-z
y,x,-z
-y,-x,-z
-x,-y,-z
y,-x,-z
x,y,-z
-y,x,-z
-x,y,z
x,-y,z
-y,-x,z
y,x,z
1/2+x,1/2+y,1/2+z
1/2-y,1/2+x,1/2+z
1/2-x,1/2-y,1/2+z
1/2+y,1/2-x,1/2+z
1/2+x,1/2-y,1/2-z
1/2-x,1/2+y,1/2-z
1/2+y,1/2+x,1/2-z
1/2-y,1/2-x,1/2-z
1/2-x,1/2-y,1/2-z
1/2+y,1/2-x,1/2-z
1/2+x,1/2+y,1/2-z
1/2-y,1/2+x,1/2-z
1/2-x,1/2+y,1/2+z
1/2+x,1/2-y,1/2+z
1/2-y,1/2-x,1/2+z
1/2+y,1/2+x,1/2+z
loop_
_atom_site_type_symbol
_atom_site_label
_atom_site_fract_x
_atom_site_fract_y
_atom_site_fract_z
Si Si1 0.889772 0.617209 0.458864
Si Si2 0.886815 0.386815 0.750000
Si Si3 0.224138 0.615435 0.174967
Si Si4 0.883843 0.274337 0.887276
O O1 0.851598 0.650483 0.500000
O O2 0.895251 0.500000 0.456741
O O3 0.816195 0.655222 0.426915
O O4 0.000000 0.660198 0.452022
O O5 0.869622 0.500000 0.737997
O O6 0.818171 0.357568 0.784519
O O7 0.246899 0.500000 0.170948
O O8 0.326009 0.673992 0.168461
O O9 0.142709 0.646274 0.144472
O O10 0.829146 0.170855 0.879506
O O11 0.000000 0.253510 0.886971
#
# Coordination Sequence:
#
# PCOD8319698 Si02
#       4
#    32  16  32  32
#     4   8  14  26  45  67  89 115 150 192 234 274
#     4   9  17  30  50  74  97 123 156 192 229 273
#     4  10  20  33  50  72  97 125 158 196 237 281
#     4  10  20  32  47  68  94 125 161 200 241 286
#
# _framework density 17.082972999999999
#
# number of rings (size 3 to 8) (size 9 to 14) (size 15 to 20)
#    0.000    2.714    0.000    3.000    0.000    4.000 
#    0.000    0.000    0.000    0.000    0.000    8.000 
#    0.000    0.000    0.000   26.571    0.000    1.429 
#
# Total GULP energy -694265.126175 kJ/mol
# GULP energy per Si atom -12397.591539 kJ/mol
# Density = 1.704409 g / cm^3
# Si number density = 17.082973 Si / 1000 Ang^3
#
#
#
# Elastic Constant Matrix: (Units=GPa)
#
#
# Indices 1 2 3 4 5 6 
#
# 1 74.9379 34.3371 41.6769 0.0000 0.0000 0.0000
# 2 34.3371 74.9379 41.6769 0.0000 0.0000 0.0000
# 3 41.6769 41.6769 110.1295 0.0000 0.0000 0.0000
# 4 0.0000 0.0000 0.0000 23.1221 0.0000 0.0000
# 5 0.0000 0.0000 0.0000 0.0000 23.1221 0.0000
# 6 0.0000 0.0000 0.0000 0.0000 0.0000 15.1909
#
#
#
# Elastic Compliance Matrix: (Units=1/GPa)
#
#
# Indices 1 2 3 4 5 6 
#
# 1 0.018747 -0.005883 -0.004869 0.000000 0.000000 0.000000
# 2 -0.005883 0.018747 -0.004869 0.000000 0.000000 0.000000
# 3 -0.004869 -0.004869 0.012765 0.000000 0.000000 0.000000
# 4 0.000000 0.000000 0.000000 0.043249 0.000000 0.000000
# 5 0.000000 0.000000 0.000000 0.000000 0.043249 0.000000
# 6 0.000000 0.000000 0.000000 0.000000 0.000000 0.065829
#
#
# Mechanical properties :
#
#
# Convention : Reuss Voigt Hill
#
# Bulk Modulus (GPa) = 52.57425 55.04301 53.80863
# Shear Modulus (GPa) = 20.81895 21.77464 21.29679
#
# Velocity S-wave (km/s) = 3.49477 3.57408 3.53465
# Velocity P-wave (km/s) = 6.86492 7.02303 6.94443
#
# Compressibility (1/GPa) = 0.01902072
#
# Stress axis : x y z
#
# Youngs Moduli (GPa) = 53.34056 53.34056 78.33890
#
# Poissons Ratio (x) = 0.31378 0.38139
# Poissons Ratio (y) = 0.31378 0.38139
# Poissons Ratio (z) = 0.25969 0.25969
#
# Static dielectric constant tensor:
#      x y z
#    x 2.951740 0.000000 0.000000 
#    y 0.000000 2.951740 0.000000 
#    z 0.000000 0.000000 3.491470 
# 
# 
# High freq. dielectric constant tensor:
#      x y z
#    x 1.640140 0.000000 0.000000 
#    y 0.000000 1.640140 0.000000 
#    z 0.000000 0.000000 1.677660 
# 
# From -- ./inp_files/13708.got.cif
#   From: 2010.03.12/outbox.cif.g09.slc.cpg/sg139_7_cif.got.tgz:13708.got - 2010.04.08 09:46:31.
