data_PCOD8319125
_publ_section_title
;
Structure prediction by ZEFSAII (Michael W. Deem and Ramdas Pophale) SiO2 
 PCOD8319125
Probable space group: P 42/N C M
;
_chemical_formula_sum "Si O2"
_cell_formula_units_Z 64
_cell_length_a 11.294215
_cell_length_b 11.294215
_cell_length_c 23.536450
_cell_angle_alpha 90.000000
_cell_angle_beta 90.000000
_cell_angle_gamma 90.000000
_cell_volume 3002.292909
_symmetry_space_group_name_H-M "P 42/N C M"
_symmetry_group_IT_number 138
_space_group.IT_coordinate_system_code '2'
_symmetry_cell_setting 'tetragonal'
loop_
_space_group_symop_operation_xyz
x,y,z
1/2-y,x,1/2+z
1/2-x,1/2-y,z
y,1/2-x,1/2+z
1/2+x,-y,1/2-z
-x,1/2+y,1/2-z
1/2+y,1/2+x,-z
-y,-x,-z
-x,-y,-z
1/2+y,-x,1/2-z
1/2+x,1/2+y,-z
-y,1/2+x,1/2-z
1/2-x,y,1/2+z
x,1/2-y,1/2+z
1/2-y,1/2-x,z
y,x,z
loop_
_atom_site_type_symbol
_atom_site_label
_atom_site_fract_x
_atom_site_fract_y
_atom_site_fract_z
Si Si1 0.914296 0.585705 0.072084
Si Si2 0.717330 0.439250 0.253196
Si Si3 0.003502 0.818934 0.131349
Si Si4 0.503036 0.694406 0.868707
Si Si5 0.390673 0.109328 0.054152
O O1 0.981494 0.690198 0.105238
O O2 0.011588 0.488413 0.061819
O O3 0.865485 0.634516 0.012097
O O4 0.843032 0.383496 0.238286
O O5 0.686452 0.520437 0.199248
O O6 0.722460 0.508058 0.312955
O O7 0.906112 0.906112 0.104152
O O8 0.137925 0.870796 0.119173
O O9 0.581144 0.581144 0.854894
O O10 0.559860 0.768014 0.920079
#
# Coordination Sequence:
#
# PCOD8319125 Si02
#       5
#     8  16  16  16   8
#     4  11  25  43  63  87 119 163 211 258 303 360
#     4   9  18  34  57  86 122 160 197 243 298 360
#     4  10  22  39  61  91 124 160 201 252 314 372
#     4  10  22  39  61  91 124 160 201 252 314 372
#     4  11  25  43  63  87 119 163 211 258 303 360
#
# _framework density 21.317043000000002
#
# number of rings (size 3 to 8) (size 9 to 14) (size 15 to 20)
#    0.000    2.000    0.000    2.250    3.500    6.000 
#    0.000    5.000    0.000    0.000    0.000    0.000 
#    0.000    0.000    0.000    0.000    0.000    0.000 
#
# Total GULP energy -793171.212926 kJ/mol
# GULP energy per Si atom -12393.300202 kJ/mol
# Density = 2.126852 g / cm^3
# Si number density = 21.317043 Si / 1000 Ang^3
#
#
#
# Elastic Constant Matrix: (Units=GPa)
#
#
# Indices 1 2 3 4 5 6 
#
# 1 76.1513 26.7814 31.0904 0.0000 0.0000 0.0000
# 2 26.7814 76.1513 31.0904 0.0000 0.0000 0.0000
# 3 31.0904 31.0904 98.3938 0.0000 0.0000 0.0000
# 4 0.0000 0.0000 0.0000 28.6940 0.0000 0.0000
# 5 0.0000 0.0000 0.0000 0.0000 28.6940 0.0000
# 6 0.0000 0.0000 0.0000 0.0000 0.0000 34.8379
#
#
#
# Elastic Compliance Matrix: (Units=1/GPa)
#
#
# Indices 1 2 3 4 5 6 
#
# 1 0.016131 -0.004124 -0.003794 0.000000 0.000000 0.000000
# 2 -0.004124 0.016131 -0.003794 0.000000 0.000000 0.000000
# 3 -0.003794 -0.003794 0.012561 0.000000 0.000000 0.000000
# 4 0.000000 0.000000 0.000000 0.034851 0.000000 0.000000
# 5 0.000000 0.000000 0.000000 0.000000 0.034851 0.000000
# 6 0.000000 0.000000 0.000000 0.000000 0.000000 0.028704
#
#
# Mechanical properties :
#
#
# Convention : Reuss Voigt Hill
#
# Bulk Modulus (GPa) = 46.73116 47.62455 47.17785
# Shear Modulus (GPa) = 28.77107 29.22744 28.99925
#
# Velocity S-wave (km/s) = 3.67778 3.70683 3.69233
# Velocity P-wave (km/s) = 6.32489 6.38047 6.35274
#
# Compressibility (1/GPa) = 0.02139900
#
# Stress axis : x y z
#
# Youngs Moduli (GPa) = 61.99198 61.99198 79.61231
#
# Poissons Ratio (x) = 0.25566 0.30205
# Poissons Ratio (y) = 0.25566 0.30205
# Poissons Ratio (z) = 0.23520 0.23520
#
# Static dielectric constant tensor:
#      x y z
#    x 3.836810 0.000000 0.000000 
#    y 0.000000 3.836810 0.000000 
#    z 0.000000 0.000000 4.347230 
# 
# 
# High freq. dielectric constant tensor:
#      x y z
#    x 1.836970 0.000000 0.000000 
#    y 0.000000 1.836970 0.000000 
#    z 0.000000 0.000000 1.826240 
# 
# From -- ./inp_files/5825.got.cif
#   From: 2010.03.12/outbox.cif.g09.slc.cpg/sg138_3_cif.got.tgz:5825.got - 2010.04.08 09:41:05.
