data_PCOD8319207
_publ_section_title
;
Structure prediction by ZEFSAII (Michael W. Deem and Ramdas Pophale) SiO2 
 PCOD8319207
Probable space group: P 42/N C M
;
_chemical_formula_sum "Si O2"
_cell_formula_units_Z 64
_cell_length_a 12.029673
_cell_length_b 12.029673
_cell_length_c 21.926835
_cell_angle_alpha 90.000000
_cell_angle_beta 90.000000
_cell_angle_gamma 90.000000
_cell_volume 3173.098786
_symmetry_space_group_name_H-M "P 42/N C M"
_symmetry_group_IT_number 138
_space_group.IT_coordinate_system_code '2'
_symmetry_cell_setting 'tetragonal'
loop_
_space_group_symop_operation_xyz
x,y,z
1/2-y,x,1/2+z
1/2-x,1/2-y,z
y,1/2-x,1/2+z
1/2+x,-y,1/2-z
-x,1/2+y,1/2-z
1/2+y,1/2+x,-z
-y,-x,-z
-x,-y,-z
1/2+y,-x,1/2-z
1/2+x,1/2+y,-z
-y,1/2+x,1/2-z
1/2-x,y,1/2+z
x,1/2-y,1/2+z
1/2-y,1/2-x,z
y,x,z
loop_
_atom_site_type_symbol
_atom_site_label
_atom_site_fract_x
_atom_site_fract_y
_atom_site_fract_z
Si Si1 0.289867 0.582018 0.272407
Si Si2 0.661239 0.838762 0.275696
Si Si3 0.264003 0.554283 0.017465
Si Si4 0.160986 0.339015 0.580488
Si Si5 0.946654 0.368799 0.907541
O O1 0.164477 0.622308 0.259654
O O2 0.304963 0.459788 0.246681
O O3 0.308698 0.579705 0.344522
O O4 0.750000 0.750000 0.249118
O O5 0.663828 0.836173 0.347529
O O6 0.317956 0.462015 0.058621
O O7 0.168548 0.604147 0.059903
O O8 0.351247 0.648754 0.000000
O O9 0.216563 0.496428 0.955352
O O10 0.250000 0.250000 0.554519
O O11 0.022256 0.477745 0.897029
#
# Coordination Sequence:
#
# PCOD8319207 Si02
#       5
#    16   8  16   8  16
#     4  11  26  43  70  99 137 185 236 288 356 422
#     4  11  26  47  71 103 141 186 234 292 353 425
#     4  11  24  39  67  98 132 171 229 281 341 402
#     4  11  23  43  65  93 135 179 219 279 347 411
#     4  11  22  43  66  95 129 177 223 281 341 420
#
# _framework density 20.169557000000001
#
# number of rings (size 3 to 8) (size 9 to 14) (size 15 to 20)
#    0.000    1.000    1.250    6.375   12.250    2.000 
#    2.250    0.000    0.000    0.000    0.000    0.000 
#    0.000    0.000    0.000    0.000    0.000    0.000 
#
# Total GULP energy -793536.543771 kJ/mol
# GULP energy per Si atom -12399.008496 kJ/mol
# Density = 2.012365 g / cm^3
# Si number density = 20.169557 Si / 1000 Ang^3
#
#
#
# Elastic Constant Matrix: (Units=GPa)
#
#
# Indices 1 2 3 4 5 6 
#
# 1 126.4809 69.7260 54.5068 0.0000 0.0000 0.0000
# 2 69.7260 126.4825 54.5079 0.0000 0.0000 0.0000
# 3 54.5068 54.5079 146.5031 0.0000 0.0000 0.0000
# 4 0.0000 0.0000 0.0000 29.7729 0.0000 0.0000
# 5 0.0000 0.0000 0.0000 0.0000 29.7743 0.0000
# 6 0.0000 0.0000 0.0000 0.0000 0.0000 28.3726
#
#
#
# Elastic Compliance Matrix: (Units=1/GPa)
#
#
# Indices 1 2 3 4 5 6 
#
# 1 0.012022 -0.005597 -0.002390 0.000000 0.000000 0.000000
# 2 -0.005597 0.012022 -0.002390 0.000000 0.000000 0.000000
# 3 -0.002390 -0.002390 0.008604 0.000000 0.000000 0.000000
# 4 0.000000 0.000000 0.000000 0.033588 0.000000 0.000000
# 5 0.000000 0.000000 0.000000 0.000000 0.033586 0.000000
# 6 0.000000 0.000000 0.000000 0.000000 0.000000 0.035245
#
#
# Mechanical properties :
#
#
# Convention : Reuss Voigt Hill
#
# Bulk Modulus (GPa) = 84.08643 84.10533 84.09588
# Shear Modulus (GPa) = 31.29150 32.29901 31.79525
#
# Velocity S-wave (km/s) = 3.94308 4.00606 3.97470
# Velocity P-wave (km/s) = 7.90638 7.94907 7.92775
#
# Compressibility (1/GPa) = 0.01189253
#
# Stress axis : x y z
#
# Youngs Moduli (GPa) = 83.18011 83.18069 116.21841
#
# Poissons Ratio (x) = 0.46559 0.27780
# Poissons Ratio (y) = 0.46559 0.27781
# Poissons Ratio (z) = 0.19883 0.19884
#
# Static dielectric constant tensor:
#      x y z
#    x 3.757900 0.000000 0.000000 
#    y 0.000000 3.757900 0.000000 
#    z 0.000000 0.000000 4.126150 
# 
# 
# High freq. dielectric constant tensor:
#      x y z
#    x 1.795120 0.000000 0.000000 
#    y 0.000000 1.795120 0.000000 
#    z 0.000000 0.000000 1.806570 
# 
# From -- ./inp_files/6784.got.cif
#   From: 2010.03.12/outbox.cif.g09.slc.cpg/sg138_4_cif.got.tgz:6784.got - 2010.04.08 09:41:05.
