data_PCOD8319381
_publ_section_title
;
Structure prediction by ZEFSAII (Michael W. Deem and Ramdas Pophale) SiO2 
 PCOD8319381
Probable space group: I 4/M M M
;
_chemical_formula_sum "Si O2"
_cell_formula_units_Z 176
_cell_length_a 25.348386
_cell_length_b 25.348386
_cell_length_c 16.225553
_cell_angle_alpha 90.000000
_cell_angle_beta 90.000000
_cell_angle_gamma 90.000000
_cell_volume 10425.577741
_symmetry_space_group_name_H-M "I 4/M M M"
_symmetry_group_IT_number 139
_symmetry_cell_setting 'tetragonal'
loop_
_space_group_symop_operation_xyz
x,y,z
-y,x,z
-x,-y,z
y,-x,z
x,-y,-z
-x,y,-z
y,x,-z
-y,-x,-z
-x,-y,-z
y,-x,-z
x,y,-z
-y,x,-z
-x,y,z
x,-y,z
-y,-x,z
y,x,z
1/2+x,1/2+y,1/2+z
1/2-y,1/2+x,1/2+z
1/2-x,1/2-y,1/2+z
1/2+y,1/2-x,1/2+z
1/2+x,1/2-y,1/2-z
1/2-x,1/2+y,1/2-z
1/2+y,1/2+x,1/2-z
1/2-y,1/2-x,1/2-z
1/2-x,1/2-y,1/2-z
1/2+y,1/2-x,1/2-z
1/2+x,1/2+y,1/2-z
1/2-y,1/2+x,1/2-z
1/2-x,1/2+y,1/2+z
1/2+x,1/2-y,1/2+z
1/2-y,1/2-x,1/2+z
1/2+y,1/2+x,1/2+z
loop_
_atom_site_type_symbol
_atom_site_label
_atom_site_fract_x
_atom_site_fract_y
_atom_site_fract_z
Si Si1 0.799493 0.883483 0.853185
Si Si2 0.279100 0.941204 0.743251
Si Si3 0.939343 0.148578 0.000000
Si Si4 0.200845 0.280767 0.905916
Si Si5 0.890280 0.560028 0.673705
Si Si6 0.667815 0.106844 0.595365
O O1 0.849879 0.849879 0.822064
O O2 0.769968 0.905719 0.772489
O O3 0.759350 0.847361 0.903437
O O4 0.817367 0.928494 0.917494
O O5 0.329745 0.931897 0.800725
O O6 0.296831 0.932909 0.648564
O O7 0.257983 0.000000 0.751105
O O8 0.903458 0.096543 0.000000
O O9 0.000000 0.131124 0.000000
O O10 0.252903 0.252903 0.864529
O O11 0.184809 0.336335 0.865804
O O12 0.214034 0.292834 0.000000
O O13 0.899890 0.500000 0.641002
O O14 0.929487 0.570514 0.750000
O O15 0.902147 0.604561 0.604847
O O16 0.681993 0.099076 0.500000
#
# Coordination Sequence:
#
# PCOD8319381 Si02
#       6
#    32  32  16  32  32  32
#     4  10  18  30  50  74  99 129 164 200 238 281
#     4  10  20  34  49  67  95 130 163 198 247 295
#     4  10  20  33  50  76 108 140 173 205 239 281
#     4   9  16  28  46  69 100 128 149 184 234 280
#     4   9  18  32  48  67  92 121 156 199 248 300
#     4  10  20  33  49  70  95 123 164 206 242 294
#
# _framework density 16.881557000000001
#
# number of rings (size 3 to 8) (size 9 to 14) (size 15 to 20)
#    0.000    2.364    2.727    0.545    0.000    1.727 
#    0.000    1.818    0.000    0.000    0.000    5.091 
#    0.000    0.000    0.000    0.000    0.000    0.000 
#
# Total GULP energy -1090455.370149 kJ/mol
# GULP energy per Si atom -12391.538297 kJ/mol
# Density = 1.684313 g / cm^3
# Si number density = 16.881557 Si / 1000 Ang^3
#
#
#
# Elastic Constant Matrix: (Units=GPa)
#
#
# Indices 1 2 3 4 5 6 
#
# 1 67.7085 28.6161 27.7470 0.0000 0.0000 0.0000
# 2 28.6161 67.7088 27.7467 0.0000 0.0000 0.0000
# 3 27.7470 27.7467 74.2962 0.0000 0.0000 0.0000
# 4 0.0000 0.0000 0.0000 17.2856 0.0000 0.0000
# 5 0.0000 0.0000 0.0000 0.0000 17.2856 0.0000
# 6 0.0000 0.0000 0.0000 0.0000 0.0000 17.3492
#
#
#
# Elastic Compliance Matrix: (Units=1/GPa)
#
#
# Indices 1 2 3 4 5 6 
#
# 1 0.019404 -0.006176 -0.004940 0.000000 0.000000 0.000000
# 2 -0.006176 0.019404 -0.004940 0.000000 0.000000 0.000000
# 3 -0.004940 -0.004940 0.017149 0.000000 0.000000 0.000000
# 4 0.000000 0.000000 0.000000 0.057852 0.000000 0.000000
# 5 0.000000 0.000000 0.000000 0.000000 0.057852 0.000000
# 6 0.000000 0.000000 0.000000 0.000000 0.000000 0.057640
#
#
# Mechanical properties :
#
#
# Convention : Reuss Voigt Hill
#
# Bulk Modulus (GPa) = 41.93830 41.99256 41.96543
# Shear Modulus (GPa) = 18.56247 18.75768 18.66007
#
# Velocity S-wave (km/s) = 3.31958 3.33698 3.32829
# Velocity P-wave (km/s) = 6.29201 6.30683 6.29942
#
# Compressibility (1/GPa) = 0.02384455
#
# Stress axis : x y z
#
# Youngs Moduli (GPa) = 51.53574 51.53628 58.31101
#
# Poissons Ratio (x) = 0.31831 0.28806
# Poissons Ratio (y) = 0.31830 0.28805
# Poissons Ratio (z) = 0.25459 0.25458
#
# Static dielectric constant tensor:
#      x y z
#    x 3.232130 0.000000 0.000000 
#    y 0.000000 3.232130 0.000000 
#    z 0.000000 0.000000 2.824550 
# 
# 
# High freq. dielectric constant tensor:
#      x y z
#    x 1.643300 0.000000 0.000000 
#    y 0.000000 1.643300 0.000000 
#    z 0.000000 0.000000 1.625500 
# 
# From -- ./inp_files/6428.got.cif
#   From: 2010.03.12/outbox.cif.g09.slc.cpg/sg139_4_cif.got.tgz:6428.got - 2010.04.08 09:46:31.
