data_PCOD8319045
_publ_section_title
;
Structure prediction by ZEFSAII (Michael W. Deem and Ramdas Pophale) SiO2 
 PCOD8319045
Probable space group: P 42/N C M
;
_chemical_formula_sum "Si O2"
_cell_formula_units_Z 128
_cell_length_a 22.649991
_cell_length_b 22.649991
_cell_length_c 14.271283
_cell_angle_alpha 90.000000
_cell_angle_beta 90.000000
_cell_angle_gamma 90.000000
_cell_volume 7321.483464
_symmetry_space_group_name_H-M "P 42/N C M"
_symmetry_group_IT_number 138
_space_group.IT_coordinate_system_code '2'
_symmetry_cell_setting 'tetragonal'
loop_
_space_group_symop_operation_xyz
x,y,z
1/2-y,x,1/2+z
1/2-x,1/2-y,z
y,1/2-x,1/2+z
1/2+x,-y,1/2-z
-x,1/2+y,1/2-z
1/2+y,1/2+x,-z
-y,-x,-z
-x,-y,-z
1/2+y,-x,1/2-z
1/2+x,1/2+y,-z
-y,1/2+x,1/2-z
1/2-x,y,1/2+z
x,1/2-y,1/2+z
1/2-y,1/2-x,z
y,x,z
loop_
_atom_site_type_symbol
_atom_site_label
_atom_site_fract_x
_atom_site_fract_y
_atom_site_fract_z
Si Si1 0.804194 0.053525 0.143942
Si Si2 0.679808 0.348379 0.788227
Si Si3 0.328729 0.709516 0.402005
Si Si4 0.956813 0.214870 0.523231
Si Si5 0.721703 0.019953 0.301914
Si Si6 0.497204 0.908372 0.044386
Si Si7 0.931998 0.027641 0.100348
Si Si8 0.006034 0.400410 0.739553
O O1 0.823116 0.116793 0.183332
O O2 0.773534 0.015913 0.225808
O O3 0.861814 0.017596 0.110149
O O4 0.757404 0.061358 0.061190
O O5 0.726358 0.316378 0.857167
O O6 0.692347 0.336974 0.677594
O O7 0.687660 0.417492 0.802480
O O8 0.293944 0.706056 0.500000
O O9 0.397452 0.695305 0.422937
O O10 0.996372 0.251262 0.597277
O O11 0.995638 0.158929 0.491227
O O12 0.667796 0.976106 0.279246
O O13 0.486040 0.909877 0.154479
O O14 0.559743 0.940258 0.018659
O O15 0.443052 0.943052 0.000000
O O16 0.952435 0.074861 0.177378
O O17 0.944607 0.055394 0.000000
O O18 0.964892 0.964892 0.113135
O O19 0.065100 0.434901 0.713307
#
# Coordination Sequence:
#
# PCOD8319045 Si02
#       8
#    16  16  16  16  16  16  16  16
#     4  12  22  38  55  75 109 141 181 228 271 331
#     4  11  23  41  49  74 100 138 190 230 263 316
#     4  11  25  40  51  66  97 141 186 235 266 303
#     4  11  23  37  57  78 105 146 175 228 284 324
#     4  11  22  37  54  79 109 144 183 225 275 320
#     4  10  22  37  58  84 110 143 188 235 282 336
#     4  10  22  37  58  82 107 142 185 233 280 336
#     4  10  20  37  60  82 110 143 185 233 279 335
#
# _framework density 17.482797000000001
#
# number of rings (size 3 to 8) (size 9 to 14) (size 15 to 20)
#    0.000    1.250    5.000    1.875    5.250    0.250 
#    2.250    0.000    0.000    0.000    0.000    0.000 
#    0.000    4.500    0.000    0.000    0.000    0.000 
#
# Total GULP energy -1587058.175111 kJ/mol
# GULP energy per Si atom -12398.891993 kJ/mol
# Density = 1.744301 g / cm^3
# Si number density = 17.482797 Si / 1000 Ang^3
#
#
#
# Elastic Constant Matrix: (Units=GPa)
#
#
# Indices 1 2 3 4 5 6 
#
# 1 79.9384 43.2326 35.2095 0.0000 0.0000 0.0000
# 2 43.2326 79.9382 35.2094 0.0000 0.0000 0.0000
# 3 35.2095 35.2094 118.0982 0.0000 0.0000 0.0000
# 4 0.0000 0.0000 0.0000 24.0364 0.0000 0.0000
# 5 0.0000 0.0000 0.0000 0.0000 24.0362 0.0000
# 6 0.0000 0.0000 0.0000 0.0000 0.0000 18.0709
#
#
#
# Elastic Compliance Matrix: (Units=1/GPa)
#
#
# Indices 1 2 3 4 5 6 
#
# 1 0.018515 -0.008728 -0.002918 0.000000 0.000000 0.000000
# 2 -0.008728 0.018515 -0.002918 0.000000 0.000000 0.000000
# 3 -0.002918 -0.002918 0.010207 0.000000 0.000000 0.000000
# 4 0.000000 0.000000 0.000000 0.041604 0.000000 0.000000
# 5 0.000000 0.000000 0.000000 0.000000 0.041604 0.000000
# 6 0.000000 0.000000 0.000000 0.000000 0.000000 0.055338
#
#
# Mechanical properties :
#
#
# Convention : Reuss Voigt Hill
#
# Bulk Modulus (GPa) = 55.21842 56.14199 55.68020
# Shear Modulus (GPa) = 22.62974 24.18357 23.40665
#
# Velocity S-wave (km/s) = 3.60168 3.72328 3.66298
# Velocity P-wave (km/s) = 6.99637 7.11802 7.05745
#
# Compressibility (1/GPa) = 0.01810990
#
# Stress axis : x y z
#
# Youngs Moduli (GPa) = 54.00928 54.00913 97.96835
#
# Poissons Ratio (x) = 0.47141 0.28586
# Poissons Ratio (y) = 0.47141 0.28586
# Poissons Ratio (z) = 0.15759 0.15759
#
# Static dielectric constant tensor:
#      x y z
#    x 3.237860 0.000000 0.000000 
#    y 0.000000 3.237860 0.000000 
#    z 0.000000 0.000000 3.297650 
# 
# 
# High freq. dielectric constant tensor:
#      x y z
#    x 1.650030 0.000000 0.000000 
#    y 0.000000 1.650030 0.000000 
#    z 0.000000 0.000000 1.701760 
# 
# From -- ./inp_files/3337.got.cif
#   From: 2010.03.12/outbox.cif.g09.slc.cpg/sg138_2_cif.got.tgz:3337.got - 2010.04.08 09:41:05.
