data_PCOD8319158
_publ_section_title
;
Structure prediction by ZEFSAII (Michael W. Deem and Ramdas Pophale) SiO2 
 PCOD8319158
Probable space group: P 42/N C M
;
_chemical_formula_sum "Si O2"
_cell_formula_units_Z 88
_cell_length_a 14.071289
_cell_length_b 14.071289
_cell_length_c 22.367448
_cell_angle_alpha 90.000000
_cell_angle_beta 90.000000
_cell_angle_gamma 90.000000
_cell_volume 4428.780966
_symmetry_space_group_name_H-M "P 42/N C M"
_symmetry_group_IT_number 138
_space_group.IT_coordinate_system_code '2'
_symmetry_cell_setting 'tetragonal'
loop_
_space_group_symop_operation_xyz
x,y,z
1/2-y,x,1/2+z
1/2-x,1/2-y,z
y,1/2-x,1/2+z
1/2+x,-y,1/2-z
-x,1/2+y,1/2-z
1/2+y,1/2+x,-z
-y,-x,-z
-x,-y,-z
1/2+y,-x,1/2-z
1/2+x,1/2+y,-z
-y,1/2+x,1/2-z
1/2-x,y,1/2+z
x,1/2-y,1/2+z
1/2-y,1/2-x,z
y,x,z
loop_
_atom_site_type_symbol
_atom_site_label
_atom_site_fract_x
_atom_site_fract_y
_atom_site_fract_z
Si Si1 0.753138 0.905043 0.300427
Si Si2 0.625325 0.125325 0.000000
Si Si3 0.047311 0.305527 0.067824
Si Si4 0.469597 0.887640 0.440762
Si Si5 0.401751 0.737370 0.731242
Si Si6 0.356185 0.768674 0.604462
O O1 0.658138 0.841863 0.311350
O O2 0.836681 0.836681 0.274660
O O3 0.790510 0.953792 0.361147
O O4 0.730479 0.991885 0.256665
O O5 0.621649 0.220830 0.959642
O O6 0.624341 0.037154 0.954244
O O7 0.147444 0.352557 0.047855
O O8 0.031346 0.203410 0.038350
O O9 0.435030 0.935030 0.500000
O O10 0.382480 0.862417 0.398451
O O11 0.539108 0.960893 0.406126
O O12 0.337693 0.648944 0.753208
O O13 0.419428 0.730835 0.659351
O O14 0.250000 0.750000 0.625359
#
# Coordination Sequence:
#
# PCOD8319158 Si02
#       6
#    16   8  16  16  16  16
#     4  10  23  44  67  91 125 173 222 264 317 386
#     4  12  22  38  62 100 124 168 208 258 318 392
#     4  11  22  38  61  91 126 162 207 263 313 371
#     4  11  22  37  59  89 121 162 212 253 304 378
#     4  11  22  38  61  95 129 158 207 271 322 373
#     4  12  20  38  65  88 128 167 204 262 324 376
#
# _framework density 19.870028000000001
#
# number of rings (size 3 to 8) (size 9 to 14) (size 15 to 20)
#    0.000    0.909    5.455    3.273    0.000    2.545 
#    0.000    1.818    0.000    0.000    0.000    0.000 
#    0.000    0.000    0.000    0.000    0.000    0.000 
#
# Total GULP energy -1090618.008695 kJ/mol
# GULP energy per Si atom -12393.386462 kJ/mol
# Density = 1.982480 g / cm^3
# Si number density = 19.870028 Si / 1000 Ang^3
#
#
#
# Elastic Constant Matrix: (Units=GPa)
#
#
# Indices 1 2 3 4 5 6 
#
# 1 119.2367 68.6395 49.3619 0.0000 0.0000 0.0000
# 2 68.6395 119.2367 49.3619 0.0000 0.0000 0.0000
# 3 49.3619 49.3619 103.4349 0.0000 0.0000 0.0000
# 4 0.0000 0.0000 0.0000 91.0112 0.0000 0.0000
# 5 0.0000 0.0000 0.0000 0.0000 91.0112 0.0000
# 6 0.0000 0.0000 0.0000 0.0000 0.0000 41.5910
#
#
#
# Elastic Compliance Matrix: (Units=1/GPa)
#
#
# Indices 1 2 3 4 5 6 
#
# 1 0.013434 -0.006330 -0.003390 0.000000 0.000000 0.000000
# 2 -0.006330 0.013434 -0.003390 0.000000 0.000000 0.000000
# 3 -0.003390 -0.003390 0.012904 0.000000 0.000000 0.000000
# 4 0.000000 0.000000 0.000000 0.010988 0.000000 0.000000
# 5 0.000000 0.000000 0.000000 0.000000 0.010988 0.000000
# 6 0.000000 0.000000 0.000000 0.000000 0.000000 0.024044
#
#
# Mechanical properties :
#
#
# Convention : Reuss Voigt Hill
#
# Bulk Modulus (GPa) = 73.79562 75.18164 74.48863
# Shear Modulus (GPa) = 42.90784 56.35903 49.63343
#
# Velocity S-wave (km/s) = 4.65200 5.33155 5.00333
# Velocity P-wave (km/s) = 8.12863 8.70743 8.42300
#
# Compressibility (1/GPa) = 0.01355094
#
# Stress axis : x y z
#
# Youngs Moduli (GPa) = 74.43774 74.43774 77.49655
#
# Poissons Ratio (x) = 0.47118 0.26274
# Poissons Ratio (y) = 0.47118 0.26274
# Poissons Ratio (z) = 0.25237 0.25237
#
# Static dielectric constant tensor:
#      x y z
#    x 3.960040 0.000000 0.000000 
#    y 0.000000 3.960040 0.000000 
#    z 0.000000 0.000000 3.489120 
# 
# 
# High freq. dielectric constant tensor:
#      x y z
#    x 1.776240 0.000000 0.000000 
#    y 0.000000 1.776240 0.000000 
#    z 0.000000 0.000000 1.762790 
# 
# From -- ./inp_files/6158.got.cif
#   From: 2010.03.12/outbox.cif.g09.slc.cpg/sg138_4_cif.got.tgz:6158.got - 2010.04.08 09:41:05.
