data_PCOD8319411
_publ_section_title
;
Structure prediction by ZEFSAII (Michael W. Deem and Ramdas Pophale) SiO2 
 PCOD8319411
Probable space group: I 4/M M M
;
_chemical_formula_sum "Si O2"
_cell_formula_units_Z 240
_cell_length_a 20.991685
_cell_length_b 20.991685
_cell_length_c 30.112183
_cell_angle_alpha 90.000000
_cell_angle_beta 90.000000
_cell_angle_gamma 90.000000
_cell_volume 13268.958707
_symmetry_space_group_name_H-M "I 4/M M M"
_symmetry_group_IT_number 139
_symmetry_cell_setting 'tetragonal'
loop_
_space_group_symop_operation_xyz
x,y,z
-y,x,z
-x,-y,z
y,-x,z
x,-y,-z
-x,y,-z
y,x,-z
-y,-x,-z
-x,-y,-z
y,-x,-z
x,y,-z
-y,x,-z
-x,y,z
x,-y,z
-y,-x,z
y,x,z
1/2+x,1/2+y,1/2+z
1/2-y,1/2+x,1/2+z
1/2-x,1/2-y,1/2+z
1/2+y,1/2-x,1/2+z
1/2+x,1/2-y,1/2-z
1/2-x,1/2+y,1/2-z
1/2+y,1/2+x,1/2-z
1/2-y,1/2-x,1/2-z
1/2-x,1/2-y,1/2-z
1/2+y,1/2-x,1/2-z
1/2+x,1/2+y,1/2-z
1/2-y,1/2+x,1/2-z
1/2-x,1/2+y,1/2+z
1/2+x,1/2-y,1/2+z
1/2-y,1/2-x,1/2+z
1/2+y,1/2+x,1/2+z
loop_
_atom_site_type_symbol
_atom_site_label
_atom_site_fract_x
_atom_site_fract_y
_atom_site_fract_z
Si Si1 0.570280 0.900141 0.449835
Si Si2 0.576739 0.315700 0.750061
Si Si3 0.356213 0.253828 0.329600
Si Si4 0.838904 0.429093 0.874190
Si Si5 0.847828 0.252861 0.326465
Si Si6 0.075736 0.569858 0.701725
Si Si7 0.071568 0.740351 0.080215
Si Si8 0.575275 0.674578 0.500000
O O1 0.582768 0.921912 0.500000
O O2 0.500000 0.924700 0.434295
O O3 0.626383 0.931061 0.421197
O O4 0.572344 0.824782 0.446924
O O5 0.500000 0.328984 0.754446
O O6 0.617320 0.382681 0.750065
O O7 0.589696 0.274659 0.705601
O O8 0.601932 0.269664 0.789263
O O9 0.315963 0.315963 0.341090
O O10 0.309812 0.198897 0.309493
O O11 0.386733 0.231642 0.375843
O O12 0.819370 0.500000 0.860771
O O13 0.775655 0.386158 0.870696
O O14 0.885161 0.397965 0.836784
O O15 0.806765 0.193236 0.342707
O O16 0.105681 0.500000 0.693507
O O17 0.096642 0.596642 0.750000
O O18 0.000000 0.564928 0.700279
O O19 0.000000 0.759370 0.094446
O O20 0.099385 0.791060 0.045071
O O21 0.500000 0.670270 0.500000
O O22 0.604032 0.604032 0.500000
#
# Coordination Sequence:
#
# PCOD8319411 Si02
#       8
#    32  32  32  32  32  32  32  16
#     4  10  20  35  53  75 107 142 178 218 256 305
#     4  10  21  37  56  79 107 139 177 220 266 318
#     4  10  19  33  54  78 104 135 174 220 269 316
#     4  11  21  34  53  76 102 135 177 216 259 314
#     4  10  21  37  54  74 105 138 171 213 263 315
#     4   8  15  28  44  66  99 133 164 202 246 294
#     4  10  18  32  51  74 102 135 178 222 264 317
#     4  10  20  33  52  76 105 141 183 235 286 328
#
# _framework density 18.087326999999998
#
# number of rings (size 3 to 8) (size 9 to 14) (size 15 to 20)
#    0.000    2.133    2.000    2.400    0.000    3.933 
#    0.000    2.000    0.000    0.000    0.000    1.867 
#    0.000    1.067    0.000    0.000    0.000    0.000 
#
# Total GULP energy -1486995.255535 kJ/mol
# GULP energy per Si atom -12391.627129 kJ/mol
# Density = 1.804616 g / cm^3
# Si number density = 18.087327 Si / 1000 Ang^3
#
#
#
# Elastic Constant Matrix: (Units=GPa)
#
#
# Indices 1 2 3 4 5 6 
#
# 1 80.6018 42.6577 39.2333 0.0000 0.0000 0.0000
# 2 42.6577 80.6018 39.2333 0.0000 0.0000 0.0000
# 3 39.2333 39.2333 96.4783 0.0000 0.0000 0.0000
# 4 0.0000 0.0000 0.0000 23.8648 0.0000 0.0000
# 5 0.0000 0.0000 0.0000 0.0000 23.8648 0.0000
# 6 0.0000 0.0000 0.0000 0.0000 0.0000 21.9212
#
#
#
# Elastic Compliance Matrix: (Units=1/GPa)
#
#
# Indices 1 2 3 4 5 6 
#
# 1 0.018651 -0.007704 -0.004452 0.000000 0.000000 0.000000
# 2 -0.007704 0.018651 -0.004452 0.000000 0.000000 0.000000
# 3 -0.004452 -0.004452 0.013986 0.000000 0.000000 0.000000
# 4 0.000000 0.000000 0.000000 0.041903 0.000000 0.000000
# 5 0.000000 0.000000 0.000000 0.000000 0.041903 0.000000
# 6 0.000000 0.000000 0.000000 0.000000 0.000000 0.045618
#
#
# Mechanical properties :
#
#
# Convention : Reuss Voigt Hill
#
# Bulk Modulus (GPa) = 55.33150 55.54782 55.43966
# Shear Modulus (GPa) = 22.73259 23.03400 22.88330
#
# Velocity S-wave (km/s) = 3.54902 3.57247 3.56076
# Velocity P-wave (km/s) = 6.88852 6.91334 6.90094
#
# Compressibility (1/GPa) = 0.01807289
#
# Stress axis : x y z
#
# Youngs Moduli (GPa) = 53.61738 53.61738 71.50248
#
# Poissons Ratio (x) = 0.41306 0.31830
# Poissons Ratio (y) = 0.41306 0.31830
# Poissons Ratio (z) = 0.23868 0.23868
#
# Static dielectric constant tensor:
#      x y z
#    x 3.367750 0.000000 0.000000 
#    y 0.000000 3.367750 0.000000 
#    z 0.000000 0.000000 3.252540 
# 
# 
# High freq. dielectric constant tensor:
#      x y z
#    x 1.692450 0.000000 0.000000 
#    y 0.000000 1.692450 0.000000 
#    z 0.000000 0.000000 1.690650 
# 
# From -- ./inp_files/14643.got.cif
#   From: 2010.03.12/outbox.cif.g09.slc.cpg/sg139_8_cif.got.tgz:14643.got - 2010.04.08 09:46:31.
