data_PCOD8319010
_publ_section_title
;
Structure prediction by ZEFSAII (Michael W. Deem and Ramdas Pophale) SiO2 
 PCOD8319010
Probable space group: P 42/N C M
;
_chemical_formula_sum "Si O2"
_cell_formula_units_Z 96
_cell_length_a 22.797279
_cell_length_b 22.797279
_cell_length_c 8.925694
_cell_angle_alpha 90.000000
_cell_angle_beta 90.000000
_cell_angle_gamma 90.000000
_cell_volume 4638.825356
_symmetry_space_group_name_H-M "P 42/N C M"
_symmetry_group_IT_number 138
_space_group.IT_coordinate_system_code '2'
_symmetry_cell_setting 'tetragonal'
loop_
_space_group_symop_operation_xyz
x,y,z
1/2-y,x,1/2+z
1/2-x,1/2-y,z
y,1/2-x,1/2+z
1/2+x,-y,1/2-z
-x,1/2+y,1/2-z
1/2+y,1/2+x,-z
-y,-x,-z
-x,-y,-z
1/2+y,-x,1/2-z
1/2+x,1/2+y,-z
-y,1/2+x,1/2-z
1/2-x,y,1/2+z
x,1/2-y,1/2+z
1/2-y,1/2-x,z
y,x,z
loop_
_atom_site_type_symbol
_atom_site_label
_atom_site_fract_x
_atom_site_fract_y
_atom_site_fract_z
Si Si1 0.460547 0.748324 0.994757
Si Si2 0.124649 0.284437 0.603489
Si Si3 0.554343 0.460625 0.674886
Si Si4 0.320830 0.412584 0.778847
Si Si5 0.675377 0.980032 0.235703
Si Si6 0.829728 0.051237 0.250930
O O1 0.507785 0.785561 0.089536
O O2 0.422994 0.706452 0.107814
O O3 0.488487 0.703411 0.878958
O O4 0.423103 0.797469 0.901117
O O5 0.191439 0.308562 0.605578
O O6 0.097073 0.292137 0.440002
O O7 0.121601 0.216740 0.652500
O O8 0.088575 0.322740 0.726206
O O9 0.552240 0.447761 0.500000
O O10 0.494839 0.494839 0.725835
O O11 0.608663 0.501560 0.712940
O O12 0.564587 0.398761 0.760086
O O13 0.386699 0.386699 0.773227
O O14 0.321905 0.480984 0.742146
#
# Coordination Sequence:
#
# PCOD8319010 Si02
#       6
#    16  16  16  16  16  16
#     4  10  20  34  66  78 111 151 202 240 274 344
#     4  11  22  37  55  77 106 147 193 242 291 339
#     4  11  24  37  55  89 131 162 192 247 314 375
#     4  11  22  37  55  77 106 147 193 242 291 339
#     4  11  19  40  57  86 112 156 196 238 288 358
#     4  11  19  40  57  86 112 156 196 238 288 358
#
# _framework density 20.694896
#
# number of rings (size 3 to 8) (size 9 to 14) (size 15 to 20)
#    0.000    1.167    6.667    1.000    0.000    1.667 
#    0.000    2.500    0.000    0.000    0.000    0.000 
#    0.000   46.667    0.000    0.000    0.000    0.000 
#
# Total GULP energy -1189316.467182 kJ/mol
# GULP energy per Si atom -12388.713200 kJ/mol
# Density = 2.064779 g / cm^3
# Si number density = 20.694896 Si / 1000 Ang^3
#
#
#
# Elastic Constant Matrix: (Units=GPa)
#
#
# Indices 1 2 3 4 5 6 
#
# 1 30.8520 46.5835 11.0514 0.0000 0.0000 0.0000
# 2 46.5835 30.8519 11.0550 0.0000 0.0000 0.0000
# 3 11.0514 11.0550 87.1198 0.0000 0.0000 0.0000
# 4 0.0000 0.0000 0.0000 15.0830 0.0000 0.0000
# 5 0.0000 0.0000 0.0000 0.0000 15.0827 0.0000
# 6 0.0000 0.0000 0.0000 0.0000 0.0000 29.6808
#
#
#
# Elastic Compliance Matrix: (Units=1/GPa)
#
#
# Indices 1 2 3 4 5 6 
#
# 1 -0.025083 0.038483 -0.001701 0.000000 0.000000 0.000000
# 2 0.038483 -0.025084 -0.001699 0.000000 0.000000 0.000000
# 3 -0.001701 -0.001699 0.011910 0.000000 0.000000 0.000000
# 4 0.000000 0.000000 0.000000 0.066300 0.000000 0.000000
# 5 0.000000 0.000000 0.000000 0.000000 0.066301 0.000000
# 6 0.000000 0.000000 0.000000 0.000000 0.000000 0.033692
#
#
# Mechanical properties :
#
#
# Convention : Reuss Voigt Hill
#
# Bulk Modulus (GPa) = 31.33973 31.80038 31.57006
# Shear Modulus (GPa) = 72.98692 17.31156 45.14924
#
# Velocity S-wave (km/s) = 5.94514 2.89539 4.67589
# Velocity P-wave (km/s) = 7.89321 5.15533 6.66634
#
# Compressibility (1/GPa) = 0.03190838
#
# Stress axis : x y z
#
# Youngs Moduli (GPa) = -39.86731 -39.86598 83.96433
#
# Poissons Ratio (x) = 1.53416 0.14286
# Poissons Ratio (y) = 1.53421 0.14262
# Poissons Ratio (z) = -0.06783 -0.06772
#
# Static dielectric constant tensor:
#      x y z
#    x 3.673480 0.000000 0.000000 
#    y 0.000000 3.673470 0.000000 
#    z 0.000000 0.000000 4.261880 
# 
# 
# High freq. dielectric constant tensor:
#      x y z
#    x 1.782220 0.000000 0.000000 
#    y 0.000000 1.782220 0.000000 
#    z 0.000000 0.000000 1.828130 
# 
# From -- ./inp_files/1713.got.cif
#   From: 2010.03.12/outbox.cif.g09.slc.cpg/sg138_1_cif.got.tgz:1713.got - 2010.04.08 09:41:05.
