data_PCOD8319098
_publ_section_title
;
Structure prediction by ZEFSAII (Michael W. Deem and Ramdas Pophale) SiO2 
 PCOD8319098
Probable space group: P 42/N C M
;
_chemical_formula_sum "Si O2"
_cell_formula_units_Z 80
_cell_length_a 12.563728
_cell_length_b 12.563728
_cell_length_c 28.260483
_cell_angle_alpha 90.000000
_cell_angle_beta 90.000000
_cell_angle_gamma 90.000000
_cell_volume 4460.839843
_symmetry_space_group_name_H-M "P 42/N C M"
_symmetry_group_IT_number 138
_space_group.IT_coordinate_system_code '2'
_symmetry_cell_setting 'tetragonal'
loop_
_space_group_symop_operation_xyz
x,y,z
1/2-y,x,1/2+z
1/2-x,1/2-y,z
y,1/2-x,1/2+z
1/2+x,-y,1/2-z
-x,1/2+y,1/2-z
1/2+y,1/2+x,-z
-y,-x,-z
-x,-y,-z
1/2+y,-x,1/2-z
1/2+x,1/2+y,-z
-y,1/2+x,1/2-z
1/2-x,y,1/2+z
x,1/2-y,1/2+z
1/2-y,1/2-x,z
y,x,z
loop_
_atom_site_type_symbol
_atom_site_label
_atom_site_fract_x
_atom_site_fract_y
_atom_site_fract_z
Si Si1 0.866380 0.455518 0.141106
Si Si2 0.746684 0.577505 0.910864
Si Si3 0.855457 0.320131 0.052418
Si Si4 0.076402 0.254651 0.286456
Si Si5 0.305708 0.018371 0.187922
O O1 0.837837 0.417345 0.088582
O O2 0.763399 0.502157 0.167749
O O3 0.958532 0.541469 0.136096
O O4 0.906190 0.356063 0.172444
O O5 0.855981 0.644020 0.919465
O O6 0.644884 0.644884 0.929519
O O7 0.753999 0.463761 0.937016
O O8 0.730276 0.558922 0.854628
O O9 0.750000 0.250000 0.056450
O O10 0.867578 0.367578 0.000000
O O11 0.130353 0.369648 0.293439
O O12 0.164207 0.164207 0.283214
O O13 0.007198 0.244843 0.238010
O O14 0.396223 0.103778 0.197819
#
# Coordination Sequence:
#
# PCOD8319098 Si02
#       5
#    16  16  16  16  16
#     4   9  18  33  51  72  99 131 173 217 257 312
#     4   9  17  32  57  85 105 129 178 233 268 305
#     4  10  21  38  55  73 104 142 176 215 273 330
#     4   9  16  28  47  71 101 134 164 201 254 313
#     4   8  14  27  47  71 100 131 164 206 258 310
#
# _framework density 17.933841999999999
#
# number of rings (size 3 to 8) (size 9 to 14) (size 15 to 20)
#    0.000    3.000    0.000    2.400    0.000    4.000 
#    7.200    4.000    0.000    2.400    0.000    0.000 
#    0.000    0.000    0.000    0.000    0.000    0.000 
#
# Total GULP energy -991367.576144 kJ/mol
# GULP energy per Si atom -12392.094702 kJ/mol
# Density = 1.789302 g / cm^3
# Si number density = 17.933842 Si / 1000 Ang^3
#
#
#
# Elastic Constant Matrix: (Units=GPa)
#
#
# Indices 1 2 3 4 5 6 
#
# 1 77.3476 36.8136 50.9718 0.0000 0.0000 0.0000
# 2 36.8136 77.3476 50.9718 0.0000 0.0000 0.0000
# 3 50.9718 50.9718 151.6332 0.0000 0.0000 0.0000
# 4 0.0000 0.0000 0.0000 24.4495 0.0000 0.0000
# 5 0.0000 0.0000 0.0000 0.0000 24.4495 0.0000
# 6 0.0000 0.0000 0.0000 0.0000 0.0000 18.3682
#
#
#
# Elastic Compliance Matrix: (Units=1/GPa)
#
#
# Indices 1 2 3 4 5 6 
#
# 1 0.018594 -0.006077 -0.004208 0.000000 0.000000 0.000000
# 2 -0.006077 0.018594 -0.004208 0.000000 0.000000 0.000000
# 3 -0.004208 -0.004208 0.009424 0.000000 0.000000 0.000000
# 4 0.000000 0.000000 0.000000 0.040901 0.000000 0.000000
# 5 0.000000 0.000000 0.000000 0.000000 0.040901 0.000000
# 6 0.000000 0.000000 0.000000 0.000000 0.000000 0.054442
#
#
# Mechanical properties :
#
#
# Convention : Reuss Voigt Hill
#
# Bulk Modulus (GPa) = 56.73110 64.87141 60.80126
# Shear Modulus (GPa) = 22.96593 24.62487 23.79540
#
# Velocity S-wave (km/s) = 3.58242 3.70955 3.64654
# Velocity P-wave (km/s) = 6.98669 7.38910 7.19071
#
# Compressibility (1/GPa) = 0.01762702
#
# Stress axis : x y z
#
# Youngs Moduli (GPa) = 53.78167 53.78167 106.11655
#
# Poissons Ratio (x) = 0.32683 0.44649
# Poissons Ratio (y) = 0.32683 0.44649
# Poissons Ratio (z) = 0.22629 0.22629
#
# Static dielectric constant tensor:
#      x y z
#    x 3.227900 0.000000 0.000000 
#    y 0.000000 3.227900 0.000000 
#    z 0.000000 0.000000 3.471630 
# 
# 
# High freq. dielectric constant tensor:
#      x y z
#    x 1.675490 0.000000 0.000000 
#    y 0.000000 1.675490 0.000000 
#    z 0.000000 0.000000 1.693450 
# 
# From -- ./inp_files/7854.got.cif
#   From: 2010.03.12/outbox.cif.g09.slc.cpg/sg138_4_cif.got.tgz:7854.got - 2010.04.08 09:41:05.
