data_PCOD8319609
_publ_section_title
;
Structure prediction by ZEFSAII (Michael W. Deem and Ramdas Pophale) SiO2 
 PCOD8319609
Probable space group: I 4/M M M
;
_chemical_formula_sum "Si O2"
_cell_formula_units_Z 160
_cell_length_a 21.208810
_cell_length_b 21.208810
_cell_length_c 20.024955
_cell_angle_alpha 90.000000
_cell_angle_beta 90.000000
_cell_angle_gamma 90.000000
_cell_volume 9007.497531
_symmetry_space_group_name_H-M "I 4/M M M"
_symmetry_group_IT_number 139
_symmetry_cell_setting 'tetragonal'
loop_
_space_group_symop_operation_xyz
x,y,z
-y,x,z
-x,-y,z
y,-x,z
x,-y,-z
-x,y,-z
y,x,-z
-y,-x,-z
-x,-y,-z
y,-x,-z
x,y,-z
-y,x,-z
-x,y,z
x,-y,z
-y,-x,z
y,x,z
1/2+x,1/2+y,1/2+z
1/2-y,1/2+x,1/2+z
1/2-x,1/2-y,1/2+z
1/2+y,1/2-x,1/2+z
1/2+x,1/2-y,1/2-z
1/2-x,1/2+y,1/2-z
1/2+y,1/2+x,1/2-z
1/2-y,1/2-x,1/2-z
1/2-x,1/2-y,1/2-z
1/2+y,1/2-x,1/2-z
1/2+x,1/2+y,1/2-z
1/2-y,1/2+x,1/2-z
1/2-x,1/2+y,1/2+z
1/2+x,1/2-y,1/2+z
1/2-y,1/2-x,1/2+z
1/2+y,1/2+x,1/2+z
loop_
_atom_site_type_symbol
_atom_site_label
_atom_site_fract_x
_atom_site_fract_y
_atom_site_fract_z
Si Si1 0.569481 0.109650 0.078817
Si Si2 0.133874 0.763766 0.500000
Si Si3 0.660757 0.233215 0.500000
Si Si4 0.247844 0.851908 0.238115
Si Si5 0.796457 0.571057 0.616494
Si Si6 0.747315 0.929839 0.367083
O O1 0.500000 0.077738 0.090835
O O2 0.627509 0.067835 0.105701
O O3 0.572195 0.172684 0.122280
O O4 0.576758 0.123979 0.000000
O O5 0.194173 0.805828 0.500000
O O6 0.164247 0.693433 0.500000
O O7 0.092354 0.779285 0.435608
O O8 0.708789 0.291212 0.500000
O O9 0.616901 0.237790 0.564637
O O10 0.184904 0.815097 0.212346
O O11 0.302031 0.802031 0.250000
O O12 0.274573 0.904734 0.188551
O O13 0.230919 0.884579 0.307909
O O14 0.771385 0.500000 0.607598
O O15 0.770846 0.000000 0.350599
#
# Coordination Sequence:
#
# PCOD8319609 Si02
#       6
#    32  16  16  32  32  32
#     4  10  19  33  52  76 111 149 185 218 251 298
#     4  11  19  32  56  81 107 141 180 217 265 320
#     4  11  21  36  54  76 106 140 179 221 277 322
#     4  11  22  37  54  76 106 140 179 222 280 326
#     4  12  22  36  54  78 107 141 187 226 264 308
#     4  11  19  33  53  78 110 142 179 216 258 314
#
# _framework density 17.762979000000001
#
# number of rings (size 3 to 8) (size 9 to 14) (size 15 to 20)
#    0.000    1.000    6.000    2.400    0.000    3.600 
#    0.000    1.000    0.000    0.000    0.000    0.000 
#    0.000   56.000    0.000    0.000    0.000    0.000 
#
# Total GULP energy -991650.300751 kJ/mol
# GULP energy per Si atom -12395.628759 kJ/mol
# Density = 1.772255 g / cm^3
# Si number density = 17.762979 Si / 1000 Ang^3
#
#
#
# Elastic Constant Matrix: (Units=GPa)
#
#
# Indices 1 2 3 4 5 6 
#
# 1 -813.5430 942.4107 33.0172 0.0000 0.0000 0.0000
# 2 942.4107 -813.4802 33.0169 0.0000 0.0000 0.0000
# 3 33.0172 33.0169 96.1317 0.0000 0.0000 0.0000
# 4 0.0000 0.0000 0.0000 -232.1052 0.0000 0.0000
# 5 0.0000 0.0000 0.0000 0.0000 -231.4888 0.0000
# 6 0.0000 0.0000 0.0000 0.0000 0.0000 16.7555
#
#
#
# Elastic Compliance Matrix: (Units=1/GPa)
#
#
# Indices 1 2 3 4 5 6 
#
# 1 0.004422 0.004992 -0.003233 0.000000 0.000000 0.000000
# 2 0.004992 0.004423 -0.003234 0.000000 0.000000 0.000000
# 3 -0.003233 -0.003234 0.012623 0.000000 0.000000 0.000000
# 4 0.000000 0.000000 0.000000 -0.004308 0.000000 0.000000
# 5 0.000000 0.000000 0.000000 0.000000 -0.004320 0.000000
# 6 0.000000 0.000000 0.000000 0.000000 0.000000 0.059682
#
#
# Mechanical properties :
#
#
# Convention : Reuss Voigt Hill
#
# Bulk Modulus (GPa) = 53.99972 53.99979 53.99975
# Shear Modulus (GPa) = 61.24089 -258.65678 -98.70794
#
# Velocity S-wave (km/s) = 5.87806 -12.08022 -7.46258
# Velocity P-wave (km/s) = 8.74842 12.81052 6.61720
#
# Compressibility (1/GPa) = 0.01851862
#
# Stress axis : x y z
#
# Youngs Moduli (GPa) = 226.12558 226.10829 79.21735
#
# Poissons Ratio (x) = -1.12873 0.25614
# Poissons Ratio (y) = -1.12882 0.25615
# Poissons Ratio (z) = 0.73116 0.73113
#
# Static dielectric constant tensor:
#      x y z
#    x 3.266610 0.000000 0.000000 
#    y 0.000000 3.266620 0.000000 
#    z 0.000000 0.000000 3.289330 
# 
# 
# High freq. dielectric constant tensor:
#      x y z
#    x 1.670960 0.000000 0.000000 
#    y 0.000000 1.670960 0.000000 
#    z 0.000000 0.000000 1.692070 
# 
# From -- ./inp_files/8446.got.cif
#   From: 2010.03.12/outbox.cif.g09.slc.cpg/sg139_5_cif.got.tgz:8446.got - 2010.04.08 09:46:31.
