data_PCOD8319506
_publ_section_title
;
Structure prediction by ZEFSAII (Michael W. Deem and Ramdas Pophale) SiO2 
 PCOD8319506
Probable space group: I 4/M M M
;
_chemical_formula_sum "Si O2"
_cell_formula_units_Z 240
_cell_length_a 20.373587
_cell_length_b 20.373587
_cell_length_c 30.643693
_cell_angle_alpha 90.000000
_cell_angle_beta 90.000000
_cell_angle_gamma 90.000000
_cell_volume 12719.677469
_symmetry_space_group_name_H-M "I 4/M M M"
_symmetry_group_IT_number 139
_symmetry_cell_setting 'tetragonal'
loop_
_space_group_symop_operation_xyz
x,y,z
-y,x,z
-x,-y,z
y,-x,z
x,-y,-z
-x,y,-z
y,x,-z
-y,-x,-z
-x,-y,-z
y,-x,-z
x,y,-z
-y,x,-z
-x,y,z
x,-y,z
-y,-x,z
y,x,z
1/2+x,1/2+y,1/2+z
1/2-y,1/2+x,1/2+z
1/2-x,1/2-y,1/2+z
1/2+y,1/2-x,1/2+z
1/2+x,1/2-y,1/2-z
1/2-x,1/2+y,1/2-z
1/2+y,1/2+x,1/2-z
1/2-y,1/2-x,1/2-z
1/2-x,1/2-y,1/2-z
1/2+y,1/2-x,1/2-z
1/2+x,1/2+y,1/2-z
1/2-y,1/2+x,1/2-z
1/2-x,1/2+y,1/2+z
1/2+x,1/2-y,1/2+z
1/2-y,1/2-x,1/2+z
1/2+y,1/2+x,1/2+z
loop_
_atom_site_type_symbol
_atom_site_label
_atom_site_fract_x
_atom_site_fract_y
_atom_site_fract_z
Si Si1 0.428938 0.071063 0.750000
Si Si2 0.366867 0.139578 0.179020
Si Si3 0.573488 0.258051 0.224229
Si Si4 0.116962 0.221230 0.179999
Si Si5 0.686762 0.924770 0.405078
Si Si6 0.716511 0.176754 0.948616
Si Si7 0.682267 0.575683 0.410039
Si Si8 0.826318 0.071919 0.638177
O O1 0.500000 0.081680 0.770777
O O2 0.379529 0.076465 0.790849
O O3 0.376870 0.199812 0.212695
O O4 0.292935 0.136458 0.162626
O O5 0.414746 0.140962 0.137338
O O6 0.500000 0.230843 0.217312
O O7 0.580916 0.282472 0.273624
O O8 0.585967 0.316346 0.189765
O O9 0.185989 0.185989 0.184992
O O10 0.072659 0.187718 0.142700
O O11 0.676692 0.861961 0.436973
O O12 0.760658 0.920223 0.389091
O O13 0.673124 0.000000 0.424063
O O14 0.756410 0.243591 0.933987
O O15 0.753512 0.112998 0.928839
O O16 0.720241 0.169591 0.000000
O O17 0.678275 0.500000 0.427181
O O18 0.616279 0.616279 0.423558
O O19 0.877486 0.122515 0.618135
O O20 0.856232 0.000000 0.631596
#
# Coordination Sequence:
#
# PCOD8319506 Si02
#       8
#    16  32  32  32  32  32  32  32
#     4  11  22  34  47  66  98 140 183 222 260 305
#     4  11  20  32  48  72 103 139 183 228 273 320
#     4  10  19  31  46  67 101 141 183 233 281 322
#     4  11  21  32  51  78 106 142 185 232 277 325
#     4  10  20  35  55  81 112 146 185 228 276 326
#     4  10  21  39  63  89 115 144 179 223 275 333
#     4  10  22  40  62  89 117 146 181 222 274 334
#     4   9  18  30  47  71 103 144 186 232 279 323
#
# _framework density 18.868404000000002
#
# number of rings (size 3 to 8) (size 9 to 14) (size 15 to 20)
#    0.000    1.800    2.667    3.200    0.000    4.533 
#    0.000    0.000    0.000    0.400    0.000    4.667 
#    0.000    0.000    0.000   12.400    0.000    0.000 
#
# Total GULP energy -1486638.529884 kJ/mol
# GULP energy per Si atom -12388.654416 kJ/mol
# Density = 1.882546 g / cm^3
# Si number density = 18.868404 Si / 1000 Ang^3
#
#
#
# Elastic Constant Matrix: (Units=GPa)
#
#
# Indices 1 2 3 4 5 6 
#
# 1 103.7463 47.3184 18.6709 0.0000 0.0000 0.0000
# 2 47.3184 103.7451 18.6709 0.0000 0.0000 0.0000
# 3 18.6709 18.6709 64.6206 0.0000 0.0000 0.0000
# 4 0.0000 0.0000 0.0000 17.5787 0.0000 0.0000
# 5 0.0000 0.0000 0.0000 0.0000 17.5783 0.0000
# 6 0.0000 0.0000 0.0000 0.0000 0.0000 17.8540
#
#
#
# Elastic Compliance Matrix: (Units=1/GPa)
#
#
# Indices 1 2 3 4 5 6 
#
# 1 0.012425 -0.005297 -0.002060 0.000000 0.000000 0.000000
# 2 -0.005297 0.012425 -0.002060 0.000000 0.000000 0.000000
# 3 -0.002060 -0.002060 0.016665 0.000000 0.000000 0.000000
# 4 0.000000 0.000000 0.000000 0.056887 0.000000 0.000000
# 5 0.000000 0.000000 0.000000 0.000000 0.056888 0.000000
# 6 0.000000 0.000000 0.000000 0.000000 0.000000 0.056010
#
#
# Mechanical properties :
#
#
# Convention : Reuss Voigt Hill
#
# Bulk Modulus (GPa) = 44.08409 49.04804 46.56607
# Shear Modulus (GPa) = 21.03540 23.09899 22.06719
#
# Velocity S-wave (km/s) = 3.34256 3.50267 3.42355
# Velocity P-wave (km/s) = 6.18964 6.51226 6.35300
#
# Compressibility (1/GPa) = 0.02268392
#
# Stress axis : x y z
#
# Youngs Moduli (GPa) = 80.48082 80.47985 60.00530
#
# Poissons Ratio (x) = 0.42626 0.12359
# Poissons Ratio (y) = 0.42627 0.12360
# Poissons Ratio (z) = 0.16577 0.16577
#
# Static dielectric constant tensor:
#      x y z
#    x 3.471280 0.000000 0.000000 
#    y 0.000000 3.471300 0.000000 
#    z 0.000000 0.000000 3.370300 
# 
# 
# High freq. dielectric constant tensor:
#      x y z
#    x 1.726410 0.000000 0.000000 
#    y 0.000000 1.726410 0.000000 
#    z 0.000000 0.000000 1.715470 
# 
# From -- ./inp_files/14664.got.cif
#   From: 2010.03.12/outbox.cif.g09.slc.cpg/sg139_8_cif.got.tgz:14664.got - 2010.04.08 09:46:31.
