data_PCOD8319180
_publ_section_title
;
Structure prediction by ZEFSAII (Michael W. Deem and Ramdas Pophale) SiO2 
 PCOD8319180
Probable space group: P 42/N C M
;
_chemical_formula_sum "Si O2"
_cell_formula_units_Z 64
_cell_length_a 14.471298
_cell_length_b 14.471298
_cell_length_c 16.897953
_cell_angle_alpha 90.000000
_cell_angle_beta 90.000000
_cell_angle_gamma 90.000000
_cell_volume 3538.743393
_symmetry_space_group_name_H-M "P 42/N C M"
_symmetry_group_IT_number 138
_space_group.IT_coordinate_system_code '2'
_symmetry_cell_setting 'tetragonal'
loop_
_space_group_symop_operation_xyz
x,y,z
1/2-y,x,1/2+z
1/2-x,1/2-y,z
y,1/2-x,1/2+z
1/2+x,-y,1/2-z
-x,1/2+y,1/2-z
1/2+y,1/2+x,-z
-y,-x,-z
-x,-y,-z
1/2+y,-x,1/2-z
1/2+x,1/2+y,-z
-y,1/2+x,1/2-z
1/2-x,y,1/2+z
x,1/2-y,1/2+z
1/2-y,1/2-x,z
y,x,z
loop_
_atom_site_type_symbol
_atom_site_label
_atom_site_fract_x
_atom_site_fract_y
_atom_site_fract_z
Si Si1 0.530047 0.377533 0.073400
Si Si2 0.956501 0.395878 0.882142
Si Si3 0.026583 0.321899 0.039421
Si Si4 0.180652 0.620214 0.734181
O O1 0.462429 0.462429 0.090865
O O2 0.466383 0.287161 0.057616
O O3 0.594426 0.361749 0.149614
O O4 0.597892 0.402109 0.000000
O O5 0.859016 0.436728 0.913300
O O6 0.955580 0.338711 0.801122
O O7 0.013908 0.486093 0.864392
O O8 0.005908 0.331576 0.946516
O O9 0.121633 0.378368 0.060241
O O10 0.132124 0.710378 0.770479
#
# Coordination Sequence:
#
# PCOD8319180 Si02
#       4
#    16  16  16  16
#     4  11  23  38  55  80 117 151 179 225 285 336
#     4   9  17  33  56  78 103 139 180 228 269 316
#     4   9  18  35  58  80 104 139 187 226 270 327
#     4  11  21  34  52  81 111 141 182 227 274 324
#
# _framework density 18.085515999999998
#
# number of rings (size 3 to 8) (size 9 to 14) (size 15 to 20)
#    0.000    2.000    2.500    3.750    0.000    0.500 
#    0.000    0.000    0.000    0.000    0.000    3.500 
#    0.000    0.000    0.000    0.000    0.000    0.000 
#
# Total GULP energy -793177.334590 kJ/mol
# GULP energy per Si atom -12393.395853 kJ/mol
# Density = 1.804435 g / cm^3
# Si number density = 18.085516 Si / 1000 Ang^3
#
#
#
# Elastic Constant Matrix: (Units=GPa)
#
#
# Indices 1 2 3 4 5 6 
#
# 1 117.6843 -23.6568 37.1669 0.0000 0.0000 0.0000
# 2 -23.6568 117.6786 37.1669 0.0000 0.0000 0.0000
# 3 37.1669 37.1669 121.5914 0.0000 0.0000 0.0000
# 4 0.0000 0.0000 0.0000 27.3219 0.0000 0.0000
# 5 0.0000 0.0000 0.0000 0.0000 27.3219 0.0000
# 6 0.0000 0.0000 0.0000 0.0000 0.0000 -4.0725
#
#
#
# Elastic Compliance Matrix: (Units=1/GPa)
#
#
# Indices 1 2 3 4 5 6 
#
# 1 0.010550 0.003475 -0.004287 0.000000 0.000000 0.000000
# 2 0.003475 0.010550 -0.004287 0.000000 0.000000 0.000000
# 3 -0.004287 -0.004287 0.010845 0.000000 0.000000 0.000000
# 4 0.000000 0.000000 0.000000 0.036601 0.000000 0.000000
# 5 0.000000 0.000000 0.000000 0.000000 0.036601 0.000000
# 6 0.000000 0.000000 0.000000 0.000000 0.000000 -0.245546
#
#
# Mechanical properties :
#
#
# Convention : Reuss Voigt Hill
#
# Bulk Modulus (GPa) = 45.98407 50.92315 48.45361
# Shear Modulus (GPa) = -40.66595 30.53272 -5.06661
#
# Velocity S-wave (km/s) = -4.74702 4.11328 -1.67558
# Velocity P-wave (km/s) = 2.13646 7.12578 4.80688
#
# Compressibility (1/GPa) = 0.02174666
#
# Stress axis : x y z
#
# Youngs Moduli (GPa) = 94.78973 94.78464 92.20797
#
# Poissons Ratio (x) = -0.32935 0.39528
# Poissons Ratio (y) = -0.32937 0.39530
# Poissons Ratio (z) = 0.40635 0.40634
#
# Static dielectric constant tensor:
#      x y z
#    x 3.707620 0.000000 0.000000 
#    y 0.000000 3.707620 0.000000 
#    z 0.000000 0.000000 3.115640 
# 
# 
# High freq. dielectric constant tensor:
#      x y z
#    x 1.688150 0.000000 0.000000 
#    y 0.000000 1.688150 0.000000 
#    z 0.000000 0.000000 1.710480 
# 
# From -- ./inp_files/3869.got.cif
#   From: 2010.03.12/outbox.cif.g09.slc.cpg/sg138_2_cif.got.tgz:3869.got - 2010.04.08 09:41:05.
