data_PCOD8319751
_publ_section_title
;
Structure prediction by ZEFSAII (Michael W. Deem and Ramdas Pophale) SiO2 
 PCOD8319751
Probable space group: I 4/M M M
;
_chemical_formula_sum "Si O2"
_cell_formula_units_Z 176
_cell_length_a 18.272687
_cell_length_b 18.272687
_cell_length_c 30.870837
_cell_angle_alpha 90.000000
_cell_angle_beta 90.000000
_cell_angle_gamma 90.000000
_cell_volume 10307.497421
_symmetry_space_group_name_H-M "I 4/M M M"
_symmetry_group_IT_number 139
_symmetry_cell_setting 'tetragonal'
loop_
_space_group_symop_operation_xyz
x,y,z
-y,x,z
-x,-y,z
y,-x,z
x,-y,-z
-x,y,-z
y,x,-z
-y,-x,-z
-x,-y,-z
y,-x,-z
x,y,-z
-y,x,-z
-x,y,z
x,-y,z
-y,-x,z
y,x,z
1/2+x,1/2+y,1/2+z
1/2-y,1/2+x,1/2+z
1/2-x,1/2-y,1/2+z
1/2+y,1/2-x,1/2+z
1/2+x,1/2-y,1/2-z
1/2-x,1/2+y,1/2-z
1/2+y,1/2+x,1/2-z
1/2-y,1/2-x,1/2-z
1/2-x,1/2-y,1/2-z
1/2+y,1/2-x,1/2-z
1/2+x,1/2+y,1/2-z
1/2-y,1/2+x,1/2-z
1/2-x,1/2+y,1/2+z
1/2+x,1/2-y,1/2+z
1/2-y,1/2-x,1/2+z
1/2+y,1/2+x,1/2+z
loop_
_atom_site_type_symbol
_atom_site_label
_atom_site_fract_x
_atom_site_fract_y
_atom_site_fract_z
Si Si1 0.413159 0.180912 0.621518
Si Si2 0.794566 0.580667 0.918361
Si Si3 0.698010 0.418479 0.837250
Si Si4 0.689528 0.808789 0.701470
Si Si5 0.209039 0.088843 0.500000
Si Si6 0.201925 0.916835 0.951758
O O1 0.500000 0.163673 0.625345
O O2 0.368410 0.114361 0.601050
O O3 0.380519 0.197568 0.669411
O O4 0.396528 0.244934 0.587564
O O5 0.820059 0.500000 0.930956
O O6 0.726439 0.580079 0.885924
O O7 0.759129 0.617771 0.960424
O O8 0.690790 0.500000 0.817852
O O9 0.618407 0.381594 0.835460
O O10 0.756425 0.373664 0.810259
O O11 0.730444 0.730444 0.700089
O O12 0.667580 0.832421 0.750000
O O13 0.130757 0.130757 0.500000
O O14 0.195039 0.000000 0.500000
O O15 0.129478 0.870523 0.945632
O O16 0.177078 0.000000 0.947378
O O17 0.237041 0.903137 0.000000
#
# Coordination Sequence:
#
# PCOD8319751 Si02
#       6
#    32  32  32  32  16  32
#     4  10  20  33  51  74 100 129 167 215 260 302
#     4   9  19  34  48  67  96 129 165 201 243 297
#     4   9  17  30  48  70  97 126 157 197 242 294
#     4   9  18  33  52  73  98 130 167 207 258 316
#     4  10  20  33  51  75 101 133 172 210 252 304
#     4   9  18  31  47  70  99 130 166 207 251 301
#
# _framework density 17.074949
#
# number of rings (size 3 to 8) (size 9 to 14) (size 15 to 20)
#    0.000    2.727    0.000    1.091    1.273    3.727 
#    0.000    0.909    0.000    4.909    0.000    2.545 
#    0.000    4.364    0.000    0.000    0.000    0.182 
#
# Total GULP energy -1090240.160913 kJ/mol
# GULP energy per Si atom -12389.092738 kJ/mol
# Density = 1.703609 g / cm^3
# Si number density = 17.074949 Si / 1000 Ang^3
#
#
#
# Elastic Constant Matrix: (Units=GPa)
#
#
# Indices 1 2 3 4 5 6 
#
# 1 86.1816 36.0910 40.9038 0.0000 0.0000 0.0000
# 2 36.0910 86.1813 40.9037 0.0000 0.0000 0.0000
# 3 40.9038 40.9037 128.5991 0.0000 0.0000 0.0000
# 4 0.0000 0.0000 0.0000 20.0506 0.0000 0.0000
# 5 0.0000 0.0000 0.0000 0.0000 20.0506 0.0000
# 6 0.0000 0.0000 0.0000 0.0000 0.0000 19.7584
#
#
#
# Elastic Compliance Matrix: (Units=1/GPa)
#
#
# Indices 1 2 3 4 5 6 
#
# 1 0.015177 -0.004787 -0.003305 0.000000 0.000000 0.000000
# 2 -0.004787 0.015177 -0.003305 0.000000 0.000000 0.000000
# 3 -0.003305 -0.003305 0.009878 0.000000 0.000000 0.000000
# 4 0.000000 0.000000 0.000000 0.049874 0.000000 0.000000
# 5 0.000000 0.000000 0.000000 0.000000 0.049874 0.000000
# 6 0.000000 0.000000 0.000000 0.000000 0.000000 0.050611
#
#
# Mechanical properties :
#
#
# Convention : Reuss Voigt Hill
#
# Bulk Modulus (GPa) = 57.34337 59.63987 58.49162
# Shear Modulus (GPa) = 22.81060 24.17616 23.49338
#
# Velocity S-wave (km/s) = 3.65898 3.76691 3.71333
# Velocity P-wave (km/s) = 7.17684 7.34327 7.26053
#
# Compressibility (1/GPa) = 0.01743881
#
# Stress axis : x y z
#
# Youngs Moduli (GPa) = 65.89081 65.89059 101.23206
#
# Poissons Ratio (x) = 0.31543 0.33453
# Poissons Ratio (y) = 0.31543 0.33453
# Poissons Ratio (z) = 0.21774 0.21774
#
# Static dielectric constant tensor:
#      x y z
#    x 3.217550 0.000000 0.000000 
#    y 0.000000 3.217550 0.000000 
#    z 0.000000 0.000000 3.362490 
# 
# 
# High freq. dielectric constant tensor:
#      x y z
#    x 1.651150 0.000000 0.000000 
#    y 0.000000 1.651150 0.000000 
#    z 0.000000 0.000000 1.666190 
# 
# From -- ./inp_files/14259.got.cif
#   From: 2010.03.12/outbox.cif.g09.slc.cpg/sg139_8_cif.got.tgz:14259.got - 2010.04.08 09:46:31.
