data_PCOD8319386
_publ_section_title
;
Structure prediction by ZEFSAII (Michael W. Deem and Ramdas Pophale) SiO2 
 PCOD8319386
Probable space group: I 4/M M M
;
_chemical_formula_sum "Si O2"
_cell_formula_units_Z 176
_cell_length_a 18.141706
_cell_length_b 18.141706
_cell_length_c 29.843984
_cell_angle_alpha 90.000000
_cell_angle_beta 90.000000
_cell_angle_gamma 90.000000
_cell_volume 9822.296678
_symmetry_space_group_name_H-M "I 4/M M M"
_symmetry_group_IT_number 139
_symmetry_cell_setting 'tetragonal'
loop_
_space_group_symop_operation_xyz
x,y,z
-y,x,z
-x,-y,z
y,-x,z
x,-y,-z
-x,y,-z
y,x,-z
-y,-x,-z
-x,-y,-z
y,-x,-z
x,y,-z
-y,x,-z
-x,y,z
x,-y,z
-y,-x,z
y,x,z
1/2+x,1/2+y,1/2+z
1/2-y,1/2+x,1/2+z
1/2-x,1/2-y,1/2+z
1/2+y,1/2-x,1/2+z
1/2+x,1/2-y,1/2-z
1/2-x,1/2+y,1/2-z
1/2+y,1/2+x,1/2-z
1/2-y,1/2-x,1/2-z
1/2-x,1/2-y,1/2-z
1/2+y,1/2-x,1/2-z
1/2+x,1/2+y,1/2-z
1/2-y,1/2+x,1/2-z
1/2-x,1/2+y,1/2+z
1/2+x,1/2-y,1/2+z
1/2-y,1/2-x,1/2+z
1/2+y,1/2+x,1/2+z
loop_
_atom_site_type_symbol
_atom_site_label
_atom_site_fract_x
_atom_site_fract_y
_atom_site_fract_z
Si Si1 0.695432 0.913813 0.870022
Si Si2 0.699450 0.699450 0.052453
Si Si3 0.741830 0.140201 0.221325
Si Si4 0.686550 0.313451 0.585798
Si Si5 0.301762 0.580359 0.808333
Si Si6 0.921535 0.078466 0.050822
Si Si7 0.085664 0.292429 0.607849
O O1 0.699279 0.906844 0.816201
O O2 0.769145 0.872473 0.885012
O O3 0.625366 0.872559 0.893061
O O4 0.692615 0.000000 0.883940
O O5 0.761422 0.761422 0.056861
O O6 0.625254 0.731383 0.075979
O O7 0.683449 0.683449 0.000000
O O8 0.800206 0.199795 0.200964
O O9 0.681438 0.181438 0.250000
O O10 0.782459 0.085849 0.255932
O O11 0.639926 0.360075 0.551404
O O12 0.335516 0.500000 0.816993
O O13 0.361365 0.638636 0.823971
O O14 0.231548 0.593167 0.840330
O O15 0.000000 0.103491 0.073174
O O16 0.937398 0.062603 0.000000
O O17 0.000000 0.300056 0.592916
#
# Coordination Sequence:
#
# PCOD8319386 Si02
#       7
#    32  16  32  16  32  16  32
#     4  11  21  34  54  79 108 147 188 223 268 323
#     4  10  21  37  61  86 105 133 177 222 270 329
#     4  10  18  30  52  75 106 142 184 235 274 310
#     4  10  20  34  52  79 106 134 174 228 261 309
#     4  10  19  32  53  77 104 142 180 220 269 322
#     4   9  17  30  49  72 100 133 163 200 260 318
#     4  10  21  37  56  81 112 140 176 223 273 328
#
# _framework density 17.918416000000001
#
# number of rings (size 3 to 8) (size 9 to 14) (size 15 to 20)
#    0.000    1.909    3.636    1.636    0.000    0.909 
#    0.000    0.000    0.000    5.182    0.000    5.727 
#    0.000    0.000    0.000    0.000    0.000    0.000 
#
# Total GULP energy -1090324.631365 kJ/mol
# GULP energy per Si atom -12390.052629 kJ/mol
# Density = 1.787763 g / cm^3
# Si number density = 17.918416 Si / 1000 Ang^3
#
#
#
# Elastic Constant Matrix: (Units=GPa)
#
#
# Indices 1 2 3 4 5 6 
#
# 1 115.5961 58.0667 23.6000 0.0000 0.0000 0.0000
# 2 58.0667 115.5960 23.5999 0.0000 0.0000 0.0000
# 3 23.6000 23.5999 65.7821 0.0000 0.0000 0.0000
# 4 0.0000 0.0000 0.0000 17.0648 0.0000 0.0000
# 5 0.0000 0.0000 0.0000 0.0000 17.0648 0.0000
# 6 0.0000 0.0000 0.0000 0.0000 0.0000 14.5156
#
#
#
# Elastic Compliance Matrix: (Units=1/GPa)
#
#
# Indices 1 2 3 4 5 6 
#
# 1 0.011881 -0.005501 -0.002289 0.000000 0.000000 0.000000
# 2 -0.005501 0.011881 -0.002289 0.000000 0.000000 0.000000
# 3 -0.002289 -0.002289 0.016844 0.000000 0.000000 0.000000
# 4 0.000000 0.000000 0.000000 0.058600 0.000000 0.000000
# 5 0.000000 0.000000 0.000000 0.000000 0.058600 0.000000
# 6 0.000000 0.000000 0.000000 0.000000 0.000000 0.068891
#
#
# Mechanical properties :
#
#
# Convention : Reuss Voigt Hill
#
# Bulk Modulus (GPa) = 48.90256 56.38972 52.64614
# Shear Modulus (GPa) = 19.71043 22.50956 21.10999
#
# Velocity S-wave (km/s) = 3.32024 3.54817 3.43609
# Velocity P-wave (km/s) = 6.48457 6.95159 6.72214
#
# Compressibility (1/GPa) = 0.02044883
#
# Stress axis : x y z
#
# Youngs Moduli (GPa) = 84.16493 84.16494 59.36788
#
# Poissons Ratio (x) = 0.46299 0.13590
# Poissons Ratio (y) = 0.46299 0.13589
# Poissons Ratio (z) = 0.19266 0.19266
#
# Static dielectric constant tensor:
#      x y z
#    x 3.291550 0.000000 0.000000 
#    y 0.000000 3.291560 0.000000 
#    z 0.000000 0.000000 3.249300 
# 
# 
# High freq. dielectric constant tensor:
#      x y z
#    x 1.688280 0.000000 0.000000 
#    y 0.000000 1.688280 0.000000 
#    z 0.000000 0.000000 1.677990 
# 
# From -- ./inp_files/14301.got.cif
#   From: 2010.03.12/outbox.cif.g09.slc.cpg/sg139_8_cif.got.tgz:14301.got - 2010.04.08 09:46:31.
