data_PCOD8319740
_publ_section_title
;
Structure prediction by ZEFSAII (Michael W. Deem and Ramdas Pophale) SiO2 
 PCOD8319740
Probable space group: I 4/M M M
;
_chemical_formula_sum "Si O2"
_cell_formula_units_Z 240
_cell_length_a 22.104403
_cell_length_b 22.104403
_cell_length_c 27.508630
_cell_angle_alpha 90.000000
_cell_angle_beta 90.000000
_cell_angle_gamma 90.000000
_cell_volume 13440.844038
_symmetry_space_group_name_H-M "I 4/M M M"
_symmetry_group_IT_number 139
_symmetry_cell_setting 'tetragonal'
loop_
_space_group_symop_operation_xyz
x,y,z
-y,x,z
-x,-y,z
y,-x,z
x,-y,-z
-x,y,-z
y,x,-z
-y,-x,-z
-x,-y,-z
y,-x,-z
x,y,-z
-y,x,-z
-x,y,z
x,-y,z
-y,-x,z
y,x,z
1/2+x,1/2+y,1/2+z
1/2-y,1/2+x,1/2+z
1/2-x,1/2-y,1/2+z
1/2+y,1/2-x,1/2+z
1/2+x,1/2-y,1/2-z
1/2-x,1/2+y,1/2-z
1/2+y,1/2+x,1/2-z
1/2-y,1/2-x,1/2-z
1/2-x,1/2-y,1/2-z
1/2+y,1/2-x,1/2-z
1/2+x,1/2+y,1/2-z
1/2-y,1/2+x,1/2-z
1/2-x,1/2+y,1/2+z
1/2+x,1/2-y,1/2+z
1/2-y,1/2-x,1/2+z
1/2+y,1/2+x,1/2+z
loop_
_atom_site_type_symbol
_atom_site_label
_atom_site_fract_x
_atom_site_fract_y
_atom_site_fract_z
Si Si1 0.832602 0.071685 0.205903
Si Si2 0.770939 0.928876 0.695590
Si Si3 0.835611 0.069781 0.602735
Si Si4 0.929514 0.432178 0.882800
Si Si5 0.429267 0.181960 0.443181
Si Si6 0.145448 0.753597 0.865175
Si Si7 0.147706 0.632889 0.193467
Si Si8 0.568771 0.333342 0.000000
O O1 0.899485 0.100516 0.204620
O O2 0.799327 0.095952 0.254525
O O3 0.794184 0.094195 0.160110
O O4 0.839403 0.000000 0.203722
O O5 0.802633 0.899742 0.648320
O O6 0.702561 0.912149 0.687818
O O7 0.777651 0.000000 0.696125
O O8 0.901685 0.098316 0.597986
O O9 0.798298 0.081511 0.551408
O O10 0.845058 0.000000 0.613233
O O11 0.901327 0.500000 0.890921
O O12 0.914414 0.387624 0.928041
O O13 0.907460 0.399252 0.833883
O O14 0.000000 0.439801 0.876142
O O15 0.415249 0.189344 0.500000
O O16 0.500000 0.196554 0.431732
O O17 0.384847 0.228018 0.414585
O O18 0.205536 0.794465 0.876023
O O19 0.162765 0.698807 0.828886
O O20 0.134634 0.634634 0.250000
O O21 0.500000 0.354847 0.000000
O O22 0.605765 0.394236 0.000000
#
# Coordination Sequence:
#
# PCOD8319740 Si02
#       8
#    32  32  32  32  32  32  32  16
#     4  10  20  34  52  75 103 134 169 210 257 309
#     4  10  20  33  50  72  99 133 173 214 254 304
#     4   9  17  29  46  68  95 128 168 215 263 310
#     4   9  19  34  53  81 113 140 171 211 256 309
#     4   9  18  34  57  81 106 138 174 213 260 315
#     4  10  21  35  53  77 105 137 173 219 266 309
#     4  11  21  35  53  77 103 139 176 216 254 305
#     4   8  14  25  42  64  90 122 161 207 259 307
#
# _framework density 17.856020999999998
#
# number of rings (size 3 to 8) (size 9 to 14) (size 15 to 20)
#    0.000    2.400    1.333    1.200    0.000    3.800 
#    0.000    3.333    5.867    2.400    0.000    0.000 
#    0.000    0.000    0.000   12.400    0.000    0.000 
#
# Total GULP energy -1486586.579027 kJ/mol
# GULP energy per Si atom -12388.221492 kJ/mol
# Density = 1.781538 g / cm^3
# Si number density = 17.856021 Si / 1000 Ang^3
#
#
#
# Elastic Constant Matrix: (Units=GPa)
#
#
# Indices 1 2 3 4 5 6 
#
# 1 60.8388 27.9940 44.0015 0.0000 0.0000 0.0000
# 2 27.9940 60.8376 44.0019 0.0000 0.0000 0.0000
# 3 44.0015 44.0019 141.2448 0.0000 0.0000 0.0000
# 4 0.0000 0.0000 0.0000 23.2005 0.0000 0.0000
# 5 0.0000 0.0000 0.0000 0.0000 23.2005 0.0000
# 6 0.0000 0.0000 0.0000 0.0000 0.0000 26.2993
#
#
#
# Elastic Compliance Matrix: (Units=1/GPa)
#
#
# Indices 1 2 3 4 5 6 
#
# 1 0.023364 -0.007082 -0.005072 0.000000 0.000000 0.000000
# 2 -0.007082 0.023365 -0.005073 0.000000 0.000000 0.000000
# 3 -0.005072 -0.005073 0.010240 0.000000 0.000000 0.000000
# 4 0.000000 0.000000 0.000000 0.043102 0.000000 0.000000
# 5 0.000000 0.000000 0.000000 0.000000 0.043102 0.000000
# 6 0.000000 0.000000 0.000000 0.000000 0.000000 0.038024
#
#
# Mechanical properties :
#
#
# Convention : Reuss Voigt Hill
#
# Bulk Modulus (GPa) = 44.41435 54.99069 49.70252
# Shear Modulus (GPa) = 22.40574 24.33499 23.37037
#
# Velocity S-wave (km/s) = 3.54616 3.69568 3.62169
# Velocity P-wave (km/s) = 6.45713 7.00530 6.73680
#
# Compressibility (1/GPa) = 0.02251525
#
# Stress axis : x y z
#
# Youngs Moduli (GPa) = 42.80069 42.79937 97.65359
#
# Poissons Ratio (x) = 0.30312 0.49532
# Poissons Ratio (y) = 0.30312 0.49535
# Poissons Ratio (z) = 0.21709 0.21710
#
# Static dielectric constant tensor:
#      x y z
#    x 3.243890 0.000000 0.000000 
#    y 0.000000 3.243890 0.000000 
#    z 0.000000 0.000000 3.570740 
# 
# 
# High freq. dielectric constant tensor:
#      x y z
#    x 1.680840 0.000000 0.000000 
#    y 0.000000 1.680840 0.000000 
#    z 0.000000 0.000000 1.702040 
# 
# From -- ./inp_files/13393.got.cif
#   From: 2010.03.12/outbox.cif.g09.slc.cpg/sg139_7_cif.got.tgz:13393.got - 2010.04.08 09:46:31.
