data_PCOD8319431
_publ_section_title
;
Structure prediction by ZEFSAII (Michael W. Deem and Ramdas Pophale) SiO2 
 PCOD8319431
Probable space group: I 4/M M M
;
_chemical_formula_sum "Si O2"
_cell_formula_units_Z 192
_cell_length_a 25.016201
_cell_length_b 25.016201
_cell_length_c 21.930242
_cell_angle_alpha 90.000000
_cell_angle_beta 90.000000
_cell_angle_gamma 90.000000
_cell_volume 13724.171599
_symmetry_space_group_name_H-M "I 4/M M M"
_symmetry_group_IT_number 139
_symmetry_cell_setting 'tetragonal'
loop_
_space_group_symop_operation_xyz
x,y,z
-y,x,z
-x,-y,z
y,-x,z
x,-y,-z
-x,y,-z
y,x,-z
-y,-x,-z
-x,-y,-z
y,-x,-z
x,y,-z
-y,x,-z
-x,y,z
x,-y,z
-y,-x,z
y,x,z
1/2+x,1/2+y,1/2+z
1/2-y,1/2+x,1/2+z
1/2-x,1/2-y,1/2+z
1/2+y,1/2-x,1/2+z
1/2+x,1/2-y,1/2-z
1/2-x,1/2+y,1/2-z
1/2+y,1/2+x,1/2-z
1/2-y,1/2-x,1/2-z
1/2-x,1/2-y,1/2-z
1/2+y,1/2-x,1/2-z
1/2+x,1/2+y,1/2-z
1/2-y,1/2+x,1/2-z
1/2-x,1/2+y,1/2+z
1/2+x,1/2-y,1/2+z
1/2-y,1/2-x,1/2+z
1/2+y,1/2+x,1/2+z
loop_
_atom_site_type_symbol
_atom_site_label
_atom_site_fract_x
_atom_site_fract_y
_atom_site_fract_z
Si Si1 0.128065 0.217949 0.341666
Si Si2 0.833481 0.256862 0.000000
Si Si3 0.789581 0.699408 0.626095
Si Si4 0.672405 0.415196 0.500000
Si Si5 0.353515 0.558626 0.368991
Si Si6 0.630527 0.279877 0.294808
Si Si7 0.561974 0.649593 0.929660
O O1 0.173639 0.173639 0.343356
O O2 0.152544 0.274738 0.362172
O O3 0.106626 0.227313 0.272993
O O4 0.080783 0.198828 0.386773
O O5 0.827539 0.293145 0.940170
O O6 0.788906 0.211095 0.000000
O O7 0.893525 0.233042 0.000000
O O8 0.744295 0.744295 0.627826
O O9 0.775122 0.654485 0.677135
O O10 0.638013 0.361988 0.500000
O O11 0.659124 0.449225 0.440322
O O12 0.365077 0.500000 0.341539
O O13 0.405506 0.594495 0.356654
O O14 0.301265 0.583413 0.337723
O O15 0.677818 0.322183 0.292868
O O16 0.500000 0.636785 0.915880
O O17 0.596006 0.596006 0.915376
O O18 0.570184 0.667000 0.000000
#
# Coordination Sequence:
#
# PCOD8319431 Si02
#       7
#    32  16  32  16  32  32  32
#     4   9  17  26  40  59  78  97 120 153 193 237
#     4   9  14  21  37  58  78  98 118 146 185 235
#     4   9  15  23  38  59  80  98 117 144 185 236
#     4   9  15  27  40  53  73  97 127 165 207 244
#     4  10  19  29  41  54  71  99 137 179 216 244
#     4   9  16  27  39  54  76 100 123 152 193 242
#     4   9  18  31  44  58  76  99 131 171 211 246
#
# _framework density 13.989915999999999
#
# number of rings (size 3 to 8) (size 9 to 14) (size 15 to 20)
#    0.000    2.833    1.667    0.750    1.167    3.000 
#    0.000    0.833    0.000    1.500    0.000    4.667 
#    0.000    0.000    0.000    0.000    0.000    0.833 
#
# Total GULP energy -1189727.762702 kJ/mol
# GULP energy per Si atom -12392.997528 kJ/mol
# Density = 1.395807 g / cm^3
# Si number density = 13.989916 Si / 1000 Ang^3
#
#
#
# Elastic Constant Matrix: (Units=GPa)
#
#
# Indices 1 2 3 4 5 6 
#
# 1 50.1605 47.8562 32.2261 0.0000 0.0000 0.0000
# 2 47.8562 50.1605 32.2256 0.0000 0.0000 0.0000
# 3 32.2261 32.2256 92.0308 0.0000 0.0000 0.0000
# 4 0.0000 0.0000 0.0000 12.5316 0.0000 0.0000
# 5 0.0000 0.0000 0.0000 0.0000 12.5320 0.0000
# 6 0.0000 0.0000 0.0000 0.0000 0.0000 11.1354
#
#
#
# Elastic Compliance Matrix: (Units=1/GPa)
#
#
# Indices 1 2 3 4 5 6 
#
# 1 0.223614 -0.210359 -0.004642 0.000000 0.000000 0.000000
# 2 -0.210359 0.223612 -0.004640 0.000000 0.000000 0.000000
# 3 -0.004642 -0.004640 0.014116 0.000000 0.000000 0.000000
# 4 0.000000 0.000000 0.000000 0.079799 0.000000 0.000000
# 5 0.000000 0.000000 0.000000 0.000000 0.079796 0.000000
# 6 0.000000 0.000000 0.000000 0.000000 0.000000 0.089803
#
#
# Mechanical properties :
#
#
# Convention : Reuss Voigt Hill
#
# Bulk Modulus (GPa) = 45.33081 46.32972 45.83027
# Shear Modulus (GPa) = 4.32012 12.57606 8.44809
#
# Velocity S-wave (km/s) = 1.75918 3.00148 2.46004
# Velocity P-wave (km/s) = 6.04972 6.72311 6.39529
#
# Compressibility (1/GPa) = 0.02206005
#
# Stress axis : x y z
#
# Youngs Moduli (GPa) = 4.47200 4.47203 70.84045
#
# Poissons Ratio (x) = 0.94073 0.32888
# Poissons Ratio (y) = 0.94072 0.32868
# Poissons Ratio (z) = 0.02076 0.02075
#
# Static dielectric constant tensor:
#      x y z
#    x 2.512680 0.000000 0.000000 
#    y 0.000000 2.512680 0.000000 
#    z 0.000000 0.000000 3.060550 
# 
# 
# High freq. dielectric constant tensor:
#      x y z
#    x 1.493920 0.000000 0.000000 
#    y 0.000000 1.493920 0.000000 
#    z 0.000000 0.000000 1.550870 
# 
# From -- ./inp_files/10622.got.cif
#   From: 2010.03.12/outbox.cif.g09.slc.cpg/sg139_6_cif.got.tgz:10622.got - 2010.04.08 09:46:31.
