data_PCOD8319061
_publ_section_title
;
Structure prediction by ZEFSAII (Michael W. Deem and Ramdas Pophale) SiO2 
 PCOD8319061
Probable space group: P 42/N C M
;
_chemical_formula_sum "Si O2"
_cell_formula_units_Z 80
_cell_length_a 17.664553
_cell_length_b 17.664553
_cell_length_c 14.166143
_cell_angle_alpha 90.000000
_cell_angle_beta 90.000000
_cell_angle_gamma 90.000000
_cell_volume 4420.352727
_symmetry_space_group_name_H-M "P 42/N C M"
_symmetry_group_IT_number 138
_space_group.IT_coordinate_system_code '2'
_symmetry_cell_setting 'tetragonal'
loop_
_space_group_symop_operation_xyz
x,y,z
1/2-y,x,1/2+z
1/2-x,1/2-y,z
y,1/2-x,1/2+z
1/2+x,-y,1/2-z
-x,1/2+y,1/2-z
1/2+y,1/2+x,-z
-y,-x,-z
-x,-y,-z
1/2+y,-x,1/2-z
1/2+x,1/2+y,-z
-y,1/2+x,1/2-z
1/2-x,y,1/2+z
x,1/2-y,1/2+z
1/2-y,1/2-x,z
y,x,z
loop_
_atom_site_type_symbol
_atom_site_label
_atom_site_fract_x
_atom_site_fract_y
_atom_site_fract_z
Si Si1 0.187504 0.187504 0.138911
Si Si2 0.812404 0.687597 0.140241
Si Si3 0.486869 0.613875 0.750015
Si Si4 0.988643 0.635944 0.765426
Si Si5 0.741501 0.973594 0.110417
Si Si6 0.270007 0.021955 0.596298
O O1 0.250000 0.250000 0.121826
O O2 0.172184 0.172184 0.249273
O O3 0.111562 0.217067 0.091067
O O4 0.750000 0.750000 0.123279
O O5 0.784606 0.611683 0.090789
O O6 0.561647 0.561647 0.742612
O O7 0.411306 0.565069 0.745725
O O8 0.483143 0.673414 0.663646
O O9 0.485224 0.658657 0.849383
O O10 0.917353 0.582648 0.785338
O O11 0.973506 0.682042 0.670467
O O12 0.998266 0.691802 0.852862
O O13 0.761797 0.011192 0.009554
#
# Coordination Sequence:
#
# PCOD8319061 Si02
#       6
#     8   8  16  16  16  16
#     4  11  20  32  52  76 118 152 180 215 274 344
#     4  11  20  32  52  76 118 152 180 215 274 344
#     4  10  20  40  56  77 116 155 186 232 277 328
#     4  10  22  37  57  80 113 153 194 227 275 334
#     4  11  22  35  55  84 113 147 186 230 280 332
#     4  11  22  35  55  84 113 147 186 230 280 332
#
# _framework density 18.098105
#
# number of rings (size 3 to 8) (size 9 to 14) (size 15 to 20)
#    0.000    1.400    6.000    1.200    5.600    1.600 
#    0.000    4.000    0.000    9.600    0.000   11.200 
#    0.000    0.000    0.000    0.000    0.000    0.000 
#
# Total GULP energy -992130.109973 kJ/mol
# GULP energy per Si atom -12401.626375 kJ/mol
# Density = 1.805691 g / cm^3
# Si number density = 18.098105 Si / 1000 Ang^3
#
#
#
# Elastic Constant Matrix: (Units=GPa)
#
#
# Indices 1 2 3 4 5 6 
#
# 1 70.5484 25.4083 1.8626 0.0000 0.0000 0.0000
# 2 25.4083 70.5484 1.8626 0.0000 0.0000 0.0000
# 3 1.8626 1.8626 84.8951 0.0000 0.0000 0.0000
# 4 0.0000 0.0000 0.0000 47.8898 0.0000 0.0000
# 5 0.0000 0.0000 0.0000 0.0000 47.8898 0.0000
# 6 0.0000 0.0000 0.0000 0.0000 0.0000 35.4433
#
#
#
# Elastic Compliance Matrix: (Units=1/GPa)
#
#
# Indices 1 2 3 4 5 6 
#
# 1 0.016292 -0.005862 -0.000229 0.000000 0.000000 0.000000
# 2 -0.005862 0.016292 -0.000229 0.000000 0.000000 0.000000
# 3 -0.000229 -0.000229 0.011789 0.000000 0.000000 0.000000
# 4 0.000000 0.000000 0.000000 0.020881 0.000000 0.000000
# 5 0.000000 0.000000 0.000000 0.000000 0.020881 0.000000
# 6 0.000000 0.000000 0.000000 0.000000 0.000000 0.028214
#
#
# Mechanical properties :
#
#
# Convention : Reuss Voigt Hill
#
# Bulk Modulus (GPa) = 31.51150 31.58430 31.54790
# Shear Modulus (GPa) = 36.34619 39.36846 37.85732
#
# Velocity S-wave (km/s) = 4.48625 4.66905 4.57856
# Velocity P-wave (km/s) = 6.65467 6.82322 6.73947
#
# Compressibility (1/GPa) = 0.03173445
#
# Stress axis : x y z
#
# Youngs Moduli (GPa) = 61.38068 61.38068 84.82278
#
# Poissons Ratio (x) = 0.35978 0.01941
# Poissons Ratio (y) = 0.35978 0.01941
# Poissons Ratio (z) = 0.01405 0.01405
#
# Static dielectric constant tensor:
#      x y z
#    x 3.198870 0.000000 0.000000 
#    y 0.000000 3.198870 0.000000 
#    z 0.000000 0.000000 3.400890 
# 
# 
# High freq. dielectric constant tensor:
#      x y z
#    x 1.691380 0.000000 0.000000 
#    y 0.000000 1.691380 0.000000 
#    z 0.000000 0.000000 1.704370 
# 
# From -- ./inp_files/4137.got.cif
#   From: 2010.03.12/outbox.cif.g09.slc.cpg/sg138_3_cif.got.tgz:4137.got - 2010.04.08 09:41:05.
