data_PCOD8319822
_publ_section_title
;
Structure prediction by ZEFSAII (Michael W. Deem and Ramdas Pophale) SiO2 
 PCOD8319822
Probable space group: I 4/M M M
;
_chemical_formula_sum "Si O2"
_cell_formula_units_Z 160
_cell_length_a 31.374652
_cell_length_b 31.374652
_cell_length_c 8.741913
_cell_angle_alpha 90.000000
_cell_angle_beta 90.000000
_cell_angle_gamma 90.000000
_cell_volume 8605.266306
_symmetry_space_group_name_H-M "I 4/M M M"
_symmetry_group_IT_number 139
_symmetry_cell_setting 'tetragonal'
loop_
_space_group_symop_operation_xyz
x,y,z
-y,x,z
-x,-y,z
y,-x,z
x,-y,-z
-x,y,-z
y,x,-z
-y,-x,-z
-x,-y,-z
y,-x,-z
x,y,-z
-y,x,-z
-x,y,z
x,-y,z
-y,-x,z
y,x,z
1/2+x,1/2+y,1/2+z
1/2-y,1/2+x,1/2+z
1/2-x,1/2-y,1/2+z
1/2+y,1/2-x,1/2+z
1/2+x,1/2-y,1/2-z
1/2-x,1/2+y,1/2-z
1/2+y,1/2+x,1/2-z
1/2-y,1/2-x,1/2-z
1/2-x,1/2-y,1/2-z
1/2+y,1/2-x,1/2-z
1/2+x,1/2+y,1/2-z
1/2-y,1/2+x,1/2-z
1/2-x,1/2+y,1/2+z
1/2+x,1/2-y,1/2+z
1/2-y,1/2-x,1/2+z
1/2+y,1/2+x,1/2+z
loop_
_atom_site_type_symbol
_atom_site_label
_atom_site_fract_x
_atom_site_fract_y
_atom_site_fract_z
Si Si1 0.082247 0.082247 0.679864
Si Si2 0.000000 0.792125 0.319873
Si Si3 0.616570 0.178732 0.820083
Si Si4 0.000000 0.882868 0.179227
Si Si5 0.951823 0.388925 0.681231
Si Si6 0.773782 0.903341 0.681466
Si Si7 0.646787 0.353214 0.683230
O O1 0.078138 0.078138 0.500000
O O2 0.038975 0.092271 0.757996
O O3 0.116674 0.116674 0.721734
O O4 0.953877 0.772695 0.268055
O O5 0.000000 0.794763 0.500000
O O6 0.000000 0.836992 0.246106
O O7 0.659752 0.159752 0.750000
O O8 0.575434 0.151954 0.761968
O O9 0.613313 0.227536 0.769095
O O10 0.619620 0.174937 0.000000
O O11 0.000000 0.880364 0.000000
O O12 0.951157 0.392660 0.500000
O O13 0.932066 0.432066 0.750000
O O14 0.000000 0.383348 0.741979
O O15 0.782484 0.900083 0.500000
O O16 0.806277 0.870532 0.766965
O O17 0.642671 0.357330 0.500000
#
# Coordination Sequence:
#
# PCOD8319822 Si02
#       7
#    16  16  32  16  32  32  16
#     4  12  24  41  61  81 113 158 198 232 282 348
#     4  10  20  34  57  87 116 150 189 233 287 347
#     4   9  19  36  58  83 113 149 188 235 285 339
#     4  12  24  39  59  86 118 150 191 243 293 336
#     4   9  18  32  51  76 109 147 188 231 277 328
#     4  10  21  37  60  87 114 147 191 233 281 346
#     4  12  24  38  58  86 118 148 182 234 292 342
#
# _framework density 18.593264999999999
#
# number of rings (size 3 to 8) (size 9 to 14) (size 15 to 20)
#    0.000    1.800    2.000    2.700    1.400    1.600 
#    0.000    2.500    0.000    0.000    0.000    0.000 
#    0.000    0.000    0.000    0.000    0.000    0.000 
#
# Total GULP energy -991091.391009 kJ/mol
# GULP energy per Si atom -12388.642388 kJ/mol
# Density = 1.855095 g / cm^3
# Si number density = 18.593265 Si / 1000 Ang^3
#
#
#
# Elastic Constant Matrix: (Units=GPa)
#
#
# Indices 1 2 3 4 5 6 
#
# 1 137.5384 70.2367 45.1705 0.0000 0.0000 0.0000
# 2 70.2367 137.5378 45.1703 0.0000 0.0000 0.0000
# 3 45.1705 45.1703 106.6003 0.0000 0.0000 0.0000
# 4 0.0000 0.0000 0.0000 29.6270 0.0000 0.0000
# 5 0.0000 0.0000 0.0000 0.0000 29.6271 0.0000
# 6 0.0000 0.0000 0.0000 0.0000 0.0000 30.3796
#
#
#
# Elastic Compliance Matrix: (Units=1/GPa)
#
#
# Indices 1 2 3 4 5 6 
#
# 1 0.010379 -0.004479 -0.002500 0.000000 0.000000 0.000000
# 2 -0.004479 0.010379 -0.002500 0.000000 0.000000 0.000000
# 3 -0.002500 -0.002500 0.011500 0.000000 0.000000 0.000000
# 4 0.000000 0.000000 0.000000 0.033753 0.000000 0.000000
# 5 0.000000 0.000000 0.000000 0.000000 0.033753 0.000000
# 6 0.000000 0.000000 0.000000 0.000000 0.000000 0.032917
#
#
# Mechanical properties :
#
#
# Convention : Reuss Voigt Hill
#
# Bulk Modulus (GPa) = 75.19180 78.09238 76.64209
# Shear Modulus (GPa) = 32.03639 32.66666 32.35153
#
# Velocity S-wave (km/s) = 4.15542 4.19610 4.17581
# Velocity P-wave (km/s) = 7.97192 8.09740 8.03490
#
# Compressibility (1/GPa) = 0.01329932
#
# Stress axis : x y z
#
# Youngs Moduli (GPa) = 96.34643 96.34612 86.96016
#
# Poissons Ratio (x) = 0.43157 0.21740
# Poissons Ratio (y) = 0.43157 0.21740
# Poissons Ratio (z) = 0.24087 0.24086
#
# Static dielectric constant tensor:
#      x y z
#    x 3.725850 0.000000 0.000000 
#    y 0.000000 3.725850 0.000000 
#    z 0.000000 0.000000 3.393730 
# 
# 
# High freq. dielectric constant tensor:
#      x y z
#    x 1.727850 0.000000 0.000000 
#    y 0.000000 1.727850 0.000000 
#    z 0.000000 0.000000 1.715260 
# 
# From -- ./inp_files/2347.got.cif
#   From: 2010.03.12/outbox.cif.g09.slc.cpg/sg139_2_cif.got.tgz:2347.got - 2010.04.08 09:46:31.
