data_PCOD8319552
_publ_section_title
;
Structure prediction by ZEFSAII (Michael W. Deem and Ramdas Pophale) SiO2 
 PCOD8319552
Probable space group: I 4/M M M
;
_chemical_formula_sum "Si O2"
_cell_formula_units_Z 144
_cell_length_a 21.110953
_cell_length_b 21.110953
_cell_length_c 18.135173
_cell_angle_alpha 90.000000
_cell_angle_beta 90.000000
_cell_angle_gamma 90.000000
_cell_volume 8082.344925
_symmetry_space_group_name_H-M "I 4/M M M"
_symmetry_group_IT_number 139
_symmetry_cell_setting 'tetragonal'
loop_
_space_group_symop_operation_xyz
x,y,z
-y,x,z
-x,-y,z
y,-x,z
x,-y,-z
-x,y,-z
y,x,-z
-y,-x,-z
-x,-y,-z
y,-x,-z
x,y,-z
-y,x,-z
-x,y,z
x,-y,z
-y,-x,z
y,x,z
1/2+x,1/2+y,1/2+z
1/2-y,1/2+x,1/2+z
1/2-x,1/2-y,1/2+z
1/2+y,1/2-x,1/2+z
1/2+x,1/2-y,1/2-z
1/2-x,1/2+y,1/2-z
1/2+y,1/2+x,1/2-z
1/2-y,1/2-x,1/2-z
1/2-x,1/2-y,1/2-z
1/2+y,1/2-x,1/2-z
1/2+x,1/2+y,1/2-z
1/2-y,1/2+x,1/2-z
1/2-x,1/2+y,1/2+z
1/2+x,1/2-y,1/2+z
1/2-y,1/2-x,1/2+z
1/2+y,1/2+x,1/2+z
loop_
_atom_site_type_symbol
_atom_site_label
_atom_site_fract_x
_atom_site_fract_y
_atom_site_fract_z
Si Si1 0.161764 0.736669 0.811503
Si Si2 0.569751 0.670289 0.765671
Si Si3 0.208066 0.892170 0.418872
Si Si4 0.000000 0.427317 0.587604
Si Si5 0.374840 0.856069 0.916054
O O1 0.211778 0.788223 0.844786
O O2 0.195591 0.695591 0.750000
O O3 0.103442 0.770668 0.772276
O O4 0.131219 0.690527 0.872710
O O5 0.500000 0.664219 0.732548
O O6 0.605822 0.605822 0.746517
O O7 0.564800 0.679728 0.854207
O O8 0.190692 0.920277 0.500000
O O9 0.178859 0.821142 0.410503
O O10 0.282528 0.889600 0.410106
O O11 0.064359 0.393708 0.617576
O O12 0.000000 0.500000 0.614217
O O13 0.000000 0.421082 0.500000
O O14 0.363171 0.877730 0.000000
#
# Coordination Sequence:
#
# PCOD8319552 Si02
#       5
#    32  32  32  16  32
#     4  10  19  33  51  74 105 135 165 211 266 306
#     4  10  21  35  52  74 102 138 174 213 260 308
#     4   9  17  29  48  77 105 128 165 211 252 302
#     4   9  20  36  50  70 102 138 176 210 242 290
#     4  10  19  31  53  77 100 137 172 205 250 300
#
# _framework density 17.816610000000001
#
# number of rings (size 3 to 8) (size 9 to 14) (size 15 to 20)
#    0.000    2.333    2.222    0.667    1.556    2.889 
#    0.000    0.000    0.000    0.000    0.000    3.111 
#    0.000    0.000    0.000    4.889    0.000    0.000 
#
# Total GULP energy -892387.481231 kJ/mol
# GULP energy per Si atom -12394.270573 kJ/mol
# Density = 1.777606 g / cm^3
# Si number density = 17.816610 Si / 1000 Ang^3
#
#
#
# Elastic Constant Matrix: (Units=GPa)
#
#
# Indices 1 2 3 4 5 6 
#
# 1 139.7646 55.9415 38.0497 0.0000 0.0000 0.0000
# 2 55.9415 139.7646 38.0497 0.0000 0.0000 0.0000
# 3 38.0497 38.0497 57.8241 0.0000 0.0000 0.0000
# 4 0.0000 0.0000 0.0000 16.2889 0.0000 0.0000
# 5 0.0000 0.0000 0.0000 0.0000 16.2889 0.0000
# 6 0.0000 0.0000 0.0000 0.0000 0.0000 23.3102
#
#
#
# Elastic Compliance Matrix: (Units=1/GPa)
#
#
# Indices 1 2 3 4 5 6 
#
# 1 0.009398 -0.002532 -0.004518 0.000000 0.000000 0.000000
# 2 -0.002532 0.009398 -0.004518 0.000000 0.000000 0.000000
# 3 -0.004518 -0.004518 0.023240 0.000000 0.000000 0.000000
# 4 0.000000 0.000000 0.000000 0.061392 0.000000 0.000000
# 5 0.000000 0.000000 0.000000 0.000000 0.061392 0.000000
# 6 0.000000 0.000000 0.000000 0.000000 0.000000 0.042900
#
#
# Mechanical properties :
#
#
# Convention : Reuss Voigt Hill
#
# Bulk Modulus (GPa) = 52.91034 66.82612 59.86823
# Shear Modulus (GPa) = 21.08312 24.86509 22.97411
#
# Velocity S-wave (km/s) = 3.44370 3.73984 3.59482
# Velocity P-wave (km/s) = 6.75084 7.49918 7.13483
#
# Compressibility (1/GPa) = 0.01889990
#
# Stress axis : x y z
#
# Youngs Moduli (GPa) = 106.40244 106.40244 43.02867
#
# Poissons Ratio (x) = 0.26937 0.19442
# Poissons Ratio (y) = 0.26937 0.19442
# Poissons Ratio (z) = 0.48077 0.48077
#
# Static dielectric constant tensor:
#      x y z
#    x 3.457300 0.000000 0.000000 
#    y 0.000000 3.457300 0.000000 
#    z 0.000000 0.000000 3.354560 
# 
# 
# High freq. dielectric constant tensor:
#      x y z
#    x 1.681950 0.000000 0.000000 
#    y 0.000000 1.681950 0.000000 
#    z 0.000000 0.000000 1.665570 
# 
# From -- ./inp_files/8165.got.cif
#   From: 2010.03.12/outbox.cif.g09.slc.cpg/sg139_5_cif.got.tgz:8165.got - 2010.04.08 09:46:31.
