data_PCOD8319793
_publ_section_title
;
Structure prediction by ZEFSAII (Michael W. Deem and Ramdas Pophale) SiO2 
 PCOD8319793
Probable space group: I 4/M M M
;
_chemical_formula_sum "Si O2"
_cell_formula_units_Z 192
_cell_length_a 19.650667
_cell_length_b 19.650667
_cell_length_c 26.998657
_cell_angle_alpha 90.000000
_cell_angle_beta 90.000000
_cell_angle_gamma 90.000000
_cell_volume 10425.496668
_symmetry_space_group_name_H-M "I 4/M M M"
_symmetry_group_IT_number 139
_symmetry_cell_setting 'tetragonal'
loop_
_space_group_symop_operation_xyz
x,y,z
-y,x,z
-x,-y,z
y,-x,z
x,-y,-z
-x,y,-z
y,x,-z
-y,-x,-z
-x,-y,-z
y,-x,-z
x,y,-z
-y,x,-z
-x,y,z
x,-y,z
-y,-x,z
y,x,z
1/2+x,1/2+y,1/2+z
1/2-y,1/2+x,1/2+z
1/2-x,1/2-y,1/2+z
1/2+y,1/2-x,1/2+z
1/2+x,1/2-y,1/2-z
1/2-x,1/2+y,1/2-z
1/2+y,1/2+x,1/2-z
1/2-y,1/2-x,1/2-z
1/2-x,1/2-y,1/2-z
1/2+y,1/2-x,1/2-z
1/2+x,1/2+y,1/2-z
1/2-y,1/2+x,1/2-z
1/2-x,1/2+y,1/2+z
1/2+x,1/2-y,1/2+z
1/2-y,1/2-x,1/2+z
1/2+y,1/2+x,1/2+z
loop_
_atom_site_type_symbol
_atom_site_label
_atom_site_fract_x
_atom_site_fract_y
_atom_site_fract_z
Si Si1 0.790244 0.320075 0.558471
Si Si2 0.312984 0.924549 0.620848
Si Si3 0.762363 0.077938 0.207672
Si Si4 0.686162 0.578639 0.399009
Si Si5 0.577637 0.113277 0.304091
Si Si6 0.815341 0.078418 0.310821
O O1 0.796437 0.322327 0.500000
O O2 0.745427 0.254574 0.575558
O O3 0.866534 0.317964 0.579404
O O4 0.753430 0.388980 0.576724
O O5 0.378345 0.928257 0.656523
O O6 0.247171 0.908671 0.653242
O O7 0.306953 0.000000 0.596153
O O8 0.810672 0.086359 0.160328
O O9 0.688810 0.111171 0.197394
O O10 0.797216 0.108486 0.256421
O O11 0.746214 0.000000 0.220158
O O12 0.680942 0.500000 0.415368
O O13 0.618771 0.618771 0.417400
O O14 0.500000 0.113339 0.323340
O O15 0.579750 0.079750 0.250000
O O16 0.879602 0.120398 0.331222
O O17 0.837343 0.000000 0.308452
#
# Coordination Sequence:
#
# PCOD8319793 Si02
#       6
#    32  32  32  32  32  32
#     4  10  22  40  60  80 103 136 177 218 269 332
#     4  11  22  36  55  81 109 137 175 223 270 314
#     4   9  17  31  50  74 108 144 175 213 255 298
#     4  10  20  35  56  81 110 144 181 221 264 311
#     4  11  20  33  51  76 112 148 181 216 256 308
#     4  10  20  34  52  77 110 144 179 218 260 311
#
# _framework density 18.416388999999999
#
# number of rings (size 3 to 8) (size 9 to 14) (size 15 to 20)
#    0.000    1.833    3.333    1.500    0.000    2.167 
#    0.000    0.833    0.000    3.000    0.000    4.667 
#    0.000    0.000    0.000   15.500    0.000    0.000 
#
# Total GULP energy -1190250.332605 kJ/mol
# GULP energy per Si atom -12398.440965 kJ/mol
# Density = 1.837447 g / cm^3
# Si number density = 18.416389 Si / 1000 Ang^3
#
#
#
# Elastic Constant Matrix: (Units=GPa)
#
#
# Indices 1 2 3 4 5 6 
#
# 1 115.4184 62.3607 35.6745 0.0000 0.0000 0.0000
# 2 62.3607 115.4184 35.6745 0.0000 0.0000 0.0000
# 3 35.6745 35.6745 67.6624 0.0000 0.0000 0.0000
# 4 0.0000 0.0000 0.0000 14.7774 0.0000 0.0000
# 5 0.0000 0.0000 0.0000 0.0000 14.7774 0.0000
# 6 0.0000 0.0000 0.0000 0.0000 0.0000 21.7223
#
#
#
# Elastic Compliance Matrix: (Units=1/GPa)
#
#
# Indices 1 2 3 4 5 6 
#
# 1 0.012991 -0.005856 -0.003762 0.000000 0.000000 0.000000
# 2 -0.005856 0.012991 -0.003762 0.000000 0.000000 0.000000
# 3 -0.003762 -0.003762 0.018746 0.000000 0.000000 0.000000
# 4 0.000000 0.000000 0.000000 0.067671 0.000000 0.000000
# 5 0.000000 0.000000 0.000000 0.000000 0.067671 0.000000
# 6 0.000000 0.000000 0.000000 0.000000 0.000000 0.046036
#
#
# Mechanical properties :
#
#
# Convention : Reuss Voigt Hill
#
# Bulk Modulus (GPa) = 55.65312 62.87985 59.26649
# Shear Modulus (GPa) = 19.31589 21.24139 20.27864
#
# Velocity S-wave (km/s) = 3.24210 3.39985 3.32191
# Velocity P-wave (km/s) = 6.65582 7.04482 6.85308
#
# Compressibility (1/GPa) = 0.01796844
#
# Stress axis : x y z
#
# Youngs Moduli (GPa) = 76.97626 76.97626 53.34492
#
# Poissons Ratio (x) = 0.45080 0.20067
# Poissons Ratio (y) = 0.45080 0.20067
# Poissons Ratio (z) = 0.28956 0.28956
#
# Static dielectric constant tensor:
#      x y z
#    x 3.375070 0.000000 0.000000 
#    y 0.000000 3.375070 0.000000 
#    z 0.000000 0.000000 3.118170 
# 
# 
# High freq. dielectric constant tensor:
#      x y z
#    x 1.714640 0.000000 0.000000 
#    y 0.000000 1.714640 0.000000 
#    z 0.000000 0.000000 1.688730 
# 
# From -- ./inp_files/11925.got.cif
#   From: 2010.03.12/outbox.cif.g09.slc.cpg/sg139_6_cif.got.tgz:11925.got - 2010.04.08 09:46:31.
