data_PCOD8319270
_publ_section_title
;
Structure prediction by ZEFSAII (Michael W. Deem and Ramdas Pophale) SiO2 
 PCOD8319270
Probable space group: I 4/M M M
;
_chemical_formula_sum "Si O2"
_cell_formula_units_Z 224
_cell_length_a 23.609837
_cell_length_b 23.609837
_cell_length_c 26.808565
_cell_angle_alpha 90.000000
_cell_angle_beta 90.000000
_cell_angle_gamma 90.000000
_cell_volume 14943.748345
_symmetry_space_group_name_H-M "I 4/M M M"
_symmetry_group_IT_number 139
_symmetry_cell_setting 'tetragonal'
loop_
_space_group_symop_operation_xyz
x,y,z
-y,x,z
-x,-y,z
y,-x,z
x,-y,-z
-x,y,-z
y,x,-z
-y,-x,-z
-x,-y,-z
y,-x,-z
x,y,-z
-y,x,-z
-x,y,z
x,-y,z
-y,-x,z
y,x,z
1/2+x,1/2+y,1/2+z
1/2-y,1/2+x,1/2+z
1/2-x,1/2-y,1/2+z
1/2+y,1/2-x,1/2+z
1/2+x,1/2-y,1/2-z
1/2-x,1/2+y,1/2-z
1/2+y,1/2+x,1/2-z
1/2-y,1/2-x,1/2-z
1/2-x,1/2-y,1/2-z
1/2+y,1/2-x,1/2-z
1/2+x,1/2+y,1/2-z
1/2-y,1/2+x,1/2-z
1/2-x,1/2+y,1/2+z
1/2+x,1/2-y,1/2+z
1/2-y,1/2-x,1/2+z
1/2+y,1/2+x,1/2+z
loop_
_atom_site_type_symbol
_atom_site_label
_atom_site_fract_x
_atom_site_fract_y
_atom_site_fract_z
Si Si1 0.380992 0.830292 0.151402
Si Si2 0.844843 0.935191 0.578514
Si Si3 0.265623 0.936613 0.742589
Si Si4 0.231795 0.677224 0.298073
Si Si5 0.934436 0.565032 0.692358
Si Si6 0.939135 0.148469 0.692358
Si Si7 0.065242 0.280194 0.555287
O O1 0.418709 0.800926 0.194068
O O2 0.314366 0.815856 0.157873
O O3 0.394061 0.897183 0.157308
O O4 0.396271 0.811464 0.095723
O O5 0.894778 0.894778 0.558064
O O6 0.833018 0.923097 0.636604
O O7 0.786335 0.920275 0.551481
O O8 0.863106 0.000000 0.568093
O O9 0.266115 0.890227 0.786846
O O10 0.201022 0.940736 0.728094
O O11 0.286248 0.000000 0.760073
O O12 0.292013 0.707987 0.312812
O O13 0.208949 0.708949 0.250000
O O14 0.920124 0.500000 0.680816
O O15 0.920615 0.579386 0.750000
O O16 0.000000 0.577589 0.680776
O O17 0.894289 0.105712 0.715480
O O18 0.000000 0.117769 0.691487
O O19 0.076370 0.305977 0.500000
O O20 0.000000 0.288132 0.571438
#
# Coordination Sequence:
#
# PCOD8319270 Si02
#       7
#    32  32  32  32  32  32  32
#     4  11  19  29  46  63  82 110 141 169 207 258
#     4   9  17  29  43  60  81 105 136 175 218 255
#     4  10  17  27  45  65  85 111 142 172 202 246
#     4   9  19  30  40  60  88 115 138 168 212 258
#     4   9  17  28  43  66  93 113 130 161 206 253
#     4   9  16  25  39  58  82 113 144 175 207 239
#     4  10  20  33  47  62  80 104 140 184 220 250
#
# _framework density 14.989546000000001
#
# number of rings (size 3 to 8) (size 9 to 14) (size 15 to 20)
#    0.000    2.429    1.429    3.429    0.000    3.429 
#    0.000    1.429    0.000    0.429    0.000    4.000 
#    0.000    0.000    0.000    0.000    0.000    0.000 
#
# Total GULP energy -1387972.094992 kJ/mol
# GULP energy per Si atom -12392.607991 kJ/mol
# Density = 1.495543 g / cm^3
# Si number density = 14.989546 Si / 1000 Ang^3
#
#
#
# Elastic Constant Matrix: (Units=GPa)
#
#
# Indices 1 2 3 4 5 6 
#
# 1 74.1512 38.5315 34.4872 0.0000 0.0000 0.0000
# 2 38.5315 74.1509 34.4873 0.0000 0.0000 0.0000
# 3 34.4872 34.4873 61.8759 0.0000 0.0000 0.0000
# 4 0.0000 0.0000 0.0000 12.2232 0.0000 0.0000
# 5 0.0000 0.0000 0.0000 0.0000 12.2233 0.0000
# 6 0.0000 0.0000 0.0000 0.0000 0.0000 22.4714
#
#
#
# Elastic Compliance Matrix: (Units=1/GPa)
#
#
# Indices 1 2 3 4 5 6 
#
# 1 0.020772 -0.007302 -0.007508 0.000000 0.000000 0.000000
# 2 -0.007302 0.020772 -0.007508 0.000000 0.000000 0.000000
# 3 -0.007508 -0.007508 0.024530 0.000000 0.000000 0.000000
# 4 0.000000 0.000000 0.000000 0.081811 0.000000 0.000000
# 5 0.000000 0.000000 0.000000 0.000000 0.081811 0.000000
# 6 0.000000 0.000000 0.000000 0.000000 0.000000 0.044501
#
#
# Mechanical properties :
#
#
# Convention : Reuss Voigt Hill
#
# Bulk Modulus (GPa) = 46.64238 47.24331 46.94284
# Shear Modulus (GPa) = 15.33835 16.22838 15.78337
#
# Velocity S-wave (km/s) = 3.20233 3.29393 3.24845
# Velocity P-wave (km/s) = 6.69757 6.78620 6.74203
#
# Compressibility (1/GPa) = 0.02143973
#
# Stress axis : x y z
#
# Youngs Moduli (GPa) = 48.14133 48.14101 40.76577
#
# Poissons Ratio (x) = 0.35153 0.30605
# Poissons Ratio (y) = 0.35154 0.30606
# Poissons Ratio (z) = 0.36143 0.36143
#
# Static dielectric constant tensor:
#      x y z
#    x 3.043830 0.000000 0.000000 
#    y 0.000000 3.043820 0.000000 
#    z 0.000000 0.000000 2.557270 
# 
# 
# High freq. dielectric constant tensor:
#      x y z
#    x 1.573490 0.000000 0.000000 
#    y 0.000000 1.573490 0.000000 
#    z 0.000000 0.000000 1.522730 
# 
# From -- ./inp_files/12244.got.cif
#   From: 2010.03.12/outbox.cif.g09.slc.cpg/sg139_7_cif.got.tgz:12244.got - 2010.04.08 09:46:31.
