data_PCOD8319893
_publ_section_title
;
Structure prediction by ZEFSAII (Michael W. Deem and Ramdas Pophale) SiO2 
 PCOD8319893
Probable space group: I 4/M M M
;
_chemical_formula_sum "Si O2"
_cell_formula_units_Z 176
_cell_length_a 18.780277
_cell_length_b 18.780277
_cell_length_c 29.218967
_cell_angle_alpha 90.000000
_cell_angle_beta 90.000000
_cell_angle_gamma 90.000000
_cell_volume 10305.494721
_symmetry_space_group_name_H-M "I 4/M M M"
_symmetry_group_IT_number 139
_symmetry_cell_setting 'tetragonal'
loop_
_space_group_symop_operation_xyz
x,y,z
-y,x,z
-x,-y,z
y,-x,z
x,-y,-z
-x,y,-z
y,x,-z
-y,-x,-z
-x,-y,-z
y,-x,-z
x,y,-z
-y,x,-z
-x,y,z
x,-y,z
-y,-x,z
y,x,z
1/2+x,1/2+y,1/2+z
1/2-y,1/2+x,1/2+z
1/2-x,1/2-y,1/2+z
1/2+y,1/2-x,1/2+z
1/2+x,1/2-y,1/2-z
1/2-x,1/2+y,1/2-z
1/2+y,1/2+x,1/2-z
1/2-y,1/2-x,1/2-z
1/2-x,1/2-y,1/2-z
1/2+y,1/2-x,1/2-z
1/2+x,1/2+y,1/2-z
1/2-y,1/2+x,1/2-z
1/2-x,1/2+y,1/2+z
1/2+x,1/2-y,1/2+z
1/2-y,1/2-x,1/2+z
1/2+y,1/2+x,1/2+z
loop_
_atom_site_type_symbol
_atom_site_label
_atom_site_fract_x
_atom_site_fract_y
_atom_site_fract_z
Si Si1 0.308575 0.192932 0.551494
Si Si2 0.580233 0.304852 0.687279
Si Si3 0.500000 0.083645 0.551148
Si Si4 0.865854 0.416424 0.888599
Si Si5 0.418893 0.305735 0.579138
Si Si6 0.145525 0.416795 0.704426
O O1 0.304379 0.162999 0.500000
O O2 0.242175 0.242175 0.563608
O O3 0.302342 0.127114 0.587036
O O4 0.381169 0.238316 0.556248
O O5 0.500000 0.327176 0.701807
O O6 0.634584 0.365417 0.705064
O O7 0.584599 0.294880 0.633275
O O8 0.601585 0.229113 0.709404
O O9 0.500000 0.117974 0.500000
O O10 0.432417 0.107475 0.580363
O O11 0.500000 0.000000 0.545733
O O12 0.849942 0.500000 0.889720
O O13 0.874396 0.391212 0.836781
O O14 0.500000 0.310228 0.561565
O O15 0.378793 0.378793 0.565171
O O16 0.134077 0.500000 0.695084
O O17 0.105440 0.394560 0.750000
#
# Coordination Sequence:
#
# PCOD8319893 Si02
#       6
#    32  32  16  32  32  32
#     4  10  21  35  51  72 101 136 168 204 259 318
#     4   9  18  33  52  74  99 129 168 215 263 311
#     4   9  18  30  46  72 102 128 161 209 259 301
#     4  11  21  34  52  74 101 132 173 217 257 305
#     4   9  17  30  47  67  94 127 165 207 249 294
#     4  11  22  35  51  72 103 142 178 216 263 317
#
# _framework density 17.078268000000001
#
# number of rings (size 3 to 8) (size 9 to 14) (size 15 to 20)
#    0.000    2.091    2.727    1.091    1.273    3.091 
#    0.000    1.818    0.000    0.000    0.000    2.545 
#    0.000    0.364    0.000    2.000    0.000    0.000 
#
# Total GULP energy -1091079.210493 kJ/mol
# GULP energy per Si atom -12398.627392 kJ/mol
# Density = 1.703940 g / cm^3
# Si number density = 17.078268 Si / 1000 Ang^3
#
#
#
# Elastic Constant Matrix: (Units=GPa)
#
#
# Indices 1 2 3 4 5 6 
#
# 1 87.9236 45.2307 33.8662 0.0000 0.0000 0.0000
# 2 45.2307 87.9201 33.8647 0.0000 0.0000 0.0000
# 3 33.8662 33.8647 84.3208 0.0000 0.0000 0.0000
# 4 0.0000 0.0000 0.0000 24.0007 0.0000 0.0000
# 5 0.0000 0.0000 0.0000 0.0000 24.0010 0.0000
# 6 0.0000 0.0000 0.0000 0.0000 0.0000 20.0372
#
#
#
# Elastic Compliance Matrix: (Units=1/GPa)
#
#
# Indices 1 2 3 4 5 6 
#
# 1 0.016431 -0.006993 -0.003791 0.000000 0.000000 0.000000
# 2 -0.006993 0.016431 -0.003791 0.000000 0.000000 0.000000
# 3 -0.003791 -0.003791 0.014904 0.000000 0.000000 0.000000
# 4 0.000000 0.000000 0.000000 0.041665 0.000000 0.000000
# 5 0.000000 0.000000 0.000000 0.000000 0.041665 0.000000
# 6 0.000000 0.000000 0.000000 0.000000 0.000000 0.049907
#
#
# Mechanical properties :
#
#
# Convention : Reuss Voigt Hill
#
# Bulk Modulus (GPa) = 53.71048 54.00973 53.86010
# Shear Modulus (GPa) = 23.10975 23.42132 23.26553
#
# Velocity S-wave (km/s) = 3.68253 3.70727 3.69492
# Velocity P-wave (km/s) = 7.04268 7.07239 7.05755
#
# Compressibility (1/GPa) = 0.01861834
#
# Stress axis : x y z
#
# Youngs Moduli (GPa) = 60.86069 60.85879 67.09446
#
# Poissons Ratio (x) = 0.42557 0.25434
# Poissons Ratio (y) = 0.42559 0.25433
# Poissons Ratio (z) = 0.23071 0.23069
#
# Static dielectric constant tensor:
#      x y z
#    x 3.209940 0.000000 0.000000 
#    y 0.000000 3.209940 0.000000 
#    z 0.000000 0.000000 3.102740 
# 
# 
# High freq. dielectric constant tensor:
#      x y z
#    x 1.646180 0.000000 0.000000 
#    y 0.000000 1.646190 0.000000 
#    z 0.000000 0.000000 1.650400 
# 
# From -- ./inp_files/14250.got.cif
#   From: 2010.03.12/outbox.cif.g09.slc.cpg/sg139_8_cif.got.tgz:14250.got - 2010.04.08 09:46:31.
