data_PCOD8319975
_publ_section_title
;
Structure prediction by ZEFSAII (Michael W. Deem and Ramdas Pophale) SiO2 
 PCOD8319975
Probable space group: I 4/M M M
;
_chemical_formula_sum "Si O2"
_cell_formula_units_Z 160
_cell_length_a 21.673929
_cell_length_b 21.673929
_cell_length_c 16.680041
_cell_angle_alpha 90.000000
_cell_angle_beta 90.000000
_cell_angle_gamma 90.000000
_cell_volume 7835.602688
_symmetry_space_group_name_H-M "I 4/M M M"
_symmetry_group_IT_number 139
_symmetry_cell_setting 'tetragonal'
loop_
_space_group_symop_operation_xyz
x,y,z
-y,x,z
-x,-y,z
y,-x,z
x,-y,-z
-x,y,-z
y,x,-z
-y,-x,-z
-x,-y,-z
y,-x,-z
x,y,-z
-y,x,-z
-x,y,z
x,-y,z
-y,-x,z
y,x,z
1/2+x,1/2+y,1/2+z
1/2-y,1/2+x,1/2+z
1/2-x,1/2-y,1/2+z
1/2+y,1/2-x,1/2+z
1/2+x,1/2-y,1/2-z
1/2-x,1/2+y,1/2-z
1/2+y,1/2+x,1/2-z
1/2-y,1/2-x,1/2-z
1/2-x,1/2-y,1/2-z
1/2+y,1/2-x,1/2-z
1/2+x,1/2+y,1/2-z
1/2-y,1/2+x,1/2-z
1/2-x,1/2+y,1/2+z
1/2+x,1/2-y,1/2+z
1/2-y,1/2-x,1/2+z
1/2+y,1/2+x,1/2+z
loop_
_atom_site_type_symbol
_atom_site_label
_atom_site_fract_x
_atom_site_fract_y
_atom_site_fract_z
Si Si1 0.131295 0.617784 0.409377
Si Si2 0.828540 0.927097 0.500000
Si Si3 0.500000 0.930690 0.093577
Si Si4 0.571170 0.771277 0.291383
Si Si5 0.332484 0.570056 0.410316
Si Si6 0.753942 0.143140 0.630768
O O1 0.141337 0.591084 0.500000
O O2 0.166042 0.578864 0.341358
O O3 0.154605 0.688572 0.411967
O O4 0.059731 0.610135 0.382497
O O5 0.896106 0.896106 0.500000
O O6 0.792236 0.906438 0.420419
O O7 0.836937 0.000000 0.500000
O O8 0.500000 0.000000 0.133076
O O9 0.500000 0.940905 0.000000
O O10 0.500000 0.764310 0.265288
O O11 0.594752 0.718488 0.350564
O O12 0.615773 0.764700 0.216304
O O13 0.307293 0.581079 0.500000
O O14 0.348569 0.500000 0.393510
O O15 0.395706 0.604295 0.393533
O O16 0.793038 0.206963 0.637996
#
# Coordination Sequence:
#
# PCOD8319975 Si02
#       6
#    32  16  16  32  32  32
#     4  11  23  39  64  90 123 166 205 259 316 378
#     4  10  22  41  68  94 124 164 208 266 323 385
#     4   9  20  38  62  92 122 161 209 257 311 379
#     4  11  23  38  60  88 120 158 202 255 311 370
#     4   9  18  33  53  80 114 152 194 239 294 359
#     4  11  24  42  62  89 123 163 211 257 316 385
#
# _framework density 20.419616000000001
#
# number of rings (size 3 to 8) (size 9 to 14) (size 15 to 20)
#    0.000    1.700    1.000    3.000    2.800    4.700 
#    0.000    1.000    0.000    0.000    0.000    2.800 
#    0.000    0.000    0.000    0.000    0.000    0.000 
#
# Total GULP energy -991731.730615 kJ/mol
# GULP energy per Si atom -12396.646633 kJ/mol
# Density = 2.037314 g / cm^3
# Si number density = 20.419616 Si / 1000 Ang^3
#
#
#
# Elastic Constant Matrix: (Units=GPa)
#
#
# Indices 1 2 3 4 5 6 
#
# 1 80.0163 29.0081 30.5470 0.0000 0.0000 0.0000
# 2 29.0081 80.0163 30.5470 0.0000 0.0000 0.0000
# 3 30.5470 30.5470 100.9754 0.0000 0.0000 0.0000
# 4 0.0000 0.0000 0.0000 23.0059 0.0000 0.0000
# 5 0.0000 0.0000 0.0000 0.0000 23.0059 0.0000
# 6 0.0000 0.0000 0.0000 0.0000 0.0000 30.2069
#
#
#
# Elastic Compliance Matrix: (Units=1/GPa)
#
#
# Indices 1 2 3 4 5 6 
#
# 1 0.015325 -0.004280 -0.003341 0.000000 0.000000 0.000000
# 2 -0.004280 0.015325 -0.003341 0.000000 0.000000 0.000000
# 3 -0.003341 -0.003341 0.011925 0.000000 0.000000 0.000000
# 4 0.000000 0.000000 0.000000 0.043467 0.000000 0.000000
# 5 0.000000 0.000000 0.000000 0.000000 0.043467 0.000000
# 6 0.000000 0.000000 0.000000 0.000000 0.000000 0.033105
#
#
# Mechanical properties :
#
#
# Convention : Reuss Voigt Hill
#
# Bulk Modulus (GPa) = 48.42776 49.02356 48.72566
# Shear Modulus (GPa) = 26.12038 26.63747 26.37892
#
# Velocity S-wave (km/s) = 3.58044 3.61571 3.59812
# Velocity P-wave (km/s) = 6.39223 6.44138 6.41685
#
# Compressibility (1/GPa) = 0.02064932
#
# Stress axis : x y z
#
# Youngs Moduli (GPa) = 65.25443 65.25443 83.85780
#
# Poissons Ratio (x) = 0.27929 0.28018
# Poissons Ratio (y) = 0.27929 0.28018
# Poissons Ratio (z) = 0.21803 0.21803
#
# Static dielectric constant tensor:
#      x y z
#    x 3.778600 0.000000 0.000000 
#    y 0.000000 3.778600 0.000000 
#    z 0.000000 0.000000 3.764590 
# 
# 
# High freq. dielectric constant tensor:
#      x y z
#    x 1.797960 0.000000 0.000000 
#    y 0.000000 1.797960 0.000000 
#    z 0.000000 0.000000 1.803110 
# 
# From -- ./inp_files/8428.got.cif
#   From: 2010.03.12/outbox.cif.g09.slc.cpg/sg139_5_cif.got.tgz:8428.got - 2010.04.08 09:46:31.
