data_PCOD8319746
_publ_section_title
;
Structure prediction by ZEFSAII (Michael W. Deem and Ramdas Pophale) SiO2 
 PCOD8319746
Probable space group: I 4/M M M
;
_chemical_formula_sum "Si O2"
_cell_formula_units_Z 240
_cell_length_a 25.523633
_cell_length_b 25.523633
_cell_length_c 19.509371
_cell_angle_alpha 90.000000
_cell_angle_beta 90.000000
_cell_angle_gamma 90.000000
_cell_volume 12709.493702
_symmetry_space_group_name_H-M "I 4/M M M"
_symmetry_group_IT_number 139
_symmetry_cell_setting 'tetragonal'
loop_
_space_group_symop_operation_xyz
x,y,z
-y,x,z
-x,-y,z
y,-x,z
x,-y,-z
-x,y,-z
y,x,-z
-y,-x,-z
-x,-y,-z
y,-x,-z
x,y,-z
-y,x,-z
-x,y,z
x,-y,z
-y,-x,z
y,x,z
1/2+x,1/2+y,1/2+z
1/2-y,1/2+x,1/2+z
1/2-x,1/2-y,1/2+z
1/2+y,1/2-x,1/2+z
1/2+x,1/2-y,1/2-z
1/2-x,1/2+y,1/2-z
1/2+y,1/2+x,1/2-z
1/2-y,1/2-x,1/2-z
1/2-x,1/2-y,1/2-z
1/2+y,1/2-x,1/2-z
1/2+x,1/2+y,1/2-z
1/2-y,1/2+x,1/2-z
1/2-x,1/2+y,1/2+z
1/2+x,1/2-y,1/2+z
1/2-y,1/2-x,1/2+z
1/2+y,1/2+x,1/2+z
loop_
_atom_site_type_symbol
_atom_site_label
_atom_site_fract_x
_atom_site_fract_y
_atom_site_fract_z
Si Si1 0.443219 0.943219 0.750000
Si Si2 0.301425 0.778166 0.080944
Si Si3 0.109578 0.331748 0.078267
Si Si4 0.560049 0.244894 0.183924
Si Si5 0.146520 0.060874 0.920253
Si Si6 0.246314 0.060858 0.835204
Si Si7 0.804807 0.887508 0.421686
Si Si8 0.634352 0.059554 0.372174
O O1 0.500000 0.939406 0.712228
O O2 0.395917 0.939100 0.698520
O O3 0.244567 0.755434 0.103795
O O4 0.310204 0.835820 0.110146
O O5 0.345370 0.737415 0.105029
O O6 0.305741 0.780799 0.000000
O O7 0.067740 0.302102 0.125767
O O8 0.108053 0.395535 0.080378
O O9 0.100103 0.314853 0.000000
O O10 0.500000 0.236028 0.200053
O O11 0.587178 0.251870 0.258841
O O12 0.566669 0.295904 0.134069
O O13 0.578722 0.193415 0.142411
O O14 0.095667 0.095667 0.900791
O O15 0.196791 0.083051 0.878192
O O16 0.133676 0.000000 0.903164
O O17 0.160718 0.067270 0.000000
O O18 0.236130 0.000000 0.827904
O O19 0.794607 0.906548 0.500000
O O20 0.863041 0.863041 0.416702
O O21 0.631654 0.000000 0.404289
#
# Coordination Sequence:
#
# PCOD8319746 Si02
#       8
#    16  32  32  32  32  32  32  32
#     4   9  18  34  54  70  87 120 162 204 263 330
#     4   8  15  29  47  68  95 125 159 198 242 295
#     4  11  21  33  52  73  97 135 178 216 263 320
#     4  10  20  34  53  77 105 137 172 212 258 307
#     4   9  18  34  56  81 109 140 175 217 263 309
#     4  10  22  37  51  72 105 142 178 216 259 308
#     4   9  17  32  53  76 105 136 163 198 249 304
#     4  10  20  33  50  73  99 124 162 221 275 321
#
# _framework density 18.883520999999998
#
# number of rings (size 3 to 8) (size 9 to 14) (size 15 to 20)
#    0.000    2.467    1.333    2.000    0.000    4.133 
#    0.000    3.333    0.000    1.600    0.000    2.800 
#    0.000    0.267    0.000    1.467    0.000    0.000 
#
# Total GULP energy -1486628.191323 kJ/mol
# GULP energy per Si atom -12388.568261 kJ/mol
# Density = 1.884054 g / cm^3
# Si number density = 18.883521 Si / 1000 Ang^3
#
#
#
# Elastic Constant Matrix: (Units=GPa)
#
#
# Indices 1 2 3 4 5 6 
#
# 1 49.4604 22.7487 22.5883 0.0000 0.0000 0.0000
# 2 22.7487 49.4604 22.5883 0.0000 0.0000 0.0000
# 3 22.5883 22.5883 88.2090 0.0000 0.0000 0.0000
# 4 0.0000 0.0000 0.0000 23.8847 0.0000 0.0000
# 5 0.0000 0.0000 0.0000 0.0000 23.8847 0.0000
# 6 0.0000 0.0000 0.0000 0.0000 0.0000 27.7364
#
#
#
# Elastic Compliance Matrix: (Units=1/GPa)
#
#
# Indices 1 2 3 4 5 6 
#
# 1 0.026964 -0.010473 -0.004223 0.000000 0.000000 0.000000
# 2 -0.010473 0.026964 -0.004223 0.000000 0.000000 0.000000
# 3 -0.004223 -0.004223 0.013499 0.000000 0.000000 0.000000
# 4 0.000000 0.000000 0.000000 0.041868 0.000000 0.000000
# 5 0.000000 0.000000 0.000000 0.000000 0.041868 0.000000
# 6 0.000000 0.000000 0.000000 0.000000 0.000000 0.036054
#
#
# Mechanical properties :
#
#
# Convention : Reuss Voigt Hill
#
# Bulk Modulus (GPa) = 33.79604 35.88673 34.84138
# Shear Modulus (GPa) = 21.28412 23.04813 22.16613
#
# Velocity S-wave (km/s) = 3.36091 3.49742 3.42984
# Velocity P-wave (km/s) = 5.74430 5.94598 5.84601
#
# Compressibility (1/GPa) = 0.02958927
#
# Stress axis : x y z
#
# Youngs Moduli (GPa) = 37.08691 37.08691 74.07695
#
# Poissons Ratio (x) = 0.38841 0.31282
# Poissons Ratio (y) = 0.38841 0.31282
# Poissons Ratio (z) = 0.15661 0.15661
#
# Static dielectric constant tensor:
#      x y z
#    x 3.543010 0.000000 0.000000 
#    y 0.000000 3.543010 0.000000 
#    z 0.000000 0.000000 3.382790 
# 
# 
# High freq. dielectric constant tensor:
#      x y z
#    x 1.721960 0.000000 0.000000 
#    y 0.000000 1.721960 0.000000 
#    z 0.000000 0.000000 1.715980 
# 
# From -- ./inp_files/9085.got.cif
#   From: 2010.03.12/outbox.cif.g09.slc.cpg/sg139_5_cif.got.tgz:9085.got - 2010.04.08 09:46:31.
