data_PCOD8319072
_publ_section_title
;
Structure prediction by ZEFSAII (Michael W. Deem and Ramdas Pophale) SiO2 
 PCOD8319072
Probable space group: P 42/N C M
;
_chemical_formula_sum "Si O2"
_cell_formula_units_Z 96
_cell_length_a 15.999224
_cell_length_b 15.999224
_cell_length_c 21.570197
_cell_angle_alpha 90.000000
_cell_angle_beta 90.000000
_cell_angle_gamma 90.000000
_cell_volume 5521.434814
_symmetry_space_group_name_H-M "P 42/N C M"
_symmetry_group_IT_number 138
_space_group.IT_coordinate_system_code '2'
_symmetry_cell_setting 'tetragonal'
loop_
_space_group_symop_operation_xyz
x,y,z
1/2-y,x,1/2+z
1/2-x,1/2-y,z
y,1/2-x,1/2+z
1/2+x,-y,1/2-z
-x,1/2+y,1/2-z
1/2+y,1/2+x,-z
-y,-x,-z
-x,-y,-z
1/2+y,-x,1/2-z
1/2+x,1/2+y,-z
-y,1/2+x,1/2-z
1/2-x,y,1/2+z
x,1/2-y,1/2+z
1/2-y,1/2-x,z
y,x,z
loop_
_atom_site_type_symbol
_atom_site_label
_atom_site_fract_x
_atom_site_fract_y
_atom_site_fract_z
Si Si1 0.244203 0.999820 0.243264
Si Si2 0.304747 0.941788 0.374404
Si Si3 0.939656 0.939656 0.771990
Si Si4 0.898895 0.601106 0.780074
Si Si5 0.998762 0.501239 0.138929
Si Si6 0.957198 0.542803 0.646832
Si Si7 0.359333 0.602984 0.430076
Si Si8 0.656024 0.240640 0.656943
O O1 0.156562 0.038979 0.228220
O O2 0.302059 0.076979 0.222235
O O3 0.254906 0.973614 0.314274
O O4 0.262934 0.913307 0.207661
O O5 0.234942 0.934998 0.428015
O O6 0.353762 0.854511 0.365548
O O7 0.377135 0.008674 0.391178
O O8 0.975264 0.975264 0.708443
O O9 0.972947 0.972947 0.838900
O O10 0.931421 0.568579 0.847153
O O11 0.937867 0.562134 0.718227
O O12 0.037702 0.578689 0.102296
O O13 0.388058 0.611943 0.500000
O O14 0.357499 0.694213 0.398939
O O15 0.750000 0.250000 0.684561
#
# Coordination Sequence:
#
# PCOD8319072 Si02
#       8
#    16  16   8   8   8   8  16  16
#     4  11  20  35  52  84 116 148 185 229 283 338
#     4  10  21  33  54  80 115 147 184 228 283 338
#     4  11  20  32  58  82 120 139 189 227 276 348
#     4   9  20  32  54  79 117 147 182 230 278 335
#     4  11  19  38  55  86 109 153 184 232 273 330
#     4   9  18  32  51  82 112 150 176 221 288 341
#     4  11  23  38  57  82 115 151 190 235 274 327
#     4  10  22  30  52  83 114 149 180 230 284 333
#
# _framework density 17.386785
#
# number of rings (size 3 to 8) (size 9 to 14) (size 15 to 20)
#    0.000    1.667    5.000    0.250    4.667    3.333 
#    0.000    0.000    0.000    3.500    0.000    0.000 
#    0.000    0.000    0.000    0.000    0.000    0.000 
#
# Total GULP energy -1189444.617839 kJ/mol
# GULP energy per Si atom -12390.048102 kJ/mol
# Density = 1.734721 g / cm^3
# Si number density = 17.386785 Si / 1000 Ang^3
#
#
#
# Elastic Constant Matrix: (Units=GPa)
#
#
# Indices 1 2 3 4 5 6 
#
# 1 65.0901 73.5634 26.5201 0.0000 0.0000 0.0000
# 2 73.5634 65.0908 26.5194 0.0000 0.0000 0.0000
# 3 26.5201 26.5194 50.4344 0.0000 0.0000 0.0000
# 4 0.0000 0.0000 0.0000 4.4707 0.0000 0.0000
# 5 0.0000 0.0000 0.0000 0.0000 4.4706 0.0000
# 6 0.0000 0.0000 0.0000 0.0000 0.0000 38.0742
#
#
#
# Elastic Compliance Matrix: (Units=1/GPa)
#
#
# Indices 1 2 3 4 5 6 
#
# 1 -0.054498 0.063525 -0.004746 0.000000 0.000000 0.000000
# 2 0.063525 -0.054496 -0.004748 0.000000 0.000000 0.000000
# 3 -0.004746 -0.004748 0.024820 0.000000 0.000000 0.000000
# 4 0.000000 0.000000 0.000000 0.223681 0.000000 0.000000
# 5 0.000000 0.000000 0.000000 0.000000 0.223681 0.000000
# 6 0.000000 0.000000 0.000000 0.000000 0.000000 0.026265
#
#
# Mechanical properties :
#
#
# Convention : Reuss Voigt Hill
#
# Bulk Modulus (GPa) = 41.86284 48.20236 45.03260
# Shear Modulus (GPa) = 17.27987 13.00391 15.14189
#
# Velocity S-wave (km/s) = 3.15596 2.73778 2.95428
# Velocity P-wave (km/s) = 6.11635 6.14635 6.13137
#
# Compressibility (1/GPa) = 0.02388753
#
# Stress axis : x y z
#
# Youngs Moduli (GPa) = -18.34939 -18.34992 40.28975
#
# Poissons Ratio (x) = 1.16568 0.19122
# Poissons Ratio (y) = 1.16565 0.19132
# Poissons Ratio (z) = -0.08709 -0.08713
#
# Static dielectric constant tensor:
#      x y z
#    x 3.346920 0.000000 0.000000 
#    y 0.000000 3.346910 0.000000 
#    z 0.000000 0.000000 2.873640 
# 
# 
# High freq. dielectric constant tensor:
#      x y z
#    x 1.678480 0.000000 0.000000 
#    y 0.000000 1.678480 0.000000 
#    z 0.000000 0.000000 1.632040 
# 
# From -- ./inp_files/6347.got.cif
#   From: 2010.03.12/outbox.cif.g09.slc.cpg/sg138_4_cif.got.tgz:6347.got - 2010.04.08 09:41:05.
