data_PCOD8319720
_publ_section_title
;
Structure prediction by ZEFSAII (Michael W. Deem and Ramdas Pophale) SiO2 
 PCOD8319720
Probable space group: I 4/M M M
;
_chemical_formula_sum "Si O2"
_cell_formula_units_Z 144
_cell_length_a 20.353734
_cell_length_b 20.353734
_cell_length_c 21.955054
_cell_angle_alpha 90.000000
_cell_angle_beta 90.000000
_cell_angle_gamma 90.000000
_cell_volume 9095.418749
_symmetry_space_group_name_H-M "I 4/M M M"
_symmetry_group_IT_number 139
_symmetry_cell_setting 'tetragonal'
loop_
_space_group_symop_operation_xyz
x,y,z
-y,x,z
-x,-y,z
y,-x,z
x,-y,-z
-x,y,-z
y,x,-z
-y,-x,-z
-x,-y,-z
y,-x,-z
x,y,-z
-y,x,-z
-x,y,z
x,-y,z
-y,-x,z
y,x,z
1/2+x,1/2+y,1/2+z
1/2-y,1/2+x,1/2+z
1/2-x,1/2-y,1/2+z
1/2+y,1/2-x,1/2+z
1/2+x,1/2-y,1/2-z
1/2-x,1/2+y,1/2-z
1/2+y,1/2+x,1/2-z
1/2-y,1/2-x,1/2-z
1/2-x,1/2-y,1/2-z
1/2+y,1/2-x,1/2-z
1/2+x,1/2+y,1/2-z
1/2-y,1/2+x,1/2-z
1/2-x,1/2+y,1/2+z
1/2+x,1/2-y,1/2+z
1/2-y,1/2-x,1/2+z
1/2+y,1/2+x,1/2+z
loop_
_atom_site_type_symbol
_atom_site_label
_atom_site_fract_x
_atom_site_fract_y
_atom_site_fract_z
Si Si1 0.669386 0.224673 0.345905
Si Si2 0.396167 0.500000 0.928080
Si Si3 0.500000 0.133541 0.071304
Si Si4 0.640747 0.924697 0.071437
Si Si5 0.266508 0.500000 0.854041
Si Si6 0.370507 0.266927 0.218061
O O1 0.709599 0.290402 0.367809
O O2 0.621917 0.195257 0.397528
O O3 0.625769 0.238819 0.286371
O O4 0.721922 0.170156 0.327978
O O5 0.435191 0.435191 0.905850
O O6 0.323354 0.500000 0.903332
O O7 0.391265 0.500000 0.000000
O O8 0.434476 0.093092 0.089134
O O9 0.500000 0.199231 0.109876
O O10 0.500000 0.150943 0.000000
O O11 0.652905 0.000000 0.091377
O O12 0.651158 0.915514 0.000000
O O13 0.273799 0.441663 0.807653
O O14 0.338500 0.338500 0.220781
#
# Coordination Sequence:
#
# PCOD8319720 Si02
#       6
#    32  16  16  32  16  32
#     4   9  18  35  51  69  99 127 159 202 247 293
#     4   9  19  34  48  66  99 138 170 207 252 289
#     4  10  20  33  46  71 104 133 166 202 236 277
#     4  10  20  34  52  72  99 133 165 198 244 295
#     4  12  18  29  52  75  94 128 173 210 232 291
#     4   9  19  32  48  71  98 128 158 201 253 288
#
# _framework density 15.832146
#
# number of rings (size 3 to 8) (size 9 to 14) (size 15 to 20)
#    0.000    2.333    2.222    3.000    1.556    1.778 
#    0.000    0.000    0.000    0.000    0.000    0.000 
#    0.000    0.444    0.000    2.444    0.000    0.000 
#
# Total GULP energy -892443.774079 kJ/mol
# GULP energy per Si atom -12395.052418 kJ/mol
# Density = 1.579611 g / cm^3
# Si number density = 15.832146 Si / 1000 Ang^3
#
#
#
# Elastic Constant Matrix: (Units=GPa)
#
#
# Indices 1 2 3 4 5 6 
#
# 1 99.9803 40.9846 43.2725 0.0000 0.0000 0.0000
# 2 40.9846 99.9803 43.2725 0.0000 0.0000 0.0000
# 3 43.2725 43.2725 52.5570 0.0000 0.0000 0.0000
# 4 0.0000 0.0000 0.0000 25.2260 0.0000 0.0000
# 5 0.0000 0.0000 0.0000 0.0000 25.2260 0.0000
# 6 0.0000 0.0000 0.0000 0.0000 0.0000 12.8188
#
#
#
# Elastic Compliance Matrix: (Units=1/GPa)
#
#
# Indices 1 2 3 4 5 6 
#
# 1 0.015648 -0.001302 -0.011811 0.000000 0.000000 0.000000
# 2 -0.001302 0.015648 -0.011811 0.000000 0.000000 0.000000
# 3 -0.011811 -0.011811 0.038476 0.000000 0.000000 0.000000
# 4 0.000000 0.000000 0.000000 0.039642 0.000000 0.000000
# 5 0.000000 0.000000 0.000000 0.000000 0.039642 0.000000
# 6 0.000000 0.000000 0.000000 0.000000 0.000000 0.078011
#
#
# Mechanical properties :
#
#
# Convention : Reuss Voigt Hill
#
# Bulk Modulus (GPa) = 50.19494 56.39744 53.29619
# Shear Modulus (GPa) = 17.63314 20.98669 19.30992
#
# Velocity S-wave (km/s) = 3.34092 3.64479 3.49616
# Velocity P-wave (km/s) = 6.83049 7.30836 7.07346
#
# Compressibility (1/GPa) = 0.01992233
#
# Stress axis : x y z
#
# Youngs Moduli (GPa) = 63.90627 63.90627 25.98992
#
# Poissons Ratio (x) = 0.08324 0.30697
# Poissons Ratio (y) = 0.08324 0.30697
# Poissons Ratio (z) = 0.75481 0.75481
#
# Static dielectric constant tensor:
#      x y z
#    x 3.494240 0.000000 0.000000 
#    y 0.000000 3.494240 0.000000 
#    z 0.000000 0.000000 2.878270 
# 
# 
# High freq. dielectric constant tensor:
#      x y z
#    x 1.609140 0.000000 0.000000 
#    y 0.000000 1.609140 0.000000 
#    z 0.000000 0.000000 1.598750 
# 
# From -- ./inp_files/10304.got.cif
#   From: 2010.03.12/outbox.cif.g09.slc.cpg/sg139_6_cif.got.tgz:10304.got - 2010.04.08 09:46:31.
