data_PCOD8319903
_publ_section_title
;
Structure prediction by ZEFSAII (Michael W. Deem and Ramdas Pophale) SiO2 
 PCOD8319903
Probable space group: I 4/M M M
;
_chemical_formula_sum "Si O2"
_cell_formula_units_Z 192
_cell_length_a 16.858851
_cell_length_b 16.858851
_cell_length_c 37.458541
_cell_angle_alpha 90.000000
_cell_angle_beta 90.000000
_cell_angle_gamma 90.000000
_cell_volume 10646.498626
_symmetry_space_group_name_H-M "I 4/M M M"
_symmetry_group_IT_number 139
_symmetry_cell_setting 'tetragonal'
loop_
_space_group_symop_operation_xyz
x,y,z
-y,x,z
-x,-y,z
y,-x,z
x,-y,-z
-x,y,-z
y,x,-z
-y,-x,-z
-x,-y,-z
y,-x,-z
x,y,-z
-y,x,-z
-x,y,z
x,-y,z
-y,-x,z
y,x,z
1/2+x,1/2+y,1/2+z
1/2-y,1/2+x,1/2+z
1/2-x,1/2-y,1/2+z
1/2+y,1/2-x,1/2+z
1/2+x,1/2-y,1/2-z
1/2-x,1/2+y,1/2-z
1/2+y,1/2+x,1/2-z
1/2-y,1/2-x,1/2-z
1/2-x,1/2-y,1/2-z
1/2+y,1/2-x,1/2-z
1/2+x,1/2+y,1/2-z
1/2-y,1/2+x,1/2-z
1/2-x,1/2+y,1/2+z
1/2+x,1/2-y,1/2+z
1/2-y,1/2-x,1/2+z
1/2+y,1/2+x,1/2+z
loop_
_atom_site_type_symbol
_atom_site_label
_atom_site_fract_x
_atom_site_fract_y
_atom_site_fract_z
Si Si1 0.408867 0.147414 0.958712
Si Si2 0.000000 0.126111 0.042444
Si Si3 0.216803 0.089166 0.270067
Si Si4 0.293305 0.839641 0.666250
Si Si5 0.223042 0.908991 0.401846
Si Si6 0.305402 0.000000 0.957522
Si Si7 0.780358 0.091012 0.811490
O O1 0.500000 0.120625 0.952928
O O2 0.389845 0.227826 0.937537
O O3 0.351843 0.077889 0.944077
O O4 0.391590 0.165794 0.000000
O O5 0.921274 0.078727 0.055476
O O6 0.000000 0.215520 0.058126
O O7 0.000000 0.129736 0.000000
O O8 0.140766 0.140766 0.280055
O O9 0.287752 0.107908 0.297709
O O10 0.245227 0.104341 0.229679
O O11 0.187955 0.000000 0.275037
O O12 0.226937 0.773064 0.667803
O O13 0.281739 0.893732 0.631482
O O14 0.377836 0.794250 0.665226
O O15 0.145110 0.854891 0.400618
O O16 0.194636 0.000000 0.401064
O O17 0.304512 0.000000 0.000000
O O18 0.860929 0.139072 0.820005
O O19 0.796743 0.000000 0.821166
#
# Coordination Sequence:
#
# PCOD8319903 Si02
#       7
#    32  16  32  32  32  16  32
#     4   9  18  33  52  75 103 131 162 205 253 297
#     4   8  14  24  38  62  97 127 150 184 230 278
#     4   9  16  26  44  69  97 130 164 202 247 294
#     4   9  17  31  48  67  95 129 167 206 244 293
#     4  10  21  36  54  76 102 133 168 209 255 302
#     4   9  16  28  50  75  97 127 165 200 240 296
#     4   9  17  29  47  72  99 128 163 202 247 298
#
# _framework density 18.034098
#
# number of rings (size 3 to 8) (size 9 to 14) (size 15 to 20)
#    0.000    2.917    0.000    1.500    0.000    4.500 
#    1.500    3.333    0.000    4.500    0.000    7.000 
#    0.000    0.000    0.000    0.000    0.000    0.000 
#
# Total GULP energy -1190045.840661 kJ/mol
# GULP energy per Si atom -12396.310840 kJ/mol
# Density = 1.799305 g / cm^3
# Si number density = 18.034098 Si / 1000 Ang^3
#
#
#
# Elastic Constant Matrix: (Units=GPa)
#
#
# Indices 1 2 3 4 5 6 
#
# 1 106.1663 74.7588 39.6489 0.0000 0.0000 0.0000
# 2 74.7588 106.1663 39.6489 0.0000 0.0000 0.0000
# 3 39.6489 39.6489 50.8089 0.0000 0.0000 0.0000
# 4 0.0000 0.0000 0.0000 20.2119 0.0000 0.0000
# 5 0.0000 0.0000 0.0000 0.0000 20.2119 0.0000
# 6 0.0000 0.0000 0.0000 0.0000 0.0000 24.3730
#
#
#
# Elastic Compliance Matrix: (Units=1/GPa)
#
#
# Indices 1 2 3 4 5 6 
#
# 1 0.020120 -0.011720 -0.006555 0.000000 0.000000 0.000000
# 2 -0.011720 0.020120 -0.006555 0.000000 0.000000 0.000000
# 3 -0.006555 -0.006555 0.029912 0.000000 0.000000 0.000000
# 4 0.000000 0.000000 0.000000 0.049476 0.000000 0.000000
# 5 0.000000 0.000000 0.000000 0.000000 0.049476 0.000000
# 6 0.000000 0.000000 0.000000 0.000000 0.000000 0.041029
#
#
# Mechanical properties :
#
#
# Convention : Reuss Voigt Hill
#
# Bulk Modulus (GPa) = 48.79928 63.47275 56.13602
# Shear Modulus (GPa) = 18.75306 20.23167 19.49236
#
# Velocity S-wave (km/s) = 3.22819 3.35305 3.29121
# Velocity P-wave (km/s) = 6.40415 7.08964 6.75559
#
# Compressibility (1/GPa) = 0.02049210
#
# Stress axis : x y z
#
# Youngs Moduli (GPa) = 49.70212 49.70212 33.43116
#
# Poissons Ratio (x) = 0.58249 0.21915
# Poissons Ratio (y) = 0.58249 0.21915
# Poissons Ratio (z) = 0.32580 0.32580
#
# Static dielectric constant tensor:
#      x y z
#    x 3.321360 0.000000 0.000000 
#    y 0.000000 3.321360 0.000000 
#    z 0.000000 0.000000 3.283710 
# 
# 
# High freq. dielectric constant tensor:
#      x y z
#    x 1.690540 0.000000 0.000000 
#    y 0.000000 1.690540 0.000000 
#    z 0.000000 0.000000 1.680810 
# 
# From -- ./inp_files/14355.got.cif
#   From: 2010.03.12/outbox.cif.g09.slc.cpg/sg139_8_cif.got.tgz:14355.got - 2010.04.08 09:46:31.
