data_PCOD8319892
_publ_section_title
;
Structure prediction by ZEFSAII (Michael W. Deem and Ramdas Pophale) SiO2 
 PCOD8319892
Probable space group: I 4/M M M
;
_chemical_formula_sum "Si O2"
_cell_formula_units_Z 160
_cell_length_a 21.394267
_cell_length_b 21.394267
_cell_length_c 18.634902
_cell_angle_alpha 90.000000
_cell_angle_beta 90.000000
_cell_angle_gamma 90.000000
_cell_volume 8529.467842
_symmetry_space_group_name_H-M "I 4/M M M"
_symmetry_group_IT_number 139
_symmetry_cell_setting 'tetragonal'
loop_
_space_group_symop_operation_xyz
x,y,z
-y,x,z
-x,-y,z
y,-x,z
x,-y,-z
-x,y,-z
y,x,-z
-y,-x,-z
-x,-y,-z
y,-x,-z
x,y,-z
-y,x,-z
-x,y,z
x,-y,z
-y,-x,z
y,x,z
1/2+x,1/2+y,1/2+z
1/2-y,1/2+x,1/2+z
1/2-x,1/2-y,1/2+z
1/2+y,1/2-x,1/2+z
1/2+x,1/2-y,1/2-z
1/2-x,1/2+y,1/2-z
1/2+y,1/2+x,1/2-z
1/2-y,1/2-x,1/2-z
1/2-x,1/2-y,1/2-z
1/2+y,1/2-x,1/2-z
1/2+x,1/2+y,1/2-z
1/2-y,1/2+x,1/2-z
1/2-x,1/2+y,1/2+z
1/2+x,1/2-y,1/2+z
1/2-y,1/2-x,1/2+z
1/2+y,1/2+x,1/2+z
loop_
_atom_site_type_symbol
_atom_site_label
_atom_site_fract_x
_atom_site_fract_y
_atom_site_fract_z
Si Si1 0.360622 0.860622 0.250000
Si Si2 0.334695 0.000000 0.578296
Si Si3 0.071510 0.747640 0.921714
Si Si4 0.000000 0.215587 0.320955
Si Si5 0.571269 0.108708 0.389997
Si Si6 0.619662 0.277570 0.731232
Si Si7 0.401262 0.500000 0.915369
O O1 0.411869 0.876513 0.308683
O O2 0.367199 0.788104 0.229326
O O3 0.379513 0.059773 0.579782
O O4 0.300880 0.000000 0.500000
O O5 0.285418 0.000000 0.644234
O O6 0.077913 0.673321 0.932381
O O7 0.113168 0.772511 0.855570
O O8 0.000000 0.765526 0.904342
O O9 0.091577 0.776380 0.000000
O O10 0.942581 0.199112 0.269421
O O11 0.000000 0.168522 0.386748
O O12 0.500000 0.083033 0.394941
O O13 0.675789 0.324212 0.748782
O O14 0.438462 0.438462 0.888929
O O15 0.396737 0.500000 0.000000
#
# Coordination Sequence:
#
# PCOD8319892 Si02
#       7
#    16  16  32  16  32  32  16
#     4  10  21  38  57  84 116 146 192 233 285 332
#     4  12  24  37  54  82 119 157 193 230 277 336
#     4   9  18  35  57  82 113 147 186 233 279 330
#     4  12  22  39  55  89 117 151 190 238 285 343
#     4  10  21  34  56  83 116 151 190 233 276 324
#     4  11  22  37  60  84 113 150 189 235 285 340
#     4   9  19  38  64  89 112 144 188 239 297 356
#
# _framework density 18.758496999999998
#
# number of rings (size 3 to 8) (size 9 to 14) (size 15 to 20)
#    0.000    1.700    3.000    2.400    2.800    2.000 
#    0.000    0.000    0.000    0.000    0.000    0.000 
#    0.000    1.600    0.000    0.000    0.000    0.000 
#
# Total GULP energy -991347.033178 kJ/mol
# GULP energy per Si atom -12391.837915 kJ/mol
# Density = 1.871580 g / cm^3
# Si number density = 18.758497 Si / 1000 Ang^3
#
#
#
# Elastic Constant Matrix: (Units=GPa)
#
#
# Indices 1 2 3 4 5 6 
#
# 1 74.6344 19.3316 25.2994 0.0000 0.0000 0.0000
# 2 19.3316 74.6344 25.2994 0.0000 0.0000 0.0000
# 3 25.2994 25.2994 82.4713 0.0000 0.0000 0.0000
# 4 0.0000 0.0000 0.0000 11.9092 0.0000 0.0000
# 5 0.0000 0.0000 0.0000 0.0000 11.9092 0.0000
# 6 0.0000 0.0000 0.0000 0.0000 0.0000 25.6403
#
#
#
# Elastic Compliance Matrix: (Units=1/GPa)
#
#
# Indices 1 2 3 4 5 6 
#
# 1 0.015415 -0.002667 -0.003911 0.000000 0.000000 0.000000
# 2 -0.002667 0.015415 -0.003911 0.000000 0.000000 0.000000
# 3 -0.003911 -0.003911 0.014525 0.000000 0.000000 0.000000
# 4 0.000000 0.000000 0.000000 0.083969 0.000000 0.000000
# 5 0.000000 0.000000 0.000000 0.000000 0.083969 0.000000
# 6 0.000000 0.000000 0.000000 0.000000 0.000000 0.039001
#
#
# Mechanical properties :
#
#
# Convention : Reuss Voigt Hill
#
# Bulk Modulus (GPa) = 41.02046 41.28898 41.15472
# Shear Modulus (GPa) = 17.76854 20.67905 19.22379
#
# Velocity S-wave (km/s) = 3.08104 3.32382 3.20473
# Velocity P-wave (km/s) = 5.87982 6.06539 5.97332
#
# Compressibility (1/GPa) = 0.02437808
#
# Stress axis : x y z
#
# Youngs Moduli (GPa) = 64.87137 64.87137 68.84805
#
# Poissons Ratio (x) = 0.17302 0.26924
# Poissons Ratio (y) = 0.17302 0.26924
# Poissons Ratio (z) = 0.25369 0.25369
#
# Static dielectric constant tensor:
#      x y z
#    x 3.393130 0.000000 0.000000 
#    y 0.000000 3.393130 0.000000 
#    z 0.000000 0.000000 3.507060 
# 
# 
# High freq. dielectric constant tensor:
#      x y z
#    x 1.717330 0.000000 0.000000 
#    y 0.000000 1.717330 0.000000 
#    z 0.000000 0.000000 1.737640 
# 
# From -- ./inp_files/8499.got.cif
#   From: 2010.03.12/outbox.cif.g09.slc.cpg/sg139_5_cif.got.tgz:8499.got - 2010.04.08 09:46:31.
