data_PCOD8319948
_publ_section_title
;
Structure prediction by ZEFSAII (Michael W. Deem and Ramdas Pophale) SiO2 
 PCOD8319948
Probable space group: I 4/M M M
;
_chemical_formula_sum "Si O2"
_cell_formula_units_Z 160
_cell_length_a 21.670183
_cell_length_b 21.670183
_cell_length_c 17.645293
_cell_angle_alpha 90.000000
_cell_angle_beta 90.000000
_cell_angle_gamma 90.000000
_cell_volume 8286.173679
_symmetry_space_group_name_H-M "I 4/M M M"
_symmetry_group_IT_number 139
_symmetry_cell_setting 'tetragonal'
loop_
_space_group_symop_operation_xyz
x,y,z
-y,x,z
-x,-y,z
y,-x,z
x,-y,-z
-x,y,-z
y,x,-z
-y,-x,-z
-x,-y,-z
y,-x,-z
x,y,-z
-y,x,-z
-x,y,z
x,-y,z
-y,-x,z
y,x,z
1/2+x,1/2+y,1/2+z
1/2-y,1/2+x,1/2+z
1/2-x,1/2-y,1/2+z
1/2+y,1/2-x,1/2+z
1/2+x,1/2-y,1/2-z
1/2-x,1/2+y,1/2-z
1/2+y,1/2+x,1/2-z
1/2-y,1/2-x,1/2-z
1/2-x,1/2-y,1/2-z
1/2+y,1/2-x,1/2-z
1/2+x,1/2+y,1/2-z
1/2-y,1/2+x,1/2-z
1/2-x,1/2+y,1/2+z
1/2+x,1/2-y,1/2+z
1/2-y,1/2-x,1/2+z
1/2+y,1/2+x,1/2+z
loop_
_atom_site_type_symbol
_atom_site_label
_atom_site_fract_x
_atom_site_fract_y
_atom_site_fract_z
Si Si1 0.127608 0.228944 0.646430
Si Si2 0.928394 0.171727 0.500000
Si Si3 0.071911 0.829189 0.790965
Si Si4 0.736914 0.072556 0.083887
Si Si5 0.000000 0.571710 0.590095
Si Si6 0.871945 0.620940 0.838628
O O1 0.193165 0.193165 0.648601
O O2 0.088842 0.211563 0.572828
O O3 0.086299 0.213097 0.718856
O O4 0.139994 0.301482 0.645537
O O5 0.893389 0.106612 0.500000
O O6 0.000000 0.155785 0.500000
O O7 0.105423 0.894578 0.784466
O O8 0.096598 0.793865 0.865545
O O9 0.000000 0.843386 0.794708
O O10 0.673313 0.086231 0.125222
O O11 0.742112 0.000000 0.076155
O O12 0.739822 0.103089 0.000000
O O13 0.941989 0.608857 0.621538
O O14 0.000000 0.500000 0.616912
O O15 0.000000 0.575200 0.500000
O O16 0.885220 0.614781 0.750000
#
# Coordination Sequence:
#
# PCOD8319948 Si02
#       6
#    32  16  32  32  16  32
#     4  10  23  40  58  90 127 160 204 257 307 365
#     4  10  22  39  62  88 124 162 202 256 305 369
#     4  10  21  39  63  90 123 159 199 251 305 365
#     4  10  22  41  62  86 120 161 203 247 301 363
#     4  11  28  46  62  92 130 164 210 266 313 374
#     4  12  25  38  66  91 120 166 207 256 312 368
#
# _framework density 19.309273000000001
#
# number of rings (size 3 to 8) (size 9 to 14) (size 15 to 20)
#    0.000    1.500    2.000    1.800    8.400    3.500 
#    0.000    0.000    0.000    3.600    0.000    2.800 
#    0.000    0.000    0.000    0.000    0.000    0.000 
#
# Total GULP energy -992238.348727 kJ/mol
# GULP energy per Si atom -12402.979359 kJ/mol
# Density = 1.926532 g / cm^3
# Si number density = 19.309273 Si / 1000 Ang^3
#
#
#
# Elastic Constant Matrix: (Units=GPa)
#
#
# Indices 1 2 3 4 5 6 
#
# 1 69.4528 31.3344 26.7360 0.0000 0.0000 0.0000
# 2 31.3344 69.4539 26.7361 0.0000 0.0000 0.0000
# 3 26.7360 26.7361 151.9669 0.0000 0.0000 0.0000
# 4 0.0000 0.0000 0.0000 23.0750 0.0000 0.0000
# 5 0.0000 0.0000 0.0000 0.0000 23.0709 0.0000
# 6 0.0000 0.0000 0.0000 0.0000 0.0000 -153.1727
#
#
#
# Elastic Compliance Matrix: (Units=1/GPa)
#
#
# Indices 1 2 3 4 5 6 
#
# 1 0.018589 -0.007645 -0.001925 0.000000 0.000000 0.000000
# 2 -0.007645 0.018588 -0.001925 0.000000 0.000000 0.000000
# 3 -0.001925 -0.001925 0.007258 0.000000 0.000000 0.000000
# 4 0.000000 0.000000 0.000000 0.043337 0.000000 0.000000
# 5 0.000000 0.000000 0.000000 0.000000 0.043345 0.000000
# 6 0.000000 0.000000 0.000000 0.000000 0.000000 -0.006529
#
#
# Mechanical properties :
#
#
# Convention : Reuss Voigt Hill
#
# Bulk Modulus (GPa) = 46.63472 51.16517 48.89995
# Shear Modulus (GPa) = 32.31495 -7.66756 12.32369
#
# Velocity S-wave (km/s) = 4.09534 -1.99488 2.52906
# Velocity P-wave (km/s) = 6.82395 4.60968 5.82303
#
# Compressibility (1/GPa) = 0.02144325
#
# Stress axis : x y z
#
# Youngs Moduli (GPa) = 53.79634 53.79717 137.78229
#
# Poissons Ratio (x) = 0.41129 0.26527
# Poissons Ratio (y) = 0.41128 0.26527
# Poissons Ratio (z) = 0.10357 0.10357
#
# Static dielectric constant tensor:
#      x y z
#    x 3.432900 0.000000 0.000000 
#    y 0.000000 3.432910 0.000000 
#    z 0.000000 0.000000 4.111420 
# 
# 
# High freq. dielectric constant tensor:
#      x y z
#    x 1.751570 0.000000 0.000000 
#    y 0.000000 1.751570 0.000000 
#    z 0.000000 0.000000 1.774920 
# 
# From -- ./inp_files/8423.got.cif
#   From: 2010.03.12/outbox.cif.g09.slc.cpg/sg139_5_cif.got.tgz:8423.got - 2010.04.08 09:46:31.
