data_PCOD8319088
_publ_section_title
;
Structure prediction by ZEFSAII (Michael W. Deem and Ramdas Pophale) SiO2 
 PCOD8319088
Probable space group: P 42/N C M
;
_chemical_formula_sum "Si O2"
_cell_formula_units_Z 112
_cell_length_a 14.646631
_cell_length_b 14.646631
_cell_length_c 24.226606
_cell_angle_alpha 90.000000
_cell_angle_beta 90.000000
_cell_angle_gamma 90.000000
_cell_volume 5197.183572
_symmetry_space_group_name_H-M "P 42/N C M"
_symmetry_group_IT_number 138
_space_group.IT_coordinate_system_code '2'
_symmetry_cell_setting 'tetragonal'
loop_
_space_group_symop_operation_xyz
x,y,z
1/2-y,x,1/2+z
1/2-x,1/2-y,z
y,1/2-x,1/2+z
1/2+x,-y,1/2-z
-x,1/2+y,1/2-z
1/2+y,1/2+x,-z
-y,-x,-z
-x,-y,-z
1/2+y,-x,1/2-z
1/2+x,1/2+y,-z
-y,1/2+x,1/2-z
1/2-x,y,1/2+z
x,1/2-y,1/2+z
1/2-y,1/2-x,z
y,x,z
loop_
_atom_site_type_symbol
_atom_site_label
_atom_site_fract_x
_atom_site_fract_y
_atom_site_fract_z
Si Si1 0.016229 0.634077 0.139466
Si Si2 0.513947 0.841789 0.469318
Si Si3 0.226052 0.611948 0.955291
Si Si4 0.471691 0.180970 0.309324
Si Si5 0.745209 0.892755 0.382755
Si Si6 0.127013 0.857192 0.873374
Si Si7 0.695805 0.442063 0.310274
O O1 0.049939 0.652252 0.076478
O O2 0.103121 0.613693 0.178280
O O3 0.954504 0.545497 0.137439
O O4 0.957172 0.718512 0.163995
O O5 0.566895 0.933106 0.490294
O O6 0.449419 0.805217 0.517192
O O7 0.583748 0.763804 0.448514
O O8 0.461056 0.858900 0.411949
O O9 0.282118 0.667979 0.908970
O O10 0.177974 0.677974 0.000000
O O11 0.376575 0.123426 0.305616
O O12 0.542104 0.128595 0.348147
O O13 0.519127 0.195161 0.250794
O O14 0.644424 0.855577 0.361502
O O15 0.809030 0.809030 0.376705
O O16 0.793373 0.973095 0.350353
O O17 0.122555 0.782794 0.823796
#
# Coordination Sequence:
#
# PCOD8319088 Si02
#       7
#    16  16  16  16  16  16  16
#     4  11  26  44  63  93 130 168 214 266 319 379
#     4  10  21  36  58  85 115 157 204 253 309 366
#     4  11  24  40  62  89 122 166 211 256 316 385
#     4  11  24  42  66  93 125 169 214 260 319 385
#     4   9  18  33  55  86 120 154 200 256 309 367
#     4  10  23  40  61  92 127 157 204 266 321 377
#     4  11  22  40  66  92 125 165 207 260 324 392
#
# _framework density 21.550135000000001
#
# number of rings (size 3 to 8) (size 9 to 14) (size 15 to 20)
#    0.000    1.571    0.000    4.714    0.000   12.571 
#    0.000    2.857    0.000    0.000    0.000    0.000 
#    0.000    0.000    0.000    0.000    0.000    0.000 
#
# Total GULP energy -1387612.074657 kJ/mol
# GULP energy per Si atom -12389.393524 kJ/mol
# Density = 2.150109 g / cm^3
# Si number density = 21.550135 Si / 1000 Ang^3
#
#
#
# Elastic Constant Matrix: (Units=GPa)
#
#
# Indices 1 2 3 4 5 6 
#
# 1 96.8257 18.2662 24.3098 0.0000 0.0000 0.0000
# 2 18.2662 96.8257 24.3098 0.0000 0.0000 0.0000
# 3 24.3098 24.3098 89.5418 0.0000 0.0000 0.0000
# 4 0.0000 0.0000 0.0000 24.9973 0.0000 0.0000
# 5 0.0000 0.0000 0.0000 0.0000 24.9973 0.0000
# 6 0.0000 0.0000 0.0000 0.0000 0.0000 -1.6587
#
#
#
# Elastic Compliance Matrix: (Units=1/GPa)
#
#
# Indices 1 2 3 4 5 6 
#
# 1 0.011272 -0.001457 -0.002664 0.000000 0.000000 0.000000
# 2 -0.001457 0.011272 -0.002664 0.000000 0.000000 0.000000
# 3 -0.002664 -0.002664 0.012615 0.000000 0.000000 0.000000
# 4 0.000000 0.000000 0.000000 0.040004 0.000000 0.000000
# 5 0.000000 0.000000 0.000000 0.000000 0.040004 0.000000
# 6 0.000000 0.000000 0.000000 0.000000 0.000000 -0.602864
#
#
# Mechanical properties :
#
#
# Convention : Reuss Voigt Hill
#
# Bulk Modulus (GPa) = 46.32770 46.32944 46.32857
# Shear Modulus (GPa) = -10.70827 24.08766 6.68969
#
# Velocity S-wave (km/s) = -2.23154 3.34690 1.76380
# Velocity P-wave (km/s) = 3.86065 6.03993 5.06880
#
# Compressibility (1/GPa) = 0.02158536
#
# Stress axis : x y z
#
# Youngs Moduli (GPa) = 88.71736 88.71736 79.27230
#
# Poissons Ratio (x) = 0.12930 0.21122
# Poissons Ratio (y) = 0.12930 0.21122
# Poissons Ratio (z) = 0.23639 0.23639
#
# Static dielectric constant tensor:
#      x y z
#    x 3.973360 0.000000 0.000000 
#    y 0.000000 3.973360 0.000000 
#    z 0.000000 0.000000 4.082000 
# 
# 
# High freq. dielectric constant tensor:
#      x y z
#    x 1.853100 0.000000 0.000000 
#    y 0.000000 1.853100 0.000000 
#    z 0.000000 0.000000 1.840620 
# 
# From -- ./inp_files/7045.got.cif
#   From: 2010.03.12/outbox.cif.g09.slc.cpg/sg138_4_cif.got.tgz:7045.got - 2010.04.08 09:41:05.
