data_PCOD8319598
_publ_section_title
;
Structure prediction by ZEFSAII (Michael W. Deem and Ramdas Pophale) SiO2 
 PCOD8319598
Probable space group: I 4/M M M
;
_chemical_formula_sum "Si O2"
_cell_formula_units_Z 240
_cell_length_a 30.962120
_cell_length_b 30.962120
_cell_length_c 14.710270
_cell_angle_alpha 90.000000
_cell_angle_beta 90.000000
_cell_angle_gamma 90.000000
_cell_volume 14102.042626
_symmetry_space_group_name_H-M "I 4/M M M"
_symmetry_group_IT_number 139
_symmetry_cell_setting 'tetragonal'
loop_
_space_group_symop_operation_xyz
x,y,z
-y,x,z
-x,-y,z
y,-x,z
x,-y,-z
-x,y,-z
y,x,-z
-y,-x,-z
-x,-y,-z
y,-x,-z
x,y,-z
-y,x,-z
-x,y,z
x,-y,z
-y,-x,z
y,x,z
1/2+x,1/2+y,1/2+z
1/2-y,1/2+x,1/2+z
1/2-x,1/2-y,1/2+z
1/2+y,1/2-x,1/2+z
1/2+x,1/2-y,1/2-z
1/2-x,1/2+y,1/2-z
1/2+y,1/2+x,1/2-z
1/2-y,1/2-x,1/2-z
1/2-x,1/2-y,1/2-z
1/2+y,1/2-x,1/2-z
1/2+x,1/2+y,1/2-z
1/2-y,1/2+x,1/2-z
1/2-x,1/2+y,1/2+z
1/2+x,1/2-y,1/2+z
1/2-y,1/2-x,1/2+z
1/2+y,1/2+x,1/2+z
loop_
_atom_site_type_symbol
_atom_site_label
_atom_site_fract_x
_atom_site_fract_y
_atom_site_fract_z
Si Si1 0.123561 0.050264 0.500000
Si Si2 0.048701 0.708747 0.601038
Si Si3 0.625691 0.806468 0.227891
Si Si4 0.767410 0.697941 0.896135
Si Si5 0.391801 0.676612 0.689891
Si Si6 0.546762 0.613242 0.393624
Si Si7 0.242216 0.642933 0.602666
Si Si8 0.804961 0.048833 0.351436
O O1 0.081863 0.081863 0.500000
O O2 0.153431 0.059703 0.587343
O O3 0.108218 0.000000 0.500000
O O4 0.058265 0.690526 0.500000
O O5 0.081785 0.686692 0.671675
O O6 0.053249 0.760486 0.593876
O O7 0.000000 0.696298 0.631608
O O8 0.647389 0.852612 0.250000
O O9 0.657842 0.774643 0.171445
O O10 0.614790 0.785555 0.325710
O O11 0.723373 0.723373 0.869776
O O12 0.806668 0.731432 0.886131
O O13 0.764605 0.680732 0.000000
O O14 0.360429 0.639572 0.728492
O O15 0.428715 0.657479 0.625255
O O16 0.363790 0.708054 0.627021
O O17 0.415675 0.699683 0.772887
O O18 0.541919 0.607332 0.500000
O O19 0.500000 0.614042 0.346031
O O20 0.572924 0.572924 0.351373
O O21 0.232325 0.627133 0.500000
O O22 0.809647 0.000000 0.312855
#
# Coordination Sequence:
#
# PCOD8319598 Si02
#       8
#    16  32  32  32  32  32  32  32
#     4  10  20  35  52  72  98 126 162 214 281 347
#     4  10  19  35  58  81 106 137 175 216 258 302
#     4  10  20  34  53  76 105 139 175 216 257 305
#     4   9  18  32  48  68  98 135 174 217 264 311
#     4  11  20  30  45  64  87 117 157 203 249 302
#     4   9  18  31  45  61  80 103 137 187 246 303
#     4  10  20  32  46  66  95 134 173 208 250 302
#     4  10  19  33  51  69  92 122 158 209 265 314
#
# _framework density 17.018810999999999
#
# number of rings (size 3 to 8) (size 9 to 14) (size 15 to 20)
#    0.000    2.133    2.000    2.000    0.000    5.000 
#    0.000    0.667    0.000    1.200    0.000    1.867 
#    0.000    0.267    0.000    1.467    0.000    0.000 
#
# Total GULP energy -1487426.313361 kJ/mol
# GULP energy per Si atom -12395.219278 kJ/mol
# Density = 1.698008 g / cm^3
# Si number density = 17.018811 Si / 1000 Ang^3
#
#
#
# Elastic Constant Matrix: (Units=GPa)
#
#
# Indices 1 2 3 4 5 6 
#
# 1 70.6817 34.6993 36.7463 0.0000 0.0000 0.0000
# 2 34.6993 70.6828 36.7466 0.0000 0.0000 0.0000
# 3 36.7463 36.7466 98.0992 0.0000 0.0000 0.0000
# 4 0.0000 0.0000 0.0000 23.2014 0.0000 0.0000
# 5 0.0000 0.0000 0.0000 0.0000 23.2015 0.0000
# 6 0.0000 0.0000 0.0000 0.0000 0.0000 19.1705
#
#
#
# Elastic Compliance Matrix: (Units=1/GPa)
#
#
# Indices 1 2 3 4 5 6 
#
# 1 0.020318 -0.007473 -0.004811 0.000000 0.000000 0.000000
# 2 -0.007473 0.020318 -0.004811 0.000000 0.000000 0.000000
# 3 -0.004811 -0.004811 0.013798 0.000000 0.000000 0.000000
# 4 0.000000 0.000000 0.000000 0.043101 0.000000 0.000000
# 5 0.000000 0.000000 0.000000 0.000000 0.043101 0.000000
# 6 0.000000 0.000000 0.000000 0.000000 0.000000 0.052163
#
#
# Mechanical properties :
#
#
# Convention : Reuss Voigt Hill
#
# Bulk Modulus (GPa) = 49.40188 50.64978 50.02583
# Shear Modulus (GPa) = 21.39141 21.86610 21.62876
#
# Velocity S-wave (km/s) = 3.54916 3.58833 3.56880
# Velocity P-wave (km/s) = 6.77394 6.85520 6.81469
#
# Compressibility (1/GPa) = 0.02024214
#
# Stress axis : x y z
#
# Youngs Moduli (GPa) = 49.21735 49.21808 72.47233
#
# Poissons Ratio (x) = 0.36781 0.34870
# Poissons Ratio (y) = 0.36780 0.34870
# Poissons Ratio (z) = 0.23681 0.23681
#
# Static dielectric constant tensor:
#      x y z
#    x 3.090960 0.000000 0.000000 
#    y 0.000000 3.090960 0.000000 
#    z 0.000000 0.000000 3.301720 
# 
# 
# High freq. dielectric constant tensor:
#      x y z
#    x 1.634350 0.000000 0.000000 
#    y 0.000000 1.634350 0.000000 
#    z 0.000000 0.000000 1.662180 
# 
# From -- ./inp_files/6787.got.cif
#   From: 2010.03.12/outbox.cif.g09.slc.cpg/sg139_4_cif.got.tgz:6787.got - 2010.04.08 09:46:31.
