data_PCOD8319206
_publ_section_title
;
Structure prediction by ZEFSAII (Michael W. Deem and Ramdas Pophale) SiO2 
 PCOD8319206
Probable space group: P 42/N C M
;
_chemical_formula_sum "Si O2"
_cell_formula_units_Z 52
_cell_length_a 14.038005
_cell_length_b 14.038005
_cell_length_c 13.126063
_cell_angle_alpha 90.000000
_cell_angle_beta 90.000000
_cell_angle_gamma 90.000000
_cell_volume 2586.695276
_symmetry_space_group_name_H-M "P 42/N C M"
_symmetry_group_IT_number 138
_space_group.IT_coordinate_system_code '2'
_symmetry_cell_setting 'tetragonal'
loop_
_space_group_symop_operation_xyz
x,y,z
1/2-y,x,1/2+z
1/2-x,1/2-y,z
y,1/2-x,1/2+z
1/2+x,-y,1/2-z
-x,1/2+y,1/2-z
1/2+y,1/2+x,-z
-y,-x,-z
-x,-y,-z
1/2+y,-x,1/2-z
1/2+x,1/2+y,-z
-y,1/2+x,1/2-z
1/2-x,y,1/2+z
x,1/2-y,1/2+z
1/2-y,1/2-x,z
y,x,z
loop_
_atom_site_type_symbol
_atom_site_label
_atom_site_fract_x
_atom_site_fract_y
_atom_site_fract_z
Si Si1 0.500118 0.999883 0.326074
Si Si2 0.106139 0.616917 0.841275
Si Si3 0.530227 0.682510 0.510990
Si Si4 0.606838 0.893163 0.504327
Si Si5 0.750000 0.250000 0.750000
O O1 0.437892 0.927562 0.259285
O O2 0.559956 0.940045 0.406431
O O3 0.430697 0.069304 0.387869
O O4 0.161478 0.714128 0.816841
O O5 0.013087 0.647362 0.904062
O O6 0.181570 0.552523 0.904160
O O7 0.606657 0.606657 0.549421
O O8 0.583963 0.781803 0.499172
#
# Coordination Sequence:
#
# PCOD8319206 Si02
#       5
#     8  16  16   8   4
#     4  11  22  45  62  92 128 179 190 275 324 374
#     4  11  22  42  67  87 130 167 210 252 332 368
#     4  11  22  43  64  91 124 177 204 260 310 391
#     4  11  25  36  66  96 131 151 228 258 314 358
#     4  12  24  34  64 104 120 154 224 270 296 392
#
# _framework density 20.102869999999999
#
# number of rings (size 3 to 8) (size 9 to 14) (size 15 to 20)
#    0.000    0.923    3.077    5.077    0.000    4.923 
#    0.000    0.000    6.769    0.000    0.000    0.000 
#    0.000    0.000    0.000    0.000    0.000    0.000 
#
# Total GULP energy -644973.474672 kJ/mol
# GULP energy per Si atom -12403.336051 kJ/mol
# Density = 2.005712 g / cm^3
# Si number density = 20.102870 Si / 1000 Ang^3
#
#
#
# Elastic Constant Matrix: (Units=GPa)
#
#
# Indices 1 2 3 4 5 6 
#
# 1 100.7574 47.0748 29.1639 0.0000 0.0000 0.0000
# 2 47.0748 100.7574 29.1639 0.0000 0.0000 0.0000
# 3 29.1639 29.1639 102.6757 0.0000 0.0000 0.0000
# 4 0.0000 0.0000 0.0000 15.3414 0.0000 0.0000
# 5 0.0000 0.0000 0.0000 0.0000 15.3414 0.0000
# 6 0.0000 0.0000 0.0000 0.0000 0.0000 55.9874
#
#
#
# Elastic Compliance Matrix: (Units=1/GPa)
#
#
# Indices 1 2 3 4 5 6 
#
# 1 0.013123 -0.005505 -0.002164 0.000000 0.000000 0.000000
# 2 -0.005505 0.013123 -0.002164 0.000000 0.000000 0.000000
# 3 -0.002164 -0.002164 0.010969 0.000000 0.000000 0.000000
# 4 0.000000 0.000000 0.000000 0.065183 0.000000 0.000000
# 5 0.000000 0.000000 0.000000 0.000000 0.065183 0.000000
# 6 0.000000 0.000000 0.000000 0.000000 0.000000 0.017861
#
#
# Mechanical properties :
#
#
# Convention : Reuss Voigt Hill
#
# Bulk Modulus (GPa) = 56.98147 57.22176 57.10161
# Shear Modulus (GPa) = 23.70149 30.58656 27.14403
#
# Velocity S-wave (km/s) = 3.43740 3.90488 3.67857
# Velocity P-wave (km/s) = 6.64535 6.98978 6.81974
#
# Compressibility (1/GPa) = 0.01754957
#
# Stress axis : x y z
#
# Youngs Moduli (GPa) = 76.20149 76.20149 91.16900
#
# Poissons Ratio (x) = 0.41948 0.19728
# Poissons Ratio (y) = 0.41948 0.19728
# Poissons Ratio (z) = 0.16489 0.16489
#
# Static dielectric constant tensor:
#      x y z
#    x 3.686440 0.000000 0.000000 
#    y 0.000000 3.686440 0.000000 
#    z 0.000000 0.000000 3.704960 
# 
# 
# High freq. dielectric constant tensor:
#      x y z
#    x 1.791960 0.000000 0.000000 
#    y 0.000000 1.791960 0.000000 
#    z 0.000000 0.000000 1.791470 
# 
# From -- ./inp_files/2516.got.cif
#   From: 2010.03.12/outbox.cif.g09.slc.cpg/sg138_2_cif.got.tgz:2516.got - 2010.04.08 09:41:05.
