data_PCOD8319841
_publ_section_title
;
Structure prediction by ZEFSAII (Michael W. Deem and Ramdas Pophale) SiO2 
 PCOD8319841
Probable space group: I 4/M M M
;
_chemical_formula_sum "Si O2"
_cell_formula_units_Z 144
_cell_length_a 20.430595
_cell_length_b 20.430595
_cell_length_c 17.602086
_cell_angle_alpha 90.000000
_cell_angle_beta 90.000000
_cell_angle_gamma 90.000000
_cell_volume 7347.272848
_symmetry_space_group_name_H-M "I 4/M M M"
_symmetry_group_IT_number 139
_symmetry_cell_setting 'tetragonal'
loop_
_space_group_symop_operation_xyz
x,y,z
-y,x,z
-x,-y,z
y,-x,z
x,-y,-z
-x,y,-z
y,x,-z
-y,-x,-z
-x,-y,-z
y,-x,-z
x,y,-z
-y,x,-z
-x,y,z
x,-y,z
-y,-x,z
y,x,z
1/2+x,1/2+y,1/2+z
1/2-y,1/2+x,1/2+z
1/2-x,1/2-y,1/2+z
1/2+y,1/2-x,1/2+z
1/2+x,1/2-y,1/2-z
1/2-x,1/2+y,1/2-z
1/2+y,1/2+x,1/2-z
1/2-y,1/2-x,1/2-z
1/2-x,1/2-y,1/2-z
1/2+y,1/2-x,1/2-z
1/2+x,1/2+y,1/2-z
1/2-y,1/2+x,1/2-z
1/2-x,1/2+y,1/2+z
1/2+x,1/2-y,1/2+z
1/2-y,1/2-x,1/2+z
1/2+y,1/2+x,1/2+z
loop_
_atom_site_type_symbol
_atom_site_label
_atom_site_fract_x
_atom_site_fract_y
_atom_site_fract_z
Si Si1 0.425013 0.200586 0.082992
Si Si2 0.923356 0.240347 0.844787
Si Si3 0.387916 0.074959 0.831629
Si Si4 0.922307 0.820288 0.000000
Si Si5 0.681583 0.577541 0.187480
O O1 0.500000 0.218814 0.073819
O O2 0.421687 0.125909 0.111915
O O3 0.396405 0.255150 0.140457
O O4 0.390577 0.205584 0.000000
O O5 0.900698 0.313339 0.824898
O O6 0.903639 0.193432 0.775466
O O7 0.000000 0.240226 0.854286
O O8 0.894194 0.216962 0.925492
O O9 0.422090 0.077911 0.750000
O O10 0.394231 0.000000 0.862334
O O11 0.893484 0.893484 0.000000
O O12 0.000000 0.826894 0.000000
O O13 0.669028 0.500000 0.177009
O O14 0.617191 0.617191 0.160225
#
# Coordination Sequence:
#
# PCOD8319841 Si02
#       5
#    32  32  32  16  32
#     4  10  22  39  57  82 119 156 188 231 289 342
#     4   9  19  35  55  80 115 156 188 228 292 350
#     4  11  21  36  60  86 114 150 195 238 279 335
#     4  10  20  35  56  82 113 151 193 239 292 348
#     4  10  20  38  62  85 113 150 191 237 292 349
#
# _framework density 19.599108000000001
#
# number of rings (size 3 to 8) (size 9 to 14) (size 15 to 20)
#    0.000    2.000    2.222    1.333    1.556    2.778 
#    0.000    4.444    0.000    4.000    0.000    3.111 
#    0.000    0.000    0.000    0.000    0.000    0.000 
#
# Total GULP energy -892332.566334 kJ/mol
# GULP energy per Si atom -12393.507866 kJ/mol
# Density = 1.955450 g / cm^3
# Si number density = 19.599108 Si / 1000 Ang^3
#
#
#
# Elastic Constant Matrix: (Units=GPa)
#
#
# Indices 1 2 3 4 5 6 
#
# 1 79.9865 41.6793 41.1394 0.0000 0.0000 0.0000
# 2 41.6793 79.9868 41.1396 0.0000 0.0000 0.0000
# 3 41.1394 41.1396 144.4654 0.0000 0.0000 0.0000
# 4 0.0000 0.0000 0.0000 17.7155 0.0000 0.0000
# 5 0.0000 0.0000 0.0000 0.0000 17.7154 0.0000
# 6 0.0000 0.0000 0.0000 0.0000 0.0000 24.0248
#
#
#
# Elastic Compliance Matrix: (Units=1/GPa)
#
#
# Indices 1 2 3 4 5 6 
#
# 1 0.018142 -0.007963 -0.002899 0.000000 0.000000 0.000000
# 2 -0.007963 0.018142 -0.002899 0.000000 0.000000 0.000000
# 3 -0.002899 -0.002899 0.008573 0.000000 0.000000 0.000000
# 4 0.000000 0.000000 0.000000 0.056448 0.000000 0.000000
# 5 0.000000 0.000000 0.000000 0.000000 0.056448 0.000000
# 6 0.000000 0.000000 0.000000 0.000000 0.000000 0.041624
#
#
# Mechanical properties :
#
#
# Convention : Reuss Voigt Hill
#
# Bulk Modulus (GPa) = 57.68038 61.37283 59.52661
# Shear Modulus (GPa) = 21.48906 23.92315 22.70611
#
# Velocity S-wave (km/s) = 3.31483 3.49753 3.40741
# Velocity P-wave (km/s) = 6.64416 6.90597 6.77633
#
# Compressibility (1/GPa) = 0.01733692
#
# Stress axis : x y z
#
# Youngs Moduli (GPa) = 55.12013 55.12030 116.64395
#
# Poissons Ratio (x) = 0.43890 0.33813
# Poissons Ratio (y) = 0.43890 0.33814
# Poissons Ratio (z) = 0.15979 0.15979
#
# Static dielectric constant tensor:
#      x y z
#    x 3.498420 0.000000 0.000000 
#    y 0.000000 3.498430 0.000000 
#    z 0.000000 0.000000 4.020310 
# 
# 
# High freq. dielectric constant tensor:
#      x y z
#    x 1.747040 0.000000 0.000000 
#    y 0.000000 1.747040 0.000000 
#    z 0.000000 0.000000 1.771160 
# 
# From -- ./inp_files/8178.got.cif
#   From: 2010.03.12/outbox.cif.g09.slc.cpg/sg139_5_cif.got.tgz:8178.got - 2010.04.08 09:46:31.
