data_PCOD8319894
_publ_section_title
;
Structure prediction by ZEFSAII (Michael W. Deem and Ramdas Pophale) SiO2 
 PCOD8319894
Probable space group: I 4/M M M
;
_chemical_formula_sum "Si O2"
_cell_formula_units_Z 192
_cell_length_a 26.623358
_cell_length_b 26.623358
_cell_length_c 14.258644
_cell_angle_alpha 90.000000
_cell_angle_beta 90.000000
_cell_angle_gamma 90.000000
_cell_volume 10106.572369
_symmetry_space_group_name_H-M "I 4/M M M"
_symmetry_group_IT_number 139
_symmetry_cell_setting 'tetragonal'
loop_
_space_group_symop_operation_xyz
x,y,z
-y,x,z
-x,-y,z
y,-x,z
x,-y,-z
-x,y,-z
y,x,-z
-y,-x,-z
-x,-y,-z
y,-x,-z
x,y,-z
-y,x,-z
-x,y,z
x,-y,z
-y,-x,z
y,x,z
1/2+x,1/2+y,1/2+z
1/2-y,1/2+x,1/2+z
1/2-x,1/2-y,1/2+z
1/2+y,1/2-x,1/2+z
1/2+x,1/2-y,1/2-z
1/2-x,1/2+y,1/2-z
1/2+y,1/2+x,1/2-z
1/2-y,1/2-x,1/2-z
1/2-x,1/2-y,1/2-z
1/2+y,1/2-x,1/2-z
1/2+x,1/2+y,1/2-z
1/2-y,1/2+x,1/2-z
1/2-x,1/2+y,1/2+z
1/2+x,1/2-y,1/2+z
1/2-y,1/2-x,1/2+z
1/2+y,1/2+x,1/2+z
loop_
_atom_site_type_symbol
_atom_site_label
_atom_site_fract_x
_atom_site_fract_y
_atom_site_fract_z
Si Si1 0.000000 0.079046 0.111183
Si Si2 0.621953 0.055065 0.371661
Si Si3 0.692280 0.772445 0.607790
Si Si4 0.752062 0.406571 0.697676
Si Si5 0.718622 0.884931 0.396035
Si Si6 0.140673 0.445355 0.343609
Si Si7 0.000000 0.806703 0.112491
O O1 0.000000 0.135867 0.147416
O O2 0.950229 0.049772 0.147604
O O3 0.000000 0.078963 0.000000
O O4 0.674725 0.074893 0.409171
O O5 0.581201 0.096754 0.403883
O O6 0.621267 0.049329 0.261157
O O7 0.610751 0.000000 0.416131
O O8 0.677050 0.770083 0.500000
O O9 0.745274 0.745274 0.627834
O O10 0.649478 0.740530 0.661985
O O11 0.698102 0.830649 0.638873
O O12 0.746626 0.406673 0.811686
O O13 0.808163 0.414296 0.657839
O O14 0.716876 0.449549 0.655434
O O15 0.745246 0.880362 0.500000
O O16 0.151125 0.500000 0.388073
O O17 0.000000 0.800861 0.000000
#
# Coordination Sequence:
#
# PCOD8319894 Si02
#       7
#    16  32  32  32  32  32  16
#     4   8  16  35  62  89 119 151 176 205 255 323
#     4   9  17  29  48  72  96 130 183 234 275 322
#     4  10  21  37  58  83 109 144 191 236 284 344
#     4  11  20  35  54  78 113 149 185 228 283 337
#     4  10  21  35  53  76 105 144 189 236 283 334
#     4   9  16  29  48  70 100 137 174 222 282 335
#     4  11  23  36  56  87 120 152 188 227 274 337
#
# _framework density 18.997537999999999
#
# number of rings (size 3 to 8) (size 9 to 14) (size 15 to 20)
#    0.000    2.250    2.500    1.250    1.167    2.667 
#    0.000    3.333    0.000    0.000    0.000    1.167 
#    0.000    0.667    0.000    3.667    0.000    0.333 
#
# Total GULP energy -1189293.334728 kJ/mol
# GULP energy per Si atom -12388.472237 kJ/mol
# Density = 1.895430 g / cm^3
# Si number density = 18.997538 Si / 1000 Ang^3
#
#
#
# Elastic Constant Matrix: (Units=GPa)
#
#
# Indices 1 2 3 4 5 6 
#
# 1 102.0192 43.4008 32.1829 0.0000 0.0000 0.0000
# 2 43.4008 102.0192 32.1829 0.0000 0.0000 0.0000
# 3 32.1829 32.1829 93.5742 0.0000 0.0000 0.0000
# 4 0.0000 0.0000 0.0000 14.0326 0.0000 0.0000
# 5 0.0000 0.0000 0.0000 0.0000 14.0326 0.0000
# 6 0.0000 0.0000 0.0000 0.0000 0.0000 27.6403
#
#
#
# Elastic Compliance Matrix: (Units=1/GPa)
#
#
# Indices 1 2 3 4 5 6 
#
# 1 0.012585 -0.004474 -0.002790 0.000000 0.000000 0.000000
# 2 -0.004474 0.012585 -0.002790 0.000000 0.000000 0.000000
# 3 -0.002790 -0.002790 0.012606 0.000000 0.000000 0.000000
# 4 0.000000 0.000000 0.000000 0.071263 0.000000 0.000000
# 5 0.000000 0.000000 0.000000 0.000000 0.071263 0.000000
# 6 0.000000 0.000000 0.000000 0.000000 0.000000 0.036179
#
#
# Mechanical properties :
#
#
# Convention : Reuss Voigt Hill
#
# Bulk Modulus (GPa) = 56.59469 57.01619 56.80544
# Shear Modulus (GPa) = 20.62044 23.79750 22.20897
#
# Velocity S-wave (km/s) = 3.29816 3.54314 3.42284
# Velocity P-wave (km/s) = 6.66025 6.84222 6.75185
#
# Compressibility (1/GPa) = 0.01766950
#
# Stress axis : x y z
#
# Youngs Moduli (GPa) = 79.45676 79.45676 79.32943
#
# Poissons Ratio (x) = 0.35549 0.22131
# Poissons Ratio (y) = 0.35549 0.22131
# Poissons Ratio (z) = 0.22167 0.22167
#
# Static dielectric constant tensor:
#      x y z
#    x 3.553810 0.000000 0.000000 
#    y 0.000000 3.553810 0.000000 
#    z 0.000000 0.000000 3.451170 
# 
# 
# High freq. dielectric constant tensor:
#      x y z
#    x 1.723250 0.000000 0.000000 
#    y 0.000000 1.723250 0.000000 
#    z 0.000000 0.000000 1.732270 
# 
# From -- ./inp_files/6507.got.cif
#   From: 2010.03.12/outbox.cif.g09.slc.cpg/sg139_4_cif.got.tgz:6507.got - 2010.04.08 09:46:31.
