data_PCOD8319814
_publ_section_title
;
Structure prediction by ZEFSAII (Michael W. Deem and Ramdas Pophale) SiO2 
 PCOD8319814
Probable space group: I 4/M M M
;
_chemical_formula_sum "Si O2"
_cell_formula_units_Z 160
_cell_length_a 24.193155
_cell_length_b 24.193155
_cell_length_c 14.142214
_cell_angle_alpha 90.000000
_cell_angle_beta 90.000000
_cell_angle_gamma 90.000000
_cell_volume 8277.561582
_symmetry_space_group_name_H-M "I 4/M M M"
_symmetry_group_IT_number 139
_symmetry_cell_setting 'tetragonal'
loop_
_space_group_symop_operation_xyz
x,y,z
-y,x,z
-x,-y,z
y,-x,z
x,-y,-z
-x,y,-z
y,x,-z
-y,-x,-z
-x,-y,-z
y,-x,-z
x,y,-z
-y,x,-z
-x,y,z
x,-y,z
-y,-x,z
y,x,z
1/2+x,1/2+y,1/2+z
1/2-y,1/2+x,1/2+z
1/2-x,1/2-y,1/2+z
1/2+y,1/2-x,1/2+z
1/2+x,1/2-y,1/2-z
1/2-x,1/2+y,1/2-z
1/2+y,1/2+x,1/2-z
1/2-y,1/2-x,1/2-z
1/2-x,1/2-y,1/2-z
1/2+y,1/2-x,1/2-z
1/2+x,1/2+y,1/2-z
1/2-y,1/2+x,1/2-z
1/2-x,1/2+y,1/2+z
1/2+x,1/2-y,1/2+z
1/2-y,1/2-x,1/2+z
1/2+y,1/2+x,1/2+z
loop_
_atom_site_type_symbol
_atom_site_label
_atom_site_fract_x
_atom_site_fract_y
_atom_site_fract_z
Si Si1 0.622579 0.166900 0.110071
Si Si2 0.061194 0.439731 0.611024
Si Si3 0.564597 0.251026 0.756440
Si Si4 0.937476 0.150469 0.394782
Si Si5 0.750878 0.659987 0.610255
O O1 0.609194 0.103431 0.138718
O O2 0.582909 0.200743 0.178040
O O3 0.686665 0.180925 0.130745
O O4 0.607874 0.178317 0.000000
O O5 0.058239 0.444697 0.500000
O O6 0.077033 0.500000 0.653811
O O7 0.000000 0.421725 0.648000
O O8 0.500000 0.245077 0.728071
O O9 0.576695 0.304125 0.818650
O O10 0.602064 0.258280 0.663425
O O11 0.923356 0.173373 0.500000
O O12 0.903024 0.096977 0.368866
O O13 0.000000 0.130975 0.388729
O O14 0.743150 0.647032 0.500000
O O15 0.707881 0.707881 0.643144
#
# Coordination Sequence:
#
# PCOD8319814 Si02
#       5
#    32  32  32  32  32
#     4  10  20  34  54  80 111 146 182 222 270 329
#     4   8  14  26  46  73 106 144 182 218 258 307
#     4  11  22  35  55  82 111 142 176 222 280 335
#     4   9  18  32  51  78 110 141 172 206 252 318
#     4  10  23  42  60  78 103 142 194 244 286 329
#
# _framework density 19.329364000000002
#
# number of rings (size 3 to 8) (size 9 to 14) (size 15 to 20)
#    0.000    2.400    0.000    3.000    0.000    5.800 
#    0.000    5.000    0.000    0.000    0.000    2.800 
#    0.000    0.000    0.000   18.600    0.000    0.400 
#
# Total GULP energy -991505.536311 kJ/mol
# GULP energy per Si atom -12393.819204 kJ/mol
# Density = 1.928537 g / cm^3
# Si number density = 19.329364 Si / 1000 Ang^3
#
#
#
# Elastic Constant Matrix: (Units=GPa)
#
#
# Indices 1 2 3 4 5 6 
#
# 1 94.0206 63.1186 36.6347 0.0000 0.0000 0.0000
# 2 63.1186 94.0206 36.6347 0.0000 0.0000 0.0000
# 3 36.6347 36.6347 65.2311 0.0000 0.0000 0.0000
# 4 0.0000 0.0000 0.0000 21.4843 0.0000 0.0000
# 5 0.0000 0.0000 0.0000 0.0000 21.4843 0.0000
# 6 0.0000 0.0000 0.0000 0.0000 0.0000 32.5631
#
#
#
# Elastic Compliance Matrix: (Units=1/GPa)
#
#
# Indices 1 2 3 4 5 6 
#
# 1 0.020491 -0.011869 -0.004842 0.000000 0.000000 0.000000
# 2 -0.011869 0.020491 -0.004842 0.000000 0.000000 0.000000
# 3 -0.004842 -0.004842 0.020769 0.000000 0.000000 0.000000
# 4 0.000000 0.000000 0.000000 0.046546 0.000000 0.000000
# 5 0.000000 0.000000 0.000000 0.000000 0.046546 0.000000
# 6 0.000000 0.000000 0.000000 0.000000 0.000000 0.030710
#
#
# Mechanical properties :
#
#
# Convention : Reuss Voigt Hill
#
# Bulk Modulus (GPa) = 53.63690 58.44982 56.04336
# Shear Modulus (GPa) = 21.28814 22.89862 22.09338
#
# Velocity S-wave (km/s) = 3.32224 3.44562 3.38449
# Velocity P-wave (km/s) = 6.52116 6.79222 6.65807
#
# Compressibility (1/GPa) = 0.01864388
#
# Stress axis : x y z
#
# Youngs Moduli (GPa) = 48.80217 48.80217 48.14943
#
# Poissons Ratio (x) = 0.57926 0.23314
# Poissons Ratio (y) = 0.57926 0.23314
# Poissons Ratio (z) = 0.23630 0.23630
#
# Static dielectric constant tensor:
#      x y z
#    x 3.740290 0.000000 0.000000 
#    y 0.000000 3.740290 0.000000 
#    z 0.000000 0.000000 3.552420 
# 
# 
# High freq. dielectric constant tensor:
#      x y z
#    x 1.749980 0.000000 0.000000 
#    y 0.000000 1.749980 0.000000 
#    z 0.000000 0.000000 1.754240 
# 
# From -- ./inp_files/5934.got.cif
#   From: 2010.03.12/outbox.cif.g09.slc.cpg/sg139_3_cif.got.tgz:5934.got - 2010.04.08 09:46:31.
