data_PCOD8319194
_publ_section_title
;
Structure prediction by ZEFSAII (Michael W. Deem and Ramdas Pophale) SiO2 
 PCOD8319194
Probable space group: P 42/N C M
;
_chemical_formula_sum "Si O2"
_cell_formula_units_Z 80
_cell_length_a 37.908321
_cell_length_b 37.908321
_cell_length_c 5.209169
_cell_angle_alpha 90.000000
_cell_angle_beta 90.000000
_cell_angle_gamma 90.000000
_cell_volume 7485.788393
_symmetry_space_group_name_H-M "P 42/N C M"
_symmetry_group_IT_number 138
_space_group.IT_coordinate_system_code '2'
_symmetry_cell_setting 'tetragonal'
loop_
_space_group_symop_operation_xyz
x,y,z
1/2-y,x,1/2+z
1/2-x,1/2-y,z
y,1/2-x,1/2+z
1/2+x,-y,1/2-z
-x,1/2+y,1/2-z
1/2+y,1/2+x,-z
-y,-x,-z
-x,-y,-z
1/2+y,-x,1/2-z
1/2+x,1/2+y,-z
-y,1/2+x,1/2-z
1/2-x,y,1/2+z
x,1/2-y,1/2+z
1/2-y,1/2-x,z
y,x,z
loop_
_atom_site_type_symbol
_atom_site_label
_atom_site_fract_x
_atom_site_fract_y
_atom_site_fract_z
Si Si1 0.831395 0.772709 0.025563
Si Si2 0.583278 0.642805 0.497489
Si Si3 0.388387 0.170943 0.502024
Si Si4 0.913614 0.973083 0.500341
Si Si5 0.057919 0.501563 0.499670
O O1 0.828042 0.742679 0.811216
O O2 0.800150 0.800150 0.980637
O O3 0.869337 0.791297 0.997885
O O4 0.613041 0.613041 0.497832
O O5 0.587372 0.667586 0.746182
O O6 0.544837 0.624839 0.500069
O O7 0.586767 0.667299 0.246880
O O8 0.359503 0.140498 0.497464
O O9 0.943245 0.943245 0.500264
O O10 0.917623 0.997605 0.250509
O O11 0.917553 0.997542 0.750543
O O12 0.028034 0.471967 0.499766
O O13 0.040059 0.540059 0.500000
#
# Coordination Sequence:
#
# PCOD8319194 Si02
#       5
#    16  16  16  16  16
#     4  11  22  34  46  58  70  82  94 106 124 156
#     4   9  15  24  37  50  62  74  91 114 135 153
#     4   9  17  28  40  52  64  76  88 106 131 153
#     4   9  15  21  30  43  56  73  96 117 135 153
#     4   9  15  21  27  37  56  79  99 117 135 153
#
# _framework density 10.686916999999999
#
# number of rings (size 3 to 8) (size 9 to 14) (size 15 to 20)
#    0.000    2.600    0.000    3.600    0.000   11.600 
#    0.000    0.000    0.000    0.000    0.000    0.000 
#    0.000    0.000    0.000    0.000    0.000    0.000 
#
# Total GULP energy -991918.676082 kJ/mol
# GULP energy per Si atom -12398.983451 kJ/mol
# Density = 1.066259 g / cm^3
# Si number density = 10.686917 Si / 1000 Ang^3
#
#
#
# Elastic Constant Matrix: (Units=GPa)
#
#
# Indices 1 2 3 4 5 6 
#
# 1 29.1808 29.1971 23.4759 0.0000 0.0000 0.0000
# 2 29.1971 29.1808 23.4759 0.0000 0.0000 0.0000
# 3 23.4759 23.4759 98.0485 0.0000 0.0000 0.0000
# 4 0.0000 0.0000 0.0000 15.3871 0.0000 0.0000
# 5 0.0000 0.0000 0.0000 0.0000 15.3871 0.0000
# 6 0.0000 0.0000 0.0000 0.0000 0.0000 18.8482
#
#
#
# Elastic Compliance Matrix: (Units=1/GPa)
#
#
# Indices 1 2 3 4 5 6 
#
# 1 -30.720364 30.741580 -0.005080 0.000000 0.000000 0.000000
# 2 30.741580-30.720364 -0.005080 0.000000 0.000000 0.000000
# 3 -0.005080 -0.005080 0.012631 0.000000 0.000000 0.000000
# 4 0.000000 0.000000 0.000000 0.064989 0.000000 0.000000
# 5 0.000000 0.000000 0.000000 0.000000 0.064989 0.000000
# 6 0.000000 0.000000 0.000000 0.000000 0.000000 0.053055
#
#
# Mechanical properties :
#
#
# Convention : Reuss Voigt Hill
#
# Bulk Modulus (GPa) = 28.78243 34.30089 31.54166
# Shear Modulus (GPa) = -0.04075 15.27524 7.61724
#
# Velocity S-wave (km/s) = -0.19549 3.78476 2.67266
# Velocity P-wave (km/s) = 5.19037 7.15996 6.25320
#
# Compressibility (1/GPa) = 0.03474342
#
# Stress axis : x y z
#
# Youngs Moduli (GPa) = -0.03255 -0.03255 79.16740
#
# Poissons Ratio (x) = 1.00069 0.40214
# Poissons Ratio (y) = 1.00069 0.40214
# Poissons Ratio (z) = -0.00017 -0.00017
#
# Static dielectric constant tensor:
#      x y z
#    x 2.104370 0.000000 0.000000 
#    y 0.000000 2.104370 0.000000 
#    z 0.000000 0.000000 2.535320 
# 
# 
# High freq. dielectric constant tensor:
#      x y z
#    x 1.360950 0.000000 0.000000 
#    y 0.000000 1.360950 0.000000 
#    z 0.000000 0.000000 1.428360 
# 
# From -- ./inp_files/502.got.cif
#   From: 2010.03.12/outbox.cif.g09.slc.cpg/sg138_1_cif.got.tgz:502.got - 2010.04.08 09:41:05.
