data_PCOD8319882
_publ_section_title
;
Structure prediction by ZEFSAII (Michael W. Deem and Ramdas Pophale) SiO2 
 PCOD8319882
Probable space group: I 4/M M M
;
_chemical_formula_sum "Si O2"
_cell_formula_units_Z 176
_cell_length_a 27.407326
_cell_length_b 27.407326
_cell_length_c 12.544782
_cell_angle_alpha 90.000000
_cell_angle_beta 90.000000
_cell_angle_gamma 90.000000
_cell_volume 9423.157496
_symmetry_space_group_name_H-M "I 4/M M M"
_symmetry_group_IT_number 139
_symmetry_cell_setting 'tetragonal'
loop_
_space_group_symop_operation_xyz
x,y,z
-y,x,z
-x,-y,z
y,-x,z
x,-y,-z
-x,y,-z
y,x,-z
-y,-x,-z
-x,-y,-z
y,-x,-z
x,y,-z
-y,x,-z
-x,y,z
x,-y,z
-y,-x,z
y,x,z
1/2+x,1/2+y,1/2+z
1/2-y,1/2+x,1/2+z
1/2-x,1/2-y,1/2+z
1/2+y,1/2-x,1/2+z
1/2+x,1/2-y,1/2-z
1/2-x,1/2+y,1/2-z
1/2+y,1/2+x,1/2-z
1/2-y,1/2-x,1/2-z
1/2-x,1/2-y,1/2-z
1/2+y,1/2-x,1/2-z
1/2+x,1/2+y,1/2-z
1/2-y,1/2+x,1/2-z
1/2-x,1/2+y,1/2+z
1/2+x,1/2-y,1/2+z
1/2-y,1/2-x,1/2+z
1/2+y,1/2+x,1/2+z
loop_
_atom_site_type_symbol
_atom_site_label
_atom_site_fract_x
_atom_site_fract_y
_atom_site_fract_z
Si Si1 0.784483 0.704005 0.500000
Si Si2 0.728979 0.619992 0.000000
Si Si3 0.131253 0.700411 0.809216
Si Si4 0.556188 0.364242 0.378466
Si Si5 0.695401 0.617914 0.225173
Si Si6 0.557494 0.134236 0.229602
Si Si7 0.556507 0.823055 0.000000
O O1 0.732826 0.732826 0.500000
O O2 0.826713 0.744763 0.500000
O O3 0.786611 0.664303 0.408116
O O4 0.691591 0.611527 0.901823
O O5 0.770076 0.579734 0.000000
O O6 0.157189 0.657189 0.750000
O O7 0.128320 0.748199 0.739277
O O8 0.077080 0.675745 0.815234
O O9 0.564681 0.345509 0.500000
O O10 0.500000 0.377225 0.358685
O O11 0.586617 0.413384 0.356513
O O12 0.571575 0.321975 0.295163
O O13 0.663935 0.663935 0.264517
O O14 0.500000 0.129750 0.246432
O O15 0.581310 0.081310 0.250000
O O16 0.571754 0.148459 0.107348
O O17 0.500000 0.812662 0.000000
#
# Coordination Sequence:
#
# PCOD8319882 Si02
#       7
#    16  16  32  32  32  32  16
#     4  12  24  36  54  81 117 159 204 243 282 334
#     4  12  20  36  56  82 114 155 201 243 273 327
#     4  11  22  37  56  79 113 154 199 240 284 336
#     4   9  20  39  61  85 114 147 186 236 292 350
#     4  11  22  34  53  83 117 150 189 237 285 331
#     4  10  21  39  62  86 113 145 187 239 295 354
#     4  10  20  38  60  82 109 147 189 232 283 336
#
# _framework density 18.677391
#
# number of rings (size 3 to 8) (size 9 to 14) (size 15 to 20)
#    0.000    1.455    3.636    2.455    1.273    2.545 
#    0.000    2.727    0.000    1.636    0.000    0.000 
#    0.000    2.909    0.000    0.000    0.000    0.000 
#
# Total GULP energy -1090191.696359 kJ/mol
# GULP energy per Si atom -12388.542004 kJ/mol
# Density = 1.863488 g / cm^3
# Si number density = 18.677391 Si / 1000 Ang^3
#
#
#
# Elastic Constant Matrix: (Units=GPa)
#
#
# Indices 1 2 3 4 5 6 
#
# 1 95.0486 51.4870 47.7533 0.0000 0.0000 0.0000
# 2 51.4870 95.0486 47.7533 0.0000 0.0000 0.0000
# 3 47.7533 47.7533 103.9553 0.0000 0.0000 0.0000
# 4 0.0000 0.0000 0.0000 27.3963 0.0000 0.0000
# 5 0.0000 0.0000 0.0000 0.0000 27.3963 0.0000
# 6 0.0000 0.0000 0.0000 0.0000 0.0000 27.7739
#
#
#
# Elastic Compliance Matrix: (Units=1/GPa)
#
#
# Indices 1 2 3 4 5 6 
#
# 1 0.016348 -0.006608 -0.004474 0.000000 0.000000 0.000000
# 2 -0.006608 0.016348 -0.004474 0.000000 0.000000 0.000000
# 3 -0.004474 -0.004474 0.013730 0.000000 0.000000 0.000000
# 4 0.000000 0.000000 0.000000 0.036501 0.000000 0.000000
# 5 0.000000 0.000000 0.000000 0.000000 0.036501 0.000000
# 6 0.000000 0.000000 0.000000 0.000000 0.000000 0.036005
#
#
# Mechanical properties :
#
#
# Convention : Reuss Voigt Hill
#
# Bulk Modulus (GPa) = 65.30133 65.33772 65.31952
# Shear Modulus (GPa) = 26.08890 26.31722 26.20306
#
# Velocity S-wave (km/s) = 3.74146 3.75779 3.74963
# Velocity P-wave (km/s) = 7.32826 7.34072 7.33449
#
# Compressibility (1/GPa) = 0.01531362
#
# Stress axis : x y z
#
# Youngs Moduli (GPa) = 61.16846 61.16846 72.83146
#
# Poissons Ratio (x) = 0.40418 0.32588
# Poissons Ratio (y) = 0.40418 0.32588
# Poissons Ratio (z) = 0.27370 0.27370
#
# Static dielectric constant tensor:
#      x y z
#    x 3.394450 0.000000 0.000000 
#    y 0.000000 3.394450 0.000000 
#    z 0.000000 0.000000 3.527300 
# 
# 
# High freq. dielectric constant tensor:
#      x y z
#    x 1.723400 0.000000 0.000000 
#    y 0.000000 1.723400 0.000000 
#    z 0.000000 0.000000 1.727290 
# 
# From -- ./inp_files/4052.got.cif
#   From: 2010.03.12/outbox.cif.g09.slc.cpg/sg139_3_cif.got.tgz:4052.got - 2010.04.08 09:46:31.
