data_PCOD8319862
_publ_section_title
;
Structure prediction by ZEFSAII (Michael W. Deem and Ramdas Pophale) SiO2 
 PCOD8319862
Probable space group: I 4/M M M
;
_chemical_formula_sum "Si O2"
_cell_formula_units_Z 160
_cell_length_a 20.348391
_cell_length_b 20.348391
_cell_length_c 20.436112
_cell_angle_alpha 90.000000
_cell_angle_beta 90.000000
_cell_angle_gamma 90.000000
_cell_volume 8461.715559
_symmetry_space_group_name_H-M "I 4/M M M"
_symmetry_group_IT_number 139
_symmetry_cell_setting 'tetragonal'
loop_
_space_group_symop_operation_xyz
x,y,z
-y,x,z
-x,-y,z
y,-x,z
x,-y,-z
-x,y,-z
y,x,-z
-y,-x,-z
-x,-y,-z
y,-x,-z
x,y,-z
-y,x,-z
-x,y,z
x,-y,z
-y,-x,z
y,x,z
1/2+x,1/2+y,1/2+z
1/2-y,1/2+x,1/2+z
1/2-x,1/2-y,1/2+z
1/2+y,1/2-x,1/2+z
1/2+x,1/2-y,1/2-z
1/2-x,1/2+y,1/2-z
1/2+y,1/2+x,1/2-z
1/2-y,1/2-x,1/2-z
1/2-x,1/2-y,1/2-z
1/2+y,1/2-x,1/2-z
1/2+x,1/2+y,1/2-z
1/2-y,1/2+x,1/2-z
1/2-x,1/2+y,1/2+z
1/2+x,1/2-y,1/2+z
1/2-y,1/2-x,1/2+z
1/2+y,1/2+x,1/2+z
loop_
_atom_site_type_symbol
_atom_site_label
_atom_site_fract_x
_atom_site_fract_y
_atom_site_fract_z
Si Si1 0.422641 0.929242 0.073930
Si Si2 0.875828 0.766057 0.000000
Si Si3 0.229505 0.661321 0.000000
Si Si4 0.206929 0.423885 0.879658
Si Si5 0.750968 0.857588 0.254265
Si Si6 0.314957 0.424104 0.632771
O O1 0.500000 0.937091 0.075192
O O2 0.401968 0.870246 0.122334
O O3 0.391423 0.000000 0.095566
O O4 0.400147 0.911424 0.000000
O O5 0.920181 0.775980 0.935656
O O6 0.819090 0.819090 0.000000
O O7 0.843139 0.694081 0.000000
O O8 0.242086 0.617585 0.936043
O O9 0.282619 0.717382 0.000000
O O10 0.213791 0.500000 0.897958
O O11 0.241224 0.411274 0.810597
O O12 0.811800 0.811800 0.274186
O O13 0.685228 0.814773 0.250000
O O14 0.765512 0.894903 0.186834
O O15 0.332303 0.500000 0.647808
O O16 0.383017 0.383017 0.631239
#
# Coordination Sequence:
#
# PCOD8319862 Si02
#       6
#    32  16  16  32  32  32
#     4   8  14  27  46  68  99 137 172 207 251 303
#     4   9  19  36  57  78 105 141 180 220 264 325
#     4  11  21  34  52  76 107 143 183 224 268 311
#     4  11  20  33  54  80 108 140 182 227 266 315
#     4  10  21  38  57  76 105 145 185 227 277 325
#     4  10  20  36  58  84 113 143 177 223 280 342
#
# _framework density 18.908695999999999
#
# number of rings (size 3 to 8) (size 9 to 14) (size 15 to 20)
#    0.000    2.200    1.000    3.600    0.000    3.400 
#    0.000    6.000    0.000    1.800    0.000    0.000 
#    0.000   15.200    0.000    0.000    0.000    0.000 
#
# Total GULP energy -991669.206950 kJ/mol
# GULP energy per Si atom -12395.865087 kJ/mol
# Density = 1.886566 g / cm^3
# Si number density = 18.908696 Si / 1000 Ang^3
#
#
#
# Elastic Constant Matrix: (Units=GPa)
#
#
# Indices 1 2 3 4 5 6 
#
# 1 96.2450 38.5685 49.6813 0.0000 0.0000 0.0000
# 2 38.5685 96.2430 49.6804 0.0000 0.0000 0.0000
# 3 49.6813 49.6804 125.7099 0.0000 0.0000 0.0000
# 4 0.0000 0.0000 0.0000 13.5862 0.0000 0.0000
# 5 0.0000 0.0000 0.0000 0.0000 13.5783 0.0000
# 6 0.0000 0.0000 0.0000 0.0000 0.0000 20.9107
#
#
#
# Elastic Compliance Matrix: (Units=1/GPa)
#
#
# Indices 1 2 3 4 5 6 
#
# 1 0.013902 -0.003436 -0.004136 0.000000 0.000000 0.000000
# 2 -0.003436 0.013902 -0.004136 0.000000 0.000000 0.000000
# 3 -0.004136 -0.004136 0.011224 0.000000 0.000000 0.000000
# 4 0.000000 0.000000 0.000000 0.073604 0.000000 0.000000
# 5 0.000000 0.000000 0.000000 0.000000 0.073647 0.000000
# 6 0.000000 0.000000 0.000000 0.000000 0.000000 0.047822
#
#
# Mechanical properties :
#
#
# Convention : Reuss Voigt Hill
#
# Bulk Modulus (GPa) = 64.05506 66.00648 65.03077
# Shear Modulus (GPa) = 19.03142 21.63289 20.33215
#
# Velocity S-wave (km/s) = 3.17597 3.38608 3.28270
# Velocity P-wave (km/s) = 6.88466 7.09022 6.98819
#
# Compressibility (1/GPa) = 0.01561157
#
# Stress axis : x y z
#
# Youngs Moduli (GPa) = 71.93087 71.92966 89.09331
#
# Poissons Ratio (x) = 0.24715 0.36852
# Poissons Ratio (y) = 0.24716 0.36852
# Poissons Ratio (z) = 0.29753 0.29752
#
# Static dielectric constant tensor:
#      x y z
#    x 3.465080 0.000000 0.000000 
#    y 0.000000 3.465090 0.000000 
#    z 0.000000 0.000000 3.414980 
# 
# 
# High freq. dielectric constant tensor:
#      x y z
#    x 1.731070 0.000000 0.000000 
#    y 0.000000 1.731070 0.000000 
#    z 0.000000 0.000000 1.727130 
# 
# From -- ./inp_files/8429.got.cif
#   From: 2010.03.12/outbox.cif.g09.slc.cpg/sg139_5_cif.got.tgz:8429.got - 2010.04.08 09:46:31.
