data_PCOD8319881
_publ_section_title
;
Structure prediction by ZEFSAII (Michael W. Deem and Ramdas Pophale) SiO2 
 PCOD8319881
Probable space group: I 4/M M M
;
_chemical_formula_sum "Si O2"
_cell_formula_units_Z 120
_cell_length_a 19.776349
_cell_length_b 19.776349
_cell_length_c 15.554117
_cell_angle_alpha 90.000000
_cell_angle_beta 90.000000
_cell_angle_gamma 90.000000
_cell_volume 6083.277061
_symmetry_space_group_name_H-M "I 4/M M M"
_symmetry_group_IT_number 139
_symmetry_cell_setting 'tetragonal'
loop_
_space_group_symop_operation_xyz
x,y,z
-y,x,z
-x,-y,z
y,-x,z
x,-y,-z
-x,y,-z
y,x,-z
-y,-x,-z
-x,-y,-z
y,-x,-z
x,y,-z
-y,x,-z
-x,y,z
x,-y,z
-y,-x,z
y,x,z
1/2+x,1/2+y,1/2+z
1/2-y,1/2+x,1/2+z
1/2-x,1/2-y,1/2+z
1/2+y,1/2-x,1/2+z
1/2+x,1/2-y,1/2-z
1/2-x,1/2+y,1/2-z
1/2+y,1/2+x,1/2-z
1/2-y,1/2-x,1/2-z
1/2-x,1/2-y,1/2-z
1/2+y,1/2-x,1/2-z
1/2+x,1/2+y,1/2-z
1/2-y,1/2+x,1/2-z
1/2-x,1/2+y,1/2+z
1/2+x,1/2-y,1/2+z
1/2-y,1/2-x,1/2+z
1/2+y,1/2+x,1/2+z
loop_
_atom_site_type_symbol
_atom_site_label
_atom_site_fract_x
_atom_site_fract_y
_atom_site_fract_z
Si Si1 0.500000 0.793816 0.597991
Si Si2 0.374554 0.625446 0.819598
Si Si3 0.858632 0.644863 0.147168
Si Si4 0.576851 0.423150 0.000000
Si Si5 0.235296 0.764705 0.346405
Si Si6 0.500000 0.697082 0.245301
Si Si7 0.805975 0.500000 0.097574
O O1 0.500000 0.767576 0.500000
O O2 0.566865 0.837539 0.614855
O O3 0.500000 0.731077 0.662052
O O4 0.320550 0.679451 0.845168
O O5 0.433538 0.652554 0.759499
O O6 0.394963 0.605038 0.913354
O O7 0.855297 0.644704 0.250000
O O8 0.803454 0.701143 0.111336
O O9 0.847593 0.569002 0.112308
O O10 0.595236 0.500000 0.000000
O O11 0.250000 0.750000 0.250000
O O12 0.500000 0.745378 0.163686
O O13 0.778212 0.500000 0.000000
#
# Coordination Sequence:
#
# PCOD8319881 Si02
#       7
#    16  16  32   8  16  16  16
#     4  12  26  47  68  93 132 182 236 288 340 397
#     4  12  23  40  68  98 139 180 219 273 340 412
#     4  11  21  43  67  97 131 174 223 283 339 400
#     4  11  24  40  60 104 148 178 216 268 340 437
#     4  10  20  37  66  93 124 170 223 273 334 397
#     4  12  24  43  65  98 138 180 221 272 341 393
#     4  12  24  39  64 100 136 170 213 262 334 409
#
# _framework density 19.726210999999999
#
# number of rings (size 3 to 8) (size 9 to 14) (size 15 to 20)
#    0.000    0.600    6.667    2.400    1.867    0.800 
#    2.400    4.667    0.000    0.000    0.000    0.933 
#    0.000    0.000    0.000    0.000    0.000    0.000 
#
# Total GULP energy -743466.866505 kJ/mol
# GULP energy per Si atom -12391.114442 kJ/mol
# Density = 1.968131 g / cm^3
# Si number density = 19.726211 Si / 1000 Ang^3
#
#
#
# Elastic Constant Matrix: (Units=GPa)
#
#
# Indices 1 2 3 4 5 6 
#
# 1 161.5948 83.8051 49.2587 0.0000 0.0000 0.0000
# 2 83.8051 161.5953 49.2586 0.0000 0.0000 0.0000
# 3 49.2587 49.2586 147.6717 0.0000 0.0000 0.0000
# 4 0.0000 0.0000 0.0000 14.8116 0.0000 0.0000
# 5 0.0000 0.0000 0.0000 0.0000 14.8131 0.0000
# 6 0.0000 0.0000 0.0000 0.0000 0.0000 50.7438
#
#
#
# Elastic Compliance Matrix: (Units=1/GPa)
#
#
# Indices 1 2 3 4 5 6 
#
# 1 0.008780 -0.004075 -0.001569 0.000000 0.000000 0.000000
# 2 -0.004075 0.008780 -0.001569 0.000000 0.000000 0.000000
# 3 -0.001569 -0.001569 0.007819 0.000000 0.000000 0.000000
# 4 0.000000 0.000000 0.000000 0.067515 0.000000 0.000000
# 5 0.000000 0.000000 0.000000 0.000000 0.067508 0.000000
# 6 0.000000 0.000000 0.000000 0.000000 0.000000 0.019707
#
#
# Mechanical properties :
#
#
# Convention : Reuss Voigt Hill
#
# Bulk Modulus (GPa) = 91.31512 92.83405 92.07459
# Shear Modulus (GPa) = 25.22875 35.30966 30.26920
#
# Velocity S-wave (km/s) = 3.58011 4.23541 3.92148
# Velocity P-wave (km/s) = 7.96752 8.43100 8.20253
#
# Compressibility (1/GPa) = 0.01095109
#
# Stress axis : x y z
#
# Youngs Moduli (GPa) = 113.89380 113.89429 127.89658
#
# Poissons Ratio (x) = 0.46412 0.20073
# Poissons Ratio (y) = 0.46412 0.20073
# Poissons Ratio (z) = 0.17875 0.17875
#
# Static dielectric constant tensor:
#      x y z
#    x 4.066870 0.000000 0.000000 
#    y 0.000000 4.066850 0.000000 
#    z 0.000000 0.000000 3.588330 
# 
# 
# High freq. dielectric constant tensor:
#      x y z
#    x 1.782960 0.000000 0.000000 
#    y 0.000000 1.782960 0.000000 
#    z 0.000000 0.000000 1.763840 
# 
# From -- ./inp_files/5402.got.cif
#   From: 2010.03.12/outbox.cif.g09.slc.cpg/sg139_3_cif.got.tgz:5402.got - 2010.04.08 09:46:31.
