data_PCOD8319281
_publ_section_title
;
Structure prediction by ZEFSAII (Michael W. Deem and Ramdas Pophale) SiO2 
 PCOD8319281
Probable space group: I 4/M M M
;
_chemical_formula_sum "Si O2"
_cell_formula_units_Z 160
_cell_length_a 17.217997
_cell_length_b 17.217997
_cell_length_c 33.627263
_cell_angle_alpha 90.000000
_cell_angle_beta 90.000000
_cell_angle_gamma 90.000000
_cell_volume 9969.118908
_symmetry_space_group_name_H-M "I 4/M M M"
_symmetry_group_IT_number 139
_symmetry_cell_setting 'tetragonal'
loop_
_space_group_symop_operation_xyz
x,y,z
-y,x,z
-x,-y,z
y,-x,z
x,-y,-z
-x,y,-z
y,x,-z
-y,-x,-z
-x,-y,-z
y,-x,-z
x,y,-z
-y,x,-z
-x,y,z
x,-y,z
-y,-x,z
y,x,z
1/2+x,1/2+y,1/2+z
1/2-y,1/2+x,1/2+z
1/2-x,1/2-y,1/2+z
1/2+y,1/2-x,1/2+z
1/2+x,1/2-y,1/2-z
1/2-x,1/2+y,1/2-z
1/2+y,1/2+x,1/2-z
1/2-y,1/2-x,1/2-z
1/2-x,1/2-y,1/2-z
1/2+y,1/2-x,1/2-z
1/2+x,1/2+y,1/2-z
1/2-y,1/2+x,1/2-z
1/2-x,1/2+y,1/2+z
1/2+x,1/2-y,1/2+z
1/2-y,1/2-x,1/2+z
1/2+y,1/2+x,1/2+z
loop_
_atom_site_type_symbol
_atom_site_label
_atom_site_fract_x
_atom_site_fract_y
_atom_site_fract_z
Si Si1 0.588922 0.588922 0.704186
Si Si2 0.716868 0.088166 0.914182
Si Si3 0.758994 0.632487 0.000000
Si Si4 0.313669 0.313669 0.644466
Si Si5 0.291503 0.085262 0.000000
Si Si6 0.313840 0.686161 0.857108
Si Si7 0.784332 0.587450 0.084234
Si Si8 0.588855 0.588855 0.797292
O O1 0.500000 0.608045 0.692349
O O2 0.647779 0.647779 0.682867
O O3 0.601340 0.601340 0.750720
O O4 0.776093 0.118890 0.881751
O O5 0.756663 0.094281 0.958528
O O6 0.637926 0.137572 0.914863
O O7 0.695408 0.000000 0.903261
O O8 0.851573 0.641157 0.000000
O O9 0.740318 0.587982 0.958905
O O10 0.715693 0.715693 0.000000
O O11 0.249734 0.249734 0.657193
O O12 0.331462 0.000000 0.000000
O O13 0.274738 0.619391 0.883178
O O14 0.352660 0.647341 0.818861
O O15 0.806739 0.500000 0.095485
O O16 0.500000 0.607999 0.809051
#
# Coordination Sequence:
#
# PCOD8319281 Si02
#       8
#    16  32  16  16  16  16  32  16
#     4   9  18  33  52  72  92 117 148 181 224 274
#     4   9  18  30  44  66  93 121 156 191 227 266
#     4  10  17  29  46  63  90 121 156 198 232 271
#     4  10  19  29  48  70  95 123 148 183 225 272
#     4   8  16  27  42  62  86 117 151 188 222 258
#     4  10  19  31  46  70  94 118 150 187 225 276
#     4  10  19  30  46  66  89 122 157 192 232 272
#     4   9  18  33  52  70  90 117 147 184 229 273
#
# _framework density 16.049562999999999
#
# number of rings (size 3 to 8) (size 9 to 14) (size 15 to 20)
#    0.000    2.600    1.000    2.100    4.200    0.800 
#    0.000    0.000    0.000    6.000    0.000    0.700 
#    0.000    6.600    0.000   37.200    0.000    0.000 
#
# Total GULP energy -991165.780026 kJ/mol
# GULP energy per Si atom -12389.572250 kJ/mol
# Density = 1.601303 g / cm^3
# Si number density = 16.049563 Si / 1000 Ang^3
#
#
#
# Elastic Constant Matrix: (Units=GPa)
#
#
# Indices 1 2 3 4 5 6 
#
# 1 91.4506 49.0909 50.0288 0.0000 0.0000 0.0000
# 2 49.0909 91.4506 50.0288 0.0000 0.0000 0.0000
# 3 50.0288 50.0288 88.1691 0.0000 0.0000 0.0000
# 4 0.0000 0.0000 0.0000 23.6706 0.0000 0.0000
# 5 0.0000 0.0000 0.0000 0.0000 23.6706 0.0000
# 6 0.0000 0.0000 0.0000 0.0000 0.0000 16.4626
#
#
#
# Elastic Compliance Matrix: (Units=1/GPa)
#
#
# Indices 1 2 3 4 5 6 
#
# 1 0.017773 -0.005835 -0.006774 0.000000 0.000000 0.000000
# 2 -0.005835 0.017773 -0.006774 0.000000 0.000000 0.000000
# 3 -0.006774 -0.006774 0.019029 0.000000 0.000000 0.000000
# 4 0.000000 0.000000 0.000000 0.042247 0.000000 0.000000
# 5 0.000000 0.000000 0.000000 0.000000 0.042247 0.000000
# 6 0.000000 0.000000 0.000000 0.000000 0.000000 0.060744
#
#
# Mechanical properties :
#
#
# Convention : Reuss Voigt Hill
#
# Bulk Modulus (GPa) = 63.25257 63.26303 63.25780
# Shear Modulus (GPa) = 20.50479 20.88886 20.69683
#
# Velocity S-wave (km/s) = 3.57822 3.61158 3.59494
# Velocity P-wave (km/s) = 7.52116 7.54282 7.53200
#
# Compressibility (1/GPa) = 0.01580963
#
# Stress axis : x y z
#
# Youngs Moduli (GPa) = 56.26631 56.26631 52.55150
#
# Poissons Ratio (x) = 0.32830 0.35597
# Poissons Ratio (y) = 0.32830 0.35597
# Poissons Ratio (z) = 0.38113 0.38113
#
# Static dielectric constant tensor:
#      x y z
#    x 2.918780 0.000000 0.000000 
#    y 0.000000 2.918780 0.000000 
#    z 0.000000 0.000000 3.058270 
# 
# 
# High freq. dielectric constant tensor:
#      x y z
#    x 1.605510 0.000000 0.000000 
#    y 0.000000 1.605510 0.000000 
#    z 0.000000 0.000000 1.616560 
# 
# From -- ./inp_files/13063.got.cif
#   From: 2010.03.12/outbox.cif.g09.slc.cpg/sg139_7_cif.got.tgz:13063.got - 2010.04.08 09:46:31.
