data_PCOD8319670
_publ_section_title
;
Structure prediction by ZEFSAII (Michael W. Deem and Ramdas Pophale) SiO2 
 PCOD8319670
Probable space group: I 4/M M M
;
_chemical_formula_sum "Si O2"
_cell_formula_units_Z 192
_cell_length_a 21.090856
_cell_length_b 21.090856
_cell_length_c 24.037598
_cell_angle_alpha 90.000000
_cell_angle_beta 90.000000
_cell_angle_gamma 90.000000
_cell_volume 10692.505464
_symmetry_space_group_name_H-M "I 4/M M M"
_symmetry_group_IT_number 139
_symmetry_cell_setting 'tetragonal'
loop_
_space_group_symop_operation_xyz
x,y,z
-y,x,z
-x,-y,z
y,-x,z
x,-y,-z
-x,y,-z
y,x,-z
-y,-x,-z
-x,-y,-z
y,-x,-z
x,y,-z
-y,x,-z
-x,y,z
x,-y,z
-y,-x,z
y,x,z
1/2+x,1/2+y,1/2+z
1/2-y,1/2+x,1/2+z
1/2-x,1/2-y,1/2+z
1/2+y,1/2-x,1/2+z
1/2+x,1/2-y,1/2-z
1/2-x,1/2+y,1/2-z
1/2+y,1/2+x,1/2-z
1/2-y,1/2-x,1/2-z
1/2-x,1/2-y,1/2-z
1/2+y,1/2-x,1/2-z
1/2+x,1/2+y,1/2-z
1/2-y,1/2+x,1/2-z
1/2-x,1/2+y,1/2+z
1/2+x,1/2-y,1/2+z
1/2-y,1/2-x,1/2+z
1/2+y,1/2+x,1/2+z
loop_
_atom_site_type_symbol
_atom_site_label
_atom_site_fract_x
_atom_site_fract_y
_atom_site_fract_z
Si Si1 0.074113 0.175712 0.305712
Si Si2 0.927921 0.685108 0.500000
Si Si3 0.350656 0.754910 0.724325
Si Si4 0.681058 0.129464 0.882292
Si Si5 0.075159 0.428686 0.812365
Si Si6 0.638366 0.737718 0.908065
Si Si7 0.076002 0.332554 0.000000
O O1 0.110618 0.110618 0.290808
O O2 0.092783 0.231913 0.263854
O O3 0.094759 0.199389 0.365983
O O4 0.000000 0.161576 0.303266
O O5 0.909588 0.728264 0.448708
O O6 0.897670 0.615194 0.500000
O O7 0.000000 0.668930 0.500000
O O8 0.299674 0.700327 0.716352
O O9 0.317549 0.817549 0.750000
O O10 0.386206 0.768142 0.665626
O O11 0.612792 0.103786 0.862280
O O12 0.680512 0.206081 0.881896
O O13 0.701870 0.098581 0.942174
O O14 0.100279 0.500000 0.822043
O O15 0.094926 0.405075 0.750000
O O16 0.000000 0.426590 0.816732
O O17 0.687962 0.687962 0.935864
O O18 0.000000 0.342064 0.000000
#
# Coordination Sequence:
#
# PCOD8319670 Si02
#       7
#    32  16  32  32  32  32  16
#     4  10  21  35  54  80 109 141 175 218 271 328
#     4  10  21  36  56  77  97 135 185 222 261 314
#     4  10  19  35  56  82 110 133 167 219 277 326
#     4  11  20  34  53  75  99 143 180 220 264 314
#     4   9  19  33  47  69 102 137 177 223 265 306
#     4  10  20  35  53  76 106 134 170 220 272 318
#     4  10  24  38  48  71 110 146 184 221 258 308
#
# _framework density 17.956503000000001
#
# number of rings (size 3 to 8) (size 9 to 14) (size 15 to 20)
#    0.000    2.000    1.667    2.750    0.000    5.000 
#    0.000    1.250    0.000    0.000    0.000    0.000 
#    0.000    6.000    0.000    0.000    0.000   13.333 
#
# Total GULP energy -1189605.719533 kJ/mol
# GULP energy per Si atom -12391.726245 kJ/mol
# Density = 1.791563 g / cm^3
# Si number density = 17.956503 Si / 1000 Ang^3
#
#
#
# Elastic Constant Matrix: (Units=GPa)
#
#
# Indices 1 2 3 4 5 6 
#
# 1 73.0541 36.5047 23.9199 0.0000 0.0000 0.0000
# 2 36.5047 73.0545 23.9200 0.0000 0.0000 0.0000
# 3 23.9199 23.9200 96.4028 0.0000 0.0000 0.0000
# 4 0.0000 0.0000 0.0000 -27.0518 -0.0001 0.0000
# 5 0.0000 0.0000 0.0000 -0.0001 -27.1885 0.0000
# 6 0.0000 0.0000 0.0000 0.0000 0.0000 18.1853
#
#
#
# Elastic Compliance Matrix: (Units=1/GPa)
#
#
# Indices 1 2 3 4 5 6 
#
# 1 0.018798 -0.008562 -0.002540 0.000000 0.000000 0.000000
# 2 -0.008562 0.018798 -0.002540 0.000000 0.000000 0.000000
# 3 -0.002540 -0.002540 0.011634 0.000000 0.000000 0.000000
# 4 0.000000 0.000000 0.000000 -0.036966 0.000000 0.000000
# 5 0.000000 0.000000 0.000000 0.000000 -0.036780 0.000000
# 6 0.000000 0.000000 0.000000 0.000000 0.000000 0.054989
#
#
# Mechanical properties :
#
#
# Convention : Reuss Voigt Hill
#
# Bulk Modulus (GPa) = 45.56437 45.68894 45.62665
# Shear Modulus (GPa) = 76.83767 3.33346 40.08557
#
# Velocity S-wave (km/s) = 6.54858 1.36398 4.72992
# Velocity P-wave (km/s) = 9.08892 5.28962 7.43601
#
# Compressibility (1/GPa) = 0.02194697
#
# Stress axis : x y z
#
# Youngs Moduli (GPa) = 53.19608 53.19639 85.95793
#
# Poissons Ratio (x) = 0.45545 0.21833
# Poissons Ratio (y) = 0.45545 0.21833
# Poissons Ratio (z) = 0.13512 0.13512
#
# Static dielectric constant tensor:
#      x y z
#    x 3.214420 0.000000 0.000000 
#    y 0.000000 3.214420 0.000000 
#    z 0.000000 0.000000 2.338380 
# 
# 
# High freq. dielectric constant tensor:
#      x y z
#    x 1.680070 0.000000 0.000000 
#    y 0.000000 1.680070 0.000000 
#    z 0.000000 0.000000 1.704800 
# 
# From -- ./inp_files/13353.got.cif
#   From: 2010.03.12/outbox.cif.g09.slc.cpg/sg139_7_cif.got.tgz:13353.got - 2010.04.08 09:46:31.
