data_PCOD8319167
_publ_section_title
;
Structure prediction by ZEFSAII (Michael W. Deem and Ramdas Pophale) SiO2 
 PCOD8319167
Probable space group: P 42/N C M
;
_chemical_formula_sum "Si O2"
_cell_formula_units_Z 64
_cell_length_a 17.565751
_cell_length_b 17.565751
_cell_length_c 10.006627
_cell_angle_alpha 90.000000
_cell_angle_beta 90.000000
_cell_angle_gamma 90.000000
_cell_volume 3087.600880
_symmetry_space_group_name_H-M "P 42/N C M"
_symmetry_group_IT_number 138
_space_group.IT_coordinate_system_code '2'
_symmetry_cell_setting 'tetragonal'
loop_
_space_group_symop_operation_xyz
x,y,z
1/2-y,x,1/2+z
1/2-x,1/2-y,z
y,1/2-x,1/2+z
1/2+x,-y,1/2-z
-x,1/2+y,1/2-z
1/2+y,1/2+x,-z
-y,-x,-z
-x,-y,-z
1/2+y,-x,1/2-z
1/2+x,1/2+y,-z
-y,1/2+x,1/2-z
1/2-x,y,1/2+z
x,1/2-y,1/2+z
1/2-y,1/2-x,z
y,x,z
loop_
_atom_site_type_symbol
_atom_site_label
_atom_site_fract_x
_atom_site_fract_y
_atom_site_fract_z
Si Si1 0.790479 0.995443 0.919549
Si Si2 0.888933 0.387099 0.709475
Si Si3 0.870245 0.232046 0.434046
Si Si4 0.327140 0.050559 0.290434
O O1 0.871456 0.033629 0.876065
O O2 0.749001 0.948127 0.801551
O O3 0.734556 0.065813 0.951032
O O4 0.803379 0.945685 0.053151
O O5 0.813614 0.357852 0.633182
O O6 0.899629 0.334399 0.837612
O O7 0.879646 0.476561 0.738463
O O8 0.790561 0.209440 0.500000
O O9 0.374844 0.125157 0.253550
#
# Coordination Sequence:
#
# PCOD8319167 Si02
#       4
#    16  16  16  16
#     4  11  22  40  61  89 128 167 213 257 305 370
#     4  11  21  34  58  92 128 170 213 250 294 372
#     4  11  19  32  52  87 129 174 204 243 293 368
#     4  11  24  43  67  93 126 165 206 259 320 379
#
# _framework density 20.728069000000001
#
# number of rings (size 3 to 8) (size 9 to 14) (size 15 to 20)
#    0.000    1.000    7.500    3.000    0.000    8.500 
#    0.000    3.750    0.000    2.250    0.000    0.000 
#    0.000    0.000    0.000    0.000    0.000    0.000 
#
# Total GULP energy -793145.280659 kJ/mol
# GULP energy per Si atom -12392.895010 kJ/mol
# Density = 2.068089 g / cm^3
# Si number density = 20.728069 Si / 1000 Ang^3
#
#
#
# Elastic Constant Matrix: (Units=GPa)
#
#
# Indices 1 2 3 4 5 6 
#
# 1 58.2520 35.5696 18.4059 0.0000 0.0000 0.0000
# 2 35.5696 58.2515 18.4054 0.0000 0.0000 0.0000
# 3 18.4059 18.4054 84.3055 0.0000 0.0000 0.0000
# 4 0.0000 0.0000 0.0000 16.7810 0.0000 0.0000
# 5 0.0000 0.0000 0.0000 0.0000 16.7818 0.0000
# 6 0.0000 0.0000 0.0000 0.0000 0.0000 38.5404
#
#
#
# Elastic Compliance Matrix: (Units=1/GPa)
#
#
# Indices 1 2 3 4 5 6 
#
# 1 0.027872 -0.016215 -0.002545 0.000000 0.000000 0.000000
# 2 -0.016215 0.027872 -0.002545 0.000000 0.000000 0.000000
# 3 -0.002545 -0.002545 0.012973 0.000000 0.000000 0.000000
# 4 0.000000 0.000000 0.000000 0.059591 0.000000 0.000000
# 5 0.000000 0.000000 0.000000 0.000000 0.059588 0.000000
# 6 0.000000 0.000000 0.000000 0.000000 0.000000 0.025947
#
#
# Mechanical properties :
#
#
# Convention : Reuss Voigt Hill
#
# Bulk Modulus (GPa) = 38.30373 38.39675 38.35024
# Shear Modulus (GPa) = 18.85677 22.98250 20.91964
#
# Velocity S-wave (km/s) = 3.01943 3.33342 3.18030
# Velocity P-wave (km/s) = 5.53852 5.77753 5.65929
#
# Compressibility (1/GPa) = 0.02610712
#
# Stress axis : x y z
#
# Youngs Moduli (GPa) = 35.87798 35.87775 77.08393
#
# Poissons Ratio (x) = 0.58177 0.19618
# Poissons Ratio (y) = 0.58177 0.19617
# Poissons Ratio (z) = 0.09131 0.09131
#
# Static dielectric constant tensor:
#      x y z
#    x 3.418390 0.000000 0.000000 
#    y 0.000000 3.418390 0.000000 
#    z 0.000000 0.000000 4.050920 
# 
# 
# High freq. dielectric constant tensor:
#      x y z
#    x 1.773960 0.000000 0.000000 
#    y 0.000000 1.773960 0.000000 
#    z 0.000000 0.000000 1.829480 
# 
# From -- ./inp_files/2680.got.cif
#   From: 2010.03.12/outbox.cif.g09.slc.cpg/sg138_2_cif.got.tgz:2680.got - 2010.04.08 09:41:05.
