data_PCOD8319964
_publ_section_title
;
Structure prediction by ZEFSAII (Michael W. Deem and Ramdas Pophale) SiO2 
 PCOD8319964
Probable space group: I 4/M M M
;
_chemical_formula_sum "Si O2"
_cell_formula_units_Z 112
_cell_length_a 19.740142
_cell_length_b 19.740142
_cell_length_c 15.154501
_cell_angle_alpha 90.000000
_cell_angle_beta 90.000000
_cell_angle_gamma 90.000000
_cell_volume 5905.302993
_symmetry_space_group_name_H-M "I 4/M M M"
_symmetry_group_IT_number 139
_symmetry_cell_setting 'tetragonal'
loop_
_space_group_symop_operation_xyz
x,y,z
-y,x,z
-x,-y,z
y,-x,z
x,-y,-z
-x,y,-z
y,x,-z
-y,-x,-z
-x,-y,-z
y,-x,-z
x,y,-z
-y,x,-z
-x,y,z
x,-y,z
-y,-x,z
y,x,z
1/2+x,1/2+y,1/2+z
1/2-y,1/2+x,1/2+z
1/2-x,1/2-y,1/2+z
1/2+y,1/2-x,1/2+z
1/2+x,1/2-y,1/2-z
1/2-x,1/2+y,1/2-z
1/2+y,1/2+x,1/2-z
1/2-y,1/2-x,1/2-z
1/2-x,1/2-y,1/2-z
1/2+y,1/2-x,1/2-z
1/2+x,1/2+y,1/2-z
1/2-y,1/2+x,1/2-z
1/2-x,1/2+y,1/2+z
1/2+x,1/2-y,1/2+z
1/2-y,1/2-x,1/2+z
1/2+y,1/2+x,1/2+z
loop_
_atom_site_type_symbol
_atom_site_label
_atom_site_fract_x
_atom_site_fract_y
_atom_site_fract_z
Si Si1 0.077063 0.308838 0.358719
Si Si2 0.419787 0.695729 0.000000
Si Si3 0.422756 0.180160 0.654160
Si Si4 0.926919 0.175984 0.100333
O O1 0.097331 0.241541 0.413627
O O2 0.121981 0.374112 0.383433
O O3 0.088061 0.297052 0.255250
O O4 0.000000 0.328164 0.381722
O O5 0.500000 0.674247 0.000000
O O6 0.371243 0.628758 0.000000
O O7 0.500000 0.156045 0.638165
O O8 0.403186 0.246623 0.599780
O O9 0.872478 0.127523 0.148915
O O10 0.000000 0.168709 0.148776
O O11 0.934106 0.152823 0.000000
#
# Coordination Sequence:
#
# PCOD8319964 Si02
#       4
#    32  16  32  32
#     4   9  19  35  53  76 104 135 171 210 254 303
#     4  10  22  39  57  77 103 135 174 222 268 310
#     4   9  18  33  53  76 105 137 169 208 252 303
#     4   9  18  31  47  69  97 129 165 205 248 296
#
# _framework density 18.966003000000001
#
# number of rings (size 3 to 8) (size 9 to 14) (size 15 to 20)
#    0.000    2.857    0.000    0.000    2.000    3.286 
#    0.000    7.143    0.000    2.571    0.000    8.000 
#    0.000    0.000    0.000    0.000    0.000    0.000 
#
# Total GULP energy -693812.452030 kJ/mol
# GULP energy per Si atom -12389.508072 kJ/mol
# Density = 1.892284 g / cm^3
# Si number density = 18.966003 Si / 1000 Ang^3
#
#
#
# Elastic Constant Matrix: (Units=GPa)
#
#
# Indices 1 2 3 4 5 6 
#
# 1 126.3479 105.3054 26.4093 0.0000 0.0000 0.0000
# 2 105.3054 126.3503 26.4095 0.0000 0.0000 0.0000
# 3 26.4093 26.4095 41.3001 0.0000 0.0000 0.0000
# 4 0.0000 0.0000 0.0000 22.5665 0.0000 0.0000
# 5 0.0000 0.0000 0.0000 0.0000 22.5664 0.0000
# 6 0.0000 0.0000 0.0000 0.0000 0.0000 46.8565
#
#
#
# Elastic Compliance Matrix: (Units=1/GPa)
#
#
# Indices 1 2 3 4 5 6 
#
# 1 0.026287 -0.021233 -0.003232 0.000000 0.000000 0.000000
# 2 -0.021233 0.026287 -0.003231 0.000000 0.000000 0.000000
# 3 -0.003232 -0.003231 0.028346 0.000000 0.000000 0.000000
# 4 0.000000 0.000000 0.000000 0.044314 0.000000 0.000000
# 5 0.000000 0.000000 0.000000 0.000000 0.044314 0.000000
# 6 0.000000 0.000000 0.000000 0.000000 0.000000 0.021342
#
#
# Mechanical properties :
#
#
# Convention : Reuss Voigt Hill
#
# Bulk Modulus (GPa) = 39.17439 67.80519 53.48979
# Shear Modulus (GPa) = 19.62398 27.45615 23.54007
#
# Velocity S-wave (km/s) = 3.22015 3.80893 3.52685
# Velocity P-wave (km/s) = 5.87586 7.42781 6.69695
#
# Compressibility (1/GPa) = 0.02552688
#
# Stress axis : x y z
#
# Youngs Moduli (GPa) = 38.04133 38.04208 35.27862
#
# Poissons Ratio (x) = 0.80776 0.11401
# Poissons Ratio (y) = 0.80775 0.11400
# Poissons Ratio (z) = 0.12293 0.12293
#
# Static dielectric constant tensor:
#      x y z
#    x 3.598700 0.000000 0.000000 
#    y 0.000000 3.598700 0.000000 
#    z 0.000000 0.000000 3.410070 
# 
# 
# High freq. dielectric constant tensor:
#      x y z
#    x 1.734100 0.000000 0.000000 
#    y 0.000000 1.734100 0.000000 
#    z 0.000000 0.000000 1.722620 
# 
# From -- ./inp_files/9736.got.cif
#   From: 2010.03.12/outbox.cif.g09.slc.cpg/sg139_5_cif.got.tgz:9736.got - 2010.04.08 09:46:31.
