data_PCOD8319671
_publ_section_title
;
Structure prediction by ZEFSAII (Michael W. Deem and Ramdas Pophale) SiO2 
 PCOD8319671
Probable space group: I 4/M M M
;
_chemical_formula_sum "Si O2"
_cell_formula_units_Z 192
_cell_length_a 23.643215
_cell_length_b 23.643215
_cell_length_c 18.244095
_cell_angle_alpha 90.000000
_cell_angle_beta 90.000000
_cell_angle_gamma 90.000000
_cell_volume 10198.478579
_symmetry_space_group_name_H-M "I 4/M M M"
_symmetry_group_IT_number 139
_symmetry_cell_setting 'tetragonal'
loop_
_space_group_symop_operation_xyz
x,y,z
-y,x,z
-x,-y,z
y,-x,z
x,-y,-z
-x,y,-z
y,x,-z
-y,-x,-z
-x,-y,-z
y,-x,-z
x,y,-z
-y,x,-z
-x,y,z
x,-y,z
-y,-x,z
y,x,z
1/2+x,1/2+y,1/2+z
1/2-y,1/2+x,1/2+z
1/2-x,1/2-y,1/2+z
1/2+y,1/2-x,1/2+z
1/2+x,1/2-y,1/2-z
1/2-x,1/2+y,1/2-z
1/2+y,1/2+x,1/2-z
1/2-y,1/2-x,1/2-z
1/2-x,1/2-y,1/2-z
1/2+y,1/2-x,1/2-z
1/2+x,1/2+y,1/2-z
1/2-y,1/2+x,1/2-z
1/2-x,1/2+y,1/2+z
1/2+x,1/2-y,1/2+z
1/2-y,1/2-x,1/2+z
1/2+y,1/2+x,1/2+z
loop_
_atom_site_type_symbol
_atom_site_label
_atom_site_fract_x
_atom_site_fract_y
_atom_site_fract_z
Si Si1 0.780337 0.064002 0.346675
Si Si2 0.329782 0.670219 0.084950
Si Si3 0.438104 0.858502 0.413243
Si Si4 0.740583 0.259418 0.586577
Si Si5 0.342306 0.565328 0.698498
Si Si6 0.387020 0.741180 0.413809
Si Si7 0.934924 0.337525 0.415959
O O1 0.818341 0.105860 0.393776
O O2 0.794853 0.072476 0.261453
O O3 0.714845 0.077981 0.362569
O O4 0.794072 0.000000 0.372319
O O5 0.285219 0.714782 0.122371
O O6 0.322693 0.677308 0.000000
O O7 0.438673 0.864667 0.500000
O O8 0.500000 0.874401 0.381066
O O9 0.425115 0.794256 0.390889
O O10 0.390284 0.900430 0.382543
O O11 0.745011 0.254990 0.500000
O O12 0.754925 0.323101 0.612164
O O13 0.360726 0.500000 0.689935
O O14 0.398283 0.601718 0.717129
O O15 0.314587 0.588247 0.624123
O O16 0.388696 0.728711 0.500000
O O17 0.916294 0.322664 0.500000
O O18 0.000000 0.355061 0.414352
#
# Coordination Sequence:
#
# PCOD8319671 Si02
#       7
#    32  16  32  16  32  32  32
#     4  10  21  37  54  77 110 144 182 229 279 331
#     4  11  20  33  57  84 109 145 187 225 274 329
#     4   9  17  29  48  77 111 146 185 228 275 324
#     4   9  18  31  53  83 114 141 171 223 278 325
#     4  11  23  40  60  81 108 142 180 222 275 338
#     4  10  19  35  57  83 112 142 178 222 273 330
#     4   9  17  31  52  76 106 147 191 232 272 318
#
# _framework density 18.826336999999999
#
# number of rings (size 3 to 8) (size 9 to 14) (size 15 to 20)
#    0.000    2.167    1.667    2.000    0.000    5.167 
#    0.000    5.833    0.000    0.250    0.000    1.750 
#    0.000    4.000    0.000    0.167    0.000    0.000 
#
# Total GULP energy -1190266.545873 kJ/mol
# GULP energy per Si atom -12398.609853 kJ/mol
# Density = 1.878349 g / cm^3
# Si number density = 18.826337 Si / 1000 Ang^3
#
#
#
# Elastic Constant Matrix: (Units=GPa)
#
#
# Indices 1 2 3 4 5 6 
#
# 1 137.8660 74.1182 38.2976 0.0000 0.0000 0.0000
# 2 74.1182 137.8662 38.2976 0.0000 0.0000 0.0000
# 3 38.2976 38.2976 49.1437 0.0000 0.0000 0.0000
# 4 0.0000 0.0000 0.0000 20.6968 0.0000 0.0000
# 5 0.0000 0.0000 0.0000 0.0000 20.6968 0.0000
# 6 0.0000 0.0000 0.0000 0.0000 0.0000 33.1928
#
#
#
# Elastic Compliance Matrix: (Units=1/GPa)
#
#
# Indices 1 2 3 4 5 6 
#
# 1 0.011127 -0.004560 -0.005117 0.000000 0.000000 0.000000
# 2 -0.004560 0.011127 -0.005117 0.000000 0.000000 0.000000
# 3 -0.005117 -0.005117 0.028324 0.000000 0.000000 0.000000
# 4 0.000000 0.000000 0.000000 0.048317 0.000000 0.000000
# 5 0.000000 0.000000 0.000000 0.000000 0.048317 0.000000
# 6 0.000000 0.000000 0.000000 0.000000 0.000000 0.030127
#
#
# Mechanical properties :
#
#
# Convention : Reuss Voigt Hill
#
# Bulk Modulus (GPa) = 47.64592 69.58917 58.61755
# Shear Modulus (GPa) = 23.37300 26.52813 24.95057
#
# Velocity S-wave (km/s) = 3.52732 3.75787 3.64442
# Velocity P-wave (km/s) = 6.47707 7.47481 6.99375
#
# Compressibility (1/GPa) = 0.02098816
#
# Stress axis : x y z
#
# Youngs Moduli (GPa) = 89.87529 89.87540 35.30584
#
# Poissons Ratio (x) = 0.40986 0.18066
# Poissons Ratio (y) = 0.40986 0.18066
# Poissons Ratio (z) = 0.45990 0.45990
#
# Static dielectric constant tensor:
#      x y z
#    x 3.614250 0.000000 0.000000 
#    y 0.000000 3.614250 0.000000 
#    z 0.000000 0.000000 3.149510 
# 
# 
# High freq. dielectric constant tensor:
#      x y z
#    x 1.736810 0.000000 0.000000 
#    y 0.000000 1.736810 0.000000 
#    z 0.000000 0.000000 1.695230 
# 
# From -- ./inp_files/10641.got.cif
#   From: 2010.03.12/outbox.cif.g09.slc.cpg/sg139_6_cif.got.tgz:10641.got - 2010.04.08 09:46:31.
