data_PCOD8319825
_publ_section_title
;
Structure prediction by ZEFSAII (Michael W. Deem and Ramdas Pophale) SiO2 
 PCOD8319825
Probable space group: I 4/M M M
;
_chemical_formula_sum "Si O2"
_cell_formula_units_Z 176
_cell_length_a 23.417113
_cell_length_b 23.417113
_cell_length_c 17.804309
_cell_angle_alpha 90.000000
_cell_angle_beta 90.000000
_cell_angle_gamma 90.000000
_cell_volume 9763.191915
_symmetry_space_group_name_H-M "I 4/M M M"
_symmetry_group_IT_number 139
_symmetry_cell_setting 'tetragonal'
loop_
_space_group_symop_operation_xyz
x,y,z
-y,x,z
-x,-y,z
y,-x,z
x,-y,-z
-x,y,-z
y,x,-z
-y,-x,-z
-x,-y,-z
y,-x,-z
x,y,-z
-y,x,-z
-x,y,z
x,-y,z
-y,-x,z
y,x,z
1/2+x,1/2+y,1/2+z
1/2-y,1/2+x,1/2+z
1/2-x,1/2-y,1/2+z
1/2+y,1/2-x,1/2+z
1/2+x,1/2-y,1/2-z
1/2-x,1/2+y,1/2-z
1/2+y,1/2+x,1/2-z
1/2-y,1/2-x,1/2-z
1/2-x,1/2-y,1/2-z
1/2+y,1/2-x,1/2-z
1/2+x,1/2+y,1/2-z
1/2-y,1/2+x,1/2-z
1/2-x,1/2+y,1/2+z
1/2+x,1/2-y,1/2+z
1/2-y,1/2-x,1/2+z
1/2+y,1/2+x,1/2+z
loop_
_atom_site_type_symbol
_atom_site_label
_atom_site_fract_x
_atom_site_fract_y
_atom_site_fract_z
Si Si1 0.770809 0.565853 0.165086
Si Si2 0.436040 0.000000 0.589325
Si Si3 0.885881 0.625340 0.411026
Si Si4 0.065355 0.841932 0.911657
Si Si5 0.843552 0.064749 0.414503
Si Si6 0.433826 0.776928 0.340271
O O1 0.784565 0.500000 0.144416
O O2 0.810085 0.608214 0.117062
O O3 0.706618 0.581100 0.142333
O O4 0.779356 0.578242 0.252266
O O5 0.407208 0.942135 0.620311
O O6 0.500000 0.000000 0.620224
O O7 0.433585 0.000000 0.500000
O O8 0.882751 0.622789 0.500000
O O9 0.828016 0.599640 0.379089
O O10 0.105511 0.894490 0.885953
O O11 0.087005 0.784133 0.871666
O O12 0.000000 0.856443 0.888303
O O13 0.069947 0.831697 0.000000
O O14 0.822846 0.075155 0.500000
O O15 0.897499 0.102502 0.392899
O O16 0.863285 0.000000 0.402776
O O17 0.500000 0.785300 0.359776
#
# Coordination Sequence:
#
# PCOD8319825 Si02
#       6
#    32  16  32  32  32  32
#     4  10  20  35  53  74 106 143 181 219 263 317
#     4   9  18  30  48  76 104 130 166 216 266 311
#     4  11  20  33  54  77 104 139 180 224 268 316
#     4   9  18  34  56  82 110 140 176 217 264 317
#     4   9  18  33  55  82 110 140 175 217 266 320
#     4  10  21  35  53  76 108 145 180 219 265 321
#
# _framework density 18.026890999999999
#
# number of rings (size 3 to 8) (size 9 to 14) (size 15 to 20)
#    0.000    2.273    0.909    2.182    0.000    3.636 
#    0.000    2.727    0.000    5.455    0.000    5.091 
#    0.000    0.000    0.000    0.000    0.000    0.000 
#
# Total GULP energy -1091314.791802 kJ/mol
# GULP energy per Si atom -12401.304452 kJ/mol
# Density = 1.798586 g / cm^3
# Si number density = 18.026891 Si / 1000 Ang^3
#
#
#
# Elastic Constant Matrix: (Units=GPa)
#
#
# Indices 1 2 3 4 5 6 
#
# 1 119.8750 82.6217 48.1204 0.0000 0.0000 0.0000
# 2 82.6217 119.8750 48.1204 0.0000 0.0000 0.0000
# 3 48.1204 48.1204 69.6008 0.0000 0.0000 0.0000
# 4 0.0000 0.0000 0.0000 24.6767 0.0000 0.0000
# 5 0.0000 0.0000 0.0000 0.0000 24.6767 0.0000
# 6 0.0000 0.0000 0.0000 0.0000 0.0000 33.9616
#
#
#
# Elastic Compliance Matrix: (Units=1/GPa)
#
#
# Indices 1 2 3 4 5 6 
#
# 1 0.017099 -0.009744 -0.005085 0.000000 0.000000 0.000000
# 2 -0.009744 0.017099 -0.005085 0.000000 0.000000 0.000000
# 3 -0.005085 -0.005085 0.021399 0.000000 0.000000 0.000000
# 4 0.000000 0.000000 0.000000 0.040524 0.000000 0.000000
# 5 0.000000 0.000000 0.000000 0.000000 0.040524 0.000000
# 6 0.000000 0.000000 0.000000 0.000000 0.000000 0.029445
#
#
# Mechanical properties :
#
#
# Convention : Reuss Voigt Hill
#
# Bulk Modulus (GPa) = 63.41639 74.11952 68.76796
# Shear Modulus (GPa) = 23.67695 25.36225 24.51960
#
# Velocity S-wave (km/s) = 3.62805 3.75495 3.69205
# Velocity P-wave (km/s) = 7.26674 7.74628 7.51034
#
# Compressibility (1/GPa) = 0.01576880
#
# Stress axis : x y z
#
# Youngs Moduli (GPa) = 58.48214 58.48214 46.73062
#
# Poissons Ratio (x) = 0.56985 0.23764
# Poissons Ratio (y) = 0.56985 0.23764
# Poissons Ratio (z) = 0.29739 0.29739
#
# Static dielectric constant tensor:
#      x y z
#    x 3.329200 0.000000 0.000000 
#    y 0.000000 3.329200 0.000000 
#    z 0.000000 0.000000 3.256480 
# 
# 
# High freq. dielectric constant tensor:
#      x y z
#    x 1.694550 0.000000 0.000000 
#    y 0.000000 1.694550 0.000000 
#    z 0.000000 0.000000 1.694410 
# 
# From -- ./inp_files/6099.got.cif
#   From: 2010.03.12/outbox.cif.g09.slc.cpg/sg139_4_cif.got.tgz:6099.got - 2010.04.08 09:46:31.
