data_PCOD8319250
_publ_section_title
;
Structure prediction by ZEFSAII (Michael W. Deem and Ramdas Pophale) SiO2 
 PCOD8319250
Probable space group: I 4/M M M
;
_chemical_formula_sum "Si O2"
_cell_formula_units_Z 192
_cell_length_a 24.973060
_cell_length_b 24.973060
_cell_length_c 21.867378
_cell_angle_alpha 90.000000
_cell_angle_beta 90.000000
_cell_angle_gamma 90.000000
_cell_volume 13637.671762
_symmetry_space_group_name_H-M "I 4/M M M"
_symmetry_group_IT_number 139
_symmetry_cell_setting 'tetragonal'
loop_
_space_group_symop_operation_xyz
x,y,z
-y,x,z
-x,-y,z
y,-x,z
x,-y,-z
-x,y,-z
y,x,-z
-y,-x,-z
-x,-y,-z
y,-x,-z
x,y,-z
-y,x,-z
-x,y,z
x,-y,z
-y,-x,z
y,x,z
1/2+x,1/2+y,1/2+z
1/2-y,1/2+x,1/2+z
1/2-x,1/2-y,1/2+z
1/2+y,1/2-x,1/2+z
1/2+x,1/2-y,1/2-z
1/2-x,1/2+y,1/2-z
1/2+y,1/2+x,1/2-z
1/2-y,1/2-x,1/2-z
1/2-x,1/2-y,1/2-z
1/2+y,1/2-x,1/2-z
1/2+x,1/2+y,1/2-z
1/2-y,1/2+x,1/2-z
1/2-x,1/2+y,1/2+z
1/2+x,1/2-y,1/2+z
1/2-y,1/2-x,1/2+z
1/2+y,1/2+x,1/2+z
loop_
_atom_site_type_symbol
_atom_site_label
_atom_site_fract_x
_atom_site_fract_y
_atom_site_fract_z
Si Si1 0.128616 0.218661 0.342613
Si Si2 0.747776 0.163129 0.000000
Si Si3 0.788876 0.699241 0.626404
Si Si4 0.689246 0.440573 0.500000
Si Si5 0.439393 0.645603 0.369046
Si Si6 0.719894 0.370198 0.295044
Si Si7 0.561983 0.649645 0.929438
O O1 0.174621 0.174621 0.345097
O O2 0.152212 0.275994 0.363799
O O3 0.107736 0.227367 0.273555
O O4 0.080840 0.199321 0.387059
O O5 0.711908 0.174969 0.058775
O O6 0.762236 0.100874 0.000000
O O7 0.802581 0.197420 0.000000
O O8 0.745682 0.745682 0.633158
O O9 0.775221 0.653428 0.676776
O O10 0.714908 0.500000 0.500000
O O11 0.651588 0.432624 0.558504
O O12 0.500000 0.635002 0.349105
O O13 0.405236 0.594765 0.346500
O O14 0.419090 0.699897 0.336826
O O15 0.676556 0.323445 0.296598
O O16 0.500000 0.636801 0.915314
O O17 0.596104 0.596104 0.914738
O O18 0.570097 0.666780 0.000000
#
# Coordination Sequence:
#
# PCOD8319250 Si02
#       7
#    32  16  32  16  32  32  32
#     4   9  17  27  41  60  80 100 125 158 198 244
#     4  10  16  24  40  60  81 102 129 164 200 240
#     4   9  16  24  39  60  81 101 122 153 197 245
#     4  10  18  28  41  55  75 105 140 175 212 248
#     4  10  19  29  41  55  73 102 141 183 221 249
#     4   9  16  27  40  55  77 102 127 158 198 248
#     4   9  18  31  45  60  79 103 135 175 213 248
#
# _framework density 14.078649
#
# number of rings (size 3 to 8) (size 9 to 14) (size 15 to 20)
#    0.000    2.667    1.667    1.250    1.167    3.000 
#    0.000    0.833    0.000    1.500    0.000    4.667 
#    0.000    0.000    0.000    0.000    0.000    4.167 
#
# Total GULP energy -1190042.155036 kJ/mol
# GULP energy per Si atom -12396.272448 kJ/mol
# Density = 1.404661 g / cm^3
# Si number density = 14.078649 Si / 1000 Ang^3
#
#
#
# Elastic Constant Matrix: (Units=GPa)
#
#
# Indices 1 2 3 4 5 6 
#
# 1 56.9411 50.4186 37.3561 0.0000 0.0000 0.0000
# 2 50.4186 56.9415 37.3562 0.0000 0.0000 0.0000
# 3 37.3561 37.3562 96.3109 0.0000 0.0000 0.0000
# 4 0.0000 0.0000 0.0000 14.9409 0.0000 0.0000
# 5 0.0000 0.0000 0.0000 0.0000 14.9409 0.0000
# 6 0.0000 0.0000 0.0000 0.0000 0.0000 17.0169
#
#
#
# Elastic Compliance Matrix: (Units=1/GPa)
#
#
# Indices 1 2 3 4 5 6 
#
# 1 0.083035 -0.070276 -0.004949 0.000000 0.000000 0.000000
# 2 -0.070276 0.083034 -0.004948 0.000000 0.000000 0.000000
# 3 -0.004949 -0.004948 0.014222 0.000000 0.000000 0.000000
# 4 0.000000 0.000000 0.000000 0.066930 0.000000 0.000000
# 5 0.000000 0.000000 0.000000 0.000000 0.066930 0.000000
# 6 0.000000 0.000000 0.000000 0.000000 0.000000 0.058765
#
#
# Mechanical properties :
#
#
# Convention : Reuss Voigt Hill
#
# Bulk Modulus (GPa) = 50.14020 51.16169 50.65094
# Shear Modulus (GPa) = 9.26080 15.05060 12.15570
#
# Velocity S-wave (km/s) = 2.56752 3.27316 2.94158
# Velocity P-wave (km/s) = 6.66943 7.12064 6.89873
#
# Compressibility (1/GPa) = 0.01994408
#
# Stress axis : x y z
#
# Youngs Moduli (GPa) = 12.04318 12.04327 70.31455
#
# Poissons Ratio (x) = 0.84635 0.34796
# Poissons Ratio (y) = 0.84635 0.34795
# Poissons Ratio (z) = 0.05960 0.05960
#
# Static dielectric constant tensor:
#      x y z
#    x 2.603840 0.000000 0.000000 
#    y 0.000000 2.603840 0.000000 
#    z 0.000000 0.000000 2.975810 
# 
# 
# High freq. dielectric constant tensor:
#      x y z
#    x 1.501950 0.000000 0.000000 
#    y 0.000000 1.501950 0.000000 
#    z 0.000000 0.000000 1.554020 
# 
# From -- ./inp_files/10623.got.cif
#   From: 2010.03.12/outbox.cif.g09.slc.cpg/sg139_6_cif.got.tgz:10623.got - 2010.04.08 09:46:31.
