data_PCOD8319329
_publ_section_title
;
Structure prediction by ZEFSAII (Michael W. Deem and Ramdas Pophale) SiO2 
 PCOD8319329
Probable space group: I 4/M M M
;
_chemical_formula_sum "Si O2"
_cell_formula_units_Z 208
_cell_length_a 22.167492
_cell_length_b 22.167492
_cell_length_c 28.824159
_cell_angle_alpha 90.000000
_cell_angle_beta 90.000000
_cell_angle_gamma 90.000000
_cell_volume 14164.125482
_symmetry_space_group_name_H-M "I 4/M M M"
_symmetry_group_IT_number 139
_symmetry_cell_setting 'tetragonal'
loop_
_space_group_symop_operation_xyz
x,y,z
-y,x,z
-x,-y,z
y,-x,z
x,-y,-z
-x,y,-z
y,x,-z
-y,-x,-z
-x,-y,-z
y,-x,-z
x,y,-z
-y,x,-z
-x,y,z
x,-y,z
-y,-x,z
y,x,z
1/2+x,1/2+y,1/2+z
1/2-y,1/2+x,1/2+z
1/2-x,1/2-y,1/2+z
1/2+y,1/2-x,1/2+z
1/2+x,1/2-y,1/2-z
1/2-x,1/2+y,1/2-z
1/2+y,1/2+x,1/2-z
1/2-y,1/2-x,1/2-z
1/2-x,1/2-y,1/2-z
1/2+y,1/2-x,1/2-z
1/2+x,1/2+y,1/2-z
1/2-y,1/2+x,1/2-z
1/2-x,1/2+y,1/2+z
1/2+x,1/2-y,1/2+z
1/2-y,1/2-x,1/2+z
1/2+y,1/2+x,1/2+z
loop_
_atom_site_type_symbol
_atom_site_label
_atom_site_fract_x
_atom_site_fract_y
_atom_site_fract_z
Si Si1 0.667543 0.569331 0.052502
Si Si2 0.623340 0.849793 0.823474
Si Si3 0.931039 0.294766 0.765987
Si Si4 0.433901 0.071760 0.000000
Si Si5 0.069393 0.832117 0.724470
Si Si6 0.373811 0.277102 0.135803
Si Si7 0.433082 0.928674 0.599035
O O1 0.651403 0.500000 0.061581
O O2 0.606751 0.606751 0.063106
O O3 0.720921 0.591346 0.086576
O O4 0.690285 0.579780 0.000000
O O5 0.682211 0.885700 0.805736
O O6 0.579673 0.832169 0.781197
O O7 0.644023 0.790317 0.850463
O O8 0.586531 0.890155 0.858824
O O9 0.918109 0.223792 0.759059
O O10 0.000000 0.305748 0.781224
O O11 0.401178 0.090010 0.048933
O O12 0.500000 0.102185 0.000000
O O13 0.440205 0.000000 0.000000
O O14 0.112293 0.887708 0.739014
O O15 0.082619 0.809859 0.672559
O O16 0.000000 0.853405 0.727449
O O17 0.310209 0.310209 0.132303
O O18 0.500000 0.903811 0.610596
O O19 0.435467 0.000000 0.592906
#
# Coordination Sequence:
#
# PCOD8319329 Si02
#       7
#    32  32  32  16  32  32  32
#     4   9  17  29  44  61  82 107 135 171 214 255
#     4  10  18  28  44  60  77 107 142 170 201 248
#     4   9  18  30  42  60  84 106 133 172 210 240
#     4   7  12  24  38  52  75 102 124 154 199 242
#     4   9  17  29  45  63  84 108 131 162 203 245
#     4   9  18  31  43  57  80 108 138 172 206 237
#     4   9  16  26  40  58  80 104 129 163 207 247
#
# _framework density 14.684987
#
# number of rings (size 3 to 8) (size 9 to 14) (size 15 to 20)
#    0.000    3.000    0.000    2.308    0.000    2.769 
#    1.385    3.846    0.000    6.462    0.000    0.000 
#    0.000    0.000    0.000    0.000    0.000    0.000 
#
# Total GULP energy -1288844.933496 kJ/mol
# GULP energy per Si atom -12392.739745 kJ/mol
# Density = 1.465156 g / cm^3
# Si number density = 14.684987 Si / 1000 Ang^3
#
#
#
# Elastic Constant Matrix: (Units=GPa)
#
#
# Indices 1 2 3 4 5 6 
#
# 1 84.3524 44.2800 41.5543 0.0000 0.0000 0.0000
# 2 44.2800 84.3524 41.5543 0.0000 0.0000 0.0000
# 3 41.5543 41.5543 79.8490 0.0000 0.0000 0.0000
# 4 0.0000 0.0000 0.0000 18.7901 0.0000 0.0000
# 5 0.0000 0.0000 0.0000 0.0000 18.7901 0.0000
# 6 0.0000 0.0000 0.0000 0.0000 0.0000 18.7195
#
#
#
# Elastic Compliance Matrix: (Units=1/GPa)
#
#
# Indices 1 2 3 4 5 6 
#
# 1 0.018333 -0.006621 -0.006095 0.000000 0.000000 0.000000
# 2 -0.006621 0.018333 -0.006095 0.000000 0.000000 0.000000
# 3 -0.006095 -0.006095 0.018868 0.000000 0.000000 0.000000
# 4 0.000000 0.000000 0.000000 0.053219 0.000000 0.000000
# 5 0.000000 0.000000 0.000000 0.000000 0.053219 0.000000
# 6 0.000000 0.000000 0.000000 0.000000 0.000000 0.053420
#
#
# Mechanical properties :
#
#
# Convention : Reuss Voigt Hill
#
# Bulk Modulus (GPa) = 55.83057 55.92568 55.87812
# Shear Modulus (GPa) = 19.30599 19.33764 19.32182
#
# Velocity S-wave (km/s) = 3.62978 3.63275 3.63127
# Velocity P-wave (km/s) = 7.46113 7.46740 7.46427
#
# Compressibility (1/GPa) = 0.01791133
#
# Stress axis : x y z
#
# Youngs Moduli (GPa) = 54.54508 54.54508 53.00105
#
# Poissons Ratio (x) = 0.36116 0.32305
# Poissons Ratio (y) = 0.36116 0.32305
# Poissons Ratio (z) = 0.33246 0.33246
#
# Static dielectric constant tensor:
#      x y z
#    x 2.746350 0.000000 0.000000 
#    y 0.000000 2.746350 0.000000 
#    z 0.000000 0.000000 3.039120 
# 
# 
# High freq. dielectric constant tensor:
#      x y z
#    x 1.544580 0.000000 0.000000 
#    y 0.000000 1.544580 0.000000 
#    z 0.000000 0.000000 1.560150 
# 
# From -- ./inp_files/14540.got.cif
#   From: 2010.03.12/outbox.cif.g09.slc.cpg/sg139_8_cif.got.tgz:14540.got - 2010.04.08 09:46:31.
