data_PCOD8319933
_publ_section_title
;
Structure prediction by ZEFSAII (Michael W. Deem and Ramdas Pophale) SiO2 
 PCOD8319933
Probable space group: I 4/M M M
;
_chemical_formula_sum "Si O2"
_cell_formula_units_Z 160
_cell_length_a 21.582616
_cell_length_b 21.582616
_cell_length_c 17.441386
_cell_angle_alpha 90.000000
_cell_angle_beta 90.000000
_cell_angle_gamma 90.000000
_cell_volume 8124.360037
_symmetry_space_group_name_H-M "I 4/M M M"
_symmetry_group_IT_number 139
_symmetry_cell_setting 'tetragonal'
loop_
_space_group_symop_operation_xyz
x,y,z
-y,x,z
-x,-y,z
y,-x,z
x,-y,-z
-x,y,-z
y,x,-z
-y,-x,-z
-x,-y,-z
y,-x,-z
x,y,-z
-y,x,-z
-x,y,z
x,-y,z
-y,-x,z
y,x,z
1/2+x,1/2+y,1/2+z
1/2-y,1/2+x,1/2+z
1/2-x,1/2-y,1/2+z
1/2+y,1/2-x,1/2+z
1/2+x,1/2-y,1/2-z
1/2-x,1/2+y,1/2-z
1/2+y,1/2+x,1/2-z
1/2-y,1/2-x,1/2-z
1/2-x,1/2-y,1/2-z
1/2+y,1/2-x,1/2-z
1/2+x,1/2+y,1/2-z
1/2-y,1/2+x,1/2-z
1/2-x,1/2+y,1/2+z
1/2+x,1/2-y,1/2+z
1/2-y,1/2-x,1/2+z
1/2+y,1/2+x,1/2+z
loop_
_atom_site_type_symbol
_atom_site_label
_atom_site_fract_x
_atom_site_fract_y
_atom_site_fract_z
Si Si1 0.144125 0.391191 0.334555
Si Si2 0.257503 0.156672 0.590289
Si Si3 0.000000 0.426853 0.913259
Si Si4 0.073567 0.170060 0.316612
Si Si5 0.168006 0.926748 0.000000
Si Si6 0.069937 0.220097 0.843269
O O1 0.119670 0.380331 0.250000
O O2 0.157798 0.326774 0.377316
O O3 0.095425 0.435722 0.376076
O O4 0.207147 0.428978 0.330493
O O5 0.260495 0.147331 0.500000
O O6 0.220142 0.220142 0.611728
O O7 0.222357 0.097463 0.625166
O O8 0.000000 0.500000 0.907847
O O9 0.000000 0.402394 0.000000
O O10 0.103741 0.103741 0.338169
O O11 0.098345 0.186924 0.231292
O O12 0.000000 0.165648 0.323593
O O13 0.201704 0.898354 0.924342
O O14 0.097343 0.902658 0.000000
O O15 0.168573 0.000000 0.000000
O O16 0.000000 0.196844 0.849047
#
# Coordination Sequence:
#
# PCOD8319933 Si02
#       6
#    32  32  16  32  16  32
#     4  12  24  40  68  91 125 167 206 261 314 373
#     4  10  23  41  61  91 126 163 207 259 318 376
#     4  11  28  46  66  96 130 168 214 266 315 380
#     4  10  21  39  62  88 122 158 202 254 309 372
#     4  10  22  37  60  90 124 166 208 256 309 371
#     4  10  21  38  58  87 122 164 204 249 306 367
#
# _framework density 19.693857999999999
#
# number of rings (size 3 to 8) (size 9 to 14) (size 15 to 20)
#    0.000    1.500    3.000    1.200    4.200    3.500 
#    0.000    0.000    0.000    3.600    0.000    2.800 
#    0.000    0.000    0.000    0.000    0.000    0.000 
#
# Total GULP energy -991707.210062 kJ/mol
# GULP energy per Si atom -12396.340126 kJ/mol
# Density = 1.964903 g / cm^3
# Si number density = 19.693858 Si / 1000 Ang^3
#
#
#
# Elastic Constant Matrix: (Units=GPa)
#
#
# Indices 1 2 3 4 5 6 
#
# 1 90.7201 36.0212 48.5031 0.0000 0.0000 0.0000
# 2 36.0212 90.7177 48.5029 0.0000 0.0000 0.0000
# 3 48.5031 48.5029 145.6835 0.0000 0.0000 0.0000
# 4 0.0000 0.0000 0.0000 23.9785 0.0000 0.0000
# 5 0.0000 0.0000 0.0000 0.0000 23.9802 0.0000
# 6 0.0000 0.0000 0.0000 0.0000 0.0000 24.7268
#
#
#
# Elastic Compliance Matrix: (Units=1/GPa)
#
#
# Indices 1 2 3 4 5 6 
#
# 1 0.014435 -0.003847 -0.003525 0.000000 0.000000 0.000000
# 2 -0.003847 0.014436 -0.003525 0.000000 0.000000 0.000000
# 3 -0.003525 -0.003525 0.009212 0.000000 0.000000 0.000000
# 4 0.000000 0.000000 0.000000 0.041704 0.000000 0.000000
# 5 0.000000 0.000000 0.000000 0.000000 0.041701 0.000000
# 6 0.000000 0.000000 0.000000 0.000000 0.000000 0.040442
#
#
# Mechanical properties :
#
#
# Convention : Reuss Voigt Hill
#
# Bulk Modulus (GPa) = 61.39743 65.90843 63.65293
# Shear Modulus (GPa) = 26.43359 27.47670 26.95515
#
# Velocity S-wave (km/s) = 3.66761 3.73928 3.70362
# Velocity P-wave (km/s) = 7.01276 7.22372 7.11902
#
# Compressibility (1/GPa) = 0.01628733
#
# Stress axis : x y z
#
# Youngs Moduli (GPa) = 69.27558 69.27347 108.55960
#
# Poissons Ratio (x) = 0.26649 0.38269
# Poissons Ratio (y) = 0.26650 0.38270
# Poissons Ratio (z) = 0.24421 0.24421
#
# Static dielectric constant tensor:
#      x y z
#    x 3.532150 0.000000 0.000000 
#    y 0.000000 3.532160 0.000000 
#    z 0.000000 0.000000 4.005360 
# 
# 
# High freq. dielectric constant tensor:
#      x y z
#    x 1.766060 0.000000 0.000000 
#    y 0.000000 1.766060 0.000000 
#    z 0.000000 0.000000 1.786280 
# 
# From -- ./inp_files/8441.got.cif
#   From: 2010.03.12/outbox.cif.g09.slc.cpg/sg139_5_cif.got.tgz:8441.got - 2010.04.08 09:46:31.
