data_PCOD8319494
_publ_section_title
;
Structure prediction by ZEFSAII (Michael W. Deem and Ramdas Pophale) SiO2 
 PCOD8319494
Probable space group: I 4/M M M
;
_chemical_formula_sum "Si O2"
_cell_formula_units_Z 192
_cell_length_a 21.474489
_cell_length_b 21.474489
_cell_length_c 23.674222
_cell_angle_alpha 90.000000
_cell_angle_beta 90.000000
_cell_angle_gamma 90.000000
_cell_volume 10917.454545
_symmetry_space_group_name_H-M "I 4/M M M"
_symmetry_group_IT_number 139
_symmetry_cell_setting 'tetragonal'
loop_
_space_group_symop_operation_xyz
x,y,z
-y,x,z
-x,-y,z
y,-x,z
x,-y,-z
-x,y,-z
y,x,-z
-y,-x,-z
-x,-y,-z
y,-x,-z
x,y,-z
-y,x,-z
-x,y,z
x,-y,z
-y,-x,z
y,x,z
1/2+x,1/2+y,1/2+z
1/2-y,1/2+x,1/2+z
1/2-x,1/2-y,1/2+z
1/2+y,1/2-x,1/2+z
1/2+x,1/2-y,1/2-z
1/2-x,1/2+y,1/2-z
1/2+y,1/2+x,1/2-z
1/2-y,1/2-x,1/2-z
1/2-x,1/2-y,1/2-z
1/2+y,1/2-x,1/2-z
1/2+x,1/2+y,1/2-z
1/2-y,1/2+x,1/2-z
1/2-x,1/2+y,1/2+z
1/2+x,1/2-y,1/2+z
1/2-y,1/2-x,1/2+z
1/2+y,1/2+x,1/2+z
loop_
_atom_site_type_symbol
_atom_site_label
_atom_site_fract_x
_atom_site_fract_y
_atom_site_fract_z
Si Si1 0.426116 0.324964 0.165531
Si Si2 0.710822 0.113893 0.737226
Si Si3 0.326007 0.227204 0.562323
Si Si4 0.102222 0.261337 0.434198
Si Si5 0.067538 0.627964 0.362732
Si Si6 0.568254 0.806071 0.640809
O O1 0.500000 0.331398 0.180119
O O2 0.392445 0.392445 0.169281
O O3 0.389595 0.279131 0.209110
O O4 0.418923 0.298479 0.101887
O O5 0.684672 0.184672 0.750000
O O6 0.663033 0.080166 0.695720
O O7 0.712250 0.074738 0.794264
O O8 0.352323 0.211782 0.500000
O O9 0.293780 0.293780 0.563628
O O10 0.275353 0.174810 0.578909
O O11 0.382147 0.232878 0.605592
O O12 0.089062 0.247273 0.500000
O O13 0.065333 0.322740 0.414273
O O14 0.120332 0.576389 0.371450
O O15 0.000000 0.595190 0.359754
O O16 0.500000 0.786961 0.620074
#
# Coordination Sequence:
#
# PCOD8319494 Si02
#       6
#    32  32  32  32  32  32
#     4  11  23  36  51  72  99 130 162 198 239 286
#     4   9  18  33  52  73  96 121 155 201 248 284
#     4   9  18  32  49  70  95 121 152 192 239 290
#     4   9  17  31  52  73  92 119 160 208 250 280
#     4   9  17  29  45  67  99 135 163 189 226 276
#     4  10  19  30  47  70  96 126 157 192 231 272
#
# _framework density 17.586516
#
# number of rings (size 3 to 8) (size 9 to 14) (size 15 to 20)
#    0.000    2.500    0.000    4.500    0.000    4.167 
#    0.000    0.000    0.000    3.000    0.000    5.833 
#    0.000    0.333    0.000    1.833    0.000    0.000 
#
# Total GULP energy -1189830.048225 kJ/mol
# GULP energy per Si atom -12394.063002 kJ/mol
# Density = 1.754649 g / cm^3
# Si number density = 17.586516 Si / 1000 Ang^3
#
#
#
# Elastic Constant Matrix: (Units=GPa)
#
#
# Indices 1 2 3 4 5 6 
#
# 1 78.5332 41.4175 41.1594 0.0000 0.0000 0.0000
# 2 41.4175 78.5332 41.1594 0.0000 0.0000 0.0000
# 3 41.1594 41.1594 72.9341 0.0000 0.0000 0.0000
# 4 0.0000 0.0000 0.0000 8.7720 0.0000 0.0000
# 5 0.0000 0.0000 0.0000 0.0000 8.7720 0.0000
# 6 0.0000 0.0000 0.0000 0.0000 0.0000 11.3251
#
#
#
# Elastic Compliance Matrix: (Units=1/GPa)
#
#
# Indices 1 2 3 4 5 6 
#
# 1 0.020275 -0.006668 -0.007679 0.000000 0.000000 0.000000
# 2 -0.006668 0.020275 -0.007679 0.000000 0.000000 0.000000
# 3 -0.007679 -0.007679 0.022378 0.000000 0.000000 0.000000
# 4 0.000000 0.000000 0.000000 0.114000 0.000000 0.000000
# 5 0.000000 0.000000 0.000000 0.000000 0.113999 0.000000
# 6 0.000000 0.000000 0.000000 0.000000 0.000000 0.088299
#
#
# Mechanical properties :
#
#
# Convention : Reuss Voigt Hill
#
# Bulk Modulus (GPa) = 52.97720 53.05255 53.01488
# Shear Modulus (GPa) = 11.63961 12.85810 12.24885
#
# Velocity S-wave (km/s) = 2.57543 2.70688 2.64198
# Velocity P-wave (km/s) = 6.24764 6.32469 6.28628
#
# Compressibility (1/GPa) = 0.01887604
#
# Stress axis : x y z
#
# Youngs Moduli (GPa) = 49.32290 49.32290 44.68764
#
# Poissons Ratio (x) = 0.32890 0.34314
# Poissons Ratio (y) = 0.32890 0.34314
# Poissons Ratio (z) = 0.37873 0.37873
#
# Static dielectric constant tensor:
#      x y z
#    x 3.099840 0.000000 0.000000 
#    y 0.000000 3.099840 0.000000 
#    z 0.000000 0.000000 3.386370 
# 
# 
# High freq. dielectric constant tensor:
#      x y z
#    x 1.654400 0.000000 0.000000 
#    y 0.000000 1.654400 0.000000 
#    z 0.000000 0.000000 1.686540 
# 
# From -- ./inp_files/11922.got.cif
#   From: 2010.03.12/outbox.cif.g09.slc.cpg/sg139_6_cif.got.tgz:11922.got - 2010.04.08 09:46:31.
