data_PCOD8319297
_publ_section_title
;
Structure prediction by ZEFSAII (Michael W. Deem and Ramdas Pophale) SiO2 
 PCOD8319297
Probable space group: I 4/M M M
;
_chemical_formula_sum "Si O2"
_cell_formula_units_Z 160
_cell_length_a 19.835321
_cell_length_b 19.835321
_cell_length_c 27.726691
_cell_angle_alpha 90.000000
_cell_angle_beta 90.000000
_cell_angle_gamma 90.000000
_cell_volume 10908.788175
_symmetry_space_group_name_H-M "I 4/M M M"
_symmetry_group_IT_number 139
_symmetry_cell_setting 'tetragonal'
loop_
_space_group_symop_operation_xyz
x,y,z
-y,x,z
-x,-y,z
y,-x,z
x,-y,-z
-x,y,-z
y,x,-z
-y,-x,-z
-x,-y,-z
y,-x,-z
x,y,-z
-y,x,-z
-x,y,z
x,-y,z
-y,-x,z
y,x,z
1/2+x,1/2+y,1/2+z
1/2-y,1/2+x,1/2+z
1/2-x,1/2-y,1/2+z
1/2+y,1/2-x,1/2+z
1/2+x,1/2-y,1/2-z
1/2-x,1/2+y,1/2-z
1/2+y,1/2+x,1/2-z
1/2-y,1/2-x,1/2-z
1/2-x,1/2-y,1/2-z
1/2+y,1/2-x,1/2-z
1/2+x,1/2+y,1/2-z
1/2-y,1/2+x,1/2-z
1/2-x,1/2+y,1/2+z
1/2+x,1/2-y,1/2+z
1/2-y,1/2-x,1/2+z
1/2+y,1/2+x,1/2+z
loop_
_atom_site_type_symbol
_atom_site_label
_atom_site_fract_x
_atom_site_fract_y
_atom_site_fract_z
Si Si1 0.171928 0.721419 0.850884
Si Si2 0.382362 0.721460 0.809034
Si Si3 0.924004 0.317844 0.769966
Si Si4 0.575291 0.685439 0.910763
Si Si5 0.788141 0.674924 0.053140
O O1 0.201950 0.798051 0.849723
O O2 0.227535 0.673132 0.828628
O O3 0.104202 0.713670 0.819768
O O4 0.157290 0.696237 0.906004
O O5 0.342558 0.657443 0.786328
O O6 0.426839 0.757104 0.768422
O O7 0.428157 0.696632 0.853174
O O8 0.880109 0.380109 0.750000
O O9 0.000000 0.343632 0.778981
O O10 0.500000 0.671907 0.929886
O O11 0.621178 0.621178 0.924214
O O12 0.602943 0.753436 0.936114
O O13 0.729111 0.729111 0.056137
O O14 0.822290 0.673651 0.000000
#
# Coordination Sequence:
#
# PCOD8319297 Si02
#       5
#    32  32  32  32  32
#     4   8  14  25  41  59  75  91 117 156 195 223
#     4   8  14  25  40  56  73  94 122 157 191 216
#     4  10  18  26  38  56  79 105 129 153 184 225
#     4   9  16  24  34  50  73  99 125 152 182 219
#     4   8  14  25  40  55  69  88 118 156 195 230
#
# _framework density 14.667073
#
# number of rings (size 3 to 8) (size 9 to 14) (size 15 to 20)
#    0.000    3.400    0.000    3.600    0.000    3.200 
#    0.000    0.000    0.000    0.600    0.000    2.800 
#    0.000    3.600    0.000   14.600    0.000    0.400 
#
# Total GULP energy -991166.934976 kJ/mol
# GULP energy per Si atom -12389.586687 kJ/mol
# Density = 1.463369 g / cm^3
# Si number density = 14.667073 Si / 1000 Ang^3
#
#
#
# Elastic Constant Matrix: (Units=GPa)
#
#
# Indices 1 2 3 4 5 6 
#
# 1 42.5821 20.0038 26.0953 0.0000 0.0000 0.0000
# 2 20.0038 42.5821 26.0953 0.0000 0.0000 0.0000
# 3 26.0953 26.0953 100.6990 0.0000 0.0000 0.0000
# 4 0.0000 0.0000 0.0000 9.8054 0.0000 0.0000
# 5 0.0000 0.0000 0.0000 0.0000 9.8054 0.0000
# 6 0.0000 0.0000 0.0000 0.0000 0.0000 8.2027
#
#
#
# Elastic Compliance Matrix: (Units=1/GPa)
#
#
# Indices 1 2 3 4 5 6 
#
# 1 0.032337 -0.011954 -0.005282 0.000000 0.000000 0.000000
# 2 -0.011954 0.032337 -0.005282 0.000000 0.000000 0.000000
# 3 -0.005282 -0.005282 0.012668 0.000000 0.000000 0.000000
# 4 0.000000 0.000000 0.000000 0.101985 0.000000 0.000000
# 5 0.000000 0.000000 0.000000 0.000000 0.101985 0.000000
# 6 0.000000 0.000000 0.000000 0.000000 0.000000 0.121911
#
#
# Mechanical properties :
#
#
# Convention : Reuss Voigt Hill
#
# Bulk Modulus (GPa) = 30.95439 36.69464 33.82452
# Shear Modulus (GPa) = 10.89262 13.14061 12.01662
#
# Velocity S-wave (km/s) = 2.72813 2.99645 2.86543
# Velocity P-wave (km/s) = 5.57442 6.08640 5.83603
#
# Compressibility (1/GPa) = 0.03230559
#
# Stress axis : x y z
#
# Youngs Moduli (GPa) = 30.92477 30.92477 78.93809
#
# Poissons Ratio (x) = 0.36967 0.41695
# Poissons Ratio (y) = 0.36967 0.41695
# Poissons Ratio (z) = 0.16334 0.16334
#
# Static dielectric constant tensor:
#      x y z
#    x 2.595780 0.000000 0.000000 
#    y 0.000000 2.595780 0.000000 
#    z 0.000000 0.000000 3.231440 
# 
# 
# High freq. dielectric constant tensor:
#      x y z
#    x 1.525830 0.000000 0.000000 
#    y 0.000000 1.525830 0.000000 
#    z 0.000000 0.000000 1.563640 
# 
# From -- ./inp_files/14073.got.cif
#   From: 2010.03.12/outbox.cif.g09.slc.cpg/sg139_8_cif.got.tgz:14073.got - 2010.04.08 09:46:31.
