data_PCOD8319400
_publ_section_title
;
Structure prediction by ZEFSAII (Michael W. Deem and Ramdas Pophale) SiO2 
 PCOD8319400
Probable space group: I 4/M M M
;
_chemical_formula_sum "Si O2"
_cell_formula_units_Z 224
_cell_length_a 22.333273
_cell_length_b 22.333273
_cell_length_c 27.956169
_cell_angle_alpha 90.000000
_cell_angle_beta 90.000000
_cell_angle_gamma 90.000000
_cell_volume 13943.840510
_symmetry_space_group_name_H-M "I 4/M M M"
_symmetry_group_IT_number 139
_symmetry_cell_setting 'tetragonal'
loop_
_space_group_symop_operation_xyz
x,y,z
-y,x,z
-x,-y,z
y,-x,z
x,-y,-z
-x,y,-z
y,x,-z
-y,-x,-z
-x,-y,-z
y,-x,-z
x,y,-z
-y,x,-z
-x,y,z
x,-y,z
-y,-x,z
y,x,z
1/2+x,1/2+y,1/2+z
1/2-y,1/2+x,1/2+z
1/2-x,1/2-y,1/2+z
1/2+y,1/2-x,1/2+z
1/2+x,1/2-y,1/2-z
1/2-x,1/2+y,1/2-z
1/2+y,1/2+x,1/2-z
1/2-y,1/2-x,1/2-z
1/2-x,1/2-y,1/2-z
1/2+y,1/2-x,1/2-z
1/2+x,1/2+y,1/2-z
1/2-y,1/2+x,1/2-z
1/2-x,1/2+y,1/2+z
1/2+x,1/2-y,1/2+z
1/2-y,1/2-x,1/2+z
1/2+y,1/2+x,1/2+z
loop_
_atom_site_type_symbol
_atom_site_label
_atom_site_fract_x
_atom_site_fract_y
_atom_site_fract_z
Si Si1 0.269135 0.565845 0.780621
Si Si2 0.346913 0.841008 0.369831
Si Si3 0.931905 0.625082 0.944259
Si Si4 0.835087 0.739013 0.215949
Si Si5 0.565959 0.871017 0.793909
Si Si6 0.500000 0.741562 0.057568
Si Si7 0.114623 0.785717 0.616624
Si Si8 0.376975 0.000000 0.444214
O O1 0.296447 0.500000 0.769099
O O2 0.282134 0.613939 0.738621
O O3 0.198223 0.561484 0.781019
O O4 0.296657 0.588969 0.830296
O O5 0.387374 0.829667 0.416733
O O6 0.353839 0.783254 0.336235
O O7 0.377620 0.896332 0.342237
O O8 0.278497 0.852560 0.385387
O O9 0.914453 0.557799 0.929123
O O10 0.000000 0.637301 0.929035
O O11 0.922344 0.636373 0.000000
O O12 0.774670 0.774670 0.208430
O O13 0.818653 0.681348 0.250000
O O14 0.500000 0.896549 0.804992
O O15 0.592564 0.907436 0.750000
O O16 0.439932 0.710696 0.078583
O O17 0.500000 0.809872 0.077898
O O18 0.500000 0.735685 0.000000
O O19 0.162433 0.837568 0.604008
O O20 0.365629 0.000000 0.500000
#
# Coordination Sequence:
#
# PCOD8319400 Si02
#       8
#    32  32  32  32  32  16  32  16
#     4  10  18  31  50  72  98 127 160 199 245 301
#     4  11  20  32  50  74  99 132 170 219 252 296
#     4  10  21  34  49  69  97 135 175 213 252 291
#     4  11  19  31  50  75 102 131 165 203 247 294
#     4  10  19  30  42  60  94 132 164 199 243 288
#     4  11  22  37  56  78 102 129 167 225 278 314
#     4  11  21  34  54  77 100 131 169 210 267 324
#     4   9  17  32  51  68  93 126 170 219 255 287
#
# _framework density 16.064442
#
# number of rings (size 3 to 8) (size 9 to 14) (size 15 to 20)
#    0.000    1.571    6.429    1.071    2.000    2.429 
#    0.000    0.000    0.000    1.500    0.000    0.500 
#    0.000    0.000    0.000    0.000    0.000    0.000 
#
# Total GULP energy -1388303.373658 kJ/mol
# GULP energy per Si atom -12395.565836 kJ/mol
# Density = 1.602788 g / cm^3
# Si number density = 16.064442 Si / 1000 Ang^3
#
#
#
# Elastic Constant Matrix: (Units=GPa)
#
#
# Indices 1 2 3 4 5 6 
#
# 1 64.6429 43.2948 42.6282 0.0000 0.0000 0.0000
# 2 43.2948 64.6459 42.6256 0.0000 0.0000 0.0000
# 3 42.6282 42.6256 79.9365 0.0000 0.0000 0.0000
# 4 0.0000 0.0000 0.0000 14.9166 0.0000 0.0000
# 5 0.0000 0.0000 0.0000 0.0000 14.9185 0.0000
# 6 0.0000 0.0000 0.0000 0.0000 0.0000 18.8251
#
#
#
# Elastic Compliance Matrix: (Units=1/GPa)
#
#
# Indices 1 2 3 4 5 6 
#
# 1 0.031425 -0.015417 -0.008537 0.000000 0.000000 0.000000
# 2 -0.015417 0.031420 -0.008533 0.000000 0.000000 0.000000
# 3 -0.008537 -0.008533 0.021613 0.000000 0.000000 0.000000
# 4 0.000000 0.000000 0.000000 0.067039 0.000000 0.000000
# 5 0.000000 0.000000 0.000000 0.000000 0.067031 0.000000
# 6 0.000000 0.000000 0.000000 0.000000 0.000000 0.053121
#
#
# Mechanical properties :
#
#
# Convention : Reuss Voigt Hill
#
# Bulk Modulus (GPa) = 51.32517 51.81360 51.56939
# Shear Modulus (GPa) = 14.57225 15.11050 14.84138
#
# Velocity S-wave (km/s) = 3.01510 3.07028 3.04281
# Velocity P-wave (km/s) = 6.64379 6.70018 6.67205
#
# Compressibility (1/GPa) = 0.01948362
#
# Stress axis : x y z
#
# Youngs Moduli (GPa) = 31.82207 31.82646 46.26845
#
# Poissons Ratio (x) = 0.49066 0.39500
# Poissons Ratio (y) = 0.49059 0.39483
# Poissons Ratio (z) = 0.27167 0.27159
#
# Static dielectric constant tensor:
#      x y z
#    x 2.857730 0.000000 0.000000 
#    y 0.000000 2.857770 0.000000 
#    z 0.000000 0.000000 3.076510 
# 
# 
# High freq. dielectric constant tensor:
#      x y z
#    x 1.594000 0.000000 0.000000 
#    y 0.000000 1.594000 0.000000 
#    z 0.000000 0.000000 1.614690 
# 
# From -- ./inp_files/12269.got.cif
#   From: 2010.03.12/outbox.cif.g09.slc.cpg/sg139_7_cif.got.tgz:12269.got - 2010.04.08 09:46:31.
