data_PCOD8319654
_publ_section_title
;
Structure prediction by ZEFSAII (Michael W. Deem and Ramdas Pophale) SiO2 
 PCOD8319654
Probable space group: I 4/M M M
;
_chemical_formula_sum "Si O2"
_cell_formula_units_Z 176
_cell_length_a 19.080344
_cell_length_b 19.080344
_cell_length_c 25.775214
_cell_angle_alpha 90.000000
_cell_angle_beta 90.000000
_cell_angle_gamma 90.000000
_cell_volume 9383.712221
_symmetry_space_group_name_H-M "I 4/M M M"
_symmetry_group_IT_number 139
_symmetry_cell_setting 'tetragonal'
loop_
_space_group_symop_operation_xyz
x,y,z
-y,x,z
-x,-y,z
y,-x,z
x,-y,-z
-x,y,-z
y,x,-z
-y,-x,-z
-x,-y,-z
y,-x,-z
x,y,-z
-y,x,-z
-x,y,z
x,-y,z
-y,-x,z
y,x,z
1/2+x,1/2+y,1/2+z
1/2-y,1/2+x,1/2+z
1/2-x,1/2-y,1/2+z
1/2+y,1/2-x,1/2+z
1/2+x,1/2-y,1/2-z
1/2-x,1/2+y,1/2-z
1/2+y,1/2+x,1/2-z
1/2-y,1/2-x,1/2-z
1/2-x,1/2-y,1/2-z
1/2+y,1/2-x,1/2-z
1/2+x,1/2+y,1/2-z
1/2-y,1/2+x,1/2-z
1/2-x,1/2+y,1/2+z
1/2+x,1/2-y,1/2+z
1/2-y,1/2-x,1/2+z
1/2+y,1/2+x,1/2+z
loop_
_atom_site_type_symbol
_atom_site_label
_atom_site_fract_x
_atom_site_fract_y
_atom_site_fract_z
Si Si1 0.803799 0.920531 0.146564
Si Si2 0.699155 0.078990 0.645002
Si Si3 0.305726 0.419546 0.941488
Si Si4 0.135270 0.751935 0.746372
Si Si5 0.082706 0.420551 0.000000
Si Si6 0.659169 0.080421 0.103062
O O1 0.867414 0.867414 0.135698
O O2 0.765339 0.907515 0.201150
O O3 0.743793 0.910502 0.102470
O O4 0.833311 0.000000 0.145317
O O5 0.748209 0.108586 0.598917
O O6 0.739513 0.081357 0.699617
O O7 0.629215 0.126291 0.647828
O O8 0.676448 0.000000 0.632843
O O9 0.324354 0.500000 0.929469
O O10 0.377022 0.377022 0.933901
O O11 0.275892 0.410322 0.000000
O O12 0.179416 0.820584 0.732445
O O13 0.185362 0.685362 0.750000
O O14 0.106923 0.375784 0.950381
O O15 0.115357 0.500000 0.000000
O O16 0.000000 0.427518 0.000000
O O17 0.639522 0.000000 0.115237
#
# Coordination Sequence:
#
# PCOD8319654 Si02
#       6
#    32  32  32  32  16  32
#     4  10  21  38  60  84 112 145 186 238 290 343
#     4  11  21  32  52  78 108 141 179 226 273 324
#     4   9  19  34  51  75 106 139 177 220 266 317
#     4  10  19  34  55  77 104 141 186 228 274 335
#     4   9  18  34  55  78 107 145 185 222 263 316
#     4  10  21  36  55  79 108 145 186 223 268 330
#
# _framework density 18.755904000000001
#
# number of rings (size 3 to 8) (size 9 to 14) (size 15 to 20)
#    0.000    2.091    1.818    1.636    1.273    2.182 
#    0.000    1.364    0.000    0.000    0.000    2.545 
#    0.000    3.636    0.000    0.000    0.000    0.000 
#
# Total GULP energy -1091070.496581 kJ/mol
# GULP energy per Si atom -12398.528370 kJ/mol
# Density = 1.871321 g / cm^3
# Si number density = 18.755904 Si / 1000 Ang^3
#
#
#
# Elastic Constant Matrix: (Units=GPa)
#
#
# Indices 1 2 3 4 5 6 
#
# 1 96.4356 50.7280 37.5991 0.0000 0.0000 0.0000
# 2 50.7280 96.4356 37.5991 0.0000 0.0000 0.0000
# 3 37.5991 37.5991 79.7430 0.0000 0.0000 0.0000
# 4 0.0000 0.0000 0.0000 27.1592 0.0000 0.0000
# 5 0.0000 0.0000 0.0000 0.0000 27.1592 0.0000
# 6 0.0000 0.0000 0.0000 0.0000 0.0000 30.7241
#
#
#
# Elastic Compliance Matrix: (Units=1/GPa)
#
#
# Indices 1 2 3 4 5 6 
#
# 1 0.015415 -0.006463 -0.004221 0.000000 0.000000 0.000000
# 2 -0.006463 0.015415 -0.004221 0.000000 0.000000 0.000000
# 3 -0.004221 -0.004221 0.016521 0.000000 0.000000 0.000000
# 4 0.000000 0.000000 0.000000 0.036820 0.000000 0.000000
# 5 0.000000 0.000000 0.000000 0.000000 0.036820 0.000000
# 6 0.000000 0.000000 0.000000 0.000000 0.000000 0.032548
#
#
# Mechanical properties :
#
#
# Convention : Reuss Voigt Hill
#
# Bulk Modulus (GPa) = 57.00927 58.27406 57.64167
# Shear Modulus (GPa) = 26.42772 26.78768 26.60770
#
# Velocity S-wave (km/s) = 3.75778 3.78329 3.77056
# Velocity P-wave (km/s) = 7.02063 7.08671 7.05375
#
# Compressibility (1/GPa) = 0.01754101
#
# Stress axis : x y z
#
# Youngs Moduli (GPa) = 64.87154 64.87154 60.53052
#
# Poissons Ratio (x) = 0.41927 0.25549
# Poissons Ratio (y) = 0.41927 0.25549
# Poissons Ratio (z) = 0.27381 0.27381
#
# Static dielectric constant tensor:
#      x y z
#    x 3.354700 0.000000 0.000000 
#    y 0.000000 3.354700 0.000000 
#    z 0.000000 0.000000 3.463650 
# 
# 
# High freq. dielectric constant tensor:
#      x y z
#    x 1.724620 0.000000 0.000000 
#    y 0.000000 1.724620 0.000000 
#    z 0.000000 0.000000 1.721880 
# 
# From -- ./inp_files/13136.got.cif
#   From: 2010.03.12/outbox.cif.g09.slc.cpg/sg139_7_cif.got.tgz:13136.got - 2010.04.08 09:46:31.
