data_PCOD8319444
_publ_section_title
;
Structure prediction by ZEFSAII (Michael W. Deem and Ramdas Pophale) SiO2 
 PCOD8319444
Probable space group: I 4/M M M
;
_chemical_formula_sum "Si O2"
_cell_formula_units_Z 208
_cell_length_a 20.343951
_cell_length_b 20.343951
_cell_length_c 32.238827
_cell_angle_alpha 90.000000
_cell_angle_beta 90.000000
_cell_angle_gamma 90.000000
_cell_volume 13342.887798
_symmetry_space_group_name_H-M "I 4/M M M"
_symmetry_group_IT_number 139
_symmetry_cell_setting 'tetragonal'
loop_
_space_group_symop_operation_xyz
x,y,z
-y,x,z
-x,-y,z
y,-x,z
x,-y,-z
-x,y,-z
y,x,-z
-y,-x,-z
-x,-y,-z
y,-x,-z
x,y,-z
-y,x,-z
-x,y,z
x,-y,z
-y,-x,z
y,x,z
1/2+x,1/2+y,1/2+z
1/2-y,1/2+x,1/2+z
1/2-x,1/2-y,1/2+z
1/2+y,1/2-x,1/2+z
1/2+x,1/2-y,1/2-z
1/2-x,1/2+y,1/2-z
1/2+y,1/2+x,1/2-z
1/2-y,1/2-x,1/2-z
1/2-x,1/2-y,1/2-z
1/2+y,1/2-x,1/2-z
1/2+x,1/2+y,1/2-z
1/2-y,1/2+x,1/2-z
1/2-x,1/2+y,1/2+z
1/2+x,1/2-y,1/2+z
1/2-y,1/2-x,1/2+z
1/2+y,1/2+x,1/2+z
loop_
_atom_site_type_symbol
_atom_site_label
_atom_site_fract_x
_atom_site_fract_y
_atom_site_fract_z
Si Si1 0.655608 0.237499 0.334757
Si Si2 0.074245 0.184274 0.000000
Si Si3 0.251153 0.141525 0.072737
Si Si4 0.365336 0.261785 0.186084
Si Si5 0.076804 0.316435 0.759300
Si Si6 0.680307 0.574328 0.107068
Si Si7 0.260009 0.149740 0.546569
O O1 0.695808 0.304193 0.323427
O O2 0.618787 0.245613 0.379129
O O3 0.706140 0.176678 0.337721
O O4 0.600997 0.221095 0.300499
O O5 0.084225 0.228452 0.958559
O O6 0.121124 0.121124 0.000000
O O7 0.000000 0.158337 0.000000
O O8 0.200397 0.200397 0.067986
O O9 0.322412 0.168228 0.058637
O O10 0.314460 0.314460 0.205827
O O11 0.411244 0.233251 0.221726
O O12 0.412897 0.296935 0.153832
O O13 0.116441 0.383560 0.750000
O O14 0.000000 0.333647 0.763457
O O15 0.658206 0.500000 0.102022
O O16 0.617445 0.617445 0.095021
O O17 0.740906 0.589598 0.076344
O O18 0.261602 0.122680 0.500000
O O19 0.207224 0.207224 0.552455
#
# Coordination Sequence:
#
# PCOD8319444 Si02
#       7
#    32  16  32  32  32  32  32
#     4   9  16  28  48  71  91 111 139 188 245 277
#     4  10  20  31  46  70  99 131 158 182 218 266
#     4   9  15  27  47  69  91 113 145 190 233 267
#     4   9  16  29  48  68  88 111 146 191 235 271
#     4  10  20  31  44  64  91 122 152 182 219 271
#     4  10  19  29  43  64  91 123 154 184 221 269
#     4   9  15  26  45  65  86 112 143 185 232 268
#
# _framework density 15.588827999999999
#
# number of rings (size 3 to 8) (size 9 to 14) (size 15 to 20)
#    0.000    2.615    2.308    0.923    0.000    3.154 
#    0.000    0.000    0.000    0.000    0.000    2.154 
#    0.000    4.000    0.000    0.615    0.000    0.000 
#
# Total GULP energy -1289144.481394 kJ/mol
# GULP energy per Si atom -12395.620013 kJ/mol
# Density = 1.555335 g / cm^3
# Si number density = 15.588828 Si / 1000 Ang^3
#
#
#
# Elastic Constant Matrix: (Units=GPa)
#
#
# Indices 1 2 3 4 5 6 
#
# 1 79.6286 33.9088 40.3760 0.0000 0.0000 0.0000
# 2 33.9088 79.6286 40.3759 0.0000 0.0000 0.0000
# 3 40.3760 40.3759 99.5431 0.0000 0.0000 0.0000
# 4 0.0000 0.0000 0.0000 14.9759 0.0000 0.0000
# 5 0.0000 0.0000 0.0000 0.0000 14.9761 0.0000
# 6 0.0000 0.0000 0.0000 0.0000 0.0000 11.2998
#
#
#
# Elastic Compliance Matrix: (Units=1/GPa)
#
#
# Indices 1 2 3 4 5 6 
#
# 1 0.017126 -0.004747 -0.005021 0.000000 0.000000 0.000000
# 2 -0.004747 0.017126 -0.005021 0.000000 0.000000 0.000000
# 3 -0.005021 -0.005021 0.014119 0.000000 0.000000 0.000000
# 4 0.000000 0.000000 0.000000 0.066774 0.000000 0.000000
# 5 0.000000 0.000000 0.000000 0.000000 0.066773 0.000000
# 6 0.000000 0.000000 0.000000 0.000000 0.000000 0.088497
#
#
# Mechanical properties :
#
#
# Convention : Reuss Voigt Hill
#
# Bulk Modulus (GPa) = 53.21231 54.23576 53.72403
# Shear Modulus (GPa) = 16.32620 17.85966 17.09293
#
# Velocity S-wave (km/s) = 3.23971 3.38845 3.31491
# Velocity P-wave (km/s) = 6.94286 7.08348 7.01352
#
# Compressibility (1/GPa) = 0.01879264
#
# Stress axis : x y z
#
# Youngs Moduli (GPa) = 58.39220 58.39224 70.82623
#
# Poissons Ratio (x) = 0.27718 0.35562
# Poissons Ratio (y) = 0.27718 0.35562
# Poissons Ratio (z) = 0.29319 0.29319
#
# Static dielectric constant tensor:
#      x y z
#    x 2.721930 0.000000 0.000000 
#    y 0.000000 2.721930 0.000000 
#    z 0.000000 0.000000 3.138990 
# 
# 
# High freq. dielectric constant tensor:
#      x y z
#    x 1.568910 0.000000 0.000000 
#    y 0.000000 1.568910 0.000000 
#    z 0.000000 0.000000 1.613530 
# 
# From -- ./inp_files/14532.got.cif
#   From: 2010.03.12/outbox.cif.g09.slc.cpg/sg139_8_cif.got.tgz:14532.got - 2010.04.08 09:46:31.
