data_PCOD8319078
_publ_section_title
;
Structure prediction by ZEFSAII (Michael W. Deem and Ramdas Pophale) SiO2 
 PCOD8319078
Probable space group: P 42/N C M
;
_chemical_formula_sum "Si O2"
_cell_formula_units_Z 64
_cell_length_a 12.014957
_cell_length_b 12.014957
_cell_length_c 23.652749
_cell_angle_alpha 90.000000
_cell_angle_beta 90.000000
_cell_angle_gamma 90.000000
_cell_volume 3414.491727
_symmetry_space_group_name_H-M "P 42/N C M"
_symmetry_group_IT_number 138
_space_group.IT_coordinate_system_code '2'
_symmetry_cell_setting 'tetragonal'
loop_
_space_group_symop_operation_xyz
x,y,z
1/2-y,x,1/2+z
1/2-x,1/2-y,z
y,1/2-x,1/2+z
1/2+x,-y,1/2-z
-x,1/2+y,1/2-z
1/2+y,1/2+x,-z
-y,-x,-z
-x,-y,-z
1/2+y,-x,1/2-z
1/2+x,1/2+y,-z
-y,1/2+x,1/2-z
1/2-x,y,1/2+z
x,1/2-y,1/2+z
1/2-y,1/2-x,z
y,x,z
loop_
_atom_site_type_symbol
_atom_site_label
_atom_site_fract_x
_atom_site_fract_y
_atom_site_fract_z
Si Si1 0.251363 0.070036 0.247756
Si Si2 0.380138 0.734981 0.163961
Si Si3 0.324349 0.998422 0.628798
Si Si4 0.143487 0.671342 0.939036
O O1 0.367982 0.132019 0.260408
O O2 0.149098 0.149098 0.264369
O O3 0.237862 0.957183 0.283012
O O4 0.247588 0.039949 0.181908
O O5 0.250000 0.750000 0.180651
O O6 0.399945 0.607558 0.145669
O O7 0.412021 0.820039 0.112076
O O8 0.239875 0.966492 0.578526
O O9 0.404722 0.095279 0.606151
O O10 0.250000 0.750000 0.945761
O O11 0.115583 0.615583 0.000000
#
# Coordination Sequence:
#
# PCOD8319078 Si02
#       4
#    16  16  16  16
#     4  10  21  35  51  75 108 142 174 213 267 320
#     4   9  19  31  51  76 105 135 175 216 264 312
#     4   9  18  30  49  75 101 134 176 219 266 317
#     4   8  16  32  50  72 103 134 171 219 267 311
#
# _framework density 18.743638000000001
#
# number of rings (size 3 to 8) (size 9 to 14) (size 15 to 20)
#    0.000    3.500    0.000    0.750    7.000    1.000 
#    0.000   11.250    0.000    3.000    0.000    3.500 
#    0.000    0.000    0.000    0.000    0.000    0.000 
#
# Total GULP energy -792967.244870 kJ/mol
# GULP energy per Si atom -12390.113201 kJ/mol
# Density = 1.870098 g / cm^3
# Si number density = 18.743638 Si / 1000 Ang^3
#
#
#
# Elastic Constant Matrix: (Units=GPa)
#
#
# Indices 1 2 3 4 5 6 
#
# 1 78.9908 38.7348 61.0057 0.0000 0.0000 0.0000
# 2 38.7348 78.9908 61.0057 0.0000 0.0000 0.0000
# 3 61.0057 61.0057 118.3046 0.0000 0.0000 0.0000
# 4 0.0000 0.0000 0.0000 8.8528 0.0000 0.0000
# 5 0.0000 0.0000 0.0000 0.0000 8.8528 0.0000
# 6 0.0000 0.0000 0.0000 0.0000 0.0000 20.0211
#
#
#
# Elastic Compliance Matrix: (Units=1/GPa)
#
#
# Indices 1 2 3 4 5 6 
#
# 1 0.021543 -0.003298 -0.009409 0.000000 0.000000 0.000000
# 2 -0.003298 0.021543 -0.009409 0.000000 0.000000 0.000000
# 3 -0.009409 -0.009409 0.018156 0.000000 0.000000 0.000000
# 4 0.000000 0.000000 0.000000 0.112958 0.000000 0.000000
# 5 0.000000 0.000000 0.000000 0.000000 0.112958 0.000000
# 6 0.000000 0.000000 0.000000 0.000000 0.000000 0.049947
#
#
# Mechanical properties :
#
#
# Convention : Reuss Voigt Hill
#
# Bulk Modulus (GPa) = 58.77951 66.41984 62.59967
# Shear Modulus (GPa) = 12.91967 15.24802 14.08385
#
# Velocity S-wave (km/s) = 2.62827 2.85529 2.74413
# Velocity P-wave (km/s) = 6.37481 6.81052 6.59626
#
# Compressibility (1/GPa) = 0.01701273
#
# Stress axis : x y z
#
# Youngs Moduli (GPa) = 46.41833 46.41833 55.07798
#
# Poissons Ratio (x) = 0.15308 0.51820
# Poissons Ratio (y) = 0.15308 0.51820
# Poissons Ratio (z) = 0.43673 0.43673
#
# Static dielectric constant tensor:
#      x y z
#    x 3.351850 0.000000 0.000000 
#    y 0.000000 3.351850 0.000000 
#    z 0.000000 0.000000 4.015770 
# 
# 
# High freq. dielectric constant tensor:
#      x y z
#    x 1.708110 0.000000 0.000000 
#    y 0.000000 1.708110 0.000000 
#    z 0.000000 0.000000 1.724080 
# 
# From -- ./inp_files/7323.got.cif
#   From: 2010.03.12/outbox.cif.g09.slc.cpg/sg138_4_cif.got.tgz:7323.got - 2010.04.08 09:41:05.
