data_PCOD8319856
_publ_section_title
;
Structure prediction by ZEFSAII (Michael W. Deem and Ramdas Pophale) SiO2 
 PCOD8319856
Probable space group: I 4/M M M
;
_chemical_formula_sum "Si O2"
_cell_formula_units_Z 160
_cell_length_a 20.468415
_cell_length_b 20.468415
_cell_length_c 19.985014
_cell_angle_alpha 90.000000
_cell_angle_beta 90.000000
_cell_angle_gamma 90.000000
_cell_volume 8372.841777
_symmetry_space_group_name_H-M "I 4/M M M"
_symmetry_group_IT_number 139
_symmetry_cell_setting 'tetragonal'
loop_
_space_group_symop_operation_xyz
x,y,z
-y,x,z
-x,-y,z
y,-x,z
x,-y,-z
-x,y,-z
y,x,-z
-y,-x,-z
-x,-y,-z
y,-x,-z
x,y,-z
-y,x,-z
-x,y,z
x,-y,z
-y,-x,z
y,x,z
1/2+x,1/2+y,1/2+z
1/2-y,1/2+x,1/2+z
1/2-x,1/2-y,1/2+z
1/2+y,1/2-x,1/2+z
1/2+x,1/2-y,1/2-z
1/2-x,1/2+y,1/2-z
1/2+y,1/2+x,1/2-z
1/2-y,1/2-x,1/2-z
1/2-x,1/2-y,1/2-z
1/2+y,1/2-x,1/2-z
1/2+x,1/2+y,1/2-z
1/2-y,1/2+x,1/2-z
1/2-x,1/2+y,1/2+z
1/2+x,1/2-y,1/2+z
1/2-y,1/2-x,1/2+z
1/2+y,1/2+x,1/2+z
loop_
_atom_site_type_symbol
_atom_site_label
_atom_site_fract_x
_atom_site_fract_y
_atom_site_fract_z
Si Si1 0.576225 0.318590 0.228252
Si Si2 0.576021 0.896095 0.674415
Si Si3 0.732562 0.164576 0.500000
Si Si4 0.747437 0.074471 0.144485
Si Si5 0.623594 0.273792 0.500000
Si Si6 0.429092 0.209083 0.878984
O O1 0.500000 0.340240 0.224817
O O2 0.621151 0.378849 0.202488
O O3 0.600547 0.302389 0.304221
O O4 0.588700 0.252231 0.186208
O O5 0.500000 0.906449 0.649273
O O6 0.580068 0.919933 0.750000
O O7 0.603946 0.823079 0.662353
O O8 0.631030 0.936359 0.634529
O O9 0.804415 0.195586 0.500000
O O10 0.678832 0.220053 0.500000
O O11 0.724857 0.123360 0.434074
O O12 0.738888 0.000000 0.163113
O O13 0.767035 0.081414 0.067080
O O14 0.654302 0.345699 0.500000
O O15 0.500000 0.231482 0.905539
#
# Coordination Sequence:
#
# PCOD8319856 Si02
#       6
#    32  32  16  32  16  32
#     4  10  21  38  61  86 113 146 186 237 295 352
#     4  11  21  36  57  83 116 152 194 235 275 332
#     4  11  23  38  56  80 110 146 189 235 287 338
#     4  10  20  36  56  80 114 150 186 230 283 337
#     4  11  21  34  54  79 109 143 186 233 275 328
#     4  11  22  39  58  82 115 149 189 235 286 340
#
# _framework density 19.109401999999999
#
# number of rings (size 3 to 8) (size 9 to 14) (size 15 to 20)
#    0.000    1.400    4.000    2.400    0.000    1.600 
#    0.000    1.500    0.000    1.200    0.000    0.000 
#    0.000   14.400    0.000    0.000    0.000    0.000 
#
# Total GULP energy -991204.311022 kJ/mol
# GULP energy per Si atom -12390.053888 kJ/mol
# Density = 1.906591 g / cm^3
# Si number density = 19.109402 Si / 1000 Ang^3
#
#
#
# Elastic Constant Matrix: (Units=GPa)
#
#
# Indices 1 2 3 4 5 6 
#
# 1 76.6465 48.0234 29.4022 0.0000 0.0000 0.0000
# 2 48.0234 76.6478 29.4018 0.0000 0.0000 0.0000
# 3 29.4022 29.4018 99.6148 0.0000 0.0000 0.0000
# 4 0.0000 0.0000 0.0000 29.2805 0.0000 0.0000
# 5 0.0000 0.0000 0.0000 0.0000 29.2842 0.0000
# 6 0.0000 0.0000 0.0000 0.0000 0.0000 25.1466
#
#
#
# Elastic Compliance Matrix: (Units=1/GPa)
#
#
# Indices 1 2 3 4 5 6 
#
# 1 0.022127 -0.012809 -0.002751 0.000000 0.000000 0.000000
# 2 -0.012809 0.022127 -0.002750 0.000000 0.000000 0.000000
# 3 -0.002751 -0.002750 0.011662 0.000000 0.000000 0.000000
# 4 0.000000 0.000000 0.000000 0.034152 0.000000 0.000000
# 5 0.000000 0.000000 0.000000 0.000000 0.034148 0.000000
# 6 0.000000 0.000000 0.000000 0.000000 0.000000 0.039767
#
#
# Mechanical properties :
#
#
# Convention : Reuss Voigt Hill
#
# Bulk Modulus (GPa) = 51.82011 51.84046 51.83028
# Shear Modulus (GPa) = 24.15041 26.48104 25.31572
#
# Velocity S-wave (km/s) = 3.55885 3.72662 3.64370
# Velocity P-wave (km/s) = 6.63805 6.76048 6.69954
#
# Compressibility (1/GPa) = 0.01929753
#
# Stress axis : x y z
#
# Youngs Moduli (GPa) = 45.19265 45.19365 85.74660
#
# Poissons Ratio (x) = 0.57888 0.23585
# Poissons Ratio (y) = 0.57886 0.23583
# Poissons Ratio (z) = 0.12430 0.12429
#
# Static dielectric constant tensor:
#      x y z
#    x 3.568510 0.000000 0.000000 
#    y 0.000000 3.568510 0.000000 
#    z 0.000000 0.000000 3.421230 
# 
# 
# High freq. dielectric constant tensor:
#      x y z
#    x 1.741370 0.000000 0.000000 
#    y 0.000000 1.741370 0.000000 
#    z 0.000000 0.000000 1.737530 
# 
# From -- ./inp_files/8447.got.cif
#   From: 2010.03.12/outbox.cif.g09.slc.cpg/sg139_5_cif.got.tgz:8447.got - 2010.04.08 09:46:31.
