data_PCOD8319304
_publ_section_title
;
Structure prediction by ZEFSAII (Michael W. Deem and Ramdas Pophale) SiO2 
 PCOD8319304
Probable space group: I 4/M M M
;
_chemical_formula_sum "Si O2"
_cell_formula_units_Z 208
_cell_length_a 19.501464
_cell_length_b 19.501464
_cell_length_c 32.128674
_cell_angle_alpha 90.000000
_cell_angle_beta 90.000000
_cell_angle_gamma 90.000000
_cell_volume 12218.762776
_symmetry_space_group_name_H-M "I 4/M M M"
_symmetry_group_IT_number 139
_symmetry_cell_setting 'tetragonal'
loop_
_space_group_symop_operation_xyz
x,y,z
-y,x,z
-x,-y,z
y,-x,z
x,-y,-z
-x,y,-z
y,x,-z
-y,-x,-z
-x,-y,-z
y,-x,-z
x,y,-z
-y,x,-z
-x,y,z
x,-y,z
-y,-x,z
y,x,z
1/2+x,1/2+y,1/2+z
1/2-y,1/2+x,1/2+z
1/2-x,1/2-y,1/2+z
1/2+y,1/2-x,1/2+z
1/2+x,1/2-y,1/2-z
1/2-x,1/2+y,1/2-z
1/2+y,1/2+x,1/2-z
1/2-y,1/2-x,1/2-z
1/2-x,1/2-y,1/2-z
1/2+y,1/2-x,1/2-z
1/2+x,1/2+y,1/2-z
1/2-y,1/2+x,1/2-z
1/2-x,1/2+y,1/2+z
1/2+x,1/2-y,1/2+z
1/2-y,1/2-x,1/2+z
1/2+y,1/2+x,1/2+z
loop_
_atom_site_type_symbol
_atom_site_label
_atom_site_fract_x
_atom_site_fract_y
_atom_site_fract_z
Si Si1 0.192974 0.920424 0.714139
Si Si2 0.691684 0.920270 0.128299
Si Si3 0.845833 0.263715 0.952131
Si Si4 0.930080 0.819830 0.500000
Si Si5 0.312504 0.577692 0.310495
Si Si6 0.812127 0.421850 0.152901
Si Si7 0.627076 0.263792 0.924259
O O1 0.130113 0.869888 0.700759
O O2 0.208516 0.911651 0.762778
O O3 0.265128 0.899819 0.692337
O O4 0.173109 0.000000 0.703600
O O5 0.720723 0.905037 0.081786
O O6 0.749410 0.899477 0.161175
O O7 0.625803 0.877542 0.143676
O O8 0.671685 0.000000 0.130324
O O9 0.811820 0.188181 0.945791
O O10 0.788650 0.319630 0.943762
O O11 0.873334 0.270232 0.000000
O O12 0.862185 0.862185 0.500000
O O13 0.930595 0.773984 0.540999
O O14 0.000000 0.864331 0.500000
O O15 0.333768 0.500000 0.319841
O O16 0.377537 0.622464 0.323126
O O17 0.838368 0.500000 0.157973
O O18 0.761139 0.415724 0.114585
O O19 0.666336 0.333665 0.911496
#
# Coordination Sequence:
#
# PCOD8319304 Si02
#       7
#    32  32  32  16  32  32  32
#     4   9  18  32  51  76 104 131 161 199 242 292
#     4  10  21  34  49  70  98 132 167 207 252 292
#     4   9  16  29  50  74  96 117 150 196 244 295
#     4  10  18  27  40  58  83 115 147 183 226 274
#     4   9  18  33  52  76 104 130 158 193 238 295
#     4  10  20  33  49  69  93 127 169 210 249 292
#     4   9  16  28  46  68  89 112 148 195 242 287
#
# _framework density 17.023
#
# number of rings (size 3 to 8) (size 9 to 14) (size 15 to 20)
#    0.000    2.615    0.769    1.385    0.000    3.462 
#    0.000    3.077    0.000    0.000    0.000    8.615 
#    0.000    0.000    0.000   14.308    0.000    0.154 
#
# Total GULP energy -1288568.955904 kJ/mol
# GULP energy per Si atom -12390.086114 kJ/mol
# Density = 1.698425 g / cm^3
# Si number density = 17.023000 Si / 1000 Ang^3
#
#
#
# Elastic Constant Matrix: (Units=GPa)
#
#
# Indices 1 2 3 4 5 6 
#
# 1 79.2075 43.6102 46.0047 0.0000 0.0000 0.0000
# 2 43.6102 79.2075 46.0047 0.0000 0.0000 0.0000
# 3 46.0047 46.0047 92.3298 0.0000 0.0000 0.0000
# 4 0.0000 0.0000 0.0000 20.8627 0.0000 0.0000
# 5 0.0000 0.0000 0.0000 0.0000 20.8627 0.0000
# 6 0.0000 0.0000 0.0000 0.0000 0.0000 59.1836
#
#
#
# Elastic Compliance Matrix: (Units=1/GPa)
#
#
# Indices 1 2 3 4 5 6 
#
# 1 0.020542 -0.007550 -0.006473 0.000000 0.000000 0.000000
# 2 -0.007550 0.020542 -0.006473 0.000000 0.000000 0.000000
# 3 -0.006473 -0.006473 0.017282 0.000000 0.000000 0.000000
# 4 0.000000 0.000000 0.000000 0.047932 0.000000 0.000000
# 5 0.000000 0.000000 0.000000 0.000000 0.047932 0.000000
# 6 0.000000 0.000000 0.000000 0.000000 0.000000 0.016897
#
#
# Mechanical properties :
#
#
# Convention : Reuss Voigt Hill
#
# Bulk Modulus (GPa) = 57.56484 57.99822 57.78153
# Shear Modulus (GPa) = 22.94520 27.85683 25.40101
#
# Velocity S-wave (km/s) = 3.67535 4.04966 3.86704
# Velocity P-wave (km/s) = 7.20418 7.48404 7.34544
#
# Compressibility (1/GPa) = 0.01737172
#
# Stress axis : x y z
#
# Youngs Moduli (GPa) = 48.68120 48.68120 57.86516
#
# Poissons Ratio (x) = 0.36755 0.37458
# Poissons Ratio (y) = 0.36755 0.37458
# Poissons Ratio (z) = 0.31513 0.31513
#
# Static dielectric constant tensor:
#      x y z
#    x 3.083120 0.000000 0.000000 
#    y 0.000000 3.083120 0.000000 
#    z 0.000000 0.000000 2.416510 
# 
# 
# High freq. dielectric constant tensor:
#      x y z
#    x 1.644620 0.000000 0.000000 
#    y 0.000000 1.644620 0.000000 
#    z 0.000000 0.000000 1.669580 
# 
# From -- ./inp_files/14507.got.cif
#   From: 2010.03.12/outbox.cif.g09.slc.cpg/sg139_8_cif.got.tgz:14507.got - 2010.04.08 09:46:31.
