data_PCOD8319257
_publ_section_title
;
Structure prediction by ZEFSAII (Michael W. Deem and Ramdas Pophale) SiO2 
 PCOD8319257
Probable space group: I 4/M M M
;
_chemical_formula_sum "Si O2"
_cell_formula_units_Z 112
_cell_length_a 28.449552
_cell_length_b 28.449552
_cell_length_c 9.693486
_cell_angle_alpha 90.000000
_cell_angle_beta 90.000000
_cell_angle_gamma 90.000000
_cell_volume 7845.684705
_symmetry_space_group_name_H-M "I 4/M M M"
_symmetry_group_IT_number 139
_symmetry_cell_setting 'tetragonal'
loop_
_space_group_symop_operation_xyz
x,y,z
-y,x,z
-x,-y,z
y,-x,z
x,-y,-z
-x,y,-z
y,x,-z
-y,-x,-z
-x,-y,-z
y,-x,-z
x,y,-z
-y,x,-z
-x,y,z
x,-y,z
-y,-x,z
y,x,z
1/2+x,1/2+y,1/2+z
1/2-y,1/2+x,1/2+z
1/2-x,1/2-y,1/2+z
1/2+y,1/2-x,1/2+z
1/2+x,1/2-y,1/2-z
1/2-x,1/2+y,1/2-z
1/2+y,1/2+x,1/2-z
1/2-y,1/2-x,1/2-z
1/2-x,1/2-y,1/2-z
1/2+y,1/2-x,1/2-z
1/2+x,1/2+y,1/2-z
1/2-y,1/2+x,1/2-z
1/2-x,1/2+y,1/2+z
1/2+x,1/2-y,1/2+z
1/2-y,1/2-x,1/2+z
1/2+y,1/2+x,1/2+z
loop_
_atom_site_type_symbol
_atom_site_label
_atom_site_fract_x
_atom_site_fract_y
_atom_site_fract_z
Si Si1 0.053286 0.380993 0.500000
Si Si2 0.117917 0.382084 0.750000
Si Si3 0.230528 0.551735 0.000000
Si Si4 0.770691 0.154885 0.000000
Si Si5 0.766359 0.306931 0.000000
Si Si6 0.725844 0.119090 0.735596
O O1 0.083339 0.398419 0.629379
O O2 0.050966 0.325295 0.500000
O O3 0.000000 0.401797 0.500000
O O4 0.109419 0.327223 0.789383
O O5 0.246746 0.577429 0.859712
O O6 0.252753 0.500000 0.000000
O O7 0.761640 0.123830 0.863332
O O8 0.823719 0.176282 0.000000
O O9 0.734764 0.197221 0.000000
O O10 0.775611 0.335011 0.860300
O O11 0.713399 0.286602 0.000000
#
# Coordination Sequence:
#
# PCOD8319257 Si02
#       6
#    16  16  16  16  16  32
#     4   9  18  30  45  61  72  87 110 150 196 241
#     4  10  16  28  45  57  74  92 122 150 186 244
#     4   8  17  31  44  56  73  97 131 166 197 231
#     4  11  18  24  35  59  87 107 129 155 188 232
#     4  10  17  25  36  55  83 112 135 151 178 229
#     4  10  17  26  41  59  78 104 129 157 197 227
#
# _framework density 14.275364
#
# number of rings (size 3 to 8) (size 9 to 14) (size 15 to 20)
#    0.000    2.286    2.857    2.571    0.000    2.286 
#    0.000    1.429    0.000    8.143    0.000    0.000 
#    0.000    0.000    0.000    0.000    0.000    0.000 
#
# Total GULP energy -694095.399931 kJ/mol
# GULP energy per Si atom -12394.560713 kJ/mol
# Density = 1.424287 g / cm^3
# Si number density = 14.275364 Si / 1000 Ang^3
#
#
#
# Elastic Constant Matrix: (Units=GPa)
#
#
# Indices 1 2 3 4 5 6 
#
# 1 57.7386 31.3302 44.0592 0.0000 0.0000 0.0000
# 2 31.3302 57.7371 44.0594 0.0000 0.0000 0.0000
# 3 44.0592 44.0594 128.1012 0.0000 0.0000 0.0000
# 4 0.0000 0.0000 0.0000 6.3704 0.0000 0.0000
# 5 0.0000 0.0000 0.0000 0.0000 6.3729 0.0000
# 6 0.0000 0.0000 0.0000 0.0000 0.0000 8.1503
#
#
#
# Elastic Compliance Matrix: (Units=1/GPa)
#
#
# Indices 1 2 3 4 5 6 
#
# 1 0.027442 -0.010425 -0.005853 0.000000 0.000000 0.000000
# 2 -0.010425 0.027444 -0.005854 0.000000 0.000000 0.000000
# 3 -0.005853 -0.005854 0.011833 0.000000 0.000000 0.000000
# 4 0.000000 0.000000 0.000000 0.156976 0.000000 0.000000
# 5 0.000000 0.000000 0.000000 0.000000 0.156914 0.000000
# 6 0.000000 0.000000 0.000000 0.000000 0.000000 0.122694
#
#
# Mechanical properties :
#
#
# Convention : Reuss Voigt Hill
#
# Bulk Modulus (GPa) = 44.53136 53.60829 49.06982
# Shear Modulus (GPa) = 9.00818 12.45394 10.73106
#
# Velocity S-wave (km/s) = 2.51476 2.95686 2.74472
# Velocity P-wave (km/s) = 6.30034 7.02082 6.67031
#
# Compressibility (1/GPa) = 0.02245608
#
# Stress axis : x y z
#
# Youngs Moduli (GPa) = 36.43988 36.43840 84.51156
#
# Poissons Ratio (x) = 0.37986 0.49465
# Poissons Ratio (y) = 0.37988 0.49469
# Poissons Ratio (z) = 0.21328 0.21329
#
# Static dielectric constant tensor:
#      x y z
#    x 2.738800 0.000000 0.000000 
#    y 0.000000 2.738800 0.000000 
#    z 0.000000 0.000000 2.975590 
# 
# 
# High freq. dielectric constant tensor:
#      x y z
#    x 1.505470 0.000000 0.000000 
#    y 0.000000 1.505470 0.000000 
#    z 0.000000 0.000000 1.561400 
# 
# From -- ./inp_files/1753.got.cif
#   From: 2010.03.12/outbox.cif.g09.slc.cpg/sg139_1_cif.got.tgz:1753.got - 2010.04.08 09:46:31.
