data_PCOD8319315
_publ_section_title
;
Structure prediction by ZEFSAII (Michael W. Deem and Ramdas Pophale) SiO2 
 PCOD8319315
Probable space group: I 4/M M M
;
_chemical_formula_sum "Si O2"
_cell_formula_units_Z 128
_cell_length_a 16.538142
_cell_length_b 16.538142
_cell_length_c 28.630571
_cell_angle_alpha 90.000000
_cell_angle_beta 90.000000
_cell_angle_gamma 90.000000
_cell_volume 7830.751506
_symmetry_space_group_name_H-M "I 4/M M M"
_symmetry_group_IT_number 139
_symmetry_cell_setting 'tetragonal'
loop_
_space_group_symop_operation_xyz
x,y,z
-y,x,z
-x,-y,z
y,-x,z
x,-y,-z
-x,y,-z
y,x,-z
-y,-x,-z
-x,-y,-z
y,-x,-z
x,y,-z
-y,x,-z
-x,y,z
x,-y,z
-y,-x,z
y,x,z
1/2+x,1/2+y,1/2+z
1/2-y,1/2+x,1/2+z
1/2-x,1/2-y,1/2+z
1/2+y,1/2-x,1/2+z
1/2+x,1/2-y,1/2-z
1/2-x,1/2+y,1/2-z
1/2+y,1/2+x,1/2-z
1/2-y,1/2-x,1/2-z
1/2-x,1/2-y,1/2-z
1/2+y,1/2-x,1/2-z
1/2+x,1/2+y,1/2-z
1/2-y,1/2+x,1/2-z
1/2-x,1/2+y,1/2+z
1/2+x,1/2-y,1/2+z
1/2-y,1/2-x,1/2+z
1/2+y,1/2+x,1/2+z
loop_
_atom_site_type_symbol
_atom_site_label
_atom_site_fract_x
_atom_site_fract_y
_atom_site_fract_z
Si Si1 0.677042 0.805010 0.946892
Si Si2 0.773508 0.094036 0.124425
Si Si3 0.000000 0.590731 0.647962
Si Si4 0.500000 0.841489 0.948140
Si Si5 0.594683 0.848391 0.297062
O O1 0.721755 0.721755 0.933123
O O2 0.708796 0.877565 0.914368
O O3 0.581051 0.788207 0.941106
O O4 0.696988 0.830458 0.000000
O O5 0.856871 0.143130 0.120364
O O6 0.736019 0.107773 0.176010
O O7 0.792266 0.000000 0.115644
O O8 0.918988 0.629892 0.669237
O O9 0.000000 0.500000 0.665186
O O10 0.000000 0.590881 0.591745
O O11 0.500000 0.881684 0.000000
O O12 0.500000 0.860351 0.284588
O O13 0.648108 0.851893 0.250000
#
# Coordination Sequence:
#
# PCOD8319315 Si02
#       5
#    32  32  16  16  32
#     4   9  18  32  49  71 100 130 158 193 237 283
#     4  10  21  35  50  69  94 125 163 204 241 281
#     4  10  18  27  42  70 105 129 152 188 237 298
#     4  10  18  29  48  73 100 130 159 191 240 294
#     4  10  18  29  47  70  98 127 154 187 236 289
#
# _framework density 16.345813
#
# number of rings (size 3 to 8) (size 9 to 14) (size 15 to 20)
#    0.000    2.250    3.750    0.000    0.000    1.500 
#    0.000    2.500    0.000    0.375    0.000    6.125 
#    0.000    0.000    0.000    0.000    0.000    0.000 
#
# Total GULP energy -793084.449536 kJ/mol
# GULP energy per Si atom -12391.944524 kJ/mol
# Density = 1.630861 g / cm^3
# Si number density = 16.345813 Si / 1000 Ang^3
#
#
#
# Elastic Constant Matrix: (Units=GPa)
#
#
# Indices 1 2 3 4 5 6 
#
# 1 94.1948 46.9258 37.0203 0.0000 0.0000 0.0000
# 2 46.9258 94.1951 37.0205 0.0000 0.0000 0.0000
# 3 37.0203 37.0205 101.5592 0.0000 0.0000 0.0000
# 4 0.0000 0.0000 0.0000 21.9145 0.0000 0.0000
# 5 0.0000 0.0000 0.0000 0.0000 21.9143 0.0000
# 6 0.0000 0.0000 0.0000 0.0000 0.0000 14.4776
#
#
#
# Elastic Compliance Matrix: (Units=1/GPa)
#
#
# Indices 1 2 3 4 5 6 
#
# 1 0.014959 -0.006197 -0.003194 0.000000 0.000000 0.000000
# 2 -0.006197 0.014959 -0.003194 0.000000 0.000000 0.000000
# 3 -0.003194 -0.003194 0.012175 0.000000 0.000000 0.000000
# 4 0.000000 0.000000 0.000000 0.045632 0.000000 0.000000
# 5 0.000000 0.000000 0.000000 0.000000 0.045632 0.000000
# 6 0.000000 0.000000 0.000000 0.000000 0.000000 0.069072
#
#
# Mechanical properties :
#
#
# Convention : Reuss Voigt Hill
#
# Bulk Modulus (GPa) = 59.09072 59.09804 59.09438
# Shear Modulus (GPa) = 21.43728 22.92679 22.18204
#
# Velocity S-wave (km/s) = 3.62537 3.74921 3.68781
# Velocity P-wave (km/s) = 7.33166 7.41454 7.37322
#
# Compressibility (1/GPa) = 0.01692313
#
# Stress axis : x y z
#
# Youngs Moduli (GPa) = 66.85090 66.85099 82.13594
#
# Poissons Ratio (x) = 0.41426 0.26233
# Poissons Ratio (y) = 0.41426 0.26233
# Poissons Ratio (z) = 0.21351 0.21351
#
# Static dielectric constant tensor:
#      x y z
#    x 2.942630 0.000000 0.000000 
#    y 0.000000 2.942630 0.000000 
#    z 0.000000 0.000000 3.186410 
# 
# 
# High freq. dielectric constant tensor:
#      x y z
#    x 1.605790 0.000000 0.000000 
#    y 0.000000 1.605790 0.000000 
#    z 0.000000 0.000000 1.642790 
# 
# From -- ./inp_files/11371.got.cif
#   From: 2010.03.12/outbox.cif.g09.slc.cpg/sg139_6_cif.got.tgz:11371.got - 2010.04.08 09:46:31.
