data_PCOD8319345
_publ_section_title
;
Structure prediction by ZEFSAII (Michael W. Deem and Ramdas Pophale) SiO2 
 PCOD8319345
Probable space group: I 4/M M M
;
_chemical_formula_sum "Si O2"
_cell_formula_units_Z 208
_cell_length_a 20.204448
_cell_length_b 20.204448
_cell_length_c 31.861710
_cell_angle_alpha 90.000000
_cell_angle_beta 90.000000
_cell_angle_gamma 90.000000
_cell_volume 13006.578303
_symmetry_space_group_name_H-M "I 4/M M M"
_symmetry_group_IT_number 139
_symmetry_cell_setting 'tetragonal'
loop_
_space_group_symop_operation_xyz
x,y,z
-y,x,z
-x,-y,z
y,-x,z
x,-y,-z
-x,y,-z
y,x,-z
-y,-x,-z
-x,-y,-z
y,-x,-z
x,y,-z
-y,x,-z
-x,y,z
x,-y,z
-y,-x,z
y,x,z
1/2+x,1/2+y,1/2+z
1/2-y,1/2+x,1/2+z
1/2-x,1/2-y,1/2+z
1/2+y,1/2-x,1/2+z
1/2+x,1/2-y,1/2-z
1/2-x,1/2+y,1/2-z
1/2+y,1/2+x,1/2-z
1/2-y,1/2-x,1/2-z
1/2-x,1/2-y,1/2-z
1/2+y,1/2-x,1/2-z
1/2+x,1/2+y,1/2-z
1/2-y,1/2+x,1/2-z
1/2-x,1/2+y,1/2+z
1/2+x,1/2-y,1/2+z
1/2-y,1/2-x,1/2+z
1/2+y,1/2+x,1/2+z
loop_
_atom_site_type_symbol
_atom_site_label
_atom_site_fract_x
_atom_site_fract_y
_atom_site_fract_z
Si Si1 0.317190 0.424400 0.911298
Si Si2 0.167392 0.721172 0.452741
Si Si3 0.763272 0.125831 0.918084
Si Si4 0.077222 0.189193 0.167969
Si Si5 0.253363 0.857224 0.754506
Si Si6 0.074769 0.819232 0.314579
Si Si7 0.182465 0.072428 0.000000
O O1 0.332926 0.500000 0.922954
O O2 0.382053 0.382053 0.923560
O O3 0.252137 0.401102 0.936289
O O4 0.299384 0.415095 0.862655
O O5 0.157551 0.694628 0.500000
O O6 0.222004 0.777997 0.451883
O O7 0.191319 0.660990 0.422715
O O8 0.818480 0.181521 0.918273
O O9 0.770071 0.084420 0.875395
O O10 0.772604 0.079719 0.958656
O O11 0.122333 0.122333 0.168831
O O12 0.098959 0.241066 0.203957
O O13 0.000000 0.168973 0.173769
O O14 0.203186 0.796814 0.755392
O O15 0.327782 0.827782 0.750000
O O16 0.242502 0.902188 0.713440
O O17 0.115901 0.884100 0.302141
O O18 0.000000 0.837865 0.304185
O O19 0.122954 0.122954 0.000000
O O20 0.150503 0.000000 0.000000
#
# Coordination Sequence:
#
# PCOD8319345 Si02
#       7
#    32  32  32  32  32  32  16
#     4   9  18  29  44  67  95 126 156 187 223 271
#     4   9  16  28  46  65  87 118 156 197 238 274
#     4   9  17  29  45  65  89 120 157 198 237 265
#     4  10  20  32  47  69  98 130 160 189 223 271
#     4   9  18  30  45  65  89 119 154 194 236 269
#     4   9  17  29  44  64  92 123 154 185 217 261
#     4  10  18  29  44  64  93 125 156 188 222 264
#
# _framework density 15.991908
#
# number of rings (size 3 to 8) (size 9 to 14) (size 15 to 20)
#    0.000    2.769    0.769    0.923    2.154    0.846 
#    0.000    1.538    0.000    5.538    0.000    2.154 
#    0.000   10.462    0.000    0.000    0.000    0.000 
#
# Total GULP energy -1289005.198218 kJ/mol
# GULP energy per Si atom -12394.280752 kJ/mol
# Density = 1.595551 g / cm^3
# Si number density = 15.991908 Si / 1000 Ang^3
#
#
#
# Elastic Constant Matrix: (Units=GPa)
#
#
# Indices 1 2 3 4 5 6 
#
# 1 60.0859 52.6328 37.0106 0.0000 0.0000 0.0000
# 2 52.6328 60.0859 37.0106 0.0000 0.0000 0.0000
# 3 37.0106 37.0106 68.4204 0.0000 0.0000 0.0000
# 4 0.0000 0.0000 0.0000 21.2529 0.0000 0.0000
# 5 0.0000 0.0000 0.0000 0.0000 21.2529 0.0000
# 6 0.0000 0.0000 0.0000 0.0000 0.0000 14.4283
#
#
#
# Elastic Compliance Matrix: (Units=1/GPa)
#
#
# Indices 1 2 3 4 5 6 
#
# 1 0.073966 -0.060207 -0.007443 0.000000 0.000000 0.000000
# 2 -0.060207 0.073966 -0.007443 0.000000 0.000000 0.000000
# 3 -0.007443 -0.007443 0.022668 0.000000 0.000000 0.000000
# 4 0.000000 0.000000 0.000000 0.047052 0.000000 0.000000
# 5 0.000000 0.000000 0.000000 0.000000 0.047052 0.000000
# 6 0.000000 0.000000 0.000000 0.000000 0.000000 0.069308
#
#
# Mechanical properties :
#
#
# Convention : Reuss Voigt Hill
#
# Bulk Modulus (GPa) = 48.98376 49.10002 49.04189
# Shear Modulus (GPa) = 10.18323 15.51602 12.84962
#
# Velocity S-wave (km/s) = 2.52618 3.11825 2.83770
# Velocity P-wave (km/s) = 6.26144 6.61319 6.43972
#
# Compressibility (1/GPa) = 0.02041493
#
# Stress axis : x y z
#
# Youngs Moduli (GPa) = 13.51968 13.51968 44.11595
#
# Poissons Ratio (x) = 0.81398 0.32834
# Poissons Ratio (y) = 0.81398 0.32834
# Poissons Ratio (z) = 0.10062 0.10062
#
# Static dielectric constant tensor:
#      x y z
#    x 2.932690 0.000000 0.000000 
#    y 0.000000 2.932690 0.000000 
#    z 0.000000 0.000000 3.275710 
# 
# 
# High freq. dielectric constant tensor:
#      x y z
#    x 1.586000 0.000000 0.000000 
#    y 0.000000 1.586000 0.000000 
#    z 0.000000 0.000000 1.630110 
# 
# From -- ./inp_files/14546.got.cif
#   From: 2010.03.12/outbox.cif.g09.slc.cpg/sg139_8_cif.got.tgz:14546.got - 2010.04.08 09:46:31.
