data_PCOD8319581
_publ_section_title
;
Structure prediction by ZEFSAII (Michael W. Deem and Ramdas Pophale) SiO2 
 PCOD8319581
Probable space group: I 4/M M M
;
_chemical_formula_sum "Si O2"
_cell_formula_units_Z 160
_cell_length_a 31.769352
_cell_length_b 31.769352
_cell_length_c 8.997673
_cell_angle_alpha 90.000000
_cell_angle_beta 90.000000
_cell_angle_gamma 90.000000
_cell_volume 9081.276917
_symmetry_space_group_name_H-M "I 4/M M M"
_symmetry_group_IT_number 139
_symmetry_cell_setting 'tetragonal'
loop_
_space_group_symop_operation_xyz
x,y,z
-y,x,z
-x,-y,z
y,-x,z
x,-y,-z
-x,y,-z
y,x,-z
-y,-x,-z
-x,-y,-z
y,-x,-z
x,y,-z
-y,x,-z
-x,y,z
x,-y,z
-y,-x,z
y,x,z
1/2+x,1/2+y,1/2+z
1/2-y,1/2+x,1/2+z
1/2-x,1/2-y,1/2+z
1/2+y,1/2-x,1/2+z
1/2+x,1/2-y,1/2-z
1/2-x,1/2+y,1/2-z
1/2+y,1/2+x,1/2-z
1/2-y,1/2-x,1/2-z
1/2-x,1/2-y,1/2-z
1/2+y,1/2-x,1/2-z
1/2+x,1/2+y,1/2-z
1/2-y,1/2+x,1/2-z
1/2-x,1/2+y,1/2+z
1/2+x,1/2-y,1/2+z
1/2-y,1/2-x,1/2+z
1/2+y,1/2+x,1/2+z
loop_
_atom_site_type_symbol
_atom_site_label
_atom_site_fract_x
_atom_site_fract_y
_atom_site_fract_z
Si Si1 0.115093 0.323593 0.175668
Si Si2 0.895161 0.104840 0.833665
Si Si3 0.175578 0.175578 0.831110
Si Si4 0.392616 0.047367 0.173683
Si Si5 0.234971 0.115225 0.324297
Si Si6 0.334853 0.547720 0.173077
O O1 0.156685 0.343316 0.250000
O O2 0.074751 0.351901 0.216016
O O3 0.105514 0.278927 0.247565
O O4 0.122289 0.319400 0.000000
O O5 0.859753 0.140248 0.828882
O O6 0.877186 0.063431 0.753755
O O7 0.907642 0.092359 0.000000
O O8 0.158277 0.216307 0.744297
O O9 0.187831 0.187831 0.000000
O O10 0.434186 0.065815 0.250000
O O11 0.384829 0.000000 0.230943
O O12 0.401057 0.048483 0.000000
O O13 0.240272 0.120987 0.500000
O O14 0.205365 0.075752 0.283376
O O15 0.325214 0.500000 0.222191
O O16 0.344213 0.551390 0.000000
#
# Coordination Sequence:
#
# PCOD8319581 Si02
#       6
#    32  16  16  32  32  32
#     4  10  20  35  53  72  98 133 168 201 243 295
#     4   9  17  29  47  71  99 131 165 204 248 290
#     4   9  17  31  50  72  98 130 167 202 242 292
#     4   9  19  35  53  74 100 130 165 204 246 293
#     4  10  19  32  51  75 102 130 163 205 248 289
#     4   9  18  32  50  73 101 133 167 201 241 293
#
# _framework density 17.618668
#
# number of rings (size 3 to 8) (size 9 to 14) (size 15 to 20)
#    0.000    2.600    0.000    1.800    0.000    5.800 
#    0.000    1.500    0.000    0.300    0.000    2.100 
#    0.000    0.000    0.000    0.000    0.000    0.000 
#
# Total GULP energy -992098.732230 kJ/mol
# GULP energy per Si atom -12401.234153 kJ/mol
# Density = 1.757857 g / cm^3
# Si number density = 17.618668 Si / 1000 Ang^3
#
#
#
# Elastic Constant Matrix: (Units=GPa)
#
#
# Indices 1 2 3 4 5 6 
#
# 1 95.9727 77.5995 53.2349 0.0000 0.0000 0.0000
# 2 77.5995 95.9945 53.2400 0.0000 0.0000 0.0000
# 3 53.2349 53.2400 87.2657 0.0000 0.0000 0.0000
# 4 0.0000 0.0000 0.0000 27.8739 0.0000 0.0000
# 5 0.0000 0.0000 0.0000 0.0000 27.8732 0.0000
# 6 0.0000 0.0000 0.0000 0.0000 0.0000 16.4964
#
#
#
# Elastic Compliance Matrix: (Units=1/GPa)
#
#
# Indices 1 2 3 4 5 6 
#
# 1 0.031804 -0.022595 -0.005617 0.000000 0.000000 0.000000
# 2 -0.022595 0.031797 -0.005615 0.000000 0.000000 0.000000
# 3 -0.005617 -0.005615 0.018312 0.000000 0.000000 0.000000
# 4 0.000000 0.000000 0.000000 0.035876 0.000000 0.000000
# 5 0.000000 0.000000 0.000000 0.000000 0.035877 0.000000
# 6 0.000000 0.000000 0.000000 0.000000 0.000000 0.060619
#
#
# Mechanical properties :
#
#
# Convention : Reuss Voigt Hill
#
# Bulk Modulus (GPa) = 70.13221 71.93131 71.03176
# Shear Modulus (GPa) = 17.44039 20.79259 19.11649
#
# Velocity S-wave (km/s) = 3.14965 3.43905 3.29753
# Velocity P-wave (km/s) = 7.28829 7.52893 7.40959
#
# Compressibility (1/GPa) = 0.01425878
#
# Stress axis : x y z
#
# Youngs Moduli (GPa) = 31.44231 31.44996 54.61021
#
# Poissons Ratio (x) = 0.71060 0.30674
# Poissons Ratio (y) = 0.71043 0.30666
# Poissons Ratio (z) = 0.17661 0.17660
#
# Static dielectric constant tensor:
#      x y z
#    x 3.288620 0.000000 0.000000 
#    y 0.000000 3.288610 0.000000 
#    z 0.000000 0.000000 3.360590 
# 
# 
# High freq. dielectric constant tensor:
#      x y z
#    x 1.671960 0.000000 0.000000 
#    y 0.000000 1.671960 0.000000 
#    z 0.000000 0.000000 1.690750 
# 
# From -- ./inp_files/2209.got.cif
#   From: 2010.03.12/outbox.cif.g09.slc.cpg/sg139_2_cif.got.tgz:2209.got - 2010.04.08 09:46:31.
