data_PCOD8319599
_publ_section_title
;
Structure prediction by ZEFSAII (Michael W. Deem and Ramdas Pophale) SiO2 
 PCOD8319599
Probable space group: I 4/M M M
;
_chemical_formula_sum "Si O2"
_cell_formula_units_Z 160
_cell_length_a 32.154329
_cell_length_b 32.154329
_cell_length_c 9.086584
_cell_angle_alpha 90.000000
_cell_angle_beta 90.000000
_cell_angle_gamma 90.000000
_cell_volume 9394.627134
_symmetry_space_group_name_H-M "I 4/M M M"
_symmetry_group_IT_number 139
_symmetry_cell_setting 'tetragonal'
loop_
_space_group_symop_operation_xyz
x,y,z
-y,x,z
-x,-y,z
y,-x,z
x,-y,-z
-x,y,-z
y,x,-z
-y,-x,-z
-x,-y,-z
y,-x,-z
x,y,-z
-y,x,-z
-x,y,z
x,-y,z
-y,-x,z
y,x,z
1/2+x,1/2+y,1/2+z
1/2-y,1/2+x,1/2+z
1/2-x,1/2-y,1/2+z
1/2+y,1/2-x,1/2+z
1/2+x,1/2-y,1/2-z
1/2-x,1/2+y,1/2-z
1/2+y,1/2+x,1/2-z
1/2-y,1/2-x,1/2-z
1/2-x,1/2-y,1/2-z
1/2+y,1/2-x,1/2-z
1/2+x,1/2+y,1/2-z
1/2-y,1/2+x,1/2-z
1/2-x,1/2+y,1/2+z
1/2+x,1/2-y,1/2+z
1/2-y,1/2-x,1/2+z
1/2+y,1/2+x,1/2+z
loop_
_atom_site_type_symbol
_atom_site_label
_atom_site_fract_x
_atom_site_fract_y
_atom_site_fract_z
Si Si1 0.782532 0.151001 0.829761
Si Si2 0.000000 0.931961 0.337322
Si Si3 0.000000 0.851532 0.171299
Si Si4 0.070373 0.196604 0.668277
Si Si5 0.190145 0.628833 0.672657
Si Si6 0.046878 0.708950 0.331927
O O1 0.804024 0.195977 0.799100
O O2 0.805889 0.116709 0.733108
O O3 0.733793 0.151377 0.785868
O O4 0.787064 0.138366 0.000000
O O5 0.959125 0.959125 0.320484
O O6 0.000000 0.910557 0.500000
O O7 0.000000 0.900158 0.203188
O O8 0.958167 0.834071 0.241125
O O9 0.000000 0.841708 0.000000
O O10 0.072169 0.181986 0.500000
O O11 0.050475 0.241821 0.683668
O O12 0.182334 0.628948 0.500000
O O13 0.153579 0.653579 0.750000
O O14 0.187765 0.581153 0.727811
O O15 0.055323 0.695307 0.500000
O O16 0.000000 0.695773 0.283804
#
# Coordination Sequence:
#
# PCOD8319599 Si02
#       6
#    32  16  16  32  32  32
#     4   9  19  35  51  70  99 134 173 216 259 302
#     4   9  20  40  60  72  84 108 146 192 242 299
#     4  12  23  33  51  76 100 126 154 192 247 307
#     4  10  19  33  51  73  99 126 161 204 249 299
#     4  10  20  33  50  74 103 138 175 215 255 297
#     4   9  17  32  53  75 100 131 164 205 253 298
#
# _framework density 17.031012
#
# number of rings (size 3 to 8) (size 9 to 14) (size 15 to 20)
#    0.000    2.300    1.000    2.400    0.000    4.000 
#    0.000    0.500    0.000    0.000    0.000    0.000 
#    0.000    0.400    0.000    4.200    0.000    1.800 
#
# Total GULP energy -991951.573548 kJ/mol
# GULP energy per Si atom -12399.394669 kJ/mol
# Density = 1.699225 g / cm^3
# Si number density = 17.031012 Si / 1000 Ang^3
#
#
#
# Elastic Constant Matrix: (Units=GPa)
#
#
# Indices 1 2 3 4 5 6 
#
# 1 86.8831 53.6528 47.8878 0.0000 0.0000 0.0000
# 2 53.6528 86.8831 47.8878 0.0000 0.0000 0.0000
# 3 47.8878 47.8878 97.5172 0.0000 0.0000 0.0000
# 4 0.0000 0.0000 0.0000 26.8327 0.0000 0.0000
# 5 0.0000 0.0000 0.0000 0.0000 26.8327 0.0000
# 6 0.0000 0.0000 0.0000 0.0000 0.0000 16.5114
#
#
#
# Elastic Compliance Matrix: (Units=1/GPa)
#
#
# Indices 1 2 3 4 5 6 
#
# 1 0.020394 -0.009699 -0.005252 0.000000 0.000000 0.000000
# 2 -0.009699 0.020394 -0.005252 0.000000 0.000000 0.000000
# 3 -0.005252 -0.005252 0.015413 0.000000 0.000000 0.000000
# 4 0.000000 0.000000 0.000000 0.037268 0.000000 0.000000
# 5 0.000000 0.000000 0.000000 0.000000 0.037268 0.000000
# 6 0.000000 0.000000 0.000000 0.000000 0.000000 0.060564
#
#
# Mechanical properties :
#
#
# Convention : Reuss Voigt Hill
#
# Bulk Modulus (GPa) = 63.31232 63.34890 63.33061
# Shear Modulus (GPa) = 21.09959 22.15902 21.62930
#
# Velocity S-wave (km/s) = 3.52361 3.61099 3.56757
# Velocity P-wave (km/s) = 7.33552 7.39342 7.36452
#
# Compressibility (1/GPa) = 0.01579471
#
# Stress axis : x y z
#
# Youngs Moduli (GPa) = 49.03431 49.03431 64.88156
#
# Poissons Ratio (x) = 0.47559 0.34075
# Poissons Ratio (y) = 0.47559 0.34075
# Poissons Ratio (z) = 0.25752 0.25752
#
# Static dielectric constant tensor:
#      x y z
#    x 3.075780 0.000000 0.000000 
#    y 0.000000 3.075780 0.000000 
#    z 0.000000 0.000000 3.287960 
# 
# 
# High freq. dielectric constant tensor:
#      x y z
#    x 1.640200 0.000000 0.000000 
#    y 0.000000 1.640200 0.000000 
#    z 0.000000 0.000000 1.665150 
# 
# From -- ./inp_files/2284.got.cif
#   From: 2010.03.12/outbox.cif.g09.slc.cpg/sg139_2_cif.got.tgz:2284.got - 2010.04.08 09:46:31.
