data_PCOD8319987
_publ_section_title
;
Structure prediction by ZEFSAII (Michael W. Deem and Ramdas Pophale) SiO2 
 PCOD8319987
Probable space group: I 4/M M M
;
_chemical_formula_sum "Si O2"
_cell_formula_units_Z 96
_cell_length_a 17.058174
_cell_length_b 17.058174
_cell_length_c 18.493084
_cell_angle_alpha 90.000000
_cell_angle_beta 90.000000
_cell_angle_gamma 90.000000
_cell_volume 5381.141627
_symmetry_space_group_name_H-M "I 4/M M M"
_symmetry_group_IT_number 139
_symmetry_cell_setting 'tetragonal'
loop_
_space_group_symop_operation_xyz
x,y,z
-y,x,z
-x,-y,z
y,-x,z
x,-y,-z
-x,y,-z
y,x,-z
-y,-x,-z
-x,-y,-z
y,-x,-z
x,y,-z
-y,x,-z
-x,y,z
x,-y,z
-y,-x,z
y,x,z
1/2+x,1/2+y,1/2+z
1/2-y,1/2+x,1/2+z
1/2-x,1/2-y,1/2+z
1/2+y,1/2-x,1/2+z
1/2+x,1/2-y,1/2-z
1/2-x,1/2+y,1/2-z
1/2+y,1/2+x,1/2-z
1/2-y,1/2-x,1/2-z
1/2-x,1/2-y,1/2-z
1/2+y,1/2-x,1/2-z
1/2+x,1/2+y,1/2-z
1/2-y,1/2+x,1/2-z
1/2-x,1/2+y,1/2+z
1/2+x,1/2-y,1/2+z
1/2-y,1/2-x,1/2+z
1/2+y,1/2+x,1/2+z
loop_
_atom_site_type_symbol
_atom_site_label
_atom_site_fract_x
_atom_site_fract_y
_atom_site_fract_z
Si Si1 0.500000 0.085142 0.084989
Si Si2 0.350048 0.815679 0.916055
Si Si3 0.330101 0.330101 0.580502
Si Si4 0.197257 0.802744 0.304941
Si Si5 0.409368 0.590633 0.707771
O O1 0.418886 0.125921 0.108117
O O2 0.500000 0.000000 0.122309
O O3 0.500000 0.076636 0.000000
O O4 0.262039 0.849748 0.905558
O O5 0.358488 0.746552 0.858336
O O6 0.360392 0.788051 0.000000
O O7 0.352978 0.352978 0.500000
O O8 0.385148 0.385148 0.627364
O O9 0.250000 0.750000 0.250000
O O10 0.141118 0.858883 0.261938
O O11 0.390635 0.500000 0.720200
#
# Coordination Sequence:
#
# PCOD8319987 Si02
#       5
#    16  32  16  16  16
#     4   9  18  32  54  88 121 143 170 219 279 331
#     4   9  18  34  57  84 111 144 184 222 268 329
#     4   9  18  37  61  81 104 145 193 229 269 336
#     4  11  20  38  59  81 102 145 189 232 271 327
#     4  11  25  40  54  80 114 148 186 233 287 331
#
# _framework density 17.84008
#
# number of rings (size 3 to 8) (size 9 to 14) (size 15 to 20)
#    0.000    2.333    3.333    1.500    2.333    2.000 
#    0.000    4.167    0.000    0.000    0.000    4.667 
#    0.000    0.000    0.000    0.000    0.000    0.000 
#
# Total GULP energy -594682.051874 kJ/mol
# GULP energy per Si atom -12389.209414 kJ/mol
# Density = 1.779948 g / cm^3
# Si number density = 17.840080 Si / 1000 Ang^3
#
#
#
# Elastic Constant Matrix: (Units=GPa)
#
#
# Indices 1 2 3 4 5 6 
#
# 1 116.1121 104.4505 56.0747 0.0000 0.0000 0.0000
# 2 104.4505 116.1122 56.0747 0.0000 0.0000 0.0000
# 3 56.0747 56.0747 102.0075 0.0000 0.0000 0.0000
# 4 0.0000 0.0000 0.0000 17.5147 0.0000 0.0000
# 5 0.0000 0.0000 0.0000 0.0000 17.5147 0.0000
# 6 0.0000 0.0000 0.0000 0.0000 0.0000 30.6225
#
#
#
# Elastic Compliance Matrix: (Units=1/GPa)
#
#
# Indices 1 2 3 4 5 6 
#
# 1 0.046022 -0.039729 -0.003459 0.000000 0.000000 0.000000
# 2 -0.039729 0.046022 -0.003459 0.000000 0.000000 0.000000
# 3 -0.003459 -0.003459 0.013606 0.000000 0.000000 0.000000
# 4 0.000000 0.000000 0.000000 0.057095 0.000000 0.000000
# 5 0.000000 0.000000 0.000000 0.000000 0.057095 0.000000
# 6 0.000000 0.000000 0.000000 0.000000 0.000000 0.032656
#
#
# Mechanical properties :
#
#
# Convention : Reuss Voigt Hill
#
# Bulk Modulus (GPa) = 80.93866 85.27018 83.10442
# Shear Modulus (GPa) = 14.28941 20.97249 17.63095
#
# Velocity S-wave (km/s) = 2.83322 3.43240 3.14710
# Velocity P-wave (km/s) = 7.49469 7.97554 7.73885
#
# Compressibility (1/GPa) = 0.01235503
#
# Stress axis : x y z
#
# Youngs Moduli (GPa) = 21.72877 21.72877 73.49523
#
# Poissons Ratio (x) = 0.86327 0.25423
# Poissons Ratio (y) = 0.86327 0.25424
# Poissons Ratio (z) = 0.07516 0.07516
#
# Static dielectric constant tensor:
#      x y z
#    x 3.459040 0.000000 0.000000 
#    y 0.000000 3.459040 0.000000 
#    z 0.000000 0.000000 3.435890 
# 
# 
# High freq. dielectric constant tensor:
#      x y z
#    x 1.682990 0.000000 0.000000 
#    y 0.000000 1.682990 0.000000 
#    z 0.000000 0.000000 1.692070 
# 
# From -- ./inp_files/7367.got.cif
#   From: 2010.03.12/outbox.cif.g09.slc.cpg/sg139_4_cif.got.tgz:7367.got - 2010.04.08 09:46:31.
