data_PCOD8319960
_publ_section_title
;
Structure prediction by ZEFSAII (Michael W. Deem and Ramdas Pophale) SiO2 
 PCOD8319960
Probable space group: I 4/M M M
;
_chemical_formula_sum "Si O2"
_cell_formula_units_Z 144
_cell_length_a 21.906518
_cell_length_b 21.906518
_cell_length_c 14.643855
_cell_angle_alpha 90.000000
_cell_angle_beta 90.000000
_cell_angle_gamma 90.000000
_cell_volume 7027.520569
_symmetry_space_group_name_H-M "I 4/M M M"
_symmetry_group_IT_number 139
_symmetry_cell_setting 'tetragonal'
loop_
_space_group_symop_operation_xyz
x,y,z
-y,x,z
-x,-y,z
y,-x,z
x,-y,-z
-x,y,-z
y,x,-z
-y,-x,-z
-x,-y,-z
y,-x,-z
x,y,-z
-y,x,-z
-x,y,z
x,-y,z
-y,-x,z
y,x,z
1/2+x,1/2+y,1/2+z
1/2-y,1/2+x,1/2+z
1/2-x,1/2-y,1/2+z
1/2+y,1/2-x,1/2+z
1/2+x,1/2-y,1/2-z
1/2-x,1/2+y,1/2-z
1/2+y,1/2+x,1/2-z
1/2-y,1/2-x,1/2-z
1/2-x,1/2-y,1/2-z
1/2+y,1/2-x,1/2-z
1/2+x,1/2+y,1/2-z
1/2-y,1/2+x,1/2-z
1/2-x,1/2+y,1/2+z
1/2+x,1/2-y,1/2+z
1/2-y,1/2-x,1/2+z
1/2+y,1/2+x,1/2+z
loop_
_atom_site_type_symbol
_atom_site_label
_atom_site_fract_x
_atom_site_fract_y
_atom_site_fract_z
Si Si1 0.430452 0.000000 0.390667
Si Si2 0.570259 0.286433 0.901478
Si Si3 0.746266 0.155336 0.108467
Si Si4 0.071984 0.165815 0.788560
Si Si5 0.348693 0.890930 0.605359
O O1 0.398594 0.062178 0.352088
O O2 0.500000 0.000000 0.356518
O O3 0.424993 0.000000 0.500000
O O4 0.500000 0.302002 0.912069
O O5 0.595099 0.324259 0.815817
O O6 0.577488 0.215726 0.878969
O O7 0.602446 0.302501 0.000000
O O8 0.782421 0.217580 0.138223
O O9 0.779764 0.095986 0.148092
O O10 0.677248 0.153355 0.149317
O O11 0.745959 0.150707 0.000000
O O12 0.101934 0.101934 0.820584
O O13 0.000000 0.161857 0.799242
O O14 0.364403 0.881897 0.500000
#
# Coordination Sequence:
#
# PCOD8319960 Si02
#       5
#    16  32  32  32  32
#     4   9  16  26  44  76 112 146 188 226 258 315
#     4   9  17  32  54  78 107 143 181 219 262 315
#     4   9  19  35  54  79 110 141 178 226 277 327
#     4  10  22  38  56  80 105 136 177 222 276 334
#     4   9  16  29  51  77 108 146 183 222 268 314
#
# _framework density 20.490867999999999
#
# number of rings (size 3 to 8) (size 9 to 14) (size 15 to 20)
#    0.000    2.778    1.111    0.000    0.000    3.778 
#    0.000    6.667    0.000    0.000    0.000    6.222 
#    0.000    0.000    0.000    0.000    0.000    0.000 
#
# Total GULP energy -891997.957414 kJ/mol
# GULP energy per Si atom -12388.860520 kJ/mol
# Density = 2.044423 g / cm^3
# Si number density = 20.490868 Si / 1000 Ang^3
#
#
#
# Elastic Constant Matrix: (Units=GPa)
#
#
# Indices 1 2 3 4 5 6 
#
# 1 114.4860 59.8220 18.1246 0.0000 0.0000 0.0000
# 2 59.8220 114.4860 18.1246 0.0000 0.0000 0.0000
# 3 18.1246 18.1246 25.5519 0.0000 0.0000 0.0000
# 4 0.0000 0.0000 0.0000 26.5511 0.0000 0.0000
# 5 0.0000 0.0000 0.0000 0.0000 26.5511 0.0000
# 6 0.0000 0.0000 0.0000 0.0000 0.0000 21.7911
#
#
#
# Elastic Compliance Matrix: (Units=1/GPa)
#
#
# Indices 1 2 3 4 5 6 
#
# 1 0.012512 -0.005782 -0.004774 0.000000 0.000000 0.000000
# 2 -0.005782 0.012512 -0.004774 0.000000 0.000000 0.000000
# 3 -0.004774 -0.004774 0.045908 0.000000 0.000000 0.000000
# 4 0.000000 0.000000 0.000000 0.037663 0.000000 0.000000
# 5 0.000000 0.000000 0.000000 0.000000 0.037663 0.000000
# 6 0.000000 0.000000 0.000000 0.000000 0.000000 0.045890
#
#
# Mechanical properties :
#
#
# Convention : Reuss Voigt Hill
#
# Bulk Modulus (GPa) = 24.83035 49.62957 37.22996
# Shear Modulus (GPa) = 21.16576 25.54216 23.35396
#
# Velocity S-wave (km/s) = 3.21742 3.53443 3.37964
# Velocity P-wave (km/s) = 5.09377 6.39759 5.78254
#
# Compressibility (1/GPa) = 0.04027329
#
# Stress axis : x y z
#
# Youngs Moduli (GPa) = 79.92561 79.92561 21.78266
#
# Poissons Ratio (x) = 0.46213 0.10398
# Poissons Ratio (y) = 0.46213 0.10398
# Poissons Ratio (z) = 0.38153 0.38153
#
# Static dielectric constant tensor:
#      x y z
#    x 3.687670 0.000000 0.000000 
#    y 0.000000 3.687670 0.000000 
#    z 0.000000 0.000000 3.464810 
# 
# 
# High freq. dielectric constant tensor:
#      x y z
#    x 1.794370 0.000000 0.000000 
#    y 0.000000 1.794370 0.000000 
#    z 0.000000 0.000000 1.787000 
# 
# From -- ./inp_files/8197.got.cif
#   From: 2010.03.12/outbox.cif.g09.slc.cpg/sg139_5_cif.got.tgz:8197.got - 2010.04.08 09:46:31.
