data_PCOD8319536
_publ_section_title
;
Structure prediction by ZEFSAII (Michael W. Deem and Ramdas Pophale) SiO2 
 PCOD8319536
Probable space group: I 4/M M M
;
_chemical_formula_sum "Si O2"
_cell_formula_units_Z 96
_cell_length_a 16.739952
_cell_length_b 16.739952
_cell_length_c 19.907356
_cell_angle_alpha 90.000000
_cell_angle_beta 90.000000
_cell_angle_gamma 90.000000
_cell_volume 5578.558602
_symmetry_space_group_name_H-M "I 4/M M M"
_symmetry_group_IT_number 139
_symmetry_cell_setting 'tetragonal'
loop_
_space_group_symop_operation_xyz
x,y,z
-y,x,z
-x,-y,z
y,-x,z
x,-y,-z
-x,y,-z
y,x,-z
-y,-x,-z
-x,-y,-z
y,-x,-z
x,y,-z
-y,x,-z
-x,y,z
x,-y,z
-y,-x,z
y,x,z
1/2+x,1/2+y,1/2+z
1/2-y,1/2+x,1/2+z
1/2-x,1/2-y,1/2+z
1/2+y,1/2-x,1/2+z
1/2+x,1/2-y,1/2-z
1/2-x,1/2+y,1/2-z
1/2+y,1/2+x,1/2-z
1/2-y,1/2-x,1/2-z
1/2-x,1/2-y,1/2-z
1/2+y,1/2-x,1/2-z
1/2+x,1/2+y,1/2-z
1/2-y,1/2+x,1/2-z
1/2-x,1/2+y,1/2+z
1/2+x,1/2-y,1/2+z
1/2-y,1/2-x,1/2+z
1/2+y,1/2+x,1/2+z
loop_
_atom_site_type_symbol
_atom_site_label
_atom_site_fract_x
_atom_site_fract_y
_atom_site_fract_z
Si Si1 0.592085 0.276113 0.500000
Si Si2 0.353870 0.091504 0.891049
Si Si3 0.874443 0.000000 0.419873
Si Si4 0.590495 0.090495 0.750000
Si Si5 0.700886 0.000000 0.574901
O O1 0.500000 0.302805 0.500000
O O2 0.644852 0.355149 0.500000
O O3 0.611813 0.226359 0.432078
O O4 0.345974 0.104365 0.810225
O O5 0.421627 0.149910 0.915064
O O6 0.379104 0.000000 0.906033
O O7 0.920878 0.920878 0.394187
O O8 0.874047 0.000000 0.500000
O O9 0.785750 0.000000 0.385444
O O10 0.500000 0.100756 0.779184
O O11 0.731673 0.000000 0.500000
#
# Coordination Sequence:
#
# PCOD8319536 Si02
#       5
#    16  32  16  16  16
#     4  10  22  38  55  75 100 132 172 226 271 306
#     4  10  19  31  49  77 109 135 163 205 256 313
#     4   8  16  30  44  62  93 133 171 204 241 288
#     4   9  16  28  49  74 108 146 169 188 239 318
#     4  11  18  26  46  77 107 136 163 202 248 310
#
# _framework density 17.208746000000001
#
# number of rings (size 3 to 8) (size 9 to 14) (size 15 to 20)
#    0.000    2.333    3.333    1.000    0.000    2.167 
#    0.000    0.833    0.000    0.000    0.000    0.000 
#    0.000    0.000    0.000    0.000    0.000    0.000 
#
# Total GULP energy -594658.710648 kJ/mol
# GULP energy per Si atom -12388.723138 kJ/mol
# Density = 1.716958 g / cm^3
# Si number density = 17.208746 Si / 1000 Ang^3
#
#
#
# Elastic Constant Matrix: (Units=GPa)
#
#
# Indices 1 2 3 4 5 6 
#
# 1 111.1087 75.0047 30.8436 0.0000 0.0000 0.0000
# 2 75.0047 111.1049 30.8426 0.0000 0.0000 0.0000
# 3 30.8436 30.8426 96.2591 0.0000 0.0000 0.0000
# 4 0.0000 0.0000 0.0000 10.6649 0.0000 0.0000
# 5 0.0000 0.0000 0.0000 0.0000 10.6642 0.0000
# 6 0.0000 0.0000 0.0000 0.0000 0.0000 18.7155
#
#
#
# Elastic Compliance Matrix: (Units=1/GPa)
#
#
# Indices 1 2 3 4 5 6 
#
# 1 0.016855 -0.010844 -0.001926 0.000000 0.000000 0.000000
# 2 -0.010844 0.016856 -0.001926 0.000000 0.000000 0.000000
# 3 -0.001926 -0.001926 0.011623 0.000000 0.000000 0.000000
# 4 0.000000 0.000000 0.000000 0.093765 0.000000 0.000000
# 5 0.000000 0.000000 0.000000 0.000000 0.093772 0.000000
# 6 0.000000 0.000000 0.000000 0.000000 0.000000 0.053432
#
#
# Mechanical properties :
#
#
# Convention : Reuss Voigt Hill
#
# Bulk Modulus (GPa) = 62.73018 65.76162 64.24590
# Shear Modulus (GPa) = 15.57588 20.12769 17.85179
#
# Velocity S-wave (km/s) = 3.01178 3.42368 3.22431
# Velocity P-wave (km/s) = 6.97324 7.34342 7.16072
#
# Compressibility (1/GPa) = 0.01594129
#
# Stress axis : x y z
#
# Youngs Moduli (GPa) = 59.32909 59.32722 86.03620
#
# Poissons Ratio (x) = 0.64333 0.16573
# Poissons Ratio (y) = 0.64336 0.16572
# Poissons Ratio (z) = 0.11428 0.11427
#
# Static dielectric constant tensor:
#      x y z
#    x 3.113250 0.000000 0.000000 
#    y 0.000000 3.113250 0.000000 
#    z 0.000000 0.000000 3.320730 
# 
# 
# High freq. dielectric constant tensor:
#      x y z
#    x 1.648660 0.000000 0.000000 
#    y 0.000000 1.648660 0.000000 
#    z 0.000000 0.000000 1.647990 
# 
# From -- ./inp_files/9495.got.cif
#   From: 2010.03.12/outbox.cif.g09.slc.cpg/sg139_5_cif.got.tgz:9495.got - 2010.04.08 09:46:31.
