data_PCOD8319665
_publ_section_title
;
Structure prediction by ZEFSAII (Michael W. Deem and Ramdas Pophale) SiO2 
 PCOD8319665
Probable space group: I 4/M M M
;
_chemical_formula_sum "Si O2"
_cell_formula_units_Z 160
_cell_length_a 31.052709
_cell_length_b 31.052709
_cell_length_c 8.435828
_cell_angle_alpha 90.000000
_cell_angle_beta 90.000000
_cell_angle_gamma 90.000000
_cell_volume 8134.422076
_symmetry_space_group_name_H-M "I 4/M M M"
_symmetry_group_IT_number 139
_symmetry_cell_setting 'tetragonal'
loop_
_space_group_symop_operation_xyz
x,y,z
-y,x,z
-x,-y,z
y,-x,z
x,-y,-z
-x,y,-z
y,x,-z
-y,-x,-z
-x,-y,-z
y,-x,-z
x,y,-z
-y,x,-z
-x,y,z
x,-y,z
-y,-x,z
y,x,z
1/2+x,1/2+y,1/2+z
1/2-y,1/2+x,1/2+z
1/2-x,1/2-y,1/2+z
1/2+y,1/2-x,1/2+z
1/2+x,1/2-y,1/2-z
1/2-x,1/2+y,1/2-z
1/2+y,1/2+x,1/2-z
1/2-y,1/2-x,1/2-z
1/2-x,1/2-y,1/2-z
1/2+y,1/2-x,1/2-z
1/2+x,1/2+y,1/2-z
1/2-y,1/2+x,1/2-z
1/2-x,1/2+y,1/2+z
1/2+x,1/2-y,1/2+z
1/2-y,1/2-x,1/2+z
1/2+y,1/2+x,1/2+z
loop_
_atom_site_type_symbol
_atom_site_label
_atom_site_fract_x
_atom_site_fract_y
_atom_site_fract_z
Si Si1 0.232177 0.000000 0.674560
Si Si2 0.950375 0.049626 0.684135
Si Si3 0.152085 0.283846 0.682571
Si Si4 0.708173 0.407233 0.188262
Si Si5 0.088392 0.351807 0.183829
Si Si6 0.500000 0.832988 0.176878
Si Si7 0.884076 0.115925 0.184958
O O1 0.218791 0.955016 0.761408
O O2 0.210472 0.000000 0.500000
O O3 0.282623 0.000000 0.657689
O O4 0.941181 0.058820 0.500000
O O5 0.920278 0.079723 0.789906
O O6 0.000000 0.059994 0.724698
O O7 0.161295 0.276336 0.500000
O O8 0.198054 0.301947 0.750000
O O9 0.131549 0.239295 0.754949
O O10 0.114974 0.318544 0.709065
O O11 0.659653 0.398054 0.232804
O O12 0.714924 0.409225 0.000000
O O13 0.101325 0.398676 0.250000
O O14 0.038695 0.347880 0.214801
O O15 0.099664 0.344801 0.000000
O O16 0.500000 0.853735 0.000000
O O17 0.876760 0.123241 0.000000
#
# Coordination Sequence:
#
# PCOD8319665 Si02
#       7
#    16  16  32  32  32  16  16
#     4   9  18  35  61  87 113 147 191 239 289 342
#     4   9  20  42  70  93 113 149 200 241 278 345
#     4  10  19  34  58  85 115 152 193 241 292 345
#     4  10  21  40  62  85 114 158 204 239 284 349
#     4  11  21  33  51  80 115 154 194 237 291 349
#     4  11  19  35  57  84 116 146 190 243 297 351
#     4  12  27  41  58  89 126 157 189 243 300 345
#
# _framework density 19.669498000000001
#
# number of rings (size 3 to 8) (size 9 to 14) (size 15 to 20)
#    0.000    1.700    2.000    5.100    1.400    2.000 
#    0.000    1.000    0.000    0.300    0.000    2.100 
#    0.000    0.000    0.000    0.000    0.000    0.000 
#
# Total GULP energy -991285.841037 kJ/mol
# GULP energy per Si atom -12391.073013 kJ/mol
# Density = 1.962473 g / cm^3
# Si number density = 19.669498 Si / 1000 Ang^3
#
#
#
# Elastic Constant Matrix: (Units=GPa)
#
#
# Indices 1 2 3 4 5 6 
#
# 1 109.7621 60.8243 14.2387 0.0000 0.0000 0.0000
# 2 60.8243 109.7610 14.2379 0.0000 0.0000 0.0000
# 3 14.2387 14.2379 43.9177 0.0000 0.0000 0.0000
# 4 0.0000 0.0000 0.0000 23.5223 0.0000 0.0000
# 5 0.0000 0.0000 0.0000 0.0000 23.5231 0.0000
# 6 0.0000 0.0000 0.0000 0.0000 0.0000 41.7596
#
#
#
# Elastic Compliance Matrix: (Units=1/GPa)
#
#
# Indices 1 2 3 4 5 6 
#
# 1 0.013316 -0.007118 -0.002009 0.000000 0.000000 0.000000
# 2 -0.007118 0.013316 -0.002009 0.000000 0.000000 0.000000
# 3 -0.002009 -0.002009 0.024073 0.000000 0.000000 0.000000
# 4 0.000000 0.000000 0.000000 0.042513 0.000000 0.000000
# 5 0.000000 0.000000 0.000000 0.000000 0.042511 0.000000
# 6 0.000000 0.000000 0.000000 0.000000 0.000000 0.023947
#
#
# Mechanical properties :
#
#
# Convention : Reuss Voigt Hill
#
# Bulk Modulus (GPa) = 35.17323 49.11584 42.14454
# Shear Modulus (GPa) = 26.11972 29.37033 27.74502
#
# Velocity S-wave (km/s) = 3.64803 3.86838 3.75982
# Velocity P-wave (km/s) = 5.97203 6.70651 6.34989
#
# Compressibility (1/GPa) = 0.02843071
#
# Stress axis : x y z
#
# Youngs Moduli (GPa) = 75.09818 75.09776 41.54088
#
# Poissons Ratio (x) = 0.53457 0.08347
# Poissons Ratio (y) = 0.53458 0.08346
# Poissons Ratio (z) = 0.15091 0.15088
#
# Static dielectric constant tensor:
#      x y z
#    x 3.686880 0.000000 0.000000 
#    y 0.000000 3.686920 0.000000 
#    z 0.000000 0.000000 3.415080 
# 
# 
# High freq. dielectric constant tensor:
#      x y z
#    x 1.765050 0.000000 0.000000 
#    y 0.000000 1.765050 0.000000 
#    z 0.000000 0.000000 1.749870 
# 
# From -- ./inp_files/2334.got.cif
#   From: 2010.03.12/outbox.cif.g09.slc.cpg/sg139_2_cif.got.tgz:2334.got - 2010.04.08 09:46:31.
