data_PCOD8319031
_publ_section_title
;
Structure prediction by ZEFSAII (Michael W. Deem and Ramdas Pophale) SiO2 
 PCOD8319031
Probable space group: P 42/N C M
;
_chemical_formula_sum "Si O2"
_cell_formula_units_Z 112
_cell_length_a 14.209793
_cell_length_b 14.209793
_cell_length_c 26.155768
_cell_angle_alpha 90.000000
_cell_angle_beta 90.000000
_cell_angle_gamma 90.000000
_cell_volume 5281.326042
_symmetry_space_group_name_H-M "P 42/N C M"
_symmetry_group_IT_number 138
_space_group.IT_coordinate_system_code '2'
_symmetry_cell_setting 'tetragonal'
loop_
_space_group_symop_operation_xyz
x,y,z
1/2-y,x,1/2+z
1/2-x,1/2-y,z
y,1/2-x,1/2+z
1/2+x,-y,1/2-z
-x,1/2+y,1/2-z
1/2+y,1/2+x,-z
-y,-x,-z
-x,-y,-z
1/2+y,-x,1/2-z
1/2+x,1/2+y,-z
-y,1/2+x,1/2-z
1/2-x,y,1/2+z
x,1/2-y,1/2+z
1/2-y,1/2-x,z
y,x,z
loop_
_atom_site_type_symbol
_atom_site_label
_atom_site_fract_x
_atom_site_fract_y
_atom_site_fract_z
Si Si1 0.897937 0.747368 0.081621
Si Si2 0.099847 0.249254 0.090101
Si Si3 0.542671 0.113174 0.450713
Si Si4 0.533117 0.118115 0.645728
Si Si5 0.112091 0.957129 0.550462
Si Si6 0.622290 0.026386 0.145184
Si Si7 0.171128 0.620934 0.750449
O O1 0.834199 0.665802 0.053088
O O2 0.829035 0.829035 0.102818
O O3 0.976658 0.793977 0.045030
O O4 0.950393 0.700555 0.129034
O O5 0.169629 0.330372 0.111990
O O6 0.164531 0.164531 0.064918
O O7 0.037886 0.205815 0.135908
O O8 0.026575 0.296658 0.049994
O O9 0.611195 0.111195 0.500000
O O10 0.608416 0.111557 0.399635
O O11 0.481102 0.018899 0.450733
O O12 0.578776 0.123281 0.700743
O O13 0.478931 0.021070 0.646223
O O14 0.109774 0.890227 0.500000
O O15 0.107763 0.891347 0.601565
O O16 0.015950 0.015950 0.550658
O O17 0.657503 0.062053 0.198902
O O18 0.521816 0.978185 0.154296
O O19 0.125719 0.720154 0.762868
#
# Coordination Sequence:
#
# PCOD8319031 Si02
#       7
#    16  16  16  16  16  16  16
#     4   9  18  34  56  83 114 148 190 239 286 335
#     4   9  18  34  56  83 114 148 190 239 286 335
#     4   9  18  33  53  80 116 155 191 229 279 340
#     4  10  20  36  58  82 110 145 187 235 290 350
#     4   9  18  33  53  80 116 155 191 229 279 340
#     4  10  20  36  58  82 110 145 187 235 290 350
#     4  11  23  38  56  77 105 143 188 237 288 347
#
# _framework density 21.206795
#
# number of rings (size 3 to 8) (size 9 to 14) (size 15 to 20)
#    0.000    2.429    0.000    2.143    0.000    1.143 
#    0.000    6.429    0.000   15.429    0.000    2.000 
#    0.000    0.000    0.000    0.000    0.000    0.000 
#
# Total GULP energy -1387695.050529 kJ/mol
# GULP energy per Si atom -12390.134380 kJ/mol
# Density = 2.115853 g / cm^3
# Si number density = 21.206795 Si / 1000 Ang^3
#
#
#
# Elastic Constant Matrix: (Units=GPa)
#
#
# Indices 1 2 3 4 5 6 
#
# 1 87.7255 39.8758 43.0280 0.0000 0.0000 0.0000
# 2 39.8758 87.7257 43.0280 0.0000 0.0000 0.0000
# 3 43.0280 43.0280 124.9224 0.0000 0.0000 0.0000
# 4 0.0000 0.0000 0.0000 12.1683 0.0000 0.0000
# 5 0.0000 0.0000 0.0000 0.0000 12.1678 0.0000
# 6 0.0000 0.0000 0.0000 0.0000 0.0000 37.9446
#
#
#
# Elastic Compliance Matrix: (Units=1/GPa)
#
#
# Indices 1 2 3 4 5 6 
#
# 1 0.015553 -0.005345 -0.003516 0.000000 0.000000 0.000000
# 2 -0.005345 0.015553 -0.003516 0.000000 0.000000 0.000000
# 3 -0.003516 -0.003516 0.010427 0.000000 0.000000 0.000000
# 4 0.000000 0.000000 0.000000 0.082181 0.000000 0.000000
# 5 0.000000 0.000000 0.000000 0.000000 0.082184 0.000000
# 6 0.000000 0.000000 0.000000 0.000000 0.000000 0.026354
#
#
# Mechanical properties :
#
#
# Convention : Reuss Voigt Hill
#
# Bulk Modulus (GPa) = 59.59774 61.35968 60.47871
# Shear Modulus (GPa) = 19.04030 24.08560 21.56295
#
# Velocity S-wave (km/s) = 2.99965 3.37374 3.19218
# Velocity P-wave (km/s) = 6.33730 6.64628 6.49362
#
# Compressibility (1/GPa) = 0.01677916
#
# Stress axis : x y z
#
# Youngs Moduli (GPa) = 64.29428 64.29444 95.90381
#
# Poissons Ratio (x) = 0.34367 0.33721
# Poissons Ratio (y) = 0.34367 0.33721
# Poissons Ratio (z) = 0.22607 0.22606
#
# Static dielectric constant tensor:
#      x y z
#    x 3.944530 0.000000 0.000000 
#    y 0.000000 3.944520 0.000000 
#    z 0.000000 0.000000 3.597060 
# 
# 
# High freq. dielectric constant tensor:
#      x y z
#    x 1.829710 0.000000 0.000000 
#    y 0.000000 1.829710 0.000000 
#    z 0.000000 0.000000 1.808770 
# 
# From -- ./inp_files/7068.got.cif
#   From: 2010.03.12/outbox.cif.g09.slc.cpg/sg138_4_cif.got.tgz:7068.got - 2010.04.08 09:41:05.
