data_PCOD8319415
_publ_section_title
;
Structure prediction by ZEFSAII (Michael W. Deem and Ramdas Pophale) SiO2 
 PCOD8319415
Probable space group: I 4/M M M
;
_chemical_formula_sum "Si O2"
_cell_formula_units_Z 224
_cell_length_a 24.486192
_cell_length_b 24.486192
_cell_length_c 21.841883
_cell_angle_alpha 90.000000
_cell_angle_beta 90.000000
_cell_angle_gamma 90.000000
_cell_volume 13095.816392
_symmetry_space_group_name_H-M "I 4/M M M"
_symmetry_group_IT_number 139
_symmetry_cell_setting 'tetragonal'
loop_
_space_group_symop_operation_xyz
x,y,z
-y,x,z
-x,-y,z
y,-x,z
x,-y,-z
-x,y,-z
y,x,-z
-y,-x,-z
-x,-y,-z
y,-x,-z
x,y,-z
-y,x,-z
-x,y,z
x,-y,z
-y,-x,z
y,x,z
1/2+x,1/2+y,1/2+z
1/2-y,1/2+x,1/2+z
1/2-x,1/2-y,1/2+z
1/2+y,1/2-x,1/2+z
1/2+x,1/2-y,1/2-z
1/2-x,1/2+y,1/2-z
1/2+y,1/2+x,1/2-z
1/2-y,1/2-x,1/2-z
1/2-x,1/2-y,1/2-z
1/2+y,1/2-x,1/2-z
1/2+x,1/2+y,1/2-z
1/2-y,1/2+x,1/2-z
1/2-x,1/2+y,1/2+z
1/2+x,1/2-y,1/2+z
1/2-y,1/2-x,1/2+z
1/2+y,1/2+x,1/2+z
loop_
_atom_site_type_symbol
_atom_site_label
_atom_site_fract_x
_atom_site_fract_y
_atom_site_fract_z
Si Si1 0.849936 0.237552 0.786463
Si Si2 0.563911 0.114646 0.192402
Si Si3 0.352530 0.560870 0.129524
Si Si4 0.695544 0.154217 0.672602
Si Si5 0.862457 0.228516 0.430630
Si Si6 0.061005 0.564678 0.066868
Si Si7 0.562548 0.650849 0.725416
O O1 0.802260 0.197741 0.809732
O O2 0.838262 0.250656 0.714823
O O3 0.846393 0.294612 0.823559
O O4 0.907786 0.206546 0.797618
O O5 0.500000 0.128866 0.190036
O O6 0.574148 0.074148 0.250000
O O7 0.599124 0.169133 0.200504
O O8 0.586371 0.091875 0.127088
O O9 0.361636 0.500000 0.105234
O O10 0.404370 0.595631 0.107166
O O11 0.297881 0.584012 0.099217
O O12 0.346470 0.562419 0.201909
O O13 0.714200 0.149219 0.602680
O O14 0.875722 0.243111 0.500000
O O15 0.810589 0.189412 0.424193
O O16 0.059046 0.500000 0.071633
O O17 0.000000 0.588547 0.069730
O O18 0.086941 0.581500 0.000000
O O19 0.500000 0.647638 0.700176
O O20 0.597114 0.597114 0.704189
#
# Coordination Sequence:
#
# PCOD8319415 Si02
#       7
#    32  32  32  32  32  32  32
#     4  10  18  32  53  70  91 124 160 198 235 284
#     4  11  22  34  48  70 100 128 161 207 260 304
#     4   9  17  29  44  64  91 123 162 203 246 294
#     4  11  20  33  47  72  91 122 160 203 250 295
#     4  10  20  34  51  68  90 121 159 203 249 299
#     4   8  15  30  50  66  83 117 162 198 233 288
#     4   9  17  29  48  73 101 133 162 194 238 286
#
# _framework density 17.104699
#
# number of rings (size 3 to 8) (size 9 to 14) (size 15 to 20)
#    0.000    2.286    2.857    2.571    0.000    3.000 
#    0.000    1.429    0.000    0.000    0.000    2.000 
#    0.000    0.000    0.000    0.429    0.000    0.714 
#
# Total GULP energy -1387977.835059 kJ/mol
# GULP energy per Si atom -12392.659242 kJ/mol
# Density = 1.706577 g / cm^3
# Si number density = 17.104699 Si / 1000 Ang^3
#
#
#
# Elastic Constant Matrix: (Units=GPa)
#
#
# Indices 1 2 3 4 5 6 
#
# 1 95.7051 53.1496 23.5338 0.0000 0.0000 0.0000
# 2 53.1496 95.7051 23.5338 0.0000 0.0000 0.0000
# 3 23.5338 23.5338 68.2431 0.0000 0.0000 0.0000
# 4 0.0000 0.0000 0.0000 15.2666 0.0000 0.0000
# 5 0.0000 0.0000 0.0000 0.0000 15.2666 0.0000
# 6 0.0000 0.0000 0.0000 0.0000 0.0000 17.7967
#
#
#
# Elastic Compliance Matrix: (Units=1/GPa)
#
#
# Indices 1 2 3 4 5 6 
#
# 1 0.015519 -0.007979 -0.002600 0.000000 0.000000 0.000000
# 2 -0.007979 0.015519 -0.002600 0.000000 0.000000 0.000000
# 3 -0.002600 -0.002600 0.016447 0.000000 0.000000 0.000000
# 4 0.000000 0.000000 0.000000 0.065503 0.000000 0.000000
# 5 0.000000 0.000000 0.000000 0.000000 0.065503 0.000000
# 6 0.000000 0.000000 0.000000 0.000000 0.000000 0.056190
#
#
# Mechanical properties :
#
#
# Convention : Reuss Voigt Hill
#
# Bulk Modulus (GPa) = 47.33452 51.12086 49.22769
# Shear Modulus (GPa) = 18.65096 20.29505 19.47301
#
# Velocity S-wave (km/s) = 3.30570 3.44833 3.37777
# Velocity P-wave (km/s) = 6.50413 6.76805 6.63740
#
# Compressibility (1/GPa) = 0.02112623
#
# Stress axis : x y z
#
# Youngs Moduli (GPa) = 64.43535 64.43535 60.80177
#
# Poissons Ratio (x) = 0.51415 0.15810
# Poissons Ratio (y) = 0.51415 0.15810
# Poissons Ratio (z) = 0.16755 0.16755
#
# Static dielectric constant tensor:
#      x y z
#    x 3.175040 0.000000 0.000000 
#    y 0.000000 3.175040 0.000000 
#    z 0.000000 0.000000 3.115740 
# 
# 
# High freq. dielectric constant tensor:
#      x y z
#    x 1.651270 0.000000 0.000000 
#    y 0.000000 1.651270 0.000000 
#    z 0.000000 0.000000 1.629870 
# 
# From -- ./inp_files/12206.got.cif
#   From: 2010.03.12/outbox.cif.g09.slc.cpg/sg139_7_cif.got.tgz:12206.got - 2010.04.08 09:46:31.
