data_PCOD8319888
_publ_section_title
;
Structure prediction by ZEFSAII (Michael W. Deem and Ramdas Pophale) SiO2 
 PCOD8319888
Probable space group: I 4/M M M
;
_chemical_formula_sum "Si O2"
_cell_formula_units_Z 152
_cell_length_a 17.965623
_cell_length_b 17.965623
_cell_length_c 27.636666
_cell_angle_alpha 90.000000
_cell_angle_beta 90.000000
_cell_angle_gamma 90.000000
_cell_volume 8920.110080
_symmetry_space_group_name_H-M "I 4/M M M"
_symmetry_group_IT_number 139
_symmetry_cell_setting 'tetragonal'
loop_
_space_group_symop_operation_xyz
x,y,z
-y,x,z
-x,-y,z
y,-x,z
x,-y,-z
-x,y,-z
y,x,-z
-y,-x,-z
-x,-y,-z
y,-x,-z
x,y,-z
-y,x,-z
-x,y,z
x,-y,z
-y,-x,z
y,x,z
1/2+x,1/2+y,1/2+z
1/2-y,1/2+x,1/2+z
1/2-x,1/2-y,1/2+z
1/2+y,1/2-x,1/2+z
1/2+x,1/2-y,1/2-z
1/2-x,1/2+y,1/2-z
1/2+y,1/2+x,1/2-z
1/2-y,1/2-x,1/2-z
1/2-x,1/2-y,1/2-z
1/2+y,1/2-x,1/2-z
1/2+x,1/2+y,1/2-z
1/2-y,1/2+x,1/2-z
1/2-x,1/2+y,1/2+z
1/2+x,1/2-y,1/2+z
1/2-y,1/2-x,1/2+z
1/2+y,1/2+x,1/2+z
loop_
_atom_site_type_symbol
_atom_site_label
_atom_site_fract_x
_atom_site_fract_y
_atom_site_fract_z
Si Si1 0.691881 0.186335 0.805034
Si Si2 0.668074 0.086054 0.945667
Si Si3 0.318809 0.318809 0.945580
Si Si4 0.208491 0.912845 0.868883
Si Si5 0.084400 0.915601 0.500000
Si Si6 0.300982 0.913491 0.389384
O O1 0.735813 0.264188 0.809555
O O2 0.669636 0.169636 0.750000
O O3 0.743005 0.118818 0.824334
O O4 0.614125 0.192316 0.834155
O O5 0.745733 0.101899 0.918127
O O6 0.597548 0.121770 0.917839
O O7 0.649423 0.000000 0.946479
O O8 0.675692 0.117921 0.000000
O O9 0.355360 0.252400 0.916348
O O10 0.293181 0.293181 0.000000
O O11 0.381815 0.381815 0.951000
O O12 0.129790 0.870211 0.872834
O O13 0.192642 0.000000 0.860167
O O14 0.000000 0.895117 0.500000
O O15 0.276140 0.000000 0.391000
#
# Coordination Sequence:
#
# PCOD8319888 Si02
#       6
#    32  32  16  32   8  32
#     4   9  18  35  55  75  99 131 173 217 262 310
#     4   9  19  34  51  73 103 139 174 212 257 304
#     4  10  21  32  47  73 108 139 178 222 259 308
#     4   9  18  32  51  76 105 133 169 211 257 312
#     4   9  18  32  48  66  98 144 180 216 263 308
#     4  11  21  34  53  79 106 137 177 220 265 317
#
# _framework density 17.040149
#
# number of rings (size 3 to 8) (size 9 to 14) (size 15 to 20)
#    0.316    2.158    1.053    1.263    1.474    3.158 
#    0.000    1.053    0.000    0.000    0.000    5.895 
#    0.000    0.000    0.000    0.000    0.000    0.000 
#
# Total GULP energy -941966.262888 kJ/mol
# GULP energy per Si atom -12394.292933 kJ/mol
# Density = 1.700136 g / cm^3
# Si number density = 17.040149 Si / 1000 Ang^3
#
#
#
# Elastic Constant Matrix: (Units=GPa)
#
#
# Indices 1 2 3 4 5 6 
#
# 1 77.6537 32.2957 41.5375 0.0000 0.0000 0.0000
# 2 32.2957 77.6541 41.5375 0.0000 0.0000 0.0000
# 3 41.5375 41.5375 146.0686 0.0000 0.0000 0.0000
# 4 0.0000 0.0000 0.0000 21.5437 0.0000 0.0000
# 5 0.0000 0.0000 0.0000 0.0000 21.5423 0.0000
# 6 0.0000 0.0000 0.0000 0.0000 0.0000 25.7633
#
#
#
# Elastic Compliance Matrix: (Units=1/GPa)
#
#
# Indices 1 2 3 4 5 6 
#
# 1 0.016815 -0.005231 -0.003294 0.000000 0.000000 0.000000
# 2 -0.005231 0.016815 -0.003294 0.000000 0.000000 0.000000
# 3 -0.003294 -0.003294 0.008720 0.000000 0.000000 0.000000
# 4 0.000000 0.000000 0.000000 0.046417 0.000000 0.000000
# 5 0.000000 0.000000 0.000000 0.000000 0.046420 0.000000
# 6 0.000000 0.000000 0.000000 0.000000 0.000000 0.038815
#
#
# Mechanical properties :
#
#
# Convention : Reuss Voigt Hill
#
# Bulk Modulus (GPa) = 53.44422 59.12420 56.28421
# Shear Modulus (GPa) = 24.52431 26.17022 25.34726
#
# Velocity S-wave (km/s) = 3.79780 3.92318 3.86100
# Velocity P-wave (km/s) = 7.11779 7.43600 7.27863
#
# Compressibility (1/GPa) = 0.01871110
#
# Stress axis : x y z
#
# Youngs Moduli (GPa) = 59.46908 59.46948 114.68393
#
# Poissons Ratio (x) = 0.31111 0.37779
# Poissons Ratio (y) = 0.31110 0.37778
# Poissons Ratio (z) = 0.19590 0.19590
#
# Static dielectric constant tensor:
#      x y z
#    x 3.111150 0.000000 0.000000 
#    y 0.000000 3.111140 0.000000 
#    z 0.000000 0.000000 3.313310 
# 
# 
# High freq. dielectric constant tensor:
#      x y z
#    x 1.650800 0.000000 0.000000 
#    y 0.000000 1.650800 0.000000 
#    z 0.000000 0.000000 1.658000 
# 
# From -- ./inp_files/14160.got.cif
#   From: 2010.03.12/outbox.cif.g09.slc.cpg/sg139_8_cif.got.tgz:14160.got - 2010.04.08 09:46:31.
