data_PCOD8319346
_publ_section_title
;
Structure prediction by ZEFSAII (Michael W. Deem and Ramdas Pophale) SiO2 
 PCOD8319346
Probable space group: I 4/M M M
;
_chemical_formula_sum "Si O2"
_cell_formula_units_Z 128
_cell_length_a 28.327632
_cell_length_b 28.327632
_cell_length_c 9.762519
_cell_angle_alpha 90.000000
_cell_angle_beta 90.000000
_cell_angle_gamma 90.000000
_cell_volume 7833.979594
_symmetry_space_group_name_H-M "I 4/M M M"
_symmetry_group_IT_number 139
_symmetry_cell_setting 'tetragonal'
loop_
_space_group_symop_operation_xyz
x,y,z
-y,x,z
-x,-y,z
y,-x,z
x,-y,-z
-x,y,-z
y,x,-z
-y,-x,-z
-x,-y,-z
y,-x,-z
x,y,-z
-y,x,-z
-x,y,z
x,-y,z
-y,-x,z
y,x,z
1/2+x,1/2+y,1/2+z
1/2-y,1/2+x,1/2+z
1/2-x,1/2-y,1/2+z
1/2+y,1/2-x,1/2+z
1/2+x,1/2-y,1/2-z
1/2-x,1/2+y,1/2-z
1/2+y,1/2+x,1/2-z
1/2-y,1/2-x,1/2-z
1/2-x,1/2-y,1/2-z
1/2+y,1/2-x,1/2-z
1/2+x,1/2+y,1/2-z
1/2-y,1/2+x,1/2-z
1/2-x,1/2+y,1/2+z
1/2+x,1/2-y,1/2+z
1/2-y,1/2-x,1/2+z
1/2+y,1/2+x,1/2+z
loop_
_atom_site_type_symbol
_atom_site_label
_atom_site_fract_x
_atom_site_fract_y
_atom_site_fract_z
Si Si1 0.628603 0.555313 0.500000
Si Si2 0.294771 0.943801 0.156412
Si Si3 0.693199 0.444242 0.260154
Si Si4 0.556135 0.365347 0.000000
Si Si5 0.618428 0.056012 0.659183
O O1 0.621312 0.500000 0.500000
O O2 0.576428 0.576428 0.500000
O O3 0.657573 0.574797 0.627250
O O4 0.245414 0.923012 0.215072
O O5 0.334619 0.925854 0.262200
O O6 0.293769 0.000000 0.154830
O O7 0.303569 0.925666 0.000000
O O8 0.697932 0.500000 0.270294
O O9 0.669006 0.428461 0.121102
O O10 0.500000 0.378309 0.000000
O O11 0.585636 0.414365 0.000000
O O12 0.617670 0.073879 0.500000
O O13 0.574928 0.074928 0.750000
O O14 0.615088 0.000000 0.660601
#
# Coordination Sequence:
#
# PCOD8319346 Si02
#       5
#    16  32  32  16  32
#     4  10  18  29  44  64  93 127 164 200 238 290
#     4   9  16  29  49  70  93 122 158 204 253 290
#     4   9  17  29  45  65  89 121 159 204 254 293
#     4  10  20  31  44  64  93 129 166 204 244 292
#     4  10  21  34  50  74 104 138 171 200 230 271
#
# _framework density 16.339077
#
# number of rings (size 3 to 8) (size 9 to 14) (size 15 to 20)
#    0.000    2.500    1.250    1.500    1.750    2.000 
#    0.000    1.250    0.000    4.500    0.000    0.000 
#    0.000    6.000    0.000    0.000    0.000    0.000 
#
# Total GULP energy -792962.907893 kJ/mol
# GULP energy per Si atom -12390.045436 kJ/mol
# Density = 1.630189 g / cm^3
# Si number density = 16.339077 Si / 1000 Ang^3
#
#
#
# Elastic Constant Matrix: (Units=GPa)
#
#
# Indices 1 2 3 4 5 6 
#
# 1 52.2682 30.4636 41.8418 0.0000 0.0000 0.0000
# 2 30.4636 52.2672 41.8416 0.0000 0.0000 0.0000
# 3 41.8418 41.8416 164.8031 0.0000 0.0000 0.0000
# 4 0.0000 0.0000 0.0000 739.5175 0.0000 0.0000
# 5 0.0000 0.0000 0.0000 0.0000 727.2222 0.0000
# 6 0.0000 0.0000 0.0000 0.0000 0.0000 3.7005
#
#
#
# Elastic Compliance Matrix: (Units=1/GPa)
#
#
# Indices 1 2 3 4 5 6 
#
# 1 0.031063 -0.014799 -0.004129 0.000000 0.000000 0.000000
# 2 -0.014799 0.031064 -0.004129 0.000000 0.000000 0.000000
# 3 -0.004129 -0.004129 0.008165 0.000000 0.000000 0.000000
# 4 0.000000 0.000000 0.000000 0.001352 0.000000 0.000000
# 5 0.000000 0.000000 0.000000 0.000000 0.001375 0.000000
# 6 0.000000 0.000000 0.000000 0.000000 0.000000 0.270236
#
#
# Mechanical properties :
#
#
# Convention : Reuss Voigt Hill
#
# Bulk Modulus (GPa) = 41.36380 55.29251 48.32815
# Shear Modulus (GPa) = 12.58084 304.43415 158.50749
#
# Velocity S-wave (km/s) = 2.77787 13.66482 9.86012
# Velocity P-wave (km/s) = 5.97156 16.81915 12.62029
#
# Compressibility (1/GPa) = 0.02417573
#
# Stress axis : x y z
#
# Youngs Moduli (GPa) = 32.19246 32.19179 122.47985
#
# Poissons Ratio (x) = 0.47642 0.50575
# Poissons Ratio (y) = 0.47643 0.50576
# Poissons Ratio (z) = 0.13293 0.13293
#
# Static dielectric constant tensor:
#      x y z
#    x 2.918900 0.000000 0.000000 
#    y 0.000000 2.918900 0.000000 
#    z 0.000000 0.000000 3.145460 
# 
# 
# High freq. dielectric constant tensor:
#      x y z
#    x 1.597710 0.000000 0.000000 
#    y 0.000000 1.597710 0.000000 
#    z 0.000000 0.000000 1.653950 
# 
# From -- ./inp_files/1782.got.cif
#   From: 2010.03.12/outbox.cif.g09.slc.cpg/sg139_1_cif.got.tgz:1782.got - 2010.04.08 09:46:31.
