data_PCOD8319999
_publ_section_title
;
Structure prediction by ZEFSAII (Michael W. Deem and Ramdas Pophale) SiO2 
 PCOD8319999
Probable space group: I 4/M M M
;
_chemical_formula_sum "Si O2"
_cell_formula_units_Z 160
_cell_length_a 23.651918
_cell_length_b 23.651918
_cell_length_c 15.916736
_cell_angle_alpha 90.000000
_cell_angle_beta 90.000000
_cell_angle_gamma 90.000000
_cell_volume 8904.032618
_symmetry_space_group_name_H-M "I 4/M M M"
_symmetry_group_IT_number 139
_symmetry_cell_setting 'tetragonal'
loop_
_space_group_symop_operation_xyz
x,y,z
-y,x,z
-x,-y,z
y,-x,z
x,-y,-z
-x,y,-z
y,x,-z
-y,-x,-z
-x,-y,-z
y,-x,-z
x,y,-z
-y,x,-z
-x,y,z
x,-y,z
-y,-x,z
y,x,z
1/2+x,1/2+y,1/2+z
1/2-y,1/2+x,1/2+z
1/2-x,1/2-y,1/2+z
1/2+y,1/2-x,1/2+z
1/2+x,1/2-y,1/2-z
1/2-x,1/2+y,1/2-z
1/2+y,1/2+x,1/2-z
1/2-y,1/2-x,1/2-z
1/2-x,1/2-y,1/2-z
1/2+y,1/2-x,1/2-z
1/2+x,1/2+y,1/2-z
1/2-y,1/2+x,1/2-z
1/2-x,1/2+y,1/2+z
1/2+x,1/2-y,1/2+z
1/2-y,1/2-x,1/2+z
1/2+y,1/2+x,1/2+z
loop_
_atom_site_type_symbol
_atom_site_label
_atom_site_fract_x
_atom_site_fract_y
_atom_site_fract_z
Si Si1 0.566831 0.231281 0.906742
Si Si2 0.155781 0.064476 0.130133
Si Si3 0.626636 0.933746 0.000000
Si Si4 0.844778 0.935331 0.674440
Si Si5 0.247445 0.933460 0.000000
Si Si6 0.885955 0.566975 0.836909
O O1 0.500000 0.236474 0.910825
O O2 0.590857 0.290484 0.872660
O O3 0.583291 0.180159 0.844829
O O4 0.591301 0.219184 0.000000
O O5 0.102571 0.102571 0.103185
O O6 0.168960 0.069925 0.227801
O O7 0.140681 0.000000 0.105224
O O8 0.212106 0.085466 0.082228
O O9 0.689832 0.905746 0.000000
O O10 0.592873 0.917678 0.916491
O O11 0.633514 0.000000 0.000000
O O12 0.899617 0.899617 0.648175
O O13 0.857183 0.000000 0.648639
O O14 0.255169 0.000000 0.000000
O O15 0.895885 0.500000 0.837967
O O16 0.908259 0.591742 0.750000
#
# Coordination Sequence:
#
# PCOD8319999 Si02
#       6
#    32  32  16  32  16  32
#     4   9  18  35  56  76 103 142 183 216 252 309
#     4   9  17  30  49  75 107 141 179 223 266 312
#     4  11  23  37  56  82 112 143 173 214 267 322
#     4   9  18  31  52  80 109 142 178 221 269 315
#     4   9  19  32  48  72 102 142 185 215 251 309
#     4  11  23  38  58  84 111 141 174 214 267 323
#
# _framework density 17.969386
#
# number of rings (size 3 to 8) (size 9 to 14) (size 15 to 20)
#    0.000    2.400    1.000    1.200    2.800    2.600 
#    0.000    2.000    0.000    4.800    0.000    2.800 
#    0.000    0.000    0.000    0.000    0.000    0.000 
#
# Total GULP energy -991722.798110 kJ/mol
# GULP energy per Si atom -12396.534976 kJ/mol
# Density = 1.792849 g / cm^3
# Si number density = 17.969386 Si / 1000 Ang^3
#
#
#
# Elastic Constant Matrix: (Units=GPa)
#
#
# Indices 1 2 3 4 5 6 
#
# 1 109.2096 54.9051 56.3847 0.0000 0.0000 0.0000
# 2 54.9051 109.2098 56.3856 0.0000 0.0000 0.0000
# 3 56.3847 56.3856 113.3666 0.0000 0.0000 0.0000
# 4 0.0000 0.0000 0.0000 28.8086 0.0000 0.0000
# 5 0.0000 0.0000 0.0000 0.0000 28.8081 0.0000
# 6 0.0000 0.0000 0.0000 0.0000 0.0000 3.6708
#
#
#
# Elastic Compliance Matrix: (Units=1/GPa)
#
#
# Indices 1 2 3 4 5 6 
#
# 1 0.013836 -0.004579 -0.004604 0.000000 0.000000 0.000000
# 2 -0.004579 0.013836 -0.004604 0.000000 0.000000 0.000000
# 3 -0.004604 -0.004604 0.013401 0.000000 0.000000 0.000000
# 4 0.000000 0.000000 0.000000 0.034712 0.000000 0.000000
# 5 0.000000 0.000000 0.000000 0.000000 0.034712 0.000000
# 6 0.000000 0.000000 0.000000 0.000000 0.000000 0.272423
#
#
# Mechanical properties :
#
#
# Convention : Reuss Voigt Hill
#
# Bulk Modulus (GPa) = 74.08359 74.12631 74.10495
# Shear Modulus (GPa) = 12.04839 23.19820 17.62329
#
# Velocity S-wave (km/s) = 2.59220 3.59692 3.13507
# Velocity P-wave (km/s) = 7.09059 7.65451 7.37794
#
# Compressibility (1/GPa) = 0.01349827
#
# Stress axis : x y z
#
# Youngs Moduli (GPa) = 72.27645 72.27582 74.62192
#
# Poissons Ratio (x) = 0.33094 0.34356
# Poissons Ratio (y) = 0.33094 0.34358
# Poissons Ratio (z) = 0.33277 0.33278
#
# Static dielectric constant tensor:
#      x y z
#    x 3.397170 0.000000 0.000000 
#    y 0.000000 3.397170 0.000000 
#    z 0.000000 0.000000 3.417630 
# 
# 
# High freq. dielectric constant tensor:
#      x y z
#    x 1.682590 0.000000 0.000000 
#    y 0.000000 1.682590 0.000000 
#    z 0.000000 0.000000 1.705920 
# 
# From -- ./inp_files/8451.got.cif
#   From: 2010.03.12/outbox.cif.g09.slc.cpg/sg139_5_cif.got.tgz:8451.got - 2010.04.08 09:46:31.
