data_PCOD8319458
_publ_section_title
;
Structure prediction by ZEFSAII (Michael W. Deem and Ramdas Pophale) SiO2 
 PCOD8319458
Probable space group: I 4/M M M
;
_chemical_formula_sum "Si O2"
_cell_formula_units_Z 208
_cell_length_a 20.721070
_cell_length_b 20.721070
_cell_length_c 31.038671
_cell_angle_alpha 90.000000
_cell_angle_beta 90.000000
_cell_angle_gamma 90.000000
_cell_volume 13326.848887
_symmetry_space_group_name_H-M "I 4/M M M"
_symmetry_group_IT_number 139
_symmetry_cell_setting 'tetragonal'
loop_
_space_group_symop_operation_xyz
x,y,z
-y,x,z
-x,-y,z
y,-x,z
x,-y,-z
-x,y,-z
y,x,-z
-y,-x,-z
-x,-y,-z
y,-x,-z
x,y,-z
-y,x,-z
-x,y,z
x,-y,z
-y,-x,z
y,x,z
1/2+x,1/2+y,1/2+z
1/2-y,1/2+x,1/2+z
1/2-x,1/2-y,1/2+z
1/2+y,1/2-x,1/2+z
1/2+x,1/2-y,1/2-z
1/2-x,1/2+y,1/2-z
1/2+y,1/2+x,1/2-z
1/2-y,1/2-x,1/2-z
1/2-x,1/2-y,1/2-z
1/2+y,1/2-x,1/2-z
1/2+x,1/2+y,1/2-z
1/2-y,1/2+x,1/2-z
1/2-x,1/2+y,1/2+z
1/2+x,1/2-y,1/2+z
1/2-y,1/2-x,1/2+z
1/2+y,1/2+x,1/2+z
loop_
_atom_site_type_symbol
_atom_site_label
_atom_site_fract_x
_atom_site_fract_y
_atom_site_fract_z
Si Si1 0.855653 0.574058 0.085194
Si Si2 0.572238 0.924976 0.825885
Si Si3 0.339393 0.237000 0.867355
Si Si4 0.428308 0.923654 0.500000
Si Si5 0.328256 0.428876 0.180209
Si Si6 0.147330 0.692477 0.793853
Si Si7 0.677131 0.427109 0.282123
O O1 0.830773 0.500000 0.079981
O O2 0.905631 0.579250 0.124324
O O3 0.797239 0.624288 0.092995
O O4 0.890512 0.599405 0.042325
O O5 0.500000 0.907484 0.809238
O O6 0.624047 0.889323 0.796207
O O7 0.585593 0.000000 0.822296
O O8 0.292439 0.292439 0.886178
O O9 0.395390 0.263801 0.836462
O O10 0.297814 0.190467 0.836519
O O11 0.500000 0.892879 0.500000
O O12 0.434533 0.000000 0.500000
O O13 0.331976 0.500000 0.160479
O O14 0.390939 0.390939 0.163411
O O15 0.326263 0.429871 0.231159
O O16 0.190474 0.690474 0.750000
O O17 0.098750 0.752535 0.794962
O O18 0.667649 0.500000 0.300786
O O19 0.620353 0.379648 0.299762
#
# Coordination Sequence:
#
# PCOD8319458 Si02
#       7
#    32  32  32  16  32  32  32
#     4   9  17  29  46  66  87 112 141 175 214 259
#     4   9  18  30  42  61  90 120 149 184 225 266
#     4  10  19  30  44  61  85 116 148 182 222 264
#     4   9  16  28  49  72  90 110 136 165 200 249
#     4   9  17  28  42  59  80 108 144 187 231 271
#     4  11  20  30  45  62  85 118 156 191 223 266
#     4  10  20  32  46  63  82 108 147 193 238 279
#
# _framework density 15.607590999999999
#
# number of rings (size 3 to 8) (size 9 to 14) (size 15 to 20)
#    0.000    2.385    1.538    1.846    0.000    4.615 
#    0.000    2.692    0.000    0.000    0.000    0.000 
#    0.000    0.000    0.000    0.000    0.000   46.154 
#
# Total GULP energy -1289235.791379 kJ/mol
# GULP energy per Si atom -12396.497994 kJ/mol
# Density = 1.557207 g / cm^3
# Si number density = 15.607591 Si / 1000 Ang^3
#
#
#
# Elastic Constant Matrix: (Units=GPa)
#
#
# Indices 1 2 3 4 5 6 
#
# 1 96.2775 50.4494 23.3625 0.0000 0.0000 0.0000
# 2 50.4494 96.2775 23.3625 0.0000 0.0000 0.0000
# 3 23.3625 23.3625 49.2788 0.0000 0.0000 0.0000
# 4 0.0000 0.0000 0.0000 14.6163 0.0000 0.0000
# 5 0.0000 0.0000 0.0000 0.0000 14.6163 0.0000
# 6 0.0000 0.0000 0.0000 0.0000 0.0000 28.7965
#
#
#
# Elastic Compliance Matrix: (Units=1/GPa)
#
#
# Indices 1 2 3 4 5 6 
#
# 1 0.014924 -0.006897 -0.003806 0.000000 0.000000 0.000000
# 2 -0.006897 0.014924 -0.003806 0.000000 0.000000 0.000000
# 3 -0.003806 -0.003806 0.023901 0.000000 0.000000 0.000000
# 4 0.000000 0.000000 0.000000 0.068417 0.000000 0.000000
# 5 0.000000 0.000000 0.000000 0.000000 0.068417 0.000000
# 6 0.000000 0.000000 0.000000 0.000000 0.000000 0.034726
#
#
# Mechanical properties :
#
#
# Convention : Reuss Voigt Hill
#
# Bulk Modulus (GPa) = 40.43164 48.46476 44.44820
# Shear Modulus (GPa) = 19.04260 21.24978 20.14619
#
# Velocity S-wave (km/s) = 3.49676 3.69386 3.59666
# Velocity P-wave (km/s) = 6.50111 7.02227 6.76671
#
# Compressibility (1/GPa) = 0.02473311
#
# Stress axis : x y z
#
# Youngs Moduli (GPa) = 67.00621 67.00621 41.83905
#
# Poissons Ratio (x) = 0.46212 0.15922
# Poissons Ratio (y) = 0.46212 0.15922
# Poissons Ratio (z) = 0.25500 0.25500
#
# Static dielectric constant tensor:
#      x y z
#    x 3.108070 0.000000 0.000000 
#    y 0.000000 3.108070 0.000000 
#    z 0.000000 0.000000 2.692740 
# 
# 
# High freq. dielectric constant tensor:
#      x y z
#    x 1.600260 0.000000 0.000000 
#    y 0.000000 1.600260 0.000000 
#    z 0.000000 0.000000 1.555840 
# 
# From -- ./inp_files/14493.got.cif
#   From: 2010.03.12/outbox.cif.g09.slc.cpg/sg139_8_cif.got.tgz:14493.got - 2010.04.08 09:46:31.
