data_PCOD8319383
_publ_section_title
;
Structure prediction by ZEFSAII (Michael W. Deem and Ramdas Pophale) SiO2 
 PCOD8319383
Probable space group: I 4/M M M
;
_chemical_formula_sum "Si O2"
_cell_formula_units_Z 112
_cell_length_a 18.508915
_cell_length_b 18.508915
_cell_length_c 18.504343
_cell_angle_alpha 90.000000
_cell_angle_beta 90.000000
_cell_angle_gamma 90.000000
_cell_volume 6339.216612
_symmetry_space_group_name_H-M "I 4/M M M"
_symmetry_group_IT_number 139
_symmetry_cell_setting 'tetragonal'
loop_
_space_group_symop_operation_xyz
x,y,z
-y,x,z
-x,-y,z
y,-x,z
x,-y,-z
-x,y,-z
y,x,-z
-y,-x,-z
-x,-y,-z
y,-x,-z
x,y,-z
-y,x,-z
-x,y,z
x,-y,z
-y,-x,z
y,x,z
1/2+x,1/2+y,1/2+z
1/2-y,1/2+x,1/2+z
1/2-x,1/2-y,1/2+z
1/2+y,1/2-x,1/2+z
1/2+x,1/2-y,1/2-z
1/2-x,1/2+y,1/2-z
1/2+y,1/2+x,1/2-z
1/2-y,1/2-x,1/2-z
1/2-x,1/2-y,1/2-z
1/2+y,1/2-x,1/2-z
1/2+x,1/2+y,1/2-z
1/2-y,1/2+x,1/2-z
1/2-x,1/2+y,1/2+z
1/2+x,1/2-y,1/2+z
1/2-y,1/2-x,1/2+z
1/2+y,1/2+x,1/2+z
loop_
_atom_site_type_symbol
_atom_site_label
_atom_site_fract_x
_atom_site_fract_y
_atom_site_fract_z
Si Si1 0.415856 0.702664 0.688178
Si Si2 0.921325 0.578676 0.250000
Si Si3 0.790456 0.328555 0.579528
Si Si4 0.718786 0.919500 0.663439
O O1 0.500000 0.685778 0.673903
O O2 0.370335 0.629666 0.674369
O O3 0.391563 0.768835 0.636206
O O4 0.402384 0.727894 0.770279
O O5 0.912535 0.500000 0.287167
O O6 0.913478 0.635994 0.313006
O O7 0.806905 0.361736 0.500000
O O8 0.721722 0.278279 0.574305
O O9 0.857883 0.277127 0.602731
O O10 0.735633 0.000000 0.632592
#
# Coordination Sequence:
#
# PCOD8319383 Si02
#       4
#    32  16  32  32
#     4  10  20  34  52  73  96 126 165 206 248 291
#     4   9  16  26  43  68  96 124 153 182 221 276
#     4  10  20  33  49  70  99 132 163 198 240 287
#     4  10  18  30  51  74  98 129 161 196 237 284
#
# _framework density 17.667798999999999
#
# number of rings (size 3 to 8) (size 9 to 14) (size 15 to 20)
#    0.000    2.143    2.857    0.857    0.000    3.714 
#    0.000    0.000    0.000    0.000    0.000   10.000 
#    0.000    0.000    0.000   26.571    0.000    0.000 
#
# Total GULP energy -693889.196104 kJ/mol
# GULP energy per Si atom -12390.878502 kJ/mol
# Density = 1.762759 g / cm^3
# Si number density = 17.667799 Si / 1000 Ang^3
#
#
#
# Elastic Constant Matrix: (Units=GPa)
#
#
# Indices 1 2 3 4 5 6 
#
# 1 85.0494 24.2985 30.2294 0.0000 0.0000 0.0000
# 2 24.2985 85.0491 30.2294 0.0000 0.0000 0.0000
# 3 30.2294 30.2294 69.4167 0.0000 0.0000 0.0000
# 4 0.0000 0.0000 0.0000 15.9878 0.0000 0.0000
# 5 0.0000 0.0000 0.0000 0.0000 15.9877 0.0000
# 6 0.0000 0.0000 0.0000 0.0000 0.0000 19.6339
#
#
#
# Elastic Compliance Matrix: (Units=1/GPa)
#
#
# Indices 1 2 3 4 5 6 
#
# 1 0.014253 -0.002208 -0.005245 0.000000 0.000000 0.000000
# 2 -0.002208 0.014253 -0.005246 0.000000 0.000000 0.000000
# 3 -0.005245 -0.005246 0.018974 0.000000 0.000000 0.000000
# 4 0.000000 0.000000 0.000000 0.062548 0.000000 0.000000
# 5 0.000000 0.000000 0.000000 0.000000 0.062548 0.000000
# 6 0.000000 0.000000 0.000000 0.000000 0.000000 0.050932
#
#
# Mechanical properties :
#
#
# Convention : Reuss Voigt Hill
#
# Bulk Modulus (GPa) = 45.28341 45.44776 45.36558
# Shear Modulus (GPa) = 19.51090 20.63907 20.07499
#
# Velocity S-wave (km/s) = 3.32674 3.42156 3.37448
# Velocity P-wave (km/s) = 6.35943 6.43341 6.39653
#
# Compressibility (1/GPa) = 0.02208314
#
# Stress axis : x y z
#
# Youngs Moduli (GPa) = 70.16063 70.16027 52.70279
#
# Poissons Ratio (x) = 0.15489 0.27645
# Poissons Ratio (y) = 0.15489 0.27645
# Poissons Ratio (z) = 0.36803 0.36803
#
# Static dielectric constant tensor:
#      x y z
#    x 3.312930 0.000000 0.000000 
#    y 0.000000 3.312930 0.000000 
#    z 0.000000 0.000000 3.326160 
# 
# 
# High freq. dielectric constant tensor:
#      x y z
#    x 1.682710 0.000000 0.000000 
#    y 0.000000 1.682710 0.000000 
#    z 0.000000 0.000000 1.653930 
# 
# From -- ./inp_files/7573.got.cif
#   From: 2010.03.12/outbox.cif.g09.slc.cpg/sg139_4_cif.got.tgz:7573.got - 2010.04.08 09:46:31.
