data_PCOD8319877
_publ_section_title
;
Structure prediction by ZEFSAII (Michael W. Deem and Ramdas Pophale) SiO2 
 PCOD8319877
Probable space group: I 4/M M M
;
_chemical_formula_sum "Si O2"
_cell_formula_units_Z 192
_cell_length_a 27.099219
_cell_length_b 27.099219
_cell_length_c 14.004718
_cell_angle_alpha 90.000000
_cell_angle_beta 90.000000
_cell_angle_gamma 90.000000
_cell_volume 10284.612132
_symmetry_space_group_name_H-M "I 4/M M M"
_symmetry_group_IT_number 139
_symmetry_cell_setting 'tetragonal'
loop_
_space_group_symop_operation_xyz
x,y,z
-y,x,z
-x,-y,z
y,-x,z
x,-y,-z
-x,y,-z
y,x,-z
-y,-x,-z
-x,-y,-z
y,-x,-z
x,y,-z
-y,x,-z
-x,y,z
x,-y,z
-y,-x,z
y,x,z
1/2+x,1/2+y,1/2+z
1/2-y,1/2+x,1/2+z
1/2-x,1/2-y,1/2+z
1/2+y,1/2-x,1/2+z
1/2+x,1/2-y,1/2-z
1/2-x,1/2+y,1/2-z
1/2+y,1/2+x,1/2-z
1/2-y,1/2-x,1/2-z
1/2-x,1/2-y,1/2-z
1/2+y,1/2-x,1/2-z
1/2+x,1/2+y,1/2-z
1/2-y,1/2+x,1/2-z
1/2-x,1/2+y,1/2+z
1/2+x,1/2-y,1/2+z
1/2-y,1/2-x,1/2+z
1/2+y,1/2+x,1/2+z
loop_
_atom_site_type_symbol
_atom_site_label
_atom_site_fract_x
_atom_site_fract_y
_atom_site_fract_z
Si Si1 0.814411 0.104604 0.500000
Si Si2 0.374812 0.945012 0.794703
Si Si3 0.371693 0.198378 0.794858
Si Si4 0.703136 0.623526 0.696664
Si Si5 0.156141 0.445340 0.500000
Si Si6 0.347061 0.207553 0.000000
Si Si7 0.058706 0.859124 0.318572
Si Si8 0.135695 0.260319 0.000000
O O1 0.859316 0.140685 0.500000
O O2 0.765752 0.139862 0.500000
O O3 0.821241 0.070228 0.593990
O O4 0.424844 0.924844 0.750000
O O5 0.327059 0.917005 0.757117
O O6 0.378745 0.939270 0.908430
O O7 0.367986 0.000000 0.759512
O O8 0.320405 0.179596 0.750000
O O9 0.375387 0.256138 0.779267
O O10 0.372487 0.184379 0.906626
O O11 0.672673 0.672673 0.713478
O O12 0.668524 0.575911 0.719869
O O13 0.725802 0.625615 0.591019
O O14 0.180801 0.500000 0.500000
O O15 0.198391 0.405441 0.500000
O O16 0.288414 0.189764 0.000000
O O17 0.089095 0.910906 0.329319
O O18 0.000000 0.870348 0.313886
#
# Coordination Sequence:
#
# PCOD8319877 Si02
#       8
#    16  32  32  32  16  16  32  16
#     4  10  21  37  57  86 120 157 195 236 293 351
#     4  10  21  38  60  83 112 147 190 244 298 351
#     4  11  21  38  56  80 116 155 201 241 281 340
#     4  11  23  37  56  86 120 152 192 242 288 336
#     4  10  20  37  62  85 108 152 202 242 291 350
#     4  12  22  35  56  86 121 165 199 240 278 345
#     4  10  22  41  63  87 119 153 193 248 305 363
#     4  12  21  39  57  85 122 158 204 242 283 342
#
# _framework density 18.668668
#
# number of rings (size 3 to 8) (size 9 to 14) (size 15 to 20)
#    0.000    1.333    5.000    1.500    0.000    2.667 
#    0.000    1.667    0.000    3.000    0.000    0.000 
#    0.000    2.667    0.000    0.000    0.000    0.000 
#
# Total GULP energy -1189464.998504 kJ/mol
# GULP energy per Si atom -12390.260401 kJ/mol
# Density = 1.862618 g / cm^3
# Si number density = 18.668668 Si / 1000 Ang^3
#
#
#
# Elastic Constant Matrix: (Units=GPa)
#
#
# Indices 1 2 3 4 5 6 
#
# 1 107.2546 41.0388 46.8489 0.0000 0.0000 0.0000
# 2 41.0388 107.2557 46.8490 0.0000 0.0000 0.0000
# 3 46.8489 46.8490 139.1708 0.0000 0.0000 0.0000
# 4 0.0000 0.0000 0.0000 32.4559 0.0000 0.0000
# 5 0.0000 0.0000 0.0000 0.0000 32.4322 0.0000
# 6 0.0000 0.0000 0.0000 0.0000 0.0000 13.2511
#
#
#
# Elastic Compliance Matrix: (Units=1/GPa)
#
#
# Indices 1 2 3 4 5 6 
#
# 1 0.011834 -0.003268 -0.002883 0.000000 0.000000 0.000000
# 2 -0.003268 0.011833 -0.002883 0.000000 0.000000 0.000000
# 3 -0.002883 -0.002883 0.009127 0.000000 0.000000 0.000000
# 4 0.000000 0.000000 0.000000 0.030811 0.000000 0.000000
# 5 0.000000 0.000000 0.000000 0.000000 0.030834 0.000000
# 6 0.000000 0.000000 0.000000 0.000000 0.000000 0.075465
#
#
# Mechanical properties :
#
#
# Convention : Reuss Voigt Hill
#
# Bulk Modulus (GPa) = 67.91739 69.23938 68.57838
# Shear Modulus (GPa) = 25.92265 30.22415 28.07340
#
# Velocity S-wave (km/s) = 3.73039 4.02802 3.88206
# Velocity P-wave (km/s) = 7.41713 7.66827 7.54374
#
# Compressibility (1/GPa) = 0.01472377
#
# Stress axis : x y z
#
# Youngs Moduli (GPa) = 84.50487 84.50586 109.56985
#
# Poissons Ratio (x) = 0.27620 0.31592
# Poissons Ratio (y) = 0.27620 0.31592
# Poissons Ratio (z) = 0.24365 0.24365
#
# Static dielectric constant tensor:
#      x y z
#    x 3.427220 0.000000 0.000000 
#    y 0.000000 3.427230 0.000000 
#    z 0.000000 0.000000 3.747580 
# 
# 
# High freq. dielectric constant tensor:
#      x y z
#    x 1.714080 0.000000 0.000000 
#    y 0.000000 1.714080 0.000000 
#    z 0.000000 0.000000 1.741470 
# 
# From -- ./inp_files/6566.got.cif
#   From: 2010.03.12/outbox.cif.g09.slc.cpg/sg139_4_cif.got.tgz:6566.got - 2010.04.08 09:46:31.
