data_PCOD8319267
_publ_section_title
;
Structure prediction by ZEFSAII (Michael W. Deem and Ramdas Pophale) SiO2 
 PCOD8319267
Probable space group: I 4/M M M
;
_chemical_formula_sum "Si O2"
_cell_formula_units_Z 176
_cell_length_a 27.166406
_cell_length_b 27.166406
_cell_length_c 14.161884
_cell_angle_alpha 90.000000
_cell_angle_beta 90.000000
_cell_angle_gamma 90.000000
_cell_volume 10451.663205
_symmetry_space_group_name_H-M "I 4/M M M"
_symmetry_group_IT_number 139
_symmetry_cell_setting 'tetragonal'
loop_
_space_group_symop_operation_xyz
x,y,z
-y,x,z
-x,-y,z
y,-x,z
x,-y,-z
-x,y,-z
y,x,-z
-y,-x,-z
-x,-y,-z
y,-x,-z
x,y,-z
-y,x,-z
-x,y,z
x,-y,z
-y,-x,z
y,x,z
1/2+x,1/2+y,1/2+z
1/2-y,1/2+x,1/2+z
1/2-x,1/2-y,1/2+z
1/2+y,1/2-x,1/2+z
1/2+x,1/2-y,1/2-z
1/2-x,1/2+y,1/2-z
1/2+y,1/2+x,1/2-z
1/2-y,1/2-x,1/2-z
1/2-x,1/2-y,1/2-z
1/2+y,1/2-x,1/2-z
1/2+x,1/2+y,1/2-z
1/2-y,1/2+x,1/2-z
1/2-x,1/2+y,1/2+z
1/2+x,1/2-y,1/2+z
1/2-y,1/2-x,1/2+z
1/2+y,1/2+x,1/2+z
loop_
_atom_site_type_symbol
_atom_site_label
_atom_site_fract_x
_atom_site_fract_y
_atom_site_fract_z
Si Si1 0.835364 0.835364 0.394490
Si Si2 0.627970 0.372031 0.713434
Si Si3 0.117382 0.267882 0.392608
Si Si4 0.319908 0.554722 0.397452
Si Si5 0.803607 0.650795 0.390699
Si Si6 0.720136 0.943491 0.214230
Si Si7 0.201577 0.201577 0.888748
O O1 0.850488 0.850488 0.500000
O O2 0.868940 0.868940 0.326384
O O3 0.845943 0.778010 0.375250
O O4 0.574167 0.359591 0.676673
O O5 0.665716 0.334285 0.666134
O O6 0.097167 0.267010 0.500000
O O7 0.147981 0.317050 0.372398
O O8 0.070575 0.266319 0.322286
O O9 0.319645 0.582348 0.500000
O O10 0.336286 0.500000 0.415996
O O11 0.266860 0.558852 0.352494
O O12 0.798624 0.636117 0.500000
O O13 0.812892 0.600453 0.330301
O O14 0.756765 0.684475 0.358592
O O15 0.698175 0.000000 0.212089
O O16 0.196028 0.196028 0.000000
#
# Coordination Sequence:
#
# PCOD8319267 Si02
#       7
#    16  16  32  32  32  32  16
#     4  10  19  32  48  72 102 133 166 202 235 274
#     4  12  18  30  51  68  93 129 163 204 246 291
#     4  10  20  34  50  69  97 133 167 199 237 282
#     4  10  20  32  47  69  95 124 161 204 250 298
#     4  10  19  31  49  72  99 128 161 199 240 290
#     4  11  21  32  46  67  98 132 164 199 237 283
#     4  10  17  26  44  73  98 123 156 190 234 287
#
# _framework density 16.839424999999999
#
# number of rings (size 3 to 8) (size 9 to 14) (size 15 to 20)
#    0.000    1.636    3.636    2.455    0.000    3.636 
#    0.000    2.727    0.000    0.818    0.000    1.273 
#    0.000    5.818    0.000   16.818    0.000    0.091 
#
# Total GULP energy -1090303.405028 kJ/mol
# GULP energy per Si atom -12389.811421 kJ/mol
# Density = 1.680110 g / cm^3
# Si number density = 16.839425 Si / 1000 Ang^3
#
#
#
# Elastic Constant Matrix: (Units=GPa)
#
#
# Indices 1 2 3 4 5 6 
#
# 1 60.2396 24.6267 40.0452 0.0000 0.0000 0.0000
# 2 24.6267 60.2396 40.0452 0.0000 0.0000 0.0000
# 3 40.0452 40.0452 114.1485 0.0000 0.0000 0.0000
# 4 0.0000 0.0000 0.0000 20.2849 0.0000 0.0000
# 5 0.0000 0.0000 0.0000 0.0000 20.2849 0.0000
# 6 0.0000 0.0000 0.0000 0.0000 0.0000 11.7536
#
#
#
# Elastic Compliance Matrix: (Units=1/GPa)
#
#
# Indices 1 2 3 4 5 6 
#
# 1 0.022847 -0.005232 -0.006180 0.000000 0.000000 0.000000
# 2 -0.005232 0.022847 -0.006180 0.000000 0.000000 0.000000
# 3 -0.006180 -0.006180 0.013096 0.000000 0.000000 0.000000
# 4 0.000000 0.000000 0.000000 0.049298 0.000000 0.000000
# 5 0.000000 0.000000 0.000000 0.000000 0.049298 0.000000
# 6 0.000000 0.000000 0.000000 0.000000 0.000000 0.085080
#
#
# Mechanical properties :
#
#
# Convention : Reuss Voigt Hill
#
# Bulk Modulus (GPa) = 42.35862 49.34020 45.84941
# Shear Modulus (GPa) = 17.51193 19.12540 18.31866
#
# Velocity S-wave (km/s) = 3.22830 3.37375 3.30183
# Velocity P-wave (km/s) = 6.25340 6.67385 6.46704
#
# Compressibility (1/GPa) = 0.02360794
#
# Stress axis : x y z
#
# Youngs Moduli (GPa) = 43.76862 43.76862 76.35700
#
# Poissons Ratio (x) = 0.22901 0.47186
# Poissons Ratio (y) = 0.22901 0.47186
# Poissons Ratio (z) = 0.27048 0.27048
#
# Static dielectric constant tensor:
#      x y z
#    x 3.165240 0.000000 0.000000 
#    y 0.000000 3.165240 0.000000 
#    z 0.000000 0.000000 3.582960 
# 
# 
# High freq. dielectric constant tensor:
#      x y z
#    x 1.616270 0.000000 0.000000 
#    y 0.000000 1.616270 0.000000 
#    z 0.000000 0.000000 1.673420 
# 
# From -- ./inp_files/6432.got.cif
#   From: 2010.03.12/outbox.cif.g09.slc.cpg/sg139_4_cif.got.tgz:6432.got - 2010.04.08 09:46:31.
