data_PCOD8319038
_publ_section_title
;
Structure prediction by ZEFSAII (Michael W. Deem and Ramdas Pophale) SiO2 
 PCOD8319038
Probable space group: P 42/N C M
;
_chemical_formula_sum "Si O2"
_cell_formula_units_Z 96
_cell_length_a 15.025841
_cell_length_b 15.025841
_cell_length_c 19.981146
_cell_angle_alpha 90.000000
_cell_angle_beta 90.000000
_cell_angle_gamma 90.000000
_cell_volume 4511.261176
_symmetry_space_group_name_H-M "P 42/N C M"
_symmetry_group_IT_number 138
_space_group.IT_coordinate_system_code '2'
_symmetry_cell_setting 'tetragonal'
loop_
_space_group_symop_operation_xyz
x,y,z
1/2-y,x,1/2+z
1/2-x,1/2-y,z
y,1/2-x,1/2+z
1/2+x,-y,1/2-z
-x,1/2+y,1/2-z
1/2+y,1/2+x,-z
-y,-x,-z
-x,-y,-z
1/2+y,-x,1/2-z
1/2+x,1/2+y,-z
-y,1/2+x,1/2-z
1/2-x,y,1/2+z
x,1/2-y,1/2+z
1/2-y,1/2-x,z
y,x,z
loop_
_atom_site_type_symbol
_atom_site_label
_atom_site_fract_x
_atom_site_fract_y
_atom_site_fract_z
Si Si1 0.805240 0.950966 0.596862
Si Si2 0.893371 0.754235 0.237686
Si Si3 0.499493 0.357441 0.999027
Si Si4 0.913725 0.444854 0.859567
Si Si5 0.341810 0.643477 0.236737
Si Si6 0.720462 0.483008 0.864100
O O1 0.855945 0.855945 0.579891
O O2 0.759462 0.948481 0.669724
O O3 0.730186 0.982036 0.544914
O O4 0.878691 0.027972 0.595818
O O5 0.814455 0.685546 0.239321
O O6 0.854285 0.854285 0.238968
O O7 0.951175 0.737753 0.303037
O O8 0.432451 0.432451 0.972380
O O9 0.600459 0.399542 0.000000
O O10 0.473068 0.331976 0.074977
O O11 0.907221 0.413558 0.782266
O O12 0.815620 0.448675 0.891719
O O13 0.957859 0.542142 0.859592
O O14 0.246060 0.632750 0.272950
O O15 0.338327 0.599598 0.163314
#
# Coordination Sequence:
#
# PCOD8319038 Si02
#       6
#    16  16  16  16  16  16
#     4  10  22  43  66  89 127 176 223 264 321 395
#     4  10  20  36  62  94 126 165 215 264 312 374
#     4  11  27  46  65  94 130 169 215 268 331 397
#     4  10  21  37  62  94 126 165 213 264 315 373
#     4   9  19  35  59  90 125 164 208 254 311 377
#     4  11  22  38  62  95 130 165 208 264 324 374
#
# _framework density 21.280079000000001
#
# number of rings (size 3 to 8) (size 9 to 14) (size 15 to 20)
#    0.000    1.833    1.667    1.500    2.333    3.667 
#    0.000    4.167    0.000    0.000    0.000    0.000 
#    0.000    0.000    0.000    0.000    0.000    0.000 
#
# Total GULP energy -1189919.705515 kJ/mol
# GULP energy per Si atom -12394.996932 kJ/mol
# Density = 2.123165 g / cm^3
# Si number density = 21.280079 Si / 1000 Ang^3
#
#
#
# Elastic Constant Matrix: (Units=GPa)
#
#
# Indices 1 2 3 4 5 6 
#
# 1 68.5652 16.5311 30.2522 0.0000 0.0000 0.0000
# 2 16.5311 68.5662 30.2524 0.0000 0.0000 0.0000
# 3 30.2522 30.2524 97.0078 0.0000 0.0000 0.0000
# 4 0.0000 0.0000 0.0000 29.8567 0.0000 0.0000
# 5 0.0000 0.0000 0.0000 0.0000 29.8566 0.0000
# 6 0.0000 0.0000 0.0000 0.0000 0.0000 28.2226
#
#
#
# Elastic Compliance Matrix: (Units=1/GPa)
#
#
# Indices 1 2 3 4 5 6 
#
# 1 0.017159 -0.002059 -0.004709 0.000000 0.000000 0.000000
# 2 -0.002059 0.017159 -0.004709 0.000000 0.000000 0.000000
# 3 -0.004709 -0.004709 0.013245 0.000000 0.000000 0.000000
# 4 0.000000 0.000000 0.000000 0.033493 0.000000 0.000000
# 5 0.000000 0.000000 0.000000 0.000000 0.033493 0.000000
# 6 0.000000 0.000000 0.000000 0.000000 0.000000 0.035433
#
#
# Mechanical properties :
#
#
# Convention : Reuss Voigt Hill
#
# Bulk Modulus (GPa) = 40.63581 43.13451 41.88516
# Shear Modulus (GPa) = 27.60314 28.06073 27.83194
#
# Velocity S-wave (km/s) = 3.60548 3.63525 3.62040
# Velocity P-wave (km/s) = 6.03903 6.15905 6.09933
#
# Compressibility (1/GPa) = 0.02460884
#
# Stress axis : x y z
#
# Youngs Moduli (GPa) = 58.27919 58.28009 75.49813
#
# Poissons Ratio (x) = 0.12002 0.35551
# Poissons Ratio (y) = 0.12002 0.35550
# Poissons Ratio (z) = 0.27443 0.27443
#
# Static dielectric constant tensor:
#      x y z
#    x 4.099350 0.000000 0.000000 
#    y 0.000000 4.099350 0.000000 
#    z 0.000000 0.000000 3.627120 
# 
# 
# High freq. dielectric constant tensor:
#      x y z
#    x 1.842540 0.000000 0.000000 
#    y 0.000000 1.842540 0.000000 
#    z 0.000000 0.000000 1.811430 
# 
# From -- ./inp_files/6226.got.cif
#   From: 2010.03.12/outbox.cif.g09.slc.cpg/sg138_4_cif.got.tgz:6226.got - 2010.04.08 09:41:05.
