data_PCOD8319160
_publ_section_title
;
Structure prediction by ZEFSAII (Michael W. Deem and Ramdas Pophale) SiO2 
 PCOD8319160
Probable space group: P 42/N C M
;
_chemical_formula_sum "Si O2"
_cell_formula_units_Z 96
_cell_length_a 15.079620
_cell_length_b 15.079620
_cell_length_c 20.196147
_cell_angle_alpha 90.000000
_cell_angle_beta 90.000000
_cell_angle_gamma 90.000000
_cell_volume 4592.501622
_symmetry_space_group_name_H-M "P 42/N C M"
_symmetry_group_IT_number 138
_space_group.IT_coordinate_system_code '2'
_symmetry_cell_setting 'tetragonal'
loop_
_space_group_symop_operation_xyz
x,y,z
1/2-y,x,1/2+z
1/2-x,1/2-y,z
y,1/2-x,1/2+z
1/2+x,-y,1/2-z
-x,1/2+y,1/2-z
1/2+y,1/2+x,-z
-y,-x,-z
-x,-y,-z
1/2+y,-x,1/2-z
1/2+x,1/2+y,-z
-y,1/2+x,1/2-z
1/2-x,y,1/2+z
x,1/2-y,1/2+z
1/2-y,1/2-x,z
y,x,z
loop_
_atom_site_type_symbol
_atom_site_label
_atom_site_fract_x
_atom_site_fract_y
_atom_site_fract_z
Si Si1 0.230665 0.014585 0.242421
Si Si2 0.299106 0.959277 0.379427
Si Si3 0.973682 0.973682 0.782331
Si Si4 0.820895 0.679106 0.825228
Si Si5 0.042163 0.457838 0.152290
Si Si6 0.966792 0.533209 0.571649
Si Si7 0.379179 0.609550 0.426455
Si Si8 0.848786 0.269612 0.656356
O O1 0.126030 0.006246 0.238192
O O2 0.262085 0.108899 0.214795
O O3 0.268404 0.013478 0.315816
O O4 0.266184 0.925718 0.205503
O O5 0.214599 0.938177 0.422524
O O6 0.357222 0.873191 0.359086
O O7 0.361688 0.018452 0.425768
O O8 0.035455 0.035455 0.733448
O O9 0.990306 0.990306 0.860766
O O10 0.750000 0.750000 0.858326
O O11 0.884056 0.615945 0.870936
O O12 0.067605 0.553090 0.124835
O O13 0.000000 0.500000 0.500000
O O14 0.410974 0.589027 0.500000
O O15 0.363064 0.713596 0.411247
O O16 0.750000 0.250000 0.685834
#
# Coordination Sequence:
#
# PCOD8319160 Si02
#       8
#    16  16   8   8   8   8  16  16
#     4  12  23  43  68 102 141 176 240 300 357 423
#     4  11  25  41  66  99 140 179 233 287 363 430
#     4  12  24  44  74 104 133 183 241 300 354 419
#     4  12  26  41  67 103 143 188 233 291 364 435
#     4  12  23  48  69 103 134 178 240 304 354 418
#     4  12  28  44  68  99 147 196 229 282 369 460
#     4  11  25  42  70  98 136 179 226 292 359 431
#     4  10  24  36  64 103 136 173 225 294 360 421
#
# _framework density 20.903639999999999
#
# number of rings (size 3 to 8) (size 9 to 14) (size 15 to 20)
#    0.000    0.667    5.833    1.750    7.000    2.333 
#    0.000    0.000    0.000    0.000    0.000    0.000 
#    0.000    0.000    0.000    0.000    0.000    0.000 
#
# Total GULP energy -1189601.375979 kJ/mol
# GULP energy per Si atom -12391.681000 kJ/mol
# Density = 2.085606 g / cm^3
# Si number density = 20.903640 Si / 1000 Ang^3
#
#
#
# Elastic Constant Matrix: (Units=GPa)
#
#
# Indices 1 2 3 4 5 6 
#
# 1 97.4767 52.1196 34.6028 0.0000 0.0000 0.0000
# 2 52.1196 97.4768 34.6028 0.0000 0.0000 0.0000
# 3 34.6028 34.6028 121.7404 0.0000 0.0000 0.0000
# 4 0.0000 0.0000 0.0000 21.1950 0.0000 0.0000
# 5 0.0000 0.0000 0.0000 0.0000 21.1948 0.0000
# 6 0.0000 0.0000 0.0000 0.0000 0.0000 32.9522
#
#
#
# Elastic Compliance Matrix: (Units=1/GPa)
#
#
# Indices 1 2 3 4 5 6 
#
# 1 0.014872 -0.007175 -0.002188 0.000000 0.000000 0.000000
# 2 -0.007175 0.014872 -0.002188 0.000000 0.000000 0.000000
# 3 -0.002188 -0.002188 0.009458 0.000000 0.000000 0.000000
# 4 0.000000 0.000000 0.000000 0.047181 0.000000 0.000000
# 5 0.000000 0.000000 0.000000 0.000000 0.047181 0.000000
# 6 0.000000 0.000000 0.000000 0.000000 0.000000 0.030347
#
#
# Mechanical properties :
#
#
# Convention : Reuss Voigt Hill
#
# Bulk Modulus (GPa) = 62.10964 62.14936 62.12950
# Shear Modulus (GPa) = 25.99033 28.09298 27.04166
#
# Velocity S-wave (km/s) = 3.52993 3.66994 3.60061
# Velocity P-wave (km/s) = 6.81107 6.91042 6.86092
#
# Compressibility (1/GPa) = 0.01610056
#
# Stress axis : x y z
#
# Youngs Moduli (GPa) = 67.24056 67.24059 105.73262
#
# Poissons Ratio (x) = 0.48247 0.23131
# Poissons Ratio (y) = 0.48247 0.23131
# Poissons Ratio (z) = 0.14710 0.14710
#
# Static dielectric constant tensor:
#      x y z
#    x 4.061970 0.000000 0.000000 
#    y 0.000000 4.061970 0.000000 
#    z 0.000000 0.000000 3.475180 
# 
# 
# High freq. dielectric constant tensor:
#      x y z
#    x 1.832540 0.000000 0.000000 
#    y 0.000000 1.832540 0.000000 
#    z 0.000000 0.000000 1.788300 
# 
# From -- ./inp_files/6348.got.cif
#   From: 2010.03.12/outbox.cif.g09.slc.cpg/sg138_4_cif.got.tgz:6348.got - 2010.04.08 09:41:05.
