data_PCOD8319905
_publ_section_title
;
Structure prediction by ZEFSAII (Michael W. Deem and Ramdas Pophale) SiO2 
 PCOD8319905
Probable space group: I 4/M M M
;
_chemical_formula_sum "Si O2"
_cell_formula_units_Z 192
_cell_length_a 19.534246
_cell_length_b 19.534246
_cell_length_c 27.706959
_cell_angle_alpha 90.000000
_cell_angle_beta 90.000000
_cell_angle_gamma 90.000000
_cell_volume 10572.608902
_symmetry_space_group_name_H-M "I 4/M M M"
_symmetry_group_IT_number 139
_symmetry_cell_setting 'tetragonal'
loop_
_space_group_symop_operation_xyz
x,y,z
-y,x,z
-x,-y,z
y,-x,z
x,-y,-z
-x,y,-z
y,x,-z
-y,-x,-z
-x,-y,-z
y,-x,-z
x,y,-z
-y,x,-z
-x,y,z
x,-y,z
-y,-x,z
y,x,z
1/2+x,1/2+y,1/2+z
1/2-y,1/2+x,1/2+z
1/2-x,1/2-y,1/2+z
1/2+y,1/2-x,1/2+z
1/2+x,1/2-y,1/2-z
1/2-x,1/2+y,1/2-z
1/2+y,1/2+x,1/2-z
1/2-y,1/2-x,1/2-z
1/2-x,1/2-y,1/2-z
1/2+y,1/2-x,1/2-z
1/2+x,1/2+y,1/2-z
1/2-y,1/2+x,1/2-z
1/2-x,1/2+y,1/2+z
1/2+x,1/2-y,1/2+z
1/2-y,1/2-x,1/2+z
1/2+y,1/2+x,1/2+z
loop_
_atom_site_type_symbol
_atom_site_label
_atom_site_fract_x
_atom_site_fract_y
_atom_site_fract_z
Si Si1 0.797011 0.579149 0.444322
Si Si2 0.078226 0.811937 0.577752
Si Si3 0.317609 0.424771 0.186793
Si Si4 0.580955 0.695451 0.359508
Si Si5 0.575090 0.161504 0.946135
Si Si6 0.255826 0.140834 0.234231
O O1 0.780401 0.600508 0.500000
O O2 0.816769 0.500000 0.441203
O O3 0.731000 0.594936 0.411257
O O4 0.862153 0.620459 0.421975
O O5 0.127971 0.872030 0.558552
O O6 0.094818 0.793555 0.633240
O O7 0.092883 0.741928 0.549866
O O8 0.000000 0.836826 0.570121
O O9 0.347274 0.500000 0.187637
O O10 0.379787 0.379787 0.205330
O O11 0.256302 0.415950 0.224499
O O12 0.500000 0.678135 0.353195
O O13 0.624976 0.624976 0.356785
O O14 0.605098 0.749504 0.318234
O O15 0.500000 0.151276 0.920245
O O16 0.568927 0.132340 0.000000
O O17 0.201743 0.201743 0.237465
O O18 0.329934 0.170067 0.250000
#
# Coordination Sequence:
#
# PCOD8319905 Si02
#       6
#    32  32  32  32  32  32
#     4   9  19  35  54  78 107 137 172 217 270 328
#     4   9  18  30  45  67  96 129 164 203 244 291
#     4   9  17  29  45  66  93 124 160 200 242 290
#     4  10  21  36  55  79 108 142 182 227 272 323
#     4   9  18  32  50  73  99 128 167 214 262 312
#     4   9  18  31  48  71  97 128 164 204 251 304
#
# _framework density 18.160135
#
# number of rings (size 3 to 8) (size 9 to 14) (size 15 to 20)
#    0.000    2.833    0.000    0.500    2.333    2.167 
#    0.000    5.000    0.000    3.000    0.000    4.667 
#    0.000    3.000    0.000    0.000    0.000    0.000 
#
# Total GULP energy -1189338.531493 kJ/mol
# GULP energy per Si atom -12388.943036 kJ/mol
# Density = 1.811880 g / cm^3
# Si number density = 18.160135 Si / 1000 Ang^3
#
#
#
# Elastic Constant Matrix: (Units=GPa)
#
#
# Indices 1 2 3 4 5 6 
#
# 1 81.8942 58.1873 30.5246 0.0000 0.0000 0.0000
# 2 58.1873 81.8949 30.5241 0.0000 0.0000 0.0000
# 3 30.5246 30.5241 73.7914 0.0000 0.0000 0.0000
# 4 0.0000 0.0000 0.0000 24.3291 0.0000 0.0000
# 5 0.0000 0.0000 0.0000 0.0000 24.3290 0.0000
# 6 0.0000 0.0000 0.0000 0.0000 0.0000 26.3338
#
#
#
# Elastic Compliance Matrix: (Units=1/GPa)
#
#
# Indices 1 2 3 4 5 6 
#
# 1 0.025445 -0.016736 -0.003603 0.000000 0.000000 0.000000
# 2 -0.016736 0.025445 -0.003602 0.000000 0.000000 0.000000
# 3 -0.003603 -0.003602 0.016532 0.000000 0.000000 0.000000
# 4 0.000000 0.000000 0.000000 0.041103 0.000000 0.000000
# 5 0.000000 0.000000 0.000000 0.000000 0.041103 0.000000
# 6 0.000000 0.000000 0.000000 0.000000 0.000000 0.037974
#
#
# Mechanical properties :
#
#
# Convention : Reuss Voigt Hill
#
# Bulk Modulus (GPa) = 51.17780 52.89474 52.03627
# Shear Modulus (GPa) = 20.66136 22.88801 21.77469
#
# Velocity S-wave (km/s) = 3.37669 3.55398 3.46647
# Velocity P-wave (km/s) = 6.59130 6.78463 6.68866
#
# Compressibility (1/GPa) = 0.01953972
#
# Stress axis : x y z
#
# Youngs Moduli (GPa) = 39.30022 39.30086 60.48871
#
# Poissons Ratio (x) = 0.65775 0.21792
# Poissons Ratio (y) = 0.65774 0.21789
# Poissons Ratio (z) = 0.14158 0.14157
#
# Static dielectric constant tensor:
#      x y z
#    x 3.341020 0.000000 0.000000 
#    y 0.000000 3.341020 0.000000 
#    z 0.000000 0.000000 3.445200 
# 
# 
# High freq. dielectric constant tensor:
#      x y z
#    x 1.691310 0.000000 0.000000 
#    y 0.000000 1.691310 0.000000 
#    z 0.000000 0.000000 1.700730 
# 
# From -- ./inp_files/11953.got.cif
#   From: 2010.03.12/outbox.cif.g09.slc.cpg/sg139_6_cif.got.tgz:11953.got - 2010.04.08 09:46:31.
