data_PCOD8319468
_publ_section_title
;
Structure prediction by ZEFSAII (Michael W. Deem and Ramdas Pophale) SiO2 
 PCOD8319468
Probable space group: I 4/M M M
;
_chemical_formula_sum "Si O2"
_cell_formula_units_Z 192
_cell_length_a 20.623803
_cell_length_b 20.623803
_cell_length_c 25.141113
_cell_angle_alpha 90.000000
_cell_angle_beta 90.000000
_cell_angle_gamma 90.000000
_cell_volume 10693.552434
_symmetry_space_group_name_H-M "I 4/M M M"
_symmetry_group_IT_number 139
_symmetry_cell_setting 'tetragonal'
loop_
_space_group_symop_operation_xyz
x,y,z
-y,x,z
-x,-y,z
y,-x,z
x,-y,-z
-x,y,-z
y,x,-z
-y,-x,-z
-x,-y,-z
y,-x,-z
x,y,-z
-y,x,-z
-x,y,z
x,-y,z
-y,-x,z
y,x,z
1/2+x,1/2+y,1/2+z
1/2-y,1/2+x,1/2+z
1/2-x,1/2-y,1/2+z
1/2+y,1/2-x,1/2+z
1/2+x,1/2-y,1/2-z
1/2-x,1/2+y,1/2-z
1/2+y,1/2+x,1/2-z
1/2-y,1/2-x,1/2-z
1/2-x,1/2-y,1/2-z
1/2+y,1/2-x,1/2-z
1/2+x,1/2+y,1/2-z
1/2-y,1/2+x,1/2-z
1/2-x,1/2+y,1/2+z
1/2+x,1/2-y,1/2+z
1/2-y,1/2-x,1/2+z
1/2+y,1/2+x,1/2+z
loop_
_atom_site_type_symbol
_atom_site_label
_atom_site_fract_x
_atom_site_fract_y
_atom_site_fract_z
Si Si1 0.356870 0.074597 0.201181
Si Si2 0.575542 0.072072 0.909286
Si Si3 0.825295 0.928095 0.437264
Si Si4 0.145222 0.303012 0.559436
Si Si5 0.926534 0.178543 0.059838
Si Si6 0.744490 0.152387 0.140197
O O1 0.394447 0.105553 0.250000
O O2 0.405866 0.078369 0.152227
O O3 0.293018 0.118194 0.188850
O O4 0.336957 0.000000 0.213479
O O5 0.500000 0.083859 0.915611
O O6 0.611605 0.126614 0.943159
O O7 0.594683 0.000000 0.930269
O O8 0.834396 0.931155 0.500000
O O9 0.878615 0.878615 0.412762
O O10 0.752665 0.905172 0.423318
O O11 0.835606 0.000000 0.412682
O O12 0.172855 0.288432 0.500000
O O13 0.200668 0.300566 0.603936
O O14 0.886636 0.113364 0.068852
O O15 0.905081 0.233160 0.101133
O O16 0.000000 0.159722 0.071193
O O17 0.916652 0.205828 0.000000
O O18 0.804388 0.195613 0.162482
#
# Coordination Sequence:
#
# PCOD8319468 Si02
#       6
#    32  32  32  32  32  32
#     4  10  20  34  53  74  95 121 154 195 244 296
#     4   9  18  31  46  67  95 127 164 203 244 292
#     4   9  17  28  42  60  82 111 148 190 236 283
#     4  10  19  30  45  66  95 130 165 199 237 284
#     4   9  17  29  46  69  99 136 175 213 250 286
#     4  10  20  33  49  70  97 128 162 199 239 287
#
# _framework density 17.954744999999999
#
# number of rings (size 3 to 8) (size 9 to 14) (size 15 to 20)
#    0.000    2.500    0.000    2.500    0.000    5.167 
#    0.000    2.500    0.000    0.000    0.000    0.000 
#    0.000    0.000    0.000    0.000    0.000   30.667 
#
# Total GULP energy -1190066.194673 kJ/mol
# GULP energy per Si atom -12396.522861 kJ/mol
# Density = 1.791388 g / cm^3
# Si number density = 17.954745 Si / 1000 Ang^3
#
#
#
# Elastic Constant Matrix: (Units=GPa)
#
#
# Indices 1 2 3 4 5 6 
#
# 1 100.2904 43.8308 23.4256 0.0000 0.0000 0.0000
# 2 43.8308 100.2915 23.4262 0.0000 0.0000 0.0000
# 3 23.4256 23.4262 50.3038 0.0000 0.0000 0.0000
# 4 0.0000 0.0000 0.0000 18.5687 0.0000 0.0000
# 5 0.0000 0.0000 0.0000 0.0000 18.5687 0.0000
# 6 0.0000 0.0000 0.0000 0.0000 0.0000 27.5638
#
#
#
# Elastic Compliance Matrix: (Units=1/GPa)
#
#
# Indices 1 2 3 4 5 6 
#
# 1 0.012944 -0.004768 -0.003808 0.000000 0.000000 0.000000
# 2 -0.004768 0.012944 -0.003808 0.000000 0.000000 0.000000
# 3 -0.003808 -0.003808 0.023426 0.000000 0.000000 0.000000
# 4 0.000000 0.000000 0.000000 0.053854 0.000000 0.000000
# 5 0.000000 0.000000 0.000000 0.000000 0.053854 0.000000
# 6 0.000000 0.000000 0.000000 0.000000 0.000000 0.036279
#
#
# Mechanical properties :
#
#
# Convention : Reuss Voigt Hill
#
# Bulk Modulus (GPa) = 40.73695 48.02789 44.38242
# Shear Modulus (GPa) = 22.09950 23.62045 22.85998
#
# Velocity S-wave (km/s) = 3.51215 3.63099 3.57206
# Velocity P-wave (km/s) = 6.25978 6.66230 6.46418
#
# Compressibility (1/GPa) = 0.02454774
#
# Stress axis : x y z
#
# Youngs Moduli (GPa) = 77.25562 77.25610 42.68842
#
# Poissons Ratio (x) = 0.36833 0.16254
# Poissons Ratio (y) = 0.36833 0.16255
# Poissons Ratio (z) = 0.29416 0.29417
#
# Static dielectric constant tensor:
#      x y z
#    x 3.471470 0.000000 0.000000 
#    y 0.000000 3.471470 0.000000 
#    z 0.000000 0.000000 2.933820 
# 
# 
# High freq. dielectric constant tensor:
#      x y z
#    x 1.702480 0.000000 0.000000 
#    y 0.000000 1.702480 0.000000 
#    z 0.000000 0.000000 1.649460 
# 
# From -- ./inp_files/11923.got.cif
#   From: 2010.03.12/outbox.cif.g09.slc.cpg/sg139_6_cif.got.tgz:11923.got - 2010.04.08 09:46:31.
