data_PCOD8319819
_publ_section_title
;
Structure prediction by ZEFSAII (Michael W. Deem and Ramdas Pophale) SiO2 
 PCOD8319819
Probable space group: I 4/M M M
;
_chemical_formula_sum "Si O2"
_cell_formula_units_Z 240
_cell_length_a 20.088492
_cell_length_b 20.088492
_cell_length_c 31.773596
_cell_angle_alpha 90.000000
_cell_angle_beta 90.000000
_cell_angle_gamma 90.000000
_cell_volume 12822.155576
_symmetry_space_group_name_H-M "I 4/M M M"
_symmetry_group_IT_number 139
_symmetry_cell_setting 'tetragonal'
loop_
_space_group_symop_operation_xyz
x,y,z
-y,x,z
-x,-y,z
y,-x,z
x,-y,-z
-x,y,-z
y,x,-z
-y,-x,-z
-x,-y,-z
y,-x,-z
x,y,-z
-y,x,-z
-x,y,z
x,-y,z
-y,-x,z
y,x,z
1/2+x,1/2+y,1/2+z
1/2-y,1/2+x,1/2+z
1/2-x,1/2-y,1/2+z
1/2+y,1/2-x,1/2+z
1/2+x,1/2-y,1/2-z
1/2-x,1/2+y,1/2-z
1/2+y,1/2+x,1/2-z
1/2-y,1/2-x,1/2-z
1/2-x,1/2-y,1/2-z
1/2+y,1/2-x,1/2-z
1/2+x,1/2+y,1/2-z
1/2-y,1/2+x,1/2-z
1/2-x,1/2+y,1/2+z
1/2+x,1/2-y,1/2+z
1/2-y,1/2-x,1/2+z
1/2+y,1/2+x,1/2+z
loop_
_atom_site_type_symbol
_atom_site_label
_atom_site_fract_x
_atom_site_fract_y
_atom_site_fract_z
Si Si1 0.690702 0.422850 0.500000
Si Si2 0.373129 0.734504 0.584655
Si Si3 0.310004 0.128101 0.399452
Si Si4 0.577330 0.158443 0.810573
Si Si5 0.572976 0.077949 0.546018
Si Si6 0.302789 0.924634 0.218938
Si Si7 0.184802 0.075111 0.166128
Si Si8 0.315035 0.576787 0.951262
O O1 0.666571 0.500000 0.500000
O O2 0.625187 0.374814 0.500000
O O3 0.740095 0.409909 0.460305
O O4 0.332222 0.667779 0.582422
O O5 0.321676 0.793616 0.595457
O O6 0.426473 0.723675 0.621559
O O7 0.301570 0.103403 0.351359
O O8 0.375894 0.094639 0.417648
O O9 0.244397 0.106726 0.424047
O O10 0.500000 0.135030 0.816225
O O11 0.626993 0.097782 0.801141
O O12 0.583884 0.204509 0.769206
O O13 0.596290 0.104878 0.500000
O O14 0.500000 0.107968 0.557324
O O15 0.566719 0.000000 0.543325
O O16 0.237135 0.890920 0.198918
O O17 0.298957 0.000000 0.204578
O O18 0.118087 0.118087 0.166064
O O19 0.163937 0.000000 0.178073
O O20 0.327886 0.500000 0.939024
O O21 0.382567 0.617434 0.941825
O O22 0.294408 0.583203 0.000000
#
# Coordination Sequence:
#
# PCOD8319819 Si02
#       8
#    16  32  32  32  32  32  32  32
#     4  10  22  39  58  82 113 149 194 242 288 340
#     4  10  22  37  54  80 112 148 186 230 279 331
#     4  12  21  34  55  82 114 149 192 231 277 340
#     4  10  20  34  55  82 112 147 190 233 277 336
#     4   9  19  33  46  67 104 146 186 228 271 318
#     4   9  19  37  56  78 112 148 184 234 288 339
#     4  10  20  38  61  85 114 147 188 237 290 344
#     4  10  22  39  60  85 113 148 191 241 295 346
#
# _framework density 18.717601999999999
#
# number of rings (size 3 to 8) (size 9 to 14) (size 15 to 20)
#    0.000    2.000    1.333    2.800    1.867    3.267 
#    0.000    4.667    0.000    2.400    0.000    0.000 
#    0.000    3.200    0.000    0.000    0.000    0.000 
#
# Total GULP energy -1487021.368508 kJ/mol
# GULP energy per Si atom -12391.844738 kJ/mol
# Density = 1.867500 g / cm^3
# Si number density = 18.717602 Si / 1000 Ang^3
#
#
#
# Elastic Constant Matrix: (Units=GPa)
#
#
# Indices 1 2 3 4 5 6 
#
# 1 94.6433 38.1681 44.9578 0.0000 0.0000 0.0000
# 2 38.1681 94.6435 44.9578 0.0000 0.0000 0.0000
# 3 44.9578 44.9578 117.8951 0.0000 0.0000 0.0000
# 4 0.0000 0.0000 0.0000 25.1655 0.0000 0.0000
# 5 0.0000 0.0000 0.0000 0.0000 25.1656 0.0000
# 6 0.0000 0.0000 0.0000 0.0000 0.0000 24.7576
#
#
#
# Elastic Compliance Matrix: (Units=1/GPa)
#
#
# Indices 1 2 3 4 5 6 
#
# 1 0.013928 -0.003778 -0.003871 0.000000 0.000000 0.000000
# 2 -0.003778 0.013928 -0.003871 0.000000 0.000000 0.000000
# 3 -0.003871 -0.003871 0.011434 0.000000 0.000000 0.000000
# 4 0.000000 0.000000 0.000000 0.039737 0.000000 0.000000
# 5 0.000000 0.000000 0.000000 0.000000 0.039737 0.000000
# 6 0.000000 0.000000 0.000000 0.000000 0.000000 0.040392
#
#
# Mechanical properties :
#
#
# Convention : Reuss Voigt Hill
#
# Bulk Modulus (GPa) = 61.53196 62.59437 62.06317
# Shear Modulus (GPa) = 26.65070 26.95764 26.80417
#
# Velocity S-wave (km/s) = 3.77746 3.79915 3.78832
# Velocity P-wave (km/s) = 7.20908 7.26353 7.23635
#
# Compressibility (1/GPa) = 0.01625172
#
# Stress axis : x y z
#
# Youngs Moduli (GPa) = 71.79583 71.79600 87.45794
#
# Poissons Ratio (x) = 0.27128 0.33851
# Poissons Ratio (y) = 0.27128 0.33851
# Poissons Ratio (z) = 0.27789 0.27789
#
# Static dielectric constant tensor:
#      x y z
#    x 3.518560 0.000000 0.000000 
#    y 0.000000 3.518560 0.000000 
#    z 0.000000 0.000000 3.928850 
# 
# 
# High freq. dielectric constant tensor:
#      x y z
#    x 1.718950 0.000000 0.000000 
#    y 0.000000 1.718950 0.000000 
#    z 0.000000 0.000000 1.734500 
# 
# From -- ./inp_files/14669.got.cif
#   From: 2010.03.12/outbox.cif.g09.slc.cpg/sg139_8_cif.got.tgz:14669.got - 2010.04.08 09:46:31.
