data_PCOD8319587
_publ_section_title
;
Structure prediction by ZEFSAII (Michael W. Deem and Ramdas Pophale) SiO2 
 PCOD8319587
Probable space group: I 4/M M M
;
_chemical_formula_sum "Si O2"
_cell_formula_units_Z 192
_cell_length_a 20.226838
_cell_length_b 20.226838
_cell_length_c 26.733686
_cell_angle_alpha 90.000000
_cell_angle_beta 90.000000
_cell_angle_gamma 90.000000
_cell_volume 10937.418629
_symmetry_space_group_name_H-M "I 4/M M M"
_symmetry_group_IT_number 139
_symmetry_cell_setting 'tetragonal'
loop_
_space_group_symop_operation_xyz
x,y,z
-y,x,z
-x,-y,z
y,-x,z
x,-y,-z
-x,y,-z
y,x,-z
-y,-x,-z
-x,-y,-z
y,-x,-z
x,y,-z
-y,x,-z
-x,y,z
x,-y,z
-y,-x,z
y,x,z
1/2+x,1/2+y,1/2+z
1/2-y,1/2+x,1/2+z
1/2-x,1/2-y,1/2+z
1/2+y,1/2-x,1/2+z
1/2+x,1/2-y,1/2-z
1/2-x,1/2+y,1/2-z
1/2+y,1/2+x,1/2-z
1/2-y,1/2-x,1/2-z
1/2-x,1/2-y,1/2-z
1/2+y,1/2-x,1/2-z
1/2+x,1/2+y,1/2-z
1/2-y,1/2+x,1/2-z
1/2-x,1/2+y,1/2+z
1/2+x,1/2-y,1/2+z
1/2-y,1/2-x,1/2+z
1/2+y,1/2+x,1/2+z
loop_
_atom_site_type_symbol
_atom_site_label
_atom_site_fract_x
_atom_site_fract_y
_atom_site_fract_z
Si Si1 0.920844 0.315142 0.231922
Si Si2 0.678422 0.425203 0.555298
Si Si3 0.424960 0.317419 0.791112
Si Si4 0.667301 0.221457 0.054427
Si Si5 0.322166 0.573623 0.908636
Si Si6 0.760686 0.347608 0.364589
O O1 0.880768 0.380768 0.250000
O O2 0.907588 0.254674 0.269679
O O3 0.891046 0.290168 0.179765
O O4 0.000000 0.330985 0.227738
O O5 0.711690 0.415885 0.500000
O O6 0.668223 0.500000 0.569704
O O7 0.606146 0.393854 0.554600
O O8 0.720559 0.393867 0.598752
O O9 0.500000 0.338571 0.775939
O O10 0.373575 0.373575 0.771127
O O11 0.418312 0.309635 0.849991
O O12 0.727504 0.272497 0.055583
O O13 0.597818 0.257978 0.061677
O O14 0.676806 0.174090 0.101805
O O15 0.666156 0.185420 0.000000
O O16 0.336990 0.500000 0.925060
O O17 0.385579 0.614422 0.925853
O O18 0.714178 0.285823 0.346059
#
# Coordination Sequence:
#
# PCOD8319587 Si02
#       6
#    32  32  32  32  32  32
#     4  11  23  37  54  75  98 126 163 208 258 310
#     4   9  17  29  46  70 102 138 171 201 233 272
#     4   9  18  32  50  75 106 137 170 205 241 287
#     4   9  17  29  46  69  96 125 158 197 241 286
#     4   9  17  29  45  66  95 130 164 197 233 276
#     4  10  19  32  52  75  98 124 158 201 247 294
#
# _framework density 17.554416
#
# number of rings (size 3 to 8) (size 9 to 14) (size 15 to 20)
#    0.000    2.500    0.000    2.500    0.000    5.667 
#    0.000    2.500    0.000    0.000    0.000    4.667 
#    0.000    0.000    0.000   16.000    0.000    0.667 
#
# Total GULP energy -1189455.692454 kJ/mol
# GULP energy per Si atom -12390.163463 kJ/mol
# Density = 1.751446 g / cm^3
# Si number density = 17.554416 Si / 1000 Ang^3
#
#
#
# Elastic Constant Matrix: (Units=GPa)
#
#
# Indices 1 2 3 4 5 6 
#
# 1 84.4771 58.0767 23.5658 0.0000 0.0000 0.0000
# 2 58.0767 84.4771 23.5658 0.0000 0.0000 0.0000
# 3 23.5658 23.5658 34.9125 0.0000 0.0000 0.0000
# 4 0.0000 0.0000 0.0000 22.6919 0.0000 0.0000
# 5 0.0000 0.0000 0.0000 0.0000 22.6919 0.0000
# 6 0.0000 0.0000 0.0000 0.0000 0.0000 19.7725
#
#
#
# Elastic Compliance Matrix: (Units=1/GPa)
#
#
# Indices 1 2 3 4 5 6 
#
# 1 0.023454 -0.014424 -0.006095 0.000000 0.000000 0.000000
# 2 -0.014424 0.023454 -0.006095 0.000000 0.000000 0.000000
# 3 -0.006095 -0.006095 0.036872 0.000000 0.000000 0.000000
# 4 0.000000 0.000000 0.000000 0.044069 0.000000 0.000000
# 5 0.000000 0.000000 0.000000 0.000000 0.044069 0.000000
# 6 0.000000 0.000000 0.000000 0.000000 0.000000 0.050575
#
#
# Mechanical properties :
#
#
# Convention : Reuss Voigt Hill
#
# Bulk Modulus (GPa) = 32.73247 46.03147 39.38197
# Shear Modulus (GPa) = 17.48830 19.60848 18.54839
#
# Velocity S-wave (km/s) = 3.15974 3.34580 3.25410
# Velocity P-wave (km/s) = 5.65674 6.41910 6.04994
#
# Compressibility (1/GPa) = 0.03055070
#
# Stress axis : x y z
#
# Youngs Moduli (GPa) = 42.63622 42.63622 27.12112
#
# Poissons Ratio (x) = 0.61499 0.16531
# Poissons Ratio (y) = 0.61499 0.16531
# Poissons Ratio (z) = 0.25988 0.25988
#
# Static dielectric constant tensor:
#      x y z
#    x 3.312600 0.000000 0.000000 
#    y 0.000000 3.312600 0.000000 
#    z 0.000000 0.000000 3.353800 
# 
# 
# High freq. dielectric constant tensor:
#      x y z
#    x 1.665480 0.000000 0.000000 
#    y 0.000000 1.665480 0.000000 
#    z 0.000000 0.000000 1.688210 
# 
# From -- ./inp_files/11950.got.cif
#   From: 2010.03.12/outbox.cif.g09.slc.cpg/sg139_6_cif.got.tgz:11950.got - 2010.04.08 09:46:31.
