data_PCOD8319891
_publ_section_title
;
Structure prediction by ZEFSAII (Michael W. Deem and Ramdas Pophale) SiO2 
 PCOD8319891
Probable space group: I 4/M M M
;
_chemical_formula_sum "Si O2"
_cell_formula_units_Z 240
_cell_length_a 20.777428
_cell_length_b 20.777428
_cell_length_c 28.245636
_cell_angle_alpha 90.000000
_cell_angle_beta 90.000000
_cell_angle_gamma 90.000000
_cell_volume 12193.683833
_symmetry_space_group_name_H-M "I 4/M M M"
_symmetry_group_IT_number 139
_symmetry_cell_setting 'tetragonal'
loop_
_space_group_symop_operation_xyz
x,y,z
-y,x,z
-x,-y,z
y,-x,z
x,-y,-z
-x,y,-z
y,x,-z
-y,-x,-z
-x,-y,-z
y,-x,-z
x,y,-z
-y,x,-z
-x,y,z
x,-y,z
-y,-x,z
y,x,z
1/2+x,1/2+y,1/2+z
1/2-y,1/2+x,1/2+z
1/2-x,1/2-y,1/2+z
1/2+y,1/2-x,1/2+z
1/2+x,1/2-y,1/2-z
1/2-x,1/2+y,1/2-z
1/2+y,1/2+x,1/2-z
1/2-y,1/2-x,1/2-z
1/2-x,1/2-y,1/2-z
1/2+y,1/2-x,1/2-z
1/2+x,1/2+y,1/2-z
1/2-y,1/2+x,1/2-z
1/2-x,1/2+y,1/2+z
1/2+x,1/2-y,1/2+z
1/2-y,1/2-x,1/2+z
1/2+y,1/2+x,1/2+z
loop_
_atom_site_type_symbol
_atom_site_label
_atom_site_fract_x
_atom_site_fract_y
_atom_site_fract_z
Si Si1 0.182883 0.924504 0.944691
Si Si2 0.258427 0.637879 0.920403
Si Si3 0.428887 0.321416 0.000000
Si Si4 0.825430 0.928042 0.342264
Si Si5 0.276236 0.828639 0.797312
Si Si6 0.570273 0.074385 0.052251
Si Si7 0.071972 0.173261 0.232802
Si Si8 0.313102 0.127907 0.101913
O O1 0.120583 0.879417 0.932219
O O2 0.244360 0.901938 0.913588
O O3 0.167253 0.000000 0.933199
O O4 0.200395 0.917268 0.000000
O O5 0.306468 0.693533 0.933912
O O6 0.274289 0.579271 0.955127
O O7 0.267557 0.610976 0.867050
O O8 0.189572 0.669271 0.929652
O O9 0.500000 0.350232 0.000000
O O10 0.382300 0.382300 0.000000
O O11 0.893249 0.893249 0.352830
O O12 0.808023 0.927806 0.287503
O O13 0.832077 0.000000 0.362109
O O14 0.238445 0.761556 0.806704
O O15 0.320267 0.820267 0.750000
O O16 0.226840 0.887067 0.793071
O O17 0.316262 0.849090 0.843425
O O18 0.500000 0.104058 0.068029
O O19 0.626512 0.081884 0.091468
O O20 0.559763 0.000000 0.046630
O O21 0.589708 0.102125 0.000000
O O22 0.102930 0.102930 0.224705
O O23 0.000000 0.171953 0.211764
#
# Coordination Sequence:
#
# PCOD8319891 Si02
#       8
#    32  32  16  32  32  32  32  32
#     4  10  22  39  61  91 126 161 199 242 291 354
#     4  10  21  34  48  72 106 140 175 227 286 331
#     4  10  22  37  52  74 107 147 188 230 278 336
#     4   9  17  31  50  72 102 140 184 234 289 347
#     4  10  21  38  57  78 108 147 192 238 289 348
#     4   9  20  39  60  84 116 151 186 226 278 342
#     4   9  18  32  52  78 107 140 178 226 282 342
#     4  12  22  35  60  89 111 147 194 244 289 344
#
# _framework density 19.682321000000002
#
# number of rings (size 3 to 8) (size 9 to 14) (size 15 to 20)
#    0.000    2.133    0.000    3.600    1.867    5.800 
#    0.000    2.667    0.000    2.400    0.000    2.800 
#    0.000    0.000    0.000    0.000    0.000    0.000 
#
# Total GULP energy -1486847.058061 kJ/mol
# GULP energy per Si atom -12390.392151 kJ/mol
# Density = 1.963752 g / cm^3
# Si number density = 19.682321 Si / 1000 Ang^3
#
#
#
# Elastic Constant Matrix: (Units=GPa)
#
#
# Indices 1 2 3 4 5 6 
#
# 1 109.5609 37.0349 37.0669 0.0000 0.0000 0.0000
# 2 37.0349 109.5609 37.0669 0.0000 0.0000 0.0000
# 3 37.0669 37.0669 76.0308 0.0000 0.0000 0.0000
# 4 0.0000 0.0000 0.0000 32.3393 0.0000 0.0000
# 5 0.0000 0.0000 0.0000 0.0000 32.3393 0.0000
# 6 0.0000 0.0000 0.0000 0.0000 0.0000 19.9455
#
#
#
# Elastic Compliance Matrix: (Units=1/GPa)
#
#
# Indices 1 2 3 4 5 6 
#
# 1 0.011421 -0.002367 -0.004414 0.000000 0.000000 0.000000
# 2 -0.002367 0.011421 -0.004414 0.000000 0.000000 0.000000
# 3 -0.004414 -0.004414 0.017456 0.000000 0.000000 0.000000
# 4 0.000000 0.000000 0.000000 0.030922 0.000000 0.000000
# 5 0.000000 0.000000 0.000000 0.000000 0.030922 0.000000
# 6 0.000000 0.000000 0.000000 0.000000 0.000000 0.050137
#
#
# Mechanical properties :
#
#
# Convention : Reuss Voigt Hill
#
# Bulk Modulus (GPa) = 55.84080 57.49890 56.66985
# Shear Modulus (GPa) = 27.67962 29.19039 28.43501
#
# Velocity S-wave (km/s) = 3.75416 3.85525 3.80504
# Velocity P-wave (km/s) = 6.87199 7.00672 6.93968
#
# Compressibility (1/GPa) = 0.01790805
#
# Stress axis : x y z
#
# Youngs Moduli (GPa) = 87.55906 87.55906 57.28599
#
# Poissons Ratio (x) = 0.20728 0.25285
# Poissons Ratio (y) = 0.20728 0.25285
# Poissons Ratio (z) = 0.38647 0.38647
#
# Static dielectric constant tensor:
#      x y z
#    x 3.701510 0.000000 0.000000 
#    y 0.000000 3.701510 0.000000 
#    z 0.000000 0.000000 3.534450 
# 
# 
# High freq. dielectric constant tensor:
#      x y z
#    x 1.763490 0.000000 0.000000 
#    y 0.000000 1.763490 0.000000 
#    z 0.000000 0.000000 1.760370 
# 
# From -- ./inp_files/13427.got.cif
#   From: 2010.03.12/outbox.cif.g09.slc.cpg/sg139_7_cif.got.tgz:13427.got - 2010.04.08 09:46:31.
