data_PCOD8319004
_publ_section_title
;
Structure prediction by ZEFSAII (Michael W. Deem and Ramdas Pophale) SiO2 
 PCOD8319004
Probable space group: P 42/N C M
;
_chemical_formula_sum "Si O2"
_cell_formula_units_Z 96
_cell_length_a 15.826294
_cell_length_b 15.826294
_cell_length_c 21.996566
_cell_angle_alpha 90.000000
_cell_angle_beta 90.000000
_cell_angle_gamma 90.000000
_cell_volume 5509.514680
_symmetry_space_group_name_H-M "P 42/N C M"
_symmetry_group_IT_number 138
_space_group.IT_coordinate_system_code '2'
_symmetry_cell_setting 'tetragonal'
loop_
_space_group_symop_operation_xyz
x,y,z
1/2-y,x,1/2+z
1/2-x,1/2-y,z
y,1/2-x,1/2+z
1/2+x,-y,1/2-z
-x,1/2+y,1/2-z
1/2+y,1/2+x,-z
-y,-x,-z
-x,-y,-z
1/2+y,-x,1/2-z
1/2+x,1/2+y,-z
-y,1/2+x,1/2-z
1/2-x,y,1/2+z
x,1/2-y,1/2+z
1/2-y,1/2-x,z
y,x,z
loop_
_atom_site_type_symbol
_atom_site_label
_atom_site_fract_x
_atom_site_fract_y
_atom_site_fract_z
Si Si1 0.959514 0.959514 0.076697
Si Si2 0.508857 0.244239 0.564735
Si Si3 0.907772 0.307021 0.953175
Si Si4 0.098231 0.401770 0.542668
Si Si5 0.847799 0.153442 0.753244
Si Si6 0.453083 0.904566 0.861051
Si Si7 0.613175 0.363408 0.886824
O O1 0.014735 0.890204 0.112136
O O2 0.903757 0.903757 0.030201
O O3 0.027669 0.027669 0.054635
O O4 0.513704 0.280841 0.495986
O O5 0.423134 0.189983 0.570311
O O6 0.506837 0.316398 0.615801
O O7 0.586281 0.178114 0.570248
O O8 0.935594 0.385759 0.911230
O O9 0.877082 0.233625 0.907659
O O10 0.832754 0.332754 0.000000
O O11 0.751974 0.134391 0.735682
O O12 0.909389 0.111351 0.703872
O O13 0.860549 0.113254 0.818849
O O14 0.525410 0.974591 0.853283
#
# Coordination Sequence:
#
# PCOD8319004 Si02
#       7
#     8  16  16   8  16  16  16
#     4   9  18  28  52  82 116 142 167 226 274 337
#     4  10  20  34  56  82 113 147 180 227 277 331
#     4  10  21  32  54  80 112 149 177 221 282 337
#     4   9  16  32  51  84 114 140 175 222 277 326
#     4  11  22  37  57  80 110 141 180 231 277 325
#     4  11  24  40  53  78 114 151 189 224 270 330
#     4  11  19  34  52  85 116 140 181 224 284 330
#
# _framework density 17.424402000000001
#
# number of rings (size 3 to 8) (size 9 to 14) (size 15 to 20)
#    0.000    1.667    5.000    0.500    1.167    7.667 
#    0.000    0.417    0.000    0.000    0.000    0.583 
#    0.000    0.000    0.000    0.000    0.000    0.000 
#
# Total GULP energy -1189535.033853 kJ/mol
# GULP energy per Si atom -12390.989936 kJ/mol
# Density = 1.738474 g / cm^3
# Si number density = 17.424402 Si / 1000 Ang^3
#
#
#
# Elastic Constant Matrix: (Units=GPa)
#
#
# Indices 1 2 3 4 5 6 
#
# 1 70.9008 61.9184 22.3090 0.0000 0.0000 0.0000
# 2 61.9184 70.9008 22.3090 0.0000 0.0000 0.0000
# 3 22.3090 22.3090 79.5813 0.0000 0.0000 0.0000
# 4 0.0000 0.0000 0.0000 18.8467 0.0000 0.0000
# 5 0.0000 0.0000 0.0000 0.0000 18.8467 0.0000
# 6 0.0000 0.0000 0.0000 0.0000 0.0000 27.6952
#
#
#
# Elastic Compliance Matrix: (Units=1/GPa)
#
#
# Indices 1 2 3 4 5 6 
#
# 1 0.059820 -0.051508 -0.002330 0.000000 0.000000 0.000000
# 2 -0.051508 0.059820 -0.002330 0.000000 0.000000 0.000000
# 3 -0.002330 -0.002330 0.013872 0.000000 0.000000 0.000000
# 4 0.000000 0.000000 0.000000 0.053060 0.000000 0.000000
# 5 0.000000 0.000000 0.000000 0.000000 0.053060 0.000000
# 6 0.000000 0.000000 0.000000 0.000000 0.000000 0.036107
#
#
# Mechanical properties :
#
#
# Convention : Reuss Voigt Hill
#
# Bulk Modulus (GPa) = 47.22433 48.27282 47.74858
# Shear Modulus (GPa) = 12.65390 20.73414 16.69402
#
# Velocity S-wave (km/s) = 2.69777 3.45331 3.09865
# Velocity P-wave (km/s) = 6.07167 6.60793 6.34547
#
# Compressibility (1/GPa) = 0.02117552
#
# Stress axis : x y z
#
# Youngs Moduli (GPa) = 16.71675 16.71675 72.08708
#
# Poissons Ratio (x) = 0.86105 0.16796
# Poissons Ratio (y) = 0.86105 0.16796
# Poissons Ratio (z) = 0.03895 0.03895
#
# Static dielectric constant tensor:
#      x y z
#    x 3.181830 0.000000 0.000000 
#    y 0.000000 3.181830 0.000000 
#    z 0.000000 0.000000 3.289560 
# 
# 
# High freq. dielectric constant tensor:
#      x y z
#    x 1.654570 0.000000 0.000000 
#    y 0.000000 1.654570 0.000000 
#    z 0.000000 0.000000 1.677150 
# 
# From -- ./inp_files/6978.got.cif
#   From: 2010.03.12/outbox.cif.g09.slc.cpg/sg138_4_cif.got.tgz:6978.got - 2010.04.08 09:41:05.
