data_PCOD8319717
_publ_section_title
;
Structure prediction by ZEFSAII (Michael W. Deem and Ramdas Pophale) SiO2 
 PCOD8319717
Probable space group: I 4/M M M
;
_chemical_formula_sum "Si O2"
_cell_formula_units_Z 160
_cell_length_a 29.748246
_cell_length_b 29.748246
_cell_length_c 10.390883
_cell_angle_alpha 90.000000
_cell_angle_beta 90.000000
_cell_angle_gamma 90.000000
_cell_volume 9195.496493
_symmetry_space_group_name_H-M "I 4/M M M"
_symmetry_group_IT_number 139
_symmetry_cell_setting 'tetragonal'
loop_
_space_group_symop_operation_xyz
x,y,z
-y,x,z
-x,-y,z
y,-x,z
x,-y,-z
-x,y,-z
y,x,-z
-y,-x,-z
-x,-y,-z
y,-x,-z
x,y,-z
-y,x,-z
-x,y,z
x,-y,z
-y,-x,z
y,x,z
1/2+x,1/2+y,1/2+z
1/2-y,1/2+x,1/2+z
1/2-x,1/2-y,1/2+z
1/2+y,1/2-x,1/2+z
1/2+x,1/2-y,1/2-z
1/2-x,1/2+y,1/2-z
1/2+y,1/2+x,1/2-z
1/2-y,1/2-x,1/2-z
1/2-x,1/2-y,1/2-z
1/2+y,1/2-x,1/2-z
1/2+x,1/2+y,1/2-z
1/2-y,1/2+x,1/2-z
1/2-x,1/2+y,1/2+z
1/2+x,1/2-y,1/2+z
1/2-y,1/2-x,1/2+z
1/2+y,1/2+x,1/2+z
loop_
_atom_site_type_symbol
_atom_site_label
_atom_site_fract_x
_atom_site_fract_y
_atom_site_fract_z
Si Si1 0.870952 0.552149 0.500000
Si Si2 0.599113 0.740227 0.146342
Si Si3 0.648346 0.351655 0.849632
Si Si4 0.833847 0.592239 0.752882
Si Si5 0.500000 0.295810 0.143609
Si Si6 0.000000 0.868149 0.139944
Si Si7 0.376238 0.948148 0.500000
Si Si8 0.094542 0.094542 0.858695
O O1 0.883761 0.500000 0.500000
O O2 0.841071 0.563580 0.624153
O O3 0.917944 0.578955 0.500000
O O4 0.633535 0.699641 0.183178
O O5 0.609319 0.782449 0.238188
O O6 0.545942 0.731451 0.164780
O O7 0.609064 0.753912 0.000000
O O8 0.618193 0.381808 0.759573
O O9 0.638113 0.361888 0.000000
O O10 0.863132 0.636869 0.750000
O O11 0.846242 0.561323 0.874640
O O12 0.500000 0.333707 0.246852
O O13 0.500000 0.316562 0.000000
O O14 0.957972 0.899981 0.154370
O O15 0.000000 0.843376 0.000000
O O16 0.391429 0.000000 0.500000
O O17 0.111959 0.111959 0.000000
#
# Coordination Sequence:
#
# PCOD8319717 Si02
#       8
#    16  32  16  32  16  16  16  16
#     4  10  22  37  52  85 121 145 183 230 274 318
#     4  10  20  35  58  83 107 137 183 226 274 332
#     4  10  20  36  58  82 104 136 177 232 283 325
#     4  10  21  38  57  80 112 148 185 225 271 322
#     4  10  20  32  55  85 103 136 179 227 275 326
#     4  10  20  35  52  74 110 146 178 217 269 324
#     4  10  20  35  62  81 107 155 189 224 270 322
#     4  10  20  35  52  73 109 146 178 218 267 325
#
# _framework density 17.399822
#
# number of rings (size 3 to 8) (size 9 to 14) (size 15 to 20)
#    0.000    2.000    3.000    0.600    2.800    0.400 
#    3.600    1.500    0.000    3.600    0.000    1.400 
#    0.000    0.000    0.000    0.000    0.000    0.000 
#
# Total GULP energy -991554.227111 kJ/mol
# GULP energy per Si atom -12394.427839 kJ/mol
# Density = 1.736022 g / cm^3
# Si number density = 17.399822 Si / 1000 Ang^3
#
#
#
# Elastic Constant Matrix: (Units=GPa)
#
#
# Indices 1 2 3 4 5 6 
#
# 1 110.4855 54.6424 52.3458 0.0000 0.0000 0.0000
# 2 54.6424 110.4917 52.3472 0.0000 0.0000 0.0000
# 3 52.3458 52.3472 117.7551 0.0000 0.0000 0.0000
# 4 0.0000 0.0000 0.0000 21.8726 0.0000 0.0000
# 5 0.0000 0.0000 0.0000 0.0000 21.8719 0.0000
# 6 0.0000 0.0000 0.0000 0.0000 0.0000 13.8646
#
#
#
# Elastic Compliance Matrix: (Units=1/GPa)
#
#
# Indices 1 2 3 4 5 6 
#
# 1 0.013170 -0.004737 -0.003749 0.000000 0.000000 0.000000
# 2 -0.004737 0.013169 -0.003748 0.000000 0.000000 0.000000
# 3 -0.003749 -0.003748 0.011825 0.000000 0.000000 0.000000
# 4 0.000000 0.000000 0.000000 0.045719 0.000000 0.000000
# 5 0.000000 0.000000 0.000000 0.000000 0.045721 0.000000
# 6 0.000000 0.000000 0.000000 0.000000 0.000000 0.072126
#
#
# Mechanical properties :
#
#
# Convention : Reuss Voigt Hill
#
# Bulk Modulus (GPa) = 73.01609 73.04480 73.03045
# Shear Modulus (GPa) = 21.66728 23.48162 22.57445
#
# Velocity S-wave (km/s) = 3.53265 3.67758 3.60585
# Velocity P-wave (km/s) = 7.66122 7.75269 7.70709
#
# Compressibility (1/GPa) = 0.01369561
#
# Stress axis : x y z
#
# Youngs Moduli (GPa) = 75.93176 75.93620 84.56746
#
# Poissons Ratio (x) = 0.35971 0.31701
# Poissons Ratio (y) = 0.35969 0.31699
# Poissons Ratio (z) = 0.28463 0.28464
#
# Static dielectric constant tensor:
#      x y z
#    x 3.230890 0.000000 0.000000 
#    y 0.000000 3.230890 0.000000 
#    z 0.000000 0.000000 3.536440 
# 
# 
# High freq. dielectric constant tensor:
#      x y z
#    x 1.666190 0.000000 0.000000 
#    y 0.000000 1.666190 0.000000 
#    z 0.000000 0.000000 1.683300 
# 
# From -- ./inp_files/2359.got.cif
#   From: 2010.03.12/outbox.cif.g09.slc.cpg/sg139_2_cif.got.tgz:2359.got - 2010.04.08 09:46:31.
