data_PCOD8319551
_publ_section_title
;
Structure prediction by ZEFSAII (Michael W. Deem and Ramdas Pophale) SiO2 
 PCOD8319551
Probable space group: I 4/M M M
;
_chemical_formula_sum "Si O2"
_cell_formula_units_Z 96
_cell_length_a 13.350990
_cell_length_b 13.350990
_cell_length_c 32.121924
_cell_angle_alpha 90.000000
_cell_angle_beta 90.000000
_cell_angle_gamma 90.000000
_cell_volume 5725.698710
_symmetry_space_group_name_H-M "I 4/M M M"
_symmetry_group_IT_number 139
_symmetry_cell_setting 'tetragonal'
loop_
_space_group_symop_operation_xyz
x,y,z
-y,x,z
-x,-y,z
y,-x,z
x,-y,-z
-x,y,-z
y,x,-z
-y,-x,-z
-x,-y,-z
y,-x,-z
x,y,-z
-y,x,-z
-x,y,z
x,-y,z
-y,-x,z
y,x,z
1/2+x,1/2+y,1/2+z
1/2-y,1/2+x,1/2+z
1/2-x,1/2-y,1/2+z
1/2+y,1/2-x,1/2+z
1/2+x,1/2-y,1/2-z
1/2-x,1/2+y,1/2-z
1/2+y,1/2+x,1/2-z
1/2-y,1/2-x,1/2-z
1/2-x,1/2-y,1/2-z
1/2+y,1/2-x,1/2-z
1/2+x,1/2+y,1/2-z
1/2-y,1/2+x,1/2-z
1/2-x,1/2+y,1/2+z
1/2+x,1/2-y,1/2+z
1/2-y,1/2-x,1/2+z
1/2+y,1/2+x,1/2+z
loop_
_atom_site_type_symbol
_atom_site_label
_atom_site_fract_x
_atom_site_fract_y
_atom_site_fract_z
Si Si1 0.115392 0.115392 0.787669
Si Si2 0.115122 0.719219 0.500000
Si Si3 0.773612 0.382291 0.570754
Si Si4 0.115166 0.884835 0.691697
Si Si5 0.261925 0.738076 0.353366
O O1 0.138733 0.138733 0.739707
O O2 0.185809 0.185809 0.814532
O O3 0.000000 0.138871 0.798111
O O4 0.178997 0.821004 0.500000
O O5 0.136676 0.652289 0.540805
O O6 0.000000 0.751165 0.500000
O O7 0.759787 0.500000 0.569360
O O8 0.669997 0.330004 0.554938
O O9 0.795174 0.344948 0.618099
O O10 0.182141 0.817860 0.662015
O O11 0.000000 0.860691 0.681869
#
# Coordination Sequence:
#
# PCOD8319551 Si02
#       5
#    16  16  32  16  16
#     4   9  17  31  54  80 104 137 176 210 256 316
#     4  10  21  40  58  76 104 140 179 212 252 302
#     4   9  20  34  52  80 109 136 171 211 255 309
#     4   9  19  35  52  72 102 141 180 216 260 310
#     4  10  19  31  52  80 110 130 174 221 261 300
#
# _framework density 16.766513
#
# number of rings (size 3 to 8) (size 9 to 14) (size 15 to 20)
#    1.000    1.667    0.000    3.000    0.000    3.167 
#    0.000    0.000    0.000    6.000    0.000    9.333 
#    0.000    0.000    0.000    0.000    0.000    0.000 
#
# Total GULP energy -594906.605676 kJ/mol
# GULP energy per Si atom -12393.887618 kJ/mol
# Density = 1.672835 g / cm^3
# Si number density = 16.766513 Si / 1000 Ang^3
#
#
#
# Elastic Constant Matrix: (Units=GPa)
#
#
# Indices 1 2 3 4 5 6 
#
# 1 112.5859 56.4150 54.4574 0.0000 0.0000 0.0000
# 2 56.4150 112.5858 54.4574 0.0000 0.0000 0.0000
# 3 54.4574 54.4574 78.0616 0.0000 0.0000 0.0000
# 4 0.0000 0.0000 0.0000 22.2106 0.0000 0.0000
# 5 0.0000 0.0000 0.0000 0.0000 22.2109 0.0000
# 6 0.0000 0.0000 0.0000 0.0000 0.0000 23.2690
#
#
#
# Elastic Compliance Matrix: (Units=1/GPa)
#
#
# Indices 1 2 3 4 5 6 
#
# 1 0.014277 -0.003526 -0.007500 0.000000 0.000000 0.000000
# 2 -0.003526 0.014277 -0.007500 0.000000 0.000000 0.000000
# 3 -0.007500 -0.007500 0.023274 0.000000 0.000000 0.000000
# 4 0.000000 0.000000 0.000000 0.045024 0.000000 0.000000
# 5 0.000000 0.000000 0.000000 0.000000 0.045023 0.000000
# 6 0.000000 0.000000 0.000000 0.000000 0.000000 0.042976
#
#
# Mechanical properties :
#
#
# Convention : Reuss Voigt Hill
#
# Bulk Modulus (GPa) = 67.67601 70.43254 69.05427
# Shear Modulus (GPa) = 22.04328 22.73165 22.38747
#
# Velocity S-wave (km/s) = 3.62984 3.68608 3.65807
# Velocity P-wave (km/s) = 7.61703 7.75985 7.68877
#
# Compressibility (1/GPa) = 0.01477629
#
# Stress axis : x y z
#
# Youngs Moduli (GPa) = 70.04459 70.04446 42.96583
#
# Poissons Ratio (x) = 0.24699 0.32223
# Poissons Ratio (y) = 0.24699 0.32223
# Poissons Ratio (z) = 0.52531 0.52531
#
# Static dielectric constant tensor:
#      x y z
#    x 2.911110 0.000000 0.000000 
#    y 0.000000 2.911110 0.000000 
#    z 0.000000 0.000000 3.221890 
# 
# 
# High freq. dielectric constant tensor:
#      x y z
#    x 1.633470 0.000000 0.000000 
#    y 0.000000 1.633470 0.000000 
#    z 0.000000 0.000000 1.655790 
# 
# From -- ./inp_files/13674.got.cif
#   From: 2010.03.12/outbox.cif.g09.slc.cpg/sg139_7_cif.got.tgz:13674.got - 2010.04.08 09:46:31.
