data_PCOD8319778
_publ_section_title
;
Structure prediction by ZEFSAII (Michael W. Deem and Ramdas Pophale) SiO2 
 PCOD8319778
Probable space group: I 4/M M M
;
_chemical_formula_sum "Si O2"
_cell_formula_units_Z 120
_cell_length_a 22.195795
_cell_length_b 22.195795
_cell_length_c 13.543105
_cell_angle_alpha 90.000000
_cell_angle_beta 90.000000
_cell_angle_gamma 90.000000
_cell_volume 6672.055583
_symmetry_space_group_name_H-M "I 4/M M M"
_symmetry_group_IT_number 139
_symmetry_cell_setting 'tetragonal'
loop_
_space_group_symop_operation_xyz
x,y,z
-y,x,z
-x,-y,z
y,-x,z
x,-y,-z
-x,y,-z
y,x,-z
-y,-x,-z
-x,-y,-z
y,-x,-z
x,y,-z
-y,x,-z
-x,y,z
x,-y,z
-y,-x,z
y,x,z
1/2+x,1/2+y,1/2+z
1/2-y,1/2+x,1/2+z
1/2-x,1/2-y,1/2+z
1/2+y,1/2-x,1/2+z
1/2+x,1/2-y,1/2-z
1/2-x,1/2+y,1/2-z
1/2+y,1/2+x,1/2-z
1/2-y,1/2-x,1/2-z
1/2-x,1/2-y,1/2-z
1/2+y,1/2-x,1/2-z
1/2+x,1/2+y,1/2-z
1/2-y,1/2+x,1/2-z
1/2-x,1/2+y,1/2+z
1/2+x,1/2-y,1/2+z
1/2-y,1/2-x,1/2+z
1/2+y,1/2+x,1/2+z
loop_
_atom_site_type_symbol
_atom_site_label
_atom_site_fract_x
_atom_site_fract_y
_atom_site_fract_z
Si Si1 0.628296 0.628296 0.880977
Si Si2 0.366452 0.930522 0.000000
Si Si3 0.500000 0.665010 0.110043
Si Si4 0.616096 0.200566 0.689200
Si Si5 0.700543 0.700543 0.272409
Si Si6 0.000000 0.387153 0.500000
Si Si7 0.500000 0.794799 0.175769
O O1 0.561157 0.641473 0.839736
O O2 0.674714 0.674714 0.831272
O O3 0.635116 0.635116 0.000000
O O4 0.337192 0.897234 0.092097
O O5 0.439186 0.926830 0.000000
O O6 0.347592 0.000000 0.000000
O O7 0.500000 0.736871 0.106663
O O8 0.500000 0.639277 0.000000
O O9 0.665499 0.165499 0.750000
O O10 0.645419 0.267048 0.667353
O O11 0.556872 0.206121 0.753699
O O12 0.750000 0.750000 0.250000
O O13 0.000000 0.350728 0.601907
#
# Coordination Sequence:
#
# PCOD8319778 Si02
#       7
#    16  16  16  32  16   8  16
#     4  10  20  35  57  85 119 153 195 239 288 355
#     4  12  25  41  61  87 114 156 198 245 298 342
#     4  10  20  33  56  87 115 154 196 235 289 351
#     4  11  23  40  60  86 117 149 197 245 293 353
#     4  10  22  39  55  83 116 149 187 244 296 340
#     4  12  25  38  62  84 120 155 202 240 290 348
#     4  12  20  36  63  84 112 158 196 237 282 353
#
# _framework density 17.985461000000001
#
# number of rings (size 3 to 8) (size 9 to 14) (size 15 to 20)
#    0.000    1.067    7.333    0.200    0.000    0.800 
#    9.600    1.333    0.000    0.000    0.000    0.000 
#    0.000    0.000    0.000    4.800    0.000    0.000 
#
# Total GULP energy -743562.598871 kJ/mol
# GULP energy per Si atom -12392.709981 kJ/mol
# Density = 1.794453 g / cm^3
# Si number density = 17.985461 Si / 1000 Ang^3
#
#
#
# Elastic Constant Matrix: (Units=GPa)
#
#
# Indices 1 2 3 4 5 6 
#
# 1 108.6063 52.7171 38.5604 0.0000 0.0000 0.0000
# 2 52.7171 108.6063 38.5604 0.0000 0.0000 0.0000
# 3 38.5604 38.5604 76.0853 0.0000 0.0000 0.0000
# 4 0.0000 0.0000 0.0000 18.0972 0.0000 0.0000
# 5 0.0000 0.0000 0.0000 0.0000 18.0972 0.0000
# 6 0.0000 0.0000 0.0000 0.0000 0.0000 35.3265
#
#
#
# Elastic Compliance Matrix: (Units=1/GPa)
#
#
# Indices 1 2 3 4 5 6 
#
# 1 0.013037 -0.004856 -0.004146 0.000000 0.000000 0.000000
# 2 -0.004856 0.013037 -0.004146 0.000000 0.000000 0.000000
# 3 -0.004146 -0.004146 0.017346 0.000000 0.000000 0.000000
# 4 0.000000 0.000000 0.000000 0.055257 0.000000 0.000000
# 5 0.000000 0.000000 0.000000 0.000000 0.055257 0.000000
# 6 0.000000 0.000000 0.000000 0.000000 0.000000 0.028307
#
#
# Mechanical properties :
#
#
# Convention : Reuss Voigt Hill
#
# Bulk Modulus (GPa) = 58.40120 61.44154 59.92137
# Shear Modulus (GPa) = 23.33788 25.20153 24.26970
#
# Velocity S-wave (km/s) = 3.60613 3.74734 3.67741
# Velocity P-wave (km/s) = 7.06263 7.27732 7.17078
#
# Compressibility (1/GPa) = 0.01712294
#
# Stress axis : x y z
#
# Youngs Moduli (GPa) = 76.70680 76.70680 57.65139
#
# Poissons Ratio (x) = 0.37248 0.23903
# Poissons Ratio (y) = 0.37248 0.23903
# Poissons Ratio (z) = 0.31803 0.31803
#
# Static dielectric constant tensor:
#      x y z
#    x 3.511380 0.000000 0.000000 
#    y 0.000000 3.511380 0.000000 
#    z 0.000000 0.000000 3.150070 
# 
# 
# High freq. dielectric constant tensor:
#      x y z
#    x 1.710940 0.000000 0.000000 
#    y 0.000000 1.710940 0.000000 
#    z 0.000000 0.000000 1.667470 
# 
# From -- ./inp_files/3518.got.cif
#   From: 2010.03.12/outbox.cif.g09.slc.cpg/sg139_2_cif.got.tgz:3518.got - 2010.04.08 09:46:31.
