data_PCOD8319686
_publ_section_title
;
Structure prediction by ZEFSAII (Michael W. Deem and Ramdas Pophale) SiO2 
 PCOD8319686
Probable space group: I 4/M M M
;
_chemical_formula_sum "Si O2"
_cell_formula_units_Z 240
_cell_length_a 30.490253
_cell_length_b 30.490253
_cell_length_c 14.173957
_cell_angle_alpha 90.000000
_cell_angle_beta 90.000000
_cell_angle_gamma 90.000000
_cell_volume 13176.897479
_symmetry_space_group_name_H-M "I 4/M M M"
_symmetry_group_IT_number 139
_symmetry_cell_setting 'tetragonal'
loop_
_space_group_symop_operation_xyz
x,y,z
-y,x,z
-x,-y,z
y,-x,z
x,-y,-z
-x,y,-z
y,x,-z
-y,-x,-z
-x,-y,-z
y,-x,-z
x,y,-z
-y,x,-z
-x,y,z
x,-y,z
-y,-x,z
y,x,z
1/2+x,1/2+y,1/2+z
1/2-y,1/2+x,1/2+z
1/2-x,1/2-y,1/2+z
1/2+y,1/2-x,1/2+z
1/2+x,1/2-y,1/2-z
1/2-x,1/2+y,1/2-z
1/2+y,1/2+x,1/2-z
1/2-y,1/2-x,1/2-z
1/2-x,1/2-y,1/2-z
1/2+y,1/2-x,1/2-z
1/2+x,1/2+y,1/2-z
1/2-y,1/2+x,1/2-z
1/2-x,1/2+y,1/2+z
1/2+x,1/2-y,1/2+z
1/2-y,1/2-x,1/2+z
1/2+y,1/2+x,1/2+z
loop_
_atom_site_type_symbol
_atom_site_label
_atom_site_fract_x
_atom_site_fract_y
_atom_site_fract_z
Si Si1 0.450655 0.049346 0.250000
Si Si2 0.390678 0.319574 0.785637
Si Si3 0.127334 0.734142 0.387793
Si Si4 0.621654 0.449928 0.891000
Si Si5 0.679258 0.047748 0.389783
Si Si6 0.595323 0.105012 0.391033
Si Si7 0.716284 0.644422 0.392136
Si Si8 0.816444 0.345942 0.388186
O O1 0.500000 0.054884 0.208791
O O2 0.445296 0.086972 0.330380
O O3 0.361688 0.361688 0.802592
O O4 0.366089 0.281253 0.842404
O O5 0.437299 0.335175 0.828125
O O6 0.392221 0.306567 0.674462
O O7 0.130872 0.737621 0.500000
O O8 0.079466 0.717739 0.353084
O O9 0.163549 0.699645 0.347877
O O10 0.609606 0.500000 0.868117
O O11 0.578620 0.421381 0.866414
O O12 0.635210 0.443647 0.000000
O O13 0.685684 0.041890 0.500000
O O14 0.632665 0.069401 0.370224
O O15 0.682319 0.000000 0.339731
O O16 0.581325 0.106869 0.500000
O O17 0.612700 0.153083 0.356368
O O18 0.714355 0.627656 0.500000
O O19 0.691055 0.691055 0.381806
O O20 0.766250 0.649348 0.355960
O O21 0.819971 0.343023 0.500000
#
# Coordination Sequence:
#
# PCOD8319686 Si02
#       8
#    16  32  32  32  32  32  32  32
#     4  11  24  36  48  72  95 112 148 194 237 298
#     4  10  20  31  45  68  97 131 168 201 239 288
#     4   9  17  27  40  64  97 128 158 195 241 290
#     4   9  18  33  53  78 108 138 166 196 230 275
#     4   8  14  26  45  67  88 113 149 187 224 277
#     4   9  18  34  53  69  90 120 149 186 239 288
#     4   9  18  33  51  70  95 128 167 211 250 279
#     4   8  16  31  50  72  95 124 166 207 240 284
#
# _framework density 18.213695999999999
#
# number of rings (size 3 to 8) (size 9 to 14) (size 15 to 20)
#    0.000    3.000    0.000    2.400    0.000    5.733 
#    0.000    5.333    0.000    1.200    0.000    1.867 
#    0.000    0.000    0.000    5.200    0.000    0.133 
#
# Total GULP energy -1486939.876155 kJ/mol
# GULP energy per Si atom -12391.165635 kJ/mol
# Density = 1.817224 g / cm^3
# Si number density = 18.213696 Si / 1000 Ang^3
#
#
#
# Elastic Constant Matrix: (Units=GPa)
#
#
# Indices 1 2 3 4 5 6 
#
# 1 88.9390 39.6865 41.9093 0.0000 0.0000 0.0000
# 2 39.6865 88.9389 41.9098 0.0000 0.0000 0.0000
# 3 41.9093 41.9098 53.0339 0.0000 0.0000 0.0000
# 4 0.0000 0.0000 0.0000 23.0547 0.0000 0.0000
# 5 0.0000 0.0000 0.0000 0.0000 23.0542 0.0000
# 6 0.0000 0.0000 0.0000 0.0000 0.0000 14.5690
#
#
#
# Elastic Compliance Matrix: (Units=1/GPa)
#
#
# Indices 1 2 3 4 5 6 
#
# 1 0.018166 -0.002137 -0.012666 0.000000 0.000000 0.000000
# 2 -0.002137 0.018166 -0.012667 0.000000 0.000000 0.000000
# 3 -0.012666 -0.012667 0.038875 0.000000 0.000000 0.000000
# 4 0.000000 0.000000 0.000000 0.043375 0.000000 0.000000
# 5 0.000000 0.000000 0.000000 0.000000 0.043376 0.000000
# 6 0.000000 0.000000 0.000000 0.000000 0.000000 0.068639
#
#
# Mechanical properties :
#
#
# Convention : Reuss Voigt Hill
#
# Bulk Modulus (GPa) = 49.34289 53.10256 51.22273
# Shear Modulus (GPa) = 17.10606 19.29598 18.20102
#
# Velocity S-wave (km/s) = 3.06794 3.25841 3.16461
# Velocity P-wave (km/s) = 6.30076 6.58596 6.44494
#
# Compressibility (1/GPa) = 0.02026634
#
# Stress axis : x y z
#
# Youngs Moduli (GPa) = 55.04791 55.04706 25.72342
#
# Poissons Ratio (x) = 0.11766 0.32582
# Poissons Ratio (y) = 0.11766 0.32583
# Poissons Ratio (z) = 0.69726 0.69727
#
# Static dielectric constant tensor:
#      x y z
#    x 3.429340 0.000000 0.000000 
#    y 0.000000 3.429360 0.000000 
#    z 0.000000 0.000000 3.258370 
# 
# 
# High freq. dielectric constant tensor:
#      x y z
#    x 1.692540 0.000000 0.000000 
#    y 0.000000 1.692540 0.000000 
#    z 0.000000 0.000000 1.693150 
# 
# From -- ./inp_files/6781.got.cif
#   From: 2010.03.12/outbox.cif.g09.slc.cpg/sg139_4_cif.got.tgz:6781.got - 2010.04.08 09:46:31.
