data_PCOD8319516
_publ_section_title
;
Structure prediction by ZEFSAII (Michael W. Deem and Ramdas Pophale) SiO2 
 PCOD8319516
Probable space group: I 4/M M M
;
_chemical_formula_sum "Si O2"
_cell_formula_units_Z 176
_cell_length_a 19.522058
_cell_length_b 19.522058
_cell_length_c 27.223355
_cell_angle_alpha 90.000000
_cell_angle_beta 90.000000
_cell_angle_gamma 90.000000
_cell_volume 10375.113202
_symmetry_space_group_name_H-M "I 4/M M M"
_symmetry_group_IT_number 139
_symmetry_cell_setting 'tetragonal'
loop_
_space_group_symop_operation_xyz
x,y,z
-y,x,z
-x,-y,z
y,-x,z
x,-y,-z
-x,y,-z
y,x,-z
-y,-x,-z
-x,-y,-z
y,-x,-z
x,y,-z
-y,x,-z
-x,y,z
x,-y,z
-y,-x,z
y,x,z
1/2+x,1/2+y,1/2+z
1/2-y,1/2+x,1/2+z
1/2-x,1/2-y,1/2+z
1/2+y,1/2-x,1/2+z
1/2+x,1/2-y,1/2-z
1/2-x,1/2+y,1/2-z
1/2+y,1/2+x,1/2-z
1/2-y,1/2-x,1/2-z
1/2-x,1/2-y,1/2-z
1/2+y,1/2-x,1/2-z
1/2+x,1/2+y,1/2-z
1/2-y,1/2+x,1/2-z
1/2-x,1/2+y,1/2+z
1/2+x,1/2-y,1/2+z
1/2-y,1/2-x,1/2+z
1/2+y,1/2+x,1/2+z
loop_
_atom_site_type_symbol
_atom_site_label
_atom_site_fract_x
_atom_site_fract_y
_atom_site_fract_z
Si Si1 0.078238 0.300662 0.579311
Si Si2 0.689174 0.577951 0.742249
Si Si3 0.631195 0.741661 0.354582
Si Si4 0.678447 0.077894 0.944309
Si Si5 0.919828 0.191922 0.500000
Si Si6 0.349700 0.761089 0.172772
O O1 0.117122 0.369939 0.565427
O O2 0.102185 0.237003 0.546533
O O3 0.089821 0.275150 0.634455
O O4 0.000000 0.318656 0.569917
O O5 0.678793 0.500000 0.759545
O O6 0.617151 0.617151 0.748800
O O7 0.712525 0.578387 0.685512
O O8 0.747630 0.615439 0.774616
O O9 0.683986 0.683986 0.371879
O O10 0.591645 0.762892 0.403987
O O11 0.671354 0.802692 0.326768
O O12 0.651749 0.000000 0.937778
O O13 0.706908 0.088355 0.000000
O O14 0.878959 0.121042 0.500000
O O15 0.000000 0.173264 0.500000
O O16 0.304397 0.695604 0.156753
#
# Coordination Sequence:
#
# PCOD8319516 Si02
#       6
#    32  32  32  32  16  32
#     4  10  19  32  48  70  96 127 164 197 236 287
#     4  10  19  31  48  69  95 126 156 190 234 282
#     4   9  18  32  50  72  94 120 156 198 242 288
#     4  10  20  33  48  70  99 129 160 199 245 293
#     4  10  20  33  49  69  95 127 164 206 246 288
#     4   9  17  30  49  72  94 119 153 198 242 280
#
# _framework density 16.963671000000001
#
# number of rings (size 3 to 8) (size 9 to 14) (size 15 to 20)
#    0.000    2.364    0.909    2.182    0.000    3.909 
#    0.000    0.909    0.000    0.000    0.000    2.545 
#    0.000   13.091    0.000   16.909    0.000    0.000 
#
# Total GULP energy -1090840.470674 kJ/mol
# GULP energy per Si atom -12395.914439 kJ/mol
# Density = 1.692506 g / cm^3
# Si number density = 16.963671 Si / 1000 Ang^3
#
#
#
# Elastic Constant Matrix: (Units=GPa)
#
#
# Indices 1 2 3 4 5 6 
#
# 1 85.0525 34.9095 36.1063 0.0000 0.0000 0.0000
# 2 34.9095 85.0549 36.1066 0.0000 0.0000 0.0000
# 3 36.1063 36.1066 99.4517 0.0000 0.0000 0.0000
# 4 0.0000 0.0000 0.0000 24.0858 0.0000 0.0000
# 5 0.0000 0.0000 0.0000 0.0000 24.0860 0.0000
# 6 0.0000 0.0000 0.0000 0.0000 0.0000 14.6650
#
#
#
# Elastic Compliance Matrix: (Units=1/GPa)
#
#
# Indices 1 2 3 4 5 6 
#
# 1 0.015305 -0.004638 -0.003873 0.000000 0.000000 0.000000
# 2 -0.004638 0.015305 -0.003873 0.000000 0.000000 0.000000
# 3 -0.003873 -0.003873 0.012867 0.000000 0.000000 0.000000
# 4 0.000000 0.000000 0.000000 0.041518 0.000000 0.000000
# 5 0.000000 0.000000 0.000000 0.000000 0.041518 0.000000
# 6 0.000000 0.000000 0.000000 0.000000 0.000000 0.068190
#
#
# Mechanical properties :
#
#
# Convention : Reuss Voigt Hill
#
# Bulk Modulus (GPa) = 53.44618 53.75600 53.60109
# Shear Modulus (GPa) = 22.15273 23.39647 22.77460
#
# Velocity S-wave (km/s) = 3.61763 3.71780 3.66806
# Velocity P-wave (km/s) = 7.00174 7.08428 7.04313
#
# Compressibility (1/GPa) = 0.01871041
#
# Stress axis : x y z
#
# Youngs Moduli (GPa) = 65.33795 65.33990 77.71713
#
# Poissons Ratio (x) = 0.30303 0.30098
# Poissons Ratio (y) = 0.30302 0.30098
# Poissons Ratio (z) = 0.25304 0.25304
#
# Static dielectric constant tensor:
#      x y z
#    x 3.040310 0.000000 0.000000 
#    y 0.000000 3.040310 0.000000 
#    z 0.000000 0.000000 3.314710 
# 
# 
# High freq. dielectric constant tensor:
#      x y z
#    x 1.643670 0.000000 0.000000 
#    y 0.000000 1.643670 0.000000 
#    z 0.000000 0.000000 1.665090 
# 
# From -- ./inp_files/13150.got.cif
#   From: 2010.03.12/outbox.cif.g09.slc.cpg/sg139_7_cif.got.tgz:13150.got - 2010.04.08 09:46:31.
