data_PCOD8319074
_publ_section_title
;
Structure prediction by ZEFSAII (Michael W. Deem and Ramdas Pophale) SiO2 
 PCOD8319074
Probable space group: P 42/N C M
;
_chemical_formula_sum "Si O2"
_cell_formula_units_Z 96
_cell_length_a 27.078916
_cell_length_b 27.078916
_cell_length_c 9.613253
_cell_angle_alpha 90.000000
_cell_angle_beta 90.000000
_cell_angle_gamma 90.000000
_cell_volume 7049.087837
_symmetry_space_group_name_H-M "P 42/N C M"
_symmetry_group_IT_number 138
_space_group.IT_coordinate_system_code '2'
_symmetry_cell_setting 'tetragonal'
loop_
_space_group_symop_operation_xyz
x,y,z
1/2-y,x,1/2+z
1/2-x,1/2-y,z
y,1/2-x,1/2+z
1/2+x,-y,1/2-z
-x,1/2+y,1/2-z
1/2+y,1/2+x,-z
-y,-x,-z
-x,-y,-z
1/2+y,-x,1/2-z
1/2+x,1/2+y,-z
-y,1/2+x,1/2-z
1/2-x,y,1/2+z
x,1/2-y,1/2+z
1/2-y,1/2-x,z
y,x,z
loop_
_atom_site_type_symbol
_atom_site_label
_atom_site_fract_x
_atom_site_fract_y
_atom_site_fract_z
Si Si1 0.053070 0.136251 0.200549
Si Si2 0.431208 0.986898 0.114739
Si Si3 0.793030 0.875965 0.300502
Si Si4 0.558808 0.024586 0.360437
Si Si5 0.559249 0.857748 0.986603
Si Si6 0.200122 0.117563 0.019299
O O1 0.093743 0.093743 0.198423
O O2 0.050941 0.160667 0.354743
O O3 0.999777 0.112754 0.162074
O O4 0.067195 0.177988 0.086639
O O5 0.432083 0.953657 0.251947
O O6 0.466373 0.033628 0.133014
O O7 0.450025 0.950025 0.000000
O O8 0.377077 0.007293 0.076264
O O9 0.829178 0.829178 0.307356
O O10 0.814520 0.922588 0.385205
O O11 0.743148 0.861586 0.381082
O O12 0.782372 0.891598 0.140178
O O13 0.555497 0.055497 0.500000
O O14 0.518977 0.981024 0.351126
O O15 0.598522 0.901479 0.988905
O O16 0.158607 0.158607 0.017521
#
# Coordination Sequence:
#
# PCOD8319074 Si02
#       6
#    16  16  16  16  16  16
#     4   9  16  27  40  56  77  99 120 147 184 223
#     4   9  14  22  35  54  77 101 124 140 165 210
#     4  10  21  34  47  61  73  92 121 158 205 250
#     4   9  16  22  33  54  79 103 122 142 170 209
#     4   9  16  26  41  57  76  98 120 148 182 224
#     4  10  21  34  47  60  74  92 120 159 204 251
#
# _framework density 13.618784
#
# number of rings (size 3 to 8) (size 9 to 14) (size 15 to 20)
#    0.000    2.667    1.667    1.000    2.333    2.333 
#    0.000    1.667    0.000    0.000    0.000    0.000 
#    0.000    0.000    0.000    0.000    0.000    0.000 
#
# Total GULP energy -1189497.537944 kJ/mol
# GULP energy per Si atom -12390.599354 kJ/mol
# Density = 1.358779 g / cm^3
# Si number density = 13.618784 Si / 1000 Ang^3
#
#
#
# Elastic Constant Matrix: (Units=GPa)
#
#
# Indices 1 2 3 4 5 6 
#
# 1 21.1308 19.9215 26.9439 0.0000 0.0000 0.0000
# 2 19.9215 21.1308 26.9439 0.0000 0.0000 0.0000
# 3 26.9439 26.9439 136.2408 0.0000 0.0000 0.0000
# 4 0.0000 0.0000 0.0000 22.4437 0.0000 0.0000
# 5 0.0000 0.0000 0.0000 0.0000 22.4437 0.0000
# 6 0.0000 0.0000 0.0000 0.0000 0.0000 8.6801
#
#
#
# Elastic Compliance Matrix: (Units=1/GPa)
#
#
# Indices 1 2 3 4 5 6 
#
# 1 0.429931 -0.397031 -0.006507 0.000000 0.000000 0.000000
# 2 -0.397031 0.429931 -0.006507 0.000000 0.000000 0.000000
# 3 -0.006507 -0.006507 0.009913 0.000000 0.000000 0.000000
# 4 0.000000 0.000000 0.000000 0.044556 0.000000 0.000000
# 5 0.000000 0.000000 0.000000 0.000000 0.044556 0.000000
# 6 0.000000 0.000000 0.000000 0.000000 0.000000 0.115206
#
#
# Mechanical properties :
#
#
# Convention : Reuss Voigt Hill
#
# Bulk Modulus (GPa) = 20.12579 36.23563 28.18071
# Shear Modulus (GPa) = 2.61678 17.69305 10.15492
#
# Velocity S-wave (km/s) = 1.38767 3.60830 2.73363
# Velocity P-wave (km/s) = 4.16864 6.63511 5.54086
#
# Compressibility (1/GPa) = 0.04968750
#
# Stress axis : x y z
#
# Youngs Moduli (GPa) = 2.32595 2.32595 100.87262
#
# Poissons Ratio (x) = 0.92348 0.65633
# Poissons Ratio (y) = 0.92348 0.65633
# Poissons Ratio (z) = 0.01513 0.01513
#
# Static dielectric constant tensor:
#      x y z
#    x 2.497990 0.000000 0.000000 
#    y 0.000000 2.497990 0.000000 
#    z 0.000000 0.000000 2.995680 
# 
# 
# High freq. dielectric constant tensor:
#      x y z
#    x 1.476300 0.000000 0.000000 
#    y 0.000000 1.476300 0.000000 
#    z 0.000000 0.000000 1.544460 
# 
# From -- ./inp_files/1809.got.cif
#   From: 2010.03.12/outbox.cif.g09.slc.cpg/sg138_1_cif.got.tgz:1809.got - 2010.04.08 09:41:05.
