data_PCOD8319611
_publ_section_title
;
Structure prediction by ZEFSAII (Michael W. Deem and Ramdas Pophale) SiO2 
 PCOD8319611
Probable space group: I 4/M M M
;
_chemical_formula_sum "Si O2"
_cell_formula_units_Z 160
_cell_length_a 17.900017
_cell_length_b 17.900017
_cell_length_c 27.756064
_cell_angle_alpha 90.000000
_cell_angle_beta 90.000000
_cell_angle_gamma 90.000000
_cell_volume 8893.337359
_symmetry_space_group_name_H-M "I 4/M M M"
_symmetry_group_IT_number 139
_symmetry_cell_setting 'tetragonal'
loop_
_space_group_symop_operation_xyz
x,y,z
-y,x,z
-x,-y,z
y,-x,z
x,-y,-z
-x,y,-z
y,x,-z
-y,-x,-z
-x,-y,-z
y,-x,-z
x,y,-z
-y,x,-z
-x,y,z
x,-y,z
-y,-x,z
y,x,z
1/2+x,1/2+y,1/2+z
1/2-y,1/2+x,1/2+z
1/2-x,1/2-y,1/2+z
1/2+y,1/2-x,1/2+z
1/2+x,1/2-y,1/2-z
1/2-x,1/2+y,1/2-z
1/2+y,1/2+x,1/2-z
1/2-y,1/2-x,1/2-z
1/2-x,1/2-y,1/2-z
1/2+y,1/2-x,1/2-z
1/2+x,1/2+y,1/2-z
1/2-y,1/2+x,1/2-z
1/2-x,1/2+y,1/2+z
1/2+x,1/2-y,1/2+z
1/2-y,1/2-x,1/2+z
1/2+y,1/2+x,1/2+z
loop_
_atom_site_type_symbol
_atom_site_label
_atom_site_fract_x
_atom_site_fract_y
_atom_site_fract_z
Si Si1 0.293476 0.912016 0.387925
Si Si2 0.702586 0.582140 0.306429
Si Si3 0.187643 0.812358 0.946289
Si Si4 0.414881 0.805359 0.777223
Si Si5 0.313091 0.313091 0.944782
Si Si6 0.704214 0.084484 0.895679
O O1 0.287035 0.890267 0.331686
O O2 0.219257 0.885250 0.416431
O O3 0.366418 0.868812 0.408393
O O4 0.303876 0.000000 0.396520
O O5 0.666667 0.500000 0.312955
O O6 0.642482 0.642482 0.322627
O O7 0.727447 0.594406 0.251331
O O8 0.777491 0.588731 0.338798
O O9 0.250484 0.749517 0.943947
O O10 0.220476 0.886455 0.921604
O O11 0.165614 0.834387 0.000000
O O12 0.500000 0.834059 0.776459
O O13 0.367392 0.867392 0.750000
O O14 0.334469 0.334469 0.000000
O O15 0.687464 0.000000 0.912491
#
# Coordination Sequence:
#
# PCOD8319611 Si02
#       6
#    32  32  16  32  16  32
#     4  10  21  35  55  83 111 142 182 225 272 331
#     4  10  20  33  50  73 103 142 182 222 263 312
#     4   9  18  34  53  74 100 133 175 224 273 316
#     4  10  20  32  48  76 110 145 181 215 259 320
#     4   9  20  38  58  79 103 134 177 232 289 334
#     4  10  19  33  52  77 108 143 181 217 263 320
#
# _framework density 17.990995999999999
#
# number of rings (size 3 to 8) (size 9 to 14) (size 15 to 20)
#    0.000    2.200    3.000    0.000    1.400    2.000 
#    0.000    2.000    0.000    0.600    0.000    7.000 
#    0.000    0.000    0.000    0.000    0.000    0.000 
#
# Total GULP energy -991676.786340 kJ/mol
# GULP energy per Si atom -12395.959829 kJ/mol
# Density = 1.795005 g / cm^3
# Si number density = 17.990996 Si / 1000 Ang^3
#
#
#
# Elastic Constant Matrix: (Units=GPa)
#
#
# Indices 1 2 3 4 5 6 
#
# 1 91.6313 56.9371 32.5064 0.0000 0.0000 0.0000
# 2 56.9371 91.6314 32.5065 0.0000 0.0000 0.0000
# 3 32.5064 32.5065 104.0098 0.0000 0.0000 0.0000
# 4 0.0000 0.0000 0.0000 18.3433 0.0000 0.0000
# 5 0.0000 0.0000 0.0000 0.0000 18.3432 0.0000
# 6 0.0000 0.0000 0.0000 0.0000 0.0000 20.4085
#
#
#
# Elastic Compliance Matrix: (Units=1/GPa)
#
#
# Indices 1 2 3 4 5 6 
#
# 1 0.018310 -0.010513 -0.002437 0.000000 0.000000 0.000000
# 2 -0.010513 0.018310 -0.002437 0.000000 0.000000 0.000000
# 3 -0.002437 -0.002437 0.011138 0.000000 0.000000 0.000000
# 4 0.000000 0.000000 0.000000 0.054516 0.000000 0.000000
# 5 0.000000 0.000000 0.000000 0.000000 0.054516 0.000000
# 6 0.000000 0.000000 0.000000 0.000000 0.000000 0.048999
#
#
# Mechanical properties :
#
#
# Convention : Reuss Voigt Hill
#
# Bulk Modulus (GPa) = 58.87668 59.01916 58.94792
# Shear Modulus (GPa) = 20.64200 22.44049 21.54124
#
# Velocity S-wave (km/s) = 3.39093 3.53557 3.46401
# Velocity P-wave (km/s) = 6.93743 7.03868 6.98824
#
# Compressibility (1/GPa) = 0.01698465
#
# Stress axis : x y z
#
# Youngs Moduli (GPa) = 54.61420 54.61420 89.78508
#
# Poissons Ratio (x) = 0.57416 0.21880
# Poissons Ratio (y) = 0.57416 0.21880
# Poissons Ratio (z) = 0.13309 0.13309
#
# Static dielectric constant tensor:
#      x y z
#    x 3.163250 0.000000 0.000000 
#    y 0.000000 3.163250 0.000000 
#    z 0.000000 0.000000 3.460990 
# 
# 
# High freq. dielectric constant tensor:
#      x y z
#    x 1.680700 0.000000 0.000000 
#    y 0.000000 1.680700 0.000000 
#    z 0.000000 0.000000 1.699280 
# 
# From -- ./inp_files/12997.got.cif
#   From: 2010.03.12/outbox.cif.g09.slc.cpg/sg139_7_cif.got.tgz:12997.got - 2010.04.08 09:46:31.
