data_PCOD8319454
_publ_section_title
;
Structure prediction by ZEFSAII (Michael W. Deem and Ramdas Pophale) SiO2 
 PCOD8319454
Probable space group: I 4/M M M
;
_chemical_formula_sum "Si O2"
_cell_formula_units_Z 128
_cell_length_a 28.848018
_cell_length_b 28.848018
_cell_length_c 12.083693
_cell_angle_alpha 90.000000
_cell_angle_beta 90.000000
_cell_angle_gamma 90.000000
_cell_volume 10056.147706
_symmetry_space_group_name_H-M "I 4/M M M"
_symmetry_group_IT_number 139
_symmetry_cell_setting 'tetragonal'
loop_
_space_group_symop_operation_xyz
x,y,z
-y,x,z
-x,-y,z
y,-x,z
x,-y,-z
-x,y,-z
y,x,-z
-y,-x,-z
-x,-y,-z
y,-x,-z
x,y,-z
-y,x,-z
-x,y,z
x,-y,z
-y,-x,z
y,x,z
1/2+x,1/2+y,1/2+z
1/2-y,1/2+x,1/2+z
1/2-x,1/2-y,1/2+z
1/2+y,1/2-x,1/2+z
1/2+x,1/2-y,1/2-z
1/2-x,1/2+y,1/2-z
1/2+y,1/2+x,1/2-z
1/2-y,1/2-x,1/2-z
1/2-x,1/2-y,1/2-z
1/2+y,1/2-x,1/2-z
1/2+x,1/2+y,1/2-z
1/2-y,1/2+x,1/2-z
1/2-x,1/2+y,1/2+z
1/2+x,1/2-y,1/2+z
1/2-y,1/2-x,1/2+z
1/2+y,1/2+x,1/2+z
loop_
_atom_site_type_symbol
_atom_site_label
_atom_site_fract_x
_atom_site_fract_y
_atom_site_fract_z
Si Si1 0.924992 0.151411 0.500000
Si Si2 0.193120 0.115299 0.875384
Si Si3 0.353775 0.275504 0.000000
Si Si4 0.252883 0.174709 0.271775
Si Si5 0.371427 0.448352 0.760313
O O1 0.880041 0.119960 0.500000
O O2 0.905685 0.203769 0.500000
O O3 0.953999 0.141548 0.389536
O O4 0.155436 0.155436 0.877863
O O5 0.239744 0.135022 0.817648
O O6 0.172345 0.072561 0.805624
O O7 0.205210 0.098999 0.000000
O O8 0.348192 0.243832 0.892283
O O9 0.315676 0.315676 0.000000
O O10 0.214083 0.214083 0.267869
O O11 0.303317 0.196684 0.250000
O O12 0.381957 0.500000 0.715002
O O13 0.417049 0.417049 0.742583
#
# Coordination Sequence:
#
# PCOD8319454 Si02
#       5
#    16  32  16  32  32
#     4   9  15  27  42  55  71  90 112 141 183 231
#     4   9  17  28  39  52  71  92 113 139 174 217
#     4   9  14  23  37  52  73  95 113 133 162 206
#     4   9  16  23  35  55  75  94 113 133 159 198
#     4  10  19  30  43  56  69  88 116 153 197 240
#
# _framework density 12.728532
#
# number of rings (size 3 to 8) (size 9 to 14) (size 15 to 20)
#    0.000    2.750    2.500    0.375    1.750    0.750 
#    0.000    0.000    0.000    2.250    0.000    3.500 
#    0.000    0.000    0.000    0.000    0.000    0.000 
#
# Total GULP energy -793156.611274 kJ/mol
# GULP energy per Si atom -12393.072051 kJ/mol
# Density = 1.269956 g / cm^3
# Si number density = 12.728532 Si / 1000 Ang^3
#
#
#
# Elastic Constant Matrix: (Units=GPa)
#
#
# Indices 1 2 3 4 5 6 
#
# 1 46.3634 44.6726 27.4570 0.0000 0.0000 0.0000
# 2 44.6726 46.3645 27.4581 0.0000 0.0000 0.0000
# 3 27.4570 27.4581 95.9124 0.0000 0.0000 0.0000
# 4 0.0000 0.0000 0.0000 5.4134 0.0000 0.0000
# 5 0.0000 0.0000 0.0000 0.0000 5.4137 0.0000
# 6 0.0000 0.0000 0.0000 0.0000 0.0000 9.9819
#
#
#
# Elastic Compliance Matrix: (Units=1/GPa)
#
#
# Indices 1 2 3 4 5 6 
#
# 1 0.302256 -0.288976 -0.003798 0.000000 0.000000 0.000000
# 2 -0.288976 0.302252 -0.003804 0.000000 0.000000 0.000000
# 3 -0.003798 -0.003804 0.012602 0.000000 0.000000 0.000000
# 4 0.000000 0.000000 0.000000 0.184727 0.000000 0.000000
# 5 0.000000 0.000000 0.000000 0.000000 0.184717 0.000000
# 6 0.000000 0.000000 0.000000 0.000000 0.000000 0.100181
#
#
# Mechanical properties :
#
#
# Convention : Reuss Voigt Hill
#
# Bulk Modulus (GPa) = 41.74797 43.09063 42.41930
# Shear Modulus (GPa) = 2.96230 10.09864 6.53047
#
# Velocity S-wave (km/s) = 1.52720 2.81977 2.26753
# Velocity P-wave (km/s) = 5.99831 6.67297 6.34461
#
# Compressibility (1/GPa) = 0.02395326
#
# Stress axis : x y z
#
# Youngs Moduli (GPa) = 3.30846 3.30850 79.34945
#
# Poissons Ratio (x) = 0.95608 0.30139
# Poissons Ratio (y) = 0.95607 0.30183
# Poissons Ratio (z) = 0.01257 0.01258
#
# Static dielectric constant tensor:
#      x y z
#    x 2.332590 0.000000 0.000000 
#    y 0.000000 2.332590 0.000000 
#    z 0.000000 0.000000 2.884890 
# 
# 
# High freq. dielectric constant tensor:
#      x y z
#    x 1.441640 0.000000 0.000000 
#    y 0.000000 1.441640 0.000000 
#    z 0.000000 0.000000 1.501410 
# 
# From -- ./inp_files/4121.got.cif
#   From: 2010.03.12/outbox.cif.g09.slc.cpg/sg139_3_cif.got.tgz:4121.got - 2010.04.08 09:46:31.
