data_PCOD8319450
_publ_section_title
;
Structure prediction by ZEFSAII (Michael W. Deem and Ramdas Pophale) SiO2 
 PCOD8319450
Probable space group: I 4/M M M
;
_chemical_formula_sum "Si O2"
_cell_formula_units_Z 192
_cell_length_a 21.792862
_cell_length_b 21.792862
_cell_length_c 24.554267
_cell_angle_alpha 90.000000
_cell_angle_beta 90.000000
_cell_angle_gamma 90.000000
_cell_volume 11661.529400
_symmetry_space_group_name_H-M "I 4/M M M"
_symmetry_group_IT_number 139
_symmetry_cell_setting 'tetragonal'
loop_
_space_group_symop_operation_xyz
x,y,z
-y,x,z
-x,-y,z
y,-x,z
x,-y,-z
-x,y,-z
y,x,-z
-y,-x,-z
-x,-y,-z
y,-x,-z
x,y,-z
-y,x,-z
-x,y,z
x,-y,z
-y,-x,z
y,x,z
1/2+x,1/2+y,1/2+z
1/2-y,1/2+x,1/2+z
1/2-x,1/2-y,1/2+z
1/2+y,1/2-x,1/2+z
1/2+x,1/2-y,1/2-z
1/2-x,1/2+y,1/2-z
1/2+y,1/2+x,1/2-z
1/2-y,1/2-x,1/2-z
1/2-x,1/2-y,1/2-z
1/2+y,1/2-x,1/2-z
1/2+x,1/2+y,1/2-z
1/2-y,1/2+x,1/2-z
1/2-x,1/2+y,1/2+z
1/2+x,1/2-y,1/2+z
1/2-y,1/2-x,1/2+z
1/2+y,1/2+x,1/2+z
loop_
_atom_site_type_symbol
_atom_site_label
_atom_site_fract_x
_atom_site_fract_y
_atom_site_fract_z
Si Si1 0.226398 0.673921 0.436557
Si Si2 0.126339 0.770832 0.559760
Si Si3 0.429915 0.669869 0.842270
Si Si4 0.572469 0.769559 0.761146
Si Si5 0.069510 0.603931 0.691748
Si Si6 0.807205 0.429330 0.355897
O O1 0.233679 0.658307 0.500000
O O2 0.284136 0.715865 0.417444
O O3 0.162381 0.708787 0.425461
O O4 0.222523 0.610319 0.404052
O O5 0.095010 0.764942 0.500000
O O6 0.174965 0.825036 0.558367
O O7 0.075350 0.785961 0.604933
O O8 0.500000 0.650381 0.834947
O O9 0.392020 0.607981 0.848953
O O10 0.404824 0.706833 0.789495
O O11 0.500000 0.770814 0.757790
O O12 0.592325 0.826373 0.798855
O O13 0.597176 0.776486 0.699722
O O14 0.069520 0.569520 0.750000
O O15 0.118378 0.574814 0.649523
O O16 0.000000 0.599483 0.667724
O O17 0.789723 0.500000 0.367273
#
# Coordination Sequence:
#
# PCOD8319450 Si02
#       6
#    32  32  32  32  32  32
#     4   9  18  33  51  68  87 115 152 190 228 272
#     4   8  15  29  47  64  82 108 145 185 221 260
#     4  10  19  30  45  64  88 118 151 191 238 282
#     4   8  16  29  42  61  89 119 152 185 216 256
#     4   9  16  27  44  66  95 129 159 182 208 254
#     4  10  19  29  45  71  98 121 148 185 227 268
#
# _framework density 16.464393000000001
#
# number of rings (size 3 to 8) (size 9 to 14) (size 15 to 20)
#    0.000    3.000    0.000    3.500    0.000    2.667 
#    0.000    0.000    0.000    7.500    0.000    3.500 
#    0.000    0.333    0.000    1.833    0.000    0.000 
#
# Total GULP energy -1189706.778156 kJ/mol
# GULP energy per Si atom -12392.778939 kJ/mol
# Density = 1.642692 g / cm^3
# Si number density = 16.464393 Si / 1000 Ang^3
#
#
#
# Elastic Constant Matrix: (Units=GPa)
#
#
# Indices 1 2 3 4 5 6 
#
# 1 71.6926 35.3398 40.7653 0.0000 0.0000 0.0000
# 2 35.3398 71.6926 40.7653 0.0000 0.0000 0.0000
# 3 40.7653 40.7653 74.3727 0.0000 0.0000 0.0000
# 4 0.0000 0.0000 0.0000 21.7861 0.0000 0.0000
# 5 0.0000 0.0000 0.0000 0.0000 21.7861 0.0000
# 6 0.0000 0.0000 0.0000 0.0000 0.0000 16.7792
#
#
#
# Elastic Compliance Matrix: (Units=1/GPa)
#
#
# Indices 1 2 3 4 5 6 
#
# 1 0.021774 -0.005734 -0.008792 0.000000 0.000000 0.000000
# 2 -0.005734 0.021774 -0.008792 0.000000 0.000000 0.000000
# 3 -0.008792 -0.008792 0.023084 0.000000 0.000000 0.000000
# 4 0.000000 0.000000 0.000000 0.045901 0.000000 0.000000
# 5 0.000000 0.000000 0.000000 0.000000 0.045901 0.000000
# 6 0.000000 0.000000 0.000000 0.000000 0.000000 0.059598
#
#
# Mechanical properties :
#
#
# Convention : Reuss Voigt Hill
#
# Bulk Modulus (GPa) = 50.00905 50.16652 50.08779
# Shear Modulus (GPa) = 18.42758 18.79614 18.61186
#
# Velocity S-wave (km/s) = 3.34913 3.38246 3.36584
# Velocity P-wave (km/s) = 6.73762 6.76687 6.75226
#
# Compressibility (1/GPa) = 0.01999638
#
# Stress axis : x y z
#
# Youngs Moduli (GPa) = 45.92606 45.92606 43.32033
#
# Poissons Ratio (x) = 0.26334 0.38087
# Poissons Ratio (y) = 0.26334 0.38087
# Poissons Ratio (z) = 0.40378 0.40378
#
# Static dielectric constant tensor:
#      x y z
#    x 2.963030 0.000000 0.000000 
#    y 0.000000 2.963030 0.000000 
#    z 0.000000 0.000000 3.244090 
# 
# 
# High freq. dielectric constant tensor:
#      x y z
#    x 1.616850 0.000000 0.000000 
#    y 0.000000 1.616850 0.000000 
#    z 0.000000 0.000000 1.619650 
# 
# From -- ./inp_files/11894.got.cif
#   From: 2010.03.12/outbox.cif.g09.slc.cpg/sg139_6_cif.got.tgz:11894.got - 2010.04.08 09:46:31.
