data_PCOD8319289
_publ_section_title
;
Structure prediction by ZEFSAII (Michael W. Deem and Ramdas Pophale) SiO2 
 PCOD8319289
Probable space group: I 4/M M M
;
_chemical_formula_sum "Si O2"
_cell_formula_units_Z 224
_cell_length_a 24.599654
_cell_length_b 24.599654
_cell_length_c 22.960935
_cell_angle_alpha 90.000000
_cell_angle_beta 90.000000
_cell_angle_gamma 90.000000
_cell_volume 13894.648559
_symmetry_space_group_name_H-M "I 4/M M M"
_symmetry_group_IT_number 139
_symmetry_cell_setting 'tetragonal'
loop_
_space_group_symop_operation_xyz
x,y,z
-y,x,z
-x,-y,z
y,-x,z
x,-y,-z
-x,y,-z
y,x,-z
-y,-x,-z
-x,-y,-z
y,-x,-z
x,y,-z
-y,x,-z
-x,y,z
x,-y,z
-y,-x,z
y,x,z
1/2+x,1/2+y,1/2+z
1/2-y,1/2+x,1/2+z
1/2-x,1/2-y,1/2+z
1/2+y,1/2-x,1/2+z
1/2+x,1/2-y,1/2-z
1/2-x,1/2+y,1/2-z
1/2+y,1/2+x,1/2-z
1/2-y,1/2-x,1/2-z
1/2-x,1/2-y,1/2-z
1/2+y,1/2-x,1/2-z
1/2+x,1/2+y,1/2-z
1/2-y,1/2+x,1/2-z
1/2-x,1/2+y,1/2+z
1/2+x,1/2-y,1/2+z
1/2-y,1/2-x,1/2+z
1/2+y,1/2+x,1/2+z
loop_
_atom_site_type_symbol
_atom_site_label
_atom_site_fract_x
_atom_site_fract_y
_atom_site_fract_z
Si Si1 0.805807 0.439458 0.931916
Si Si2 0.145057 0.767325 0.276436
Si Si3 0.385871 0.614129 0.064413
Si Si4 0.804156 0.058966 0.365960
Si Si5 0.364435 0.274182 0.644114
Si Si6 0.794479 0.205522 0.435540
Si Si7 0.436871 0.348274 0.567301
Si Si8 0.164583 0.311408 0.629682
O O1 0.829127 0.500000 0.916884
O O2 0.743206 0.435309 0.913723
O O3 0.837194 0.391203 0.896988
O O4 0.810848 0.427707 0.000000
O O5 0.203248 0.796753 0.277103
O O6 0.102784 0.800642 0.315196
O O7 0.120195 0.767784 0.211784
O O8 0.154460 0.706413 0.302581
O O9 0.436518 0.638935 0.099576
O O10 0.339931 0.660070 0.062429
O O11 0.404109 0.595892 0.000000
O O12 0.801820 0.000000 0.335970
O O13 0.310368 0.310368 0.634984
O O14 0.414179 0.299951 0.608072
O O15 0.354314 0.213003 0.621438
O O16 0.776364 0.223637 0.500000
O O17 0.819653 0.256512 0.403093
O O18 0.429627 0.330677 0.500000
O O19 0.500000 0.358638 0.582343
O O20 0.404006 0.404006 0.579882
#
# Coordination Sequence:
#
# PCOD8319289 Si02
#       8
#    32  32  16  32  32  16  32  32
#     4   9  17  27  39  58  87 122 159 193 222 259
#     4  10  17  30  44  60  87 117 152 184 227 286
#     4  11  18  28  41  58  85 116 153 199 238 279
#     4  10  18  28  42  60  80 111 153 199 241 278
#     4  10  20  30  46  71  95 122 149 188 239 297
#     4  11  18  24  38  62  91 122 151 184 225 280
#     4   9  19  36  54  73  97 122 153 195 243 297
#     4  11  17  28  41  64  94 127 154 191 232 282
#
# _framework density 16.121314000000002
#
# number of rings (size 3 to 8) (size 9 to 14) (size 15 to 20)
#    0.000    2.000    5.000    1.286    0.000    3.857 
#    0.000    0.714    0.000    0.214    0.000    0.500 
#    0.000    0.571    0.000    3.143    0.000   12.429 
#
# Total GULP energy -1388077.641382 kJ/mol
# GULP energy per Si atom -12393.550369 kJ/mol
# Density = 1.608462 g / cm^3
# Si number density = 16.121314 Si / 1000 Ang^3
#
#
#
# Elastic Constant Matrix: (Units=GPa)
#
#
# Indices 1 2 3 4 5 6 
#
# 1 76.0497 34.1060 37.0556 0.0000 0.0000 0.0000
# 2 34.1060 76.0496 37.0554 0.0000 0.0000 0.0000
# 3 37.0556 37.0554 88.3080 0.0000 0.0000 0.0000
# 4 0.0000 0.0000 0.0000 16.0641 0.0000 0.0000
# 5 0.0000 0.0000 0.0000 0.0000 16.0641 0.0000
# 6 0.0000 0.0000 0.0000 0.0000 0.0000 16.2210
#
#
#
# Elastic Compliance Matrix: (Units=1/GPa)
#
#
# Indices 1 2 3 4 5 6 
#
# 1 0.018245 -0.005596 -0.005308 0.000000 0.000000 0.000000
# 2 -0.005596 0.018245 -0.005308 0.000000 0.000000 0.000000
# 3 -0.005308 -0.005308 0.015778 0.000000 0.000000 0.000000
# 4 0.000000 0.000000 0.000000 0.062251 0.000000 0.000000
# 5 0.000000 0.000000 0.000000 0.000000 0.062250 0.000000
# 6 0.000000 0.000000 0.000000 0.000000 0.000000 0.061648
#
#
# Mechanical properties :
#
#
# Convention : Reuss Voigt Hill
#
# Bulk Modulus (GPa) = 50.38921 50.76017 50.57469
# Shear Modulus (GPa) = 18.02081 18.48254 18.25167
#
# Velocity S-wave (km/s) = 3.34702 3.38962 3.36839
# Velocity P-wave (km/s) = 6.80153 6.84647 6.82404
#
# Compressibility (1/GPa) = 0.01984552
#
# Stress axis : x y z
#
# Youngs Moduli (GPa) = 54.80868 54.80875 63.37768
#
# Poissons Ratio (x) = 0.30672 0.33639
# Poissons Ratio (y) = 0.30672 0.33639
# Poissons Ratio (z) = 0.29091 0.29091
#
# Static dielectric constant tensor:
#      x y z
#    x 2.977010 0.000000 0.000000 
#    y 0.000000 2.977010 0.000000 
#    z 0.000000 0.000000 3.264500 
# 
# 
# High freq. dielectric constant tensor:
#      x y z
#    x 1.588590 0.000000 0.000000 
#    y 0.000000 1.588590 0.000000 
#    z 0.000000 0.000000 1.627110 
# 
# From -- ./inp_files/12292.got.cif
#   From: 2010.03.12/outbox.cif.g09.slc.cpg/sg139_7_cif.got.tgz:12292.got - 2010.04.08 09:46:31.
