data_PCOD8319094
_publ_section_title
;
Structure prediction by ZEFSAII (Michael W. Deem and Ramdas Pophale) SiO2 
 PCOD8319094
Probable space group: P 42/N C M
;
_chemical_formula_sum "Si O2"
_cell_formula_units_Z 96
_cell_length_a 23.902298
_cell_length_b 23.902298
_cell_length_c 8.551310
_cell_angle_alpha 90.000000
_cell_angle_beta 90.000000
_cell_angle_gamma 90.000000
_cell_volume 4885.533144
_symmetry_space_group_name_H-M "P 42/N C M"
_symmetry_group_IT_number 138
_space_group.IT_coordinate_system_code '2'
_symmetry_cell_setting 'tetragonal'
loop_
_space_group_symop_operation_xyz
x,y,z
1/2-y,x,1/2+z
1/2-x,1/2-y,z
y,1/2-x,1/2+z
1/2+x,-y,1/2-z
-x,1/2+y,1/2-z
1/2+y,1/2+x,-z
-y,-x,-z
-x,-y,-z
1/2+y,-x,1/2-z
1/2+x,1/2+y,-z
-y,1/2+x,1/2-z
1/2-x,y,1/2+z
x,1/2-y,1/2+z
1/2-y,1/2-x,z
y,x,z
loop_
_atom_site_type_symbol
_atom_site_label
_atom_site_fract_x
_atom_site_fract_y
_atom_site_fract_z
Si Si1 0.810815 0.902728 0.179721
Si Si2 0.307050 0.102637 0.674373
Si Si3 0.890812 0.519571 0.187297
Si Si4 0.688145 0.308909 0.315835
Si Si5 0.893671 0.515261 0.823786
Si Si6 0.599644 0.394458 0.180717
O O1 0.848157 0.848157 0.191952
O O2 0.753040 0.885591 0.256302
O O3 0.837165 0.952832 0.279456
O O4 0.803885 0.922349 0.000529
O O5 0.338251 0.161750 0.673068
O O6 0.337933 0.059252 0.787755
O O7 0.947531 0.552470 0.238906
O O8 0.880135 0.465029 0.290381
O O9 0.895172 0.502173 0.007088
O O10 0.694677 0.305324 0.500000
O O11 0.747388 0.328805 0.245109
O O12 0.639945 0.353079 0.275197
O O13 0.947893 0.552108 0.774515
O O14 0.891811 0.458018 0.730797
O O15 0.613569 0.386432 0.000000
#
# Coordination Sequence:
#
# PCOD8319094 Si02
#       6
#    16  16  16  16  16  16
#     4  10  21  37  57  82 113 150 192 238 288 340
#     4  10  21  37  57  82 113 150 192 238 288 340
#     4  10  21  38  59  84 116 152 190 235 287 339
#     4  11  23  43  66  89 118 150 187 231 283 336
#     4  10  21  38  59  84 116 152 190 235 287 339
#     4  12  24  38  60  90 119 151 192 232 276 335
#
# _framework density 19.649851000000002
#
# number of rings (size 3 to 8) (size 9 to 14) (size 15 to 20)
#    0.000    1.500    0.000    6.000    0.000    7.667 
#    0.000    8.333    0.000    0.000    0.000    0.000 
#    0.000    0.000    0.000    0.000    0.000    0.000 
#
# Total GULP energy -1190750.713453 kJ/mol
# GULP energy per Si atom -12403.653265 kJ/mol
# Density = 1.960513 g / cm^3
# Si number density = 19.649851 Si / 1000 Ang^3
#
#
#
# Elastic Constant Matrix: (Units=GPa)
#
#
# Indices 1 2 3 4 5 6 
#
# 1 144.5026 -90.4797 3.5725 0.0000 0.0000 0.0000
# 2 -90.4797 144.4859 3.5694 0.0000 0.0000 0.0000
# 3 3.5725 3.5694 87.9284 0.0000 0.0000 0.0000
# 4 0.0000 0.0000 0.0000 35.9018 0.0000 0.0000
# 5 0.0000 0.0000 0.0000 0.0000 35.9017 0.0000
# 6 0.0000 0.0000 0.0000 0.0000 0.0000 18.8572
#
#
#
# Elastic Compliance Matrix: (Units=1/GPa)
#
#
# Indices 1 2 3 4 5 6 
#
# 1 0.011434 0.007179 -0.000756 0.000000 0.000000 0.000000
# 2 0.007179 0.011435 -0.000756 0.000000 0.000000 0.000000
# 3 -0.000756 -0.000756 0.011434 0.000000 0.000000 0.000000
# 4 0.000000 0.000000 0.000000 0.027854 0.000000 0.000000
# 5 0.000000 0.000000 0.000000 0.000000 0.027854 0.000000
# 6 0.000000 0.000000 0.000000 0.000000 0.000000 0.053030
#
#
# Mechanical properties :
#
#
# Convention : Reuss Voigt Hill
#
# Bulk Modulus (GPa) = 21.91178 23.36014 22.63596
# Shear Modulus (GPa) = 34.03216 48.81580 41.42398
#
# Velocity S-wave (km/s) = 4.16616 4.98967 4.59639
# Velocity P-wave (km/s) = 5.85814 6.71638 6.30189
#
# Compressibility (1/GPa) = 0.04563755
#
# Stress axis : x y z
#
# Youngs Moduli (GPa) = 87.45857 87.44856 87.45628
#
# Poissons Ratio (x) = -0.62778 0.06611
# Poissons Ratio (y) = -0.62785 0.06611
# Poissons Ratio (z) = 0.06612 0.06610
#
# Static dielectric constant tensor:
#      x y z
#    x 3.582140 0.000000 0.000000 
#    y 0.000000 3.582140 0.000000 
#    z 0.000000 0.000000 3.754500 
# 
# 
# High freq. dielectric constant tensor:
#      x y z
#    x 1.767680 0.000000 0.000000 
#    y 0.000000 1.767680 0.000000 
#    z 0.000000 0.000000 1.782090 
# 
# From -- ./inp_files/1753.got.cif
#   From: 2010.03.12/outbox.cif.g09.slc.cpg/sg138_1_cif.got.tgz:1753.got - 2010.04.08 09:41:05.
