data_PCOD8319483
_publ_section_title
;
Structure prediction by ZEFSAII (Michael W. Deem and Ramdas Pophale) SiO2 
 PCOD8319483
Probable space group: I 4/M M M
;
_chemical_formula_sum "Si O2"
_cell_formula_units_Z 160
_cell_length_a 17.200297
_cell_length_b 17.200297
_cell_length_c 33.800204
_cell_angle_alpha 90.000000
_cell_angle_beta 90.000000
_cell_angle_gamma 90.000000
_cell_volume 9999.797684
_symmetry_space_group_name_H-M "I 4/M M M"
_symmetry_group_IT_number 139
_symmetry_cell_setting 'tetragonal'
loop_
_space_group_symop_operation_xyz
x,y,z
-y,x,z
-x,-y,z
y,-x,z
x,-y,-z
-x,y,-z
y,x,-z
-y,-x,-z
-x,-y,-z
y,-x,-z
x,y,-z
-y,x,-z
-x,y,z
x,-y,z
-y,-x,z
y,x,z
1/2+x,1/2+y,1/2+z
1/2-y,1/2+x,1/2+z
1/2-x,1/2-y,1/2+z
1/2+y,1/2-x,1/2+z
1/2+x,1/2-y,1/2-z
1/2-x,1/2+y,1/2-z
1/2+y,1/2+x,1/2-z
1/2-y,1/2-x,1/2-z
1/2-x,1/2-y,1/2-z
1/2+y,1/2-x,1/2-z
1/2+x,1/2+y,1/2-z
1/2-y,1/2+x,1/2-z
1/2-x,1/2+y,1/2+z
1/2+x,1/2-y,1/2+z
1/2-y,1/2-x,1/2+z
1/2+y,1/2+x,1/2+z
loop_
_atom_site_type_symbol
_atom_site_label
_atom_site_fract_x
_atom_site_fract_y
_atom_site_fract_z
Si Si1 0.214745 0.088743 0.192039
Si Si2 0.908783 0.333833 0.573561
Si Si3 0.277472 0.408640 0.000000
Si Si4 0.302619 0.827473 0.345373
Si Si5 0.592461 0.000000 0.044037
Si Si6 0.786312 0.911973 0.717499
O O1 0.136992 0.136992 0.182573
O O2 0.286488 0.115550 0.164627
O O3 0.240739 0.101607 0.237443
O O4 0.195477 0.000000 0.182281
O O5 0.888833 0.275390 0.537911
O O6 0.866613 0.302916 0.612161
O O7 0.878168 0.421361 0.565218
O O8 0.000000 0.335375 0.581496
O O9 0.302213 0.500000 0.000000
O O10 0.355010 0.355010 0.000000
O O11 0.236747 0.763254 0.344335
O O12 0.284854 0.890702 0.311409
O O13 0.500000 0.000000 0.041972
O O14 0.627223 0.000000 0.000000
O O15 0.861773 0.861773 0.707025
O O16 0.811472 0.000000 0.710164
#
# Coordination Sequence:
#
# PCOD8319483 Si02
#       6
#    32  32  16  32  16  32
#     4   9  18  31  47  67  90 119 154 193 236 279
#     4  10  19  31  49  70  93 121 152 189 230 274
#     4  10  20  34  51  71  97 127 158 192 231 274
#     4  10  19  30  46  68  93 122 154 187 228 279
#     4   9  16  30  48  68  90 114 145 183 231 275
#     4   9  17  30  47  66  91 122 156 194 233 273
#
# _framework density 16.000323999999999
#
# number of rings (size 3 to 8) (size 9 to 14) (size 15 to 20)
#    0.000    2.500    1.000    1.800    1.400    2.900 
#    0.000    2.000    0.000    0.000    0.000    5.600 
#    0.000    0.000    0.000    0.000    0.000   19.600 
#
# Total GULP energy -991819.314265 kJ/mol
# GULP energy per Si atom -12397.741428 kJ/mol
# Density = 1.596391 g / cm^3
# Si number density = 16.000324 Si / 1000 Ang^3
#
#
#
# Elastic Constant Matrix: (Units=GPa)
#
#
# Indices 1 2 3 4 5 6 
#
# 1 71.8531 37.9924 36.6678 0.0000 0.0000 0.0000
# 2 37.9924 71.8531 36.6678 0.0000 0.0000 0.0000
# 3 36.6678 36.6678 87.8651 0.0000 0.0000 0.0000
# 4 0.0000 0.0000 0.0000 24.7154 0.0000 0.0000
# 5 0.0000 0.0000 0.0000 0.0000 24.7154 0.0000
# 6 0.0000 0.0000 0.0000 0.0000 0.0000 13.7078
#
#
#
# Elastic Compliance Matrix: (Units=1/GPa)
#
#
# Indices 1 2 3 4 5 6 
#
# 1 0.021076 -0.008457 -0.005266 0.000000 0.000000 0.000000
# 2 -0.008457 0.021076 -0.005266 0.000000 0.000000 0.000000
# 3 -0.005266 -0.005266 0.015777 0.000000 0.000000 0.000000
# 4 0.000000 0.000000 0.000000 0.040461 0.000000 0.000000
# 5 0.000000 0.000000 0.000000 0.000000 0.040461 0.000000
# 6 0.000000 0.000000 0.000000 0.000000 0.000000 0.072951
#
#
# Mechanical properties :
#
#
# Convention : Reuss Voigt Hill
#
# Bulk Modulus (GPa) = 50.12456 50.46967 50.29712
# Shear Modulus (GPa) = 19.49847 20.64396 20.07121
#
# Velocity S-wave (km/s) = 3.49467 3.59586 3.54563
# Velocity P-wave (km/s) = 6.90499 6.98940 6.94732
#
# Compressibility (1/GPa) = 0.01995030
#
# Stress axis : x y z
#
# Youngs Moduli (GPa) = 47.44682 47.44682 63.38480
#
# Poissons Ratio (x) = 0.40124 0.33381
# Poissons Ratio (y) = 0.40124 0.33381
# Poissons Ratio (z) = 0.24988 0.24988
#
# Static dielectric constant tensor:
#      x y z
#    x 2.992490 0.000000 0.000000 
#    y 0.000000 2.992490 0.000000 
#    z 0.000000 0.000000 3.084040 
# 
# 
# High freq. dielectric constant tensor:
#      x y z
#    x 1.606470 0.000000 0.000000 
#    y 0.000000 1.606470 0.000000 
#    z 0.000000 0.000000 1.616230 
# 
# From -- ./inp_files/13027.got.cif
#   From: 2010.03.12/outbox.cif.g09.slc.cpg/sg139_7_cif.got.tgz:13027.got - 2010.04.08 09:46:31.
