data_PCOD8319016
_publ_section_title
;
Structure prediction by ZEFSAII (Michael W. Deem and Ramdas Pophale) SiO2 
 PCOD8319016
Probable space group: P 42/N C M
;
_chemical_formula_sum "Si O2"
_cell_formula_units_Z 96
_cell_length_a 14.957720
_cell_length_b 14.957720
_cell_length_c 23.199310
_cell_angle_alpha 90.000000
_cell_angle_beta 90.000000
_cell_angle_gamma 90.000000
_cell_volume 5190.460216
_symmetry_space_group_name_H-M "P 42/N C M"
_symmetry_group_IT_number 138
_space_group.IT_coordinate_system_code '2'
_symmetry_cell_setting 'tetragonal'
loop_
_space_group_symop_operation_xyz
x,y,z
1/2-y,x,1/2+z
1/2-x,1/2-y,z
y,1/2-x,1/2+z
1/2+x,-y,1/2-z
-x,1/2+y,1/2-z
1/2+y,1/2+x,-z
-y,-x,-z
-x,-y,-z
1/2+y,-x,1/2-z
1/2+x,1/2+y,-z
-y,1/2+x,1/2-z
1/2-x,y,1/2+z
x,1/2-y,1/2+z
1/2-y,1/2-x,z
y,x,z
loop_
_atom_site_type_symbol
_atom_site_label
_atom_site_fract_x
_atom_site_fract_y
_atom_site_fract_z
Si Si1 0.494327 0.862128 0.647386
Si Si2 0.948118 0.088843 0.640409
Si Si3 0.030144 0.610033 0.443455
Si Si4 0.385800 0.696559 0.254448
Si Si5 0.186249 0.454997 0.907633
Si Si6 0.815037 0.448220 0.975765
O O1 0.563955 0.936046 0.668049
O O2 0.415837 0.906677 0.610056
O O3 0.456488 0.815289 0.703855
O O4 0.547085 0.790236 0.608268
O O5 0.928341 0.167836 0.684903
O O6 0.977244 0.125989 0.578411
O O7 0.860045 0.028469 0.633279
O O8 0.029331 0.029331 0.664670
O O9 0.060667 0.560667 0.500000
O O10 0.046944 0.714152 0.453196
O O11 0.927556 0.572445 0.431895
O O12 0.299958 0.637509 0.239060
O O13 0.142054 0.357947 0.897295
O O14 0.172355 0.479206 0.974453
O O15 0.850307 0.350307 0.000000
#
# Coordination Sequence:
#
# PCOD8319016 Si02
#       6
#    16  16  16  16  16  16
#     4  11  22  38  57  81 113 153 194 226 280 345
#     4  10  20  37  57  81 114 146 183 234 291 341
#     4  10  20  35  54  79 117 154 183 227 287 348
#     4  11  22  37  58  85 114 144 187 238 287 336
#     4  10  20  36  56  81 113 146 188 237 282 333
#     4  10  20  35  58  89 114 147 191 237 291 340
#
# _framework density 18.495470999999998
#
# number of rings (size 3 to 8) (size 9 to 14) (size 15 to 20)
#    0.000    1.667    3.333    2.000    0.000    2.667 
#    0.000    0.000    0.000    1.500    0.000    0.000 
#    0.000    0.000    0.000    0.000    0.000    0.000 
#
# Total GULP energy -1189918.105013 kJ/mol
# GULP energy per Si atom -12394.980261 kJ/mol
# Density = 1.845337 g / cm^3
# Si number density = 18.495471 Si / 1000 Ang^3
#
#
#
# Elastic Constant Matrix: (Units=GPa)
#
#
# Indices 1 2 3 4 5 6 
#
# 1 74.3505 42.2406 19.8461 0.0000 0.0000 0.0000
# 2 42.2406 74.3505 19.8461 0.0000 0.0000 0.0000
# 3 19.8461 19.8461 90.3735 0.0000 0.0000 0.0000
# 4 0.0000 0.0000 0.0000 22.7980 0.0000 0.0000
# 5 0.0000 0.0000 0.0000 0.0000 22.7980 0.0000
# 6 0.0000 0.0000 0.0000 0.0000 0.0000 19.2167
#
#
#
# Elastic Compliance Matrix: (Units=1/GPa)
#
#
# Indices 1 2 3 4 5 6 
#
# 1 0.020207 -0.010937 -0.002036 0.000000 0.000000 0.000000
# 2 -0.010937 0.020207 -0.002036 0.000000 0.000000 0.000000
# 3 -0.002036 -0.002036 0.011959 0.000000 0.000000 0.000000
# 4 0.000000 0.000000 0.000000 0.043863 0.000000 0.000000
# 5 0.000000 0.000000 0.000000 0.000000 0.043863 0.000000
# 6 0.000000 0.000000 0.000000 0.000000 0.000000 0.052038
#
#
# Mechanical properties :
#
#
# Convention : Reuss Voigt Hill
#
# Bulk Modulus (GPa) = 44.72970 44.77109 44.75040
# Shear Modulus (GPa) = 21.77650 23.43866 22.60758
#
# Velocity S-wave (km/s) = 3.43504 3.56373 3.49998
# Velocity P-wave (km/s) = 6.32213 6.41815 6.37032
#
# Compressibility (1/GPa) = 0.02235651
#
# Stress axis : x y z
#
# Youngs Moduli (GPa) = 49.48897 49.48897 83.61712
#
# Poissons Ratio (x) = 0.54124 0.17022
# Poissons Ratio (y) = 0.54124 0.17022
# Poissons Ratio (z) = 0.10074 0.10074
#
# Static dielectric constant tensor:
#      x y z
#    x 2.471040 0.000000 0.000000 
#    y 0.000000 2.471040 0.000000 
#    z 0.000000 0.000000 3.354010 
# 
# 
# High freq. dielectric constant tensor:
#      x y z
#    x 1.708730 0.000000 0.000000 
#    y 0.000000 1.708730 0.000000 
#    z 0.000000 0.000000 1.724780 
# 
# From -- ./inp_files/6205.got.cif
#   From: 2010.03.12/outbox.cif.g09.slc.cpg/sg138_4_cif.got.tgz:6205.got - 2010.04.08 09:41:05.
