data_PCOD8319424
_publ_section_title
;
Structure prediction by ZEFSAII (Michael W. Deem and Ramdas Pophale) SiO2 
 PCOD8319424
Probable space group: I 4/M M M
;
_chemical_formula_sum "Si O2"
_cell_formula_units_Z 240
_cell_length_a 21.870521
_cell_length_b 21.870521
_cell_length_c 28.968038
_cell_angle_alpha 90.000000
_cell_angle_beta 90.000000
_cell_angle_gamma 90.000000
_cell_volume 13855.982922
_symmetry_space_group_name_H-M "I 4/M M M"
_symmetry_group_IT_number 139
_symmetry_cell_setting 'tetragonal'
loop_
_space_group_symop_operation_xyz
x,y,z
-y,x,z
-x,-y,z
y,-x,z
x,-y,-z
-x,y,-z
y,x,-z
-y,-x,-z
-x,-y,-z
y,-x,-z
x,y,-z
-y,x,-z
-x,y,z
x,-y,z
-y,-x,z
y,x,z
1/2+x,1/2+y,1/2+z
1/2-y,1/2+x,1/2+z
1/2-x,1/2-y,1/2+z
1/2+y,1/2-x,1/2+z
1/2+x,1/2-y,1/2-z
1/2-x,1/2+y,1/2-z
1/2+y,1/2+x,1/2-z
1/2-y,1/2-x,1/2-z
1/2-x,1/2-y,1/2-z
1/2+y,1/2-x,1/2-z
1/2+x,1/2+y,1/2-z
1/2-y,1/2+x,1/2-z
1/2-x,1/2+y,1/2+z
1/2+x,1/2-y,1/2+z
1/2-y,1/2-x,1/2+z
1/2+y,1/2+x,1/2+z
loop_
_atom_site_type_symbol
_atom_site_label
_atom_site_fract_x
_atom_site_fract_y
_atom_site_fract_z
Si Si1 0.230517 0.373738 0.703867
Si Si2 0.167676 0.070388 0.860726
Si Si3 0.221841 0.876532 0.947725
Si Si4 0.395885 0.068513 0.800917
Si Si5 0.343298 0.752571 0.193081
Si Si6 0.430456 0.178229 0.133905
Si Si7 0.864289 0.623175 0.446373
Si Si8 0.500000 0.069203 0.445524
O O1 0.285127 0.392993 0.670921
O O2 0.177141 0.423870 0.701204
O O3 0.255464 0.368928 0.755524
O O4 0.204193 0.308446 0.688429
O O5 0.101153 0.101153 0.855068
O O6 0.189639 0.075216 0.913836
O O7 0.162867 0.000000 0.845924
O O8 0.190297 0.809704 0.942138
O O9 0.292878 0.872574 0.934760
O O10 0.214128 0.901078 0.000000
O O11 0.422687 0.077314 0.750000
O O12 0.425568 0.116263 0.836161
O O13 0.411071 0.000000 0.818254
O O14 0.309341 0.690660 0.177935
O O15 0.400504 0.764330 0.159938
O O16 0.500000 0.194845 0.124918
O O17 0.398105 0.173550 0.084203
O O18 0.877615 0.636092 0.500000
O O19 0.891768 0.558411 0.429639
O O20 0.500000 0.063410 0.500000
O O21 0.500000 0.000000 0.424433
#
# Coordination Sequence:
#
# PCOD8319424 Si02
#       8
#    32  32  32  32  32  32  32  16
#     4  10  18  34  54  77  99 126 168 214 257 304
#     4  11  23  36  54  77 102 136 174 219 272 325
#     4   9  19  36  56  79 104 130 170 225 277 320
#     4  11  21  33  49  72 104 141 172 204 247 300
#     4  10  19  34  55  76 102 131 162 209 261 308
#     4  11  23  35  49  73 103 139 177 211 251 306
#     4  10  21  35  53  74  98 135 176 216 258 300
#     4   9  18  32  48  68  98 134 173 213 247 289
#
# _framework density 17.321037
#
# number of rings (size 3 to 8) (size 9 to 14) (size 15 to 20)
#    0.000    1.800    2.667    4.400    1.867    4.267 
#    0.000    0.000    0.000    0.000    0.000    1.867 
#    0.000    0.267    0.000    0.000    0.000    0.000 
#
# Total GULP energy -1488056.364102 kJ/mol
# GULP energy per Si atom -12400.469701 kJ/mol
# Density = 1.728161 g / cm^3
# Si number density = 17.321037 Si / 1000 Ang^3
#
#
#
# Elastic Constant Matrix: (Units=GPa)
#
#
# Indices 1 2 3 4 5 6 
#
# 1 66.8326 29.2785 22.6683 0.0000 0.0000 0.0000
# 2 29.2785 66.8332 22.6683 0.0000 0.0000 0.0000
# 3 22.6683 22.6683 59.9494 0.0000 0.0000 0.0000
# 4 0.0000 0.0000 0.0000 14.6758 0.0000 0.0000
# 5 0.0000 0.0000 0.0000 0.0000 14.6757 0.0000
# 6 0.0000 0.0000 0.0000 0.0000 0.0000 19.9775
#
#
#
# Elastic Compliance Matrix: (Units=1/GPa)
#
#
# Indices 1 2 3 4 5 6 
#
# 1 0.019646 -0.006982 -0.004788 0.000000 0.000000 0.000000
# 2 -0.006982 0.019646 -0.004788 0.000000 0.000000 0.000000
# 3 -0.004788 -0.004788 0.020302 0.000000 0.000000 0.000000
# 4 0.000000 0.000000 0.000000 0.068140 0.000000 0.000000
# 5 0.000000 0.000000 0.000000 0.000000 0.068140 0.000000
# 6 0.000000 0.000000 0.000000 0.000000 0.000000 0.050056
#
#
# Mechanical properties :
#
#
# Convention : Reuss Voigt Hill
#
# Bulk Modulus (GPa) = 37.77111 38.09394 37.93252
# Shear Modulus (GPa) = 17.36883 17.79913 17.58398
#
# Velocity S-wave (km/s) = 3.17007 3.20910 3.18965
# Velocity P-wave (km/s) = 5.93742 5.98095 5.95922
#
# Compressibility (1/GPa) = 0.02647526
#
# Stress axis : x y z
#
# Youngs Moduli (GPa) = 50.90153 50.90212 49.25659
#
# Poissons Ratio (x) = 0.35542 0.23586
# Poissons Ratio (y) = 0.35541 0.23585
# Poissons Ratio (z) = 0.24373 0.24373
#
# Static dielectric constant tensor:
#      x y z
#    x 3.172570 0.000000 0.000000 
#    y 0.000000 3.172570 0.000000 
#    z 0.000000 0.000000 3.314590 
# 
# 
# High freq. dielectric constant tensor:
#      x y z
#    x 1.650600 0.000000 0.000000 
#    y 0.000000 1.650600 0.000000 
#    z 0.000000 0.000000 1.676380 
# 
# From -- ./inp_files/13414.got.cif
#   From: 2010.03.12/outbox.cif.g09.slc.cpg/sg139_7_cif.got.tgz:13414.got - 2010.04.08 09:46:31.
