data_PCOD8319216
_publ_section_title
;
Structure prediction by ZEFSAII (Michael W. Deem and Ramdas Pophale) SiO2 
 PCOD8319216
Probable space group: P 42/N C M
;
_chemical_formula_sum "Si O2"
_cell_formula_units_Z 64
_cell_length_a 11.673458
_cell_length_b 11.673458
_cell_length_c 27.324367
_cell_angle_alpha 90.000000
_cell_angle_beta 90.000000
_cell_angle_gamma 90.000000
_cell_volume 3723.481154
_symmetry_space_group_name_H-M "P 42/N C M"
_symmetry_group_IT_number 138
_space_group.IT_coordinate_system_code '2'
_symmetry_cell_setting 'tetragonal'
loop_
_space_group_symop_operation_xyz
x,y,z
1/2-y,x,1/2+z
1/2-x,1/2-y,z
y,1/2-x,1/2+z
1/2+x,-y,1/2-z
-x,1/2+y,1/2-z
1/2+y,1/2+x,-z
-y,-x,-z
-x,-y,-z
1/2+y,-x,1/2-z
1/2+x,1/2+y,-z
-y,1/2+x,1/2-z
1/2-x,y,1/2+z
x,1/2-y,1/2+z
1/2-y,1/2-x,z
y,x,z
loop_
_atom_site_type_symbol
_atom_site_label
_atom_site_fract_x
_atom_site_fract_y
_atom_site_fract_z
Si Si1 0.345467 0.154534 0.312257
Si Si2 0.425950 0.887625 0.053951
Si Si3 0.845337 0.654664 0.800127
Si Si4 0.068220 0.715172 0.858866
Si Si5 0.576178 0.279698 0.864581
O O1 0.250000 0.250000 0.317779
O O2 0.372488 0.127513 0.256035
O O3 0.458321 0.199576 0.337958
O O4 0.335331 0.960054 0.087020
O O5 0.444317 0.762255 0.078967
O O6 0.547279 0.952722 0.051573
O O7 0.372996 0.872996 0.000000
O O8 0.750000 0.750000 0.806720
O O9 0.797658 0.539538 0.824014
O O10 0.104590 0.848258 0.863642
O O11 0.175425 0.642152 0.836826
#
# Coordination Sequence:
#
# PCOD8319216 Si02
#       5
#     8  16   8  16  16
#     4  11  24  38  56  83 113 153 193 240 293 338
#     4   9  16  32  63  87 113 153 189 225 291 355
#     4  11  24  38  57  78 113 157 192 241 291 338
#     4   9  19  38  57  81 112 148 189 239 286 341
#     4   9  20  36  59  83 113 146 188 241 281 342
#
# _framework density 17.188216000000001
#
# number of rings (size 3 to 8) (size 9 to 14) (size 15 to 20)
#    1.500    1.000    1.250    0.750    3.500    4.000 
#    0.000    2.500    2.750    1.500    0.000    0.000 
#    0.000    0.000    0.000    0.000    0.000    0.000 
#
# Total GULP energy -792939.129371 kJ/mol
# GULP energy per Si atom -12389.673896 kJ/mol
# Density = 1.714909 g / cm^3
# Si number density = 17.188216 Si / 1000 Ang^3
#
#
#
# Elastic Constant Matrix: (Units=GPa)
#
#
# Indices 1 2 3 4 5 6 
#
# 1 98.7413 31.8746 64.9898 0.0000 0.0000 0.0000
# 2 31.8746 98.7413 64.9898 0.0000 0.0000 0.0000
# 3 64.9898 64.9898 148.1276 0.0000 0.0000 0.0000
# 4 0.0000 0.0000 0.0000 20.3820 0.0000 0.0000
# 5 0.0000 0.0000 0.0000 0.0000 20.3820 0.0000
# 6 0.0000 0.0000 0.0000 0.0000 0.0000 29.1890
#
#
#
# Elastic Compliance Matrix: (Units=1/GPa)
#
#
# Indices 1 2 3 4 5 6 
#
# 1 0.014272 -0.000683 -0.005962 0.000000 0.000000 0.000000
# 2 -0.000683 0.014272 -0.005962 0.000000 0.000000 0.000000
# 3 -0.005962 -0.005962 0.011983 0.000000 0.000000 0.000000
# 4 0.000000 0.000000 0.000000 0.049063 0.000000 0.000000
# 5 0.000000 0.000000 0.000000 0.000000 0.049063 0.000000
# 6 0.000000 0.000000 0.000000 0.000000 0.000000 0.034260
#
#
# Mechanical properties :
#
#
# Convention : Reuss Voigt Hill
#
# Bulk Modulus (GPa) = 65.30671 74.36872 69.83772
# Shear Modulus (GPa) = 24.60255 26.24097 25.42176
#
# Velocity S-wave (km/s) = 3.78744 3.91152 3.84998
# Velocity P-wave (km/s) = 7.56332 7.98506 7.77705
#
# Compressibility (1/GPa) = 0.01531236
#
# Stress axis : x y z
#
# Youngs Moduli (GPa) = 70.06665 70.06665 83.45431
#
# Poissons Ratio (x) = 0.04786 0.49756
# Poissons Ratio (y) = 0.04786 0.49756
# Poissons Ratio (z) = 0.41775 0.41775
#
# Static dielectric constant tensor:
#      x y z
#    x 3.040140 0.000000 0.000000 
#    y 0.000000 3.040140 0.000000 
#    z 0.000000 0.000000 3.125440 
# 
# 
# High freq. dielectric constant tensor:
#      x y z
#    x 1.659010 0.000000 0.000000 
#    y 0.000000 1.659010 0.000000 
#    z 0.000000 0.000000 1.652710 
# 
# From -- ./inp_files/7333.got.cif
#   From: 2010.03.12/outbox.cif.g09.slc.cpg/sg138_4_cif.got.tgz:7333.got - 2010.04.08 09:41:05.
