data_PCOD8319912
_publ_section_title
;
Structure prediction by ZEFSAII (Michael W. Deem and Ramdas Pophale) SiO2 
 PCOD8319912
Probable space group: I 4/M M M
;
_chemical_formula_sum "Si O2"
_cell_formula_units_Z 160
_cell_length_a 20.553803
_cell_length_b 20.553803
_cell_length_c 18.797380
_cell_angle_alpha 90.000000
_cell_angle_beta 90.000000
_cell_angle_gamma 90.000000
_cell_volume 7941.118932
_symmetry_space_group_name_H-M "I 4/M M M"
_symmetry_group_IT_number 139
_symmetry_cell_setting 'tetragonal'
loop_
_space_group_symop_operation_xyz
x,y,z
-y,x,z
-x,-y,z
y,-x,z
x,-y,-z
-x,y,-z
y,x,-z
-y,-x,-z
-x,-y,-z
y,-x,-z
x,y,-z
-y,x,-z
-x,y,z
x,-y,z
-y,-x,z
y,x,z
1/2+x,1/2+y,1/2+z
1/2-y,1/2+x,1/2+z
1/2-x,1/2-y,1/2+z
1/2+y,1/2-x,1/2+z
1/2+x,1/2-y,1/2-z
1/2-x,1/2+y,1/2-z
1/2+y,1/2+x,1/2-z
1/2-y,1/2-x,1/2-z
1/2-x,1/2-y,1/2-z
1/2+y,1/2-x,1/2-z
1/2+x,1/2+y,1/2-z
1/2-y,1/2+x,1/2-z
1/2-x,1/2+y,1/2+z
1/2+x,1/2-y,1/2+z
1/2-y,1/2-x,1/2+z
1/2+y,1/2+x,1/2+z
loop_
_atom_site_type_symbol
_atom_site_label
_atom_site_fract_x
_atom_site_fract_y
_atom_site_fract_z
Si Si1 0.423073 0.073229 0.580285
Si Si2 0.926947 0.821215 0.420826
Si Si3 0.800922 0.374536 0.657696
Si Si4 0.642813 0.252893 0.803323
Si Si5 0.426758 0.676718 0.415998
O O1 0.398123 0.089089 0.500000
O O2 0.500000 0.075276 0.580915
O O3 0.398884 0.127116 0.636474
O O4 0.399574 0.000000 0.602169
O O5 0.915586 0.792512 0.500000
O O6 0.884469 0.884469 0.407124
O O7 0.909876 0.765536 0.364545
O O8 0.000000 0.844428 0.409625
O O9 0.778016 0.397013 0.736836
O O10 0.804091 0.296431 0.663269
O O11 0.747734 0.398476 0.601569
O O12 0.681552 0.318449 0.780804
O O13 0.428895 0.671100 0.500000
O O14 0.500000 0.668542 0.384886
O O15 0.380292 0.619709 0.384431
#
# Coordination Sequence:
#
# PCOD8319912 Si02
#       5
#    32  32  32  32  32
#     4   9  19  36  56  80 113 148 179 219 273 325
#     4   9  19  36  57  82 112 146 186 234 292 359
#     4  11  20  35  58  80 106 143 191 234 272 334
#     4  10  22  38  54  76 109 145 179 228 293 343
#     4  10  21  36  56  84 116 151 192 236 281 331
#
# _framework density 20.148295000000001
#
# number of rings (size 3 to 8) (size 9 to 14) (size 15 to 20)
#    0.000    2.200    0.000    4.200    0.000    6.000 
#    0.000   12.000    0.000    4.800    0.000    2.800 
#    0.000    0.000    0.000    0.000    0.000    0.000 
#
# Total GULP energy -991480.352488 kJ/mol
# GULP energy per Si atom -12393.504406 kJ/mol
# Density = 2.010244 g / cm^3
# Si number density = 20.148295 Si / 1000 Ang^3
#
#
#
# Elastic Constant Matrix: (Units=GPa)
#
#
# Indices 1 2 3 4 5 6 
#
# 1 102.8904 31.4757 51.5370 0.0000 0.0000 0.0000
# 2 31.4757 102.8904 51.5370 0.0000 0.0000 0.0000
# 3 51.5370 51.5370 108.6030 0.0000 0.0000 0.0000
# 4 0.0000 0.0000 0.0000 23.5645 0.0000 0.0000
# 5 0.0000 0.0000 0.0000 0.0000 23.5645 0.0000
# 6 0.0000 0.0000 0.0000 0.0000 0.0000 25.9456
#
#
#
# Elastic Compliance Matrix: (Units=1/GPa)
#
#
# Indices 1 2 3 4 5 6 
#
# 1 0.012853 -0.001150 -0.005553 0.000000 0.000000 0.000000
# 2 -0.001150 0.012853 -0.005553 0.000000 0.000000 0.000000
# 3 -0.005553 -0.005553 0.014478 0.000000 0.000000 0.000000
# 4 0.000000 0.000000 0.000000 0.042437 0.000000 0.000000
# 5 0.000000 0.000000 0.000000 0.000000 0.042437 0.000000
# 6 0.000000 0.000000 0.000000 0.000000 0.000000 0.038542
#
#
# Mechanical properties :
#
#
# Convention : Reuss Voigt Hill
#
# Bulk Modulus (GPa) = 63.81637 64.83147 64.32392
# Shear Modulus (GPa) = 25.86171 26.60386 26.23278
#
# Velocity S-wave (km/s) = 3.58658 3.63768 3.61222
# Velocity P-wave (km/s) = 6.99239 7.06333 7.02795
#
# Compressibility (1/GPa) = 0.01566996
#
# Stress axis : x y z
#
# Youngs Moduli (GPa) = 77.80560 77.80560 69.06825
#
# Poissons Ratio (x) = 0.08949 0.38356
# Poissons Ratio (y) = 0.08949 0.38356
# Poissons Ratio (z) = 0.43208 0.43208
#
# Static dielectric constant tensor:
#      x y z
#    x 3.739760 0.000000 0.000000 
#    y 0.000000 3.739760 0.000000 
#    z 0.000000 0.000000 3.808560 
# 
# 
# High freq. dielectric constant tensor:
#      x y z
#    x 1.783380 0.000000 0.000000 
#    y 0.000000 1.783380 0.000000 
#    z 0.000000 0.000000 1.780770 
# 
# From -- ./inp_files/8368.got.cif
#   From: 2010.03.12/outbox.cif.g09.slc.cpg/sg139_5_cif.got.tgz:8368.got - 2010.04.08 09:46:31.
