data_PCOD8319755
_publ_section_title
;
Structure prediction by ZEFSAII (Michael W. Deem and Ramdas Pophale) SiO2 
 PCOD8319755
Probable space group: I 4/M M M
;
_chemical_formula_sum "Si O2"
_cell_formula_units_Z 128
_cell_length_a 29.367143
_cell_length_b 29.367143
_cell_length_c 8.680416
_cell_angle_alpha 90.000000
_cell_angle_beta 90.000000
_cell_angle_gamma 90.000000
_cell_volume 7486.243254
_symmetry_space_group_name_H-M "I 4/M M M"
_symmetry_group_IT_number 139
_symmetry_cell_setting 'tetragonal'
loop_
_space_group_symop_operation_xyz
x,y,z
-y,x,z
-x,-y,z
y,-x,z
x,-y,-z
-x,y,-z
y,x,-z
-y,-x,-z
-x,-y,-z
y,-x,-z
x,y,-z
-y,x,-z
-x,y,z
x,-y,z
-y,-x,z
y,x,z
1/2+x,1/2+y,1/2+z
1/2-y,1/2+x,1/2+z
1/2-x,1/2-y,1/2+z
1/2+y,1/2-x,1/2+z
1/2+x,1/2-y,1/2-z
1/2-x,1/2+y,1/2-z
1/2+y,1/2+x,1/2-z
1/2-y,1/2-x,1/2-z
1/2-x,1/2-y,1/2-z
1/2+y,1/2-x,1/2-z
1/2+x,1/2+y,1/2-z
1/2-y,1/2+x,1/2-z
1/2-x,1/2+y,1/2+z
1/2+x,1/2-y,1/2+z
1/2-y,1/2-x,1/2+z
1/2+y,1/2+x,1/2+z
loop_
_atom_site_type_symbol
_atom_site_label
_atom_site_fract_x
_atom_site_fract_y
_atom_site_fract_z
Si Si1 0.382152 0.382152 0.827405
Si Si2 0.948879 0.177771 0.831711
Si Si3 0.551506 0.770938 0.179460
Si Si4 0.805925 0.194076 0.674856
Si Si5 0.283778 0.852606 0.182198
O O1 0.425904 0.366534 0.735411
O O2 0.343897 0.343897 0.822878
O O3 0.395484 0.395484 0.000000
O O4 0.943742 0.217326 0.706519
O O5 0.000000 0.163326 0.857081
O O6 0.928229 0.192437 0.000000
O O7 0.500000 0.786893 0.234676
O O8 0.594270 0.792070 0.270681
O O9 0.557282 0.781760 0.000000
O O10 0.792454 0.207547 0.500000
O O11 0.827521 0.238281 0.756484
O O12 0.327238 0.827238 0.250000
O O13 0.283187 0.849178 0.000000
#
# Coordination Sequence:
#
# PCOD8319755 Si02
#       5
#    16  32  32  16  32
#     4  11  21  32  52  74  99 131 165 209 255 308
#     4  10  20  33  51  74  98 126 163 208 257 307
#     4  10  20  35  54  76 103 133 169 213 256 299
#     4  11  22  36  51  73 104 140 179 214 255 302
#     4  12  24  37  54  75 105 142 179 216 256 305
#
# _framework density 17.098027999999999
#
# number of rings (size 3 to 8) (size 9 to 14) (size 15 to 20)
#    0.000    1.250    2.500    4.875    0.000    4.000 
#    0.000    0.000    0.000    0.375    0.000    2.625 
#    0.000    0.500    0.000    5.250    0.000    2.250 
#
# Total GULP energy -793044.220712 kJ/mol
# GULP energy per Si atom -12391.315949 kJ/mol
# Density = 1.705911 g / cm^3
# Si number density = 17.098028 Si / 1000 Ang^3
#
#
#
# Elastic Constant Matrix: (Units=GPa)
#
#
# Indices 1 2 3 4 5 6 
#
# 1 73.7956 39.8651 40.7184 0.0000 0.0000 0.0000
# 2 39.8651 73.7962 40.7194 0.0000 0.0000 0.0000
# 3 40.7184 40.7194 127.9748 0.0000 0.0000 0.0000
# 4 0.0000 0.0000 0.0000 25.3683 0.0000 0.0000
# 5 0.0000 0.0000 0.0000 0.0000 25.3683 0.0000
# 6 0.0000 0.0000 0.0000 0.0000 0.0000 23.8308
#
#
#
# Elastic Compliance Matrix: (Units=1/GPa)
#
#
# Indices 1 2 3 4 5 6 
#
# 1 0.020434 -0.009038 -0.003626 0.000000 0.000000 0.000000
# 2 -0.009038 0.020434 -0.003626 0.000000 0.000000 0.000000
# 3 -0.003626 -0.003626 0.010121 0.000000 0.000000 0.000000
# 4 0.000000 0.000000 0.000000 0.039419 0.000000 0.000000
# 5 0.000000 0.000000 0.000000 0.000000 0.039419 0.000000
# 6 0.000000 0.000000 0.000000 0.000000 0.000000 0.041962
#
#
# Mechanical properties :
#
#
# Convention : Reuss Voigt Hill
#
# Bulk Modulus (GPa) = 54.31922 57.57470 55.94696
# Shear Modulus (GPa) = 23.75223 25.19774 24.47499
#
# Velocity S-wave (km/s) = 3.73121 3.84307 3.78756
# Velocity P-wave (km/s) = 7.09936 7.31018 7.20554
#
# Compressibility (1/GPa) = 0.01840969
#
# Stress axis : x y z
#
# Youngs Moduli (GPa) = 48.93820 48.93822 98.79985
#
# Poissons Ratio (x) = 0.44229 0.35824
# Poissons Ratio (y) = 0.44229 0.35826
# Poissons Ratio (z) = 0.17744 0.17746
#
# Static dielectric constant tensor:
#      x y z
#    x 2.894780 0.000000 0.000000 
#    y 0.000000 2.894760 0.000000 
#    z 0.000000 0.000000 3.511900 
# 
# 
# High freq. dielectric constant tensor:
#      x y z
#    x 1.640280 0.000000 0.000000 
#    y 0.000000 1.640280 0.000000 
#    z 0.000000 0.000000 1.683360 
# 
# From -- ./inp_files/1861.got.cif
#   From: 2010.03.12/outbox.cif.g09.slc.cpg/sg139_1_cif.got.tgz:1861.got - 2010.04.08 09:46:31.
