data_PCOD8319911
_publ_section_title
;
Structure prediction by ZEFSAII (Michael W. Deem and Ramdas Pophale) SiO2 
 PCOD8319911
Probable space group: I 4/M M M
;
_chemical_formula_sum "Si O2"
_cell_formula_units_Z 64
_cell_length_a 17.895136
_cell_length_b 17.895136
_cell_length_c 10.515975
_cell_angle_alpha 90.000000
_cell_angle_beta 90.000000
_cell_angle_gamma 90.000000
_cell_volume 3367.592639
_symmetry_space_group_name_H-M "I 4/M M M"
_symmetry_group_IT_number 139
_symmetry_cell_setting 'tetragonal'
loop_
_space_group_symop_operation_xyz
x,y,z
-y,x,z
-x,-y,z
y,-x,z
x,-y,-z
-x,y,-z
y,x,-z
-y,-x,-z
-x,-y,-z
y,-x,-z
x,y,-z
-y,x,-z
-x,y,z
x,-y,z
-y,-x,z
y,x,z
1/2+x,1/2+y,1/2+z
1/2-y,1/2+x,1/2+z
1/2-x,1/2-y,1/2+z
1/2+y,1/2-x,1/2+z
1/2+x,1/2-y,1/2-z
1/2-x,1/2+y,1/2-z
1/2+y,1/2+x,1/2-z
1/2-y,1/2-x,1/2-z
1/2-x,1/2-y,1/2-z
1/2+y,1/2-x,1/2-z
1/2+x,1/2+y,1/2-z
1/2-y,1/2+x,1/2-z
1/2-x,1/2+y,1/2+z
1/2+x,1/2-y,1/2+z
1/2-y,1/2-x,1/2+z
1/2+y,1/2+x,1/2+z
loop_
_atom_site_type_symbol
_atom_site_label
_atom_site_fract_x
_atom_site_fract_y
_atom_site_fract_z
Si Si1 0.666072 0.333929 0.000000
Si Si2 0.413033 0.586968 0.500000
Si Si3 0.088009 0.679205 0.500000
Si Si4 0.587464 0.587464 0.228328
Si Si5 0.085571 0.414430 0.750000
O O1 0.752928 0.353701 0.000000
O O2 0.631632 0.368368 0.125001
O O3 0.397218 0.500000 0.500000
O O4 0.381772 0.618229 0.365866
O O5 0.107825 0.632864 0.373723
O O6 0.000000 0.703139 0.500000
O O7 0.500000 0.603702 0.212945
O O8 0.099683 0.500000 0.712414
#
# Coordination Sequence:
#
# PCOD8319911 Si02
#       5
#     8   8  16  16  16
#     4  12  22  31  46  75 120 153 172 202 254 325
#     4   7  12  24  42  61  80 115 180 245 272 279
#     4  10  21  36  56  83 111 142 181 221 267 323
#     4   9  16  28  46  66  94 141 195 234 259 289
#     4   9  18  37  64  86 102 127 174 237 290 324
#
# _framework density 19.004673
#
# number of rings (size 3 to 8) (size 9 to 14) (size 15 to 20)
#    0.000    2.625    0.000    4.500    0.000    5.000 
#    0.000    2.500    0.000    6.000    0.000    0.000 
#    0.000    0.000    0.000    0.000    0.000    4.500 
#
# Total GULP energy -396481.981419 kJ/mol
# GULP energy per Si atom -12390.061919 kJ/mol
# Density = 1.896142 g / cm^3
# Si number density = 19.004673 Si / 1000 Ang^3
#
#
#
# Elastic Constant Matrix: (Units=GPa)
#
#
# Indices 1 2 3 4 5 6 
#
# 1 1132.2890 -973.2851 78.1663 0.0000 0.0000 0.0000
# 2 -973.2851 1132.3525 78.0574 0.0000 0.0000 0.0000
# 3 78.1663 78.0574 211.1697 0.0000 0.0000 0.0000
# 4 0.0000 0.0000 0.0000 19.5943 0.0000 0.0000
# 5 0.0000 0.0000 0.0000 0.0000 19.5948 0.0000
# 6 0.0000 0.0000 0.0000 0.0000 0.0000 25.8249
#
#
#
# Elastic Compliance Matrix: (Units=1/GPa)
#
#
# Indices 1 2 3 4 5 6 
#
# 1 0.005176 0.004701 -0.003654 0.000000 0.000000 0.000000
# 2 0.004701 0.005175 -0.003653 0.000000 0.000000 0.000000
# 3 -0.003654 -0.003653 0.007438 0.000000 0.000000 0.000000
# 4 0.000000 0.000000 0.000000 0.051035 0.000000 0.000000
# 5 0.000000 0.000000 0.000000 0.000000 0.051034 0.000000
# 6 0.000000 0.000000 0.000000 0.000000 0.000000 0.038722
#
#
# Mechanical properties :
#
#
# Convention : Reuss Voigt Hill
#
# Bulk Modulus (GPa) = 79.50310 93.52092 86.51201
# Shear Modulus (GPa) = 29.76440 232.52765 131.14603
#
# Velocity S-wave (km/s) = 3.96177 11.07332 8.31607
# Velocity P-wave (km/s) = 7.92791 14.58793 11.74009
#
# Compressibility (1/GPa) = 0.01257813
#
# Stress axis : x y z
#
# Youngs Moduli (GPa) = 193.19372 193.21894 134.43898
#
# Poissons Ratio (x) = -0.90830 0.49119
# Poissons Ratio (y) = -0.90818 0.49113
# Poissons Ratio (z) = 0.70586 0.70586
#
# Static dielectric constant tensor:
#      x y z
#    x 3.292060 0.000000 0.000000 
#    y 0.000000 3.292040 0.000000 
#    z 0.000000 0.000000 4.017280 
# 
# 
# High freq. dielectric constant tensor:
#      x y z
#    x 1.711350 0.000000 0.000000 
#    y 0.000000 1.711350 0.000000 
#    z 0.000000 0.000000 1.771200 
# 
# From -- ./inp_files/726.got.cif
#   From: 2010.03.12/outbox.cif.g09.slc.cpg/sg139_1_cif.got.tgz:726.got - 2010.04.08 09:46:31.
