data_PCOD8319368
_publ_section_title
;
Structure prediction by ZEFSAII (Michael W. Deem and Ramdas Pophale) SiO2 
 PCOD8319368
Probable space group: I 4/M M M
;
_chemical_formula_sum "Si O2"
_cell_formula_units_Z 192
_cell_length_a 18.968177
_cell_length_b 18.968177
_cell_length_c 31.407289
_cell_angle_alpha 90.000000
_cell_angle_beta 90.000000
_cell_angle_gamma 90.000000
_cell_volume 11300.083117
_symmetry_space_group_name_H-M "I 4/M M M"
_symmetry_group_IT_number 139
_symmetry_cell_setting 'tetragonal'
loop_
_space_group_symop_operation_xyz
x,y,z
-y,x,z
-x,-y,z
y,-x,z
x,-y,-z
-x,y,-z
y,x,-z
-y,-x,-z
-x,-y,-z
y,-x,-z
x,y,-z
-y,x,-z
-x,y,z
x,-y,z
-y,-x,z
y,x,z
1/2+x,1/2+y,1/2+z
1/2-y,1/2+x,1/2+z
1/2-x,1/2-y,1/2+z
1/2+y,1/2-x,1/2+z
1/2+x,1/2-y,1/2-z
1/2-x,1/2+y,1/2-z
1/2+y,1/2+x,1/2-z
1/2-y,1/2-x,1/2-z
1/2-x,1/2-y,1/2-z
1/2+y,1/2-x,1/2-z
1/2+x,1/2+y,1/2-z
1/2-y,1/2+x,1/2-z
1/2-x,1/2+y,1/2+z
1/2+x,1/2-y,1/2+z
1/2-y,1/2-x,1/2+z
1/2+y,1/2+x,1/2+z
loop_
_atom_site_type_symbol
_atom_site_label
_atom_site_fract_x
_atom_site_fract_y
_atom_site_fract_z
Si Si1 0.080062 0.805555 0.950789
Si Si2 0.802901 0.919192 0.637138
Si Si3 0.655549 0.082628 0.084446
Si Si4 0.581561 0.081561 0.750000
Si Si5 0.306117 0.419465 0.955373
Si Si6 0.081993 0.652713 0.336206
Si Si7 0.420250 0.084096 0.000000
O O1 0.130857 0.869143 0.937188
O O2 0.097293 0.738577 0.921349
O O3 0.000000 0.831165 0.943489
O O4 0.091060 0.783576 0.000000
O O5 0.866848 0.866848 0.649066
O O6 0.768926 0.902906 0.589830
O O7 0.736918 0.907346 0.668156
O O8 0.830603 0.000000 0.640190
O O9 0.629313 0.120987 0.126542
O O10 0.639667 0.000000 0.089228
O O11 0.615939 0.113546 0.042837
O O12 0.500000 0.096931 0.741892
O O13 0.622218 0.109006 0.708479
O O14 0.327130 0.500000 0.956624
O O15 0.379897 0.379897 0.955124
O O16 0.263710 0.400007 0.000000
O O17 0.000000 0.633320 0.344853
O O18 0.500000 0.111854 0.000000
O O19 0.414938 0.000000 0.000000
#
# Coordination Sequence:
#
# PCOD8319368 Si02
#       7
#    32  32  32  16  32  32  16
#     4   9  17  30  47  68  97 132 171 213 252 291
#     4   9  18  32  48  68  95 126 163 206 247 287
#     4  10  18  30  47  69  98 130 162 197 239 290
#     4   9  18  34  55  76  96 120 153 192 238 293
#     4   8  13  22  36  54  79 112 149 189 230 269
#     4  10  20  33  50  73  99 127 160 202 246 290
#     4   9  16  26  41  62  91 127 163 192 221 270
#
# _framework density 16.991025
#
# number of rings (size 3 to 8) (size 9 to 14) (size 15 to 20)
#    0.000    2.833    0.833    1.000    0.000    2.833 
#    1.500    3.750    0.000    0.000    0.000    0.000 
#    0.000    0.000    0.000    8.667    0.000    0.333 
#
# Total GULP energy -1189456.509991 kJ/mol
# GULP energy per Si atom -12390.171979 kJ/mol
# Density = 1.695235 g / cm^3
# Si number density = 16.991025 Si / 1000 Ang^3
#
#
#
# Elastic Constant Matrix: (Units=GPa)
#
#
# Indices 1 2 3 4 5 6 
#
# 1 73.0506 49.4587 51.9565 0.0000 0.0000 0.0000
# 2 49.4587 73.0506 51.9565 0.0000 0.0000 0.0000
# 3 51.9565 51.9565 111.5283 0.0000 0.0000 0.0000
# 4 0.0000 0.0000 0.0000 19.0610 0.0000 0.0000
# 5 0.0000 0.0000 0.0000 0.0000 19.0610 0.0000
# 6 0.0000 0.0000 0.0000 0.0000 0.0000 21.8864
#
#
#
# Elastic Compliance Matrix: (Units=1/GPa)
#
#
# Indices 1 2 3 4 5 6 
#
# 1 0.027941 -0.014446 -0.006287 0.000000 0.000000 0.000000
# 2 -0.014446 0.027941 -0.006287 0.000000 0.000000 0.000000
# 3 -0.006287 -0.006287 0.014824 0.000000 0.000000 0.000000
# 4 0.000000 0.000000 0.000000 0.052463 0.000000 0.000000
# 5 0.000000 0.000000 0.000000 0.000000 0.052463 0.000000
# 6 0.000000 0.000000 0.000000 0.000000 0.000000 0.045690
#
#
# Mechanical properties :
#
#
# Convention : Reuss Voigt Hill
#
# Bulk Modulus (GPa) = 59.99931 62.70811 61.35371
# Shear Modulus (GPa) = 17.79874 18.95218 18.37546
#
# Velocity S-wave (km/s) = 3.24008 3.34342 3.29215
# Velocity P-wave (km/s) = 7.02755 7.20356 7.11610
#
# Compressibility (1/GPa) = 0.01666686
#
# Stress axis : x y z
#
# Youngs Moduli (GPa) = 35.78932 35.78932 67.45852
#
# Poissons Ratio (x) = 0.51702 0.42410
# Poissons Ratio (y) = 0.51702 0.42410
# Poissons Ratio (z) = 0.22500 0.22500
#
# Static dielectric constant tensor:
#      x y z
#    x 3.037130 0.000000 0.000000 
#    y 0.000000 3.037130 0.000000 
#    z 0.000000 0.000000 3.252080 
# 
# 
# High freq. dielectric constant tensor:
#      x y z
#    x 1.644660 0.000000 0.000000 
#    y 0.000000 1.644660 0.000000 
#    z 0.000000 0.000000 1.635590 
# 
# From -- ./inp_files/13347.got.cif
#   From: 2010.03.12/outbox.cif.g09.slc.cpg/sg139_7_cif.got.tgz:13347.got - 2010.04.08 09:46:31.
