data_PCOD8319857
_publ_section_title
;
Structure prediction by ZEFSAII (Michael W. Deem and Ramdas Pophale) SiO2 
 PCOD8319857
Probable space group: I 4/M M M
;
_chemical_formula_sum "Si O2"
_cell_formula_units_Z 128
_cell_length_a 22.185275
_cell_length_b 22.185275
_cell_length_c 12.929725
_cell_angle_alpha 90.000000
_cell_angle_beta 90.000000
_cell_angle_gamma 90.000000
_cell_volume 6363.835148
_symmetry_space_group_name_H-M "I 4/M M M"
_symmetry_group_IT_number 139
_symmetry_cell_setting 'tetragonal'
loop_
_space_group_symop_operation_xyz
x,y,z
-y,x,z
-x,-y,z
y,-x,z
x,-y,-z
-x,y,-z
y,x,-z
-y,-x,-z
-x,-y,-z
y,-x,-z
x,y,-z
-y,x,-z
-x,y,z
x,-y,z
-y,-x,z
y,x,z
1/2+x,1/2+y,1/2+z
1/2-y,1/2+x,1/2+z
1/2-x,1/2-y,1/2+z
1/2+y,1/2-x,1/2+z
1/2+x,1/2-y,1/2-z
1/2-x,1/2+y,1/2-z
1/2+y,1/2+x,1/2-z
1/2-y,1/2-x,1/2-z
1/2-x,1/2-y,1/2-z
1/2+y,1/2-x,1/2-z
1/2+x,1/2+y,1/2-z
1/2-y,1/2+x,1/2-z
1/2-x,1/2+y,1/2+z
1/2+x,1/2-y,1/2+z
1/2-y,1/2-x,1/2+z
1/2+y,1/2+x,1/2+z
loop_
_atom_site_type_symbol
_atom_site_label
_atom_site_fract_x
_atom_site_fract_y
_atom_site_fract_z
Si Si1 0.827965 0.172036 0.887828
Si Si2 0.727201 0.727201 0.885215
Si Si3 0.000000 0.741141 0.613976
Si Si4 0.131380 0.569668 0.377927
Si Si5 0.100146 0.500000 0.888345
Si Si6 0.113597 0.742555 0.748611
O O1 0.777254 0.222747 0.896604
O O2 0.884289 0.201698 0.828780
O O3 0.849905 0.150096 0.000000
O O4 0.672863 0.758135 0.822768
O O5 0.706148 0.706148 0.000000
O O6 0.941328 0.760349 0.675911
O O7 0.000000 0.771634 0.500000
O O8 0.000000 0.670474 0.599531
O O9 0.136033 0.587595 0.500000
O O10 0.147144 0.500000 0.359643
O O11 0.179299 0.607339 0.310690
O O12 0.063235 0.581667 0.334114
O O13 0.067431 0.500000 0.000000
#
# Coordination Sequence:
#
# PCOD8319857 Si02
#       6
#    16  16  16  32  16  32
#     4  10  23  39  60  85 111 146 197 257 306 363
#     4  10  23  39  60  81 111 150 195 253 303 361
#     4  11  24  37  55  82 116 153 198 249 296 349
#     4  10  20  36  56  81 115 156 204 255 299 347
#     4   9  21  34  51  75 110 158 207 254 295 337
#     4  11  21  38  58  85 111 151 199 244 307 360
#
# _framework density 20.113658000000001
#
# number of rings (size 3 to 8) (size 9 to 14) (size 15 to 20)
#    0.000    1.750    1.250    3.375    7.000    1.500 
#    0.000    0.000    2.750    0.000    0.000    2.625 
#    0.000    8.000    0.000   29.000    0.000    1.000 
#
# Total GULP energy -793221.314122 kJ/mol
# GULP energy per Si atom -12394.083033 kJ/mol
# Density = 2.006788 g / cm^3
# Si number density = 20.113658 Si / 1000 Ang^3
#
#
#
# Elastic Constant Matrix: (Units=GPa)
#
#
# Indices 1 2 3 4 5 6 
#
# 1 85.1084 60.7082 64.1946 0.0000 0.0000 0.0000
# 2 60.7082 85.1085 64.1946 0.0000 0.0000 0.0000
# 3 64.1946 64.1946 155.6949 0.0000 0.0000 0.0000
# 4 0.0000 0.0000 0.0000 20.8474 0.0000 0.0000
# 5 0.0000 0.0000 0.0000 0.0000 20.8482 0.0000
# 6 0.0000 0.0000 0.0000 0.0000 0.0000 -63.9768
#
#
#
# Elastic Compliance Matrix: (Units=1/GPa)
#
#
# Indices 1 2 3 4 5 6 
#
# 1 0.025875 -0.015108 -0.004439 0.000000 0.000000 0.000000
# 2 -0.015108 0.025875 -0.004439 0.000000 0.000000 0.000000
# 3 -0.004439 -0.004439 0.010083 0.000000 0.000000 0.000000
# 4 0.000000 0.000000 0.000000 0.047968 0.000000 0.000000
# 5 0.000000 0.000000 0.000000 0.000000 0.047966 0.000000
# 6 0.000000 0.000000 0.000000 0.000000 0.000000 -0.015631
#
#
# Mechanical properties :
#
#
# Convention : Reuss Voigt Hill
#
# Bulk Modulus (GPa) = 72.15066 78.23408 75.19237
# Shear Modulus (GPa) = 25.67669 4.66471 15.17070
#
# Velocity S-wave (km/s) = 3.57680 1.52454 2.74934
# Velocity P-wave (km/s) = 7.28062 6.48686 6.89517
#
# Compressibility (1/GPa) = 0.01385989
#
# Stress axis : x y z
#
# Youngs Moduli (GPa) = 38.64755 38.64757 99.17257
#
# Poissons Ratio (x) = 0.58390 0.44024
# Poissons Ratio (y) = 0.58390 0.44024
# Poissons Ratio (z) = 0.17156 0.17156
#
# Static dielectric constant tensor:
#      x y z
#    x 3.555180 0.000000 0.000000 
#    y 0.000000 3.555180 0.000000 
#    z 0.000000 0.000000 4.686650 
# 
# 
# High freq. dielectric constant tensor:
#      x y z
#    x 1.754370 0.000000 0.000000 
#    y 0.000000 1.754370 0.000000 
#    z 0.000000 0.000000 1.827150 
# 
# From -- ./inp_files/5523.got.cif
#   From: 2010.03.12/outbox.cif.g09.slc.cpg/sg139_3_cif.got.tgz:5523.got - 2010.04.08 09:46:31.
