data_PCOD8319787
_publ_section_title
;
Structure prediction by ZEFSAII (Michael W. Deem and Ramdas Pophale) SiO2 
 PCOD8319787
Probable space group: I 4/M M M
;
_chemical_formula_sum "Si O2"
_cell_formula_units_Z 192
_cell_length_a 20.701005
_cell_length_b 20.701005
_cell_length_c 25.918614
_cell_angle_alpha 90.000000
_cell_angle_beta 90.000000
_cell_angle_gamma 90.000000
_cell_volume 11106.945335
_symmetry_space_group_name_H-M "I 4/M M M"
_symmetry_group_IT_number 139
_symmetry_cell_setting 'tetragonal'
loop_
_space_group_symop_operation_xyz
x,y,z
-y,x,z
-x,-y,z
y,-x,z
x,-y,-z
-x,y,-z
y,x,-z
-y,-x,-z
-x,-y,-z
y,-x,-z
x,y,-z
-y,x,-z
-x,y,z
x,-y,z
-y,-x,z
y,x,z
1/2+x,1/2+y,1/2+z
1/2-y,1/2+x,1/2+z
1/2-x,1/2-y,1/2+z
1/2+y,1/2-x,1/2+z
1/2+x,1/2-y,1/2-z
1/2-x,1/2+y,1/2-z
1/2+y,1/2+x,1/2-z
1/2-y,1/2-x,1/2-z
1/2-x,1/2-y,1/2-z
1/2+y,1/2-x,1/2-z
1/2+x,1/2+y,1/2-z
1/2-y,1/2+x,1/2-z
1/2-x,1/2+y,1/2+z
1/2+x,1/2-y,1/2+z
1/2-y,1/2-x,1/2+z
1/2+y,1/2+x,1/2+z
loop_
_atom_site_type_symbol
_atom_site_label
_atom_site_fract_x
_atom_site_fract_y
_atom_site_fract_z
Si Si1 0.306458 0.850951 0.197338
Si Si2 0.190683 0.291584 0.590900
Si Si3 0.849811 0.428176 0.942513
Si Si4 0.572980 0.924933 0.157789
Si Si5 0.427224 0.681823 0.334363
Si Si6 0.784877 0.892683 0.055946
O O1 0.310188 0.810188 0.250000
O O2 0.300543 0.798220 0.152226
O O3 0.373643 0.889914 0.192425
O O4 0.243335 0.897416 0.196069
O O5 0.227531 0.227531 0.571985
O O6 0.116574 0.288399 0.572760
O O7 0.216675 0.357087 0.563988
O O8 0.821898 0.500000 0.938042
O O9 0.908119 0.416534 0.902475
O O10 0.876133 0.414280 0.000000
O O11 0.500000 0.905168 0.175442
O O12 0.583981 0.000000 0.164889
O O13 0.500000 0.667037 0.313426
O O14 0.380736 0.619265 0.326740
O O15 0.437466 0.699525 0.395040
O O16 0.837599 0.837599 0.054888
O O17 0.784444 0.929541 0.000000
#
# Coordination Sequence:
#
# PCOD8319787 Si02
#       6
#    32  32  32  32  32  32
#     4  10  20  34  52  70  93 121 155 199 248 293
#     4   9  17  29  46  67  89 116 151 189 232 282
#     4   9  17  28  42  63  93 125 153 184 221 263
#     4   9  18  31  46  68  98 129 160 190 223 271
#     4  10  21  35  51  73  99 129 167 207 246 289
#     4   8  14  26  45  69  96 125 158 195 231 268
#
# _framework density 17.286481999999999
#
# number of rings (size 3 to 8) (size 9 to 14) (size 15 to 20)
#    0.000    2.833    0.000    2.500    0.000    4.500 
#    0.000    2.500    0.000    6.000    0.000    2.333 
#    0.000    0.333    0.000    1.833    0.000    0.000 
#
# Total GULP energy -1189339.975667 kJ/mol
# GULP energy per Si atom -12388.958080 kJ/mol
# Density = 1.724714 g / cm^3
# Si number density = 17.286482 Si / 1000 Ang^3
#
#
#
# Elastic Constant Matrix: (Units=GPa)
#
#
# Indices 1 2 3 4 5 6 
#
# 1 74.6744 37.1909 15.1193 0.0000 0.0000 0.0000
# 2 37.1909 74.6744 15.1193 0.0000 0.0000 0.0000
# 3 15.1193 15.1193 68.1583 0.0000 0.0000 0.0000
# 4 0.0000 0.0000 0.0000 17.9698 0.0000 0.0000
# 5 0.0000 0.0000 0.0000 0.0000 17.9698 0.0000
# 6 0.0000 0.0000 0.0000 0.0000 0.0000 21.8180
#
#
#
# Elastic Compliance Matrix: (Units=1/GPa)
#
#
# Indices 1 2 3 4 5 6 
#
# 1 0.018094 -0.008584 -0.002109 0.000000 0.000000 0.000000
# 2 -0.008584 0.018094 -0.002109 0.000000 0.000000 0.000000
# 3 -0.002109 -0.002109 0.015608 0.000000 0.000000 0.000000
# 4 0.000000 0.000000 0.000000 0.055649 0.000000 0.000000
# 5 0.000000 0.000000 0.000000 0.000000 0.055649 0.000000
# 6 0.000000 0.000000 0.000000 0.000000 0.000000 0.045834
#
#
# Mechanical properties :
#
#
# Convention : Reuss Voigt Hill
#
# Bulk Modulus (GPa) = 38.18425 39.15180 38.66802
# Shear Modulus (GPa) = 20.55386 21.55670 21.05528
#
# Velocity S-wave (km/s) = 3.45195 3.53516 3.49380
# Velocity P-wave (km/s) = 6.16644 6.27384 6.22037
#
# Compressibility (1/GPa) = 0.02618881
#
# Stress axis : x y z
#
# Youngs Moduli (GPa) = 55.26701 55.26701 64.07141
#
# Poissons Ratio (x) = 0.47444 0.13516
# Poissons Ratio (y) = 0.47444 0.13516
# Poissons Ratio (z) = 0.11658 0.11658
#
# Static dielectric constant tensor:
#      x y z
#    x 3.174200 0.000000 0.000000 
#    y 0.000000 3.174200 0.000000 
#    z 0.000000 0.000000 3.305800 
# 
# 
# High freq. dielectric constant tensor:
#      x y z
#    x 1.649620 0.000000 0.000000 
#    y 0.000000 1.649620 0.000000 
#    z 0.000000 0.000000 1.663420 
# 
# From -- ./inp_files/11920.got.cif
#   From: 2010.03.12/outbox.cif.g09.slc.cpg/sg139_6_cif.got.tgz:11920.got - 2010.04.08 09:46:31.
