data_PCOD8319007
_publ_section_title
;
Structure prediction by ZEFSAII (Michael W. Deem and Ramdas Pophale) SiO2 
 PCOD8319007
Probable space group: P 42/N C M
;
_chemical_formula_sum "Si O2"
_cell_formula_units_Z 48
_cell_length_a 11.520531
_cell_length_b 11.520531
_cell_length_c 17.115856
_cell_angle_alpha 90.000000
_cell_angle_beta 90.000000
_cell_angle_gamma 90.000000
_cell_volume 2271.661500
_symmetry_space_group_name_H-M "P 42/N C M"
_symmetry_group_IT_number 138
_space_group.IT_coordinate_system_code '2'
_symmetry_cell_setting 'tetragonal'
loop_
_space_group_symop_operation_xyz
x,y,z
1/2-y,x,1/2+z
1/2-x,1/2-y,z
y,1/2-x,1/2+z
1/2+x,-y,1/2-z
-x,1/2+y,1/2-z
1/2+y,1/2+x,-z
-y,-x,-z
-x,-y,-z
1/2+y,-x,1/2-z
1/2+x,1/2+y,-z
-y,1/2+x,1/2-z
1/2-x,y,1/2+z
x,1/2-y,1/2+z
1/2-y,1/2-x,z
y,x,z
loop_
_atom_site_type_symbol
_atom_site_label
_atom_site_fract_x
_atom_site_fract_y
_atom_site_fract_z
Si Si1 0.516868 0.325781 0.050210
Si Si2 0.155760 0.344241 0.202498
Si Si3 0.077064 0.744356 0.780642
Si Si4 0.908761 0.908761 0.467331
O O1 0.423919 0.423919 0.071430
O O2 0.575628 0.281944 0.129472
O O3 0.450427 0.220038 0.005043
O O4 0.621839 0.378162 0.000000
O O5 0.250000 0.250000 0.175442
O O6 0.216713 0.447201 0.251268
O O7 0.096142 0.403859 0.127041
O O8 0.128732 0.844894 0.726085
O O9 0.000000 0.000000 0.500000
#
# Coordination Sequence:
#
# PCOD8319007 Si02
#       4
#    16   8  16   8
#     4  10  22  42  69  91 128 172 215 266 323 384
#     4  10  22  40  64  85 124 171 208 259 317 379
#     4  10  22  38  64  95 125 165 214 264 318 382
#     4  10  20  34  60  94 120 162 209 255 314 385
#
# _framework density 21.129909000000001
#
# number of rings (size 3 to 8) (size 9 to 14) (size 15 to 20)
#    0.000    2.000    0.000    4.500    4.667   11.333 
#    0.000    0.000    7.333    0.000    0.000    0.000 
#    0.000    0.000    0.000    0.000    0.000    0.000 
#
# Total GULP energy -594895.094306 kJ/mol
# GULP energy per Si atom -12393.647798 kJ/mol
# Density = 2.108182 g / cm^3
# Si number density = 21.129909 Si / 1000 Ang^3
#
#
#
# Elastic Constant Matrix: (Units=GPa)
#
#
# Indices 1 2 3 4 5 6 
#
# 1 161.6187 91.3910 64.4927 0.0000 0.0000 0.0000
# 2 91.3910 161.6212 64.4925 0.0000 0.0000 0.0000
# 3 64.4927 64.4925 68.9417 0.0000 0.0000 0.0000
# 4 0.0000 0.0000 0.0000 38.0745 0.0000 0.0000
# 5 0.0000 0.0000 0.0000 0.0000 38.0745 0.0000
# 6 0.0000 0.0000 0.0000 0.0000 0.0000 64.8522
#
#
#
# Elastic Compliance Matrix: (Units=1/GPa)
#
#
# Indices 1 2 3 4 5 6 
#
# 1 0.010898 -0.003342 -0.007068 0.000000 0.000000 0.000000
# 2 -0.003342 0.010897 -0.007068 0.000000 0.000000 0.000000
# 3 -0.007068 -0.007068 0.027729 0.000000 0.000000 0.000000
# 4 0.000000 0.000000 0.000000 0.026264 0.000000 0.000000
# 5 0.000000 0.000000 0.000000 0.000000 0.026264 0.000000
# 6 0.000000 0.000000 0.000000 0.000000 0.000000 0.015420
#
#
# Mechanical properties :
#
#
# Convention : Reuss Voigt Hill
#
# Bulk Modulus (GPa) = 68.64383 92.54820 80.59602
# Shear Modulus (GPa) = 31.78961 39.65393 35.72177
#
# Velocity S-wave (km/s) = 3.88298 4.33676 4.11613
# Velocity P-wave (km/s) = 7.25675 8.30490 7.79845
#
# Compressibility (1/GPa) = 0.01456795
#
# Stress axis : x y z
#
# Youngs Moduli (GPa) = 91.76338 91.76600 36.06331
#
# Poissons Ratio (x) = 0.30665 0.25491
# Poissons Ratio (y) = 0.30665 0.25489
# Poissons Ratio (z) = 0.64861 0.64860
#
# Static dielectric constant tensor:
#      x y z
#    x 4.388590 0.000000 0.000000 
#    y 0.000000 4.388590 0.000000 
#    z 0.000000 0.000000 3.302040 
# 
# 
# High freq. dielectric constant tensor:
#      x y z
#    x 1.849400 0.000000 0.000000 
#    y 0.000000 1.849400 0.000000 
#    z 0.000000 0.000000 1.779670 
# 
# From -- ./inp_files/4768.got.cif
#   From: 2010.03.12/outbox.cif.g09.slc.cpg/sg138_3_cif.got.tgz:4768.got - 2010.04.08 09:41:05.
