data_PCOD8319142
_publ_section_title
;
Structure prediction by ZEFSAII (Michael W. Deem and Ramdas Pophale) SiO2 
 PCOD8319142
Probable space group: P 42/N C M
;
_chemical_formula_sum "Si O2"
_cell_formula_units_Z 96
_cell_length_a 14.916419
_cell_length_b 14.916419
_cell_length_c 20.649174
_cell_angle_alpha 90.000000
_cell_angle_beta 90.000000
_cell_angle_gamma 90.000000
_cell_volume 4594.432042
_symmetry_space_group_name_H-M "P 42/N C M"
_symmetry_group_IT_number 138
_space_group.IT_coordinate_system_code '2'
_symmetry_cell_setting 'tetragonal'
loop_
_space_group_symop_operation_xyz
x,y,z
1/2-y,x,1/2+z
1/2-x,1/2-y,z
y,1/2-x,1/2+z
1/2+x,-y,1/2-z
-x,1/2+y,1/2-z
1/2+y,1/2+x,-z
-y,-x,-z
-x,-y,-z
1/2+y,-x,1/2-z
1/2+x,1/2+y,-z
-y,1/2+x,1/2-z
1/2-x,y,1/2+z
x,1/2-y,1/2+z
1/2-y,1/2-x,z
y,x,z
loop_
_atom_site_type_symbol
_atom_site_label
_atom_site_fract_x
_atom_site_fract_y
_atom_site_fract_z
Si Si1 0.915670 0.437938 0.202963
Si Si2 0.751516 0.012430 0.788970
Si Si3 0.974741 0.118044 0.094877
Si Si4 0.676164 0.823837 0.764177
Si Si5 0.978288 0.114622 0.441281
Si Si6 0.687196 0.006840 0.546060
Si Si7 0.175453 0.324548 0.384887
O O1 0.822826 0.478714 0.230609
O O2 0.912171 0.431897 0.125857
O O3 0.999013 0.500988 0.225774
O O4 0.926407 0.335270 0.227251
O O5 0.713882 0.912411 0.798399
O O6 0.800182 0.039292 0.855947
O O7 0.879630 0.068733 0.087046
O O8 0.010271 0.150992 0.025711
O O9 0.047293 0.047293 0.122907
O O10 0.750000 0.750000 0.773720
O O11 0.655818 0.844183 0.689719
O O12 0.939909 0.060092 0.500000
O O13 0.950295 0.215606 0.457281
O O14 0.084365 0.084365 0.436194
O O15 0.707139 0.915082 0.582315
O O16 0.250000 0.250000 0.395307
#
# Coordination Sequence:
#
# PCOD8319142 Si02
#       7
#    16  16  16   8  16  16   8
#     4  11  25  46  68 102 137 182 231 279 351 407
#     4  12  26  44  71  99 139 185 228 287 343 419
#     4  11  23  42  65  97 138 181 224 279 352 412
#     4  11  24  44  67 103 134 178 231 287 354 410
#     4  10  22  42  68  95 133 176 223 286 343 407
#     4  11  21  41  65  97 132 178 225 281 346 410
#     4  11  22  37  67  99 129 167 223 287 340 414
#
# _framework density 20.894857999999999
#
# number of rings (size 3 to 8) (size 9 to 14) (size 15 to 20)
#    0.000    1.000    2.500    4.500    4.667    3.000 
#    3.000    5.000    0.000    0.000    0.000    0.000 
#    0.000    0.000    0.000    0.000    0.000    0.000 
#
# Total GULP energy -1190202.853140 kJ/mol
# GULP energy per Si atom -12397.946387 kJ/mol
# Density = 2.084730 g / cm^3
# Si number density = 20.894858 Si / 1000 Ang^3
#
#
#
# Elastic Constant Matrix: (Units=GPa)
#
#
# Indices 1 2 3 4 5 6 
#
# 1 130.4823 37.0459 40.9415 0.0000 0.0000 0.0000
# 2 37.0459 130.4841 40.9416 0.0000 0.0000 0.0000
# 3 40.9415 40.9416 98.3385 0.0000 0.0000 0.0000
# 4 0.0000 0.0000 0.0000 27.1840 0.0000 0.0000
# 5 0.0000 0.0000 0.0000 0.0000 27.1852 0.0000
# 6 0.0000 0.0000 0.0000 0.0000 0.0000 20.2651
#
#
#
# Elastic Compliance Matrix: (Units=1/GPa)
#
#
# Indices 1 2 3 4 5 6 
#
# 1 0.009098 -0.001604 -0.003120 0.000000 0.000000 0.000000
# 2 -0.001604 0.009098 -0.003120 0.000000 0.000000 0.000000
# 3 -0.003120 -0.003120 0.012767 0.000000 0.000000 0.000000
# 4 0.000000 0.000000 0.000000 0.036786 0.000000 0.000000
# 5 0.000000 0.000000 0.000000 0.000000 0.036785 0.000000
# 6 0.000000 0.000000 0.000000 0.000000 0.000000 0.049346
#
#
# Mechanical properties :
#
#
# Convention : Reuss Voigt Hill
#
# Bulk Modulus (GPa) = 65.46671 66.35144 65.90907
# Shear Modulus (GPa) = 28.62698 30.95192 29.78945
#
# Velocity S-wave (km/s) = 3.70543 3.85296 3.77992
# Velocity P-wave (km/s) = 7.05028 7.18454 7.11773
#
# Compressibility (1/GPa) = 0.01527494
#
# Stress axis : x y z
#
# Youngs Moduli (GPa) = 109.91072 109.91237 78.32747
#
# Poissons Ratio (x) = 0.17631 0.24439
# Poissons Ratio (y) = 0.17631 0.24438
# Poissons Ratio (z) = 0.34293 0.34293
#
# Static dielectric constant tensor:
#      x y z
#    x 3.814670 0.000000 0.000000 
#    y 0.000000 3.814680 0.000000 
#    z 0.000000 0.000000 3.793320 
# 
# 
# High freq. dielectric constant tensor:
#      x y z
#    x 1.822730 0.000000 0.000000 
#    y 0.000000 1.822730 0.000000 
#    z 0.000000 0.000000 1.824770 
# 
# From -- ./inp_files/6313.got.cif
#   From: 2010.03.12/outbox.cif.g09.slc.cpg/sg138_4_cif.got.tgz:6313.got - 2010.04.08 09:41:05.
