data_PCOD8319231
_publ_section_title
;
Structure prediction by ZEFSAII (Michael W. Deem and Ramdas Pophale) SiO2 
 PCOD8319231
Probable space group: P 42/N C M
;
_chemical_formula_sum "Si O2"
_cell_formula_units_Z 52
_cell_length_a 15.451339
_cell_length_b 15.451339
_cell_length_c 10.154395
_cell_angle_alpha 90.000000
_cell_angle_beta 90.000000
_cell_angle_gamma 90.000000
_cell_volume 2424.299630
_symmetry_space_group_name_H-M "P 42/N C M"
_symmetry_group_IT_number 138
_space_group.IT_coordinate_system_code '2'
_symmetry_cell_setting 'tetragonal'
loop_
_space_group_symop_operation_xyz
x,y,z
1/2-y,x,1/2+z
1/2-x,1/2-y,z
y,1/2-x,1/2+z
1/2+x,-y,1/2-z
-x,1/2+y,1/2-z
1/2+y,1/2+x,-z
-y,-x,-z
-x,-y,-z
1/2+y,-x,1/2-z
1/2+x,1/2+y,-z
-y,1/2+x,1/2-z
1/2-x,y,1/2+z
x,1/2-y,1/2+z
1/2-y,1/2-x,z
y,x,z
loop_
_atom_site_type_symbol
_atom_site_label
_atom_site_fract_x
_atom_site_fract_y
_atom_site_fract_z
Si Si1 0.250000 0.250000 0.138664
Si Si2 0.931063 0.161729 0.117958
Si Si3 0.142434 0.929389 0.629053
Si Si4 0.883766 0.616235 0.761789
Si Si5 0.881739 0.881739 0.958982
O O1 0.189649 0.310352 0.229661
O O2 0.308517 0.308517 0.044014
O O3 0.899799 0.259968 0.098760
O O4 0.897554 0.128696 0.257078
O O5 0.894130 0.105871 0.000000
O O6 0.034456 0.153199 0.117105
O O7 0.083833 0.916168 0.500000
O O8 0.147074 0.029355 0.667794
O O9 0.903898 0.596103 0.609776
#
# Coordination Sequence:
#
# PCOD8319231 Si02
#       5
#     4  16  16   8   8
#     4  12  26  44  82 108 130 178 236 312 346 422
#     4  12  25  47  74 101 145 194 235 285 356 421
#     4  12  27  44  73 107 143 187 238 293 342 420
#     4  12  25  50  70 109 141 177 238 295 372 412
#     4  12  25  49  75 103 142 186 230 293 376 418
#
# _framework density 21.449491999999999
#
# number of rings (size 3 to 8) (size 9 to 14) (size 15 to 20)
#    0.000    0.000    6.154    4.154    0.000    3.692 
#    5.538    0.000    0.000    0.000    0.000    0.000 
#    0.000    0.000    0.000    0.000    0.000    0.000 
#
# Total GULP energy -645204.907355 kJ/mol
# GULP energy per Si atom -12407.786680 kJ/mol
# Density = 2.140067 g / cm^3
# Si number density = 21.449492 Si / 1000 Ang^3
#
#
#
# Elastic Constant Matrix: (Units=GPa)
#
#
# Indices 1 2 3 4 5 6 
#
# 1 -248.5244 420.8509 29.9402 0.0000 0.0000 0.0000
# 2 420.8509 -248.4300 29.9859 0.0000 0.0000 0.0000
# 3 29.9402 29.9859 100.8510 0.0000 0.0000 0.0000
# 4 0.0000 0.0000 0.0000 31.4999 0.0000 0.0000
# 5 0.0000 0.0000 0.0000 0.0000 31.4997 0.0000
# 6 0.0000 0.0000 0.0000 0.0000 0.0000 39.8594
#
#
#
# Elastic Compliance Matrix: (Units=1/GPa)
#
#
# Indices 1 2 3 4 5 6 
#
# 1 0.002487 0.003982 -0.001922 0.000000 0.000000 0.000000
# 2 0.003982 0.002488 -0.001922 0.000000 0.000000 0.000000
# 3 -0.001922 -0.001922 0.011058 0.000000 0.000000 0.000000
# 4 0.000000 0.000000 0.000000 0.031746 0.000000 0.000000
# 5 0.000000 0.000000 0.000000 0.000000 0.031746 0.000000
# 6 0.000000 0.000000 0.000000 0.000000 0.000000 0.025088
#
#
# Mechanical properties :
#
#
# Convention : Reuss Voigt Hill
#
# Bulk Modulus (GPa) = 61.31807 62.82785 62.07296
# Shear Modulus (GPa) = 45.54774 -37.88688 3.83043
#
# Velocity S-wave (km/s) = 4.61313 -4.20733 1.33778
# Velocity P-wave (km/s) = 7.55142 2.39843 5.60252
#
# Compressibility (1/GPa) = 0.01630841
#
# Stress axis : x y z
#
# Youngs Moduli (GPa) = 402.01825 401.91332 90.43427
#
# Poissons Ratio (x) = -1.60034 0.17385
# Poissons Ratio (y) = -1.60076 0.17380
# Poissons Ratio (z) = 0.77283 0.77243
#
# Static dielectric constant tensor:
#      x y z
#    x 3.998480 0.000000 0.000000 
#    y 0.000000 3.998480 0.000000 
#    z 0.000000 0.000000 4.579820 
# 
# 
# High freq. dielectric constant tensor:
#      x y z
#    x 1.857600 0.000000 0.000000 
#    y 0.000000 1.857600 0.000000 
#    z 0.000000 0.000000 1.844630 
# 
# From -- ./inp_files/2528.got.cif
#   From: 2010.03.12/outbox.cif.g09.slc.cpg/sg138_2_cif.got.tgz:2528.got - 2010.04.08 09:41:05.
