data_PCOD8319305
_publ_section_title
;
Structure prediction by ZEFSAII (Michael W. Deem and Ramdas Pophale) SiO2 
 PCOD8319305
Probable space group: I 4/M M M
;
_chemical_formula_sum "Si O2"
_cell_formula_units_Z 144
_cell_length_a 20.549328
_cell_length_b 20.549328
_cell_length_c 22.258821
_cell_angle_alpha 90.000000
_cell_angle_beta 90.000000
_cell_angle_gamma 90.000000
_cell_volume 9399.340995
_symmetry_space_group_name_H-M "I 4/M M M"
_symmetry_group_IT_number 139
_symmetry_cell_setting 'tetragonal'
loop_
_space_group_symop_operation_xyz
x,y,z
-y,x,z
-x,-y,z
y,-x,z
x,-y,-z
-x,y,-z
y,x,-z
-y,-x,-z
-x,-y,-z
y,-x,-z
x,y,-z
-y,x,-z
-x,y,z
x,-y,z
-y,-x,z
y,x,z
1/2+x,1/2+y,1/2+z
1/2-y,1/2+x,1/2+z
1/2-x,1/2-y,1/2+z
1/2+y,1/2-x,1/2+z
1/2+x,1/2-y,1/2-z
1/2-x,1/2+y,1/2-z
1/2+y,1/2+x,1/2-z
1/2-y,1/2-x,1/2-z
1/2-x,1/2-y,1/2-z
1/2+y,1/2-x,1/2-z
1/2+x,1/2+y,1/2-z
1/2-y,1/2+x,1/2-z
1/2-x,1/2+y,1/2+z
1/2+x,1/2-y,1/2+z
1/2-y,1/2-x,1/2+z
1/2+y,1/2+x,1/2+z
loop_
_atom_site_type_symbol
_atom_site_label
_atom_site_fract_x
_atom_site_fract_y
_atom_site_fract_z
Si Si1 0.073448 0.818026 0.000000
Si Si2 0.244228 0.864337 0.890151
Si Si3 0.319702 0.574738 0.283443
Si Si4 0.074630 0.180655 0.645956
Si Si5 0.267701 0.841929 0.568194
O O1 0.084442 0.772823 0.942023
O O2 0.119054 0.880947 0.000000
O O3 0.000000 0.843761 0.000000
O O4 0.194472 0.805529 0.894589
O O5 0.239163 0.899514 0.825406
O O6 0.316079 0.834221 0.900644
O O7 0.335502 0.500000 0.297755
O O8 0.385588 0.614412 0.297819
O O9 0.297639 0.584720 0.214887
O O10 0.116089 0.116089 0.631190
O O11 0.096291 0.241352 0.605095
O O12 0.000000 0.163525 0.632039
O O13 0.282702 0.863387 0.500000
O O14 0.213907 0.786094 0.569236
#
# Coordination Sequence:
#
# PCOD8319305 Si02
#       5
#    16  32  32  32  32
#     4  10  18  27  40  60  87 119 152 182 210 246
#     4   9  16  27  42  59  81 112 148 185 221 254
#     4   9  17  28  41  60  88 120 152 183 214 251
#     4   9  18  30  44  64  89 117 147 178 213 257
#     4   9  16  28  45  62  82 109 144 184 225 264
#
# _framework density 15.320223
#
# number of rings (size 3 to 8) (size 9 to 14) (size 15 to 20)
#    0.000    2.889    1.111    0.667    0.000    1.889 
#    0.000    6.667    0.000    4.000    0.000    3.111 
#    0.000    4.444    0.000    9.778    0.000    0.889 
#
# Total GULP energy -892556.755570 kJ/mol
# GULP energy per Si atom -12396.621605 kJ/mol
# Density = 1.528535 g / cm^3
# Si number density = 15.320223 Si / 1000 Ang^3
#
#
#
# Elastic Constant Matrix: (Units=GPa)
#
#
# Indices 1 2 3 4 5 6 
#
# 1 63.5359 56.9801 50.5506 0.0000 0.0000 0.0000
# 2 56.9801 63.5352 50.5505 0.0000 0.0000 0.0000
# 3 50.5506 50.5505 97.8024 0.0000 0.0000 0.0000
# 4 0.0000 0.0000 0.0000 22.2993 0.0000 0.0000
# 5 0.0000 0.0000 0.0000 0.0000 22.2995 0.0000
# 6 0.0000 0.0000 0.0000 0.0000 0.0000 16.9289
#
#
#
# Elastic Compliance Matrix: (Units=1/GPa)
#
#
# Indices 1 2 3 4 5 6 
#
# 1 0.083597 -0.068948 -0.007572 0.000000 0.000000 0.000000
# 2 -0.068948 0.083598 -0.007572 0.000000 0.000000 0.000000
# 3 -0.007572 -0.007572 0.018052 0.000000 0.000000 0.000000
# 4 0.000000 0.000000 0.000000 0.044845 0.000000 0.000000
# 5 0.000000 0.000000 0.000000 0.000000 0.044844 0.000000
# 6 0.000000 0.000000 0.000000 0.000000 0.000000 0.059071
#
#
# Mechanical properties :
#
#
# Convention : Reuss Voigt Hill
#
# Bulk Modulus (GPa) = 58.60345 60.11509 59.35927
# Shear Modulus (GPa) = 9.84490 16.75834 13.30162
#
# Velocity S-wave (km/s) = 2.53772 3.31096 2.94979
# Velocity P-wave (km/s) = 6.84997 7.34444 7.10151
#
# Compressibility (1/GPa) = 0.01706384
#
# Stress axis : x y z
#
# Youngs Moduli (GPa) = 11.96219 11.96201 55.39531
#
# Poissons Ratio (x) = 0.82475 0.41944
# Poissons Ratio (y) = 0.82476 0.41946
# Poissons Ratio (z) = 0.09057 0.09058
#
# Static dielectric constant tensor:
#      x y z
#    x 2.791230 0.000000 0.000000 
#    y 0.000000 2.791230 0.000000 
#    z 0.000000 0.000000 3.154720 
# 
# 
# High freq. dielectric constant tensor:
#      x y z
#    x 1.557080 0.000000 0.000000 
#    y 0.000000 1.557080 0.000000 
#    z 0.000000 0.000000 1.602000 
# 
# From -- ./inp_files/10228.got.cif
#   From: 2010.03.12/outbox.cif.g09.slc.cpg/sg139_6_cif.got.tgz:10228.got - 2010.04.08 09:46:31.
