data_PCOD8319080
_publ_section_title
;
Structure prediction by ZEFSAII (Michael W. Deem and Ramdas Pophale) SiO2 
 PCOD8319080
Probable space group: P 42/N C M
;
_chemical_formula_sum "Si O2"
_cell_formula_units_Z 80
_cell_length_a 12.335105
_cell_length_b 12.335105
_cell_length_c 27.843946
_cell_angle_alpha 90.000000
_cell_angle_beta 90.000000
_cell_angle_gamma 90.000000
_cell_volume 4236.590463
_symmetry_space_group_name_H-M "P 42/N C M"
_symmetry_group_IT_number 138
_space_group.IT_coordinate_system_code '2'
_symmetry_cell_setting 'tetragonal'
loop_
_space_group_symop_operation_xyz
x,y,z
1/2-y,x,1/2+z
1/2-x,1/2-y,z
y,1/2-x,1/2+z
1/2+x,-y,1/2-z
-x,1/2+y,1/2-z
1/2+y,1/2+x,-z
-y,-x,-z
-x,-y,-z
1/2+y,-x,1/2-z
1/2+x,1/2+y,-z
-y,1/2+x,1/2-z
1/2-x,y,1/2+z
x,1/2-y,1/2+z
1/2-y,1/2-x,z
y,x,z
loop_
_atom_site_type_symbol
_atom_site_label
_atom_site_fract_x
_atom_site_fract_y
_atom_site_fract_z
Si Si1 0.866156 0.308809 0.348138
Si Si2 0.575166 0.747515 0.409290
Si Si3 0.298507 0.022214 0.693616
Si Si4 0.683768 0.139458 0.449343
Si Si5 0.748196 0.572461 0.203604
O O1 0.750000 0.250000 0.348070
O O2 0.858004 0.407062 0.310645
O O3 0.893373 0.350877 0.402329
O O4 0.968014 0.236873 0.331090
O O5 0.636914 0.863087 0.414542
O O6 0.651128 0.651128 0.427704
O O7 0.543584 0.725749 0.353629
O O8 0.467166 0.742390 0.441622
O O9 0.387508 0.112493 0.698083
O O10 0.227985 0.029402 0.742095
O O11 0.750000 0.250000 0.453365
O O12 0.621184 0.121184 0.500000
O O13 0.857820 0.642181 0.198845
O O14 0.644578 0.644578 0.188339
#
# Coordination Sequence:
#
# PCOD8319080 Si02
#       5
#    16  16  16  16  16
#     4  10  21  35  53  79 107 138 180 225 265 312
#     4   9  17  32  55  82 107 132 175 230 272 310
#     4   9  18  32  52  76 104 142 180 217 261 309
#     4   9  19  38  57  76 105 142 181 220 271 325
#     4  10  21  36  53  76 110 149 179 208 259 324
#
# _framework density 18.883109000000001
#
# number of rings (size 3 to 8) (size 9 to 14) (size 15 to 20)
#    0.000    2.600    0.000    1.200    2.800    3.600 
#    0.000   12.000    0.000    2.400    0.000    0.000 
#    0.000    0.000    0.000    0.000    0.000    0.000 
#
# Total GULP energy -991340.663563 kJ/mol
# GULP energy per Si atom -12391.758295 kJ/mol
# Density = 1.884013 g / cm^3
# Si number density = 18.883109 Si / 1000 Ang^3
#
#
#
# Elastic Constant Matrix: (Units=GPa)
#
#
# Indices 1 2 3 4 5 6 
#
# 1 86.7807 17.2307 60.1914 0.0000 0.0000 0.0000
# 2 17.2307 86.7807 60.1914 0.0000 0.0000 0.0000
# 3 60.1914 60.1914 116.3062 0.0000 0.0000 0.0000
# 4 0.0000 0.0000 0.0000 13.1858 0.0000 0.0000
# 5 0.0000 0.0000 0.0000 0.0000 13.1858 0.0000
# 6 0.0000 0.0000 0.0000 0.0000 0.0000 14.1663
#
#
#
# Elastic Compliance Matrix: (Units=1/GPa)
#
#
# Indices 1 2 3 4 5 6 
#
# 1 0.019177 0.004798 -0.012408 0.000000 0.000000 0.000000
# 2 0.004798 0.019177 -0.012408 0.000000 0.000000 0.000000
# 3 -0.012408 -0.012408 0.021441 0.000000 0.000000 0.000000
# 4 0.000000 0.000000 0.000000 0.075839 0.000000 0.000000
# 5 0.000000 0.000000 0.000000 0.000000 0.075839 0.000000
# 6 0.000000 0.000000 0.000000 0.000000 0.000000 0.070590
#
#
# Mechanical properties :
#
#
# Convention : Reuss Voigt Hill
#
# Bulk Modulus (GPa) = 50.60769 62.78828 56.69799
# Shear Modulus (GPa) = 15.21227 18.25785 16.73506
#
# Velocity S-wave (km/s) = 2.84139 3.11286 2.98022
# Velocity P-wave (km/s) = 6.13379 6.80022 6.47559
#
# Compressibility (1/GPa) = 0.01975984
#
# Stress axis : x y z
#
# Youngs Moduli (GPa) = 52.14706 52.14706 46.64068
#
# Poissons Ratio (x) = -0.25022 0.57870
# Poissons Ratio (y) = -0.25022 0.57870
# Poissons Ratio (z) = 0.64702 0.64702
#
# Static dielectric constant tensor:
#      x y z
#    x 3.331600 0.000000 0.000000 
#    y 0.000000 3.331600 0.000000 
#    z 0.000000 0.000000 3.933900 
# 
# 
# High freq. dielectric constant tensor:
#      x y z
#    x 1.721070 0.000000 0.000000 
#    y 0.000000 1.721070 0.000000 
#    z 0.000000 0.000000 1.730090 
# 
# From -- ./inp_files/7844.got.cif
#   From: 2010.03.12/outbox.cif.g09.slc.cpg/sg138_4_cif.got.tgz:7844.got - 2010.04.08 09:41:05.
