data_PCOD8319055
_publ_section_title
;
Structure prediction by ZEFSAII (Michael W. Deem and Ramdas Pophale) SiO2 
 PCOD8319055
Probable space group: P 42/N C M
;
_chemical_formula_sum "Si O2"
_cell_formula_units_Z 52
_cell_length_a 14.360014
_cell_length_b 14.360014
_cell_length_c 11.574017
_cell_angle_alpha 90.000000
_cell_angle_beta 90.000000
_cell_angle_gamma 90.000000
_cell_volume 2386.678070
_symmetry_space_group_name_H-M "P 42/N C M"
_symmetry_group_IT_number 138
_space_group.IT_coordinate_system_code '2'
_symmetry_cell_setting 'tetragonal'
loop_
_space_group_symop_operation_xyz
x,y,z
1/2-y,x,1/2+z
1/2-x,1/2-y,z
y,1/2-x,1/2+z
1/2+x,-y,1/2-z
-x,1/2+y,1/2-z
1/2+y,1/2+x,-z
-y,-x,-z
-x,-y,-z
1/2+y,-x,1/2-z
1/2+x,1/2+y,-z
-y,1/2+x,1/2-z
1/2-x,y,1/2+z
x,1/2-y,1/2+z
1/2-y,1/2-x,z
y,x,z
loop_
_atom_site_type_symbol
_atom_site_label
_atom_site_fract_x
_atom_site_fract_y
_atom_site_fract_z
Si Si1 0.679499 0.820502 0.330502
Si Si2 0.923395 0.923395 0.027664
Si Si3 0.123299 0.879175 0.634611
Si Si4 0.250000 0.750000 0.250000
Si Si5 0.483127 0.280286 0.790020
O O1 0.750000 0.750000 0.398157
O O2 0.615792 0.884209 0.408854
O O3 0.744733 0.884125 0.251224
O O4 0.836178 0.970694 0.091246
O O5 0.000000 0.000000 0.000000
O O6 0.103204 0.896797 0.500000
O O7 0.221743 0.830070 0.660085
O O8 0.044446 0.812412 0.688059
O O9 0.140516 0.976759 0.701055
#
# Coordination Sequence:
#
# PCOD8319055 Si02
#       5
#     8   8  16   4  16
#     4  12  26  46  71  95 138 189 232 287 356 426
#     4  12  26  46  73 103 141 187 235 295 367 420
#     4  10  20  38  64  97 132 177 226 288 354 413
#     4   8  18  32  60  90 136 168 222 276 340 426
#     4  11  24  44  67 101 140 178 239 293 350 433
#
# _framework density 21.787606
#
# number of rings (size 3 to 8) (size 9 to 14) (size 15 to 20)
#    0.000    1.231    1.538    4.154    2.154    4.923 
#    0.000    1.538    0.000    0.000    0.000    0.000 
#    0.000    0.000    0.000    0.000    0.000    0.000 
#
# Total GULP energy -644228.636896 kJ/mol
# GULP energy per Si atom -12389.012248 kJ/mol
# Density = 2.173802 g / cm^3
# Si number density = 21.787606 Si / 1000 Ang^3
#
#
#
# Elastic Constant Matrix: (Units=GPa)
#
#
# Indices 1 2 3 4 5 6 
#
# 1 106.7251 77.5614 38.9002 0.0000 0.0000 0.0000
# 2 77.5614 106.7251 38.9001 0.0000 0.0000 0.0000
# 3 38.9002 38.9001 101.0971 0.0000 0.0000 0.0000
# 4 0.0000 0.0000 0.0000 35.7823 0.0000 0.0000
# 5 0.0000 0.0000 0.0000 0.0000 35.7823 0.0000
# 6 0.0000 0.0000 0.0000 0.0000 0.0000 60.6647
#
#
#
# Elastic Compliance Matrix: (Units=1/GPa)
#
#
# Indices 1 2 3 4 5 6 
#
# 1 0.020384 -0.013905 -0.002493 0.000000 0.000000 0.000000
# 2 -0.013905 0.020384 -0.002493 0.000000 0.000000 0.000000
# 3 -0.002493 -0.002493 0.011810 0.000000 0.000000 0.000000
# 4 0.000000 0.000000 0.000000 0.027947 0.000000 0.000000
# 5 0.000000 0.000000 0.000000 0.000000 0.027947 0.000000
# 6 0.000000 0.000000 0.000000 0.000000 0.000000 0.016484
#
#
# Mechanical properties :
#
#
# Convention : Reuss Voigt Hill
#
# Bulk Modulus (GPa) = 67.58651 69.47449 68.53050
# Shear Modulus (GPa) = 29.82060 37.05824 33.43942
#
# Velocity S-wave (km/s) = 3.70360 4.12865 3.92189
# Velocity P-wave (km/s) = 7.02687 7.39487 7.21322
#
# Compressibility (1/GPa) = 0.01479585
#
# Stress axis : x y z
#
# Youngs Moduli (GPa) = 49.05819 49.05825 84.67460
#
# Poissons Ratio (x) = 0.68216 0.21109
# Poissons Ratio (y) = 0.68216 0.21108
# Poissons Ratio (z) = 0.12230 0.12230
#
# Static dielectric constant tensor:
#      x y z
#    x 4.116170 0.000000 0.000000 
#    y 0.000000 4.116170 0.000000 
#    z 0.000000 0.000000 3.775330 
# 
# 
# High freq. dielectric constant tensor:
#      x y z
#    x 1.868130 0.000000 0.000000 
#    y 0.000000 1.868130 0.000000 
#    z 0.000000 0.000000 1.844200 
# 
# From -- ./inp_files/2535.got.cif
#   From: 2010.03.12/outbox.cif.g09.slc.cpg/sg138_2_cif.got.tgz:2535.got - 2010.04.08 09:41:05.
