data_PCOD8319263
_publ_section_title
;
Structure prediction by ZEFSAII (Michael W. Deem and Ramdas Pophale) SiO2 
 PCOD8319263
Probable space group: I 4/M M M
;
_chemical_formula_sum "Si O2"
_cell_formula_units_Z 144
_cell_length_a 23.085594
_cell_length_b 23.085594
_cell_length_c 18.486609
_cell_angle_alpha 90.000000
_cell_angle_beta 90.000000
_cell_angle_gamma 90.000000
_cell_volume 9852.339369
_symmetry_space_group_name_H-M "I 4/M M M"
_symmetry_group_IT_number 139
_symmetry_cell_setting 'tetragonal'
loop_
_space_group_symop_operation_xyz
x,y,z
-y,x,z
-x,-y,z
y,-x,z
x,-y,-z
-x,y,-z
y,x,-z
-y,-x,-z
-x,-y,-z
y,-x,-z
x,y,-z
-y,x,-z
-x,y,z
x,-y,z
-y,-x,z
y,x,z
1/2+x,1/2+y,1/2+z
1/2-y,1/2+x,1/2+z
1/2-x,1/2-y,1/2+z
1/2+y,1/2-x,1/2+z
1/2+x,1/2-y,1/2-z
1/2-x,1/2+y,1/2-z
1/2+y,1/2+x,1/2-z
1/2-y,1/2-x,1/2-z
1/2-x,1/2-y,1/2-z
1/2+y,1/2-x,1/2-z
1/2+x,1/2+y,1/2-z
1/2-y,1/2+x,1/2-z
1/2-x,1/2+y,1/2+z
1/2+x,1/2-y,1/2+z
1/2-y,1/2-x,1/2+z
1/2+y,1/2+x,1/2+z
loop_
_atom_site_type_symbol
_atom_site_label
_atom_site_fract_x
_atom_site_fract_y
_atom_site_fract_z
Si Si1 0.716972 0.933635 0.367074
Si Si2 0.932674 0.343370 0.778796
Si Si3 0.000000 0.437672 0.084635
Si Si4 0.934570 0.842307 0.414327
Si Si5 0.111512 0.363611 0.918532
O O1 0.706284 0.927176 0.281580
O O2 0.781861 0.911916 0.381707
O O3 0.673234 0.895113 0.414757
O O4 0.709451 0.000000 0.392903
O O5 0.901525 0.401525 0.750000
O O6 0.898725 0.318632 0.851681
O O7 0.000000 0.357701 0.795012
O O8 0.060075 0.407075 0.104949
O O9 0.000000 0.500000 0.123652
O O10 0.000000 0.445633 0.000000
O O11 0.931582 0.837792 0.500000
O O12 0.893475 0.893475 0.385093
O O13 0.000000 0.855808 0.388493
O O14 0.103495 0.337699 0.000000
#
# Coordination Sequence:
#
# PCOD8319263 Si02
#       5
#    32  32  16  32  32
#     4   9  17  28  41  55  78 108 137 165 198 243
#     4   9  17  27  35  49  72 102 137 175 213 246
#     4   9  16  22  30  48  72  98 131 175 222 255
#     4   9  17  29  46  68  89 107 128 154 189 237
#     4  10  17  25  37  52  74 103 139 181 215 243
#
# _framework density 14.615819
#
# number of rings (size 3 to 8) (size 9 to 14) (size 15 to 20)
#    0.000    2.778    1.111    1.333    0.000    3.556 
#    0.000    1.111    0.000    6.000    0.000    0.000 
#    0.000    0.000    0.000    0.000    0.000    1.556 
#
# Total GULP energy -891946.339662 kJ/mol
# GULP energy per Si atom -12388.143606 kJ/mol
# Density = 1.458255 g / cm^3
# Si number density = 14.615819 Si / 1000 Ang^3
#
#
#
# Elastic Constant Matrix: (Units=GPa)
#
#
# Indices 1 2 3 4 5 6 
#
# 1 66.8735 38.7099 14.5650 0.0000 0.0000 0.0000
# 2 38.7099 66.8735 14.5650 0.0000 0.0000 0.0000
# 3 14.5650 14.5650 74.9461 0.0000 0.0000 0.0000
# 4 0.0000 0.0000 0.0000 12.6967 0.0000 0.0000
# 5 0.0000 0.0000 0.0000 0.0000 12.6967 0.0000
# 6 0.0000 0.0000 0.0000 0.0000 0.0000 13.5771
#
#
#
# Elastic Compliance Matrix: (Units=1/GPa)
#
#
# Indices 1 2 3 4 5 6 
#
# 1 0.022757 -0.012750 -0.001945 0.000000 0.000000 0.000000
# 2 -0.012750 0.022757 -0.001945 0.000000 0.000000 0.000000
# 3 -0.001945 -0.001945 0.014099 0.000000 0.000000 0.000000
# 4 0.000000 0.000000 0.000000 0.078761 0.000000 0.000000
# 5 0.000000 0.000000 0.000000 0.000000 0.078761 0.000000
# 6 0.000000 0.000000 0.000000 0.000000 0.000000 0.073654
#
#
# Mechanical properties :
#
#
# Convention : Reuss Voigt Hill
#
# Bulk Modulus (GPa) = 37.97260 38.26367 38.11813
# Shear Modulus (GPa) = 15.02198 17.18429 16.10314
#
# Velocity S-wave (km/s) = 3.20939 3.43262 3.32288
# Velocity P-wave (km/s) = 6.30638 6.47664 6.39208
#
# Compressibility (1/GPa) = 0.02633478
#
# Stress axis : x y z
#
# Youngs Moduli (GPa) = 43.94191 43.94191 70.92763
#
# Poissons Ratio (x) = 0.56024 0.13795
# Poissons Ratio (y) = 0.56024 0.13795
# Poissons Ratio (z) = 0.08546 0.08546
#
# Static dielectric constant tensor:
#      x y z
#    x 2.701770 0.000000 0.000000 
#    y 0.000000 2.701770 0.000000 
#    z 0.000000 0.000000 3.078310 
# 
# 
# High freq. dielectric constant tensor:
#      x y z
#    x 1.525400 0.000000 0.000000 
#    y 0.000000 1.525400 0.000000 
#    z 0.000000 0.000000 1.569250 
# 
# From -- ./inp_files/10410.got.cif
#   From: 2010.03.12/outbox.cif.g09.slc.cpg/sg139_6_cif.got.tgz:10410.got - 2010.04.08 09:46:31.
