data_PCOD8319783
_publ_section_title
;
Structure prediction by ZEFSAII (Michael W. Deem and Ramdas Pophale) SiO2 
 PCOD8319783
Probable space group: I 4/M M M
;
_chemical_formula_sum "Si O2"
_cell_formula_units_Z 240
_cell_length_a 21.274130
_cell_length_b 21.274130
_cell_length_c 26.568352
_cell_angle_alpha 90.000000
_cell_angle_beta 90.000000
_cell_angle_gamma 90.000000
_cell_volume 12024.533429
_symmetry_space_group_name_H-M "I 4/M M M"
_symmetry_group_IT_number 139
_symmetry_cell_setting 'tetragonal'
loop_
_space_group_symop_operation_xyz
x,y,z
-y,x,z
-x,-y,z
y,-x,z
x,-y,-z
-x,y,-z
y,x,-z
-y,-x,-z
-x,-y,-z
y,-x,-z
x,y,-z
-y,x,-z
-x,y,z
x,-y,z
-y,-x,z
y,x,z
1/2+x,1/2+y,1/2+z
1/2-y,1/2+x,1/2+z
1/2-x,1/2-y,1/2+z
1/2+y,1/2-x,1/2+z
1/2+x,1/2-y,1/2-z
1/2-x,1/2+y,1/2-z
1/2+y,1/2+x,1/2-z
1/2-y,1/2-x,1/2-z
1/2-x,1/2-y,1/2-z
1/2+y,1/2-x,1/2-z
1/2+x,1/2+y,1/2-z
1/2-y,1/2+x,1/2-z
1/2-x,1/2+y,1/2+z
1/2+x,1/2-y,1/2+z
1/2-y,1/2-x,1/2+z
1/2+y,1/2+x,1/2+z
loop_
_atom_site_type_symbol
_atom_site_label
_atom_site_fract_x
_atom_site_fract_y
_atom_site_fract_z
Si Si1 0.070403 0.786123 0.715486
Si Si2 0.075049 0.826440 0.176034
Si Si3 0.424675 0.069305 0.500000
Si Si4 0.325770 0.575282 0.107360
Si Si5 0.770324 0.667445 0.642654
Si Si6 0.268502 0.162706 0.443794
Si Si7 0.649500 0.110686 0.700160
Si Si8 0.926675 0.568840 0.606512
O O1 0.100306 0.809644 0.767772
O O2 0.098388 0.817102 0.665134
O O3 0.071010 0.711385 0.710262
O O4 0.000000 0.810117 0.719005
O O5 0.105761 0.894240 0.162112
O O6 0.104071 0.772237 0.139552
O O7 0.000000 0.828954 0.168967
O O8 0.500000 0.066575 0.500000
O O9 0.404014 0.102445 0.446739
O O10 0.394649 0.000000 0.500000
O O11 0.332308 0.500000 0.100630
O O12 0.389447 0.610554 0.088047
O O13 0.264097 0.598933 0.077136
O O14 0.727745 0.727745 0.651733
O O15 0.812534 0.675142 0.592199
O O16 0.816074 0.664654 0.690723
O O17 0.295382 0.149465 0.500000
O O18 0.215770 0.215770 0.446078
O O19 0.606065 0.106065 0.750000
O O20 0.614857 0.083234 0.652264
O O21 0.897371 0.500000 0.619077
O O22 0.000000 0.560647 0.596670
#
# Coordination Sequence:
#
# PCOD8319783 Si02
#       8
#    32  32  16  32  32  32  32  32
#     4  10  20  34  50  74 111 150 193 240 286 338
#     4  10  21  37  59  86 116 150 186 229 282 344
#     4   7  12  30  56  74  95 136 188 238 281 330
#     4  10  20  34  54  80 113 154 200 252 304 352
#     4  10  21  37  57  81 107 143 188 233 283 339
#     4   9  18  35  59  83 109 144 187 237 295 353
#     4  12  22  33  51  80 110 148 187 241 286 347
#     4   9  19  35  54  76 106 147 193 237 287 345
#
# _framework density 19.959195000000001
#
# number of rings (size 3 to 8) (size 9 to 14) (size 15 to 20)
#    0.000    2.200    2.667    1.600    0.000    2.933 
#    1.200    0.667    0.000    2.800    0.000    1.867 
#    0.000    0.000    0.000    5.333    0.000    0.000 
#
# Total GULP energy -1486658.093733 kJ/mol
# GULP energy per Si atom -12388.817448 kJ/mol
# Density = 1.991377 g / cm^3
# Si number density = 19.959195 Si / 1000 Ang^3
#
#
#
# Elastic Constant Matrix: (Units=GPa)
#
#
# Indices 1 2 3 4 5 6 
#
# 1 75.1439 31.0629 42.5584 0.0000 0.0000 0.0000
# 2 31.0629 75.1439 42.5584 0.0000 0.0000 0.0000
# 3 42.5584 42.5584 122.8330 0.0000 0.0000 0.0000
# 4 0.0000 0.0000 0.0000 24.8061 0.0000 0.0000
# 5 0.0000 0.0000 0.0000 0.0000 24.8061 0.0000
# 6 0.0000 0.0000 0.0000 0.0000 0.0000 16.2720
#
#
#
# Elastic Compliance Matrix: (Units=1/GPa)
#
#
# Indices 1 2 3 4 5 6 
#
# 1 0.017860 -0.004825 -0.004516 0.000000 0.000000 0.000000
# 2 -0.004825 0.017860 -0.004516 0.000000 0.000000 0.000000
# 3 -0.004516 -0.004516 0.011271 0.000000 0.000000 0.000000
# 4 0.000000 0.000000 0.000000 0.040313 0.000000 0.000000
# 5 0.000000 0.000000 0.000000 0.000000 0.040313 0.000000
# 6 0.000000 0.000000 0.000000 0.000000 0.000000 0.061455
#
#
# Mechanical properties :
#
#
# Convention : Reuss Voigt Hill
#
# Bulk Modulus (GPa) = 51.87902 56.16447 54.02175
# Shear Modulus (GPa) = 22.40017 23.63960 23.01989
#
# Velocity S-wave (km/s) = 3.35371 3.44524 3.39978
# Velocity P-wave (km/s) = 6.40667 6.63528 6.52198
#
# Compressibility (1/GPa) = 0.01927561
#
# Stress axis : x y z
#
# Youngs Moduli (GPa) = 55.99008 55.99008 88.72563
#
# Poissons Ratio (x) = 0.27016 0.40071
# Poissons Ratio (y) = 0.27016 0.40071
# Poissons Ratio (z) = 0.25287 0.25287
#
# Static dielectric constant tensor:
#      x y z
#    x 3.462970 0.000000 0.000000 
#    y 0.000000 3.462970 0.000000 
#    z 0.000000 0.000000 3.942640 
# 
# 
# High freq. dielectric constant tensor:
#      x y z
#    x 1.766540 0.000000 0.000000 
#    y 0.000000 1.766540 0.000000 
#    z 0.000000 0.000000 1.778870 
# 
# From -- ./inp_files/13398.got.cif
#   From: 2010.03.12/outbox.cif.g09.slc.cpg/sg139_7_cif.got.tgz:13398.got - 2010.04.08 09:46:31.
