data_PCOD8319535
_publ_section_title
;
Structure prediction by ZEFSAII (Michael W. Deem and Ramdas Pophale) SiO2 
 PCOD8319535
Probable space group: I 4/M M M
;
_chemical_formula_sum "Si O2"
_cell_formula_units_Z 144
_cell_length_a 23.109727
_cell_length_b 23.109727
_cell_length_c 15.446174
_cell_angle_alpha 90.000000
_cell_angle_beta 90.000000
_cell_angle_gamma 90.000000
_cell_volume 8249.175686
_symmetry_space_group_name_H-M "I 4/M M M"
_symmetry_group_IT_number 139
_symmetry_cell_setting 'tetragonal'
loop_
_space_group_symop_operation_xyz
x,y,z
-y,x,z
-x,-y,z
y,-x,z
x,-y,-z
-x,y,-z
y,x,-z
-y,-x,-z
-x,-y,-z
y,-x,-z
x,y,-z
-y,x,-z
-x,y,z
x,-y,z
-y,-x,z
y,x,z
1/2+x,1/2+y,1/2+z
1/2-y,1/2+x,1/2+z
1/2-x,1/2-y,1/2+z
1/2+y,1/2-x,1/2+z
1/2+x,1/2-y,1/2-z
1/2-x,1/2+y,1/2-z
1/2+y,1/2+x,1/2-z
1/2-y,1/2-x,1/2-z
1/2-x,1/2-y,1/2-z
1/2+y,1/2-x,1/2-z
1/2+x,1/2+y,1/2-z
1/2-y,1/2+x,1/2-z
1/2-x,1/2+y,1/2+z
1/2+x,1/2-y,1/2+z
1/2-y,1/2-x,1/2+z
1/2+y,1/2+x,1/2+z
loop_
_atom_site_type_symbol
_atom_site_label
_atom_site_fract_x
_atom_site_fract_y
_atom_site_fract_z
Si Si1 0.367268 0.272762 0.667828
Si Si2 0.339492 0.433954 0.000000
Si Si3 0.936485 0.639325 0.000000
Si Si4 0.743856 0.432194 0.841598
Si Si5 0.064634 0.223390 0.000000
Si Si6 0.142942 0.638077 0.154465
O O1 0.310329 0.310329 0.685275
O O2 0.410721 0.278393 0.748575
O O3 0.401169 0.297627 0.584836
O O4 0.345953 0.207126 0.652108
O O5 0.303728 0.419654 0.913874
O O6 0.359351 0.500000 0.000000
O O7 0.397190 0.397190 0.000000
O O8 0.904769 0.617694 0.913791
O O9 0.939940 0.707940 0.000000
O O10 0.000000 0.611516 0.000000
O O11 0.759637 0.500000 0.835795
O O12 0.799237 0.395521 0.870593
O O13 0.000000 0.196485 0.000000
O O14 0.120591 0.620591 0.250000
#
# Coordination Sequence:
#
# PCOD8319535 Si02
#       6
#    32  16  16  32  16  32
#     4  10  19  31  49  76 106 132 161 201 248 293
#     4  10  21  35  51  70  90 118 156 198 245 291
#     4   9  17  32  52  73  98 130 169 207 243 289
#     4  10  20  34  51  70  96 130 165 200 242 297
#     4   9  17  30  48  72 104 139 170 196 231 288
#     4   9  19  31  48  75 102 133 166 199 246 294
#
# _framework density 17.456289000000002
#
# number of rings (size 3 to 8) (size 9 to 14) (size 15 to 20)
#    0.000    2.444    0.000    2.333    0.000   10.333 
#    0.000    0.000    0.000    1.333    0.000    4.667 
#    0.000   16.889    0.000    0.000    0.000    0.000 
#
# Total GULP energy -892806.756309 kJ/mol
# GULP energy per Si atom -12400.093838 kJ/mol
# Density = 1.741656 g / cm^3
# Si number density = 17.456289 Si / 1000 Ang^3
#
#
#
# Elastic Constant Matrix: (Units=GPa)
#
#
# Indices 1 2 3 4 5 6 
#
# 1 95.1288 63.2175 58.3729 0.0000 0.0000 0.0000
# 2 63.2175 95.1288 58.3729 0.0000 0.0000 0.0000
# 3 58.3729 58.3729 138.5089 0.0000 0.0000 0.0000
# 4 0.0000 0.0000 0.0000 20.3463 0.0000 0.0000
# 5 0.0000 0.0000 0.0000 0.0000 20.3463 0.0000
# 6 0.0000 0.0000 0.0000 0.0000 0.0000 13.9001
#
#
#
# Elastic Compliance Matrix: (Units=1/GPa)
#
#
# Indices 1 2 3 4 5 6 
#
# 1 0.020250 -0.011087 -0.003861 0.000000 0.000000 0.000000
# 2 -0.011087 0.020250 -0.003861 0.000000 0.000000 0.000000
# 3 -0.003861 -0.003861 0.010474 0.000000 0.000000 0.000000
# 4 0.000000 0.000000 0.000000 0.049149 0.000000 0.000000
# 5 0.000000 0.000000 0.000000 0.000000 0.049149 0.000000
# 6 0.000000 0.000000 0.000000 0.000000 0.000000 0.071942
#
#
# Mechanical properties :
#
#
# Convention : Reuss Voigt Hill
#
# Bulk Modulus (GPa) = 74.88679 76.52147 75.70413
# Shear Modulus (GPa) = 18.99087 20.83874 19.91481
#
# Velocity S-wave (km/s) = 3.30193 3.45884 3.38129
# Velocity P-wave (km/s) = 7.58483 7.73839 7.66200
#
# Compressibility (1/GPa) = 0.01335349
#
# Stress axis : x y z
#
# Youngs Moduli (GPa) = 49.38386 49.38386 95.47162
#
# Poissons Ratio (x) = 0.54754 0.36864
# Poissons Ratio (y) = 0.54754 0.36864
# Poissons Ratio (z) = 0.19068 0.19068
#
# Static dielectric constant tensor:
#      x y z
#    x 3.127380 0.000000 0.000000 
#    y 0.000000 3.127380 0.000000 
#    z 0.000000 0.000000 3.533100 
# 
# 
# High freq. dielectric constant tensor:
#      x y z
#    x 1.656770 0.000000 0.000000 
#    y 0.000000 1.656770 0.000000 
#    z 0.000000 0.000000 1.697710 
# 
# From -- ./inp_files/8284.got.cif
#   From: 2010.03.12/outbox.cif.g09.slc.cpg/sg139_5_cif.got.tgz:8284.got - 2010.04.08 09:46:31.
