data_PCOD8319885
_publ_section_title
;
Structure prediction by ZEFSAII (Michael W. Deem and Ramdas Pophale) SiO2 
 PCOD8319885
Probable space group: I 4/M M M
;
_chemical_formula_sum "Si O2"
_cell_formula_units_Z 160
_cell_length_a 21.244692
_cell_length_b 21.244692
_cell_length_c 16.508490
_cell_angle_alpha 90.000000
_cell_angle_beta 90.000000
_cell_angle_gamma 90.000000
_cell_volume 7450.891330
_symmetry_space_group_name_H-M "I 4/M M M"
_symmetry_group_IT_number 139
_symmetry_cell_setting 'tetragonal'
loop_
_space_group_symop_operation_xyz
x,y,z
-y,x,z
-x,-y,z
y,-x,z
x,-y,-z
-x,y,-z
y,x,-z
-y,-x,-z
-x,-y,-z
y,-x,-z
x,y,-z
-y,x,-z
-x,y,z
x,-y,z
-y,-x,z
y,x,z
1/2+x,1/2+y,1/2+z
1/2-y,1/2+x,1/2+z
1/2-x,1/2-y,1/2+z
1/2+y,1/2-x,1/2+z
1/2+x,1/2-y,1/2-z
1/2-x,1/2+y,1/2-z
1/2+y,1/2+x,1/2-z
1/2-y,1/2-x,1/2-z
1/2-x,1/2-y,1/2-z
1/2+y,1/2-x,1/2-z
1/2+x,1/2+y,1/2-z
1/2-y,1/2+x,1/2-z
1/2-x,1/2+y,1/2+z
1/2+x,1/2-y,1/2+z
1/2-y,1/2-x,1/2+z
1/2+y,1/2+x,1/2+z
loop_
_atom_site_type_symbol
_atom_site_label
_atom_site_fract_x
_atom_site_fract_y
_atom_site_fract_z
Si Si1 0.365845 0.365845 0.903624
Si Si2 0.810314 0.000000 0.404436
Si Si3 0.365462 0.210955 0.594404
Si Si4 0.500000 0.830839 0.092376
Si Si5 0.571287 0.904929 0.658260
Si Si6 0.164168 0.068378 0.095990
Si Si7 0.231606 0.231606 0.658868
O O1 0.349231 0.437673 0.878079
O O2 0.321465 0.321465 0.848810
O O3 0.354626 0.354626 0.000000
O O4 0.738726 0.000000 0.365172
O O5 0.804362 0.000000 0.500000
O O6 0.377799 0.197034 0.500000
O O7 0.411259 0.167787 0.648422
O O8 0.385141 0.280378 0.621525
O O9 0.292185 0.202850 0.613621
O O10 0.439793 0.873623 0.110333
O O11 0.500000 0.813624 0.000000
O O12 0.500000 0.917773 0.625425
O O13 0.572814 0.927187 0.750000
O O14 0.099084 0.099084 0.126560
O O15 0.171579 0.000000 0.137000
O O16 0.163861 0.061485 0.000000
O O17 0.250000 0.250000 0.750000
#
# Coordination Sequence:
#
# PCOD8319885 Si02
#       7
#    16  16  32  16  32  32  16
#     4  10  20  39  68 100 139 178 219 273 333 405
#     4   9  20  38  64 102 136 171 217 272 331 389
#     4  11  22  39  63  92 125 166 221 275 328 394
#     4  11  23  40  64  92 127 173 229 272 319 400
#     4  12  25  42  62  90 131 175 216 274 344 406
#     4   9  17  31  53  83 118 153 196 254 311 373
#     4  12  24  40  65  95 133 171 223 281 346 405
#
# _framework density 21.473942000000001
#
# number of rings (size 3 to 8) (size 9 to 14) (size 15 to 20)
#    0.000    1.400    2.000    4.200    0.000    4.800 
#    0.000    2.000    2.200    0.000    0.000    0.000 
#    3.000    0.000    0.000    0.000    0.000    0.000 
#
# Total GULP energy -991638.561179 kJ/mol
# GULP energy per Si atom -12395.482015 kJ/mol
# Density = 2.142507 g / cm^3
# Si number density = 21.473942 Si / 1000 Ang^3
#
#
#
# Elastic Constant Matrix: (Units=GPa)
#
#
# Indices 1 2 3 4 5 6 
#
# 1 167.0931 81.5248 20.2973 0.0000 0.0000 0.0000
# 2 81.5248 167.0927 20.2968 0.0000 0.0000 0.0000
# 3 20.2973 20.2968 38.5055 0.0000 0.0000 0.0000
# 4 0.0000 0.0000 0.0000 23.0574 0.0000 0.0000
# 5 0.0000 0.0000 0.0000 0.0000 23.0578 0.0000
# 6 0.0000 0.0000 0.0000 0.0000 0.0000 34.7674
#
#
#
# Elastic Compliance Matrix: (Units=1/GPa)
#
#
# Indices 1 2 3 4 5 6 
#
# 1 0.008044 -0.003643 -0.002320 0.000000 0.000000 0.000000
# 2 -0.003643 0.008044 -0.002320 0.000000 0.000000 0.000000
# 3 -0.002320 -0.002320 0.028416 0.000000 0.000000 0.000000
# 4 0.000000 0.000000 0.000000 0.043370 0.000000 0.000000
# 5 0.000000 0.000000 0.000000 0.000000 0.043369 0.000000
# 6 0.000000 0.000000 0.000000 0.000000 0.000000 0.028763
#
#
# Mechanical properties :
#
#
# Convention : Reuss Voigt Hill
#
# Bulk Modulus (GPa) = 35.79278 68.54767 52.17023
# Shear Modulus (GPa) = 26.89858 32.88135 29.88997
#
# Velocity S-wave (km/s) = 3.54307 3.91733 3.73489
# Velocity P-wave (km/s) = 5.78290 7.24232 6.55337
#
# Compressibility (1/GPa) = 0.02793860
#
# Stress axis : x y z
#
# Youngs Moduli (GPa) = 124.31905 124.31921 35.19140
#
# Poissons Ratio (x) = 0.45287 0.08164
# Poissons Ratio (y) = 0.45287 0.08164
# Poissons Ratio (z) = 0.28841 0.28839
#
# Static dielectric constant tensor:
#      x y z
#    x 3.916480 0.000000 0.000000 
#    y 0.000000 3.916460 0.000000 
#    z 0.000000 0.000000 3.503500 
# 
# 
# High freq. dielectric constant tensor:
#      x y z
#    x 1.856030 0.000000 0.000000 
#    y 0.000000 1.856030 0.000000 
#    z 0.000000 0.000000 1.803190 
# 
# From -- ./inp_files/8513.got.cif
#   From: 2010.03.12/outbox.cif.g09.slc.cpg/sg139_5_cif.got.tgz:8513.got - 2010.04.08 09:46:31.
