data_PCOD8319687
_publ_section_title
;
Structure prediction by ZEFSAII (Michael W. Deem and Ramdas Pophale) SiO2 
 PCOD8319687
Probable space group: I 4/M M M
;
_chemical_formula_sum "Si O2"
_cell_formula_units_Z 160
_cell_length_a 18.245719
_cell_length_b 18.245719
_cell_length_c 27.712092
_cell_angle_alpha 90.000000
_cell_angle_beta 90.000000
_cell_angle_gamma 90.000000
_cell_volume 9225.528955
_symmetry_space_group_name_H-M "I 4/M M M"
_symmetry_group_IT_number 139
_symmetry_cell_setting 'tetragonal'
loop_
_space_group_symop_operation_xyz
x,y,z
-y,x,z
-x,-y,z
y,-x,z
x,-y,-z
-x,y,-z
y,x,-z
-y,-x,-z
-x,-y,-z
y,-x,-z
x,y,-z
-y,x,-z
-x,y,z
x,-y,z
-y,-x,z
y,x,z
1/2+x,1/2+y,1/2+z
1/2-y,1/2+x,1/2+z
1/2-x,1/2-y,1/2+z
1/2+y,1/2-x,1/2+z
1/2+x,1/2-y,1/2-z
1/2-x,1/2+y,1/2-z
1/2+y,1/2+x,1/2-z
1/2-y,1/2-x,1/2-z
1/2-x,1/2-y,1/2-z
1/2+y,1/2-x,1/2-z
1/2+x,1/2+y,1/2-z
1/2-y,1/2+x,1/2-z
1/2-x,1/2+y,1/2+z
1/2+x,1/2-y,1/2+z
1/2-y,1/2-x,1/2+z
1/2+y,1/2+x,1/2+z
loop_
_atom_site_type_symbol
_atom_site_label
_atom_site_fract_x
_atom_site_fract_y
_atom_site_fract_z
Si Si1 0.302285 0.417811 0.942686
Si Si2 0.083474 0.344048 0.291694
Si Si3 0.804364 0.682258 0.554348
Si Si4 0.804529 0.415293 0.357686
Si Si5 0.203698 0.916302 0.769082
O O1 0.302457 0.500000 0.920524
O O2 0.372490 0.372490 0.922449
O O3 0.227154 0.376477 0.928411
O O4 0.307875 0.420884 0.000000
O O5 0.095336 0.404665 0.250000
O O6 0.130368 0.364151 0.338269
O O7 0.106933 0.265388 0.269707
O O8 0.000000 0.343763 0.308082
O O9 0.815466 0.652278 0.500000
O O10 0.735211 0.735211 0.556299
O O11 0.787978 0.613054 0.588587
O O12 0.829126 0.500000 0.359431
O O13 0.734024 0.405798 0.323381
O O14 0.133164 0.866837 0.760759
O O15 0.179875 0.000000 0.760883
#
# Coordination Sequence:
#
# PCOD8319687 Si02
#       5
#    32  32  32  32  32
#     4   8  14  25  41  61  84 110 143 185 232 280
#     4   9  18  31  47  69  96 125 156 190 229 277
#     4   9  18  32  48  65  89 125 164 199 239 285
#     4  10  20  31  47  72  96 122 158 198 239 281
#     4   9  18  32  50  74 101 126 155 190 229 277
#
# _framework density 17.343178000000002
#
# number of rings (size 3 to 8) (size 9 to 14) (size 15 to 20)
#    0.000    3.000    0.000    3.600    0.000    7.400 
#    0.000    1.000    0.000    0.000    0.000    4.200 
#    0.000    3.200    0.000   18.800    0.000    0.000 
#
# Total GULP energy -991683.714746 kJ/mol
# GULP energy per Si atom -12396.046434 kJ/mol
# Density = 1.730370 g / cm^3
# Si number density = 17.343178 Si / 1000 Ang^3
#
#
#
# Elastic Constant Matrix: (Units=GPa)
#
#
# Indices 1 2 3 4 5 6 
#
# 1 90.5463 58.4365 38.0728 0.0000 0.0000 0.0000
# 2 58.4365 90.5445 38.0729 0.0000 0.0000 0.0000
# 3 38.0728 38.0729 70.4046 0.0000 0.0000 0.0000
# 4 0.0000 0.0000 0.0000 20.3784 0.0000 0.0000
# 5 0.0000 0.0000 0.0000 0.0000 20.3784 0.0000
# 6 0.0000 0.0000 0.0000 0.0000 0.0000 22.5019
#
#
#
# Elastic Compliance Matrix: (Units=1/GPa)
#
#
# Indices 1 2 3 4 5 6 
#
# 1 0.020210 -0.010934 -0.005016 0.000000 0.000000 0.000000
# 2 -0.010934 0.020210 -0.005016 0.000000 0.000000 0.000000
# 3 -0.005016 -0.005016 0.019629 0.000000 0.000000 0.000000
# 4 0.000000 0.000000 0.000000 0.049072 0.000000 0.000000
# 5 0.000000 0.000000 0.000000 0.000000 0.049072 0.000000
# 6 0.000000 0.000000 0.000000 0.000000 0.000000 0.044441
#
#
# Mechanical properties :
#
#
# Convention : Reuss Voigt Hill
#
# Bulk Modulus (GPa) = 55.19961 57.85110 56.52535
# Shear Modulus (GPa) = 19.95177 20.44596 20.19886
#
# Velocity S-wave (km/s) = 3.39545 3.43724 3.41641
# Velocity P-wave (km/s) = 6.87525 7.01298 6.94446
#
# Compressibility (1/GPa) = 0.01811607
#
# Stress axis : x y z
#
# Youngs Moduli (GPa) = 49.48099 49.47967 50.94535
#
# Poissons Ratio (x) = 0.54101 0.25554
# Poissons Ratio (y) = 0.54103 0.25556
# Poissons Ratio (z) = 0.24820 0.24821
#
# Static dielectric constant tensor:
#      x y z
#    x 3.157560 0.000000 0.000000 
#    y 0.000000 3.157560 0.000000 
#    z 0.000000 0.000000 3.055760 
# 
# 
# High freq. dielectric constant tensor:
#      x y z
#    x 1.660020 0.000000 0.000000 
#    y 0.000000 1.660020 0.000000 
#    z 0.000000 0.000000 1.651090 
# 
# From -- ./inp_files/12933.got.cif
#   From: 2010.03.12/outbox.cif.g09.slc.cpg/sg139_7_cif.got.tgz:12933.got - 2010.04.08 09:46:31.
