data_PCOD8319820
_publ_section_title
;
Structure prediction by ZEFSAII (Michael W. Deem and Ramdas Pophale) SiO2 
 PCOD8319820
Probable space group: I 4/M M M
;
_chemical_formula_sum "Si O2"
_cell_formula_units_Z 136
_cell_length_a 24.184761
_cell_length_b 24.184761
_cell_length_c 13.755749
_cell_angle_alpha 90.000000
_cell_angle_beta 90.000000
_cell_angle_gamma 90.000000
_cell_volume 8045.774244
_symmetry_space_group_name_H-M "I 4/M M M"
_symmetry_group_IT_number 139
_symmetry_cell_setting 'tetragonal'
loop_
_space_group_symop_operation_xyz
x,y,z
-y,x,z
-x,-y,z
y,-x,z
x,-y,-z
-x,y,-z
y,x,-z
-y,-x,-z
-x,-y,-z
y,-x,-z
x,y,-z
-y,x,-z
-x,y,z
x,-y,z
-y,-x,z
y,x,z
1/2+x,1/2+y,1/2+z
1/2-y,1/2+x,1/2+z
1/2-x,1/2-y,1/2+z
1/2+y,1/2-x,1/2+z
1/2+x,1/2-y,1/2-z
1/2-x,1/2+y,1/2-z
1/2+y,1/2+x,1/2-z
1/2-y,1/2-x,1/2-z
1/2-x,1/2-y,1/2-z
1/2+y,1/2-x,1/2-z
1/2+x,1/2+y,1/2-z
1/2-y,1/2+x,1/2-z
1/2-x,1/2+y,1/2+z
1/2+x,1/2-y,1/2+z
1/2-y,1/2-x,1/2+z
1/2+y,1/2+x,1/2+z
loop_
_atom_site_type_symbol
_atom_site_label
_atom_site_fract_x
_atom_site_fract_y
_atom_site_fract_z
Si Si1 0.409416 0.500000 0.107380
Si Si2 0.000000 0.304913 0.695570
Si Si3 0.300707 0.608173 0.614244
Si Si4 0.113511 0.433205 0.500000
Si Si5 0.607380 0.821155 0.684212
Si Si6 0.184470 0.000000 0.236315
Si Si7 0.627321 0.000000 0.500000
O O1 0.445665 0.445665 0.120165
O O2 0.365034 0.500000 0.190159
O O3 0.381973 0.500000 0.000000
O O4 0.053222 0.325885 0.751326
O O5 0.000000 0.238509 0.695730
O O6 0.000000 0.330560 0.589313
O O7 0.299609 0.595839 0.500000
O O8 0.341799 0.658202 0.640189
O O9 0.240003 0.624344 0.650899
O O10 0.320387 0.552987 0.667500
O O11 0.120376 0.500000 0.500000
O O12 0.141351 0.404662 0.408104
O O13 0.050122 0.415624 0.500000
O O14 0.657798 0.842203 0.750000
#
# Coordination Sequence:
#
# PCOD8319820 Si02
#       7
#    16  16  32  16  32  16   8
#     4   9  18  33  53  78 111 149 184 221 272 331
#     4  10  22  34  54  79 108 138 191 222 272 333
#     4  10  21  36  57  86 112 141 188 234 279 340
#     4  12  23  36  61  81 115 143 188 229 284 329
#     4  11  21  37  57  80 107 152 183 230 279 338
#     4  10  20  34  57  80 110 147 180 233 278 329
#     4  12  23  38  52  86 112 143 180 242 282 326
#
# _framework density 16.903282999999998
#
# number of rings (size 3 to 8) (size 9 to 14) (size 15 to 20)
#    0.000    1.529    4.706    1.588    0.824    0.471 
#    0.000    0.000    0.000    0.000    0.000    4.941 
#    0.000    0.000    0.000    0.000    0.000    0.000 
#
# Total GULP energy -843140.193065 kJ/mol
# GULP energy per Si atom -12399.120486 kJ/mol
# Density = 1.686481 g / cm^3
# Si number density = 16.903283 Si / 1000 Ang^3
#
#
#
# Elastic Constant Matrix: (Units=GPa)
#
#
# Indices 1 2 3 4 5 6 
#
# 1 117.5861 67.4744 72.2485 0.0000 0.0000 0.0000
# 2 67.4744 117.5886 72.2483 0.0000 0.0000 0.0000
# 3 72.2485 72.2483 131.2279 0.0000 0.0000 0.0000
# 4 0.0000 0.0000 0.0000 26.3643 0.0000 0.0000
# 5 0.0000 0.0000 0.0000 0.0000 26.3780 0.0000
# 6 0.0000 0.0000 0.0000 0.0000 0.0000 28.7157
#
#
#
# Elastic Compliance Matrix: (Units=1/GPa)
#
#
# Indices 1 2 3 4 5 6 
#
# 1 0.014717 -0.005238 -0.005218 0.000000 0.000000 0.000000
# 2 -0.005238 0.014716 -0.005218 0.000000 0.000000 0.000000
# 3 -0.005218 -0.005218 0.013366 0.000000 0.000000 0.000000
# 4 0.000000 0.000000 0.000000 0.037930 0.000000 0.000000
# 5 0.000000 0.000000 0.000000 0.000000 0.037910 0.000000
# 6 0.000000 0.000000 0.000000 0.000000 0.000000 0.034824
#
#
# Mechanical properties :
#
#
# Convention : Reuss Voigt Hill
#
# Bulk Modulus (GPa) = 87.34077 87.81613 87.57845
# Shear Modulus (GPa) = 26.50695 26.58701 26.54698
#
# Velocity S-wave (km/s) = 3.96429 3.97027 3.96728
# Velocity P-wave (km/s) = 8.52861 8.54882 8.53872
#
# Compressibility (1/GPa) = 0.01144941
#
# Stress axis : x y z
#
# Youngs Moduli (GPa) = 67.95004 67.95240 74.81603
#
# Poissons Ratio (x) = 0.35597 0.39041
# Poissons Ratio (y) = 0.35596 0.39039
# Poissons Ratio (z) = 0.35458 0.35458
#
# Static dielectric constant tensor:
#      x y z
#    x 3.204030 0.000000 0.000000 
#    y 0.000000 3.204030 0.000000 
#    z 0.000000 0.000000 3.330120 
# 
# 
# High freq. dielectric constant tensor:
#      x y z
#    x 1.656440 0.000000 0.000000 
#    y 0.000000 1.656440 0.000000 
#    z 0.000000 0.000000 1.667460 
# 
# From -- ./inp_files/3604.got.cif
#   From: 2010.03.12/outbox.cif.g09.slc.cpg/sg139_2_cif.got.tgz:3604.got - 2010.04.08 09:46:31.
