data_PCOD8319251
_publ_section_title
;
Structure prediction by ZEFSAII (Michael W. Deem and Ramdas Pophale) SiO2 
 PCOD8319251
Probable space group: I 4/M M M
;
_chemical_formula_sum "Si O2"
_cell_formula_units_Z 176
_cell_length_a 27.730513
_cell_length_b 27.730513
_cell_length_c 14.506082
_cell_angle_alpha 90.000000
_cell_angle_beta 90.000000
_cell_angle_gamma 90.000000
_cell_volume 11154.906538
_symmetry_space_group_name_H-M "I 4/M M M"
_symmetry_group_IT_number 139
_symmetry_cell_setting 'tetragonal'
loop_
_space_group_symop_operation_xyz
x,y,z
-y,x,z
-x,-y,z
y,-x,z
x,-y,-z
-x,y,-z
y,x,-z
-y,-x,-z
-x,-y,-z
y,-x,-z
x,y,-z
-y,x,-z
-x,y,z
x,-y,z
-y,-x,z
y,x,z
1/2+x,1/2+y,1/2+z
1/2-y,1/2+x,1/2+z
1/2-x,1/2-y,1/2+z
1/2+y,1/2-x,1/2+z
1/2+x,1/2-y,1/2-z
1/2-x,1/2+y,1/2-z
1/2+y,1/2+x,1/2-z
1/2-y,1/2-x,1/2-z
1/2-x,1/2-y,1/2-z
1/2+y,1/2-x,1/2-z
1/2+x,1/2+y,1/2-z
1/2-y,1/2+x,1/2-z
1/2-x,1/2+y,1/2+z
1/2+x,1/2-y,1/2+z
1/2-y,1/2-x,1/2+z
1/2+y,1/2+x,1/2+z
loop_
_atom_site_type_symbol
_atom_site_label
_atom_site_fract_x
_atom_site_fract_y
_atom_site_fract_z
Si Si1 0.136934 0.500000 0.205379
Si Si2 0.000000 0.736719 0.606180
Si Si3 0.301795 0.103676 0.895740
Si Si4 0.094130 0.632886 0.605716
Si Si5 0.247013 0.396487 0.102606
Si Si6 0.671582 0.748628 0.264523
Si Si7 0.825263 0.500000 0.397130
O O1 0.192980 0.500000 0.177487
O O2 0.112642 0.451356 0.164278
O O3 0.133879 0.500000 0.317190
O O4 0.049163 0.768089 0.620969
O O5 0.000000 0.716314 0.500000
O O6 0.355891 0.110822 0.855101
O O7 0.260930 0.132145 0.841100
O O8 0.290716 0.046751 0.888086
O O9 0.300189 0.123229 0.000000
O O10 0.086452 0.617110 0.500000
O O11 0.098405 0.690011 0.615724
O O12 0.267063 0.356268 0.171699
O O13 0.260435 0.378729 0.000000
O O14 0.703291 0.703291 0.297679
O O15 0.705139 0.794862 0.250000
O O16 0.849922 0.500000 0.500000
#
# Coordination Sequence:
#
# PCOD8319251 Si02
#       7
#    16  16  32  32  32  32  16
#     4  10  16  24  44  65  87 107 132 181 225 273
#     4   8  14  24  44  70  85 101 141 184 226 271
#     4  10  20  35  49  63  87 113 148 191 229 269
#     4   9  16  27  46  67  84 106 138 180 229 273
#     4   9  16  28  44  64  89 114 142 185 228 263
#     4  11  22  31  43  64  88 118 157 185 219 274
#     4  10  22  32  44  65  82 111 150 183 223 269
#
# _framework density 15.777810000000001
#
# number of rings (size 3 to 8) (size 9 to 14) (size 15 to 20)
#    0.000    2.364    1.818    4.091    0.000    0.727 
#    0.000    1.818    0.000    0.545    0.000    4.455 
#    0.000    0.000    0.000    0.000    0.000    7.273 
#
# Total GULP energy -1090561.144977 kJ/mol
# GULP energy per Si atom -12392.740284 kJ/mol
# Density = 1.574190 g / cm^3
# Si number density = 15.777810 Si / 1000 Ang^3
#
#
#
# Elastic Constant Matrix: (Units=GPa)
#
#
# Indices 1 2 3 4 5 6 
#
# 1 61.6766 45.5228 37.4539 0.0000 0.0000 0.0000
# 2 45.5228 61.6775 37.4547 0.0000 0.0000 0.0000
# 3 37.4539 37.4547 86.7807 0.0000 0.0000 0.0000
# 4 0.0000 0.0000 0.0000 19.0397 0.0000 0.0000
# 5 0.0000 0.0000 0.0000 0.0000 19.0394 0.0000
# 6 0.0000 0.0000 0.0000 0.0000 0.0000 9.2111
#
#
#
# Elastic Compliance Matrix: (Units=1/GPa)
#
#
# Indices 1 2 3 4 5 6 
#
# 1 0.037630 -0.024273 -0.005764 0.000000 0.000000 0.000000
# 2 -0.024273 0.037630 -0.005765 0.000000 0.000000 0.000000
# 3 -0.005764 -0.005765 0.016499 0.000000 0.000000 0.000000
# 4 0.000000 0.000000 0.000000 0.052522 0.000000 0.000000
# 5 0.000000 0.000000 0.000000 0.000000 0.052523 0.000000
# 6 0.000000 0.000000 0.000000 0.000000 0.000000 0.108564
#
#
# Mechanical properties :
#
#
# Convention : Reuss Voigt Hill
#
# Bulk Modulus (GPa) = 49.61838 50.11086 49.86462
# Shear Modulus (GPa) = 13.03132 15.43829 14.23480
#
# Velocity S-wave (km/s) = 2.87701 3.13146 3.00693
# Velocity P-wave (km/s) = 6.52325 6.70105 6.61274
#
# Compressibility (1/GPa) = 0.02015382
#
# Stress axis : x y z
#
# Youngs Moduli (GPa) = 26.57451 26.57468 60.60864
#
# Poissons Ratio (x) = 0.64506 0.34937
# Poissons Ratio (y) = 0.64505 0.34940
# Poissons Ratio (z) = 0.15319 0.15320
#
# Static dielectric constant tensor:
#      x y z
#    x 2.852940 0.000000 0.000000 
#    y 0.000000 2.852940 0.000000 
#    z 0.000000 0.000000 3.175270 
# 
# 
# High freq. dielectric constant tensor:
#      x y z
#    x 1.564200 0.000000 0.000000 
#    y 0.000000 1.564200 0.000000 
#    z 0.000000 0.000000 1.622860 
# 
# From -- ./inp_files/6458.got.cif
#   From: 2010.03.12/outbox.cif.g09.slc.cpg/sg139_4_cif.got.tgz:6458.got - 2010.04.08 09:46:31.
