data_PCOD8319428
_publ_section_title
;
Structure prediction by ZEFSAII (Michael W. Deem and Ramdas Pophale) SiO2 
 PCOD8319428
Probable space group: I 4/M M M
;
_chemical_formula_sum "Si O2"
_cell_formula_units_Z 192
_cell_length_a 20.492242
_cell_length_b 20.492242
_cell_length_c 30.576848
_cell_angle_alpha 90.000000
_cell_angle_beta 90.000000
_cell_angle_gamma 90.000000
_cell_volume 12840.196390
_symmetry_space_group_name_H-M "I 4/M M M"
_symmetry_group_IT_number 139
_symmetry_cell_setting 'tetragonal'
loop_
_space_group_symop_operation_xyz
x,y,z
-y,x,z
-x,-y,z
y,-x,z
x,-y,-z
-x,y,-z
y,x,-z
-y,-x,-z
-x,-y,-z
y,-x,-z
x,y,-z
-y,x,-z
-x,y,z
x,-y,z
-y,-x,z
y,x,z
1/2+x,1/2+y,1/2+z
1/2-y,1/2+x,1/2+z
1/2-x,1/2-y,1/2+z
1/2+y,1/2-x,1/2+z
1/2+x,1/2-y,1/2-z
1/2-x,1/2+y,1/2-z
1/2+y,1/2+x,1/2-z
1/2-y,1/2-x,1/2-z
1/2-x,1/2-y,1/2-z
1/2+y,1/2-x,1/2-z
1/2+x,1/2+y,1/2-z
1/2-y,1/2+x,1/2-z
1/2-x,1/2+y,1/2+z
1/2+x,1/2-y,1/2+z
1/2-y,1/2-x,1/2+z
1/2+y,1/2+x,1/2+z
loop_
_atom_site_type_symbol
_atom_site_label
_atom_site_fract_x
_atom_site_fract_y
_atom_site_fract_z
Si Si1 0.182173 0.925159 0.088110
Si Si2 0.352282 0.746956 0.762174
Si Si3 0.426300 0.677320 0.689075
Si Si4 0.681418 0.077501 0.951000
Si Si5 0.425770 0.077331 0.116822
Si Si6 0.576321 0.140468 0.792538
O O1 0.120825 0.879176 0.075665
O O2 0.199940 0.921636 0.139073
O O3 0.246623 0.898991 0.063474
O O4 0.164606 0.000000 0.074829
O O5 0.320063 0.679938 0.781725
O O6 0.294099 0.794099 0.750000
O O7 0.391419 0.732320 0.717725
O O8 0.400500 0.783590 0.796048
O O9 0.500000 0.669457 0.705137
O O10 0.392921 0.607079 0.695206
O O11 0.623711 0.105094 0.919925
O O12 0.679837 0.000000 0.949037
O O13 0.667817 0.103081 0.000000
O O14 0.500000 0.100113 0.105966
O O15 0.401962 0.104187 0.163507
O O16 0.422343 0.000000 0.119348
O O17 0.500000 0.136145 0.786033
O O18 0.608657 0.108657 0.750000
#
# Coordination Sequence:
#
# PCOD8319428 Si02
#       6
#    32  32  32  32  32  32
#     4   9  18  30  46  66  88 115 146 183 226 268
#     4   9  18  29  40  57  82 112 146 175 203 248
#     4   9  17  29  44  62  83 110 144 181 220 259
#     4   9  18  31  46  63  82 107 141 180 219 258
#     4   9  18  31  45  63  86 110 139 174 213 260
#     4  10  19  28  42  63  87 115 140 170 212 259
#
# _framework density 14.953042
#
# number of rings (size 3 to 8) (size 9 to 14) (size 15 to 20)
#    0.000    2.833    0.000    1.000    4.667    1.833 
#    0.000    3.333    0.000    0.000    0.000    2.333 
#    0.000    0.000    0.000    0.000    0.000    0.000 
#
# Total GULP energy -1189755.495836 kJ/mol
# GULP energy per Si atom -12393.286415 kJ/mol
# Density = 1.491901 g / cm^3
# Si number density = 14.953042 Si / 1000 Ang^3
#
#
#
# Elastic Constant Matrix: (Units=GPa)
#
#
# Indices 1 2 3 4 5 6 
#
# 1 69.6102 35.6980 49.0772 0.0000 0.0000 0.0000
# 2 35.6980 69.6102 49.0772 0.0000 0.0000 0.0000
# 3 49.0772 49.0772 82.1567 0.0000 0.0000 0.0000
# 4 0.0000 0.0000 0.0000 19.3456 0.0000 0.0000
# 5 0.0000 0.0000 0.0000 0.0000 19.3456 0.0000
# 6 0.0000 0.0000 0.0000 0.0000 0.0000 22.8280
#
#
#
# Elastic Compliance Matrix: (Units=1/GPa)
#
#
# Indices 1 2 3 4 5 6 
#
# 1 0.025456 -0.004031 -0.012798 0.000000 0.000000 0.000000
# 2 -0.004031 0.025456 -0.012798 0.000000 0.000000 0.000000
# 3 -0.012798 -0.012798 0.027462 0.000000 0.000000 0.000000
# 4 0.000000 0.000000 0.000000 0.051691 0.000000 0.000000
# 5 0.000000 0.000000 0.000000 0.000000 0.051691 0.000000
# 6 0.000000 0.000000 0.000000 0.000000 0.000000 0.043806
#
#
# Mechanical properties :
#
#
# Convention : Reuss Voigt Hill
#
# Bulk Modulus (GPa) = 52.30509 54.34245 53.32377
# Shear Modulus (GPa) = 17.17072 18.13881 17.65476
#
# Velocity S-wave (km/s) = 3.39235 3.48667 3.43983
# Velocity P-wave (km/s) = 7.09926 7.25466 7.17738
#
# Compressibility (1/GPa) = 0.01911860
#
# Stress axis : x y z
#
# Youngs Moduli (GPa) = 39.28281 39.28281 36.41337
#
# Poissons Ratio (x) = 0.15837 0.46603
# Poissons Ratio (y) = 0.15837 0.46603
# Poissons Ratio (z) = 0.50276 0.50276
#
# Static dielectric constant tensor:
#      x y z
#    x 3.114990 0.000000 0.000000 
#    y 0.000000 3.114990 0.000000 
#    z 0.000000 0.000000 2.898280 
# 
# 
# High freq. dielectric constant tensor:
#      x y z
#    x 1.565130 0.000000 0.000000 
#    y 0.000000 1.565130 0.000000 
#    z 0.000000 0.000000 1.554600 
# 
# From -- ./inp_files/11924.got.cif
#   From: 2010.03.12/outbox.cif.g09.slc.cpg/sg139_6_cif.got.tgz:11924.got - 2010.04.08 09:46:31.
