data_PCOD8319572
_publ_section_title
;
Structure prediction by ZEFSAII (Michael W. Deem and Ramdas Pophale) SiO2 
 PCOD8319572
Probable space group: I 4/M M M
;
_chemical_formula_sum "Si O2"
_cell_formula_units_Z 112
_cell_length_a 18.299581
_cell_length_b 18.299581
_cell_length_c 18.422826
_cell_angle_alpha 90.000000
_cell_angle_beta 90.000000
_cell_angle_gamma 90.000000
_cell_volume 6169.337681
_symmetry_space_group_name_H-M "I 4/M M M"
_symmetry_group_IT_number 139
_symmetry_cell_setting 'tetragonal'
loop_
_space_group_symop_operation_xyz
x,y,z
-y,x,z
-x,-y,z
y,-x,z
x,-y,-z
-x,y,-z
y,x,-z
-y,-x,-z
-x,-y,-z
y,-x,-z
x,y,-z
-y,x,-z
-x,y,z
x,-y,z
-y,-x,z
y,x,z
1/2+x,1/2+y,1/2+z
1/2-y,1/2+x,1/2+z
1/2-x,1/2-y,1/2+z
1/2+y,1/2-x,1/2+z
1/2+x,1/2-y,1/2-z
1/2-x,1/2+y,1/2-z
1/2+y,1/2+x,1/2-z
1/2-y,1/2-x,1/2-z
1/2-x,1/2-y,1/2-z
1/2+y,1/2-x,1/2-z
1/2+x,1/2+y,1/2-z
1/2-y,1/2+x,1/2-z
1/2-x,1/2+y,1/2+z
1/2+x,1/2-y,1/2+z
1/2-y,1/2-x,1/2+z
1/2+y,1/2+x,1/2+z
loop_
_atom_site_type_symbol
_atom_site_label
_atom_site_fract_x
_atom_site_fract_y
_atom_site_fract_z
Si Si1 0.415873 0.811095 0.709257
Si Si2 0.419708 0.000000 0.585265
Si Si3 0.642626 0.168298 0.915679
Si Si4 0.799490 0.084083 0.336021
O O1 0.500000 0.829246 0.691450
O O2 0.380035 0.880035 0.750000
O O3 0.370308 0.795425 0.634314
O O4 0.409400 0.738648 0.757769
O O5 0.374730 0.929823 0.609537
O O6 0.500000 0.000000 0.621675
O O7 0.428299 0.000000 0.500000
O O8 0.628268 0.252681 0.896427
O O9 0.663543 0.160224 0.000000
O O10 0.879014 0.120987 0.331642
O O11 0.809071 0.000000 0.359959
#
# Coordination Sequence:
#
# PCOD8319572 Si02
#       4
#    32  16  32  32
#     4   9  19  32  48  73 105 138 172 210 253 304
#     4   9  16  26  44  70 101 137 170 200 235 282
#     4  10  19  32  50  75 107 139 172 206 251 310
#     4  10  21  38  56  73  98 132 174 226 273 312
#
# _framework density 18.154298000000001
#
# number of rings (size 3 to 8) (size 9 to 14) (size 15 to 20)
#    0.000    2.429    1.429    0.857    2.000    8.000 
#    0.000    0.000    0.000    0.000    0.000    2.000 
#    0.000    0.000    0.000    6.286    0.000    0.000 
#
# Total GULP energy -694172.640306 kJ/mol
# GULP energy per Si atom -12395.940005 kJ/mol
# Density = 1.811298 g / cm^3
# Si number density = 18.154298 Si / 1000 Ang^3
#
#
#
# Elastic Constant Matrix: (Units=GPa)
#
#
# Indices 1 2 3 4 5 6 
#
# 1 60.6027 38.4442 19.8347 0.0000 0.0000 0.0000
# 2 38.4442 60.6027 19.8347 0.0000 0.0000 0.0000
# 3 19.8347 19.8347 114.5012 0.0000 0.0000 0.0000
# 4 0.0000 0.0000 0.0000 14.5354 0.0000 0.0000
# 5 0.0000 0.0000 0.0000 0.0000 14.5354 0.0000
# 6 0.0000 0.0000 0.0000 0.0000 0.0000 38.4658
#
#
#
# Elastic Compliance Matrix: (Units=1/GPa)
#
#
# Indices 1 2 3 4 5 6 
#
# 1 0.027989 -0.017140 -0.001879 0.000000 0.000000 0.000000
# 2 -0.017140 0.027989 -0.001879 0.000000 0.000000 0.000000
# 3 -0.001879 -0.001879 0.009385 0.000000 0.000000 0.000000
# 4 0.000000 0.000000 0.000000 0.068797 0.000000 0.000000
# 5 0.000000 0.000000 0.000000 0.000000 0.068797 0.000000
# 6 0.000000 0.000000 0.000000 0.000000 0.000000 0.025997
#
#
# Mechanical properties :
#
#
# Convention : Reuss Voigt Hill
#
# Bulk Modulus (GPa) = 42.43552 43.54821 42.99186
# Shear Modulus (GPa) = 17.94639 24.01353 20.97996
#
# Velocity S-wave (km/s) = 3.14753 3.64090 3.40317
# Velocity P-wave (km/s) = 6.05268 6.45870 6.25898
#
# Compressibility (1/GPa) = 0.02356517
#
# Stress axis : x y z
#
# Youngs Moduli (GPa) = 35.72816 35.72816 106.55715
#
# Poissons Ratio (x) = 0.61239 0.20026
# Poissons Ratio (y) = 0.61239 0.20026
# Poissons Ratio (z) = 0.06715 0.06715
#
# Static dielectric constant tensor:
#      x y z
#    x 3.240960 0.000000 0.000000 
#    y 0.000000 3.240960 0.000000 
#    z 0.000000 0.000000 3.421230 
# 
# 
# High freq. dielectric constant tensor:
#      x y z
#    x 1.680770 0.000000 0.000000 
#    y 0.000000 1.680770 0.000000 
#    z 0.000000 0.000000 1.706870 
# 
# From -- ./inp_files/7551.got.cif
#   From: 2010.03.12/outbox.cif.g09.slc.cpg/sg139_4_cif.got.tgz:7551.got - 2010.04.08 09:46:31.
