data_PCOD8319119
_publ_section_title
;
Structure prediction by ZEFSAII (Michael W. Deem and Ramdas Pophale) SiO2 
 PCOD8319119
Probable space group: P 42/N C M
;
_chemical_formula_sum "Si O2"
_cell_formula_units_Z 36
_cell_length_a 11.334685
_cell_length_b 11.334685
_cell_length_c 14.829697
_cell_angle_alpha 90.000000
_cell_angle_beta 90.000000
_cell_angle_gamma 90.000000
_cell_volume 1905.246568
_symmetry_space_group_name_H-M "P 42/N C M"
_symmetry_group_IT_number 138
_space_group.IT_coordinate_system_code '2'
_symmetry_cell_setting 'tetragonal'
loop_
_space_group_symop_operation_xyz
x,y,z
1/2-y,x,1/2+z
1/2-x,1/2-y,z
y,1/2-x,1/2+z
1/2+x,-y,1/2-z
-x,1/2+y,1/2-z
1/2+y,1/2+x,-z
-y,-x,-z
-x,-y,-z
1/2+y,-x,1/2-z
1/2+x,1/2+y,-z
-y,1/2+x,1/2-z
1/2-x,y,1/2+z
x,1/2-y,1/2+z
1/2-y,1/2-x,z
y,x,z
loop_
_atom_site_type_symbol
_atom_site_label
_atom_site_fract_x
_atom_site_fract_y
_atom_site_fract_z
Si Si1 0.574612 0.187561 0.236039
Si Si2 0.750000 0.750000 0.989834
Si Si3 0.435903 0.435903 0.584074
Si Si4 0.342107 0.342107 0.838797
O O1 0.614212 0.320878 0.216785
O O2 0.537184 0.127421 0.142248
O O3 0.472239 0.191633 0.309267
O O4 0.836331 0.663669 0.934591
O O5 0.832916 0.832916 0.052721
O O6 0.500000 0.500000 0.500000
O O7 0.250000 0.250000 0.792907
#
# Coordination Sequence:
#
# PCOD8319119 Si02
#       4
#    16   4   8   8
#     4  10  22  39  62  88 118 161 206 246 304 378
#     4  10  22  36  56  92 114 164 198 250 320 356
#     4  11  23  39  64  90 129 158 203 267 316 362
#     4   9  21  37  62  79 124 156 208 241 308 371
#
# _framework density 18.895191000000001
#
# number of rings (size 3 to 8) (size 9 to 14) (size 15 to 20)
#    0.667    1.333    0.000    2.667   12.444    0.000 
#    0.000   17.778    0.000    0.000    0.000    0.000 
#    0.000    0.000    0.000    0.000    0.000    0.000 
#
# Total GULP energy -446187.825364 kJ/mol
# GULP energy per Si atom -12394.106260 kJ/mol
# Density = 1.885218 g / cm^3
# Si number density = 18.895191 Si / 1000 Ang^3
#
#
#
# Elastic Constant Matrix: (Units=GPa)
#
#
# Indices 1 2 3 4 5 6 
#
# 1 141.8614 77.5840 48.6447 0.0000 0.0000 0.0000
# 2 77.5840 141.8614 48.6447 0.0000 0.0000 0.0000
# 3 48.6447 48.6447 100.5987 0.0000 0.0000 0.0000
# 4 0.0000 0.0000 0.0000 28.3294 0.0000 0.0000
# 5 0.0000 0.0000 0.0000 0.0000 28.3294 0.0000
# 6 0.0000 0.0000 0.0000 0.0000 0.0000 39.2208
#
#
#
# Elastic Compliance Matrix: (Units=1/GPa)
#
#
# Indices 1 2 3 4 5 6 
#
# 1 0.010679 -0.004879 -0.002805 0.000000 0.000000 0.000000
# 2 -0.004879 0.010679 -0.002805 0.000000 0.000000 0.000000
# 3 -0.002805 -0.002805 0.012653 0.000000 0.000000 0.000000
# 4 0.000000 0.000000 0.000000 0.035299 0.000000 0.000000
# 5 0.000000 0.000000 0.000000 0.000000 0.035299 0.000000
# 6 0.000000 0.000000 0.000000 0.000000 0.000000 0.025497
#
#
# Mechanical properties :
#
#
# Convention : Reuss Voigt Hill
#
# Bulk Modulus (GPa) = 76.71856 81.56312 79.14084
# Shear Modulus (GPa) = 32.16942 33.13911 32.65426
#
# Velocity S-wave (km/s) = 4.13064 4.19243 4.16165
# Velocity P-wave (km/s) = 7.96491 8.16670 8.06644
#
# Compressibility (1/GPa) = 0.01303466
#
# Stress axis : x y z
#
# Youngs Moduli (GPa) = 93.64177 93.64177 79.03249
#
# Poissons Ratio (x) = 0.45684 0.22167
# Poissons Ratio (y) = 0.45684 0.22167
# Poissons Ratio (z) = 0.26265 0.26265
#
# Static dielectric constant tensor:
#      x y z
#    x 3.649860 0.000000 0.000000 
#    y 0.000000 3.649860 0.000000 
#    z 0.000000 0.000000 3.272460 
# 
# 
# High freq. dielectric constant tensor:
#      x y z
#    x 1.748710 0.000000 0.000000 
#    y 0.000000 1.748710 0.000000 
#    z 0.000000 0.000000 1.716890 
# 
# From -- ./inp_files/2197.got.cif
#   From: 2010.03.12/outbox.cif.g09.slc.cpg/sg138_2_cif.got.tgz:2197.got - 2010.04.08 09:41:05.
