data_PCOD8319159
_publ_section_title
;
Structure prediction by ZEFSAII (Michael W. Deem and Ramdas Pophale) SiO2 
 PCOD8319159
Probable space group: P 42/N C M
;
_chemical_formula_sum "Si O2"
_cell_formula_units_Z 48
_cell_length_a 19.322168
_cell_length_b 19.322168
_cell_length_c 4.838871
_cell_angle_alpha 90.000000
_cell_angle_beta 90.000000
_cell_angle_gamma 90.000000
_cell_volume 1806.573985
_symmetry_space_group_name_H-M "P 42/N C M"
_symmetry_group_IT_number 138
_space_group.IT_coordinate_system_code '2'
_symmetry_cell_setting 'tetragonal'
loop_
_space_group_symop_operation_xyz
x,y,z
1/2-y,x,1/2+z
1/2-x,1/2-y,z
y,1/2-x,1/2+z
1/2+x,-y,1/2-z
-x,1/2+y,1/2-z
1/2+y,1/2+x,-z
-y,-x,-z
-x,-y,-z
1/2+y,-x,1/2-z
1/2+x,1/2+y,-z
-y,1/2+x,1/2-z
1/2-x,y,1/2+z
x,1/2-y,1/2+z
1/2-y,1/2-x,z
y,x,z
loop_
_atom_site_type_symbol
_atom_site_label
_atom_site_fract_x
_atom_site_fract_y
_atom_site_fract_z
Si Si1 0.406865 0.702243 0.475126
Si Si2 0.008828 0.897407 0.825938
Si Si3 0.796091 0.906012 0.094740
O O1 0.329948 0.670053 0.500000
O O2 0.417228 0.770579 0.664488
O O3 0.463204 0.643754 0.558339
O O4 0.968219 0.847624 0.033333
O O5 0.073622 0.926379 0.000000
O O6 0.959306 0.959306 0.716775
O O7 0.726462 0.911719 0.913356
O O8 0.832570 0.832570 0.039515
#
# Coordination Sequence:
#
# PCOD8319159 Si02
#       3
#    16  16  16
#     4  12  26  46  72 102 139 184 233 289 351 418
#     4  10  23  45  73 106 144 186 236 294 357 424
#     4  11  24  43  69 101 140 185 232 286 345 412
#
# _framework density 26.569628000000002
#
# number of rings (size 3 to 8) (size 9 to 14) (size 15 to 20)
#    0.000    1.000    0.000    6.000    0.000    7.333 
#    0.000   11.667    0.000    0.000    0.000    0.000 
#    0.000    0.000    0.000    0.000    0.000    0.000 
#
# Total GULP energy -595610.705826 kJ/mol
# GULP energy per Si atom -12408.556371 kJ/mol
# Density = 2.650915 g / cm^3
# Si number density = 26.569628 Si / 1000 Ang^3
#
#
#
# Elastic Constant Matrix: (Units=GPa)
#
#
# Indices 1 2 3 4 5 6 
#
# 1 120.5286 57.8030 17.8368 0.0000 0.0000 0.0000
# 2 57.8030 120.5285 17.8322 0.0000 0.0000 0.0000
# 3 17.8368 17.8322 73.0032 0.0000 0.0000 0.0000
# 4 0.0000 0.0000 0.0000 29.8652 0.0000 0.0000
# 5 0.0000 0.0000 0.0000 0.0000 29.8660 0.0000
# 6 0.0000 0.0000 0.0000 0.0000 0.0000 61.7862
#
#
#
# Elastic Compliance Matrix: (Units=1/GPa)
#
#
# Indices 1 2 3 4 5 6 
#
# 1 0.010919 -0.005023 -0.001441 0.000000 0.000000 0.000000
# 2 -0.005023 0.010919 -0.001440 0.000000 0.000000 0.000000
# 3 -0.001441 -0.001440 0.014402 0.000000 0.000000 0.000000
# 4 0.000000 0.000000 0.000000 0.033484 0.000000 0.000000
# 5 0.000000 0.000000 0.000000 0.000000 0.033483 0.000000
# 6 0.000000 0.000000 0.000000 0.000000 0.000000 0.016185
#
#
# Mechanical properties :
#
#
# Convention : Reuss Voigt Hill
#
# Bulk Modulus (GPa) = 48.94323 55.66714 52.30519
# Shear Modulus (GPa) = 35.20878 39.00935 37.10906
#
# Velocity S-wave (km/s) = 3.64421 3.83586 3.74126
# Velocity P-wave (km/s) = 6.01396 6.37301 6.19609
#
# Compressibility (1/GPa) = 0.02043184
#
# Stress axis : x y z
#
# Youngs Moduli (GPa) = 91.58230 91.58393 69.43602
#
# Poissons Ratio (x) = 0.46007 0.10004
# Poissons Ratio (y) = 0.46006 0.09997
# Poissons Ratio (z) = 0.13195 0.13186
#
# Static dielectric constant tensor:
#      x y z
#    x 5.033360 0.000000 0.000000 
#    y 0.000000 5.033360 0.000000 
#    z 0.000000 0.000000 4.425340 
# 
# 
# High freq. dielectric constant tensor:
#      x y z
#    x 2.080340 0.000000 0.000000 
#    y 0.000000 2.080340 0.000000 
#    z 0.000000 0.000000 2.061170 
# 
# From -- ./inp_files/255.got.cif
#   From: 2010.03.12/outbox.cif.g09.slc.cpg/sg138_1_cif.got.tgz:255.got - 2010.04.08 09:41:05.
