data_PCOD8319327
_publ_section_title
;
Structure prediction by ZEFSAII (Michael W. Deem and Ramdas Pophale) SiO2 
 PCOD8319327
Probable space group: I 4/M M M
;
_chemical_formula_sum "Si O2"
_cell_formula_units_Z 160
_cell_length_a 18.190916
_cell_length_b 18.190916
_cell_length_c 28.924511
_cell_angle_alpha 90.000000
_cell_angle_beta 90.000000
_cell_angle_gamma 90.000000
_cell_volume 9571.393301
_symmetry_space_group_name_H-M "I 4/M M M"
_symmetry_group_IT_number 139
_symmetry_cell_setting 'tetragonal'
loop_
_space_group_symop_operation_xyz
x,y,z
-y,x,z
-x,-y,z
y,-x,z
x,-y,-z
-x,y,-z
y,x,-z
-y,-x,-z
-x,-y,-z
y,-x,-z
x,y,-z
-y,x,-z
-x,y,z
x,-y,z
-y,-x,z
y,x,z
1/2+x,1/2+y,1/2+z
1/2-y,1/2+x,1/2+z
1/2-x,1/2-y,1/2+z
1/2+y,1/2-x,1/2+z
1/2+x,1/2-y,1/2-z
1/2-x,1/2+y,1/2-z
1/2+y,1/2+x,1/2-z
1/2-y,1/2-x,1/2-z
1/2-x,1/2-y,1/2-z
1/2+y,1/2-x,1/2-z
1/2+x,1/2+y,1/2-z
1/2-y,1/2+x,1/2-z
1/2-x,1/2+y,1/2+z
1/2+x,1/2-y,1/2+z
1/2-y,1/2-x,1/2+z
1/2+y,1/2+x,1/2+z
loop_
_atom_site_type_symbol
_atom_site_label
_atom_site_fract_x
_atom_site_fract_y
_atom_site_fract_z
Si Si1 0.767052 0.351262 0.100625
Si Si2 0.803004 0.082643 0.685940
Si Si3 0.500000 0.788317 0.054527
Si Si4 0.582772 0.160035 0.637535
Si Si5 0.000000 0.580636 0.378766
Si Si6 0.138997 0.257787 0.776426
O O1 0.714403 0.285598 0.082764
O O2 0.752833 0.369153 0.154848
O O3 0.748506 0.424357 0.070733
O O4 0.853004 0.324881 0.099049
O O5 0.884767 0.115234 0.679341
O O6 0.781804 0.085679 0.739785
O O7 0.802242 0.000000 0.667554
O O8 0.500000 0.868725 0.076333
O O9 0.500000 0.793685 0.000000
O O10 0.500000 0.173018 0.617253
O O11 0.592561 0.073545 0.652123
O O12 0.591050 0.213560 0.681038
O O13 0.000000 0.500000 0.400527
O O14 0.201604 0.201604 0.794597
O O15 0.174279 0.325722 0.750000
#
# Coordination Sequence:
#
# PCOD8319327 Si02
#       6
#    32  32  16  32  16  32
#     4  10  19  33  51  69  95 127 157 197 248 296
#     4  10  19  31  47  65  87 121 162 201 241 288
#     4  10  20  33  52  75  94 120 159 197 242 300
#     4  10  18  30  45  66  95 126 159 200 236 281
#     4   8  18  33  48  66  97 127 160 196 235 283
#     4  10  18  28  43  64  90 123 164 201 239 289
#
# _framework density 16.716480000000001
#
# number of rings (size 3 to 8) (size 9 to 14) (size 15 to 20)
#    0.000    2.200    3.000    1.200    0.000    0.800 
#    1.800    0.000    0.000    0.300    0.000    0.700 
#    0.000    3.600    0.000    0.000    0.000    0.000 
#
# Total GULP energy -991231.247589 kJ/mol
# GULP energy per Si atom -12390.390595 kJ/mol
# Density = 1.667843 g / cm^3
# Si number density = 16.716480 Si / 1000 Ang^3
#
#
#
# Elastic Constant Matrix: (Units=GPa)
#
#
# Indices 1 2 3 4 5 6 
#
# 1 92.7597 45.7792 20.5661 0.0000 0.0000 0.0000
# 2 45.7792 92.7584 20.5658 0.0000 0.0000 0.0000
# 3 20.5661 20.5658 60.2029 0.0000 0.0000 0.0000
# 4 0.0000 0.0000 0.0000 11.8800 0.0000 0.0000
# 5 0.0000 0.0000 0.0000 0.0000 11.8802 0.0000
# 6 0.0000 0.0000 0.0000 0.0000 0.0000 21.9173
#
#
#
# Elastic Compliance Matrix: (Units=1/GPa)
#
#
# Indices 1 2 3 4 5 6 
#
# 1 0.014659 -0.006626 -0.002744 0.000000 0.000000 0.000000
# 2 -0.006626 0.014659 -0.002744 0.000000 0.000000 0.000000
# 3 -0.002744 -0.002744 0.018485 0.000000 0.000000 0.000000
# 4 0.000000 0.000000 0.000000 0.084175 0.000000 0.000000
# 5 0.000000 0.000000 0.000000 0.000000 0.084174 0.000000
# 6 0.000000 0.000000 0.000000 0.000000 0.000000 0.045626
#
#
# Mechanical properties :
#
#
# Convention : Reuss Voigt Hill
#
# Bulk Modulus (GPa) = 42.41837 46.61591 44.51714
# Shear Modulus (GPa) = 17.01454 19.72284 18.36869
#
# Velocity S-wave (km/s) = 3.19381 3.43861 3.31847
# Velocity P-wave (km/s) = 6.24746 6.61152 6.43207
#
# Compressibility (1/GPa) = 0.02357469
#
# Stress axis : x y z
#
# Youngs Moduli (GPa) = 68.21636 68.21550 54.09694
#
# Poissons Ratio (x) = 0.45202 0.14845
# Poissons Ratio (y) = 0.45203 0.14845
# Poissons Ratio (z) = 0.18720 0.18719
#
# Static dielectric constant tensor:
#      x y z
#    x 3.263600 0.000000 0.000000 
#    y 0.000000 3.263600 0.000000 
#    z 0.000000 0.000000 2.720650 
# 
# 
# High freq. dielectric constant tensor:
#      x y z
#    x 1.644490 0.000000 0.000000 
#    y 0.000000 1.644490 0.000000 
#    z 0.000000 0.000000 1.594810 
# 
# From -- ./inp_files/12964.got.cif
#   From: 2010.03.12/outbox.cif.g09.slc.cpg/sg139_7_cif.got.tgz:12964.got - 2010.04.08 09:46:31.
