data_PCOD8319208
_publ_section_title
;
Structure prediction by ZEFSAII (Michael W. Deem and Ramdas Pophale) SiO2 
 PCOD8319208
Probable space group: P 42/N C M
;
_chemical_formula_sum "Si O2"
_cell_formula_units_Z 48
_cell_length_a 8.645417
_cell_length_b 8.645417
_cell_length_c 31.808930
_cell_angle_alpha 90.000000
_cell_angle_beta 90.000000
_cell_angle_gamma 90.000000
_cell_volume 2377.502333
_symmetry_space_group_name_H-M "P 42/N C M"
_symmetry_group_IT_number 138
_space_group.IT_coordinate_system_code '2'
_symmetry_cell_setting 'tetragonal'
loop_
_space_group_symop_operation_xyz
x,y,z
1/2-y,x,1/2+z
1/2-x,1/2-y,z
y,1/2-x,1/2+z
1/2+x,-y,1/2-z
-x,1/2+y,1/2-z
1/2+y,1/2+x,-z
-y,-x,-z
-x,-y,-z
1/2+y,-x,1/2-z
1/2+x,1/2+y,-z
-y,1/2+x,1/2-z
1/2-x,y,1/2+z
x,1/2-y,1/2+z
1/2-y,1/2-x,z
y,x,z
loop_
_atom_site_type_symbol
_atom_site_label
_atom_site_fract_x
_atom_site_fract_y
_atom_site_fract_z
Si Si1 0.070586 0.429415 0.860032
Si Si2 0.061517 0.061517 0.043795
Si Si3 0.426482 0.426482 0.874773
Si Si4 0.633894 0.866107 0.921642
Si Si5 0.072459 0.427542 0.218642
Si Si6 0.572225 0.927776 0.296897
O O1 0.248541 0.466959 0.867283
O O2 0.969189 0.530812 0.891815
O O3 0.031366 0.468635 0.812094
O O4 0.248290 0.031160 0.049259
O O5 0.965452 0.965452 0.077660
O O6 0.000000 0.000000 0.000000
O O7 0.531260 0.531260 0.844648
O O8 0.750000 0.750000 0.894608
O O9 0.032975 0.249855 0.210950
O O10 0.032438 0.467563 0.266508
#
# Coordination Sequence:
#
# PCOD8319208 Si02
#       6
#     8   8   8   8   8   8
#     4  11  23  40  61  93 124 163 201 254 305 369
#     4   9  20  41  64  90 122 157 203 253 306 368
#     4  11  24  39  62  90 126 158 207 252 308 367
#     4   8  21  39  63  87 122 152 205 242 306 359
#     4  11  24  39  62  86 126 156 211 249 306 369
#     4  11  24  41  60  92 119 166 202 259 305 364
#
# _framework density 20.189253999999998
#
# number of rings (size 3 to 8) (size 9 to 14) (size 15 to 20)
#    1.000    0.667    0.000    4.000    2.333   14.000 
#    0.000    5.000    0.000    0.000    0.000    0.000 
#    0.000    0.000    0.000    0.000    0.000    0.000 
#
# Total GULP energy -595017.059961 kJ/mol
# GULP energy per Si atom -12396.188749 kJ/mol
# Density = 2.014330 g / cm^3
# Si number density = 20.189254 Si / 1000 Ang^3
#
#
#
# Elastic Constant Matrix: (Units=GPa)
#
#
# Indices 1 2 3 4 5 6 
#
# 1 85.9384 69.5176 42.2635 0.0000 0.0000 0.0000
# 2 69.5176 85.9384 42.2635 0.0000 0.0000 0.0000
# 3 42.2635 42.2635 128.6535 0.0000 0.0000 0.0000
# 4 0.0000 0.0000 0.0000 23.4168 0.0000 0.0000
# 5 0.0000 0.0000 0.0000 0.0000 23.4168 0.0000
# 6 0.0000 0.0000 0.0000 0.0000 0.0000 35.2234
#
#
#
# Elastic Compliance Matrix: (Units=1/GPa)
#
#
# Indices 1 2 3 4 5 6 
#
# 1 0.034365 -0.026533 -0.002573 0.000000 0.000000 0.000000
# 2 -0.026533 0.034365 -0.002573 0.000000 0.000000 0.000000
# 3 -0.002573 -0.002573 0.009463 0.000000 0.000000 0.000000
# 4 0.000000 0.000000 0.000000 0.042704 0.000000 0.000000
# 5 0.000000 0.000000 0.000000 0.000000 0.042704 0.000000
# 6 0.000000 0.000000 0.000000 0.000000 0.000000 0.028390
#
#
# Mechanical properties :
#
#
# Convention : Reuss Voigt Hill
#
# Bulk Modulus (GPa) = 67.40639 67.62436 67.51537
# Shear Modulus (GPa) = 19.20900 26.17712 22.69306
#
# Velocity S-wave (km/s) = 3.08790 3.60472 3.35627
# Velocity P-wave (km/s) = 6.79509 7.13395 6.96658
#
# Compressibility (1/GPa) = 0.01483539
#
# Stress axis : x y z
#
# Youngs Moduli (GPa) = 29.09941 29.09941 105.67333
#
# Poissons Ratio (x) = 0.77211 0.27187
# Poissons Ratio (y) = 0.77211 0.27187
# Poissons Ratio (z) = 0.07486 0.07486
#
# Static dielectric constant tensor:
#      x y z
#    x 3.707740 0.000000 0.000000 
#    y 0.000000 3.707740 0.000000 
#    z 0.000000 0.000000 3.457110 
# 
# 
# High freq. dielectric constant tensor:
#      x y z
#    x 1.794330 0.000000 0.000000 
#    y 0.000000 1.794330 0.000000 
#    z 0.000000 0.000000 1.781720 
# 
# From -- ./inp_files/7754.got.cif
#   From: 2010.03.12/outbox.cif.g09.slc.cpg/sg138_4_cif.got.tgz:7754.got - 2010.04.08 09:41:05.
