data_PCOD8319485
_publ_section_title
;
Structure prediction by ZEFSAII (Michael W. Deem and Ramdas Pophale) SiO2 
 PCOD8319485
Probable space group: I 4/M M M
;
_chemical_formula_sum "Si O2"
_cell_formula_units_Z 160
_cell_length_a 18.718697
_cell_length_b 18.718697
_cell_length_c 27.384049
_cell_angle_alpha 90.000000
_cell_angle_beta 90.000000
_cell_angle_gamma 90.000000
_cell_volume 9595.086451
_symmetry_space_group_name_H-M "I 4/M M M"
_symmetry_group_IT_number 139
_symmetry_cell_setting 'tetragonal'
loop_
_space_group_symop_operation_xyz
x,y,z
-y,x,z
-x,-y,z
y,-x,z
x,-y,-z
-x,y,-z
y,x,-z
-y,-x,-z
-x,-y,-z
y,-x,-z
x,y,-z
-y,x,-z
-x,y,z
x,-y,z
-y,-x,z
y,x,z
1/2+x,1/2+y,1/2+z
1/2-y,1/2+x,1/2+z
1/2-x,1/2-y,1/2+z
1/2+y,1/2-x,1/2+z
1/2+x,1/2-y,1/2-z
1/2-x,1/2+y,1/2-z
1/2+y,1/2+x,1/2-z
1/2-y,1/2-x,1/2-z
1/2-x,1/2-y,1/2-z
1/2+y,1/2-x,1/2-z
1/2+x,1/2+y,1/2-z
1/2-y,1/2+x,1/2-z
1/2-x,1/2+y,1/2+z
1/2+x,1/2-y,1/2+z
1/2-y,1/2-x,1/2+z
1/2+y,1/2+x,1/2+z
loop_
_atom_site_type_symbol
_atom_site_label
_atom_site_fract_x
_atom_site_fract_y
_atom_site_fract_z
Si Si1 0.691939 0.420875 0.554932
Si Si2 0.202133 0.682881 0.193488
Si Si3 0.167962 0.418142 0.616992
Si Si4 0.811899 0.416419 0.054562
Si Si5 0.299976 0.584508 0.135972
O O1 0.716565 0.401172 0.500000
O O2 0.659427 0.500000 0.556374
O O3 0.631112 0.368889 0.574432
O O4 0.757166 0.413820 0.590704
O O5 0.244522 0.755479 0.178418
O O6 0.183223 0.683223 0.250000
O O7 0.126533 0.675432 0.166584
O O8 0.252782 0.615124 0.180808
O O9 0.145919 0.500000 0.628790
O O10 0.110436 0.383590 0.580771
O O11 0.820548 0.500000 0.050976
O O12 0.741604 0.396476 0.085792
O O13 0.804078 0.383515 0.000000
O O14 0.311458 0.500000 0.143166
O O15 0.377227 0.622773 0.134001
#
# Coordination Sequence:
#
# PCOD8319485 Si02
#       5
#    32  32  32  32  32
#     4   9  17  28  42  62  89 119 149 181 217 259
#     4   9  18  33  51  69  91 122 159 196 237 287
#     4  10  19  30  46  69  93 116 149 193 236 277
#     4   9  18  32  48  66  92 126 158 187 224 274
#     4   9  18  32  50  73  99 126 159 198 239 286
#
# _framework density 16.675201000000001
#
# number of rings (size 3 to 8) (size 9 to 14) (size 15 to 20)
#    0.000    2.800    0.000    1.200    0.000    4.000 
#    0.000    2.000    0.000    0.000    0.000    5.600 
#    0.000    4.800    0.000    0.000    0.000    0.000 
#
# Total GULP energy -991688.889177 kJ/mol
# GULP energy per Si atom -12396.111115 kJ/mol
# Density = 1.663725 g / cm^3
# Si number density = 16.675201 Si / 1000 Ang^3
#
#
#
# Elastic Constant Matrix: (Units=GPa)
#
#
# Indices 1 2 3 4 5 6 
#
# 1 93.8741 48.3591 44.7498 0.0000 0.0000 0.0000
# 2 48.3591 93.8741 44.7498 0.0000 0.0000 0.0000
# 3 44.7498 44.7498 105.6177 0.0000 0.0000 0.0000
# 4 0.0000 0.0000 0.0000 18.8421 0.0000 0.0000
# 5 0.0000 0.0000 0.0000 0.0000 18.8421 0.0000
# 6 0.0000 0.0000 0.0000 0.0000 0.0000 26.6594
#
#
#
# Elastic Compliance Matrix: (Units=1/GPa)
#
#
# Indices 1 2 3 4 5 6 
#
# 1 0.015779 -0.006192 -0.004062 0.000000 0.000000 0.000000
# 2 -0.006192 0.015779 -0.004062 0.000000 0.000000 0.000000
# 3 -0.004062 -0.004062 0.012910 0.000000 0.000000 0.000000
# 4 0.000000 0.000000 0.000000 0.053073 0.000000 0.000000
# 5 0.000000 0.000000 0.000000 0.000000 0.053073 0.000000
# 6 0.000000 0.000000 0.000000 0.000000 0.000000 0.037510
#
#
# Mechanical properties :
#
#
# Convention : Reuss Voigt Hill
#
# Bulk Modulus (GPa) = 63.14721 63.23149 63.18935
# Shear Modulus (GPa) = 22.51917 23.23585 22.87751
#
# Velocity S-wave (km/s) = 3.67885 3.73693 3.70800
# Velocity P-wave (km/s) = 7.48307 7.52471 7.50392
#
# Compressibility (1/GPa) = 0.01583601
#
# Stress axis : x y z
#
# Youngs Moduli (GPa) = 63.37659 63.37659 77.45906
#
# Poissons Ratio (x) = 0.39244 0.31462
# Poissons Ratio (y) = 0.39244 0.31462
# Poissons Ratio (z) = 0.25742 0.25742
#
# Static dielectric constant tensor:
#      x y z
#    x 3.221560 0.000000 0.000000 
#    y 0.000000 3.221560 0.000000 
#    z 0.000000 0.000000 3.179670 
# 
# 
# High freq. dielectric constant tensor:
#      x y z
#    x 1.640910 0.000000 0.000000 
#    y 0.000000 1.640910 0.000000 
#    z 0.000000 0.000000 1.636360 
# 
# From -- ./inp_files/12904.got.cif
#   From: 2010.03.12/outbox.cif.g09.slc.cpg/sg139_7_cif.got.tgz:12904.got - 2010.04.08 09:46:31.
