data_PCOD8319259
_publ_section_title
;
Structure prediction by ZEFSAII (Michael W. Deem and Ramdas Pophale) SiO2 
 PCOD8319259
Probable space group: I 4/M M M
;
_chemical_formula_sum "Si O2"
_cell_formula_units_Z 160
_cell_length_a 29.399399
_cell_length_b 29.399399
_cell_length_c 10.214440
_cell_angle_alpha 90.000000
_cell_angle_beta 90.000000
_cell_angle_gamma 90.000000
_cell_volume 8828.592396
_symmetry_space_group_name_H-M "I 4/M M M"
_symmetry_group_IT_number 139
_symmetry_cell_setting 'tetragonal'
loop_
_space_group_symop_operation_xyz
x,y,z
-y,x,z
-x,-y,z
y,-x,z
x,-y,-z
-x,y,-z
y,x,-z
-y,-x,-z
-x,-y,-z
y,-x,-z
x,y,-z
-y,x,-z
-x,y,z
x,-y,z
-y,-x,z
y,x,z
1/2+x,1/2+y,1/2+z
1/2-y,1/2+x,1/2+z
1/2-x,1/2-y,1/2+z
1/2+y,1/2-x,1/2+z
1/2+x,1/2-y,1/2-z
1/2-x,1/2+y,1/2-z
1/2+y,1/2+x,1/2-z
1/2-y,1/2-x,1/2-z
1/2-x,1/2-y,1/2-z
1/2+y,1/2-x,1/2-z
1/2+x,1/2+y,1/2-z
1/2-y,1/2+x,1/2-z
1/2-x,1/2+y,1/2+z
1/2+x,1/2-y,1/2+z
1/2-y,1/2-x,1/2+z
1/2+y,1/2+x,1/2+z
loop_
_atom_site_type_symbol
_atom_site_label
_atom_site_fract_x
_atom_site_fract_y
_atom_site_fract_z
Si Si1 0.398022 0.812408 0.000000
Si Si2 0.719432 0.352075 0.000000
Si Si3 0.707363 0.946347 0.767977
Si Si4 0.106206 0.204175 0.224640
Si Si5 0.673475 0.885825 0.000000
Si Si6 0.447464 0.552537 0.861273
Si Si7 0.261139 0.331338 0.500000
Si Si8 0.396006 0.603995 0.647792
O O1 0.430458 0.807973 0.875072
O O2 0.375950 0.862561 0.000000
O O3 0.357451 0.774337 0.000000
O O4 0.699828 0.377200 0.873175
O O5 0.700400 0.299601 0.000000
O O6 0.760729 0.935732 0.788667
O O7 0.698690 0.000000 0.786387
O O8 0.678520 0.917656 0.873210
O O9 0.089860 0.155576 0.177026
O O10 0.147468 0.218943 0.132193
O O11 0.707544 0.842041 0.000000
O O12 0.436703 0.500000 0.857163
O O13 0.426887 0.573114 0.733863
O O14 0.427853 0.572148 0.000000
O O15 0.277901 0.277901 0.500000
O O16 0.407617 0.592384 0.500000
#
# Coordination Sequence:
#
# PCOD8319259 Si02
#       8
#    16  16  32  32  16  16  16  16
#     4  10  21  36  54  81 113 142 184 240 275 314
#     4  10  18  30  50  73 106 150 189 218 265 311
#     4  10  21  37  56  78 112 152 185 224 278 335
#     4  10  19  31  50  75 109 147 182 224 266 316
#     4  10  21  34  56  83 109 142 188 236 267 326
#     4   9  22  44  60  72  96 129 169 228 297 355
#     4  10  16  32  50  71 108 152 179 210 271 315
#     4  12  21  33  57  84 109 140 179 236 284 330
#
# _framework density 18.122933
#
# number of rings (size 3 to 8) (size 9 to 14) (size 15 to 20)
#    0.000    1.900    3.000    1.500    1.400    1.600 
#    0.000    0.500    0.000    7.200    0.000    0.000 
#    0.000   28.000    0.000    0.000    0.000    0.000 
#
# Total GULP energy -991459.720775 kJ/mol
# GULP energy per Si atom -12393.246510 kJ/mol
# Density = 1.808168 g / cm^3
# Si number density = 18.122933 Si / 1000 Ang^3
#
#
#
# Elastic Constant Matrix: (Units=GPa)
#
#
# Indices 1 2 3 4 5 6 
#
# 1 79.9653 51.0627 34.3400 0.0000 0.0000 0.0000
# 2 51.0627 79.9658 34.3398 0.0000 0.0000 0.0000
# 3 34.3400 34.3398 149.4836 0.0000 0.0000 0.0000
# 4 0.0000 0.0000 0.0000 23.2907 0.0000 0.0000
# 5 0.0000 0.0000 0.0000 0.0000 23.2920 0.0000
# 6 0.0000 0.0000 0.0000 0.0000 0.0000 27.0709
#
#
#
# Elastic Compliance Matrix: (Units=1/GPa)
#
#
# Indices 1 2 3 4 5 6 
#
# 1 0.021638 -0.012961 -0.001993 0.000000 0.000000 0.000000
# 2 -0.012961 0.021638 -0.001993 0.000000 0.000000 0.000000
# 3 -0.001993 -0.001993 0.007605 0.000000 0.000000 0.000000
# 4 0.000000 0.000000 0.000000 0.042936 0.000000 0.000000
# 5 0.000000 0.000000 0.000000 0.000000 0.042933 0.000000
# 6 0.000000 0.000000 0.000000 0.000000 0.000000 0.036940
#
#
# Mechanical properties :
#
#
# Convention : Reuss Voigt Hill
#
# Bulk Modulus (GPa) = 58.87221 60.98886 59.93054
# Shear Modulus (GPa) = 23.44702 27.37552 25.41127
#
# Velocity S-wave (km/s) = 3.60081 3.89079 3.74861
# Velocity P-wave (km/s) = 7.05997 7.34236 7.20255
#
# Compressibility (1/GPa) = 0.01698594
#
# Stress axis : x y z
#
# Youngs Moduli (GPa) = 46.21548 46.21589 131.48400
#
# Poissons Ratio (x) = 0.59900 0.26209
# Poissons Ratio (y) = 0.59900 0.26207
# Poissons Ratio (z) = 0.09212 0.09212
#
# Static dielectric constant tensor:
#      x y z
#    x 2.772140 0.000000 0.000000 
#    y 0.000000 2.772260 0.000000 
#    z 0.000000 0.000000 3.088730 
# 
# 
# High freq. dielectric constant tensor:
#      x y z
#    x 1.676720 0.000000 0.000000 
#    y 0.000000 1.676720 0.000000 
#    z 0.000000 0.000000 1.731340 
# 
# From -- ./inp_files/2356.got.cif
#   From: 2010.03.12/outbox.cif.g09.slc.cpg/sg139_2_cif.got.tgz:2356.got - 2010.04.08 09:46:31.
