data_PCOD8319569
_publ_section_title
;
Structure prediction by ZEFSAII (Michael W. Deem and Ramdas Pophale) SiO2 
 PCOD8319569
Probable space group: I 4/M M M
;
_chemical_formula_sum "Si O2"
_cell_formula_units_Z 192
_cell_length_a 20.588171
_cell_length_b 20.588171
_cell_length_c 25.761024
_cell_angle_alpha 90.000000
_cell_angle_beta 90.000000
_cell_angle_gamma 90.000000
_cell_volume 10919.396991
_symmetry_space_group_name_H-M "I 4/M M M"
_symmetry_group_IT_number 139
_symmetry_cell_setting 'tetragonal'
loop_
_space_group_symop_operation_xyz
x,y,z
-y,x,z
-x,-y,z
y,-x,z
x,-y,-z
-x,y,-z
y,x,-z
-y,-x,-z
-x,-y,-z
y,-x,-z
x,y,-z
-y,x,-z
-x,y,z
x,-y,z
-y,-x,z
y,x,z
1/2+x,1/2+y,1/2+z
1/2-y,1/2+x,1/2+z
1/2-x,1/2-y,1/2+z
1/2+y,1/2-x,1/2+z
1/2+x,1/2-y,1/2-z
1/2-x,1/2+y,1/2-z
1/2+y,1/2+x,1/2-z
1/2-y,1/2-x,1/2-z
1/2-x,1/2-y,1/2-z
1/2+y,1/2-x,1/2-z
1/2+x,1/2+y,1/2-z
1/2-y,1/2+x,1/2-z
1/2-x,1/2+y,1/2+z
1/2+x,1/2-y,1/2+z
1/2-y,1/2-x,1/2+z
1/2+y,1/2+x,1/2+z
loop_
_atom_site_type_symbol
_atom_site_label
_atom_site_fract_x
_atom_site_fract_y
_atom_site_fract_z
Si Si1 0.424689 0.793797 0.094410
Si Si2 0.576524 0.929792 0.941474
Si Si3 0.426066 0.316340 0.603654
Si Si4 0.626134 0.734577 0.500000
Si Si5 0.746608 0.146115 0.690222
Si Si6 0.858943 0.752305 0.194623
Si Si7 0.338792 0.230489 0.000000
O O1 0.500000 0.786346 0.080232
O O2 0.404090 0.870414 0.096407
O O3 0.411446 0.757473 0.148591
O O4 0.382905 0.758891 0.050351
O O5 0.500000 0.936573 0.942255
O O6 0.605877 0.000000 0.922990
O O7 0.600812 0.913790 0.000000
O O8 0.500000 0.341653 0.606757
O O9 0.378776 0.378776 0.604708
O O10 0.417248 0.274198 0.551443
O O11 0.413797 0.267071 0.651858
O O12 0.680874 0.680874 0.500000
O O13 0.659556 0.805014 0.500000
O O14 0.812929 0.187072 0.684292
O O15 0.740726 0.113249 0.747231
O O16 0.685139 0.191860 0.677845
O O17 0.815323 0.815323 0.198701
O O18 0.285326 0.285326 0.000000
#
# Coordination Sequence:
#
# PCOD8319569 Si02
#       7
#    32  32  32  16  32  32  16
#     4  11  20  30  47  74 102 126 158 202 244 288
#     4   8  14  27  44  59  84 124 159 186 223 271
#     4  10  19  32  50  73 104 135 164 199 239 287
#     4   9  19  34  51  70  91 123 164 204 242 279
#     4   9  17  32  52  72  95 125 162 203 254 300
#     4   8  16  32  53  71  91 126 166 204 244 289
#     4  11  21  34  50  66  93 129 161 198 250 297
#
# _framework density 17.583389
#
# number of rings (size 3 to 8) (size 9 to 14) (size 15 to 20)
#    0.000    2.667    0.833    3.500    0.000    3.500 
#    0.000    4.167    0.000    2.500    0.000    0.000 
#    0.000   13.667    0.000    0.000    0.000    0.000 
#
# Total GULP energy -1189606.053652 kJ/mol
# GULP energy per Si atom -12391.729726 kJ/mol
# Density = 1.754337 g / cm^3
# Si number density = 17.583389 Si / 1000 Ang^3
#
#
#
# Elastic Constant Matrix: (Units=GPa)
#
#
# Indices 1 2 3 4 5 6 
#
# 1 70.2988 27.4531 40.2769 0.0000 0.0000 0.0000
# 2 27.4531 70.2988 40.2769 0.0000 0.0000 0.0000
# 3 40.2769 40.2769 119.7529 0.0000 0.0000 0.0000
# 4 0.0000 0.0000 0.0000 8.8324 0.0000 0.0000
# 5 0.0000 0.0000 0.0000 0.0000 8.8324 0.0000
# 6 0.0000 0.0000 0.0000 0.0000 0.0000 18.3806
#
#
#
# Elastic Compliance Matrix: (Units=1/GPa)
#
#
# Indices 1 2 3 4 5 6 
#
# 1 0.018746 -0.004594 -0.004760 0.000000 0.000000 0.000000
# 2 -0.004594 0.018746 -0.004760 0.000000 0.000000 0.000000
# 3 -0.004760 -0.004760 0.011552 0.000000 0.000000 0.000000
# 4 0.000000 0.000000 0.000000 0.113219 0.000000 0.000000
# 5 0.000000 0.000000 0.000000 0.000000 0.113219 0.000000
# 6 0.000000 0.000000 0.000000 0.000000 0.000000 0.054405
#
#
# Mechanical properties :
#
#
# Convention : Reuss Voigt Hill
#
# Bulk Modulus (GPa) = 48.03638 52.92934 50.48286
# Shear Modulus (GPa) = 13.69660 17.36533 15.53096
#
# Velocity S-wave (km/s) = 2.79400 3.14602 2.97522
# Velocity P-wave (km/s) = 6.14712 6.58512 6.36988
#
# Compressibility (1/GPa) = 0.02081755
#
# Stress axis : x y z
#
# Youngs Moduli (GPa) = 53.34464 53.34464 86.56218
#
# Poissons Ratio (x) = 0.24504 0.41203
# Poissons Ratio (y) = 0.24504 0.41203
# Poissons Ratio (z) = 0.25392 0.25392
#
# Static dielectric constant tensor:
#      x y z
#    x 3.115810 0.000000 0.000000 
#    y 0.000000 3.115810 0.000000 
#    z 0.000000 0.000000 3.491190 
# 
# 
# High freq. dielectric constant tensor:
#      x y z
#    x 1.660630 0.000000 0.000000 
#    y 0.000000 1.660630 0.000000 
#    z 0.000000 0.000000 1.680320 
# 
# From -- ./inp_files/13319.got.cif
#   From: 2010.03.12/outbox.cif.g09.slc.cpg/sg139_7_cif.got.tgz:13319.got - 2010.04.08 09:46:31.
