data_PCOD8319203
_publ_section_title
;
Structure prediction by ZEFSAII (Michael W. Deem and Ramdas Pophale) SiO2 
 PCOD8319203
Probable space group: P 42/N C M
;
_chemical_formula_sum "Si O2"
_cell_formula_units_Z 52
_cell_length_a 10.589167
_cell_length_b 10.589167
_cell_length_c 20.829178
_cell_angle_alpha 90.000000
_cell_angle_beta 90.000000
_cell_angle_gamma 90.000000
_cell_volume 2335.585264
_symmetry_space_group_name_H-M "P 42/N C M"
_symmetry_group_IT_number 138
_space_group.IT_coordinate_system_code '2'
_symmetry_cell_setting 'tetragonal'
loop_
_space_group_symop_operation_xyz
x,y,z
1/2-y,x,1/2+z
1/2-x,1/2-y,z
y,1/2-x,1/2+z
1/2+x,-y,1/2-z
-x,1/2+y,1/2-z
1/2+y,1/2+x,-z
-y,-x,-z
-x,-y,-z
1/2+y,-x,1/2-z
1/2+x,1/2+y,-z
-y,1/2+x,1/2-z
1/2-x,y,1/2+z
x,1/2-y,1/2+z
1/2-y,1/2-x,z
y,x,z
loop_
_atom_site_type_symbol
_atom_site_label
_atom_site_fract_x
_atom_site_fract_y
_atom_site_fract_z
Si Si1 0.882577 0.420432 0.592040
Si Si2 0.202569 0.501016 0.169062
Si Si3 0.503342 0.699189 0.694222
Si Si4 0.750000 0.250000 0.500000
O O1 0.827677 0.487963 0.654933
O O2 0.766405 0.375650 0.545055
O O3 0.977047 0.522954 0.559203
O O4 0.965186 0.297968 0.611505
O O5 0.111162 0.388839 0.144599
O O6 0.276089 0.457731 0.232471
O O7 0.127906 0.625400 0.190237
O O8 0.615812 0.615812 0.663540
#
# Coordination Sequence:
#
# PCOD8319203 Si02
#       4
#    16  16  16   4
#     4  12  25  44  68  92 124 170 216 265 321 375
#     4  11  22  39  66  99 135 168 202 255 322 389
#     4  11  22  39  66  99 135 168 202 255 322 389
#     4  12  26  48  68  86 128 166 226 278 310 370
#
# _framework density 22.264226000000001
#
# number of rings (size 3 to 8) (size 9 to 14) (size 15 to 20)
#    0.000    0.615    6.154    2.308    0.000    4.308 
#    0.000    3.077    0.000    3.692    0.000    0.000 
#    0.000    0.000    0.000    0.000    0.000    0.000 
#
# Total GULP energy -644512.200914 kJ/mol
# GULP energy per Si atom -12394.465402 kJ/mol
# Density = 2.221355 g / cm^3
# Si number density = 22.264226 Si / 1000 Ang^3
#
#
#
# Elastic Constant Matrix: (Units=GPa)
#
#
# Indices 1 2 3 4 5 6 
#
# 1 96.0620 77.5070 27.3258 0.0000 0.0000 0.0000
# 2 77.5070 96.0620 27.3258 0.0000 0.0000 0.0000
# 3 27.3258 27.3258 87.0842 0.0000 0.0000 0.0000
# 4 0.0000 0.0000 0.0000 9.6557 0.0000 0.0000
# 5 0.0000 0.0000 0.0000 0.0000 9.6557 0.0000
# 6 0.0000 0.0000 0.0000 0.0000 0.0000 57.6373
#
#
#
# Elastic Compliance Matrix: (Units=1/GPa)
#
#
# Indices 1 2 3 4 5 6 
#
# 1 0.030143 -0.023750 -0.002006 0.000000 0.000000 0.000000
# 2 -0.023750 0.030143 -0.002006 0.000000 0.000000 0.000000
# 3 -0.002006 -0.002006 0.012742 0.000000 0.000000 0.000000
# 4 0.000000 0.000000 0.000000 0.103566 0.000000 0.000000
# 5 0.000000 0.000000 0.000000 0.000000 0.103566 0.000000
# 6 0.000000 0.000000 0.000000 0.000000 0.000000 0.017350
#
#
# Mechanical properties :
#
#
# Convention : Reuss Voigt Hill
#
# Bulk Modulus (GPa) = 57.12990 60.39172 58.76081
# Shear Modulus (GPa) = 13.93264 25.19305 19.56284
#
# Velocity S-wave (km/s) = 2.50429 3.36750 2.96745
# Velocity P-wave (km/s) = 5.83760 6.50415 6.17987
#
# Compressibility (1/GPa) = 0.01750397
#
# Stress axis : x y z
#
# Youngs Moduli (GPa) = 33.17477 33.17477 78.48011
#
# Poissons Ratio (x) = 0.78791 0.15744
# Poissons Ratio (y) = 0.78791 0.15744
# Poissons Ratio (z) = 0.06655 0.06655
#
# Static dielectric constant tensor:
#      x y z
#    x 4.052310 0.000000 0.000000 
#    y 0.000000 4.052310 0.000000 
#    z 0.000000 0.000000 3.852670 
# 
# 
# High freq. dielectric constant tensor:
#      x y z
#    x 1.878710 0.000000 0.000000 
#    y 0.000000 1.878710 0.000000 
#    z 0.000000 0.000000 1.850920 
# 
# From -- ./inp_files/5698.got.cif
#   From: 2010.03.12/outbox.cif.g09.slc.cpg/sg138_3_cif.got.tgz:5698.got - 2010.04.08 09:41:05.
