data_PCOD8319645
_publ_section_title
;
Structure prediction by ZEFSAII (Michael W. Deem and Ramdas Pophale) SiO2 
 PCOD8319645
Probable space group: I 4/M M M
;
_chemical_formula_sum "Si O2"
_cell_formula_units_Z 160
_cell_length_a 20.833555
_cell_length_b 20.833555
_cell_length_c 20.058948
_cell_angle_alpha 90.000000
_cell_angle_beta 90.000000
_cell_angle_gamma 90.000000
_cell_volume 8706.325893
_symmetry_space_group_name_H-M "I 4/M M M"
_symmetry_group_IT_number 139
_symmetry_cell_setting 'tetragonal'
loop_
_space_group_symop_operation_xyz
x,y,z
-y,x,z
-x,-y,z
y,-x,z
x,-y,-z
-x,y,-z
y,x,-z
-y,-x,-z
-x,-y,-z
y,-x,-z
x,y,-z
-y,x,-z
-x,y,z
x,-y,z
-y,-x,z
y,x,z
1/2+x,1/2+y,1/2+z
1/2-y,1/2+x,1/2+z
1/2-x,1/2-y,1/2+z
1/2+y,1/2-x,1/2+z
1/2+x,1/2-y,1/2-z
1/2-x,1/2+y,1/2-z
1/2+y,1/2+x,1/2-z
1/2-y,1/2-x,1/2-z
1/2-x,1/2-y,1/2-z
1/2+y,1/2-x,1/2-z
1/2+x,1/2+y,1/2-z
1/2-y,1/2+x,1/2-z
1/2-x,1/2+y,1/2+z
1/2+x,1/2-y,1/2+z
1/2-y,1/2-x,1/2+z
1/2+y,1/2+x,1/2+z
loop_
_atom_site_type_symbol
_atom_site_label
_atom_site_fract_x
_atom_site_fract_y
_atom_site_fract_z
Si Si1 0.357222 0.195798 0.422802
Si Si2 0.271064 0.830617 0.692262
Si Si3 0.177616 0.073351 0.121007
Si Si4 0.675377 0.427516 0.221541
Si Si5 0.930006 0.571380 0.421095
O O1 0.337434 0.190421 0.500000
O O2 0.293753 0.199596 0.377875
O O3 0.403103 0.256872 0.413705
O O4 0.388833 0.130218 0.394018
O O5 0.210622 0.789379 0.718455
O O6 0.325827 0.825827 0.750000
O O7 0.241260 0.902194 0.686478
O O8 0.118250 0.118250 0.097435
O O9 0.186512 0.077309 0.199648
O O10 0.163893 0.000000 0.098271
O O11 0.663790 0.500000 0.197864
O O12 0.612518 0.387482 0.199662
O O13 0.924038 0.567732 0.500000
O O14 0.925180 0.500000 0.391063
O O15 0.000000 0.601143 0.401062
#
# Coordination Sequence:
#
# PCOD8319645 Si02
#       5
#    32  32  32  32  32
#     4  11  21  32  52  80 105 134 176 222 261 307
#     4  10  19  34  52  70  99 137 169 203 257 317
#     4  10  20  34  52  76 107 143 185 230 273 319
#     4   9  18  33  54  78 104 138 179 222 271 325
#     4   8  15  29  47  67  95 130 164 200 247 301
#
# _framework density 18.377441999999999
#
# number of rings (size 3 to 8) (size 9 to 14) (size 15 to 20)
#    0.000    2.400    2.000    1.800    0.000    4.000 
#    0.000    2.000    0.000    0.000    0.000    2.800 
#    0.000    0.000    0.000    4.400    0.000    0.200 
#
# Total GULP energy -991366.508486 kJ/mol
# GULP energy per Si atom -12392.081356 kJ/mol
# Density = 1.833561 g / cm^3
# Si number density = 18.377442 Si / 1000 Ang^3
#
#
#
# Elastic Constant Matrix: (Units=GPa)
#
#
# Indices 1 2 3 4 5 6 
#
# 1 119.4108 60.6223 26.4661 0.0000 0.0000 0.0000
# 2 60.6223 119.4108 26.4661 0.0000 0.0000 0.0000
# 3 26.4661 26.4661 56.0962 0.0000 0.0000 0.0000
# 4 0.0000 0.0000 0.0000 19.2846 0.0000 0.0000
# 5 0.0000 0.0000 0.0000 0.0000 19.2846 0.0000
# 6 0.0000 0.0000 0.0000 0.0000 0.0000 31.3678
#
#
#
# Elastic Compliance Matrix: (Units=1/GPa)
#
#
# Indices 1 2 3 4 5 6 
#
# 1 0.011730 -0.005281 -0.003043 0.000000 0.000000 0.000000
# 2 -0.005281 0.011730 -0.003043 0.000000 0.000000 0.000000
# 3 -0.003043 -0.003043 0.020698 0.000000 0.000000 0.000000
# 4 0.000000 0.000000 0.000000 0.051855 0.000000 0.000000
# 5 0.000000 0.000000 0.000000 0.000000 0.051855 0.000000
# 6 0.000000 0.000000 0.000000 0.000000 0.000000 0.031880
#
#
# Mechanical properties :
#
#
# Convention : Reuss Voigt Hill
#
# Bulk Modulus (GPa) = 46.67427 58.00299 52.33863
# Shear Modulus (GPa) = 23.85272 26.07830 24.96551
#
# Velocity S-wave (km/s) = 3.60659 3.77110 3.68976
# Velocity P-wave (km/s) = 6.54187 7.11282 6.83331
#
# Compressibility (1/GPa) = 0.02142508
#
# Stress axis : x y z
#
# Youngs Moduli (GPa) = 85.25420 85.25420 48.31484
#
# Poissons Ratio (x) = 0.45019 0.14701
# Poissons Ratio (y) = 0.45019 0.14701
# Poissons Ratio (z) = 0.25940 0.25940
#
# Static dielectric constant tensor:
#      x y z
#    x 3.573490 0.000000 0.000000 
#    y 0.000000 3.573490 0.000000 
#    z 0.000000 0.000000 2.939280 
# 
# 
# High freq. dielectric constant tensor:
#      x y z
#    x 1.714260 0.000000 0.000000 
#    y 0.000000 1.714260 0.000000 
#    z 0.000000 0.000000 1.672080 
# 
# From -- ./inp_files/8373.got.cif
#   From: 2010.03.12/outbox.cif.g09.slc.cpg/sg139_5_cif.got.tgz:8373.got - 2010.04.08 09:46:31.
