data_PCOD8319043
_publ_section_title
;
Structure prediction by ZEFSAII (Michael W. Deem and Ramdas Pophale) SiO2 
 PCOD8319043
Probable space group: P 42/N C M
;
_chemical_formula_sum "Si O2"
_cell_formula_units_Z 80
_cell_length_a 12.063547
_cell_length_b 12.063547
_cell_length_c 28.478833
_cell_angle_alpha 90.000000
_cell_angle_beta 90.000000
_cell_angle_gamma 90.000000
_cell_volume 4144.500821
_symmetry_space_group_name_H-M "P 42/N C M"
_symmetry_group_IT_number 138
_space_group.IT_coordinate_system_code '2'
_symmetry_cell_setting 'tetragonal'
loop_
_space_group_symop_operation_xyz
x,y,z
1/2-y,x,1/2+z
1/2-x,1/2-y,z
y,1/2-x,1/2+z
1/2+x,-y,1/2-z
-x,1/2+y,1/2-z
1/2+y,1/2+x,-z
-y,-x,-z
-x,-y,-z
1/2+y,-x,1/2-z
1/2+x,1/2+y,-z
-y,1/2+x,1/2-z
1/2-x,y,1/2+z
x,1/2-y,1/2+z
1/2-y,1/2-x,z
y,x,z
loop_
_atom_site_type_symbol
_atom_site_label
_atom_site_fract_x
_atom_site_fract_y
_atom_site_fract_z
Si Si1 0.023740 0.203899 0.294566
Si Si2 0.843201 0.018569 0.294700
Si Si3 0.508294 0.812876 0.604873
Si Si4 0.227925 0.875651 0.124796
Si Si5 0.923816 0.394620 0.946236
O O1 0.133362 0.133362 0.283959
O O2 0.034844 0.259528 0.345030
O O3 0.914755 0.129726 0.291884
O O4 0.013557 0.299398 0.256223
O O5 0.744176 0.041102 0.331392
O O6 0.918573 0.918573 0.314029
O O7 0.610074 0.889927 0.588629
O O8 0.397786 0.888391 0.607201
O O9 0.492302 0.715830 0.566801
O O10 0.250000 0.750000 0.141577
O O11 0.312266 0.907081 0.083539
O O12 0.999019 0.500982 0.935663
O O13 0.887669 0.387669 0.000000
#
# Coordination Sequence:
#
# PCOD8319043 Si02
#       5
#    16  16  16  16  16
#     4  11  23  37  56  85 119 160 209 254 301 360
#     4  11  22  35  55  82 118 161 205 249 299 355
#     4  11  23  39  62  92 123 156 198 255 308 358
#     4  10  20  37  59  84 118 156 201 243 297 359
#     4  10  21  40  66  93 120 158 204 249 301 363
#
# _framework density 19.302686000000001
#
# number of rings (size 3 to 8) (size 9 to 14) (size 15 to 20)
#    0.000    1.400    4.000    3.000    0.000    8.800 
#    0.000    2.000    0.000    3.000    0.000    0.000 
#    0.000    0.000    0.000    0.000    0.000    0.000 
#
# Total GULP energy -992261.097133 kJ/mol
# GULP energy per Si atom -12403.263714 kJ/mol
# Density = 1.925875 g / cm^3
# Si number density = 19.302686 Si / 1000 Ang^3
#
#
#
# Elastic Constant Matrix: (Units=GPa)
#
#
# Indices 1 2 3 4 5 6 
#
# 1 59.4329 42.4690 39.5259 0.0000 0.0000 0.0000
# 2 42.4690 59.4329 39.5259 0.0000 0.0000 0.0000
# 3 39.5259 39.5259 115.5139 0.0000 0.0000 0.0000
# 4 0.0000 0.0000 0.0000 25.3732 0.0000 0.0000
# 5 0.0000 0.0000 0.0000 0.0000 25.3732 0.0000
# 6 0.0000 0.0000 0.0000 0.0000 0.0000 36.0369
#
#
#
# Elastic Compliance Matrix: (Units=1/GPa)
#
#
# Indices 1 2 3 4 5 6 
#
# 1 0.036154 -0.022794 -0.004571 0.000000 0.000000 0.000000
# 2 -0.022794 0.036154 -0.004571 0.000000 0.000000 0.000000
# 3 -0.004571 -0.004571 0.011785 0.000000 0.000000 0.000000
# 4 0.000000 0.000000 0.000000 0.039412 0.000000 0.000000
# 5 0.000000 0.000000 0.000000 0.000000 0.039412 0.000000
# 6 0.000000 0.000000 0.000000 0.000000 0.000000 0.027749
#
#
# Mechanical properties :
#
#
# Convention : Reuss Voigt Hill
#
# Bulk Modulus (GPa) = 49.45768 53.04683 51.25226
# Shear Modulus (GPa) = 19.13657 24.88059 22.00858
#
# Velocity S-wave (km/s) = 3.15206 3.59412 3.38032
# Velocity P-wave (km/s) = 6.23900 6.69065 6.46877
#
# Compressibility (1/GPa) = 0.02021931
#
# Stress axis : x y z
#
# Youngs Moduli (GPa) = 27.65944 27.65944 84.85112
#
# Poissons Ratio (x) = 0.63048 0.38788
# Poissons Ratio (y) = 0.63048 0.38788
# Poissons Ratio (z) = 0.12644 0.12644
#
# Static dielectric constant tensor:
#      x y z
#    x 3.668260 0.000000 0.000000 
#    y 0.000000 3.668260 0.000000 
#    z 0.000000 0.000000 3.469970 
# 
# 
# High freq. dielectric constant tensor:
#      x y z
#    x 1.752450 0.000000 0.000000 
#    y 0.000000 1.752450 0.000000 
#    z 0.000000 0.000000 1.744390 
# 
# From -- ./inp_files/7893.got.cif
#   From: 2010.03.12/outbox.cif.g09.slc.cpg/sg138_4_cif.got.tgz:7893.got - 2010.04.08 09:41:05.
