data_PCOD8319676
_publ_section_title
;
Structure prediction by ZEFSAII (Michael W. Deem and Ramdas Pophale) SiO2 
 PCOD8319676
Probable space group: I 4/M M M
;
_chemical_formula_sum "Si O2"
_cell_formula_units_Z 96
_cell_length_a 13.294341
_cell_length_b 13.294341
_cell_length_c 32.492214
_cell_angle_alpha 90.000000
_cell_angle_beta 90.000000
_cell_angle_gamma 90.000000
_cell_volume 5742.657742
_symmetry_space_group_name_H-M "I 4/M M M"
_symmetry_group_IT_number 139
_symmetry_cell_setting 'tetragonal'
loop_
_space_group_symop_operation_xyz
x,y,z
-y,x,z
-x,-y,z
y,-x,z
x,-y,-z
-x,y,-z
y,x,-z
-y,-x,-z
-x,-y,-z
y,-x,-z
x,y,-z
-y,x,-z
-x,y,z
x,-y,z
-y,-x,z
y,x,z
1/2+x,1/2+y,1/2+z
1/2-y,1/2+x,1/2+z
1/2-x,1/2-y,1/2+z
1/2+y,1/2-x,1/2+z
1/2+x,1/2-y,1/2-z
1/2-x,1/2+y,1/2-z
1/2+y,1/2+x,1/2-z
1/2-y,1/2-x,1/2-z
1/2-x,1/2-y,1/2-z
1/2+y,1/2-x,1/2-z
1/2+x,1/2+y,1/2-z
1/2-y,1/2+x,1/2-z
1/2-x,1/2+y,1/2+z
1/2+x,1/2-y,1/2+z
1/2-y,1/2-x,1/2+z
1/2+y,1/2+x,1/2+z
loop_
_atom_site_type_symbol
_atom_site_label
_atom_site_fract_x
_atom_site_fract_y
_atom_site_fract_z
Si Si1 0.116743 0.383734 0.085280
Si Si2 0.616182 0.616182 0.297681
Si Si3 0.884221 0.719063 0.000000
Si Si4 0.250904 0.749097 0.855432
Si Si5 0.383763 0.383763 0.796085
O O1 0.146371 0.500000 0.089047
O O2 0.142087 0.348346 0.039312
O O3 0.182106 0.321701 0.117127
O O4 0.000000 0.366311 0.095692
O O5 0.500000 0.639744 0.306175
O O6 0.680924 0.680924 0.328421
O O7 0.643903 0.643903 0.250810
O O8 0.820933 0.820933 0.000000
O O9 0.000000 0.752978 0.000000
O O10 0.318160 0.681841 0.826217
O O11 0.500000 0.360189 0.804597
#
# Coordination Sequence:
#
# PCOD8319676 Si02
#       5
#    32  16  16  16  16
#     4  10  21  35  52  75 104 136 170 208 250 302
#     4   9  19  35  52  72 102 137 168 202 251 313
#     4  10  19  36  55  76 102 138 173 202 246 302
#     4  12  19  31  54  80 102 126 170 217 259 288
#     4   9  19  35  52  72 100 135 172 206 249 305
#
# _framework density 16.716996999999999
#
# number of rings (size 3 to 8) (size 9 to 14) (size 15 to 20)
#    0.000    2.000    1.667    4.000    0.000    2.167 
#    0.000    0.000    0.000    0.000    0.000   15.167 
#    0.000    0.000    0.000    0.000    0.000    0.000 
#
# Total GULP energy -595283.411495 kJ/mol
# GULP energy per Si atom -12401.737739 kJ/mol
# Density = 1.667895 g / cm^3
# Si number density = 16.716997 Si / 1000 Ang^3
#
#
#
# Elastic Constant Matrix: (Units=GPa)
#
#
# Indices 1 2 3 4 5 6 
#
# 1 108.5736 92.6286 94.7475 0.0000 0.0000 0.0000
# 2 92.6286 108.5736 94.7475 0.0000 0.0000 0.0000
# 3 94.7475 94.7475 154.5895 0.0000 0.0000 0.0000
# 4 0.0000 0.0000 0.0000 36.1856 0.0000 0.0000
# 5 0.0000 0.0000 0.0000 0.0000 36.1856 0.0000
# 6 0.0000 0.0000 0.0000 0.0000 0.0000 32.0331
#
#
#
# Elastic Compliance Matrix: (Units=1/GPa)
#
#
# Indices 1 2 3 4 5 6 
#
# 1 0.037236 -0.025480 -0.007205 0.000000 0.000000 0.000000
# 2 -0.025480 0.037236 -0.007205 0.000000 0.000000 0.000000
# 3 -0.007205 -0.007205 0.015301 0.000000 0.000000 0.000000
# 4 0.000000 0.000000 0.000000 0.027635 0.000000 0.000000
# 5 0.000000 0.000000 0.000000 0.000000 0.027635 0.000000
# 6 0.000000 0.000000 0.000000 0.000000 0.000000 0.031218
#
#
# Mechanical properties :
#
#
# Convention : Reuss Voigt Hill
#
# Bulk Modulus (GPa) = 100.07953 103.99819 102.03886
# Shear Modulus (GPa) = 19.27731 26.85509 23.06620
#
# Velocity S-wave (km/s) = 3.39950 4.01241 3.71860
# Velocity P-wave (km/s) = 8.68365 9.15489 8.92238
#
# Compressibility (1/GPa) = 0.00999205
#
# Stress axis : x y z
#
# Youngs Moduli (GPa) = 26.85585 26.85585 65.35503
#
# Poissons Ratio (x) = 0.68428 0.47091
# Poissons Ratio (y) = 0.68428 0.47091
# Poissons Ratio (z) = 0.19351 0.19351
#
# Static dielectric constant tensor:
#      x y z
#    x 3.146350 0.000000 0.000000 
#    y 0.000000 3.146350 0.000000 
#    z 0.000000 0.000000 3.220260 
# 
# 
# High freq. dielectric constant tensor:
#      x y z
#    x 1.648120 0.000000 0.000000 
#    y 0.000000 1.648120 0.000000 
#    z 0.000000 0.000000 1.656750 
# 
# From -- ./inp_files/11005.got.cif
#   From: 2010.03.12/outbox.cif.g09.slc.cpg/sg139_6_cif.got.tgz:11005.got - 2010.04.08 09:46:31.
