data_PCOD8319042
_publ_section_title
;
Structure prediction by ZEFSAII (Michael W. Deem and Ramdas Pophale) SiO2 
 PCOD8319042
Probable space group: P 42/N C M
;
_chemical_formula_sum "Si O2"
_cell_formula_units_Z 96
_cell_length_a 20.837101
_cell_length_b 20.837101
_cell_length_c 11.673544
_cell_angle_alpha 90.000000
_cell_angle_beta 90.000000
_cell_angle_gamma 90.000000
_cell_volume 5068.475111
_symmetry_space_group_name_H-M "P 42/N C M"
_symmetry_group_IT_number 138
_space_group.IT_coordinate_system_code '2'
_symmetry_cell_setting 'tetragonal'
loop_
_space_group_symop_operation_xyz
x,y,z
1/2-y,x,1/2+z
1/2-x,1/2-y,z
y,1/2-x,1/2+z
1/2+x,-y,1/2-z
-x,1/2+y,1/2-z
1/2+y,1/2+x,-z
-y,-x,-z
-x,-y,-z
1/2+y,-x,1/2-z
1/2+x,1/2+y,-z
-y,1/2+x,1/2-z
1/2-x,y,1/2+z
x,1/2-y,1/2+z
1/2-y,1/2-x,z
y,x,z
loop_
_atom_site_type_symbol
_atom_site_label
_atom_site_fract_x
_atom_site_fract_y
_atom_site_fract_z
Si Si1 0.272896 0.971540 0.136141
Si Si2 0.849543 0.257946 0.269912
Si Si3 0.077650 0.831895 0.571457
Si Si4 0.864860 0.461718 0.465434
Si Si5 0.029631 0.133153 0.795047
Si Si6 0.069119 0.528400 0.756745
O O1 0.291918 0.902879 0.191844
O O2 0.197141 0.968213 0.115763
O O3 0.299156 0.027342 0.223134
O O4 0.306265 0.978075 0.012437
O O5 0.813735 0.201197 0.198914
O O6 0.881421 0.229507 0.385121
O O7 0.120792 0.879209 0.500000
O O8 0.042353 0.865381 0.676999
O O9 0.888521 0.388521 0.500000
O O10 0.855948 0.508340 0.573706
O O11 0.920293 0.485086 0.378493
O O12 0.100684 0.100684 0.792731
O O13 0.979180 0.088044 0.729410
O O14 0.034727 0.465274 0.808828
#
# Coordination Sequence:
#
# PCOD8319042 Si02
#       6
#    16  16  16  16  16  16
#     4  12  23  35  57  80 116 154 193 235 298 341
#     4  11  23  37  50  73 110 158 208 237 268 325
#     4  12  22  35  50  74 108 147 193 242 293 333
#     4  10  22  37  59  83 115 153 198 243 288 351
#     4  10  21  39  59  82 112 152 195 243 296 345
#     4  10  20  37  59  81 107 147 198 248 297 347
#
# _framework density 18.940608999999998
#
# number of rings (size 3 to 8) (size 9 to 14) (size 15 to 20)
#    0.000    1.167    5.000    1.500    4.667    3.000 
#    0.000    0.000    0.000    0.000    0.000    0.000 
#    0.000    5.333    0.000    0.000    0.000    0.000 
#
# Total GULP energy -1189429.996268 kJ/mol
# GULP energy per Si atom -12389.895794 kJ/mol
# Density = 1.889750 g / cm^3
# Si number density = 18.940609 Si / 1000 Ang^3
#
#
#
# Elastic Constant Matrix: (Units=GPa)
#
#
# Indices 1 2 3 4 5 6 
#
# 1 57.1924 38.4228 31.5953 0.0000 0.0000 0.0000
# 2 38.4228 57.1926 31.5955 0.0000 0.0000 0.0000
# 3 31.5953 31.5955 100.2385 0.0000 0.0000 0.0000
# 4 0.0000 0.0000 0.0000 17.9882 0.0000 0.0000
# 5 0.0000 0.0000 0.0000 0.0000 17.9890 0.0000
# 6 0.0000 0.0000 0.0000 0.0000 0.0000 29.9825
#
#
#
# Elastic Compliance Matrix: (Units=1/GPa)
#
#
# Indices 1 2 3 4 5 6 
#
# 1 0.033244 -0.020033 -0.004164 0.000000 0.000000 0.000000
# 2 -0.020033 0.033244 -0.004164 0.000000 0.000000 0.000000
# 3 -0.004164 -0.004164 0.012601 0.000000 0.000000 0.000000
# 4 0.000000 0.000000 0.000000 0.055592 0.000000 0.000000
# 5 0.000000 0.000000 0.000000 0.000000 0.055590 0.000000
# 6 0.000000 0.000000 0.000000 0.000000 0.000000 0.033353
#
#
# Mechanical properties :
#
#
# Convention : Reuss Voigt Hill
#
# Bulk Modulus (GPa) = 44.71015 46.42783 45.56899
# Shear Modulus (GPa) = 17.37309 20.72595 19.04952
#
# Velocity S-wave (km/s) = 3.03188 3.31155 3.17480
# Velocity P-wave (km/s) = 5.99275 6.25998 6.12782
#
# Compressibility (1/GPa) = 0.02236629
#
# Stress axis : x y z
#
# Youngs Moduli (GPa) = 30.08069 30.08072 79.35754
#
# Poissons Ratio (x) = 0.60262 0.33044
# Poissons Ratio (y) = 0.60262 0.33045
# Poissons Ratio (z) = 0.12525 0.12526
#
# Static dielectric constant tensor:
#      x y z
#    x 3.294690 0.000000 0.000000 
#    y 0.000000 3.294690 0.000000 
#    z 0.000000 0.000000 3.678850 
# 
# 
# High freq. dielectric constant tensor:
#      x y z
#    x 1.701930 0.000000 0.000000 
#    y 0.000000 1.701930 0.000000 
#    z 0.000000 0.000000 1.751130 
# 
# From -- ./inp_files/3105.got.cif
#   From: 2010.03.12/outbox.cif.g09.slc.cpg/sg138_2_cif.got.tgz:3105.got - 2010.04.08 09:41:05.
