data_PCOD8319935
_publ_section_title
;
Structure prediction by ZEFSAII (Michael W. Deem and Ramdas Pophale) SiO2 
 PCOD8319935
Probable space group: I 4/M M M
;
_chemical_formula_sum "Si O2"
_cell_formula_units_Z 112
_cell_length_a 17.704332
_cell_length_b 17.704332
_cell_length_c 17.930713
_cell_angle_alpha 90.000000
_cell_angle_beta 90.000000
_cell_angle_gamma 90.000000
_cell_volume 5620.263137
_symmetry_space_group_name_H-M "I 4/M M M"
_symmetry_group_IT_number 139
_symmetry_cell_setting 'tetragonal'
loop_
_space_group_symop_operation_xyz
x,y,z
-y,x,z
-x,-y,z
y,-x,z
x,-y,-z
-x,y,-z
y,x,-z
-y,-x,-z
-x,-y,-z
y,-x,-z
x,y,-z
-y,x,-z
-x,y,z
x,-y,z
-y,-x,z
y,x,z
1/2+x,1/2+y,1/2+z
1/2-y,1/2+x,1/2+z
1/2-x,1/2-y,1/2+z
1/2+y,1/2-x,1/2+z
1/2+x,1/2-y,1/2-z
1/2-x,1/2+y,1/2-z
1/2+y,1/2+x,1/2-z
1/2-y,1/2-x,1/2-z
1/2-x,1/2-y,1/2-z
1/2+y,1/2-x,1/2-z
1/2+x,1/2+y,1/2-z
1/2-y,1/2+x,1/2-z
1/2-x,1/2+y,1/2+z
1/2+x,1/2-y,1/2+z
1/2-y,1/2-x,1/2+z
1/2+y,1/2+x,1/2+z
loop_
_atom_site_type_symbol
_atom_site_label
_atom_site_fract_x
_atom_site_fract_y
_atom_site_fract_z
Si Si1 0.853340 0.329758 0.587007
Si Si2 0.500000 0.917339 0.911572
Si Si3 0.913445 0.790610 0.853552
Si Si4 0.085627 0.202645 0.682064
O O1 0.859746 0.310612 0.500000
O O2 0.776757 0.375340 0.600442
O O3 0.857178 0.252317 0.632741
O O4 0.924800 0.376831 0.616947
O O5 0.500000 0.000000 0.875573
O O6 0.500000 0.921979 0.000000
O O7 0.867894 0.867894 0.869641
O O8 0.911098 0.768175 0.766813
O O9 0.000000 0.802026 0.880258
O O10 0.116793 0.116793 0.678358
O O11 0.000000 0.204098 0.650998
#
# Coordination Sequence:
#
# PCOD8319935 Si02
#       4
#    32  16  32  32
#     4  11  21  36  58  85 116 151 191 233 285 345
#     4   9  18  32  52  78 109 145 182 226 275 328
#     4  10  22  39  60  85 115 152 193 239 288 339
#     4  10  21  38  59  83 115 152 192 238 285 337
#
# _framework density 19.927893000000001
#
# number of rings (size 3 to 8) (size 9 to 14) (size 15 to 20)
#    0.000    1.857    1.429    2.571    0.000    6.857 
#    0.000    2.857    0.000    0.000    0.000    4.000 
#    0.000    0.000    0.000    0.000    0.000    0.000 
#
# Total GULP energy -694426.440302 kJ/mol
# GULP energy per Si atom -12400.472148 kJ/mol
# Density = 1.988254 g / cm^3
# Si number density = 19.927893 Si / 1000 Ang^3
#
#
#
# Elastic Constant Matrix: (Units=GPa)
#
#
# Indices 1 2 3 4 5 6 
#
# 1 103.5371 51.4138 18.1231 0.0000 0.0000 0.0000
# 2 51.4138 103.5371 18.1231 0.0000 0.0000 0.0000
# 3 18.1231 18.1231 44.4058 0.0000 0.0000 0.0000
# 4 0.0000 0.0000 0.0000 22.1415 0.0000 0.0000
# 5 0.0000 0.0000 0.0000 0.0000 22.1415 0.0000
# 6 0.0000 0.0000 0.0000 0.0000 0.0000 30.4793
#
#
#
# Elastic Compliance Matrix: (Units=1/GPa)
#
#
# Indices 1 2 3 4 5 6 
#
# 1 0.013160 -0.006025 -0.002912 0.000000 0.000000 0.000000
# 2 -0.006025 0.013160 -0.002912 0.000000 0.000000 0.000000
# 3 -0.002912 -0.002912 0.024896 0.000000 0.000000 0.000000
# 4 0.000000 0.000000 0.000000 0.045164 0.000000 0.000000
# 5 0.000000 0.000000 0.000000 0.000000 0.045164 0.000000
# 6 0.000000 0.000000 0.000000 0.000000 0.000000 0.032809
#
#
# Mechanical properties :
#
#
# Convention : Reuss Voigt Hill
#
# Bulk Modulus (GPa) = 36.33921 47.42220 41.88071
# Shear Modulus (GPa) = 24.12841 25.87379 25.00110
#
# Velocity S-wave (km/s) = 3.48341 3.60720 3.54585
# Velocity P-wave (km/s) = 5.86974 6.41855 6.15027
#
# Compressibility (1/GPa) = 0.02751849
#
# Stress axis : x y z
#
# Youngs Moduli (GPa) = 75.98759 75.98758 40.16643
#
# Poissons Ratio (x) = 0.45784 0.11696
# Poissons Ratio (y) = 0.45784 0.11696
# Poissons Ratio (z) = 0.22127 0.22127
#
# Static dielectric constant tensor:
#      x y z
#    x 3.720440 0.000000 0.000000 
#    y 0.000000 3.720440 0.000000 
#    z 0.000000 0.000000 3.364130 
# 
# 
# High freq. dielectric constant tensor:
#      x y z
#    x 1.783780 0.000000 0.000000 
#    y 0.000000 1.783780 0.000000 
#    z 0.000000 0.000000 1.758650 
# 
# From -- ./inp_files/7540.got.cif
#   From: 2010.03.12/outbox.cif.g09.slc.cpg/sg139_4_cif.got.tgz:7540.got - 2010.04.08 09:46:31.
