data_PCOD8319020
_publ_section_title
;
Structure prediction by ZEFSAII (Michael W. Deem and Ramdas Pophale) SiO2 
 PCOD8319020
Probable space group: P 42/N C M
;
_chemical_formula_sum "Si O2"
_cell_formula_units_Z 64
_cell_length_a 13.645064
_cell_length_b 13.645064
_cell_length_c 19.623392
_cell_angle_alpha 90.000000
_cell_angle_beta 90.000000
_cell_angle_gamma 90.000000
_cell_volume 3653.635627
_symmetry_space_group_name_H-M "P 42/N C M"
_symmetry_group_IT_number 138
_space_group.IT_coordinate_system_code '2'
_symmetry_cell_setting 'tetragonal'
loop_
_space_group_symop_operation_xyz
x,y,z
1/2-y,x,1/2+z
1/2-x,1/2-y,z
y,1/2-x,1/2+z
1/2+x,-y,1/2-z
-x,1/2+y,1/2-z
1/2+y,1/2+x,-z
-y,-x,-z
-x,-y,-z
1/2+y,-x,1/2-z
1/2+x,1/2+y,-z
-y,1/2+x,1/2-z
1/2-x,y,1/2+z
x,1/2-y,1/2+z
1/2-y,1/2-x,z
y,x,z
loop_
_atom_site_type_symbol
_atom_site_label
_atom_site_fract_x
_atom_site_fract_y
_atom_site_fract_z
Si Si1 0.511102 0.671298 0.957560
Si Si2 0.252991 0.091374 0.168602
Si Si3 0.906618 0.263613 0.262835
Si Si4 0.635360 0.470647 0.101364
O O1 0.574679 0.574679 0.965709
O O2 0.563102 0.754340 0.911943
O O3 0.415741 0.632883 0.916898
O O4 0.493788 0.705615 0.035650
O O5 0.353752 0.146249 0.185420
O O6 0.159965 0.159965 0.184502
O O7 0.243034 0.995809 0.213145
O O8 0.847024 0.162290 0.270122
O O9 0.951706 0.294064 0.335144
O O10 0.558422 0.558422 0.118525
#
# Coordination Sequence:
#
# PCOD8319020 Si02
#       4
#    16  16  16  16
#     4   8  15  30  54  79  99 132 181 220 259 310
#     4  10  20  35  56  80 107 140 177 222 275 322
#     4  11  22  34  51  78 113 146 181 218 262 320
#     4   9  16  31  56  78 101 137 177 220 261 307
#
# _framework density 17.5168
#
# number of rings (size 3 to 8) (size 9 to 14) (size 15 to 20)
#    0.000    2.500    2.500    2.250    0.000    1.000 
#    0.000    2.500    0.000    6.000    0.000    0.000 
#    0.000    0.000    0.000    0.000    0.000    0.000 
#
# Total GULP energy -793014.470031 kJ/mol
# GULP energy per Si atom -12390.851094 kJ/mol
# Density = 1.747693 g / cm^3
# Si number density = 17.516800 Si / 1000 Ang^3
#
#
#
# Elastic Constant Matrix: (Units=GPa)
#
#
# Indices 1 2 3 4 5 6 
#
# 1 70.9655 30.8837 40.1539 0.0000 0.0000 0.0000
# 2 30.8837 70.9655 40.1539 0.0000 0.0000 0.0000
# 3 40.1539 40.1539 120.9975 0.0000 0.0000 0.0000
# 4 0.0000 0.0000 0.0000 26.6314 0.0000 0.0000
# 5 0.0000 0.0000 0.0000 0.0000 26.6314 0.0000
# 6 0.0000 0.0000 0.0000 0.0000 0.0000 14.3596
#
#
#
# Elastic Compliance Matrix: (Units=1/GPa)
#
#
# Indices 1 2 3 4 5 6 
#
# 1 0.019124 -0.005825 -0.004413 0.000000 0.000000 0.000000
# 2 -0.005825 0.019124 -0.004413 0.000000 0.000000 0.000000
# 3 -0.004413 -0.004413 0.011194 0.000000 0.000000 0.000000
# 4 0.000000 0.000000 0.000000 0.037550 0.000000 0.000000
# 5 0.000000 0.000000 0.000000 0.000000 0.037550 0.000000
# 6 0.000000 0.000000 0.000000 0.000000 0.000000 0.069640
#
#
# Mechanical properties :
#
#
# Convention : Reuss Voigt Hill
#
# Bulk Modulus (GPa) = 49.65834 53.92351 51.79093
# Shear Modulus (GPa) = 21.72064 23.64026 22.68045
#
# Velocity S-wave (km/s) = 3.52517 3.67764 3.60221
# Velocity P-wave (km/s) = 6.70668 6.99172 6.85068
#
# Compressibility (1/GPa) = 0.02013760
#
# Stress axis : x y z
#
# Youngs Moduli (GPa) = 52.29145 52.29145 89.33617
#
# Poissons Ratio (x) = 0.30462 0.39425
# Poissons Ratio (y) = 0.30462 0.39425
# Poissons Ratio (z) = 0.23077 0.23077
#
# Static dielectric constant tensor:
#      x y z
#    x 3.096830 0.000000 0.000000 
#    y 0.000000 3.096830 0.000000 
#    z 0.000000 0.000000 3.537640 
# 
# 
# High freq. dielectric constant tensor:
#      x y z
#    x 1.656560 0.000000 0.000000 
#    y 0.000000 1.656560 0.000000 
#    z 0.000000 0.000000 1.688200 
# 
# From -- ./inp_files/4878.got.cif
#   From: 2010.03.12/outbox.cif.g09.slc.cpg/sg138_3_cif.got.tgz:4878.got - 2010.04.08 09:41:05.
