data_PCOD8319006
_publ_section_title
;
Structure prediction by ZEFSAII (Michael W. Deem and Ramdas Pophale) SiO2 
 PCOD8319006
Probable space group: P 42/N C M
;
_chemical_formula_sum "Si O2"
_cell_formula_units_Z 96
_cell_length_a 23.816699
_cell_length_b 23.816699
_cell_length_c 9.112884
_cell_angle_alpha 90.000000
_cell_angle_beta 90.000000
_cell_angle_gamma 90.000000
_cell_volume 5169.148134
_symmetry_space_group_name_H-M "P 42/N C M"
_symmetry_group_IT_number 138
_space_group.IT_coordinate_system_code '2'
_symmetry_cell_setting 'tetragonal'
loop_
_space_group_symop_operation_xyz
x,y,z
1/2-y,x,1/2+z
1/2-x,1/2-y,z
y,1/2-x,1/2+z
1/2+x,-y,1/2-z
-x,1/2+y,1/2-z
1/2+y,1/2+x,-z
-y,-x,-z
-x,-y,-z
1/2+y,-x,1/2-z
1/2+x,1/2+y,-z
-y,1/2+x,1/2-z
1/2-x,y,1/2+z
x,1/2-y,1/2+z
1/2-y,1/2-x,z
y,x,z
loop_
_atom_site_type_symbol
_atom_site_label
_atom_site_fract_x
_atom_site_fract_y
_atom_site_fract_z
Si Si1 0.130367 0.804410 0.605629
Si Si2 0.188644 0.095654 0.346540
Si Si3 0.685047 0.003263 0.650206
Si Si4 0.125781 0.674182 0.638906
Si Si5 0.806836 0.602182 0.496605
Si Si6 0.303255 0.989647 0.005918
O O1 0.184213 0.815788 0.500000
O O2 0.127857 0.741213 0.668643
O O3 0.136333 0.846611 0.738570
O O4 0.073850 0.824092 0.520997
O O5 0.144894 0.144894 0.376510
O O6 0.246373 0.111369 0.428809
O O7 0.162784 0.037798 0.416037
O O8 0.200151 0.086615 0.174361
O O9 0.652292 0.061582 0.620797
O O10 0.657189 0.947076 0.581607
O O11 0.741032 0.006803 0.554995
O O12 0.695984 0.996259 0.822436
O O13 0.163561 0.663561 0.500000
O O14 0.840103 0.659898 0.515001
#
# Coordination Sequence:
#
# PCOD8319006 Si02
#       6
#    16  16  16  16  16  16
#     4  11  22  38  52  81 111 143 187 228 278 333
#     4  10  21  36  58  87 115 147 181 221 269 319
#     4  10  20  35  55  80 105 147 189 225 268 321
#     4  11  24  34  56  79 109 149 182 229 282 331
#     4  10  21  36  58  86 116 146 181 223 266 322
#     4  10  20  34  57  77 108 146 187 229 263 324
#
# _framework density 18.571725000000001
#
# number of rings (size 3 to 8) (size 9 to 14) (size 15 to 20)
#    0.000    1.667    1.667    5.000    9.333    5.000 
#    0.000    1.667    0.000    2.000    0.000    0.000 
#    0.000    0.000    0.000    0.000    0.000    0.000 
#
# Total GULP energy -1189383.486679 kJ/mol
# GULP energy per Si atom -12389.411320 kJ/mol
# Density = 1.852945 g / cm^3
# Si number density = 18.571725 Si / 1000 Ang^3
#
#
#
# Elastic Constant Matrix: (Units=GPa)
#
#
# Indices 1 2 3 4 5 6 
#
# 1 83.5762 28.4243 35.2872 0.0000 0.0000 0.0000
# 2 28.4243 83.5766 35.2873 0.0000 0.0000 0.0000
# 3 35.2872 35.2873 123.9157 0.0000 0.0000 0.0000
# 4 0.0000 0.0000 0.0000 28.9911 0.0000 0.0000
# 5 0.0000 0.0000 0.0000 0.0000 28.9910 0.0000
# 6 0.0000 0.0000 0.0000 0.0000 0.0000 9.9300
#
#
#
# Elastic Compliance Matrix: (Units=1/GPa)
#
#
# Indices 1 2 3 4 5 6 
#
# 1 0.014506 -0.003625 -0.003099 0.000000 0.000000 0.000000
# 2 -0.003625 0.014506 -0.003099 0.000000 0.000000 0.000000
# 3 -0.003099 -0.003099 0.009835 0.000000 0.000000 0.000000
# 4 0.000000 0.000000 0.000000 0.034493 0.000000 0.000000
# 5 0.000000 0.000000 0.000000 0.000000 0.034493 0.000000
# 6 0.000000 0.000000 0.000000 0.000000 0.000000 0.100705
#
#
# Mechanical properties :
#
#
# Convention : Reuss Voigt Hill
#
# Bulk Modulus (GPa) = 52.07654 54.34065 53.20860
# Shear Modulus (GPa) = 21.31424 26.38706 23.85065
#
# Velocity S-wave (km/s) = 3.39140 3.77346 3.58752
# Velocity P-wave (km/s) = 6.59069 6.95045 6.77296
#
# Compressibility (1/GPa) = 0.01920250
#
# Stress axis : x y z
#
# Youngs Moduli (GPa) = 68.93522 68.93560 101.68030
#
# Poissons Ratio (x) = 0.24991 0.31506
# Poissons Ratio (y) = 0.24991 0.31506
# Poissons Ratio (z) = 0.21360 0.21360
#
# Static dielectric constant tensor:
#      x y z
#    x 3.757070 0.000000 0.000000 
#    y 0.000000 3.757060 0.000000 
#    z 0.000000 0.000000 3.339300 
# 
# 
# High freq. dielectric constant tensor:
#      x y z
#    x 1.704130 0.000000 0.000000 
#    y 0.000000 1.704130 0.000000 
#    z 0.000000 0.000000 1.745300 
# 
# From -- ./inp_files/1723.got.cif
#   From: 2010.03.12/outbox.cif.g09.slc.cpg/sg138_1_cif.got.tgz:1723.got - 2010.04.08 09:41:05.
