data_PCOD8319923
_publ_section_title
;
Structure prediction by ZEFSAII (Michael W. Deem and Ramdas Pophale) SiO2 
 PCOD8319923
Probable space group: I 4/M M M
;
_chemical_formula_sum "Si O2"
_cell_formula_units_Z 160
_cell_length_a 17.507719
_cell_length_b 17.507719
_cell_length_c 28.529814
_cell_angle_alpha 90.000000
_cell_angle_beta 90.000000
_cell_angle_gamma 90.000000
_cell_volume 8744.964995
_symmetry_space_group_name_H-M "I 4/M M M"
_symmetry_group_IT_number 139
_symmetry_cell_setting 'tetragonal'
loop_
_space_group_symop_operation_xyz
x,y,z
-y,x,z
-x,-y,z
y,-x,z
x,-y,-z
-x,y,-z
y,x,-z
-y,-x,-z
-x,-y,-z
y,-x,-z
x,y,-z
-y,x,-z
-x,y,z
x,-y,z
-y,-x,z
y,x,z
1/2+x,1/2+y,1/2+z
1/2-y,1/2+x,1/2+z
1/2-x,1/2-y,1/2+z
1/2+y,1/2-x,1/2+z
1/2+x,1/2-y,1/2-z
1/2-x,1/2+y,1/2-z
1/2+y,1/2+x,1/2-z
1/2-y,1/2-x,1/2-z
1/2-x,1/2-y,1/2-z
1/2+y,1/2-x,1/2-z
1/2+x,1/2+y,1/2-z
1/2-y,1/2+x,1/2-z
1/2-x,1/2+y,1/2+z
1/2+x,1/2-y,1/2+z
1/2-y,1/2-x,1/2+z
1/2+y,1/2+x,1/2+z
loop_
_atom_site_type_symbol
_atom_site_label
_atom_site_fract_x
_atom_site_fract_y
_atom_site_fract_z
Si Si1 0.161225 0.414446 0.873501
Si Si2 0.500000 0.376501 0.358171
Si Si3 0.786377 0.661741 0.553606
Si Si4 0.000000 0.413265 0.170377
Si Si5 0.135628 0.740205 0.720434
Si Si6 0.000000 0.252037 0.215933
Si Si7 0.714845 0.500000 0.446692
O O1 0.177644 0.500000 0.891585
O O2 0.187295 0.356391 0.913807
O O3 0.208770 0.401079 0.826609
O O4 0.072318 0.403115 0.862972
O O5 0.575298 0.424703 0.344979
O O6 0.500000 0.294638 0.332454
O O7 0.500000 0.359159 0.413535
O O8 0.811631 0.674172 0.500000
O O9 0.712887 0.712887 0.566256
O O10 0.766174 0.573994 0.563411
O O11 0.000000 0.500000 0.193164
O O12 0.000000 0.344543 0.208645
O O13 0.195801 0.804200 0.706090
O O14 0.172581 0.672581 0.750000
O O15 0.072008 0.775626 0.754106
O O16 0.684245 0.500000 0.500000
#
# Coordination Sequence:
#
# PCOD8319923 Si02
#       7
#    32  16  32  16  32  16  16
#     4  11  21  37  55  81 112 146 184 227 277 333
#     4  11  24  38  56  82 111 148 193 243 287 327
#     4  10  21  37  58  83 112 147 186 233 285 336
#     4  10  22  35  52  79 113 143 181 219 267 317
#     4  11  23  36  55  83 108 143 187 228 274 328
#     4  12  21  40  56  77 111 151 185 225 279 333
#     4  10  21  37  58  83 113 153 194 232 283 340
#
# _framework density 18.296241999999999
#
# number of rings (size 3 to 8) (size 9 to 14) (size 15 to 20)
#    0.000    1.300    3.000    3.600    0.000    1.600 
#    1.800    0.500    0.000    3.600    0.000    0.000 
#    0.000    0.000    0.000    4.800    0.000    0.000 
#
# Total GULP energy -992129.141743 kJ/mol
# GULP energy per Si atom -12401.614272 kJ/mol
# Density = 1.825460 g / cm^3
# Si number density = 18.296242 Si / 1000 Ang^3
#
#
#
# Elastic Constant Matrix: (Units=GPa)
#
#
# Indices 1 2 3 4 5 6 
#
# 1 85.3168 38.9640 48.8828 0.0000 0.0000 0.0000
# 2 38.9640 85.3168 48.8828 0.0000 0.0000 0.0000
# 3 48.8828 48.8828 94.5546 0.0000 0.0000 0.0000
# 4 0.0000 0.0000 0.0000 20.8207 0.0000 0.0000
# 5 0.0000 0.0000 0.0000 0.0000 20.8207 0.0000
# 6 0.0000 0.0000 0.0000 0.0000 0.0000 -69.2241
#
#
#
# Elastic Compliance Matrix: (Units=1/GPa)
#
#
# Indices 1 2 3 4 5 6 
#
# 1 0.017568 -0.004006 -0.007011 0.000000 0.000000 0.000000
# 2 -0.004006 0.017568 -0.007011 0.000000 0.000000 0.000000
# 3 -0.007011 -0.007011 0.017825 0.000000 0.000000 0.000000
# 4 0.000000 0.000000 0.000000 0.048029 0.000000 0.000000
# 5 0.000000 0.000000 0.000000 0.000000 0.048029 0.000000
# 6 0.000000 0.000000 0.000000 0.000000 0.000000 -0.014446
#
#
# Mechanical properties :
#
#
# Convention : Reuss Voigt Hill
#
# Bulk Modulus (GPa) = 59.15778 59.84971 59.50374
# Shear Modulus (GPa) = 28.36658 3.04735 15.70697
#
# Velocity S-wave (km/s) = 3.94179 1.29197 2.93316
# Velocity P-wave (km/s) = 7.28838 5.91676 6.63809
#
# Compressibility (1/GPa) = 0.01690395
#
# Stress axis : x y z
#
# Youngs Moduli (GPa) = 56.92289 56.92289 56.10083
#
# Poissons Ratio (x) = 0.22804 0.39333
# Poissons Ratio (y) = 0.22804 0.39333
# Poissons Ratio (z) = 0.39909 0.39909
#
# Static dielectric constant tensor:
#      x y z
#    x 3.350110 0.000000 0.000000 
#    y 0.000000 3.350110 0.000000 
#    z 0.000000 0.000000 3.244590 
# 
# 
# High freq. dielectric constant tensor:
#      x y z
#    x 1.707360 0.000000 0.000000 
#    y 0.000000 1.707360 0.000000 
#    z 0.000000 0.000000 1.704990 
# 
# From -- ./inp_files/13038.got.cif
#   From: 2010.03.12/outbox.cif.g09.slc.cpg/sg139_7_cif.got.tgz:13038.got - 2010.04.08 09:46:31.
