data_PCOD8319773
_publ_section_title
;
Structure prediction by ZEFSAII (Michael W. Deem and Ramdas Pophale) SiO2 
 PCOD8319773
Probable space group: I 4/M M M
;
_chemical_formula_sum "Si O2"
_cell_formula_units_Z 176
_cell_length_a 18.396456
_cell_length_b 18.396456
_cell_length_c 27.453457
_cell_angle_alpha 90.000000
_cell_angle_beta 90.000000
_cell_angle_gamma 90.000000
_cell_volume 9291.062289
_symmetry_space_group_name_H-M "I 4/M M M"
_symmetry_group_IT_number 139
_symmetry_cell_setting 'tetragonal'
loop_
_space_group_symop_operation_xyz
x,y,z
-y,x,z
-x,-y,z
y,-x,z
x,-y,-z
-x,y,-z
y,x,-z
-y,-x,-z
-x,-y,-z
y,-x,-z
x,y,-z
-y,x,-z
-x,y,z
x,-y,z
-y,-x,z
y,x,z
1/2+x,1/2+y,1/2+z
1/2-y,1/2+x,1/2+z
1/2-x,1/2-y,1/2+z
1/2+y,1/2-x,1/2+z
1/2+x,1/2-y,1/2-z
1/2-x,1/2+y,1/2-z
1/2+y,1/2+x,1/2-z
1/2-y,1/2-x,1/2-z
1/2-x,1/2-y,1/2-z
1/2+y,1/2-x,1/2-z
1/2+x,1/2+y,1/2-z
1/2-y,1/2+x,1/2-z
1/2-x,1/2+y,1/2+z
1/2+x,1/2-y,1/2+z
1/2-y,1/2-x,1/2+z
1/2+y,1/2+x,1/2+z
loop_
_atom_site_type_symbol
_atom_site_label
_atom_site_fract_x
_atom_site_fract_y
_atom_site_fract_z
Si Si1 0.082153 0.726089 0.398874
Si Si2 0.181002 0.181002 0.874903
Si Si3 0.080954 0.418697 0.352769
Si Si4 0.584012 0.584012 0.444315
Si Si5 0.916789 0.726327 0.803089
Si Si6 0.277899 0.277899 0.055039
Si Si7 0.702194 0.583727 0.796201
O O1 0.092397 0.638478 0.396974
O O2 0.136531 0.762242 0.437275
O O3 0.101153 0.754024 0.344923
O O4 0.000000 0.747154 0.414322
O O5 0.131705 0.131705 0.908754
O O6 0.131321 0.231731 0.842102
O O7 0.231240 0.231240 0.907909
O O8 0.087888 0.500000 0.375020
O O9 0.139742 0.407027 0.310128
O O10 0.000000 0.406178 0.329979
O O11 0.500000 0.601018 0.433962
O O12 0.603459 0.603459 0.500000
O O13 0.892232 0.746439 0.748560
O O14 0.000000 0.749879 0.811954
O O15 0.257388 0.257388 0.000000
O O16 0.679719 0.500000 0.792720
O O17 0.627664 0.627664 0.794870
#
# Coordination Sequence:
#
# PCOD8319773 Si02
#       7
#    32  16  32  16  32  16  32
#     4  10  21  40  62  85 116 151 188 236 295 352
#     4  12  20  35  54  82 115 152 183 238 288 335
#     4   9  18  35  57  81 115 156 193 228 272 331
#     4   9  19  36  56  77 105 147 195 237 281 334
#     4  10  20  33  53  85 120 154 190 227 271 333
#     4  12  25  40  61  89 112 144 198 248 304 358
#     4  10  20  35  56  84 118 156 195 230 276 346
#
# _framework density 18.942936
#
# number of rings (size 3 to 8) (size 9 to 14) (size 15 to 20)
#    0.000    1.909    3.636    1.091    0.000    1.273 
#    0.000    4.545    0.000    9.545    0.000    3.182 
#    0.000    0.000    0.000    0.000    0.000    0.000 
#
# Total GULP energy -1091132.364282 kJ/mol
# GULP energy per Si atom -12399.231412 kJ/mol
# Density = 1.889982 g / cm^3
# Si number density = 18.942936 Si / 1000 Ang^3
#
#
#
# Elastic Constant Matrix: (Units=GPa)
#
#
# Indices 1 2 3 4 5 6 
#
# 1 89.8152 48.2596 28.7731 0.0000 0.0000 0.0000
# 2 48.2596 89.8152 28.7731 0.0000 0.0000 0.0000
# 3 28.7731 28.7731 74.0402 0.0000 0.0000 0.0000
# 4 0.0000 0.0000 0.0000 5.7327 0.0000 0.0000
# 5 0.0000 0.0000 0.0000 0.0000 5.7327 0.0000
# 6 0.0000 0.0000 0.0000 0.0000 0.0000 31.2677
#
#
#
# Elastic Compliance Matrix: (Units=1/GPa)
#
#
# Indices 1 2 3 4 5 6 
#
# 1 0.016353 -0.007711 -0.003358 0.000000 0.000000 0.000000
# 2 -0.007711 0.016353 -0.003358 0.000000 0.000000 0.000000
# 3 -0.003358 -0.003358 0.016116 0.000000 0.000000 0.000000
# 4 0.000000 0.000000 0.000000 0.174437 0.000000 0.000000
# 5 0.000000 0.000000 0.000000 0.000000 0.174437 0.000000
# 6 0.000000 0.000000 0.000000 0.000000 0.000000 0.031982
#
#
# Mechanical properties :
#
#
# Convention : Reuss Voigt Hill
#
# Bulk Modulus (GPa) = 50.08281 51.69804 50.89042
# Shear Modulus (GPa) = 10.74830 18.40427 14.57628
#
# Velocity S-wave (km/s) = 2.38461 3.12037 2.77697
# Velocity P-wave (km/s) = 5.83764 6.35083 6.09963
#
# Compressibility (1/GPa) = 0.01996693
#
# Stress axis : x y z
#
# Youngs Moduli (GPa) = 61.15017 61.15017 62.04823
#
# Poissons Ratio (x) = 0.47153 0.20839
# Poissons Ratio (y) = 0.47153 0.20839
# Poissons Ratio (z) = 0.20537 0.20537
#
# Static dielectric constant tensor:
#      x y z
#    x 3.639140 0.000000 0.000000 
#    y 0.000000 3.639140 0.000000 
#    z 0.000000 0.000000 3.156050 
# 
# 
# High freq. dielectric constant tensor:
#      x y z
#    x 1.748330 0.000000 0.000000 
#    y 0.000000 1.748330 0.000000 
#    z 0.000000 0.000000 1.702730 
# 
# From -- ./inp_files/13165.got.cif
#   From: 2010.03.12/outbox.cif.g09.slc.cpg/sg139_7_cif.got.tgz:13165.got - 2010.04.08 09:46:31.
