data_PCOD8319372
_publ_section_title
;
Structure prediction by ZEFSAII (Michael W. Deem and Ramdas Pophale) SiO2 
 PCOD8319372
Probable space group: I 4/M M M
;
_chemical_formula_sum "Si O2"
_cell_formula_units_Z 208
_cell_length_a 26.544966
_cell_length_b 26.544966
_cell_length_c 17.817023
_cell_angle_alpha 90.000000
_cell_angle_beta 90.000000
_cell_angle_gamma 90.000000
_cell_volume 12554.501920
_symmetry_space_group_name_H-M "I 4/M M M"
_symmetry_group_IT_number 139
_symmetry_cell_setting 'tetragonal'
loop_
_space_group_symop_operation_xyz
x,y,z
-y,x,z
-x,-y,z
y,-x,z
x,-y,-z
-x,y,-z
y,x,-z
-y,-x,-z
-x,-y,-z
y,-x,-z
x,y,-z
-y,x,-z
-x,y,z
x,-y,z
-y,-x,z
y,x,z
1/2+x,1/2+y,1/2+z
1/2-y,1/2+x,1/2+z
1/2-x,1/2-y,1/2+z
1/2+y,1/2-x,1/2+z
1/2+x,1/2-y,1/2-z
1/2-x,1/2+y,1/2-z
1/2+y,1/2+x,1/2-z
1/2-y,1/2-x,1/2-z
1/2-x,1/2-y,1/2-z
1/2+y,1/2-x,1/2-z
1/2+x,1/2+y,1/2-z
1/2-y,1/2+x,1/2-z
1/2-x,1/2+y,1/2+z
1/2+x,1/2-y,1/2+z
1/2-y,1/2-x,1/2+z
1/2+y,1/2+x,1/2+z
loop_
_atom_site_type_symbol
_atom_site_label
_atom_site_fract_x
_atom_site_fract_y
_atom_site_fract_z
Si Si1 0.309138 0.232999 0.585758
Si Si2 0.638305 0.135504 0.914973
Si Si3 0.057763 0.745944 0.260318
Si Si4 0.809742 0.890013 0.865989
Si Si5 0.782995 0.558175 0.917672
Si Si6 0.441099 0.866878 0.708311
Si Si7 0.057422 0.858327 0.000000
O O1 0.295078 0.222321 0.500000
O O2 0.259415 0.259415 0.624238
O O3 0.326613 0.180197 0.622785
O O4 0.355161 0.271585 0.588753
O O5 0.585211 0.163318 0.909493
O O6 0.636526 0.081549 0.875163
O O7 0.654340 0.123536 0.000000
O O8 0.089642 0.783134 0.208898
O O9 0.071883 0.754805 0.348853
O O10 0.068552 0.686925 0.246826
O O11 0.000000 0.758802 0.243716
O O12 0.858698 0.858698 0.839504
O O13 0.825616 0.933438 0.924566
O O14 0.797370 0.500000 0.911279
O O15 0.758601 0.570768 0.000000
O O16 0.500000 0.880669 0.704349
O O17 0.411181 0.911181 0.750000
O O18 0.093120 0.906881 0.000000
O O19 0.000000 0.876695 0.000000
#
# Coordination Sequence:
#
# PCOD8319372 Si02
#       7
#    32  32  32  32  32  32  16
#     4   9  16  28  45  67  98 133 160 188 236 290
#     4  10  19  32  51  72  97 125 159 204 247 301
#     4  10  19  32  51  71  93 125 162 202 243 292
#     4  10  18  30  48  73 102 131 164 202 243 285
#     4   9  18  33  53  71  88 119 161 203 249 299
#     4  11  22  35  50  69  95 124 159 207 257 312
#     4  10  20  33  50  74 108 146 179 209 239 281
#
# _framework density 16.567761999999998
#
# number of rings (size 3 to 8) (size 9 to 14) (size 15 to 20)
#    0.000    2.154    3.846    0.462    0.000    0.538 
#    0.000    0.769    0.000    4.154    0.000    3.231 
#    0.000    0.000    0.000    0.000    0.000    0.000 
#
# Total GULP energy -1288571.231744 kJ/mol
# GULP energy per Si atom -12390.107998 kJ/mol
# Density = 1.653005 g / cm^3
# Si number density = 16.567762 Si / 1000 Ang^3
#
#
#
# Elastic Constant Matrix: (Units=GPa)
#
#
# Indices 1 2 3 4 5 6 
#
# 1 79.4869 41.3939 45.3381 0.0000 0.0000 0.0000
# 2 41.3939 79.4881 45.3382 0.0000 0.0000 0.0000
# 3 45.3381 45.3382 106.5987 0.0000 0.0000 0.0000
# 4 0.0000 0.0000 0.0000 21.9238 0.0000 0.0000
# 5 0.0000 0.0000 0.0000 0.0000 21.9238 0.0000
# 6 0.0000 0.0000 0.0000 0.0000 0.0000 18.7852
#
#
#
# Elastic Compliance Matrix: (Units=1/GPa)
#
#
# Indices 1 2 3 4 5 6 
#
# 1 0.019200 -0.007051 -0.005167 0.000000 0.000000 0.000000
# 2 -0.007051 0.019200 -0.005167 0.000000 0.000000 0.000000
# 3 -0.005167 -0.005167 0.013776 0.000000 0.000000 0.000000
# 4 0.000000 0.000000 0.000000 0.045613 0.000000 0.000000
# 5 0.000000 0.000000 0.000000 0.000000 0.045612 0.000000
# 6 0.000000 0.000000 0.000000 0.000000 0.000000 0.053233
#
#
# Mechanical properties :
#
#
# Convention : Reuss Voigt Hill
#
# Bulk Modulus (GPa) = 57.45383 58.85713 58.15548
# Shear Modulus (GPa) = 21.07870 21.42679 21.25275
#
# Velocity S-wave (km/s) = 3.57076 3.60012 3.58547
# Velocity P-wave (km/s) = 7.19401 7.27210 7.23316
#
# Compressibility (1/GPa) = 0.01740528
#
# Stress axis : x y z
#
# Youngs Moduli (GPa) = 52.08344 52.08441 72.58938
#
# Poissons Ratio (x) = 0.36727 0.37507
# Poissons Ratio (y) = 0.36726 0.37506
# Poissons Ratio (z) = 0.26911 0.26911
#
# Static dielectric constant tensor:
#      x y z
#    x 3.065210 0.000000 0.000000 
#    y 0.000000 3.065200 0.000000 
#    z 0.000000 0.000000 3.268080 
# 
# 
# High freq. dielectric constant tensor:
#      x y z
#    x 1.622380 0.000000 0.000000 
#    y 0.000000 1.622380 0.000000 
#    z 0.000000 0.000000 1.639350 
# 
# From -- ./inp_files/8970.got.cif
#   From: 2010.03.12/outbox.cif.g09.slc.cpg/sg139_5_cif.got.tgz:8970.got - 2010.04.08 09:46:31.
