data_PCOD8319918
_publ_section_title
;
Structure prediction by ZEFSAII (Michael W. Deem and Ramdas Pophale) SiO2 
 PCOD8319918
Probable space group: I 4/M M M
;
_chemical_formula_sum "Si O2"
_cell_formula_units_Z 160
_cell_length_a 29.093877
_cell_length_b 29.093877
_cell_length_c 10.257408
_cell_angle_alpha 90.000000
_cell_angle_beta 90.000000
_cell_angle_gamma 90.000000
_cell_volume 8682.420737
_symmetry_space_group_name_H-M "I 4/M M M"
_symmetry_group_IT_number 139
_symmetry_cell_setting 'tetragonal'
loop_
_space_group_symop_operation_xyz
x,y,z
-y,x,z
-x,-y,z
y,-x,z
x,-y,-z
-x,y,-z
y,x,-z
-y,-x,-z
-x,-y,-z
y,-x,-z
x,y,-z
-y,x,-z
-x,y,z
x,-y,z
-y,-x,z
y,x,z
1/2+x,1/2+y,1/2+z
1/2-y,1/2+x,1/2+z
1/2-x,1/2-y,1/2+z
1/2+y,1/2-x,1/2+z
1/2+x,1/2-y,1/2-z
1/2-x,1/2+y,1/2-z
1/2+y,1/2+x,1/2-z
1/2-y,1/2-x,1/2-z
1/2-x,1/2-y,1/2-z
1/2+y,1/2-x,1/2-z
1/2+x,1/2+y,1/2-z
1/2-y,1/2+x,1/2-z
1/2-x,1/2+y,1/2+z
1/2+x,1/2-y,1/2+z
1/2-y,1/2-x,1/2+z
1/2+y,1/2+x,1/2+z
loop_
_atom_site_type_symbol
_atom_site_label
_atom_site_fract_x
_atom_site_fract_y
_atom_site_fract_z
Si Si1 0.851938 0.222241 0.500000
Si Si2 0.721109 0.351863 0.500000
Si Si3 0.362888 0.862888 0.250000
Si Si4 0.873879 0.948342 0.650989
Si Si5 0.052138 0.312874 0.152097
Si Si6 0.411928 0.717561 0.746196
Si Si7 0.181376 0.322578 0.000000
O O1 0.826371 0.173630 0.500000
O O2 0.882609 0.227177 0.373424
O O3 0.815078 0.263769 0.500000
O O4 0.697906 0.302095 0.500000
O O5 0.705243 0.378744 0.372570
O O6 0.775499 0.346121 0.500000
O O7 0.352539 0.916074 0.215747
O O8 0.350825 0.831091 0.128301
O O9 0.862252 0.938670 0.500000
O O10 0.912750 0.912750 0.700566
O O11 0.826913 0.943834 0.732661
O O12 0.892924 0.000000 0.670512
O O13 0.058253 0.262833 0.216721
O O14 0.000000 0.329053 0.173920
O O15 0.064519 0.308412 0.000000
#
# Coordination Sequence:
#
# PCOD8319918 Si02
#       7
#    16  16  16  32  32  32  16
#     4  12  23  34  56  84 123 166 195 239 302 345
#     4  12  23  36  56  84 121 168 209 235 282 353
#     4  12  20  40  61  89 120 160 198 242 300 352
#     4  10  21  37  57  81 111 147 191 248 308 360
#     4  11  23  41  66  92 123 160 196 244 299 351
#     4  12  21  39  57  86 118 153 201 246 293 351
#     4  12  21  38  56  82 124 161 204 246 280 339
#
# _framework density 18.428041
#
# number of rings (size 3 to 8) (size 9 to 14) (size 15 to 20)
#    0.000    0.600    7.000    2.700    0.000    0.200 
#    0.000    5.500    0.000    0.300    0.000    1.400 
#    0.000    2.400    0.000    0.000    0.000    0.000 
#
# Total GULP energy -992169.757180 kJ/mol
# GULP energy per Si atom -12402.121965 kJ/mol
# Density = 1.838610 g / cm^3
# Si number density = 18.428041 Si / 1000 Ang^3
#
#
#
# Elastic Constant Matrix: (Units=GPa)
#
#
# Indices 1 2 3 4 5 6 
#
# 1 119.7135 56.7687 38.7578 0.0000 0.0000 0.0000
# 2 56.7687 119.7167 38.7588 0.0000 0.0000 0.0000
# 3 38.7578 38.7588 121.9470 0.0000 0.0000 0.0000
# 4 0.0000 0.0000 0.0000 27.0198 0.0000 0.0000
# 5 0.0000 0.0000 0.0000 0.0000 27.0200 0.0000
# 6 0.0000 0.0000 0.0000 0.0000 0.0000 26.7130
#
#
#
# Elastic Compliance Matrix: (Units=1/GPa)
#
#
# Indices 1 2 3 4 5 6 
#
# 1 0.011236 -0.004650 -0.002093 0.000000 0.000000 0.000000
# 2 -0.004650 0.011236 -0.002093 0.000000 0.000000 0.000000
# 3 -0.002093 -0.002093 0.009531 0.000000 0.000000 0.000000
# 4 0.000000 0.000000 0.000000 0.037010 0.000000 0.000000
# 5 0.000000 0.000000 0.000000 0.000000 0.037010 0.000000
# 6 0.000000 0.000000 0.000000 0.000000 0.000000 0.037435
#
#
# Mechanical properties :
#
#
# Convention : Reuss Voigt Hill
#
# Bulk Modulus (GPa) = 69.78570 69.99420 69.88995
# Shear Modulus (GPa) = 30.13735 31.29004 30.71370
#
# Velocity S-wave (km/s) = 4.04840 4.12510 4.08693
# Velocity P-wave (km/s) = 7.73332 7.79445 7.76395
#
# Compressibility (1/GPa) = 0.01432958
#
# Stress axis : x y z
#
# Youngs Moduli (GPa) = 88.99815 89.00022 104.92328
#
# Poissons Ratio (x) = 0.41389 0.21961
# Poissons Ratio (y) = 0.41388 0.21962
# Poissons Ratio (z) = 0.18628 0.18629
#
# Static dielectric constant tensor:
#      x y z
#    x 3.341930 0.000000 0.000000 
#    y 0.000000 3.341930 0.000000 
#    z 0.000000 0.000000 3.522490 
# 
# 
# High freq. dielectric constant tensor:
#      x y z
#    x 1.709670 0.000000 0.000000 
#    y 0.000000 1.709670 0.000000 
#    z 0.000000 0.000000 1.721760 
# 
# From -- ./inp_files/2289.got.cif
#   From: 2010.03.12/outbox.cif.g09.slc.cpg/sg139_2_cif.got.tgz:2289.got - 2010.04.08 09:46:31.
