data_PCOD8319380
_publ_section_title
;
Structure prediction by ZEFSAII (Michael W. Deem and Ramdas Pophale) SiO2 
 PCOD8319380
Probable space group: I 4/M M M
;
_chemical_formula_sum "Si O2"
_cell_formula_units_Z 160
_cell_length_a 29.643431
_cell_length_b 29.643431
_cell_length_c 10.322048
_cell_angle_alpha 90.000000
_cell_angle_beta 90.000000
_cell_angle_gamma 90.000000
_cell_volume 9070.324220
_symmetry_space_group_name_H-M "I 4/M M M"
_symmetry_group_IT_number 139
_symmetry_cell_setting 'tetragonal'
loop_
_space_group_symop_operation_xyz
x,y,z
-y,x,z
-x,-y,z
y,-x,z
x,-y,-z
-x,y,-z
y,x,-z
-y,-x,-z
-x,-y,-z
y,-x,-z
x,y,-z
-y,x,-z
-x,y,z
x,-y,z
-y,-x,z
y,x,z
1/2+x,1/2+y,1/2+z
1/2-y,1/2+x,1/2+z
1/2-x,1/2-y,1/2+z
1/2+y,1/2-x,1/2+z
1/2+x,1/2-y,1/2-z
1/2-x,1/2+y,1/2-z
1/2+y,1/2+x,1/2-z
1/2-y,1/2-x,1/2-z
1/2-x,1/2-y,1/2-z
1/2+y,1/2-x,1/2-z
1/2+x,1/2+y,1/2-z
1/2-y,1/2+x,1/2-z
1/2-x,1/2+y,1/2+z
1/2+x,1/2-y,1/2+z
1/2-y,1/2-x,1/2+z
1/2+y,1/2+x,1/2+z
loop_
_atom_site_type_symbol
_atom_site_label
_atom_site_fract_x
_atom_site_fract_y
_atom_site_fract_z
Si Si1 0.819529 0.609929 0.500000
Si Si2 0.843658 0.226761 0.000000
Si Si3 0.449705 0.378287 0.646758
Si Si4 0.183183 0.392059 0.000000
Si Si5 0.099727 0.203223 0.754205
Si Si6 0.446646 0.204903 0.253350
Si Si7 0.652615 0.723513 0.000000
O O1 0.780790 0.649054 0.500000
O O2 0.867053 0.635404 0.500000
O O3 0.817838 0.577864 0.624656
O O4 0.866514 0.206385 0.126353
O O5 0.791067 0.208934 0.000000
O O6 0.448038 0.358994 0.500000
O O7 0.500000 0.385053 0.696428
O O8 0.426830 0.426830 0.654639
O O9 0.425383 0.344061 0.742870
O O10 0.185188 0.424254 0.875859
O O11 0.222154 0.353089 0.000000
O O12 0.061409 0.241641 0.758830
O O13 0.128299 0.203862 0.624685
O O14 0.500000 0.194626 0.256059
O O15 0.704817 0.704817 0.000000
#
# Coordination Sequence:
#
# PCOD8319380 Si02
#       7
#    16  16  32  16  32  32  16
#     4  10  21  34  52  79 109 138 171 215 251 294
#     4  10  18  30  50  73 101 138 175 208 246 294
#     4  10  19  30  46  66  90 121 159 208 264 317
#     4  10  21  36  52  75 111 144 169 207 255 300
#     4  10  19  32  50  73  99 128 168 217 259 295
#     4  10  20  35  55  78 104 135 172 212 254 301
#     4  10  20  32  50  73 103 142 177 206 242 296
#
# _framework density 17.639942000000001
#
# number of rings (size 3 to 8) (size 9 to 14) (size 15 to 20)
#    0.000    2.000    1.000    3.600    0.000    0.600 
#    0.000    2.500    0.000    7.200    0.000    0.000 
#    0.000   30.400    0.000    0.000    0.000    0.000 
#
# Total GULP energy -991784.446451 kJ/mol
# GULP energy per Si atom -12397.305581 kJ/mol
# Density = 1.759979 g / cm^3
# Si number density = 17.639942 Si / 1000 Ang^3
#
#
#
# Elastic Constant Matrix: (Units=GPa)
#
#
# Indices 1 2 3 4 5 6 
#
# 1 79.8272 54.4936 35.4258 0.0000 0.0000 0.0000
# 2 54.4936 79.8253 35.4253 0.0000 0.0000 0.0000
# 3 35.4258 35.4253 129.5979 0.0000 0.0000 0.0000
# 4 0.0000 0.0000 0.0000 -19.8043 0.0000 0.0000
# 5 0.0000 0.0000 0.0000 0.0000 -19.6425 0.0000
# 6 0.0000 0.0000 0.0000 0.0000 0.0000 23.0858
#
#
#
# Elastic Compliance Matrix: (Units=1/GPa)
#
#
# Indices 1 2 3 4 5 6 
#
# 1 0.024087 -0.015388 -0.002378 0.000000 0.000000 0.000000
# 2 -0.015388 0.024087 -0.002378 0.000000 0.000000 0.000000
# 3 -0.002378 -0.002378 0.009016 0.000000 0.000000 0.000000
# 4 0.000000 0.000000 0.000000 -0.050494 0.000000 0.000000
# 5 0.000000 0.000000 0.000000 0.000000 -0.050910 0.000000
# 6 0.000000 0.000000 0.000000 0.000000 0.000000 0.043317
#
#
# Mechanical properties :
#
#
# Convention : Reuss Voigt Hill
#
# Bulk Modulus (GPa) = 59.16136 59.99328 59.57732
# Shear Modulus (GPa) = 111.05111 7.65485 59.35298
#
# Velocity S-wave (km/s) = 7.94299 2.08541 5.80689
# Velocity P-wave (km/s) = 10.85046 6.31524 8.87735
#
# Compressibility (1/GPa) = 0.01690293
#
# Stress axis : x y z
#
# Youngs Moduli (GPa) = 41.51668 41.51569 110.91161
#
# Poissons Ratio (x) = 0.63883 0.26374
# Poissons Ratio (y) = 0.63885 0.26374
# Poissons Ratio (z) = 0.09872 0.09872
#
# Static dielectric constant tensor:
#      x y z
#    x 3.124170 0.000000 0.000000 
#    y 0.000000 3.124170 0.000000 
#    z 0.000000 0.000000 3.403160 
# 
# 
# High freq. dielectric constant tensor:
#      x y z
#    x 1.667120 0.000000 0.000000 
#    y 0.000000 1.667120 0.000000 
#    z 0.000000 0.000000 1.690800 
# 
# From -- ./inp_files/2325.got.cif
#   From: 2010.03.12/outbox.cif.g09.slc.cpg/sg139_2_cif.got.tgz:2325.got - 2010.04.08 09:46:31.
