data_PCOD8319917
_publ_section_title
;
Structure prediction by ZEFSAII (Michael W. Deem and Ramdas Pophale) SiO2 
 PCOD8319917
Probable space group: I 4/M M M
;
_chemical_formula_sum "Si O2"
_cell_formula_units_Z 96
_cell_length_a 24.185618
_cell_length_b 24.185618
_cell_length_c 8.543356
_cell_angle_alpha 90.000000
_cell_angle_beta 90.000000
_cell_angle_gamma 90.000000
_cell_volume 4997.385841
_symmetry_space_group_name_H-M "I 4/M M M"
_symmetry_group_IT_number 139
_symmetry_cell_setting 'tetragonal'
loop_
_space_group_symop_operation_xyz
x,y,z
-y,x,z
-x,-y,z
y,-x,z
x,-y,-z
-x,y,-z
y,x,-z
-y,-x,-z
-x,-y,-z
y,-x,-z
x,y,-z
-y,x,-z
-x,y,z
x,-y,z
-y,-x,z
y,x,z
1/2+x,1/2+y,1/2+z
1/2-y,1/2+x,1/2+z
1/2-x,1/2-y,1/2+z
1/2+y,1/2-x,1/2+z
1/2+x,1/2-y,1/2-z
1/2-x,1/2+y,1/2-z
1/2+y,1/2+x,1/2-z
1/2-y,1/2-x,1/2-z
1/2-x,1/2-y,1/2-z
1/2+y,1/2-x,1/2-z
1/2+x,1/2+y,1/2-z
1/2-y,1/2+x,1/2-z
1/2-x,1/2+y,1/2+z
1/2+x,1/2-y,1/2+z
1/2-y,1/2-x,1/2+z
1/2+y,1/2+x,1/2+z
loop_
_atom_site_type_symbol
_atom_site_label
_atom_site_fract_x
_atom_site_fract_y
_atom_site_fract_z
Si Si1 0.643953 0.064333 0.817722
Si Si2 0.349548 0.349548 0.685084
Si Si3 0.353569 0.229875 0.816465
Si Si4 0.437924 0.562077 0.313940
O O1 0.585428 0.085428 0.750000
O O2 0.692612 0.093773 0.723296
O O3 0.648490 0.000000 0.786296
O O4 0.648956 0.079526 0.000000
O O5 0.350827 0.350827 0.500000
O O6 0.365695 0.288968 0.742372
O O7 0.393800 0.393800 0.753996
O O8 0.297430 0.202571 0.750000
O O9 0.346114 0.236581 0.000000
O O10 0.422469 0.500000 0.255966
O O11 0.436539 0.563462 0.500000
#
# Coordination Sequence:
#
# PCOD8319917 Si02
#       4
#    32  16  32  16
#     4  10  21  37  57  81 110 145 185 228 275 326
#     4  11  21  34  56  85 113 142 179 222 269 327
#     4  11  22  37  56  79 110 145 182 226 275 325
#     4   8  16  33  56  81 108 138 174 217 262 308
#
# _framework density 19.210044
#
# number of rings (size 3 to 8) (size 9 to 14) (size 15 to 20)
#    0.000    1.833    0.000    7.500    0.000    4.333 
#    0.000    5.000    0.000    3.000    0.000    4.667 
#    0.000    0.000    0.000    0.000    0.000    0.000 
#
# Total GULP energy -595247.407988 kJ/mol
# GULP energy per Si atom -12400.987666 kJ/mol
# Density = 1.916632 g / cm^3
# Si number density = 19.210044 Si / 1000 Ang^3
#
#
#
# Elastic Constant Matrix: (Units=GPa)
#
#
# Indices 1 2 3 4 5 6 
#
# 1 140.8111 68.2822 36.3400 0.0000 0.0000 0.0000
# 2 68.2822 140.8029 36.3417 0.0000 0.0000 0.0000
# 3 36.3400 36.3417 91.4938 0.0000 0.0000 0.0000
# 4 0.0000 0.0000 0.0000 28.2239 0.0000 0.0000
# 5 0.0000 0.0000 0.0000 0.0000 28.2241 0.0000
# 6 0.0000 0.0000 0.0000 0.0000 0.0000 28.8123
#
#
#
# Elastic Compliance Matrix: (Units=1/GPa)
#
#
# Indices 1 2 3 4 5 6 
#
# 1 0.009668 -0.004120 -0.002204 0.000000 0.000000 0.000000
# 2 -0.004120 0.009669 -0.002204 0.000000 0.000000 0.000000
# 3 -0.002204 -0.002204 0.012680 0.000000 0.000000 0.000000
# 4 0.000000 0.000000 0.000000 0.035431 0.000000 0.000000
# 5 0.000000 0.000000 0.000000 0.000000 0.035431 0.000000
# 6 0.000000 0.000000 0.000000 0.000000 0.000000 0.034707
#
#
# Mechanical properties :
#
#
# Convention : Reuss Voigt Hill
#
# Bulk Modulus (GPa) = 66.83484 72.78174 69.80829
# Shear Modulus (GPa) = 31.32252 32.52831 31.92541
#
# Velocity S-wave (km/s) = 4.04236 4.11943 4.08108
# Velocity P-wave (km/s) = 7.52693 7.78434 7.65672
#
# Compressibility (1/GPa) = 0.01496226
#
# Stress axis : x y z
#
# Youngs Moduli (GPa) = 103.43182 103.42402 78.86131
#
# Poissons Ratio (x) = 0.42609 0.17378
# Poissons Ratio (y) = 0.42612 0.17383
# Poissons Ratio (z) = 0.22793 0.22797
#
# Static dielectric constant tensor:
#      x y z
#    x 3.690250 0.000000 0.000000 
#    y 0.000000 3.690240 0.000000 
#    z 0.000000 0.000000 3.502450 
# 
# 
# High freq. dielectric constant tensor:
#      x y z
#    x 1.752030 0.000000 0.000000 
#    y 0.000000 1.752030 0.000000 
#    z 0.000000 0.000000 1.747010 
# 
# From -- ./inp_files/1128.got.cif
#   From: 2010.03.12/outbox.cif.g09.slc.cpg/sg139_1_cif.got.tgz:1128.got - 2010.04.08 09:46:31.
