data_PCOD8319723
_publ_section_title
;
Structure prediction by ZEFSAII (Michael W. Deem and Ramdas Pophale) SiO2 
 PCOD8319723
Probable space group: I 4/M M M
;
_chemical_formula_sum "Si O2"
_cell_formula_units_Z 144
_cell_length_a 17.488276
_cell_length_b 17.488276
_cell_length_c 31.204317
_cell_angle_alpha 90.000000
_cell_angle_beta 90.000000
_cell_angle_gamma 90.000000
_cell_volume 9543.521991
_symmetry_space_group_name_H-M "I 4/M M M"
_symmetry_group_IT_number 139
_symmetry_cell_setting 'tetragonal'
loop_
_space_group_symop_operation_xyz
x,y,z
-y,x,z
-x,-y,z
y,-x,z
x,-y,-z
-x,y,-z
y,x,-z
-y,-x,-z
-x,-y,-z
y,-x,-z
x,y,-z
-y,x,-z
-x,y,z
x,-y,z
-y,-x,z
y,x,z
1/2+x,1/2+y,1/2+z
1/2-y,1/2+x,1/2+z
1/2-x,1/2-y,1/2+z
1/2+y,1/2-x,1/2+z
1/2+x,1/2-y,1/2-z
1/2-x,1/2+y,1/2-z
1/2+y,1/2+x,1/2-z
1/2-y,1/2-x,1/2-z
1/2-x,1/2-y,1/2-z
1/2+y,1/2-x,1/2-z
1/2+x,1/2+y,1/2-z
1/2-y,1/2+x,1/2-z
1/2-x,1/2+y,1/2+z
1/2+x,1/2-y,1/2+z
1/2-y,1/2-x,1/2+z
1/2+y,1/2+x,1/2+z
loop_
_atom_site_type_symbol
_atom_site_label
_atom_site_fract_x
_atom_site_fract_y
_atom_site_fract_z
Si Si1 0.500000 0.091058 0.407138
Si Si2 0.864165 0.635836 0.750000
Si Si3 0.090822 0.500000 0.309642
Si Si4 0.412822 0.289746 0.106296
Si Si5 0.408927 0.151973 0.048282
Si Si6 0.911750 0.787823 0.294933
O O1 0.500000 0.119812 0.358352
O O2 0.425962 0.123940 0.431478
O O3 0.500000 0.000000 0.408016
O O4 0.877302 0.576090 0.712012
O O5 0.873742 0.721184 0.732710
O O6 0.000000 0.500000 0.305609
O O7 0.500000 0.308461 0.094286
O O8 0.366236 0.366236 0.096663
O O9 0.379302 0.222254 0.076851
O O10 0.405454 0.263602 0.155463
O O11 0.500000 0.149387 0.048894
O O12 0.377797 0.160982 0.000000
O O13 0.866648 0.866648 0.286082
O O14 0.000000 0.800360 0.281699
#
# Coordination Sequence:
#
# PCOD8319723 Si02
#       6
#    16  16  16  32  32  32
#     4   9  17  26  41  62  86 115 143 175 217 264
#     4  12  18  30  44  68  92 117 151 186 232 276
#     4  11  18  27  42  65  95 121 145 181 223 278
#     4   9  18  31  45  63  86 116 150 187 225 260
#     4   9  16  27  42  61  84 111 144 181 220 264
#     4  10  20  33  48  65  89 119 155 193 231 273
#
# _framework density 15.088768999999999
#
# number of rings (size 3 to 8) (size 9 to 14) (size 15 to 20)
#    0.000    2.222    2.222    2.000    0.000    5.778 
#    0.000    2.222    0.000    0.000    0.000    3.111 
#    0.000    0.000    0.000    0.000    0.000    0.222 
#
# Total GULP energy -892846.157980 kJ/mol
# GULP energy per Si atom -12400.641083 kJ/mol
# Density = 1.505443 g / cm^3
# Si number density = 15.088769 Si / 1000 Ang^3
#
#
#
# Elastic Constant Matrix: (Units=GPa)
#
#
# Indices 1 2 3 4 5 6 
#
# 1 85.1562 50.9679 47.9364 0.0000 0.0000 0.0000
# 2 50.9679 85.1568 47.9369 0.0000 0.0000 0.0000
# 3 47.9364 47.9369 92.6578 0.0000 0.0000 0.0000
# 4 0.0000 0.0000 0.0000 29.3738 0.0000 0.0000
# 5 0.0000 0.0000 0.0000 0.0000 29.3633 0.0000
# 6 0.0000 0.0000 0.0000 0.0000 0.0000 17.8717
#
#
#
# Elastic Compliance Matrix: (Units=1/GPa)
#
#
# Indices 1 2 3 4 5 6 
#
# 1 0.020404 -0.008846 -0.005979 0.000000 0.000000 0.000000
# 2 -0.008846 0.020403 -0.005979 0.000000 0.000000 0.000000
# 3 -0.005979 -0.005979 0.016979 0.000000 0.000000 0.000000
# 4 0.000000 0.000000 0.000000 0.034044 0.000000 0.000000
# 5 0.000000 0.000000 0.000000 0.000000 0.034056 0.000000
# 6 0.000000 0.000000 0.000000 0.000000 0.000000 0.055954
#
#
# Mechanical properties :
#
#
# Convention : Reuss Voigt Hill
#
# Bulk Modulus (GPa) = 61.81612 61.85036 61.83324
# Shear Modulus (GPa) = 21.84913 23.06373 22.45643
#
# Velocity S-wave (km/s) = 3.80944 3.91389 3.86202
# Velocity P-wave (km/s) = 7.77215 7.84249 7.80740
#
# Compressibility (1/GPa) = 0.01617701
#
# Stress axis : x y z
#
# Youngs Moduli (GPa) = 49.01119 49.01129 58.89569
#
# Poissons Ratio (x) = 0.43355 0.35215
# Poissons Ratio (y) = 0.43355 0.35216
# Poissons Ratio (z) = 0.29305 0.29306
#
# Static dielectric constant tensor:
#      x y z
#    x 2.793300 0.000000 0.000000 
#    y 0.000000 2.793290 0.000000 
#    z 0.000000 0.000000 3.062140 
# 
# 
# High freq. dielectric constant tensor:
#      x y z
#    x 1.558630 0.000000 0.000000 
#    y 0.000000 1.558630 0.000000 
#    z 0.000000 0.000000 1.584400 
# 
# From -- ./inp_files/12864.got.cif
#   From: 2010.03.12/outbox.cif.g09.slc.cpg/sg139_7_cif.got.tgz:12864.got - 2010.04.08 09:46:31.
