data_PCOD8319559
_publ_section_title
;
Structure prediction by ZEFSAII (Michael W. Deem and Ramdas Pophale) SiO2 
 PCOD8319559
Probable space group: I 4/M M M
;
_chemical_formula_sum "Si O2"
_cell_formula_units_Z 176
_cell_length_a 26.942234
_cell_length_b 26.942234
_cell_length_c 13.680015
_cell_angle_alpha 90.000000
_cell_angle_beta 90.000000
_cell_angle_gamma 90.000000
_cell_volume 9930.103638
_symmetry_space_group_name_H-M "I 4/M M M"
_symmetry_group_IT_number 139
_symmetry_cell_setting 'tetragonal'
loop_
_space_group_symop_operation_xyz
x,y,z
-y,x,z
-x,-y,z
y,-x,z
x,-y,-z
-x,y,-z
y,x,-z
-y,-x,-z
-x,-y,-z
y,-x,-z
x,y,-z
-y,x,-z
-x,y,z
x,-y,z
-y,-x,z
y,x,z
1/2+x,1/2+y,1/2+z
1/2-y,1/2+x,1/2+z
1/2-x,1/2-y,1/2+z
1/2+y,1/2-x,1/2+z
1/2+x,1/2-y,1/2-z
1/2-x,1/2+y,1/2-z
1/2+y,1/2+x,1/2-z
1/2-y,1/2-x,1/2-z
1/2-x,1/2-y,1/2-z
1/2+y,1/2-x,1/2-z
1/2+x,1/2+y,1/2-z
1/2-y,1/2+x,1/2-z
1/2-x,1/2+y,1/2+z
1/2+x,1/2-y,1/2+z
1/2-y,1/2-x,1/2+z
1/2+y,1/2+x,1/2+z
loop_
_atom_site_type_symbol
_atom_site_label
_atom_site_fract_x
_atom_site_fract_y
_atom_site_fract_z
Si Si1 0.295917 0.884965 0.387274
Si Si2 0.308747 0.123088 0.891149
Si Si3 0.138769 0.943285 0.500000
Si Si4 0.686871 0.605252 0.818490
Si Si5 0.361669 0.057655 0.257165
Si Si6 0.886468 0.805577 0.105976
O O1 0.282392 0.889321 0.500000
O O2 0.325824 0.835194 0.357566
O O3 0.244908 0.883097 0.327732
O O4 0.331573 0.931069 0.357334
O O5 0.325127 0.075961 0.828109
O O6 0.250543 0.131165 0.884540
O O7 0.326773 0.110716 0.000000
O O8 0.089264 0.910737 0.500000
O O9 0.170534 0.933947 0.598757
O O10 0.121898 0.000000 0.500000
O O11 0.655782 0.655782 0.834233
O O12 0.678904 0.583993 0.706312
O O13 0.414202 0.085799 0.250000
O O14 0.373019 0.000000 0.247199
O O15 0.836243 0.836243 0.102376
O O16 0.915303 0.813412 0.000000
#
# Coordination Sequence:
#
# PCOD8319559 Si02
#       6
#    32  32  16  32  32  32
#     4  10  19  32  48  72 103 135 166 207 257 312
#     4   9  18  32  49  69  99 132 170 209 250 305
#     4  10  22  39  58  82 110 140 175 213 255 301
#     4  10  19  32  51  78 112 143 172 210 253 300
#     4  10  21  36  52  70  92 122 166 217 271 322
#     4   9  17  30  48  73 107 146 180 207 242 294
#
# _framework density 17.723883000000001
#
# number of rings (size 3 to 8) (size 9 to 14) (size 15 to 20)
#    0.000    2.364    2.727    0.000    0.000    2.455 
#    0.000    3.636    0.000    0.545    0.000    5.091 
#    0.000    0.000    0.000    7.091    0.000    0.000 
#
# Total GULP energy -1090157.229736 kJ/mol
# GULP energy per Si atom -12388.150338 kJ/mol
# Density = 1.768354 g / cm^3
# Si number density = 17.723883 Si / 1000 Ang^3
#
#
#
# Elastic Constant Matrix: (Units=GPa)
#
#
# Indices 1 2 3 4 5 6 
#
# 1 68.0849 15.4947 28.6406 0.0000 0.0000 0.0000
# 2 15.4947 68.0849 28.6404 0.0000 0.0000 0.0000
# 3 28.6406 28.6404 152.8448 0.0000 0.0000 0.0000
# 4 0.0000 0.0000 0.0000 16.2088 0.0000 0.0000
# 5 0.0000 0.0000 0.0000 0.0000 16.2086 0.0000
# 6 0.0000 0.0000 0.0000 0.0000 0.0000 9.6379
#
#
#
# Elastic Compliance Matrix: (Units=1/GPa)
#
#
# Indices 1 2 3 4 5 6 
#
# 1 0.016371 -0.002644 -0.002572 0.000000 0.000000 0.000000
# 2 -0.002644 0.016371 -0.002572 0.000000 0.000000 0.000000
# 3 -0.002572 -0.002572 0.007507 0.000000 0.000000 0.000000
# 4 0.000000 0.000000 0.000000 0.061695 0.000000 0.000000
# 5 0.000000 0.000000 0.000000 0.000000 0.061696 0.000000
# 6 0.000000 0.000000 0.000000 0.000000 0.000000 0.103757
#
#
# Mechanical properties :
#
#
# Convention : Reuss Voigt Hill
#
# Bulk Modulus (GPa) = 40.53096 48.28511 44.40804
# Shear Modulus (GPa) = 17.17048 22.82700 19.99874
#
# Velocity S-wave (km/s) = 3.11589 3.59266 3.36274
# Velocity P-wave (km/s) = 5.98855 6.67171 6.33934
#
# Compressibility (1/GPa) = 0.02467249
#
# Stress axis : x y z
#
# Youngs Moduli (GPa) = 61.08267 61.08271 133.21613
#
# Poissons Ratio (x) = 0.16148 0.34268
# Poissons Ratio (y) = 0.16148 0.34267
# Poissons Ratio (z) = 0.15712 0.15712
#
# Static dielectric constant tensor:
#      x y z
#    x 2.984180 0.000000 0.000000 
#    y 0.000000 2.984180 0.000000 
#    z 0.000000 0.000000 4.067180 
# 
# 
# High freq. dielectric constant tensor:
#      x y z
#    x 1.655780 0.000000 0.000000 
#    y 0.000000 1.655780 0.000000 
#    z 0.000000 0.000000 1.719260 
# 
# From -- ./inp_files/6410.got.cif
#   From: 2010.03.12/outbox.cif.g09.slc.cpg/sg139_4_cif.got.tgz:6410.got - 2010.04.08 09:46:31.
