data_PCOD8319547
_publ_section_title
;
Structure prediction by ZEFSAII (Michael W. Deem and Ramdas Pophale) SiO2 
 PCOD8319547
Probable space group: I 4/M M M
;
_chemical_formula_sum "Si O2"
_cell_formula_units_Z 144
_cell_length_a 19.076211
_cell_length_b 19.076211
_cell_length_c 22.543756
_cell_angle_alpha 90.000000
_cell_angle_beta 90.000000
_cell_angle_gamma 90.000000
_cell_volume 8203.713976
_symmetry_space_group_name_H-M "I 4/M M M"
_symmetry_group_IT_number 139
_symmetry_cell_setting 'tetragonal'
loop_
_space_group_symop_operation_xyz
x,y,z
-y,x,z
-x,-y,z
y,-x,z
x,-y,-z
-x,y,-z
y,x,-z
-y,-x,-z
-x,-y,-z
y,-x,-z
x,y,-z
-y,x,-z
-x,y,z
x,-y,z
-y,-x,z
y,x,z
1/2+x,1/2+y,1/2+z
1/2-y,1/2+x,1/2+z
1/2-x,1/2-y,1/2+z
1/2+y,1/2-x,1/2+z
1/2+x,1/2-y,1/2-z
1/2-x,1/2+y,1/2-z
1/2+y,1/2+x,1/2-z
1/2-y,1/2-x,1/2-z
1/2-x,1/2-y,1/2-z
1/2+y,1/2-x,1/2-z
1/2+x,1/2+y,1/2-z
1/2-y,1/2+x,1/2-z
1/2-x,1/2+y,1/2+z
1/2+x,1/2-y,1/2+z
1/2-y,1/2-x,1/2+z
1/2+y,1/2+x,1/2+z
loop_
_atom_site_type_symbol
_atom_site_label
_atom_site_fract_x
_atom_site_fract_y
_atom_site_fract_z
Si Si1 0.693698 0.920311 0.762325
Si Si2 0.800278 0.578631 0.398193
Si Si3 0.809690 0.924088 0.000000
Si Si4 0.659167 0.227859 0.931714
Si Si5 0.694106 0.581508 0.166759
O O1 0.624962 0.875039 0.750000
O O2 0.721060 0.913911 0.829651
O O3 0.756276 0.893964 0.720647
O O4 0.673087 0.000000 0.746651
O O5 0.834517 0.500000 0.408754
O O6 0.733780 0.586528 0.440217
O O7 0.848076 0.645472 0.414583
O O8 0.870307 0.870307 0.000000
O O9 0.844597 0.000000 0.000000
O O10 0.736323 0.263678 0.919333
O O11 0.600454 0.268707 0.894976
O O12 0.639269 0.236505 0.000000
O O13 0.677326 0.500000 0.168741
O O14 0.620658 0.620658 0.173726
#
# Coordination Sequence:
#
# PCOD8319547 Si02
#       5
#    32  32  16  32  32
#     4  10  20  35  54  80 111 142 178 217 260 312
#     4  10  19  31  50  78 110 142 175 217 264 310
#     4  10  20  33  50  74 107 145 184 224 266 314
#     4  10  19  32  54  80 104 135 177 223 266 311
#     4  10  22  38  56  80 107 137 175 218 266 317
#
# _framework density 17.553025000000002
#
# number of rings (size 3 to 8) (size 9 to 14) (size 15 to 20)
#    0.000    2.000    3.333    0.667    0.000    3.222 
#    0.000    0.000    0.000    0.667    0.000   10.889 
#    0.000    0.000    0.000    0.000    0.000    0.000 
#
# Total GULP energy -892332.547801 kJ/mol
# GULP energy per Si atom -12393.507608 kJ/mol
# Density = 1.751307 g / cm^3
# Si number density = 17.553025 Si / 1000 Ang^3
#
#
#
# Elastic Constant Matrix: (Units=GPa)
#
#
# Indices 1 2 3 4 5 6 
#
# 1 94.8936 52.6519 40.8364 0.0000 0.0000 0.0000
# 2 52.6519 94.8863 40.8337 0.0000 0.0000 0.0000
# 3 40.8364 40.8337 126.9226 0.0000 0.0000 0.0000
# 4 0.0000 0.0000 0.0000 17.4971 0.0000 0.0000
# 5 0.0000 0.0000 0.0000 0.0000 17.4971 0.0000
# 6 0.0000 0.0000 0.0000 0.0000 0.0000 23.2893
#
#
#
# Elastic Compliance Matrix: (Units=1/GPa)
#
#
# Indices 1 2 3 4 5 6 
#
# 1 0.015960 -0.007714 -0.002653 0.000000 0.000000 0.000000
# 2 -0.007714 0.015961 -0.002653 0.000000 0.000000 0.000000
# 3 -0.002653 -0.002653 0.009586 0.000000 0.000000 0.000000
# 4 0.000000 0.000000 0.000000 0.057152 0.000000 0.000000
# 5 0.000000 0.000000 0.000000 0.000000 0.057152 0.000000
# 6 0.000000 0.000000 0.000000 0.000000 0.000000 0.042938
#
#
# Mechanical properties :
#
#
# Convention : Reuss Voigt Hill
#
# Bulk Modulus (GPa) = 64.65698 65.03849 64.84773
# Shear Modulus (GPa) = 21.74411 23.81540 22.77975
#
# Velocity S-wave (km/s) = 3.52343 3.68743 3.60636
# Velocity P-wave (km/s) = 7.31218 7.43388 7.37328
#
# Compressibility (1/GPa) = 0.01546624
#
# Stress axis : x y z
#
# Youngs Moduli (GPa) = 62.65557 62.65129 104.31878
#
# Poissons Ratio (x) = 0.48332 0.27678
# Poissons Ratio (y) = 0.48336 0.27676
# Poissons Ratio (z) = 0.16624 0.16622
#
# Static dielectric constant tensor:
#      x y z
#    x 3.280100 0.000000 0.000000 
#    y 0.000000 3.280100 0.000000 
#    z 0.000000 0.000000 3.390230 
# 
# 
# High freq. dielectric constant tensor:
#      x y z
#    x 1.665520 0.000000 0.000000 
#    y 0.000000 1.665520 0.000000 
#    z 0.000000 0.000000 1.700250 
# 
# From -- ./inp_files/11459.got.cif
#   From: 2010.03.12/outbox.cif.g09.slc.cpg/sg139_6_cif.got.tgz:11459.got - 2010.04.08 09:46:31.
