data_PCOD8319579
_publ_section_title
;
Structure prediction by ZEFSAII (Michael W. Deem and Ramdas Pophale) SiO2 
 PCOD8319579
Probable space group: I 4/M M M
;
_chemical_formula_sum "Si O2"
_cell_formula_units_Z 176
_cell_length_a 17.538193
_cell_length_b 17.538193
_cell_length_c 32.867096
_cell_angle_alpha 90.000000
_cell_angle_beta 90.000000
_cell_angle_gamma 90.000000
_cell_volume 10109.531348
_symmetry_space_group_name_H-M "I 4/M M M"
_symmetry_group_IT_number 139
_symmetry_cell_setting 'tetragonal'
loop_
_space_group_symop_operation_xyz
x,y,z
-y,x,z
-x,-y,z
y,-x,z
x,-y,-z
-x,y,-z
y,x,-z
-y,-x,-z
-x,-y,-z
y,-x,-z
x,y,-z
-y,x,-z
-x,y,z
x,-y,z
-y,-x,z
y,x,z
1/2+x,1/2+y,1/2+z
1/2-y,1/2+x,1/2+z
1/2-x,1/2-y,1/2+z
1/2+y,1/2-x,1/2+z
1/2+x,1/2-y,1/2-z
1/2-x,1/2+y,1/2-z
1/2+y,1/2+x,1/2-z
1/2-y,1/2-x,1/2-z
1/2-x,1/2-y,1/2-z
1/2+y,1/2-x,1/2-z
1/2+x,1/2+y,1/2-z
1/2-y,1/2+x,1/2-z
1/2-x,1/2+y,1/2+z
1/2+x,1/2-y,1/2+z
1/2-y,1/2-x,1/2+z
1/2+y,1/2+x,1/2+z
loop_
_atom_site_type_symbol
_atom_site_label
_atom_site_fract_x
_atom_site_fract_y
_atom_site_fract_z
Si Si1 0.178940 0.300838 0.610243
Si Si2 0.085090 0.203507 0.876316
Si Si3 0.414437 0.913678 0.663847
Si Si4 0.790172 0.913587 0.782275
Si Si5 0.132170 0.632170 0.250000
Si Si6 0.587091 0.289947 0.953210
O O1 0.226916 0.226916 0.627186
O O2 0.240249 0.364426 0.595633
O O3 0.128434 0.341892 0.644230
O O4 0.126517 0.277004 0.572492
O O5 0.117714 0.117714 0.878361
O O6 0.090861 0.234142 0.829772
O O7 0.000000 0.201762 0.893268
O O8 0.500000 0.879420 0.653549
O O9 0.402182 0.912515 0.711939
O O10 0.412840 0.000000 0.648142
O O11 0.865423 0.865423 0.772995
O O12 0.722231 0.881648 0.754726
O O13 0.809058 0.000000 0.769937
O O14 0.500000 0.301127 0.939062
O O15 0.629741 0.370260 0.946192
O O16 0.591856 0.264361 0.000000
#
# Coordination Sequence:
#
# PCOD8319579 Si02
#       6
#    32  32  32  32  16  32
#     4  10  19  32  51  74 100 131 165 203 248 302
#     4   9  17  30  48  71  97 126 161 201 248 299
#     4  11  22  34  49  69  96 131 170 214 260 302
#     4  10  20  33  50  70  94 124 159 205 256 306
#     4  12  21  33  48  70 100 129 171 216 256 304
#     4   9  18  33  54  80 108 136 167 204 245 292
#
# _framework density 17.409313999999998
#
# number of rings (size 3 to 8) (size 9 to 14) (size 15 to 20)
#    0.000    2.000    1.818    3.000    0.000    2.000 
#    0.000    2.727    0.000    2.182    0.000    6.364 
#    0.000    4.364    0.000    7.091    0.000    0.182 
#
# Total GULP energy -1090711.747084 kJ/mol
# GULP energy per Si atom -12394.451671 kJ/mol
# Density = 1.736969 g / cm^3
# Si number density = 17.409314 Si / 1000 Ang^3
#
#
#
# Elastic Constant Matrix: (Units=GPa)
#
#
# Indices 1 2 3 4 5 6 
#
# 1 128.9696 70.7491 44.3627 0.0000 0.0000 0.0000
# 2 70.7491 128.9696 44.3627 0.0000 0.0000 0.0000
# 3 44.3627 44.3627 53.7525 0.0000 0.0000 0.0000
# 4 0.0000 0.0000 0.0000 23.9324 0.0000 0.0000
# 5 0.0000 0.0000 0.0000 0.0000 23.9324 0.0000
# 6 0.0000 0.0000 0.0000 0.0000 0.0000 27.3922
#
#
#
# Elastic Compliance Matrix: (Units=1/GPa)
#
#
# Indices 1 2 3 4 5 6 
#
# 1 0.012541 -0.004635 -0.006525 0.000000 0.000000 0.000000
# 2 -0.004635 0.012541 -0.006525 0.000000 0.000000 0.000000
# 3 -0.006525 -0.006525 0.029373 0.000000 0.000000 0.000000
# 4 0.000000 0.000000 0.000000 0.041784 0.000000 0.000000
# 5 0.000000 0.000000 0.000000 0.000000 0.041784 0.000000
# 6 0.000000 0.000000 0.000000 0.000000 0.000000 0.036507
#
#
# Mechanical properties :
#
#
# Convention : Reuss Voigt Hill
#
# Bulk Modulus (GPa) = 52.39372 70.07118 61.23245
# Shear Modulus (GPa) = 23.12015 25.19922 24.15968
#
# Velocity S-wave (km/s) = 3.64817 3.80867 3.72929
# Velocity P-wave (km/s) = 6.92142 7.72515 7.33430
#
# Compressibility (1/GPa) = 0.01908626
#
# Stress axis : x y z
#
# Youngs Moduli (GPa) = 79.73949 79.73949 34.04437
#
# Poissons Ratio (x) = 0.36961 0.22213
# Poissons Ratio (y) = 0.36961 0.22213
# Poissons Ratio (z) = 0.52027 0.52027
#
# Static dielectric constant tensor:
#      x y z
#    x 3.389240 0.000000 0.000000 
#    y 0.000000 3.389240 0.000000 
#    z 0.000000 0.000000 2.875120 
# 
# 
# High freq. dielectric constant tensor:
#      x y z
#    x 1.686670 0.000000 0.000000 
#    y 0.000000 1.686670 0.000000 
#    z 0.000000 0.000000 1.620960 
# 
# From -- ./inp_files/13096.got.cif
#   From: 2010.03.12/outbox.cif.g09.slc.cpg/sg139_7_cif.got.tgz:13096.got - 2010.04.08 09:46:31.
