data_PCOD8319668
_publ_section_title
;
Structure prediction by ZEFSAII (Michael W. Deem and Ramdas Pophale) SiO2 
 PCOD8319668
Probable space group: I 4/M M M
;
_chemical_formula_sum "Si O2"
_cell_formula_units_Z 160
_cell_length_a 20.781059
_cell_length_b 20.781059
_cell_length_c 19.169847
_cell_angle_alpha 90.000000
_cell_angle_beta 90.000000
_cell_angle_gamma 90.000000
_cell_volume 8278.544687
_symmetry_space_group_name_H-M "I 4/M M M"
_symmetry_group_IT_number 139
_symmetry_cell_setting 'tetragonal'
loop_
_space_group_symop_operation_xyz
x,y,z
-y,x,z
-x,-y,z
y,-x,z
x,-y,-z
-x,y,-z
y,x,-z
-y,-x,-z
-x,-y,-z
y,-x,-z
x,y,-z
-y,x,-z
-x,y,z
x,-y,z
-y,-x,z
y,x,z
1/2+x,1/2+y,1/2+z
1/2-y,1/2+x,1/2+z
1/2-x,1/2-y,1/2+z
1/2+y,1/2-x,1/2+z
1/2+x,1/2-y,1/2-z
1/2-x,1/2+y,1/2-z
1/2+y,1/2+x,1/2-z
1/2-y,1/2-x,1/2-z
1/2-x,1/2-y,1/2-z
1/2+y,1/2-x,1/2-z
1/2+x,1/2+y,1/2-z
1/2-y,1/2+x,1/2-z
1/2-x,1/2+y,1/2+z
1/2+x,1/2-y,1/2+z
1/2-y,1/2-x,1/2+z
1/2+y,1/2+x,1/2+z
loop_
_atom_site_type_symbol
_atom_site_label
_atom_site_fract_x
_atom_site_fract_y
_atom_site_fract_z
Si Si1 0.174832 0.927714 0.214538
Si Si2 0.822609 0.072854 0.379884
Si Si3 0.830687 0.728159 0.811613
Si Si4 0.928543 0.574988 0.170466
Si Si5 0.812490 0.630281 0.080650
O O1 0.113786 0.886214 0.188328
O O2 0.181472 0.923400 0.297329
O O3 0.243081 0.902884 0.182584
O O4 0.163682 0.000000 0.188379
O O5 0.877192 0.122809 0.407926
O O6 0.752523 0.089301 0.410867
O O7 0.840668 0.000000 0.403636
O O8 0.789189 0.789189 0.787619
O O9 0.825161 0.674840 0.750000
O O10 0.804082 0.700503 0.884597
O O11 0.931411 0.500000 0.158120
O O12 0.909221 0.590780 0.250000
O O13 0.874909 0.602072 0.118944
O O14 0.000000 0.603747 0.154069
O O15 0.829006 0.637711 0.000000
#
# Coordination Sequence:
#
# PCOD8319668 Si02
#       5
#    32  32  32  32  32
#     4   9  18  33  56  84 112 145 187 237 290 345
#     4  10  21  37  57  83 114 150 194 242 293 348
#     4  10  19  35  56  77 105 144 188 230 277 335
#     4   9  20  39  60  81 106 142 189 234 278 336
#     4  12  24  36  54  84 119 151 188 236 289 347
#
# _framework density 19.327069000000002
#
# number of rings (size 3 to 8) (size 9 to 14) (size 15 to 20)
#    0.000    2.000    2.000    2.400    0.000    4.800 
#    0.000    3.000    0.000    0.000    0.000    1.400 
#    0.000    0.000    0.000    4.400    0.000    0.200 
#
# Total GULP energy -991392.195213 kJ/mol
# GULP energy per Si atom -12392.402440 kJ/mol
# Density = 1.928308 g / cm^3
# Si number density = 19.327069 Si / 1000 Ang^3
#
#
#
# Elastic Constant Matrix: (Units=GPa)
#
#
# Indices 1 2 3 4 5 6 
#
# 1 96.1745 92.6682 39.3707 0.0000 0.0000 0.0000
# 2 92.6682 96.1719 39.3678 0.0000 0.0000 0.0000
# 3 39.3707 39.3678 87.1244 0.0000 0.0000 0.0000
# 4 0.0000 0.0000 0.0000 5.9008 0.0000 0.0000
# 5 0.0000 0.0000 0.0000 0.0000 5.9020 0.0000
# 6 0.0000 0.0000 0.0000 0.0000 0.0000 33.6500
#
#
#
# Elastic Compliance Matrix: (Units=1/GPa)
#
#
# Indices 1 2 3 4 5 6 
#
# 1 0.145916 -0.139391 -0.002953 0.000000 0.000000 0.000000
# 2 -0.139391 0.145916 -0.002944 0.000000 0.000000 0.000000
# 3 -0.002953 -0.002944 0.014142 0.000000 0.000000 0.000000
# 4 0.000000 0.000000 0.000000 0.169469 0.000000 0.000000
# 5 0.000000 0.000000 0.000000 0.000000 0.169433 0.000000
# 6 0.000000 0.000000 0.000000 0.000000 0.000000 0.029718
#
#
# Mechanical properties :
#
#
# Convention : Reuss Voigt Hill
#
# Bulk Modulus (GPa) = 64.94145 69.14270 67.04207
# Shear Modulus (GPa) = 5.15303 16.29483 10.72393
#
# Velocity S-wave (km/s) = 1.63463 2.90678 2.35811
# Velocity P-wave (km/s) = 6.10221 6.86430 6.49444
#
# Compressibility (1/GPa) = 0.01539849
#
# Stress axis : x y z
#
# Youngs Moduli (GPa) = 6.85326 6.85326 70.70911
#
# Poissons Ratio (x) = 0.95528 0.20881
# Poissons Ratio (y) = 0.95528 0.20814
# Poissons Ratio (z) = 0.02024 0.02017
#
# Static dielectric constant tensor:
#      x y z
#    x 3.227820 0.000000 0.000000 
#    y 0.000000 3.228050 0.000000 
#    z 0.000000 0.000000 3.206450 
# 
# 
# High freq. dielectric constant tensor:
#      x y z
#    x 1.761840 0.000000 0.000000 
#    y 0.000000 1.761840 0.000000 
#    z 0.000000 0.000000 1.708370 
# 
# From -- ./inp_files/8387.got.cif
#   From: 2010.03.12/outbox.cif.g09.slc.cpg/sg139_5_cif.got.tgz:8387.got - 2010.04.08 09:46:31.
