data_PCOD8319248
_publ_section_title
;
Structure prediction by ZEFSAII (Michael W. Deem and Ramdas Pophale) SiO2 
 PCOD8319248
Probable space group: P 42/N C M
;
_chemical_formula_sum "Si O2"
_cell_formula_units_Z 64
_cell_length_a 12.000000
_cell_length_b 12.000000
_cell_length_c 24.000000
_cell_angle_alpha 90.000000
_cell_angle_beta 90.000000
_cell_angle_gamma 90.000000
_cell_volume 3456.000000
_symmetry_space_group_name_H-M "P 42/N C M"
_symmetry_group_IT_number 138
_space_group.IT_coordinate_system_code '2'
_symmetry_cell_setting 'tetragonal'
loop_
_space_group_symop_operation_xyz
x,y,z
1/2-y,x,1/2+z
1/2-x,1/2-y,z
y,1/2-x,1/2+z
1/2+x,-y,1/2-z
-x,1/2+y,1/2-z
1/2+y,1/2+x,-z
-y,-x,-z
-x,-y,-z
1/2+y,-x,1/2-z
1/2+x,1/2+y,-z
-y,1/2+x,1/2-z
1/2-x,y,1/2+z
x,1/2-y,1/2+z
1/2-y,1/2-x,z
y,x,z
loop_
_atom_site_type_symbol
_atom_site_label
_atom_site_fract_x
_atom_site_fract_y
_atom_site_fract_z
Si Si1 0.060677 0.618488 0.277666
Si Si2 0.748538 0.569845 0.865198
Si Si3 0.604432 0.079782 0.937428
Si Si4 0.622427 0.272087 0.335817
O O1 0.114117 0.651064 0.218743
O O2 0.153809 0.566896 0.319592
O O3 0.975397 0.524604 0.261677
O O4 0.999911 0.720630 0.309644
O O5 0.849053 0.650948 0.848213
O O6 0.640770 0.640770 0.885682
O O7 0.787142 0.487911 0.915260
O O8 0.571883 0.175919 0.892488
O O9 0.497331 0.002670 0.940859
O O10 0.628152 0.128152 0.000000
O O11 0.750000 0.250000 0.348545
#
# Coordination Sequence:
#
# PCOD8319248 Si02
#       4
#    16  16  16  16
#     4  11  21  34  55  82 112 145 180 224 281 337
#     4   9  18  34  56  82 112 147 186 227 276 336
#     4  10  21  37  58  82 108 148 194 230 273 329
#     4  12  20  36  54  81 113 143 179 225 277 327
#
# _framework density 18.518519000000001
#
# number of rings (size 3 to 8) (size 9 to 14) (size 15 to 20)
#    0.000    1.500    5.000    0.750    0.000    3.500 
#    0.000    1.250    0.000    6.750    0.000    0.000 
#    0.000    0.000    0.000    0.000    0.000    0.000 
#
# Total GULP energy -793044.448897 kJ/mol
# GULP energy per Si atom -12391.319514 kJ/mol
# Density = 1.847637 g / cm^3
# Si number density = 18.518519 Si / 1000 Ang^3
#
#
#
# Elastic Constant Matrix: (Units=GPa)
#
#
# Indices 1 2 3 4 5 6 
#
# 1 60.0774 6.2226 28.4142 0.0000 0.0000 0.0000
# 2 6.2226 60.0774 28.4142 0.0000 0.0000 0.0000
# 3 28.4142 28.4142 142.6689 0.0000 0.0000 0.0000
# 4 0.0000 0.0000 0.0000 26.4110 0.0000 0.0000
# 5 0.0000 0.0000 0.0000 0.0000 26.4110 0.0000
# 6 0.0000 0.0000 0.0000 0.0000 0.0000 10.1809
#
#
#
# Elastic Compliance Matrix: (Units=1/GPa)
#
#
# Indices 1 2 3 4 5 6 
#
# 1 0.018378 -0.000190 -0.003622 0.000000 0.000000 0.000000
# 2 -0.000190 0.018378 -0.003622 0.000000 0.000000 0.000000
# 3 -0.003622 -0.003622 0.008452 0.000000 0.000000 0.000000
# 4 0.000000 0.000000 0.000000 0.037863 0.000000 0.000000
# 5 0.000000 0.000000 0.000000 0.000000 0.037863 0.000000
# 6 0.000000 0.000000 0.000000 0.000000 0.000000 0.098223
#
#
# Mechanical properties :
#
#
# Convention : Reuss Voigt Hill
#
# Bulk Modulus (GPa) = 32.96155 43.21397 38.08776
# Shear Modulus (GPa) = 20.48006 25.91876 23.19941
#
# Velocity S-wave (km/s) = 3.32915 3.74520 3.54329
# Velocity P-wave (km/s) = 5.71100 6.48754 6.11162
#
# Compressibility (1/GPa) = 0.03033838
#
# Stress axis : x y z
#
# Youngs Moduli (GPa) = 54.41259 54.41259 118.31397
#
# Poissons Ratio (x) = 0.01036 0.42857
# Poissons Ratio (y) = 0.01036 0.42857
# Poissons Ratio (z) = 0.19710 0.19710
#
# Static dielectric constant tensor:
#      x y z
#    x 3.623290 0.000000 0.000000 
#    y 0.000000 3.623290 0.000000 
#    z 0.000000 0.000000 3.516470 
# 
# 
# High freq. dielectric constant tensor:
#      x y z
#    x 1.713110 0.000000 0.000000 
#    y 0.000000 1.713110 0.000000 
#    z 0.000000 0.000000 1.715440 
# 
# From -- ./inp_files/5838.got.cif
#   From: 2010.03.12/outbox.ucp.g09.slc.cvg/sg138_3_cif.got.tgz:5838.got - 2010.05.04 20:31:02.
