data_PCOD8319114
_publ_section_title
;
Structure prediction by ZEFSAII (Michael W. Deem and Ramdas Pophale) SiO2 
 PCOD8319114
Probable space group: P 42/N C M
;
_chemical_formula_sum "Si O2"
_cell_formula_units_Z 64
_cell_length_a 14.323918
_cell_length_b 14.323918
_cell_length_c 14.661843
_cell_angle_alpha 90.000000
_cell_angle_beta 90.000000
_cell_angle_gamma 90.000000
_cell_volume 3008.238167
_symmetry_space_group_name_H-M "P 42/N C M"
_symmetry_group_IT_number 138
_space_group.IT_coordinate_system_code '2'
_symmetry_cell_setting 'tetragonal'
loop_
_space_group_symop_operation_xyz
x,y,z
1/2-y,x,1/2+z
1/2-x,1/2-y,z
y,1/2-x,1/2+z
1/2+x,-y,1/2-z
-x,1/2+y,1/2-z
1/2+y,1/2+x,-z
-y,-x,-z
-x,-y,-z
1/2+y,-x,1/2-z
1/2+x,1/2+y,-z
-y,1/2+x,1/2-z
1/2-x,y,1/2+z
x,1/2-y,1/2+z
1/2-y,1/2-x,z
y,x,z
loop_
_atom_site_type_symbol
_atom_site_label
_atom_site_fract_x
_atom_site_fract_y
_atom_site_fract_z
Si Si1 0.946699 0.093484 0.103846
Si Si2 0.959087 0.814703 0.206877
Si Si3 0.641106 0.490935 0.596070
Si Si4 0.807516 0.464612 0.896221
O O1 0.932410 0.202283 0.121478
O O2 0.868873 0.047081 0.166490
O O3 0.926474 0.073527 0.000000
O O4 0.049412 0.049412 0.128053
O O5 0.862222 0.862222 0.173099
O O6 0.965815 0.708395 0.172746
O O7 0.960887 0.825258 0.316240
O O8 0.541273 0.541273 0.604165
O O9 0.622196 0.380460 0.610777
O O10 0.684191 0.511303 0.496041
#
# Coordination Sequence:
#
# PCOD8319114 Si02
#       4
#    16  16  16  16
#     4  10  21  41  66  93 126 164 209 264 326 386
#     4  11  23  41  65  94 127 167 214 264 318 385
#     4  11  24  42  62  90 129 168 209 264 319 376
#     4  11  22  40  67  92 124 168 214 262 325 384
#
# _framework density 21.274912
#
# number of rings (size 3 to 8) (size 9 to 14) (size 15 to 20)
#    0.000    1.250    2.500    4.500    0.000    4.500 
#    0.000    2.500    0.000    8.250    0.000    0.000 
#    0.000    0.000    0.000    0.000    0.000    0.000 
#
# Total GULP energy -793334.556869 kJ/mol
# GULP energy per Si atom -12395.852451 kJ/mol
# Density = 2.122649 g / cm^3
# Si number density = 21.274912 Si / 1000 Ang^3
#
#
#
# Elastic Constant Matrix: (Units=GPa)
#
#
# Indices 1 2 3 4 5 6 
#
# 1 94.2434 39.6916 8.0098 0.0000 0.0000 0.0000
# 2 39.6916 94.2419 8.0094 0.0000 0.0000 0.0000
# 3 8.0098 8.0094 112.1551 0.0000 0.0000 0.0000
# 4 0.0000 0.0000 0.0000 25.0975 0.0000 0.0000
# 5 0.0000 0.0000 0.0000 0.0000 25.0972 0.0000
# 6 0.0000 0.0000 0.0000 0.0000 0.0000 20.7997
#
#
#
# Elastic Compliance Matrix: (Units=1/GPa)
#
#
# Indices 1 2 3 4 5 6 
#
# 1 0.012931 -0.005400 -0.000538 0.000000 0.000000 0.000000
# 2 -0.005400 0.012931 -0.000538 0.000000 0.000000 0.000000
# 3 -0.000538 -0.000538 0.008993 0.000000 0.000000 0.000000
# 4 0.000000 0.000000 0.000000 0.039845 0.000000 0.000000
# 5 0.000000 0.000000 0.000000 0.000000 0.039845 0.000000
# 6 0.000000 0.000000 0.000000 0.000000 0.000000 0.048078
#
#
# Mechanical properties :
#
#
# Convention : Reuss Voigt Hill
#
# Bulk Modulus (GPa) = 45.65551 45.78467 45.72009
# Shear Modulus (GPa) = 27.34100 30.52752 28.93426
#
# Velocity S-wave (km/s) = 3.58876 3.79213 3.69184
# Velocity P-wave (km/s) = 6.21921 6.38286 6.30157
#
# Compressibility (1/GPa) = 0.02190316
#
# Stress axis : x y z
#
# Youngs Moduli (GPa) = 77.33374 77.33250 111.19711
#
# Poissons Ratio (x) = 0.41763 0.05980
# Poissons Ratio (y) = 0.41763 0.05980
# Poissons Ratio (z) = 0.04159 0.04159
#
# Static dielectric constant tensor:
#      x y z
#    x 3.731500 0.000000 0.000000 
#    y 0.000000 3.731500 0.000000 
#    z 0.000000 0.000000 3.429270 
# 
# 
# High freq. dielectric constant tensor:
#      x y z
#    x 1.821040 0.000000 0.000000 
#    y 0.000000 1.821040 0.000000 
#    z 0.000000 0.000000 1.856650 
# 
# From -- ./inp_files/3906.got.cif
#   From: 2010.03.12/outbox.cif.g09.slc.cpg/sg138_2_cif.got.tgz:3906.got - 2010.04.08 09:41:05.
