data_PCOD8319875
_publ_section_title
;
Structure prediction by ZEFSAII (Michael W. Deem and Ramdas Pophale) SiO2 
 PCOD8319875
Probable space group: I 4/M M M
;
_chemical_formula_sum "Si O2"
_cell_formula_units_Z 120
_cell_length_a 17.936215
_cell_length_b 17.936215
_cell_length_c 16.652090
_cell_angle_alpha 90.000000
_cell_angle_beta 90.000000
_cell_angle_gamma 90.000000
_cell_volume 5357.107381
_symmetry_space_group_name_H-M "I 4/M M M"
_symmetry_group_IT_number 139
_symmetry_cell_setting 'tetragonal'
loop_
_space_group_symop_operation_xyz
x,y,z
-y,x,z
-x,-y,z
y,-x,z
x,-y,-z
-x,y,-z
y,x,-z
-y,-x,-z
-x,-y,-z
y,-x,-z
x,y,-z
-y,x,-z
-x,y,z
x,-y,z
-y,-x,z
y,x,z
1/2+x,1/2+y,1/2+z
1/2-y,1/2+x,1/2+z
1/2-x,1/2-y,1/2+z
1/2+y,1/2-x,1/2+z
1/2+x,1/2-y,1/2-z
1/2-x,1/2+y,1/2-z
1/2+y,1/2+x,1/2-z
1/2-y,1/2-x,1/2-z
1/2-x,1/2-y,1/2-z
1/2+y,1/2-x,1/2-z
1/2+x,1/2+y,1/2-z
1/2-y,1/2+x,1/2-z
1/2-x,1/2+y,1/2+z
1/2+x,1/2-y,1/2+z
1/2-y,1/2-x,1/2+z
1/2+y,1/2+x,1/2+z
loop_
_atom_site_type_symbol
_atom_site_label
_atom_site_fract_x
_atom_site_fract_y
_atom_site_fract_z
Si Si1 0.917187 0.201641 0.904520
Si Si2 0.587883 0.587883 0.176710
Si Si3 0.798403 0.798403 0.311646
Si Si4 0.414033 0.585968 0.000000
Si Si5 0.583213 0.000000 0.404430
Si Si6 0.337451 0.850905 0.595440
O O1 0.864984 0.135017 0.873136
O O2 0.886159 0.280738 0.873847
O O3 0.000000 0.188756 0.869426
O O4 0.919283 0.202452 0.000000
O O5 0.500000 0.603746 0.191901
O O6 0.642350 0.642350 0.229502
O O7 0.614713 0.614713 0.086446
O O8 0.750000 0.750000 0.250000
O O9 0.743598 0.847077 0.366446
O O10 0.396675 0.500000 0.000000
O O11 0.624347 0.073745 0.372977
O O12 0.500000 0.000000 0.369081
O O13 0.580914 0.000000 0.500000
O O14 0.328931 0.850004 0.500000
#
# Coordination Sequence:
#
# PCOD8319875 Si02
#       6
#    32  16  16   8  16  32
#     4   9  16  28  49  77 109 144 186 239 293 342
#     4   9  20  40  66  94 126 164 203 248 306 376
#     4  12  26  40  58  88 126 161 199 252 308 368
#     4   7  12  28  56  96 128 148 188 245 304 358
#     4   9  18  34  62  98 125 153 200 256 305 356
#     4  10  20  37  61  88 120 159 202 246 304 369
#
# _framework density 22.400148000000002
#
# number of rings (size 3 to 8) (size 9 to 14) (size 15 to 20)
#    0.000    2.467    1.333    2.000    3.733    3.467 
#    0.000    4.000    0.000    0.000    0.000    0.000 
#    0.000    0.000    0.000    0.000    0.000    0.000 
#
# Total GULP energy -743572.337885 kJ/mol
# GULP energy per Si atom -12392.872298 kJ/mol
# Density = 2.234916 g / cm^3
# Si number density = 22.400148 Si / 1000 Ang^3
#
#
#
# Elastic Constant Matrix: (Units=GPa)
#
#
# Indices 1 2 3 4 5 6 
#
# 1 209.5648 117.1927 15.0841 0.0000 0.0000 0.0000
# 2 117.1927 209.5642 15.0840 0.0000 0.0000 0.0000
# 3 15.0841 15.0840 19.2536 0.0000 0.0000 0.0000
# 4 0.0000 0.0000 0.0000 9.4655 0.0000 0.0000
# 5 0.0000 0.0000 0.0000 0.0000 9.4657 0.0000
# 6 0.0000 0.0000 0.0000 0.0000 0.0000 37.5728
#
#
#
# Elastic Compliance Matrix: (Units=1/GPa)
#
#
# Indices 1 2 3 4 5 6 
#
# 1 0.007062 -0.003763 -0.002585 0.000000 0.000000 0.000000
# 2 -0.003763 0.007062 -0.002585 0.000000 0.000000 0.000000
# 3 -0.002585 -0.002585 0.055988 0.000000 0.000000 0.000000
# 4 0.000000 0.000000 0.000000 0.105646 0.000000 0.000000
# 5 0.000000 0.000000 0.000000 0.000000 0.105645 0.000000
# 6 0.000000 0.000000 0.000000 0.000000 0.000000 0.026615
#
#
# Mechanical properties :
#
#
# Convention : Reuss Voigt Hill
#
# Bulk Modulus (GPa) = 19.13960 81.45603 50.29782
# Shear Modulus (GPa) = 14.56453 30.70225 22.63339
#
# Velocity S-wave (km/s) = 2.55266 3.70621 3.18215
# Velocity P-wave (km/s) = 4.15344 7.39984 6.00037
#
# Compressibility (1/GPa) = 0.05224768
#
# Stress axis : x y z
#
# Youngs Moduli (GPa) = 141.59495 141.59463 17.86098
#
# Poissons Ratio (x) = 0.53288 0.04616
# Poissons Ratio (y) = 0.53288 0.04616
# Poissons Ratio (z) = 0.36597 0.36596
#
# Static dielectric constant tensor:
#      x y z
#    x 4.177760 0.000000 0.000000 
#    y 0.000000 4.177770 0.000000 
#    z 0.000000 0.000000 3.689520 
# 
# 
# High freq. dielectric constant tensor:
#      x y z
#    x 1.888620 0.000000 0.000000 
#    y 0.000000 1.888620 0.000000 
#    z 0.000000 0.000000 1.850940 
# 
# From -- ./inp_files/9881.got.cif
#   From: 2010.03.12/outbox.cif.g09.slc.cpg/sg139_5_cif.got.tgz:9881.got - 2010.04.08 09:46:31.
