data_PCOD8319509
_publ_section_title
;
Structure prediction by ZEFSAII (Michael W. Deem and Ramdas Pophale) SiO2 
 PCOD8319509
Probable space group: I 4/M M M
;
_chemical_formula_sum "Si O2"
_cell_formula_units_Z 128
_cell_length_a 17.544958
_cell_length_b 17.544958
_cell_length_c 24.623135
_cell_angle_alpha 90.000000
_cell_angle_beta 90.000000
_cell_angle_gamma 90.000000
_cell_volume 7579.630104
_symmetry_space_group_name_H-M "I 4/M M M"
_symmetry_group_IT_number 139
_symmetry_cell_setting 'tetragonal'
loop_
_space_group_symop_operation_xyz
x,y,z
-y,x,z
-x,-y,z
y,-x,z
x,-y,-z
-x,y,-z
y,x,-z
-y,-x,-z
-x,-y,-z
y,-x,-z
x,y,-z
-y,x,-z
-x,y,z
x,-y,z
-y,-x,z
y,x,z
1/2+x,1/2+y,1/2+z
1/2-y,1/2+x,1/2+z
1/2-x,1/2-y,1/2+z
1/2+y,1/2-x,1/2+z
1/2+x,1/2-y,1/2-z
1/2-x,1/2+y,1/2-z
1/2+y,1/2+x,1/2-z
1/2-y,1/2-x,1/2-z
1/2-x,1/2-y,1/2-z
1/2+y,1/2-x,1/2-z
1/2+x,1/2+y,1/2-z
1/2-y,1/2+x,1/2-z
1/2-x,1/2+y,1/2+z
1/2+x,1/2-y,1/2+z
1/2-y,1/2-x,1/2+z
1/2+y,1/2+x,1/2+z
loop_
_atom_site_type_symbol
_atom_site_label
_atom_site_fract_x
_atom_site_fract_y
_atom_site_fract_z
Si Si1 0.855059 0.733399 0.118097
Si Si2 0.164351 0.588018 0.177528
Si Si3 0.500000 0.196063 0.438183
Si Si4 0.000000 0.415386 0.839517
Si Si5 0.088682 0.789039 0.765993
O O1 0.784903 0.784903 0.098436
O O2 0.824007 0.646407 0.126743
O O3 0.921697 0.742368 0.073113
O O4 0.890167 0.762660 0.174297
O O5 0.177151 0.500000 0.158839
O O6 0.075440 0.601527 0.196458
O O7 0.220823 0.610983 0.225488
O O8 0.500000 0.167560 0.500000
O O9 0.500000 0.127648 0.396123
O O10 0.000000 0.500000 0.860914
O O11 0.136259 0.863742 0.749004
O O12 0.000000 0.809953 0.762375
#
# Coordination Sequence:
#
# PCOD8319509 Si02
#       5
#    32  32  16  16  32
#     4  10  19  33  49  66  92 124 159 197 242 290
#     4   9  17  29  47  71 100 123 153 187 225 284
#     4  10  20  33  50  69  90 118 159 207 244 276
#     4   8  16  31  48  70  99 131 156 178 227 279
#     4  10  19  31  47  67  92 126 160 196 238 283
#
# _framework density 16.887367999999999
#
# number of rings (size 3 to 8) (size 9 to 14) (size 15 to 20)
#    0.000    2.500    1.250    1.500    0.000    3.000 
#    2.250    0.000    0.000    0.375    0.000    0.875 
#    0.000    0.000    0.000    0.000    0.000    0.000 
#
# Total GULP energy -792967.903751 kJ/mol
# GULP energy per Si atom -12390.123496 kJ/mol
# Density = 1.684893 g / cm^3
# Si number density = 16.887368 Si / 1000 Ang^3
#
#
#
# Elastic Constant Matrix: (Units=GPa)
#
#
# Indices 1 2 3 4 5 6 
#
# 1 95.6741 50.8240 26.6608 0.0000 0.0000 0.0000
# 2 50.8240 95.6741 26.6608 0.0000 0.0000 0.0000
# 3 26.6608 26.6608 66.0084 0.0000 0.0000 0.0000
# 4 0.0000 0.0000 0.0000 11.4715 0.0000 0.0000
# 5 0.0000 0.0000 0.0000 0.0000 11.4715 0.0000
# 6 0.0000 0.0000 0.0000 0.0000 0.0000 30.7401
#
#
#
# Elastic Compliance Matrix: (Units=1/GPa)
#
#
# Indices 1 2 3 4 5 6 
#
# 1 0.015149 -0.007147 -0.003232 0.000000 0.000000 0.000000
# 2 -0.007147 0.015149 -0.003232 0.000000 0.000000 0.000000
# 3 -0.003232 -0.003232 0.017761 0.000000 0.000000 0.000000
# 4 0.000000 0.000000 0.000000 0.087173 0.000000 0.000000
# 5 0.000000 0.000000 0.000000 0.000000 0.087173 0.000000
# 6 0.000000 0.000000 0.000000 0.000000 0.000000 0.032531
#
#
# Mechanical properties :
#
#
# Convention : Reuss Voigt Hill
#
# Bulk Modulus (GPa) = 47.99222 51.73862 49.86542
# Shear Modulus (GPa) = 17.29483 20.95069 19.12276
#
# Velocity S-wave (km/s) = 3.20367 3.52606 3.36872
# Velocity P-wave (km/s) = 6.49349 6.87615 6.68756
#
# Compressibility (1/GPa) = 0.02083671
#
# Stress axis : x y z
#
# Youngs Moduli (GPa) = 66.00886 66.00886 56.30457
#
# Poissons Ratio (x) = 0.47177 0.18199
# Poissons Ratio (y) = 0.47177 0.18199
# Poissons Ratio (z) = 0.21335 0.21335
#
# Static dielectric constant tensor:
#      x y z
#    x 3.529400 0.000000 0.000000 
#    y 0.000000 3.529400 0.000000 
#    z 0.000000 0.000000 2.715250 
# 
# 
# High freq. dielectric constant tensor:
#      x y z
#    x 1.658140 0.000000 0.000000 
#    y 0.000000 1.658140 0.000000 
#    z 0.000000 0.000000 1.602680 
# 
# From -- ./inp_files/11382.got.cif
#   From: 2010.03.12/outbox.cif.g09.slc.cpg/sg139_6_cif.got.tgz:11382.got - 2010.04.08 09:46:31.
