data_PCOD8319451
_publ_section_title
;
Structure prediction by ZEFSAII (Michael W. Deem and Ramdas Pophale) SiO2 
 PCOD8319451
Probable space group: I 4/M M M
;
_chemical_formula_sum "Si O2"
_cell_formula_units_Z 160
_cell_length_a 18.254415
_cell_length_b 18.254415
_cell_length_c 26.397821
_cell_angle_alpha 90.000000
_cell_angle_beta 90.000000
_cell_angle_gamma 90.000000
_cell_volume 8796.378714
_symmetry_space_group_name_H-M "I 4/M M M"
_symmetry_group_IT_number 139
_symmetry_cell_setting 'tetragonal'
loop_
_space_group_symop_operation_xyz
x,y,z
-y,x,z
-x,-y,z
y,-x,z
x,-y,-z
-x,y,-z
y,x,-z
-y,-x,-z
-x,-y,-z
y,-x,-z
x,y,-z
-y,x,-z
-x,y,z
x,-y,z
-y,-x,z
y,x,z
1/2+x,1/2+y,1/2+z
1/2-y,1/2+x,1/2+z
1/2-x,1/2-y,1/2+z
1/2+y,1/2-x,1/2+z
1/2+x,1/2-y,1/2-z
1/2-x,1/2+y,1/2-z
1/2+y,1/2+x,1/2-z
1/2-y,1/2-x,1/2-z
1/2-x,1/2-y,1/2-z
1/2+y,1/2-x,1/2-z
1/2+x,1/2+y,1/2-z
1/2-y,1/2+x,1/2-z
1/2-x,1/2+y,1/2+z
1/2+x,1/2-y,1/2+z
1/2-y,1/2-x,1/2+z
1/2+y,1/2+x,1/2+z
loop_
_atom_site_type_symbol
_atom_site_label
_atom_site_fract_x
_atom_site_fract_y
_atom_site_fract_z
Si Si1 0.799289 0.082875 0.154988
Si Si2 0.085899 0.357987 0.197236
Si Si3 0.355462 0.760924 0.556510
Si Si4 0.804732 0.920039 0.442884
Si Si5 0.847462 0.418479 0.098233
O O1 0.864021 0.135980 0.173364
O O2 0.727206 0.102172 0.187234
O O3 0.781523 0.092539 0.095539
O O4 0.824942 0.000000 0.164415
O O5 0.121630 0.378371 0.250000
O O6 0.123179 0.408318 0.154717
O O7 0.000000 0.375113 0.197037
O O8 0.382303 0.742250 0.500000
O O9 0.271094 0.728907 0.563916
O O10 0.367580 0.848415 0.563582
O O11 0.776581 0.899341 0.500000
O O12 0.865044 0.865044 0.422616
O O13 0.740215 0.918779 0.401948
O O14 0.841049 0.000000 0.444434
O O15 0.874476 0.500000 0.078376
#
# Coordination Sequence:
#
# PCOD8319451 Si02
#       5
#    32  32  32  32  32
#     4   9  19  35  54  78 104 128 159 197 237 285
#     4  10  21  37  56  76  98 126 161 202 246 290
#     4   9  17  30  48  68  95 133 169 201 240 285
#     4   9  17  29  46  69  98 132 169 208 248 291
#     4  10  19  29  45  71  98 125 162 205 247 295
#
# _framework density 18.189302999999999
#
# number of rings (size 3 to 8) (size 9 to 14) (size 15 to 20)
#    0.000    2.600    0.000    1.800    0.000    6.200 
#    0.000    1.000    0.000    1.800    0.000   14.000 
#    0.000    6.400    0.000    0.000    0.000    0.000 
#
# Total GULP energy -991130.394985 kJ/mol
# GULP energy per Si atom -12389.129937 kJ/mol
# Density = 1.814790 g / cm^3
# Si number density = 18.189303 Si / 1000 Ang^3
#
#
#
# Elastic Constant Matrix: (Units=GPa)
#
#
# Indices 1 2 3 4 5 6 
#
# 1 98.4532 60.0431 40.6525 0.0000 0.0000 0.0000
# 2 60.0431 98.4541 40.6522 0.0000 0.0000 0.0000
# 3 40.6525 40.6522 98.4716 0.0000 0.0000 0.0000
# 4 0.0000 0.0000 0.0000 19.8274 0.0000 0.0000
# 5 0.0000 0.0000 0.0000 0.0000 19.8267 0.0000
# 6 0.0000 0.0000 0.0000 0.0000 0.0000 22.7384
#
#
#
# Elastic Compliance Matrix: (Units=1/GPa)
#
#
# Indices 1 2 3 4 5 6 
#
# 1 0.017020 -0.009015 -0.003305 0.000000 0.000000 0.000000
# 2 -0.009015 0.017019 -0.003304 0.000000 0.000000 0.000000
# 3 -0.003305 -0.003304 0.012884 0.000000 0.000000 0.000000
# 4 0.000000 0.000000 0.000000 0.050435 0.000000 0.000000
# 5 0.000000 0.000000 0.000000 0.000000 0.050437 0.000000
# 6 0.000000 0.000000 0.000000 0.000000 0.000000 0.043978
#
#
# Mechanical properties :
#
#
# Convention : Reuss Voigt Hill
#
# Bulk Modulus (GPa) = 63.79797 64.23048 64.01422
# Shear Modulus (GPa) = 21.90616 22.74723 22.32670
#
# Velocity S-wave (km/s) = 3.47413 3.54019 3.50732
# Velocity P-wave (km/s) = 7.15845 7.21800 7.18828
#
# Compressibility (1/GPa) = 0.01567448
#
# Stress axis : x y z
#
# Youngs Moduli (GPa) = 58.75588 58.75673 77.61802
#
# Poissons Ratio (x) = 0.52970 0.25649
# Poissons Ratio (y) = 0.52969 0.25648
# Poissons Ratio (z) = 0.19416 0.19415
#
# Static dielectric constant tensor:
#      x y z
#    x 3.445830 0.000000 0.000000 
#    y 0.000000 3.445830 0.000000 
#    z 0.000000 0.000000 3.189500 
# 
# 
# High freq. dielectric constant tensor:
#      x y z
#    x 1.703230 0.000000 0.000000 
#    y 0.000000 1.703230 0.000000 
#    z 0.000000 0.000000 1.682010 
# 
# From -- ./inp_files/12945.got.cif
#   From: 2010.03.12/outbox.cif.g09.slc.cpg/sg139_7_cif.got.tgz:12945.got - 2010.04.08 09:46:31.
