data_PCOD8319901
_publ_section_title
;
Structure prediction by ZEFSAII (Michael W. Deem and Ramdas Pophale) SiO2 
 PCOD8319901
Probable space group: I 4/M M M
;
_chemical_formula_sum "Si O2"
_cell_formula_units_Z 144
_cell_length_a 28.887720
_cell_length_b 28.887720
_cell_length_c 8.203324
_cell_angle_alpha 90.000000
_cell_angle_beta 90.000000
_cell_angle_gamma 90.000000
_cell_volume 6845.676887
_symmetry_space_group_name_H-M "I 4/M M M"
_symmetry_group_IT_number 139
_symmetry_cell_setting 'tetragonal'
loop_
_space_group_symop_operation_xyz
x,y,z
-y,x,z
-x,-y,z
y,-x,z
x,-y,-z
-x,y,-z
y,x,-z
-y,-x,-z
-x,-y,-z
y,-x,-z
x,y,-z
-y,x,-z
-x,y,z
x,-y,z
-y,-x,z
y,x,z
1/2+x,1/2+y,1/2+z
1/2-y,1/2+x,1/2+z
1/2-x,1/2-y,1/2+z
1/2+y,1/2-x,1/2+z
1/2+x,1/2-y,1/2-z
1/2-x,1/2+y,1/2-z
1/2+y,1/2+x,1/2-z
1/2-y,1/2-x,1/2-z
1/2-x,1/2-y,1/2-z
1/2+y,1/2-x,1/2-z
1/2+x,1/2+y,1/2-z
1/2-y,1/2+x,1/2-z
1/2-x,1/2+y,1/2+z
1/2+x,1/2-y,1/2+z
1/2-y,1/2-x,1/2+z
1/2+y,1/2+x,1/2+z
loop_
_atom_site_type_symbol
_atom_site_label
_atom_site_fract_x
_atom_site_fract_y
_atom_site_fract_z
Si Si1 0.581931 0.779261 0.817359
Si Si2 0.448408 0.318942 0.180410
Si Si3 0.129095 0.055512 0.000000
Si Si4 0.051357 0.374966 0.812806
Si Si5 0.750107 0.177316 0.812869
O O1 0.547859 0.736251 0.785012
O O2 0.571369 0.823089 0.704679
O O3 0.631913 0.756369 0.792721
O O4 0.577641 0.798525 0.000000
O O5 0.500000 0.338532 0.169017
O O6 0.425451 0.344266 0.337246
O O7 0.424542 0.327963 0.000000
O O8 0.078065 0.078065 0.000000
O O9 0.124888 0.000000 0.000000
O O10 0.086874 0.413127 0.750000
O O11 0.000000 0.378957 0.729826
O O12 0.045318 0.385276 0.000000
O O13 0.801919 0.198082 0.790326
O O14 0.714250 0.214250 0.750000
O O15 0.739913 0.165479 0.000000
#
# Coordination Sequence:
#
# PCOD8319901 Si02
#       5
#    32  32  16  32  32
#     4  11  22  37  60  88 119 155 197 249 304 370
#     4   9  20  38  59  86 120 158 198 247 309 367
#     4  10  22  39  62  90 124 166 209 261 315 371
#     4  11  25  43  65  92 122 160 206 259 318 383
#     4  10  21  36  53  75 109 152 195 240 290 347
#
# _framework density 21.035174999999999
#
# number of rings (size 3 to 8) (size 9 to 14) (size 15 to 20)
#    0.000    1.778    0.000    3.333    3.111    5.667 
#    0.000    3.333    0.000    0.000    0.000    3.111 
#    0.000    0.000    0.000    0.000    0.000    0.000 
#
# Total GULP energy -892160.015773 kJ/mol
# GULP energy per Si atom -12391.111330 kJ/mol
# Density = 2.098730 g / cm^3
# Si number density = 21.035175 Si / 1000 Ang^3
#
#
#
# Elastic Constant Matrix: (Units=GPa)
#
#
# Indices 1 2 3 4 5 6 
#
# 1 96.3025 40.3286 38.9046 0.0000 0.0000 0.0000
# 2 40.3286 96.3042 38.9050 0.0000 0.0000 0.0000
# 3 38.9046 38.9050 109.0676 0.0000 0.0000 0.0000
# 4 0.0000 0.0000 0.0000 20.0604 0.0000 0.0000
# 5 0.0000 0.0000 0.0000 0.0000 20.0594 0.0000
# 6 0.0000 0.0000 0.0000 0.0000 0.0000 31.9352
#
#
#
# Elastic Compliance Matrix: (Units=1/GPa)
#
#
# Indices 1 2 3 4 5 6 
#
# 1 0.013525 -0.004340 -0.003276 0.000000 0.000000 0.000000
# 2 -0.004340 0.013525 -0.003276 0.000000 0.000000 0.000000
# 3 -0.003276 -0.003276 0.011506 0.000000 0.000000 0.000000
# 4 0.000000 0.000000 0.000000 0.049849 0.000000 0.000000
# 5 0.000000 0.000000 0.000000 0.000000 0.049852 0.000000
# 6 0.000000 0.000000 0.000000 0.000000 0.000000 0.031313
#
#
# Mechanical properties :
#
#
# Convention : Reuss Voigt Hill
#
# Bulk Modulus (GPa) = 59.62881 59.77231 59.70056
# Shear Modulus (GPa) = 25.38767 26.64675 26.01721
#
# Velocity S-wave (km/s) = 3.47784 3.56303 3.52069
# Velocity P-wave (km/s) = 6.67352 6.73825 6.70596
#
# Compressibility (1/GPa) = 0.01677042
#
# Stress axis : x y z
#
# Youngs Moduli (GPa) = 73.93689 73.93817 86.91195
#
# Poissons Ratio (x) = 0.32091 0.28474
# Poissons Ratio (y) = 0.32090 0.28474
# Poissons Ratio (z) = 0.24223 0.24224
#
# Static dielectric constant tensor:
#      x y z
#    x 3.831270 0.000000 0.000000 
#    y 0.000000 3.831280 0.000000 
#    z 0.000000 0.000000 3.725900 
# 
# 
# High freq. dielectric constant tensor:
#      x y z
#    x 1.814900 0.000000 0.000000 
#    y 0.000000 1.814900 0.000000 
#    z 0.000000 0.000000 1.838150 
# 
# From -- ./inp_files/2053.got.cif
#   From: 2010.03.12/outbox.cif.g09.slc.cpg/sg139_2_cif.got.tgz:2053.got - 2010.04.08 09:46:31.
