data_PCOD8319785
_publ_section_title
;
Structure prediction by ZEFSAII (Michael W. Deem and Ramdas Pophale) SiO2 
 PCOD8319785
Probable space group: I 4/M M M
;
_chemical_formula_sum "Si O2"
_cell_formula_units_Z 192
_cell_length_a 21.910412
_cell_length_b 21.910412
_cell_length_c 22.712809
_cell_angle_alpha 90.000000
_cell_angle_beta 90.000000
_cell_angle_gamma 90.000000
_cell_volume 10903.650863
_symmetry_space_group_name_H-M "I 4/M M M"
_symmetry_group_IT_number 139
_symmetry_cell_setting 'tetragonal'
loop_
_space_group_symop_operation_xyz
x,y,z
-y,x,z
-x,-y,z
y,-x,z
x,-y,-z
-x,y,-z
y,x,-z
-y,-x,-z
-x,-y,-z
y,-x,-z
x,y,-z
-y,x,-z
-x,y,z
x,-y,z
-y,-x,z
y,x,z
1/2+x,1/2+y,1/2+z
1/2-y,1/2+x,1/2+z
1/2-x,1/2-y,1/2+z
1/2+y,1/2-x,1/2+z
1/2+x,1/2-y,1/2-z
1/2-x,1/2+y,1/2-z
1/2+y,1/2+x,1/2-z
1/2-y,1/2-x,1/2-z
1/2-x,1/2-y,1/2-z
1/2+y,1/2-x,1/2-z
1/2+x,1/2+y,1/2-z
1/2-y,1/2+x,1/2-z
1/2-x,1/2+y,1/2+z
1/2+x,1/2-y,1/2+z
1/2-y,1/2-x,1/2+z
1/2+y,1/2+x,1/2+z
loop_
_atom_site_type_symbol
_atom_site_label
_atom_site_fract_x
_atom_site_fract_y
_atom_site_fract_z
Si Si1 0.186408 0.431839 0.125566
Si Si2 0.430479 0.332075 0.566288
Si Si3 0.330165 0.071182 0.241934
Si Si4 0.676879 0.772548 0.066145
Si Si5 0.745132 0.645738 0.347356
Si Si6 0.566402 0.927793 0.433887
O O1 0.191192 0.500000 0.100569
O O2 0.201178 0.429323 0.194158
O O3 0.234744 0.392399 0.088561
O O4 0.118039 0.404808 0.111564
O O5 0.421695 0.305923 0.500000
O O6 0.500000 0.346596 0.580561
O O7 0.395431 0.395431 0.573573
O O8 0.407113 0.283458 0.613142
O O9 0.396579 0.103421 0.250000
O O10 0.284508 0.112624 0.203184
O O11 0.337888 0.000000 0.220448
O O12 0.705507 0.705507 0.068261
O O13 0.710556 0.817147 0.110681
O O14 0.680362 0.799265 0.000000
O O15 0.692254 0.692254 0.322321
O O16 0.583012 0.905953 0.500000
O O17 0.500000 0.900500 0.415294
O O18 0.561851 0.000000 0.432009
#
# Coordination Sequence:
#
# PCOD8319785 Si02
#       6
#    32  32  32  32  32  32
#     4  10  20  34  51  72 100 133 169 208 254 306
#     4   9  17  30  50  77 108 140 173 213 263 315
#     4  11  23  38  54  75 102 140 185 224 264 314
#     4  10  20  34  54  79 103 127 163 211 261 314
#     4  10  20  36  56  75 101 136 176 221 265 310
#     4   8  14  26  45  68  93 123 161 201 241 291
#
# _framework density 17.608781
#
# number of rings (size 3 to 8) (size 9 to 14) (size 15 to 20)
#    0.000    2.333    1.667    2.000    0.000    5.000 
#    0.000    2.500    0.000    3.000    0.000    0.000 
#    0.000    0.333    0.000    5.500    0.000    4.000 
#
# Total GULP energy -1189559.891743 kJ/mol
# GULP energy per Si atom -12391.248872 kJ/mol
# Density = 1.756870 g / cm^3
# Si number density = 17.608781 Si / 1000 Ang^3
#
#
#
# Elastic Constant Matrix: (Units=GPa)
#
#
# Indices 1 2 3 4 5 6 
#
# 1 93.0211 50.6482 45.8418 0.0000 0.0000 0.0000
# 2 50.6482 93.0211 45.8418 0.0000 0.0000 0.0000
# 3 45.8418 45.8418 91.6623 0.0000 0.0000 0.0000
# 4 0.0000 0.0000 0.0000 24.9905 0.0000 0.0000
# 5 0.0000 0.0000 0.0000 0.0000 24.9905 0.0000
# 6 0.0000 0.0000 0.0000 0.0000 0.0000 23.0666
#
#
#
# Elastic Compliance Matrix: (Units=1/GPa)
#
#
# Indices 1 2 3 4 5 6 
#
# 1 0.016912 -0.006688 -0.005113 0.000000 0.000000 0.000000
# 2 -0.006688 0.016912 -0.005113 0.000000 0.000000 0.000000
# 3 -0.005113 -0.005113 0.016024 0.000000 0.000000 0.000000
# 4 0.000000 0.000000 0.000000 0.040015 0.000000 0.000000
# 5 0.000000 0.000000 0.000000 0.000000 0.040015 0.000000
# 6 0.000000 0.000000 0.000000 0.000000 0.000000 0.043353
#
#
# Mechanical properties :
#
#
# Convention : Reuss Voigt Hill
#
# Bulk Modulus (GPa) = 62.42653 62.48534 62.45593
# Shear Modulus (GPa) = 23.54080 23.63439 23.58759
#
# Velocity S-wave (km/s) = 3.66030 3.66757 3.66394
# Velocity P-wave (km/s) = 7.30703 7.31417 7.31060
#
# Compressibility (1/GPa) = 0.01601883
#
# Stress axis : x y z
#
# Youngs Moduli (GPa) = 59.13110 59.13110 62.40804
#
# Poissons Ratio (x) = 0.39549 0.31908
# Poissons Ratio (y) = 0.39549 0.31908
# Poissons Ratio (z) = 0.30232 0.30232
#
# Static dielectric constant tensor:
#      x y z
#    x 3.439720 0.000000 0.000000 
#    y 0.000000 3.439720 0.000000 
#    z 0.000000 0.000000 3.334410 
# 
# 
# High freq. dielectric constant tensor:
#      x y z
#    x 1.667540 0.000000 0.000000 
#    y 0.000000 1.667540 0.000000 
#    z 0.000000 0.000000 1.683770 
# 
# From -- ./inp_files/11968.got.cif
#   From: 2010.03.12/outbox.cif.g09.slc.cpg/sg139_6_cif.got.tgz:11968.got - 2010.04.08 09:46:31.
