data_PCOD8319970
_publ_section_title
;
Structure prediction by ZEFSAII (Michael W. Deem and Ramdas Pophale) SiO2 
 PCOD8319970
Probable space group: I 4/M M M
;
_chemical_formula_sum "Si O2"
_cell_formula_units_Z 176
_cell_length_a 22.071596
_cell_length_b 22.071596
_cell_length_c 16.609750
_cell_angle_alpha 90.000000
_cell_angle_beta 90.000000
_cell_angle_gamma 90.000000
_cell_volume 8091.528574
_symmetry_space_group_name_H-M "I 4/M M M"
_symmetry_group_IT_number 139
_symmetry_cell_setting 'tetragonal'
loop_
_space_group_symop_operation_xyz
x,y,z
-y,x,z
-x,-y,z
y,-x,z
x,-y,-z
-x,y,-z
y,x,-z
-y,-x,-z
-x,-y,-z
y,-x,-z
x,y,-z
-y,x,-z
-x,y,z
x,-y,z
-y,-x,z
y,x,z
1/2+x,1/2+y,1/2+z
1/2-y,1/2+x,1/2+z
1/2-x,1/2-y,1/2+z
1/2+y,1/2-x,1/2+z
1/2+x,1/2-y,1/2-z
1/2-x,1/2+y,1/2-z
1/2+y,1/2+x,1/2-z
1/2-y,1/2-x,1/2-z
1/2-x,1/2-y,1/2-z
1/2+y,1/2-x,1/2-z
1/2+x,1/2+y,1/2-z
1/2-y,1/2+x,1/2-z
1/2-x,1/2+y,1/2+z
1/2+x,1/2-y,1/2+z
1/2-y,1/2-x,1/2+z
1/2+y,1/2+x,1/2+z
loop_
_atom_site_type_symbol
_atom_site_label
_atom_site_fract_x
_atom_site_fract_y
_atom_site_fract_z
Si Si1 0.832394 0.069015 0.828738
Si Si2 0.431616 0.070663 0.000000
Si Si3 0.068149 0.837962 0.639027
Si Si4 0.282723 0.121523 0.592443
Si Si5 0.845347 0.255514 0.910676
Si Si6 0.383722 0.932154 0.332041
O O1 0.890193 0.109808 0.857330
O O2 0.828429 0.067525 0.733591
O O3 0.768343 0.097777 0.858300
O O4 0.839729 0.000000 0.862093
O O5 0.400130 0.089731 0.914420
O O6 0.500000 0.098094 0.000000
O O7 0.433430 0.000000 0.000000
O O8 0.096402 0.903599 0.617670
O O9 0.113721 0.789060 0.599658
O O10 0.000000 0.834267 0.603314
O O11 0.302239 0.110701 0.500000
O O12 0.309618 0.185820 0.624043
O O13 0.311714 0.070461 0.651532
O O14 0.797148 0.202853 0.913714
O O15 0.869961 0.269857 0.000000
O O16 0.397845 0.897845 0.250000
O O17 0.408573 0.000000 0.322568
#
# Coordination Sequence:
#
# PCOD8319970 Si02
#       6
#    32  16  32  32  32  32
#     4   9  19  36  58  87 123 162 206 256 310 369
#     4   9  18  36  58  78 107 148 197 253 309 366
#     4  10  22  39  62  92 124 161 203 252 310 372
#     4  11  23  40  61  88 122 157 204 252 308 370
#     4   9  19  36  58  83 116 158 201 247 303 364
#     4  11  23  38  58  84 115 156 202 255 312 370
#
# _framework density 21.751144
#
# number of rings (size 3 to 8) (size 9 to 14) (size 15 to 20)
#    0.000    2.091    0.909    1.636    2.545    3.818 
#    0.000    5.455    0.000    0.000    0.000    3.818 
#    0.000    0.000    0.000    0.000    0.000    0.000 
#
# Total GULP energy -1090286.614758 kJ/mol
# GULP energy per Si atom -12389.620622 kJ/mol
# Density = 2.170164 g / cm^3
# Si number density = 21.751144 Si / 1000 Ang^3
#
#
#
# Elastic Constant Matrix: (Units=GPa)
#
#
# Indices 1 2 3 4 5 6 
#
# 1 118.4729 55.8753 35.4516 0.0000 0.0000 0.0000
# 2 55.8753 118.4729 35.4516 0.0000 0.0000 0.0000
# 3 35.4516 35.4516 95.4575 0.0000 0.0000 0.0000
# 4 0.0000 0.0000 0.0000 23.2801 0.0000 0.0000
# 5 0.0000 0.0000 0.0000 0.0000 23.2801 0.0000
# 6 0.0000 0.0000 0.0000 0.0000 0.0000 27.0102
#
#
#
# Elastic Compliance Matrix: (Units=1/GPa)
#
#
# Indices 1 2 3 4 5 6 
#
# 1 0.011366 -0.004610 -0.002509 0.000000 0.000000 0.000000
# 2 -0.004610 0.011366 -0.002509 0.000000 0.000000 0.000000
# 3 -0.002509 -0.002509 0.012340 0.000000 0.000000 0.000000
# 4 0.000000 0.000000 0.000000 0.042955 0.000000 0.000000
# 5 0.000000 0.000000 0.000000 0.000000 0.042955 0.000000
# 6 0.000000 0.000000 0.000000 0.000000 0.000000 0.037023
#
#
# Mechanical properties :
#
#
# Convention : Reuss Voigt Hill
#
# Bulk Modulus (GPa) = 63.23019 65.10671 64.16845
# Shear Modulus (GPa) = 27.39261 28.42241 27.90751
#
# Velocity S-wave (km/s) = 3.55260 3.61876 3.58584
# Velocity P-wave (km/s) = 6.77945 6.88899 6.83444
#
# Compressibility (1/GPa) = 0.01581523
#
# Stress axis : x y z
#
# Youngs Moduli (GPa) = 87.98520 87.98520 81.04019
#
# Poissons Ratio (x) = 0.40557 0.20334
# Poissons Ratio (y) = 0.40557 0.20334
# Poissons Ratio (z) = 0.22076 0.22076
#
# Static dielectric constant tensor:
#      x y z
#    x 4.043940 0.000000 0.000000 
#    y 0.000000 4.043940 0.000000 
#    z 0.000000 0.000000 3.986830 
# 
# 
# High freq. dielectric constant tensor:
#      x y z
#    x 1.848590 0.000000 0.000000 
#    y 0.000000 1.848590 0.000000 
#    z 0.000000 0.000000 1.848480 
# 
# From -- ./inp_files/6137.got.cif
#   From: 2010.03.12/outbox.cif.g09.slc.cpg/sg139_4_cif.got.tgz:6137.got - 2010.04.08 09:46:31.
