data_PCOD8319988
_publ_section_title
;
Structure prediction by ZEFSAII (Michael W. Deem and Ramdas Pophale) SiO2 
 PCOD8319988
Probable space group: I 4/M M M
;
_chemical_formula_sum "Si O2"
_cell_formula_units_Z 112
_cell_length_a 18.901242
_cell_length_b 18.901242
_cell_length_c 18.694166
_cell_angle_alpha 90.000000
_cell_angle_beta 90.000000
_cell_angle_gamma 90.000000
_cell_volume 6678.620712
_symmetry_space_group_name_H-M "I 4/M M M"
_symmetry_group_IT_number 139
_symmetry_cell_setting 'tetragonal'
loop_
_space_group_symop_operation_xyz
x,y,z
-y,x,z
-x,-y,z
y,-x,z
x,-y,-z
-x,y,-z
y,x,-z
-y,-x,-z
-x,-y,-z
y,-x,-z
x,y,-z
-y,x,-z
-x,y,z
x,-y,z
-y,-x,z
y,x,z
1/2+x,1/2+y,1/2+z
1/2-y,1/2+x,1/2+z
1/2-x,1/2-y,1/2+z
1/2+y,1/2-x,1/2+z
1/2+x,1/2-y,1/2-z
1/2-x,1/2+y,1/2-z
1/2+y,1/2+x,1/2-z
1/2-y,1/2-x,1/2-z
1/2-x,1/2-y,1/2-z
1/2+y,1/2-x,1/2-z
1/2+x,1/2+y,1/2-z
1/2-y,1/2+x,1/2-z
1/2-x,1/2+y,1/2+z
1/2+x,1/2-y,1/2+z
1/2-y,1/2-x,1/2+z
1/2+y,1/2+x,1/2+z
loop_
_atom_site_type_symbol
_atom_site_label
_atom_site_fract_x
_atom_site_fract_y
_atom_site_fract_z
Si Si1 0.367599 0.916400 0.326837
Si Si2 0.582546 0.000000 0.921990
Si Si3 0.189983 0.920650 0.084857
Si Si4 0.806644 0.308757 0.417994
O O1 0.385388 0.885388 0.250000
O O2 0.431745 0.895450 0.378338
O O3 0.302934 0.874275 0.364365
O O4 0.352244 0.000000 0.322739
O O5 0.500000 0.000000 0.934241
O O6 0.620872 0.000000 0.000000
O O7 0.119177 0.880824 0.113325
O O8 0.258485 0.875196 0.107066
O O9 0.194353 0.000000 0.117753
O O10 0.186281 0.924257 0.000000
O O11 0.832016 0.318059 0.500000
O O12 0.763619 0.236382 0.409873
#
# Coordination Sequence:
#
# PCOD8319988 Si02
#       4
#    32  16  32  32
#     4  11  21  33  49  71 102 133 165 212 258 302
#     4   9  18  30  46  68  94 128 165 201 245 294
#     4   8  14  24  38  58  83 113 151 195 242 291
#     4   9  19  34  50  69  95 128 169 214 256 307
#
# _framework density 16.769929999999999
#
# number of rings (size 3 to 8) (size 9 to 14) (size 15 to 20)
#    0.000    2.714    1.429    2.571    2.000    2.571 
#    0.000    1.429    0.000    0.000    0.000    0.000 
#    0.000    0.571    0.000    3.143    0.000    0.571 
#
# Total GULP energy -693942.114769 kJ/mol
# GULP energy per Si atom -12391.823478 kJ/mol
# Density = 1.673176 g / cm^3
# Si number density = 16.769930 Si / 1000 Ang^3
#
#
#
# Elastic Constant Matrix: (Units=GPa)
#
#
# Indices 1 2 3 4 5 6 
#
# 1 67.8046 40.7440 39.3620 0.0000 0.0000 0.0000
# 2 40.7440 67.8046 39.3620 0.0000 0.0000 0.0000
# 3 39.3620 39.3620 106.6356 0.0000 0.0000 0.0000
# 4 0.0000 0.0000 0.0000 20.2381 0.0000 0.0000
# 5 0.0000 0.0000 0.0000 0.0000 20.2381 0.0000
# 6 0.0000 0.0000 0.0000 0.0000 0.0000 16.3904
#
#
#
# Elastic Compliance Matrix: (Units=1/GPa)
#
#
# Indices 1 2 3 4 5 6 
#
# 1 0.024767 -0.012187 -0.004644 0.000000 0.000000 0.000000
# 2 -0.012187 0.024767 -0.004644 0.000000 0.000000 0.000000
# 3 -0.004644 -0.004644 0.012806 0.000000 0.000000 0.000000
# 4 0.000000 0.000000 0.000000 0.049412 0.000000 0.000000
# 5 0.000000 0.000000 0.000000 0.000000 0.049412 0.000000
# 6 0.000000 0.000000 0.000000 0.000000 0.000000 0.061011
#
#
# Mechanical properties :
#
#
# Convention : Reuss Voigt Hill
#
# Bulk Modulus (GPa) = 51.56853 53.46455 52.51654
# Shear Modulus (GPa) = 18.41025 19.55843 18.98434
#
# Velocity S-wave (km/s) = 3.31692 3.41879 3.36824
# Velocity P-wave (km/s) = 6.74438 6.89453 6.81987
#
# Compressibility (1/GPa) = 0.01939167
#
# Stress axis : x y z
#
# Youngs Moduli (GPa) = 40.37597 40.37597 78.08858
#
# Poissons Ratio (x) = 0.49206 0.36262
# Poissons Ratio (y) = 0.49206 0.36262
# Poissons Ratio (z) = 0.18749 0.18749
#
# Static dielectric constant tensor:
#      x y z
#    x 3.095620 0.000000 0.000000 
#    y 0.000000 3.095620 0.000000 
#    z 0.000000 0.000000 2.997320 
# 
# 
# High freq. dielectric constant tensor:
#      x y z
#    x 1.631880 0.000000 0.000000 
#    y 0.000000 1.631880 0.000000 
#    z 0.000000 0.000000 1.621560 
# 
# From -- ./inp_files/7830.got.cif
#   From: 2010.03.12/outbox.cif.g09.slc.cpg/sg139_4_cif.got.tgz:7830.got - 2010.04.08 09:46:31.
