data_PCOD8319015
_publ_section_title
;
Structure prediction by ZEFSAII (Michael W. Deem and Ramdas Pophale) SiO2 
 PCOD8319015
Probable space group: P 42/N C M
;
_chemical_formula_sum "Si O2"
_cell_formula_units_Z 96
_cell_length_a 14.559159
_cell_length_b 14.559159
_cell_length_c 23.594088
_cell_angle_alpha 90.000000
_cell_angle_beta 90.000000
_cell_angle_gamma 90.000000
_cell_volume 5001.217853
_symmetry_space_group_name_H-M "P 42/N C M"
_symmetry_group_IT_number 138
_space_group.IT_coordinate_system_code '2'
_symmetry_cell_setting 'tetragonal'
loop_
_space_group_symop_operation_xyz
x,y,z
1/2-y,x,1/2+z
1/2-x,1/2-y,z
y,1/2-x,1/2+z
1/2+x,-y,1/2-z
-x,1/2+y,1/2-z
1/2+y,1/2+x,-z
-y,-x,-z
-x,-y,-z
1/2+y,-x,1/2-z
1/2+x,1/2+y,-z
-y,1/2+x,1/2-z
1/2-x,y,1/2+z
x,1/2-y,1/2+z
1/2-y,1/2-x,z
y,x,z
loop_
_atom_site_type_symbol
_atom_site_label
_atom_site_fract_x
_atom_site_fract_y
_atom_site_fract_z
Si Si1 0.633521 0.014492 0.854119
Si Si2 0.110021 0.696836 0.745159
Si Si3 0.547636 0.806384 0.539990
Si Si4 0.905509 0.447869 0.637588
Si Si5 0.310135 0.456758 0.090973
Si Si6 0.612904 0.037804 0.054121
O O1 0.546318 0.953683 0.838421
O O2 0.703525 0.953167 0.892010
O O3 0.682113 0.038984 0.795585
O O4 0.601553 0.105633 0.889389
O O5 0.133847 0.803022 0.741698
O O6 0.065741 0.671512 0.684987
O O7 0.651949 0.848052 0.550784
O O8 0.475759 0.861204 0.578022
O O9 0.520993 0.822177 0.475122
O O10 0.532528 0.699050 0.554798
O O11 0.973804 0.526197 0.660015
O O12 0.960464 0.354336 0.626716
O O13 0.360088 0.360088 0.105469
O O14 0.521280 0.978721 0.053554
O O15 0.607296 0.107296 0.000000
#
# Coordination Sequence:
#
# PCOD8319015 Si02
#       6
#    16  16  16  16  16  16
#     4  11  22  38  59  83 115 155 196 234 286 346
#     4  11  22  37  58  83 113 147 192 240 285 340
#     4  10  20  35  59  86 113 150 191 234 289 350
#     4  10  20  37  58  81 113 147 184 234 291 344
#     4  10  20  36  58  84 115 148 189 239 288 340
#     4  10  20  35  54  79 115 153 188 232 283 337
#
# _framework density 19.195325
#
# number of rings (size 3 to 8) (size 9 to 14) (size 15 to 20)
#    0.000    1.667    3.333    2.000    0.000    2.667 
#    0.000    1.667    0.000    0.000    0.000    2.333 
#    0.000    0.000    0.000    0.000    0.000    0.000 
#
# Total GULP energy -1189986.845680 kJ/mol
# GULP energy per Si atom -12395.696309 kJ/mol
# Density = 1.915164 g / cm^3
# Si number density = 19.195325 Si / 1000 Ang^3
#
#
#
# Elastic Constant Matrix: (Units=GPa)
#
#
# Indices 1 2 3 4 5 6 
#
# 1 73.2611 19.9986 26.7590 0.0000 0.0000 0.0000
# 2 19.9986 73.2611 26.7590 0.0000 0.0000 0.0000
# 3 26.7590 26.7590 94.5990 0.0000 0.0000 0.0000
# 4 0.0000 0.0000 0.0000 25.0144 0.0000 0.0000
# 5 0.0000 0.0000 0.0000 0.0000 25.0144 0.0000
# 6 0.0000 0.0000 0.0000 0.0000 0.0000 26.3574
#
#
#
# Elastic Compliance Matrix: (Units=1/GPa)
#
#
# Indices 1 2 3 4 5 6 
#
# 1 0.015788 -0.002987 -0.003621 0.000000 0.000000 0.000000
# 2 -0.002987 0.015788 -0.003621 0.000000 0.000000 0.000000
# 3 -0.003621 -0.003621 0.012619 0.000000 0.000000 0.000000
# 4 0.000000 0.000000 0.000000 0.039977 0.000000 0.000000
# 5 0.000000 0.000000 0.000000 0.000000 0.039977 0.000000
# 6 0.000000 0.000000 0.000000 0.000000 0.000000 0.037940
#
#
# Mechanical properties :
#
#
# Convention : Reuss Voigt Hill
#
# Bulk Modulus (GPa) = 42.12812 43.12827 42.62819
# Shear Modulus (GPa) = 26.25237 26.45090 26.35163
#
# Velocity S-wave (km/s) = 3.70218 3.71615 3.70917
# Velocity P-wave (km/s) = 6.34583 6.39765 6.37179
#
# Compressibility (1/GPa) = 0.02373712
#
# Stress axis : x y z
#
# Youngs Moduli (GPa) = 63.34015 63.34015 79.24314
#
# Poissons Ratio (x) = 0.18921 0.28693
# Poissons Ratio (y) = 0.18921 0.28693
# Poissons Ratio (z) = 0.22935 0.22935
#
# Static dielectric constant tensor:
#      x y z
#    x 3.440330 0.000000 0.000000 
#    y 0.000000 3.440330 0.000000 
#    z 0.000000 0.000000 3.526030 
# 
# 
# High freq. dielectric constant tensor:
#      x y z
#    x 1.737680 0.000000 0.000000 
#    y 0.000000 1.737680 0.000000 
#    z 0.000000 0.000000 1.753890 
# 
# From -- ./inp_files/6206.got.cif
#   From: 2010.03.12/outbox.cif.g09.slc.cpg/sg138_4_cif.got.tgz:6206.got - 2010.04.08 09:41:05.
