data_PCOD8319003
_publ_section_title
;
Structure prediction by ZEFSAII (Michael W. Deem and Ramdas Pophale) SiO2 
 PCOD8319003
Probable space group: P 42/N C M
;
_chemical_formula_sum "Si O2"
_cell_formula_units_Z 80
_cell_length_a 22.934548
_cell_length_b 22.934548
_cell_length_c 8.864558
_cell_angle_alpha 90.000000
_cell_angle_beta 90.000000
_cell_angle_gamma 90.000000
_cell_volume 4662.699817
_symmetry_space_group_name_H-M "P 42/N C M"
_symmetry_group_IT_number 138
_space_group.IT_coordinate_system_code '2'
_symmetry_cell_setting 'tetragonal'
loop_
_space_group_symop_operation_xyz
x,y,z
1/2-y,x,1/2+z
1/2-x,1/2-y,z
y,1/2-x,1/2+z
1/2+x,-y,1/2-z
-x,1/2+y,1/2-z
1/2+y,1/2+x,-z
-y,-x,-z
-x,-y,-z
1/2+y,-x,1/2-z
1/2+x,1/2+y,-z
-y,1/2+x,1/2-z
1/2-x,y,1/2+z
x,1/2-y,1/2+z
1/2-y,1/2-x,z
y,x,z
loop_
_atom_site_type_symbol
_atom_site_label
_atom_site_fract_x
_atom_site_fract_y
_atom_site_fract_z
Si Si1 0.873752 0.037541 0.073106
Si Si2 0.545251 0.545251 0.569850
Si Si3 0.077502 0.754067 0.960782
Si Si4 0.158410 0.764168 0.710524
Si Si5 0.454669 0.045332 0.569695
Si Si6 0.373417 0.962391 0.072920
O O1 0.804609 0.042546 0.046798
O O2 0.888172 0.036457 0.250036
O O3 0.907611 0.092390 0.000000
O O4 0.892403 0.976069 0.995006
O O5 0.500000 0.500000 0.500000
O O6 0.545583 0.545583 0.750128
O O7 0.607422 0.523596 0.505444
O O8 0.140789 0.741536 0.036766
O O9 0.096720 0.775803 0.794952
O O10 0.039729 0.695557 0.955340
O O11 0.202613 0.816501 0.733291
O O12 0.500000 0.000000 0.500000
O O13 0.406864 0.906864 0.000000
#
# Coordination Sequence:
#
# PCOD8319003 Si02
#       6
#    16   8  16  16   8  16
#     4  11  22  36  54  74 102 134 174 219 266 317
#     4  10  20  34  56  76  98 127 166 215 268 324
#     4  12  24  33  52  74 100 137 178 224 262 306
#     4  11  22  36  48  66  98 140 184 221 256 294
#     4  10  20  34  56  76  98 127 166 215 268 324
#     4  11  22  36  54  74 102 134 174 219 266 317
#
# _framework density 17.157443000000001
#
# number of rings (size 3 to 8) (size 9 to 14) (size 15 to 20)
#    0.000    1.000    2.000    9.000    5.600    1.600 
#    0.000    0.000    0.000    0.000    0.000    0.000 
#    0.000    0.800    0.000    5.600    0.000    1.400 
#
# Total GULP energy -991758.867641 kJ/mol
# GULP energy per Si atom -12396.985846 kJ/mol
# Density = 1.711839 g / cm^3
# Si number density = 17.157443 Si / 1000 Ang^3
#
#
#
# Elastic Constant Matrix: (Units=GPa)
#
#
# Indices 1 2 3 4 5 6 
#
# 1 61.6362 34.1115 41.1624 0.0000 0.0000 0.0000
# 2 34.1115 61.6354 41.1624 0.0000 0.0000 0.0000
# 3 41.1624 41.1624 133.8099 0.0000 0.0000 0.0000
# 4 0.0000 0.0000 0.0000 26.2002 0.0000 0.0000
# 5 0.0000 0.0000 0.0000 0.0000 26.2003 0.0000
# 6 0.0000 0.0000 0.0000 0.0000 0.0000 23.8177
#
#
#
# Elastic Compliance Matrix: (Units=1/GPa)
#
#
# Indices 1 2 3 4 5 6 
#
# 1 0.025266 -0.011066 -0.004368 0.000000 0.000000 0.000000
# 2 -0.011066 0.025266 -0.004368 0.000000 0.000000 0.000000
# 3 -0.004368 -0.004368 0.010161 0.000000 0.000000 0.000000
# 4 0.000000 0.000000 0.000000 0.038168 0.000000 0.000000
# 5 0.000000 0.000000 0.000000 0.000000 0.038167 0.000000
# 6 0.000000 0.000000 0.000000 0.000000 0.000000 0.041986
#
#
# Mechanical properties :
#
#
# Convention : Reuss Voigt Hill
#
# Bulk Modulus (GPa) = 47.42030 54.43933 50.92981
# Shear Modulus (GPa) = 22.15855 24.61999 23.38927
#
# Velocity S-wave (km/s) = 3.59762 3.79218 3.69618
# Velocity P-wave (km/s) = 6.70489 7.13949 6.92560
#
# Compressibility (1/GPa) = 0.02108801
#
# Stress axis : x y z
#
# Youngs Moduli (GPa) = 39.57961 39.57894 98.41787
#
# Poissons Ratio (x) = 0.43797 0.42990
# Poissons Ratio (y) = 0.43798 0.42991
# Poissons Ratio (z) = 0.17289 0.17289
#
# Static dielectric constant tensor:
#      x y z
#    x 3.340180 0.000000 0.000000 
#    y 0.000000 3.340180 0.000000 
#    z 0.000000 0.000000 3.460670 
# 
# 
# High freq. dielectric constant tensor:
#      x y z
#    x 1.630190 0.000000 0.000000 
#    y 0.000000 1.630190 0.000000 
#    z 0.000000 0.000000 1.696410 
# 
# From -- ./inp_files/1643.got.cif
#   From: 2010.03.12/outbox.cif.g09.slc.cpg/sg138_1_cif.got.tgz:1643.got - 2010.04.08 09:41:05.
