data_PCOD8319053
_publ_section_title
;
Structure prediction by ZEFSAII (Michael W. Deem and Ramdas Pophale) SiO2 
 PCOD8319053
Probable space group: P 42/N C M
;
_chemical_formula_sum "Si O2"
_cell_formula_units_Z 44
_cell_length_a 16.437960
_cell_length_b 16.437960
_cell_length_c 8.577912
_cell_angle_alpha 90.000000
_cell_angle_beta 90.000000
_cell_angle_gamma 90.000000
_cell_volume 2317.807827
_symmetry_space_group_name_H-M "P 42/N C M"
_symmetry_group_IT_number 138
_space_group.IT_coordinate_system_code '2'
_symmetry_cell_setting 'tetragonal'
loop_
_space_group_symop_operation_xyz
x,y,z
1/2-y,x,1/2+z
1/2-x,1/2-y,z
y,1/2-x,1/2+z
1/2+x,-y,1/2-z
-x,1/2+y,1/2-z
1/2+y,1/2+x,-z
-y,-x,-z
-x,-y,-z
1/2+y,-x,1/2-z
1/2+x,1/2+y,-z
-y,1/2+x,1/2-z
1/2-x,y,1/2+z
x,1/2-y,1/2+z
1/2-y,1/2-x,z
y,x,z
loop_
_atom_site_type_symbol
_atom_site_label
_atom_site_fract_x
_atom_site_fract_y
_atom_site_fract_z
Si Si1 0.893471 0.019425 0.869016
Si Si2 0.348234 0.348234 0.064325
Si Si3 0.185403 0.850099 0.321110
Si Si4 0.250000 0.250000 0.814189
O O1 0.852786 0.062981 0.721520
O O2 0.834059 0.946763 0.932688
O O3 0.913180 0.086821 0.000000
O O4 0.978507 0.978507 0.812516
O O5 0.308036 0.308036 0.215439
O O6 0.308605 0.308605 0.912796
O O7 0.169527 0.830474 0.500000
O O8 0.281580 0.854238 0.289659
#
# Coordination Sequence:
#
# PCOD8319053 Si02
#       4
#    16   8  16   4
#     4   9  20  41  59  84 120 150 195 238 302 341
#     4   9  21  38  57  85 114 157 195 247 285 355
#     4  11  22  37  60  87 118 157 201 242 292 353
#     4  10  20  38  60  84 118 150 210 232 292 346
#
# _framework density 18.983453999999998
#
# number of rings (size 3 to 8) (size 9 to 14) (size 15 to 20)
#    1.091    1.091    0.000    4.364    0.000    6.545 
#    0.000    3.636    0.000    0.000    0.000    0.000 
#    0.000    0.000    0.000    0.000    0.000    0.000 
#
# Total GULP energy -545238.143601 kJ/mol
# GULP energy per Si atom -12391.775991 kJ/mol
# Density = 1.894025 g / cm^3
# Si number density = 18.983454 Si / 1000 Ang^3
#
#
#
# Elastic Constant Matrix: (Units=GPa)
#
#
# Indices 1 2 3 4 5 6 
#
# 1 80.4091 65.9088 51.7211 0.0000 0.0000 0.0000
# 2 65.9088 80.4085 51.7234 0.0000 0.0000 0.0000
# 3 51.7211 51.7234 107.7721 0.0000 0.0000 0.0000
# 4 0.0000 0.0000 0.0000 27.0189 0.0000 0.0000
# 5 0.0000 0.0000 0.0000 0.0000 27.0186 0.0000
# 6 0.0000 0.0000 0.0000 0.0000 0.0000 44.2458
#
#
#
# Elastic Compliance Matrix: (Units=1/GPa)
#
#
# Indices 1 2 3 4 5 6 
#
# 1 0.039654 -0.029311 -0.004963 0.000000 0.000000 0.000000
# 2 -0.029311 0.039656 -0.004966 0.000000 0.000000 0.000000
# 3 -0.004963 -0.004966 0.014044 0.000000 0.000000 0.000000
# 4 0.000000 0.000000 0.000000 0.037011 0.000000 0.000000
# 5 0.000000 0.000000 0.000000 0.000000 0.037012 0.000000
# 6 0.000000 0.000000 0.000000 0.000000 0.000000 0.022601
#
#
# Mechanical properties :
#
#
# Convention : Reuss Voigt Hill
#
# Bulk Modulus (GPa) = 67.22838 67.47736 67.35287
# Shear Modulus (GPa) = 18.28722 26.27241 22.27982
#
# Velocity S-wave (km/s) = 3.10711 3.72420 3.42957
# Velocity P-wave (km/s) = 6.95437 7.35632 7.15817
#
# Compressibility (1/GPa) = 0.01487467
#
# Stress axis : x y z
#
# Youngs Moduli (GPa) = 25.21816 25.21687 71.20518
#
# Poissons Ratio (x) = 0.73913 0.35341
# Poissons Ratio (y) = 0.73916 0.35358
# Poissons Ratio (z) = 0.12516 0.12522
#
# Static dielectric constant tensor:
#      x y z
#    x 3.438690 0.000000 0.000000 
#    y 0.000000 3.438700 0.000000 
#    z 0.000000 0.000000 3.246480 
# 
# 
# High freq. dielectric constant tensor:
#      x y z
#    x 1.737510 0.000000 0.000000 
#    y 0.000000 1.737510 0.000000 
#    z 0.000000 0.000000 1.725030 
# 
# From -- ./inp_files/1029.got.cif
#   From: 2010.03.12/outbox.cif.g09.slc.cpg/sg138_1_cif.got.tgz:1029.got - 2010.04.08 09:41:05.
