data_PCOD8319518
_publ_section_title
;
Structure prediction by ZEFSAII (Michael W. Deem and Ramdas Pophale) SiO2 
 PCOD8319518
Probable space group: I 4/M M M
;
_chemical_formula_sum "Si O2"
_cell_formula_units_Z 144
_cell_length_a 19.344689
_cell_length_b 19.344689
_cell_length_c 21.151862
_cell_angle_alpha 90.000000
_cell_angle_beta 90.000000
_cell_angle_gamma 90.000000
_cell_volume 7915.386184
_symmetry_space_group_name_H-M "I 4/M M M"
_symmetry_group_IT_number 139
_symmetry_cell_setting 'tetragonal'
loop_
_space_group_symop_operation_xyz
x,y,z
-y,x,z
-x,-y,z
y,-x,z
x,-y,-z
-x,y,-z
y,x,-z
-y,-x,-z
-x,-y,-z
y,-x,-z
x,y,-z
-y,x,-z
-x,y,z
x,-y,z
-y,-x,z
y,x,z
1/2+x,1/2+y,1/2+z
1/2-y,1/2+x,1/2+z
1/2-x,1/2-y,1/2+z
1/2+y,1/2-x,1/2+z
1/2+x,1/2-y,1/2-z
1/2-x,1/2+y,1/2-z
1/2+y,1/2+x,1/2-z
1/2-y,1/2-x,1/2-z
1/2-x,1/2-y,1/2-z
1/2+y,1/2-x,1/2-z
1/2+x,1/2+y,1/2-z
1/2-y,1/2+x,1/2-z
1/2-x,1/2+y,1/2+z
1/2+x,1/2-y,1/2+z
1/2-y,1/2-x,1/2+z
1/2+y,1/2+x,1/2+z
loop_
_atom_site_type_symbol
_atom_site_label
_atom_site_fract_x
_atom_site_fract_y
_atom_site_fract_z
Si Si1 0.921140 0.808531 0.313564
Si Si2 0.920786 0.191246 0.831096
Si Si3 0.421317 0.921317 0.750000
Si Si4 0.420849 0.807811 0.570816
Si Si5 0.664754 0.079736 0.371680
O O1 0.872164 0.872164 0.331792
O O2 0.909762 0.783669 0.241164
O O3 0.904400 0.745651 0.360985
O O4 0.000000 0.833470 0.322456
O O5 0.877040 0.122961 0.845235
O O6 0.896172 0.251251 0.878373
O O7 0.000000 0.171677 0.844388
O O8 0.500000 0.908274 0.729220
O O9 0.374169 0.900013 0.692134
O O10 0.414789 0.777162 0.500000
O O11 0.500000 0.830972 0.584558
O O12 0.368797 0.873069 0.574127
O O13 0.652996 0.000000 0.390233
#
# Coordination Sequence:
#
# PCOD8319518 Si02
#       5
#    32  32  16  32  32
#     4   9  18  32  51  75 100 125 154 193 242 293
#     4   9  18  33  52  74 100 129 162 199 239 284
#     4   9  16  26  43  66  92 124 157 192 238 285
#     4  10  21  35  49  67  96 134 170 203 241 282
#     4  10  19  31  48  70  96 124 159 200 238 284
#
# _framework density 18.192416000000001
#
# number of rings (size 3 to 8) (size 9 to 14) (size 15 to 20)
#    0.000    2.556    0.000    2.000    0.000    7.111 
#    0.000    6.111    0.000    0.000    0.000    3.111 
#    0.000    0.000    0.000    4.889    0.000    0.222 
#
# Total GULP energy -892782.296827 kJ/mol
# GULP energy per Si atom -12399.754123 kJ/mol
# Density = 1.815101 g / cm^3
# Si number density = 18.192416 Si / 1000 Ang^3
#
#
#
# Elastic Constant Matrix: (Units=GPa)
#
#
# Indices 1 2 3 4 5 6 
#
# 1 77.5799 47.7857 27.2814 0.0000 0.0000 0.0000
# 2 47.7857 77.5799 27.2814 0.0000 0.0000 0.0000
# 3 27.2814 27.2814 35.4503 0.0000 0.0000 0.0000
# 4 0.0000 0.0000 0.0000 20.2875 0.0000 0.0000
# 5 0.0000 0.0000 0.0000 0.0000 20.2875 0.0000
# 6 0.0000 0.0000 0.0000 0.0000 0.0000 34.7169
#
#
#
# Elastic Compliance Matrix: (Units=1/GPa)
#
#
# Indices 1 2 3 4 5 6 
#
# 1 0.022779 -0.010785 -0.009230 0.000000 0.000000 0.000000
# 2 -0.010785 0.022779 -0.009230 0.000000 0.000000 0.000000
# 3 -0.009230 -0.009230 0.042415 0.000000 0.000000 0.000000
# 4 0.000000 0.000000 0.000000 0.049291 0.000000 0.000000
# 5 0.000000 0.000000 0.000000 0.000000 0.049291 0.000000
# 6 0.000000 0.000000 0.000000 0.000000 0.000000 0.028804
#
#
# Mechanical properties :
#
#
# Convention : Reuss Voigt Hill
#
# Bulk Modulus (GPa) = 33.91872 43.92301 38.92086
# Shear Modulus (GPa) = 17.62566 20.94248 19.28407
#
# Velocity S-wave (km/s) = 3.11601 3.39656 3.25931
# Velocity P-wave (km/s) = 5.62414 6.29112 5.96695
#
# Compressibility (1/GPa) = 0.02948225
#
# Stress axis : x y z
#
# Youngs Moduli (GPa) = 43.90062 43.90062 23.57657
#
# Poissons Ratio (x) = 0.47346 0.21761
# Poissons Ratio (y) = 0.47346 0.21762
# Poissons Ratio (z) = 0.40521 0.40521
#
# Static dielectric constant tensor:
#      x y z
#    x 3.327550 0.000000 0.000000 
#    y 0.000000 3.327550 0.000000 
#    z 0.000000 0.000000 3.172530 
# 
# 
# High freq. dielectric constant tensor:
#      x y z
#    x 1.700370 0.000000 0.000000 
#    y 0.000000 1.700370 0.000000 
#    z 0.000000 0.000000 1.680510 
# 
# From -- ./inp_files/11458.got.cif
#   From: 2010.03.12/outbox.cif.g09.slc.cpg/sg139_6_cif.got.tgz:11458.got - 2010.04.08 09:46:31.
