data_PCOD8319906
_publ_section_title
;
Structure prediction by ZEFSAII (Michael W. Deem and Ramdas Pophale) SiO2 
 PCOD8319906
Probable space group: I 4/M M M
;
_chemical_formula_sum "Si O2"
_cell_formula_units_Z 144
_cell_length_a 18.339933
_cell_length_b 18.339933
_cell_length_c 22.213463
_cell_angle_alpha 90.000000
_cell_angle_beta 90.000000
_cell_angle_gamma 90.000000
_cell_volume 7471.568085
_symmetry_space_group_name_H-M "I 4/M M M"
_symmetry_group_IT_number 139
_symmetry_cell_setting 'tetragonal'
loop_
_space_group_symop_operation_xyz
x,y,z
-y,x,z
-x,-y,z
y,-x,z
x,-y,-z
-x,y,-z
y,x,-z
-y,-x,-z
-x,-y,-z
y,-x,-z
x,y,-z
-y,x,-z
-x,y,z
x,-y,z
-y,-x,z
y,x,z
1/2+x,1/2+y,1/2+z
1/2-y,1/2+x,1/2+z
1/2-x,1/2-y,1/2+z
1/2+y,1/2-x,1/2+z
1/2+x,1/2-y,1/2-z
1/2-x,1/2+y,1/2-z
1/2+y,1/2+x,1/2-z
1/2-y,1/2-x,1/2-z
1/2-x,1/2-y,1/2-z
1/2+y,1/2-x,1/2-z
1/2+x,1/2+y,1/2-z
1/2-y,1/2+x,1/2-z
1/2-x,1/2+y,1/2+z
1/2+x,1/2-y,1/2+z
1/2-y,1/2-x,1/2+z
1/2+y,1/2+x,1/2+z
loop_
_atom_site_type_symbol
_atom_site_label
_atom_site_fract_x
_atom_site_fract_y
_atom_site_fract_z
Si Si1 0.286272 0.083328 0.377613
Si Si2 0.702391 0.583598 0.240782
Si Si3 0.587485 0.708374 0.000000
Si Si4 0.681347 0.917847 0.839907
Si Si5 0.419676 0.693421 0.431389
O O1 0.222431 0.094866 0.328937
O O2 0.255708 0.111766 0.441650
O O3 0.359967 0.118858 0.352646
O O4 0.307884 0.000000 0.384822
O O5 0.680050 0.500000 0.254470
O O6 0.634172 0.634172 0.257474
O O7 0.772025 0.605035 0.281399
O O8 0.500000 0.691408 0.000000
O O9 0.631799 0.631799 0.000000
O O10 0.730500 0.914746 0.898637
O O11 0.649196 0.000000 0.831311
O O12 0.399431 0.709184 0.500000
O O13 0.500000 0.659027 0.425043
O O14 0.363883 0.636118 0.402037
#
# Coordination Sequence:
#
# PCOD8319906 Si02
#       5
#    32  32  16  32  32
#     4  10  22  39  57  81 111 142 184 232 276 329
#     4  10  21  37  57  83 114 146 182 225 272 327
#     4  10  22  39  59  85 113 143 182 228 278 334
#     4  10  21  36  55  80 110 143 182 226 272 322
#     4   9  18  31  47  71 103 137 176 219 261 312
#
# _framework density 19.273063
#
# number of rings (size 3 to 8) (size 9 to 14) (size 15 to 20)
#    0.000    2.222    0.000    2.000    1.556    5.444 
#    0.000    1.111    0.000   14.000    0.000    0.000 
#    0.000    0.000    0.000    0.000    0.000    0.000 
#
# Total GULP energy -892555.317961 kJ/mol
# GULP energy per Si atom -12396.601638 kJ/mol
# Density = 1.922920 g / cm^3
# Si number density = 19.273063 Si / 1000 Ang^3
#
#
#
# Elastic Constant Matrix: (Units=GPa)
#
#
# Indices 1 2 3 4 5 6 
#
# 1 83.0605 58.9943 33.2578 0.0000 0.0000 0.0000
# 2 58.9943 83.0605 33.2578 0.0000 0.0000 0.0000
# 3 33.2578 33.2578 109.0906 0.0000 0.0000 0.0000
# 4 0.0000 0.0000 0.0000 23.1230 0.0000 0.0000
# 5 0.0000 0.0000 0.0000 0.0000 23.1230 0.0000
# 6 0.0000 0.0000 0.0000 0.0000 0.0000 32.8687
#
#
#
# Elastic Compliance Matrix: (Units=1/GPa)
#
#
# Indices 1 2 3 4 5 6 
#
# 1 0.024882 -0.016670 -0.002503 0.000000 0.000000 0.000000
# 2 -0.016670 0.024882 -0.002503 0.000000 0.000000 0.000000
# 3 -0.002503 -0.002503 0.010693 0.000000 0.000000 0.000000
# 4 0.000000 0.000000 0.000000 0.043247 0.000000 0.000000
# 5 0.000000 0.000000 0.000000 0.000000 0.043247 0.000000
# 6 0.000000 0.000000 0.000000 0.000000 0.000000 0.030424
#
#
# Mechanical properties :
#
#
# Convention : Reuss Voigt Hill
#
# Bulk Modulus (GPa) = 58.47007 58.47015 58.47011
# Shear Modulus (GPa) = 22.08187 25.80306 23.94247
#
# Velocity S-wave (km/s) = 3.38855 3.66295 3.52842
# Velocity P-wave (km/s) = 6.76116 6.94933 6.85589
#
# Compressibility (1/GPa) = 0.01710277
#
# Stress axis : x y z
#
# Youngs Moduli (GPa) = 40.18986 40.18986 93.51801
#
# Poissons Ratio (x) = 0.66997 0.23412
# Poissons Ratio (y) = 0.66997 0.23412
# Poissons Ratio (z) = 0.10061 0.10061
#
# Static dielectric constant tensor:
#      x y z
#    x 3.446980 0.000000 0.000000 
#    y 0.000000 3.446980 0.000000 
#    z 0.000000 0.000000 3.804650 
# 
# 
# High freq. dielectric constant tensor:
#      x y z
#    x 1.739800 0.000000 0.000000 
#    y 0.000000 1.739800 0.000000 
#    z 0.000000 0.000000 1.771410 
# 
# From -- ./inp_files/11449.got.cif
#   From: 2010.03.12/outbox.cif.g09.slc.cpg/sg139_6_cif.got.tgz:11449.got - 2010.04.08 09:46:31.
