data_PCOD8319874
_publ_section_title
;
Structure prediction by ZEFSAII (Michael W. Deem and Ramdas Pophale) SiO2 
 PCOD8319874
Probable space group: I 4/M M M
;
_chemical_formula_sum "Si O2"
_cell_formula_units_Z 160
_cell_length_a 20.658497
_cell_length_b 20.658497
_cell_length_c 19.406254
_cell_angle_alpha 90.000000
_cell_angle_beta 90.000000
_cell_angle_gamma 90.000000
_cell_volume 8282.074908
_symmetry_space_group_name_H-M "I 4/M M M"
_symmetry_group_IT_number 139
_symmetry_cell_setting 'tetragonal'
loop_
_space_group_symop_operation_xyz
x,y,z
-y,x,z
-x,-y,z
y,-x,z
x,-y,-z
-x,y,-z
y,x,-z
-y,-x,-z
-x,-y,-z
y,-x,-z
x,y,-z
-y,x,-z
-x,y,z
x,-y,z
-y,-x,z
y,x,z
1/2+x,1/2+y,1/2+z
1/2-y,1/2+x,1/2+z
1/2-x,1/2-y,1/2+z
1/2+y,1/2-x,1/2+z
1/2+x,1/2-y,1/2-z
1/2-x,1/2+y,1/2-z
1/2+y,1/2+x,1/2-z
1/2-y,1/2-x,1/2-z
1/2-x,1/2-y,1/2-z
1/2+y,1/2-x,1/2-z
1/2+x,1/2+y,1/2-z
1/2-y,1/2+x,1/2-z
1/2-x,1/2+y,1/2+z
1/2+x,1/2-y,1/2+z
1/2-y,1/2-x,1/2+z
1/2+y,1/2+x,1/2+z
loop_
_atom_site_type_symbol
_atom_site_label
_atom_site_fract_x
_atom_site_fract_y
_atom_site_fract_z
Si Si1 0.072903 0.618398 0.316680
Si Si2 0.682038 0.422834 0.647829
Si Si3 0.317124 0.076261 0.078176
Si Si4 0.823990 0.074723 0.574584
Si Si5 0.924204 0.760748 0.290601
O O1 0.071457 0.571457 0.250000
O O2 0.124016 0.603215 0.376310
O O3 0.093224 0.686075 0.281357
O O4 0.000000 0.619268 0.348921
O O5 0.666466 0.500000 0.640914
O O6 0.619614 0.380387 0.623204
O O7 0.745504 0.403537 0.603757
O O8 0.697176 0.400551 0.725993
O O9 0.322885 0.000000 0.082664
O O10 0.325752 0.101370 0.000000
O O11 0.789545 0.087338 0.500000
O O12 0.894855 0.105146 0.574679
O O13 0.782920 0.106726 0.636480
O O14 0.835135 0.000000 0.587713
O O15 0.000000 0.769663 0.295125
#
# Coordination Sequence:
#
# PCOD8319874 Si02
#       5
#    32  32  32  32  32
#     4  11  21  36  60  88 114 145 191 235 273 331
#     4  10  20  37  61  86 115 152 194 241 292 346
#     4  10  22  40  59  83 118 155 188 230 293 352
#     4   9  17  29  46  70 102 141 184 230 280 332
#     4   9  18  33  53  78 111 148 185 229 285 341
#
# _framework density 19.318829000000001
#
# number of rings (size 3 to 8) (size 9 to 14) (size 15 to 20)
#    0.000    2.200    2.000    1.200    0.000    3.400 
#    0.000    7.000    0.000    3.600    0.000    2.800 
#    0.000    0.000    0.000    0.000    0.000    0.000 
#
# Total GULP energy -991062.379416 kJ/mol
# GULP energy per Si atom -12388.279743 kJ/mol
# Density = 1.927486 g / cm^3
# Si number density = 19.318829 Si / 1000 Ang^3
#
#
#
# Elastic Constant Matrix: (Units=GPa)
#
#
# Indices 1 2 3 4 5 6 
#
# 1 89.9825 44.3267 39.0980 0.0000 0.0000 0.0000
# 2 44.3267 89.9825 39.0980 0.0000 0.0000 0.0000
# 3 39.0980 39.0980 120.7246 0.0000 0.0000 0.0000
# 4 0.0000 0.0000 0.0000 24.0175 0.0000 0.0000
# 5 0.0000 0.0000 0.0000 0.0000 24.0175 0.0000
# 6 0.0000 0.0000 0.0000 0.0000 0.0000 20.4527
#
#
#
# Elastic Compliance Matrix: (Units=1/GPa)
#
#
# Indices 1 2 3 4 5 6 
#
# 1 0.015539 -0.006364 -0.002972 0.000000 0.000000 0.000000
# 2 -0.006364 0.015539 -0.002972 0.000000 0.000000 0.000000
# 3 -0.002972 -0.002972 0.010208 0.000000 0.000000 0.000000
# 4 0.000000 0.000000 0.000000 0.041636 0.000000 0.000000
# 5 0.000000 0.000000 0.000000 0.000000 0.041636 0.000000
# 6 0.000000 0.000000 0.000000 0.000000 0.000000 0.048893
#
#
# Mechanical properties :
#
#
# Convention : Reuss Voigt Hill
#
# Bulk Modulus (GPa) = 59.97783 60.63723 60.30753
# Shear Modulus (GPa) = 24.55503 25.57532 25.06518
#
# Velocity S-wave (km/s) = 3.56903 3.64243 3.60592
# Velocity P-wave (km/s) = 6.93525 7.01038 6.97292
#
# Compressibility (1/GPa) = 0.01667283
#
# Stress axis : x y z
#
# Youngs Moduli (GPa) = 64.35287 64.35287 97.96136
#
# Poissons Ratio (x) = 0.40952 0.29110
# Poissons Ratio (y) = 0.40952 0.29110
# Poissons Ratio (z) = 0.19123 0.19123
#
# Static dielectric constant tensor:
#      x y z
#    x 3.450330 0.000000 0.000000 
#    y 0.000000 3.450330 0.000000 
#    z 0.000000 0.000000 4.053930 
# 
# 
# High freq. dielectric constant tensor:
#      x y z
#    x 1.736260 0.000000 0.000000 
#    y 0.000000 1.736260 0.000000 
#    z 0.000000 0.000000 1.763590 
# 
# From -- ./inp_files/8371.got.cif
#   From: 2010.03.12/outbox.cif.g09.slc.cpg/sg139_5_cif.got.tgz:8371.got - 2010.04.08 09:46:31.
