data_PCOD8319530
_publ_section_title
;
Structure prediction by ZEFSAII (Michael W. Deem and Ramdas Pophale) SiO2 
 PCOD8319530
Probable space group: I 4/M M M
;
_chemical_formula_sum "Si O2"
_cell_formula_units_Z 240
_cell_length_a 23.139605
_cell_length_b 23.139605
_cell_length_c 26.490498
_cell_angle_alpha 90.000000
_cell_angle_beta 90.000000
_cell_angle_gamma 90.000000
_cell_volume 14184.107205
_symmetry_space_group_name_H-M "I 4/M M M"
_symmetry_group_IT_number 139
_symmetry_cell_setting 'tetragonal'
loop_
_space_group_symop_operation_xyz
x,y,z
-y,x,z
-x,-y,z
y,-x,z
x,-y,-z
-x,y,-z
y,x,-z
-y,-x,-z
-x,-y,-z
y,-x,-z
x,y,-z
-y,x,-z
-x,y,z
x,-y,z
-y,-x,z
y,x,z
1/2+x,1/2+y,1/2+z
1/2-y,1/2+x,1/2+z
1/2-x,1/2-y,1/2+z
1/2+y,1/2-x,1/2+z
1/2+x,1/2-y,1/2-z
1/2-x,1/2+y,1/2-z
1/2+y,1/2+x,1/2-z
1/2-y,1/2-x,1/2-z
1/2-x,1/2-y,1/2-z
1/2+y,1/2-x,1/2-z
1/2+x,1/2+y,1/2-z
1/2-y,1/2+x,1/2-z
1/2-x,1/2+y,1/2+z
1/2+x,1/2-y,1/2+z
1/2-y,1/2-x,1/2+z
1/2+y,1/2+x,1/2+z
loop_
_atom_site_type_symbol
_atom_site_label
_atom_site_fract_x
_atom_site_fract_y
_atom_site_fract_z
Si Si1 0.781731 0.313234 0.306427
Si Si2 0.066364 0.158024 0.720733
Si Si3 0.562313 0.652580 0.336969
Si Si4 0.217543 0.566689 0.942882
Si Si5 0.727600 0.365841 0.857182
Si Si6 0.567043 0.776544 0.641180
Si Si7 0.897151 0.360597 0.942207
Si Si8 0.000000 0.437523 0.059929
O O1 0.718205 0.281796 0.313989
O O2 0.802772 0.302772 0.250000
O O3 0.828026 0.284147 0.344437
O O4 0.783049 0.382810 0.315819
O O5 0.097183 0.097183 0.707652
O O6 0.074281 0.172295 0.779554
O O7 0.096870 0.210706 0.691834
O O8 0.000000 0.152881 0.704183
O O9 0.500000 0.621608 0.339555
O O10 0.608847 0.608847 0.358719
O O11 0.562983 0.709005 0.371705
O O12 0.200992 0.500000 0.931322
O O13 0.264425 0.589790 0.903495
O O14 0.163474 0.608535 0.935661
O O15 0.241583 0.571928 0.000000
O O16 0.675786 0.324215 0.873656
O O17 0.500000 0.797627 0.655413
O O18 0.593784 0.803840 0.590877
O O19 0.943437 0.405602 0.920858
O O20 0.908792 0.342879 0.000000
O O21 0.000000 0.500000 0.085660
O O22 0.000000 0.442796 0.000000
#
# Coordination Sequence:
#
# PCOD8319530 Si02
#       8
#    32  32  32  32  32  32  32  16
#     4  10  20  35  55  75  99 133 173 212 250 298
#     4   9  17  30  48  73 102 129 163 206 251 303
#     4   9  18  31  49  73 100 131 164 202 248 296
#     4  10  20  34  51  71  98 131 170 214 256 301
#     4  10  19  31  49  73 100 132 167 208 254 301
#     4  11  20  32  52  76 104 133 163 206 253 301
#     4  10  19  32  49  73 100 128 165 208 255 301
#     4   9  16  28  48  70  94 124 161 205 247 289
#
# _framework density 16.920345999999999
#
# number of rings (size 3 to 8) (size 9 to 14) (size 15 to 20)
#    0.000    2.200    2.000    2.000    0.000    4.267 
#    0.000    2.000    0.000    1.600    0.000    0.000 
#    0.000    0.000    0.000   15.333    0.000    0.267 
#
# Total GULP energy -1486847.193776 kJ/mol
# GULP energy per Si atom -12390.393281 kJ/mol
# Density = 1.688183 g / cm^3
# Si number density = 16.920346 Si / 1000 Ang^3
#
#
#
# Elastic Constant Matrix: (Units=GPa)
#
#
# Indices 1 2 3 4 5 6 
#
# 1 99.8222 38.4049 37.2481 0.0000 0.0000 0.0000
# 2 38.4049 99.8222 37.2481 0.0000 0.0000 0.0000
# 3 37.2481 37.2481 58.6702 0.0000 0.0000 0.0000
# 4 0.0000 0.0000 0.0000 23.3600 0.0000 0.0000
# 5 0.0000 0.0000 0.0000 0.0000 23.3600 0.0000
# 6 0.0000 0.0000 0.0000 0.0000 0.0000 24.3908
#
#
#
# Elastic Compliance Matrix: (Units=1/GPa)
#
#
# Indices 1 2 3 4 5 6 
#
# 1 0.013640 -0.002642 -0.006982 0.000000 0.000000 0.000000
# 2 -0.002642 0.013640 -0.006982 0.000000 0.000000 0.000000
# 3 -0.006982 -0.006982 0.025910 0.000000 0.000000 0.000000
# 4 0.000000 0.000000 0.000000 0.042808 0.000000 0.000000
# 5 0.000000 0.000000 0.000000 0.000000 0.042808 0.000000
# 6 0.000000 0.000000 0.000000 0.000000 0.000000 0.040999
#
#
# Mechanical properties :
#
#
# Convention : Reuss Voigt Hill
#
# Bulk Modulus (GPa) = 50.05831 53.79075 51.92453
# Shear Modulus (GPa) = 22.76082 23.91638 23.33860
#
# Velocity S-wave (km/s) = 3.67164 3.76369 3.71795
# Velocity P-wave (km/s) = 6.90098 7.12368 7.01321
#
# Compressibility (1/GPa) = 0.01997670
#
# Stress axis : x y z
#
# Youngs Moduli (GPa) = 73.31562 73.31562 38.59575
#
# Poissons Ratio (x) = 0.19373 0.26947
# Poissons Ratio (y) = 0.19373 0.26947
# Poissons Ratio (z) = 0.51188 0.51188
#
# Static dielectric constant tensor:
#      x y z
#    x 3.306210 0.000000 0.000000 
#    y 0.000000 3.306210 0.000000 
#    z 0.000000 0.000000 2.967410 
# 
# 
# High freq. dielectric constant tensor:
#      x y z
#    x 1.656920 0.000000 0.000000 
#    y 0.000000 1.656920 0.000000 
#    z 0.000000 0.000000 1.624220 
# 
# From -- ./inp_files/14639.got.cif
#   From: 2010.03.12/outbox.cif.g09.slc.cpg/sg139_8_cif.got.tgz:14639.got - 2010.04.08 09:46:31.
