data_PCOD8319460
_publ_section_title
;
Structure prediction by ZEFSAII (Michael W. Deem and Ramdas Pophale) SiO2 
 PCOD8319460
Probable space group: I 4/M M M
;
_chemical_formula_sum "Si O2"
_cell_formula_units_Z 192
_cell_length_a 23.161378
_cell_length_b 23.161378
_cell_length_c 22.335361
_cell_angle_alpha 90.000000
_cell_angle_beta 90.000000
_cell_angle_gamma 90.000000
_cell_volume 11981.791696
_symmetry_space_group_name_H-M "I 4/M M M"
_symmetry_group_IT_number 139
_symmetry_cell_setting 'tetragonal'
loop_
_space_group_symop_operation_xyz
x,y,z
-y,x,z
-x,-y,z
y,-x,z
x,-y,-z
-x,y,-z
y,x,-z
-y,-x,-z
-x,-y,-z
y,-x,-z
x,y,-z
-y,x,-z
-x,y,z
x,-y,z
-y,-x,z
y,x,z
1/2+x,1/2+y,1/2+z
1/2-y,1/2+x,1/2+z
1/2-x,1/2-y,1/2+z
1/2+y,1/2-x,1/2+z
1/2+x,1/2-y,1/2-z
1/2-x,1/2+y,1/2-z
1/2+y,1/2+x,1/2-z
1/2-y,1/2-x,1/2-z
1/2-x,1/2-y,1/2-z
1/2+y,1/2-x,1/2-z
1/2+x,1/2+y,1/2-z
1/2-y,1/2+x,1/2-z
1/2-x,1/2+y,1/2+z
1/2+x,1/2-y,1/2+z
1/2-y,1/2-x,1/2+z
1/2+y,1/2+x,1/2+z
loop_
_atom_site_type_symbol
_atom_site_label
_atom_site_fract_x
_atom_site_fract_y
_atom_site_fract_z
Si Si1 0.062972 0.814518 0.000000
Si Si2 0.851127 0.342100 0.882923
Si Si3 0.765892 0.567172 0.304760
Si Si4 0.830347 0.267461 0.000000
Si Si5 0.350201 0.437765 0.370702
Si Si6 0.256063 0.162541 0.711166
Si Si7 0.435934 0.065680 0.570668
O O1 0.110684 0.766444 0.000000
O O2 0.068927 0.854803 0.942122
O O3 0.000000 0.783480 0.000000
O O4 0.898821 0.316501 0.837783
O O5 0.831988 0.304931 0.940011
O O6 0.790527 0.352821 0.849360
O O7 0.881620 0.401121 0.901885
O O8 0.781889 0.500000 0.289982
O O9 0.715146 0.570707 0.352458
O O10 0.746540 0.601444 0.244966
O O11 0.774809 0.225192 0.000000
O O12 0.373402 0.500000 0.349803
O O13 0.389913 0.389913 0.339244
O O14 0.194546 0.194546 0.697769
O O15 0.294232 0.205769 0.750000
O O16 0.431556 0.070914 0.500000
O O17 0.500000 0.088781 0.590616
O O18 0.429539 0.000000 0.592045
#
# Coordination Sequence:
#
# PCOD8319460 Si02
#       7
#    16  32  32  16  32  32  32
#     4  10  20  30  43  64  91 125 158 190 232 273
#     4  11  20  32  50  74  96 124 160 201 244 293
#     4  10  20  32  49  71  91 119 160 203 243 283
#     4  12  22  30  47  72 102 130 157 199 248 291
#     4  10  19  30  44  63  89 121 158 195 234 279
#     4   9  19  34  49  65  92 127 161 198 245 297
#     4   9  18  32  49  70  98 130 160 191 233 285
#
# _framework density 16.024315000000001
#
# number of rings (size 3 to 8) (size 9 to 14) (size 15 to 20)
#    0.000    2.000    2.500    2.750    0.000    2.833 
#    0.000    0.000    0.000    1.500    0.000    8.167 
#    0.000    0.000    0.000    0.000    0.000    0.000 
#
# Total GULP energy -1189483.003480 kJ/mol
# GULP energy per Si atom -12390.447953 kJ/mol
# Density = 1.598784 g / cm^3
# Si number density = 16.024315 Si / 1000 Ang^3
#
#
#
# Elastic Constant Matrix: (Units=GPa)
#
#
# Indices 1 2 3 4 5 6 
#
# 1 68.7886 52.9376 35.9279 0.0000 0.0000 0.0000
# 2 52.9376 68.7883 35.9241 0.0000 0.0000 0.0000
# 3 35.9279 35.9241 59.2358 0.0000 0.0000 0.0000
# 4 0.0000 0.0000 0.0000 20.0424 0.0000 0.0000
# 5 0.0000 0.0000 0.0000 0.0000 20.0436 0.0000
# 6 0.0000 0.0000 0.0000 0.0000 0.0000 13.9928
#
#
#
# Elastic Compliance Matrix: (Units=1/GPa)
#
#
# Indices 1 2 3 4 5 6 
#
# 1 0.037944 -0.025146 -0.007764 0.000000 0.000000 0.000000
# 2 -0.025146 0.037940 -0.007758 0.000000 0.000000 0.000000
# 3 -0.007764 -0.007758 0.026295 0.000000 0.000000 0.000000
# 4 0.000000 0.000000 0.000000 0.049894 0.000000 0.000000
# 5 0.000000 0.000000 0.000000 0.000000 0.049891 0.000000
# 6 0.000000 0.000000 0.000000 0.000000 0.000000 0.071465
#
#
# Mechanical properties :
#
#
# Convention : Reuss Voigt Hill
#
# Bulk Modulus (GPa) = 47.97398 49.59910 48.78654
# Shear Modulus (GPa) = 13.82310 15.61730 14.72020
#
# Velocity S-wave (km/s) = 2.94025 3.12525 3.03416
# Velocity P-wave (km/s) = 6.44438 6.63645 6.54112
#
# Compressibility (1/GPa) = 0.02084463
#
# Stress axis : x y z
#
# Youngs Moduli (GPa) = 26.35479 26.35717 38.02956
#
# Poissons Ratio (x) = 0.66277 0.29525
# Poissons Ratio (y) = 0.66272 0.29502
# Poissons Ratio (z) = 0.20461 0.20447
#
# Static dielectric constant tensor:
#      x y z
#    x 3.100070 0.000000 0.000000 
#    y 0.000000 3.100070 0.000000 
#    z 0.000000 0.000000 3.704020 
# 
# 
# High freq. dielectric constant tensor:
#      x y z
#    x 1.610340 0.000000 0.000000 
#    y 0.000000 1.610340 0.000000 
#    z 0.000000 0.000000 1.598390 
# 
# From -- ./inp_files/11990.got.cif
#   From: 2010.03.12/outbox.cif.g09.slc.cpg/sg139_6_cif.got.tgz:11990.got - 2010.04.08 09:46:31.
