data_PCOD8319747
_publ_section_title
;
Structure prediction by ZEFSAII (Michael W. Deem and Ramdas Pophale) SiO2 
 PCOD8319747
Probable space group: I 4/M M M
;
_chemical_formula_sum "Si O2"
_cell_formula_units_Z 176
_cell_length_a 19.081246
_cell_length_b 19.081246
_cell_length_c 26.907956
_cell_angle_alpha 90.000000
_cell_angle_beta 90.000000
_cell_angle_gamma 90.000000
_cell_volume 9797.023957
_symmetry_space_group_name_H-M "I 4/M M M"
_symmetry_group_IT_number 139
_symmetry_cell_setting 'tetragonal'
loop_
_space_group_symop_operation_xyz
x,y,z
-y,x,z
-x,-y,z
y,-x,z
x,-y,-z
-x,y,-z
y,x,-z
-y,-x,-z
-x,-y,-z
y,-x,-z
x,y,-z
-y,x,-z
-x,y,z
x,-y,z
-y,-x,z
y,x,z
1/2+x,1/2+y,1/2+z
1/2-y,1/2+x,1/2+z
1/2-x,1/2-y,1/2+z
1/2+y,1/2-x,1/2+z
1/2+x,1/2-y,1/2-z
1/2-x,1/2+y,1/2-z
1/2+y,1/2+x,1/2-z
1/2-y,1/2-x,1/2-z
1/2-x,1/2-y,1/2-z
1/2+y,1/2-x,1/2-z
1/2+x,1/2+y,1/2-z
1/2-y,1/2+x,1/2-z
1/2-x,1/2+y,1/2+z
1/2+x,1/2-y,1/2+z
1/2-y,1/2-x,1/2+z
1/2+y,1/2+x,1/2+z
loop_
_atom_site_type_symbol
_atom_site_label
_atom_site_fract_x
_atom_site_fract_y
_atom_site_fract_z
Si Si1 0.580879 0.814626 0.270146
Si Si2 0.580037 0.307817 0.442895
Si Si3 0.281974 0.834933 0.132971
Si Si4 0.734255 0.079308 0.602487
Si Si5 0.080252 0.805762 0.500000
Si Si6 0.812233 0.923349 0.301180
O O1 0.500000 0.826900 0.284855
O O2 0.612602 0.887399 0.250000
O O3 0.622459 0.780699 0.315919
O O4 0.590017 0.761771 0.224566
O O5 0.585644 0.283442 0.500000
O O6 0.500000 0.316918 0.425962
O O7 0.617394 0.382606 0.434797
O O8 0.616960 0.248995 0.410175
O O9 0.237411 0.762590 0.138709
O O10 0.362750 0.822044 0.118537
O O11 0.759487 0.099030 0.547680
O O12 0.800482 0.082937 0.639710
O O13 0.701811 0.000000 0.604143
O O14 0.123459 0.876542 0.500000
O O15 0.000000 0.829204 0.500000
O O16 0.868068 0.868068 0.281500
O O17 0.841543 0.000000 0.287283
#
# Coordination Sequence:
#
# PCOD8319747 Si02
#       6
#    32  32  32  32  16  32
#     4  11  23  37  55  79 106 138 178 222 271 325
#     4   9  19  35  55  83 115 146 182 224 272 326
#     4  11  21  34  58  83 109 143 182 226 273 322
#     4  10  21  35  52  78 109 141 179 223 269 317
#     4  10  20  33  50  74 105 139 176 218 262 312
#     4  10  20  35  54  78 108 139 176 219 263 318
#
# _framework density 17.964638000000001
#
# number of rings (size 3 to 8) (size 9 to 14) (size 15 to 20)
#    0.000    1.818    1.818    2.727    1.273    1.364 
#    0.000    0.909    0.000    4.909    0.000    3.818 
#    0.000    0.000    0.000    0.000    0.000    0.000 
#
# Total GULP energy -1091214.043162 kJ/mol
# GULP energy per Si atom -12400.159581 kJ/mol
# Density = 1.792375 g / cm^3
# Si number density = 17.964638 Si / 1000 Ang^3
#
#
#
# Elastic Constant Matrix: (Units=GPa)
#
#
# Indices 1 2 3 4 5 6 
#
# 1 109.3939 62.4324 37.0628 0.0000 0.0000 0.0000
# 2 62.4324 109.3908 37.0625 0.0000 0.0000 0.0000
# 3 37.0628 37.0625 90.6126 0.0000 0.0000 0.0000
# 4 0.0000 0.0000 0.0000 24.7532 0.0000 0.0000
# 5 0.0000 0.0000 0.0000 0.0000 24.7521 0.0000
# 6 0.0000 0.0000 0.0000 0.0000 0.0000 24.1318
#
#
#
# Elastic Compliance Matrix: (Units=1/GPa)
#
#
# Indices 1 2 3 4 5 6 
#
# 1 0.014181 -0.007114 -0.002890 0.000000 0.000000 0.000000
# 2 -0.007114 0.014181 -0.002891 0.000000 0.000000 0.000000
# 3 -0.002890 -0.002891 0.013401 0.000000 0.000000 0.000000
# 4 0.000000 0.000000 0.000000 0.040399 0.000000 0.000000
# 5 0.000000 0.000000 0.000000 0.000000 0.040401 0.000000
# 6 0.000000 0.000000 0.000000 0.000000 0.000000 0.041439
#
#
# Mechanical properties :
#
#
# Convention : Reuss Voigt Hill
#
# Bulk Modulus (GPa) = 62.60862 64.72362 63.66612
# Shear Modulus (GPa) = 25.62598 26.25008 25.93803
#
# Velocity S-wave (km/s) = 3.78096 3.82672 3.80391
# Velocity P-wave (km/s) = 7.34762 7.45866 7.40335
#
# Compressibility (1/GPa) = 0.01597224
#
# Stress axis : x y z
#
# Youngs Moduli (GPa) = 70.51897 70.51680 74.62378
#
# Poissons Ratio (x) = 0.50165 0.21570
# Poissons Ratio (y) = 0.50167 0.21570
# Poissons Ratio (z) = 0.20383 0.20383
#
# Static dielectric constant tensor:
#      x y z
#    x 3.293000 0.000000 0.000000 
#    y 0.000000 3.293010 0.000000 
#    z 0.000000 0.000000 3.526670 
# 
# 
# High freq. dielectric constant tensor:
#      x y z
#    x 1.689300 0.000000 0.000000 
#    y 0.000000 1.689300 0.000000 
#    z 0.000000 0.000000 1.710260 
# 
# From -- ./inp_files/14260.got.cif
#   From: 2010.03.12/outbox.cif.g09.slc.cpg/sg139_8_cif.got.tgz:14260.got - 2010.04.08 09:46:31.
