data_PCOD8319095
_publ_section_title
;
Structure prediction by ZEFSAII (Michael W. Deem and Ramdas Pophale) SiO2 
 PCOD8319095
Probable space group: P 42/N C M
;
_chemical_formula_sum "Si O2"
_cell_formula_units_Z 96
_cell_length_a 17.017437
_cell_length_b 17.017437
_cell_length_c 17.766376
_cell_angle_alpha 90.000000
_cell_angle_beta 90.000000
_cell_angle_gamma 90.000000
_cell_volume 5145.021004
_symmetry_space_group_name_H-M "P 42/N C M"
_symmetry_group_IT_number 138
_space_group.IT_coordinate_system_code '2'
_symmetry_cell_setting 'tetragonal'
loop_
_space_group_symop_operation_xyz
x,y,z
1/2-y,x,1/2+z
1/2-x,1/2-y,z
y,1/2-x,1/2+z
1/2+x,-y,1/2-z
-x,1/2+y,1/2-z
1/2+y,1/2+x,-z
-y,-x,-z
-x,-y,-z
1/2+y,-x,1/2-z
1/2+x,1/2+y,-z
-y,1/2+x,1/2-z
1/2-x,y,1/2+z
x,1/2-y,1/2+z
1/2-y,1/2-x,z
y,x,z
loop_
_atom_site_type_symbol
_atom_site_label
_atom_site_fract_x
_atom_site_fract_y
_atom_site_fract_z
Si Si1 0.076203 0.870185 0.225013
Si Si2 0.943070 0.321945 0.032189
Si Si3 0.200437 0.672305 0.153579
Si Si4 0.758877 0.037019 0.621895
Si Si5 0.967403 0.664352 0.259660
Si Si6 0.827064 0.551432 0.834655
O O1 0.128383 0.800248 0.265377
O O2 0.054142 0.832328 0.143877
O O3 0.998354 0.878923 0.274767
O O4 0.121816 0.951654 0.214953
O O5 0.883957 0.269660 0.085302
O O6 0.016422 0.346908 0.083408
O O7 0.899599 0.399599 0.000000
O O8 0.980665 0.266433 0.966814
O O9 0.250000 0.750000 0.157315
O O10 0.111222 0.686233 0.133693
O O11 0.797036 0.970747 0.676189
O O12 0.897427 0.602573 0.261895
O O13 0.949453 0.734046 0.318332
O O14 0.859481 0.640520 0.831855
#
# Coordination Sequence:
#
# PCOD8319095 Si02
#       6
#    16  16  16  16  16  16
#     4   9  19  33  52  80 110 147 184 224 276 333
#     4   9  19  34  47  82 116 148 182 214 273 336
#     4   9  18  27  44  73 117 159 183 208 257 328
#     4   9  19  30  50  79 108 144 181 225 270 330
#     4  10  21  38  57  80 108 144 189 234 281 329
#     4  10  21  37  58  82 108 143 188 231 279 338
#
# _framework density 18.658816000000002
#
# number of rings (size 3 to 8) (size 9 to 14) (size 15 to 20)
#    0.000    2.667    0.000    1.500    9.333    4.333 
#    3.000    0.000    0.000    6.000    0.000    4.667 
#    0.000    0.000    0.000    0.000    0.000    0.000 
#
# Total GULP energy -1189435.573686 kJ/mol
# GULP energy per Si atom -12389.953893 kJ/mol
# Density = 1.861635 g / cm^3
# Si number density = 18.658816 Si / 1000 Ang^3
#
#
#
# Elastic Constant Matrix: (Units=GPa)
#
#
# Indices 1 2 3 4 5 6 
#
# 1 91.7838 63.0755 44.8108 0.0000 0.0000 0.0000
# 2 63.0755 91.7838 44.8108 0.0000 0.0000 0.0000
# 3 44.8108 44.8108 107.0279 0.0000 0.0000 0.0000
# 4 0.0000 0.0000 0.0000 2.9505 0.0000 0.0000
# 5 0.0000 0.0000 0.0000 0.0000 2.9505 0.0000
# 6 0.0000 0.0000 0.0000 0.0000 0.0000 37.1036
#
#
#
# Elastic Compliance Matrix: (Units=1/GPa)
#
#
# Indices 1 2 3 4 5 6 
#
# 1 0.021678 -0.013155 -0.003568 0.000000 0.000000 0.000000
# 2 -0.013155 0.021678 -0.003568 0.000000 0.000000 0.000000
# 3 -0.003568 -0.003568 0.012331 0.000000 0.000000 0.000000
# 4 0.000000 0.000000 0.000000 0.338930 0.000000 0.000000
# 5 0.000000 0.000000 0.000000 0.000000 0.338930 0.000000
# 6 0.000000 0.000000 0.000000 0.000000 0.000000 0.026952
#
#
# Mechanical properties :
#
#
# Convention : Reuss Voigt Hill
#
# Bulk Modulus (GPa) = 66.21039 66.22108 66.21573
# Shear Modulus (GPa) = 6.20258 17.79413 11.99836
#
# Velocity S-wave (km/s) = 1.82522 3.09149 2.53857
# Velocity P-wave (km/s) = 6.32485 6.95058 6.64508
#
# Compressibility (1/GPa) = 0.01510337
#
# Stress axis : x y z
#
# Youngs Moduli (GPa) = 46.13004 46.13004 81.09454
#
# Poissons Ratio (x) = 0.60686 0.28936
# Poissons Ratio (y) = 0.60686 0.28936
# Poissons Ratio (z) = 0.16460 0.16460
#
# Static dielectric constant tensor:
#      x y z
#    x 3.231000 0.000000 0.000000 
#    y 0.000000 3.231000 0.000000 
#    z 0.000000 0.000000 3.800990 
# 
# 
# High freq. dielectric constant tensor:
#      x y z
#    x 1.699480 0.000000 0.000000 
#    y 0.000000 1.699480 0.000000 
#    z 0.000000 0.000000 1.722130 
# 
# From -- ./inp_files/5198.got.cif
#   From: 2010.03.12/outbox.cif.g09.slc.cpg/sg138_3_cif.got.tgz:5198.got - 2010.04.08 09:41:05.
