data_PCOD8319302
_publ_section_title
;
Structure prediction by ZEFSAII (Michael W. Deem and Ramdas Pophale) SiO2 
 PCOD8319302
Probable space group: I 4/M M M
;
_chemical_formula_sum "Si O2"
_cell_formula_units_Z 144
_cell_length_a 22.812599
_cell_length_b 22.812599
_cell_length_c 18.015241
_cell_angle_alpha 90.000000
_cell_angle_beta 90.000000
_cell_angle_gamma 90.000000
_cell_volume 9375.395756
_symmetry_space_group_name_H-M "I 4/M M M"
_symmetry_group_IT_number 139
_symmetry_cell_setting 'tetragonal'
loop_
_space_group_symop_operation_xyz
x,y,z
-y,x,z
-x,-y,z
y,-x,z
x,-y,-z
-x,y,-z
y,x,-z
-y,-x,-z
-x,-y,-z
y,-x,-z
x,y,-z
-y,x,-z
-x,y,z
x,-y,z
-y,-x,z
y,x,z
1/2+x,1/2+y,1/2+z
1/2-y,1/2+x,1/2+z
1/2-x,1/2-y,1/2+z
1/2+y,1/2-x,1/2+z
1/2+x,1/2-y,1/2-z
1/2-x,1/2+y,1/2-z
1/2+y,1/2+x,1/2-z
1/2-y,1/2-x,1/2-z
1/2-x,1/2-y,1/2-z
1/2+y,1/2-x,1/2-z
1/2+x,1/2+y,1/2-z
1/2-y,1/2+x,1/2-z
1/2-x,1/2+y,1/2+z
1/2+x,1/2-y,1/2+z
1/2-y,1/2-x,1/2+z
1/2+y,1/2+x,1/2+z
loop_
_atom_site_type_symbol
_atom_site_label
_atom_site_fract_x
_atom_site_fract_y
_atom_site_fract_z
Si Si1 0.340961 0.436247 0.000000
Si Si2 0.776076 0.679696 0.912795
Si Si3 0.336069 0.566625 0.294727
Si Si4 0.933992 0.765509 0.354490
Si Si5 0.772223 0.870456 0.081942
O O1 0.303592 0.426304 0.927279
O O2 0.369220 0.500000 0.000000
O O3 0.394127 0.394127 0.000000
O O4 0.720103 0.720103 0.889991
O O5 0.780071 0.620041 0.862961
O O6 0.836879 0.712780 0.895103
O O7 0.771783 0.664837 0.000000
O O8 0.357359 0.500000 0.303781
O O9 0.392985 0.607016 0.302557
O O10 0.305955 0.577049 0.216089
O O11 0.287786 0.580031 0.358132
O O12 0.000000 0.737024 0.351297
O O13 0.823287 0.823287 0.079011
O O14 0.765353 0.899217 0.000000
#
# Coordination Sequence:
#
# PCOD8319302 Si02
#       5
#    16  32  32  32  32
#     4  10  18  27  38  52  76 110 147 183 212 240
#     4   9  15  25  44  64  84 111 141 174 217 269
#     4  10  20  32  45  62  86 115 149 186 219 253
#     4  10  19  28  40  61  87 115 147 181 212 247
#     4   8  16  30  46  65  84 104 135 178 226 270
#
# _framework density 15.359353
#
# number of rings (size 3 to 8) (size 9 to 14) (size 15 to 20)
#    0.000    2.667    1.111    3.333    0.000    1.667 
#    0.000    3.333    0.000    4.000    0.000    3.111 
#    0.000    0.889    0.000    9.778    0.000    7.333 
#
# Total GULP energy -892184.174563 kJ/mol
# GULP energy per Si atom -12391.446869 kJ/mol
# Density = 1.532439 g / cm^3
# Si number density = 15.359353 Si / 1000 Ang^3
#
#
#
# Elastic Constant Matrix: (Units=GPa)
#
#
# Indices 1 2 3 4 5 6 
#
# 1 64.4657 37.0005 43.7025 0.0000 0.0000 0.0000
# 2 37.0005 64.4657 43.7025 0.0000 0.0000 0.0000
# 3 43.7025 43.7025 88.7567 0.0000 0.0000 0.0000
# 4 0.0000 0.0000 0.0000 19.9081 0.0000 0.0000
# 5 0.0000 0.0000 0.0000 0.0000 19.9081 0.0000
# 6 0.0000 0.0000 0.0000 0.0000 0.0000 20.2471
#
#
#
# Elastic Compliance Matrix: (Units=1/GPa)
#
#
# Indices 1 2 3 4 5 6 
#
# 1 0.026762 -0.009647 -0.008427 0.000000 0.000000 0.000000
# 2 -0.009647 0.026762 -0.008427 0.000000 0.000000 0.000000
# 3 -0.008427 -0.008427 0.019565 0.000000 0.000000 0.000000
# 4 0.000000 0.000000 0.000000 0.050231 0.000000 0.000000
# 5 0.000000 0.000000 0.000000 0.000000 0.050231 0.000000
# 6 0.000000 0.000000 0.000000 0.000000 0.000000 0.049390
#
#
# Mechanical properties :
#
#
# Convention : Reuss Voigt Hill
#
# Bulk Modulus (GPa) = 49.78409 51.83324 50.80867
# Shear Modulus (GPa) = 17.69035 18.23150 17.96093
#
# Velocity S-wave (km/s) = 3.39745 3.44902 3.42333
# Velocity P-wave (km/s) = 6.91906 7.04849 6.98408
#
# Compressibility (1/GPa) = 0.02008674
#
# Stress axis : x y z
#
# Youngs Moduli (GPa) = 37.36614 37.36614 51.11049
#
# Poissons Ratio (x) = 0.36049 0.43071
# Poissons Ratio (y) = 0.36049 0.43071
# Poissons Ratio (z) = 0.31489 0.31489
#
# Static dielectric constant tensor:
#      x y z
#    x 3.060240 0.000000 0.000000 
#    y 0.000000 3.060240 0.000000 
#    z 0.000000 0.000000 3.027260 
# 
# 
# High freq. dielectric constant tensor:
#      x y z
#    x 1.564750 0.000000 0.000000 
#    y 0.000000 1.564750 0.000000 
#    z 0.000000 0.000000 1.600040 
# 
# From -- ./inp_files/8592.got.cif
#   From: 2010.03.12/outbox.cif.g09.slc.cpg/sg139_5_cif.got.tgz:8592.got - 2010.04.08 09:46:31.
