data_PCOD8319474
_publ_section_title
;
Structure prediction by ZEFSAII (Michael W. Deem and Ramdas Pophale) SiO2 
 PCOD8319474
Probable space group: I 4/M M M
;
_chemical_formula_sum "Si O2"
_cell_formula_units_Z 144
_cell_length_a 32.579908
_cell_length_b 32.579908
_cell_length_c 9.013293
_cell_angle_alpha 90.000000
_cell_angle_beta 90.000000
_cell_angle_gamma 90.000000
_cell_volume 9567.163508
_symmetry_space_group_name_H-M "I 4/M M M"
_symmetry_group_IT_number 139
_symmetry_cell_setting 'tetragonal'
loop_
_space_group_symop_operation_xyz
x,y,z
-y,x,z
-x,-y,z
y,-x,z
x,-y,-z
-x,y,-z
y,x,-z
-y,-x,-z
-x,-y,-z
y,-x,-z
x,y,-z
-y,x,-z
-x,y,z
x,-y,z
-y,-x,z
y,x,z
1/2+x,1/2+y,1/2+z
1/2-y,1/2+x,1/2+z
1/2-x,1/2-y,1/2+z
1/2+y,1/2-x,1/2+z
1/2+x,1/2-y,1/2-z
1/2-x,1/2+y,1/2-z
1/2+y,1/2+x,1/2-z
1/2-y,1/2-x,1/2-z
1/2-x,1/2-y,1/2-z
1/2+y,1/2-x,1/2-z
1/2+x,1/2+y,1/2-z
1/2-y,1/2+x,1/2-z
1/2-x,1/2+y,1/2+z
1/2+x,1/2-y,1/2+z
1/2-y,1/2-x,1/2+z
1/2+y,1/2+x,1/2+z
loop_
_atom_site_type_symbol
_atom_site_label
_atom_site_fract_x
_atom_site_fract_y
_atom_site_fract_z
Si Si1 0.418015 0.256289 0.324572
Si Si2 0.500000 0.257122 0.167011
Si Si3 0.354298 0.500000 0.834137
Si Si4 0.344071 0.781294 0.825598
Si Si5 0.779312 0.779312 0.333189
Si Si6 0.149233 0.917508 0.174260
O O1 0.418001 0.251377 0.500000
O O2 0.461022 0.241629 0.258234
O O3 0.387298 0.222847 0.254805
O O4 0.408449 0.303610 0.278490
O O5 0.500000 0.305725 0.160767
O O6 0.500000 0.238969 0.000000
O O7 0.368748 0.541448 0.751199
O O8 0.372897 0.500000 0.000000
O O9 0.316740 0.816740 0.750000
O O10 0.325535 0.735005 0.798079
O O11 0.348883 0.791246 0.000000
O O12 0.768868 0.768868 0.500000
O O13 0.750000 0.750000 0.250000
O O14 0.121433 0.878568 0.222272
O O15 0.146756 0.925482 0.000000
#
# Coordination Sequence:
#
# PCOD8319474 Si02
#       6
#    32  16  16  32  16  32
#     4  10  19  30  46  66  88 112 142 180 217 257
#     4   9  17  31  47  63  84 110 141 176 216 258
#     4   9  17  29  45  64  84 105 129 165 211 253
#     4  10  19  31  44  61  85 116 149 181 217 256
#     4   8  16  28  40  54  76 108 144 178 211 248
#     4   9  18  31  46  64  84 108 136 166 206 258
#
# _framework density 15.051484
#
# number of rings (size 3 to 8) (size 9 to 14) (size 15 to 20)
#    0.000    2.667    0.000    2.000    1.556    4.889 
#    0.000    0.000    0.000    0.333    0.000    2.333 
#    0.000    0.000    0.000    0.000    0.000    0.556 
#
# Total GULP energy -892053.964563 kJ/mol
# GULP energy per Si atom -12389.638397 kJ/mol
# Density = 1.501723 g / cm^3
# Si number density = 15.051484 Si / 1000 Ang^3
#
#
#
# Elastic Constant Matrix: (Units=GPa)
#
#
# Indices 1 2 3 4 5 6 
#
# 1 78.0368 49.1986 43.2557 0.0000 0.0000 0.0000
# 2 49.1986 78.0368 43.2557 0.0000 0.0000 0.0000
# 3 43.2557 43.2557 82.0814 0.0000 0.0000 0.0000
# 4 0.0000 0.0000 0.0000 23.0481 0.0000 0.0000
# 5 0.0000 0.0000 0.0000 0.0000 23.0481 0.0000
# 6 0.0000 0.0000 0.0000 0.0000 0.0000 17.0329
#
#
#
# Elastic Compliance Matrix: (Units=1/GPa)
#
#
# Indices 1 2 3 4 5 6 
#
# 1 0.023462 -0.011214 -0.006455 0.000000 0.000000 0.000000
# 2 -0.011214 0.023462 -0.006455 0.000000 0.000000 0.000000
# 3 -0.006455 -0.006455 0.018986 0.000000 0.000000 0.000000
# 4 0.000000 0.000000 0.000000 0.043388 0.000000 0.000000
# 5 0.000000 0.000000 0.000000 0.000000 0.043388 0.000000
# 6 0.000000 0.000000 0.000000 0.000000 0.000000 0.058710
#
#
# Mechanical properties :
#
#
# Convention : Reuss Voigt Hill
#
# Bulk Modulus (GPa) = 56.61270 56.61946 56.61608
# Shear Modulus (GPa) = 18.83028 19.45548 19.14288
#
# Velocity S-wave (km/s) = 3.54087 3.59917 3.57014
# Velocity P-wave (km/s) = 7.37640 7.41423 7.39534
#
# Compressibility (1/GPa) = 0.01766388
#
# Stress axis : x y z
#
# Youngs Moduli (GPa) = 42.62181 42.62181 52.67051
#
# Poissons Ratio (x) = 0.47796 0.33997
# Poissons Ratio (y) = 0.47796 0.33997
# Poissons Ratio (z) = 0.27511 0.27511
#
# Static dielectric constant tensor:
#      x y z
#    x 2.751060 0.000000 0.000000 
#    y 0.000000 2.751060 0.000000 
#    z 0.000000 0.000000 3.042900 
# 
# 
# High freq. dielectric constant tensor:
#      x y z
#    x 1.546930 0.000000 0.000000 
#    y 0.000000 1.546930 0.000000 
#    z 0.000000 0.000000 1.593810 
# 
# From -- ./inp_files/2068.got.cif
#   From: 2010.03.12/outbox.cif.g09.slc.cpg/sg139_2_cif.got.tgz:2068.got - 2010.04.08 09:46:31.
