data_PCOD8319977
_publ_section_title
;
Structure prediction by ZEFSAII (Michael W. Deem and Ramdas Pophale) SiO2 
 PCOD8319977
Probable space group: I 4/M M M
;
_chemical_formula_sum "Si O2"
_cell_formula_units_Z 128
_cell_length_a 25.069114
_cell_length_b 25.069114
_cell_length_c 10.239227
_cell_angle_alpha 90.000000
_cell_angle_beta 90.000000
_cell_angle_gamma 90.000000
_cell_volume 6434.949482
_symmetry_space_group_name_H-M "I 4/M M M"
_symmetry_group_IT_number 139
_symmetry_cell_setting 'tetragonal'
loop_
_space_group_symop_operation_xyz
x,y,z
-y,x,z
-x,-y,z
y,-x,z
x,-y,-z
-x,y,-z
y,x,-z
-y,-x,-z
-x,-y,-z
y,-x,-z
x,y,-z
-y,x,-z
-x,y,z
x,-y,z
-y,-x,z
y,x,z
1/2+x,1/2+y,1/2+z
1/2-y,1/2+x,1/2+z
1/2-x,1/2-y,1/2+z
1/2+y,1/2-x,1/2+z
1/2+x,1/2-y,1/2-z
1/2-x,1/2+y,1/2-z
1/2+y,1/2+x,1/2-z
1/2-y,1/2-x,1/2-z
1/2-x,1/2-y,1/2-z
1/2+y,1/2-x,1/2-z
1/2+x,1/2+y,1/2-z
1/2-y,1/2+x,1/2-z
1/2-x,1/2+y,1/2+z
1/2+x,1/2-y,1/2+z
1/2-y,1/2-x,1/2+z
1/2+y,1/2+x,1/2+z
loop_
_atom_site_type_symbol
_atom_site_label
_atom_site_fract_x
_atom_site_fract_y
_atom_site_fract_z
Si Si1 0.144619 0.718674 0.000000
Si Si2 0.370622 0.062671 0.000000
Si Si3 0.162643 0.752055 0.500000
Si Si4 0.000000 0.081783 0.155533
Si Si5 0.061719 0.561719 0.250000
Si Si6 0.292063 0.379349 0.268216
Si Si7 0.697214 0.500000 0.344653
O O1 0.088453 0.687679 0.000000
O O2 0.151044 0.755432 0.872758
O O3 0.189172 0.672695 0.000000
O O4 0.403750 0.080437 0.873118
O O5 0.360276 0.000000 0.000000
O O6 0.220228 0.779773 0.500000
O O7 0.128882 0.769248 0.624904
O O8 0.052310 0.052310 0.207356
O O9 0.000000 0.138894 0.217036
O O10 0.000000 0.083711 0.000000
O O11 0.071655 0.500000 0.215625
O O12 0.352313 0.352313 0.280104
O O13 0.282621 0.442815 0.293134
O O14 0.700797 0.500000 0.500000
#
# Coordination Sequence:
#
# PCOD8319977 Si02
#       7
#    16  16  16  16  16  32  16
#     4  12  24  39  65  90 123 164 211 258 310 362
#     4  10  23  36  58  89 125 158 201 259 315 375
#     4  10  24  45  66  90 120 161 211 259 300 366
#     4   8  14  25  45  77 116 154 192 235 285 344
#     4   9  18  38  62  86 117 162 210 256 313 380
#     4  11  24  42  66  94 125 165 210 256 315 374
#     4  11  21  35  60  89 126 160 201 253 308 364
#
# _framework density 19.891375
#
# number of rings (size 3 to 8) (size 9 to 14) (size 15 to 20)
#    0.000    1.750    1.250    3.375    5.250    5.000 
#    0.000    0.000    2.750    0.000    0.000    0.000 
#    0.000    8.000    0.000    0.000    0.000    0.000 
#
# Total GULP energy -792966.711156 kJ/mol
# GULP energy per Si atom -12390.104862 kJ/mol
# Density = 1.984610 g / cm^3
# Si number density = 19.891375 Si / 1000 Ang^3
#
#
#
# Elastic Constant Matrix: (Units=GPa)
#
#
# Indices 1 2 3 4 5 6 
#
# 1 98.4330 34.6375 47.3809 0.0000 0.0000 0.0000
# 2 34.6375 98.4340 47.3813 0.0000 0.0000 0.0000
# 3 47.3809 47.3813 145.4303 0.0000 0.0000 0.0000
# 4 0.0000 0.0000 0.0000 19.2334 0.0000 0.0000
# 5 0.0000 0.0000 0.0000 0.0000 19.2333 0.0000
# 6 0.0000 0.0000 0.0000 0.0000 0.0000 28.0101
#
#
#
# Elastic Compliance Matrix: (Units=1/GPa)
#
#
# Indices 1 2 3 4 5 6 
#
# 1 0.012730 -0.002945 -0.003188 0.000000 0.000000 0.000000
# 2 -0.002945 0.012730 -0.003188 0.000000 0.000000 0.000000
# 3 -0.003188 -0.003188 0.008953 0.000000 0.000000 0.000000
# 4 0.000000 0.000000 0.000000 0.051993 0.000000 0.000000
# 5 0.000000 0.000000 0.000000 0.000000 0.051993 0.000000
# 6 0.000000 0.000000 0.000000 0.000000 0.000000 0.035701
#
#
# Mechanical properties :
#
#
# Convention : Reuss Voigt Hill
#
# Bulk Modulus (GPa) = 63.40514 66.78854 65.09684
# Shear Modulus (GPa) = 25.25256 27.48853 26.37054
#
# Velocity S-wave (km/s) = 3.56690 3.72147 3.64500
# Velocity P-wave (km/s) = 6.99347 7.21909 7.10718
#
# Compressibility (1/GPa) = 0.01577159
#
# Stress axis : x y z
#
# Youngs Moduli (GPa) = 78.55446 78.55510 111.68927
#
# Poissons Ratio (x) = 0.23134 0.35606
# Poissons Ratio (y) = 0.23134 0.35606
# Poissons Ratio (z) = 0.25043 0.25043
#
# Static dielectric constant tensor:
#      x y z
#    x 3.716910 0.000000 0.000000 
#    y 0.000000 3.716900 0.000000 
#    z 0.000000 0.000000 3.513310 
# 
# 
# High freq. dielectric constant tensor:
#      x y z
#    x 1.779220 0.000000 0.000000 
#    y 0.000000 1.779220 0.000000 
#    z 0.000000 0.000000 1.763390 
# 
# From -- ./inp_files/3540.got.cif
#   From: 2010.03.12/outbox.cif.g09.slc.cpg/sg139_2_cif.got.tgz:3540.got - 2010.04.08 09:46:31.
