data_PCOD8319448
_publ_section_title
;
Structure prediction by ZEFSAII (Michael W. Deem and Ramdas Pophale) SiO2 
 PCOD8319448
Probable space group: I 4/M M M
;
_chemical_formula_sum "Si O2"
_cell_formula_units_Z 176
_cell_length_a 26.486778
_cell_length_b 26.486778
_cell_length_c 14.665117
_cell_angle_alpha 90.000000
_cell_angle_beta 90.000000
_cell_angle_gamma 90.000000
_cell_volume 10288.304162
_symmetry_space_group_name_H-M "I 4/M M M"
_symmetry_group_IT_number 139
_symmetry_cell_setting 'tetragonal'
loop_
_space_group_symop_operation_xyz
x,y,z
-y,x,z
-x,-y,z
y,-x,z
x,-y,-z
-x,y,-z
y,x,-z
-y,-x,-z
-x,-y,-z
y,-x,-z
x,y,-z
-y,x,-z
-x,y,z
x,-y,z
-y,-x,z
y,x,z
1/2+x,1/2+y,1/2+z
1/2-y,1/2+x,1/2+z
1/2-x,1/2-y,1/2+z
1/2+y,1/2-x,1/2+z
1/2+x,1/2-y,1/2-z
1/2-x,1/2+y,1/2-z
1/2+y,1/2+x,1/2-z
1/2-y,1/2-x,1/2-z
1/2-x,1/2-y,1/2-z
1/2+y,1/2-x,1/2-z
1/2+x,1/2+y,1/2-z
1/2-y,1/2+x,1/2-z
1/2-x,1/2+y,1/2+z
1/2+x,1/2-y,1/2+z
1/2-y,1/2-x,1/2+z
1/2+y,1/2+x,1/2+z
loop_
_atom_site_type_symbol
_atom_site_label
_atom_site_fract_x
_atom_site_fract_y
_atom_site_fract_z
Si Si1 0.942659 0.859516 0.104169
Si Si2 0.557102 0.942899 0.750000
Si Si3 0.796791 0.878071 0.224417
Si Si4 0.360196 0.942603 0.895475
Si Si5 0.208726 0.650537 0.395289
Si Si6 0.160070 0.244088 0.396928
O O1 0.908605 0.908605 0.122509
O O2 0.929465 0.812469 0.171897
O O3 0.000000 0.875655 0.123187
O O4 0.935494 0.840431 0.000000
O O5 0.500000 0.933874 0.782528
O O6 0.591080 0.929134 0.836287
O O7 0.848431 0.848431 0.233800
O O8 0.758381 0.844799 0.165108
O O9 0.773607 0.884114 0.326704
O O10 0.316983 0.902819 0.869578
O O11 0.340877 0.000000 0.877110
O O12 0.376626 0.935691 0.000000
O O13 0.225515 0.652040 0.500000
O O14 0.172333 0.697695 0.374198
O O15 0.139347 0.238412 0.500000
O O16 0.210652 0.210652 0.383160
#
# Coordination Sequence:
#
# PCOD8319448 Si02
#       6
#    32  16  32  32  32  32
#     4   9  18  32  50  74 102 129 159 194 233 283
#     4   9  18  32  50  68  83 106 144 188 231 274
#     4  10  19  30  47  70  95 126 161 195 232 274
#     4   9  19  33  47  67  92 116 147 187 232 282
#     4  10  19  29  45  67  94 127 158 194 237 281
#     4   9  18  31  46  67  94 125 164 201 231 271
#
# _framework density 17.106805000000001
#
# number of rings (size 3 to 8) (size 9 to 14) (size 15 to 20)
#    0.000    2.636    0.000    1.636    2.545    4.545 
#    0.000    4.545    0.000    0.545    0.000    0.000 
#    0.000    0.000    0.000    7.091    0.000    0.182 
#
# Total GULP energy -1090752.290279 kJ/mol
# GULP energy per Si atom -12394.912390 kJ/mol
# Density = 1.706787 g / cm^3
# Si number density = 17.106805 Si / 1000 Ang^3
#
#
#
# Elastic Constant Matrix: (Units=GPa)
#
#
# Indices 1 2 3 4 5 6 
#
# 1 62.1542 27.1395 47.6497 0.0000 0.0000 0.0000
# 2 27.1395 62.1552 47.6493 0.0000 0.0000 0.0000
# 3 47.6497 47.6493 94.8029 0.0000 0.0000 0.0000
# 4 0.0000 0.0000 0.0000 23.6074 0.0000 0.0000
# 5 0.0000 0.0000 0.0000 0.0000 23.6075 0.0000
# 6 0.0000 0.0000 0.0000 0.0000 0.0000 13.1022
#
#
#
# Elastic Compliance Matrix: (Units=1/GPa)
#
#
# Indices 1 2 3 4 5 6 
#
# 1 0.026359 -0.002201 -0.012142 0.000000 0.000000 0.000000
# 2 -0.002201 0.026358 -0.012142 0.000000 0.000000 0.000000
# 3 -0.012142 -0.012142 0.022754 0.000000 0.000000 0.000000
# 4 0.000000 0.000000 0.000000 0.042360 0.000000 0.000000
# 5 0.000000 0.000000 0.000000 0.000000 0.042359 0.000000
# 6 0.000000 0.000000 0.000000 0.000000 0.000000 0.076323
#
#
# Mechanical properties :
#
#
# Convention : Reuss Voigt Hill
#
# Bulk Modulus (GPa) = 44.44290 51.55435 47.99863
# Shear Modulus (GPa) = 16.83606 18.50833 17.67220
#
# Velocity S-wave (km/s) = 3.14056 3.29284 3.21760
# Velocity P-wave (km/s) = 6.25994 6.68275 6.47480
#
# Compressibility (1/GPa) = 0.02250078
#
# Stress axis : x y z
#
# Youngs Moduli (GPa) = 37.93820 37.93960 43.94909
#
# Poissons Ratio (x) = 0.08350 0.53364
# Poissons Ratio (y) = 0.08350 0.53361
# Poissons Ratio (z) = 0.46065 0.46065
#
# Static dielectric constant tensor:
#      x y z
#    x 3.108290 0.000000 0.000000 
#    y 0.000000 3.108270 0.000000 
#    z 0.000000 0.000000 3.413560 
# 
# 
# High freq. dielectric constant tensor:
#      x y z
#    x 1.643930 0.000000 0.000000 
#    y 0.000000 1.643920 0.000000 
#    z 0.000000 0.000000 1.663800 
# 
# From -- ./inp_files/6370.got.cif
#   From: 2010.03.12/outbox.cif.g09.slc.cpg/sg139_4_cif.got.tgz:6370.got - 2010.04.08 09:46:31.
