data_PCOD8319951
_publ_section_title
;
Structure prediction by ZEFSAII (Michael W. Deem and Ramdas Pophale) SiO2 
 PCOD8319951
Probable space group: I 4/M M M
;
_chemical_formula_sum "Si O2"
_cell_formula_units_Z 176
_cell_length_a 23.073782
_cell_length_b 23.073782
_cell_length_c 17.629989
_cell_angle_alpha 90.000000
_cell_angle_beta 90.000000
_cell_angle_gamma 90.000000
_cell_volume 9386.195844
_symmetry_space_group_name_H-M "I 4/M M M"
_symmetry_group_IT_number 139
_symmetry_cell_setting 'tetragonal'
loop_
_space_group_symop_operation_xyz
x,y,z
-y,x,z
-x,-y,z
y,-x,z
x,-y,-z
-x,y,-z
y,x,-z
-y,-x,-z
-x,-y,-z
y,-x,-z
x,y,-z
-y,x,-z
-x,y,z
x,-y,z
-y,-x,z
y,x,z
1/2+x,1/2+y,1/2+z
1/2-y,1/2+x,1/2+z
1/2-x,1/2-y,1/2+z
1/2+y,1/2-x,1/2+z
1/2+x,1/2-y,1/2-z
1/2-x,1/2+y,1/2-z
1/2+y,1/2+x,1/2-z
1/2-y,1/2-x,1/2-z
1/2-x,1/2-y,1/2-z
1/2+y,1/2-x,1/2-z
1/2+x,1/2+y,1/2-z
1/2-y,1/2+x,1/2-z
1/2-x,1/2+y,1/2+z
1/2+x,1/2-y,1/2+z
1/2-y,1/2-x,1/2+z
1/2+y,1/2+x,1/2+z
loop_
_atom_site_type_symbol
_atom_site_label
_atom_site_fract_x
_atom_site_fract_y
_atom_site_fract_z
Si Si1 0.731100 0.432885 0.647232
Si Si2 0.933510 0.159151 0.000000
Si Si3 0.143780 0.342717 0.837492
Si Si4 0.566391 0.067138 0.586091
Si Si5 0.139382 0.234626 0.412730
Si Si6 0.336803 0.567738 0.800238
O O1 0.750189 0.500000 0.647373
O O2 0.694838 0.416189 0.573807
O O3 0.787539 0.394021 0.641789
O O4 0.692766 0.418023 0.720224
O O5 0.901319 0.098682 0.000000
O O6 0.000000 0.142133 0.000000
O O7 0.159883 0.340118 0.750000
O O8 0.107259 0.400055 0.855311
O O9 0.201551 0.343360 0.886870
O O10 0.577366 0.088723 0.500000
O O11 0.500000 0.078326 0.608877
O O12 0.582022 0.000000 0.592795
O O13 0.119842 0.235663 0.500000
O O14 0.195792 0.195792 0.399352
O O15 0.085647 0.208661 0.365453
O O16 0.351851 0.500000 0.808646
O O17 0.396554 0.603447 0.807451
#
# Coordination Sequence:
#
# PCOD8319951 Si02
#       6
#    32  16  32  32  32  32
#     4  10  22  39  57  86 124 160 197 243 300 353
#     4  10  22  39  62  90 121 159 199 245 300 360
#     4  12  23  37  59  87 116 156 201 241 287 348
#     4   9  20  38  58  82 115 153 194 244 293 336
#     4  10  23  41  59  84 117 152 193 240 294 351
#     4  10  21  40  64  88 119 154 192 244 302 360
#
# _framework density 18.750941000000001
#
# number of rings (size 3 to 8) (size 9 to 14) (size 15 to 20)
#    0.000    1.818    1.818    2.182    2.545    4.636 
#    0.000    0.909    0.000    3.273    0.000    2.545 
#    0.000    0.000    0.000    0.000    0.000    0.000 
#
# Total GULP energy -1091561.732438 kJ/mol
# GULP energy per Si atom -12404.110596 kJ/mol
# Density = 1.870826 g / cm^3
# Si number density = 18.750941 Si / 1000 Ang^3
#
#
#
# Elastic Constant Matrix: (Units=GPa)
#
#
# Indices 1 2 3 4 5 6 
#
# 1 107.4910 59.3420 50.3302 0.0000 0.0000 0.0000
# 2 59.3420 107.4882 50.3299 0.0000 0.0000 0.0000
# 3 50.3302 50.3299 131.5115 0.0000 0.0000 0.0000
# 4 0.0000 0.0000 0.0000 26.4521 0.0000 0.0000
# 5 0.0000 0.0000 0.0000 0.0000 26.4612 0.0000
# 6 0.0000 0.0000 0.0000 0.0000 0.0000 33.2140
#
#
#
# Elastic Compliance Matrix: (Units=1/GPa)
#
#
# Indices 1 2 3 4 5 6 
#
# 1 0.014281 -0.006488 -0.002983 0.000000 0.000000 0.000000
# 2 -0.006488 0.014282 -0.002983 0.000000 0.000000 0.000000
# 3 -0.002983 -0.002983 0.009887 0.000000 0.000000 0.000000
# 4 0.000000 0.000000 0.000000 0.037804 0.000000 0.000000
# 5 0.000000 0.000000 0.000000 0.000000 0.037791 0.000000
# 6 0.000000 0.000000 0.000000 0.000000 0.000000 0.030108
#
#
# Mechanical properties :
#
#
# Convention : Reuss Voigt Hill
#
# Bulk Modulus (GPa) = 73.83594 74.05501 73.94548
# Shear Modulus (GPa) = 28.80611 29.65803 29.23207
#
# Velocity S-wave (km/s) = 3.92375 3.98135 3.95266
# Velocity P-wave (km/s) = 7.74535 7.79196 7.76869
#
# Compressibility (1/GPa) = 0.01354354
#
# Stress axis : x y z
#
# Youngs Moduli (GPa) = 70.02124 70.01918 101.14422
#
# Poissons Ratio (x) = 0.45428 0.30168
# Poissons Ratio (y) = 0.45429 0.30169
# Poissons Ratio (z) = 0.20885 0.20885
#
# Static dielectric constant tensor:
#      x y z
#    x 3.388100 0.000000 0.000000 
#    y 0.000000 3.388100 0.000000 
#    z 0.000000 0.000000 3.622020 
# 
# 
# High freq. dielectric constant tensor:
#      x y z
#    x 1.730890 0.000000 0.000000 
#    y 0.000000 1.730890 0.000000 
#    z 0.000000 0.000000 1.741010 
# 
# From -- ./inp_files/6129.got.cif
#   From: 2010.03.12/outbox.cif.g09.slc.cpg/sg139_4_cif.got.tgz:6129.got - 2010.04.08 09:46:31.
