data_PCOD8319657
_publ_section_title
;
Structure prediction by ZEFSAII (Michael W. Deem and Ramdas Pophale) SiO2 
 PCOD8319657
Probable space group: I 4/M M M
;
_chemical_formula_sum "Si O2"
_cell_formula_units_Z 176
_cell_length_a 18.831590
_cell_length_b 18.831590
_cell_length_c 25.418050
_cell_angle_alpha 90.000000
_cell_angle_beta 90.000000
_cell_angle_gamma 90.000000
_cell_volume 9013.972110
_symmetry_space_group_name_H-M "I 4/M M M"
_symmetry_group_IT_number 139
_symmetry_cell_setting 'tetragonal'
loop_
_space_group_symop_operation_xyz
x,y,z
-y,x,z
-x,-y,z
y,-x,z
x,-y,-z
-x,y,-z
y,x,-z
-y,-x,-z
-x,-y,-z
y,-x,-z
x,y,-z
-y,x,-z
-x,y,z
x,-y,z
-y,-x,z
y,x,z
1/2+x,1/2+y,1/2+z
1/2-y,1/2+x,1/2+z
1/2-x,1/2-y,1/2+z
1/2+y,1/2-x,1/2+z
1/2+x,1/2-y,1/2-z
1/2-x,1/2+y,1/2-z
1/2+y,1/2+x,1/2-z
1/2-y,1/2-x,1/2-z
1/2-x,1/2-y,1/2-z
1/2+y,1/2-x,1/2-z
1/2+x,1/2+y,1/2-z
1/2-y,1/2+x,1/2-z
1/2-x,1/2+y,1/2+z
1/2+x,1/2-y,1/2+z
1/2-y,1/2-x,1/2+z
1/2+y,1/2+x,1/2+z
loop_
_atom_site_type_symbol
_atom_site_label
_atom_site_fract_x
_atom_site_fract_y
_atom_site_fract_z
Si Si1 0.872380 0.756516 0.056944
Si Si2 0.199650 0.081106 0.650390
Si Si3 0.000000 0.579288 0.561967
Si Si4 0.304781 0.109980 0.439502
Si Si5 0.300833 0.917029 0.746160
Si Si6 0.421560 0.696394 0.337827
O O1 0.827822 0.827822 0.053202
O O2 0.818306 0.692809 0.068555
O O3 0.926567 0.765537 0.105029
O O4 0.911204 0.744003 0.000000
O O5 0.130900 0.130900 0.654649
O O6 0.235977 0.087764 0.593436
O O7 0.257679 0.103474 0.693772
O O8 0.174474 0.000000 0.659542
O O9 0.068831 0.624198 0.580054
O O10 0.000000 0.500000 0.588029
O O11 0.000000 0.569138 0.500000
O O12 0.288148 0.090293 0.500000
O O13 0.373602 0.873602 0.750000
O O14 0.253157 0.894396 0.795762
O O15 0.320732 0.000000 0.747179
O O16 0.500000 0.669411 0.322724
O O17 0.370850 0.629151 0.337562
#
# Coordination Sequence:
#
# PCOD8319657 Si02
#       6
#    32  32  16  32  32  32
#     4   9  18  32  53  81 110 142 182 227 276 331
#     4  11  23  38  58  83 113 150 195 244 292 342
#     4   9  18  32  50  74 107 145 181 223 279 343
#     4  10  19  34  55  79 111 148 189 236 286 341
#     4  10  22  40  62  86 115 147 186 230 280 341
#     4  10  21  37  57  82 111 145 186 231 279 331
#
# _framework density 19.525244000000001
#
# number of rings (size 3 to 8) (size 9 to 14) (size 15 to 20)
#    0.000    2.091    0.909    2.182    0.000    5.636 
#    0.000    2.727    0.000    3.273    0.000    3.818 
#    0.000    0.000    0.000    0.000    0.000    0.000 
#
# Total GULP energy -1091005.699517 kJ/mol
# GULP energy per Si atom -12397.792040 kJ/mol
# Density = 1.948080 g / cm^3
# Si number density = 19.525244 Si / 1000 Ang^3
#
#
#
# Elastic Constant Matrix: (Units=GPa)
#
#
# Indices 1 2 3 4 5 6 
#
# 1 99.6764 49.1751 41.2718 0.0000 0.0000 0.0000
# 2 49.1751 99.6764 41.2718 0.0000 0.0000 0.0000
# 3 41.2718 41.2718 107.3091 0.0000 0.0000 0.0000
# 4 0.0000 0.0000 0.0000 25.1946 0.0000 0.0000
# 5 0.0000 0.0000 0.0000 0.0000 25.1946 0.0000
# 6 0.0000 0.0000 0.0000 0.0000 0.0000 29.4196
#
#
#
# Elastic Compliance Matrix: (Units=1/GPa)
#
#
# Indices 1 2 3 4 5 6 
#
# 1 0.014170 -0.005631 -0.003284 0.000000 0.000000 0.000000
# 2 -0.005631 0.014170 -0.003284 0.000000 0.000000 0.000000
# 3 -0.003284 -0.003284 0.011845 0.000000 0.000000 0.000000
# 4 0.000000 0.000000 0.000000 0.039691 0.000000 0.000000
# 5 0.000000 0.000000 0.000000 0.000000 0.039691 0.000000
# 6 0.000000 0.000000 0.000000 0.000000 0.000000 0.033991
#
#
# Mechanical properties :
#
#
# Convention : Reuss Voigt Hill
#
# Bulk Modulus (GPa) = 63.34428 63.34436 63.34432
# Shear Modulus (GPa) = 27.28949 27.62463 27.45706
#
# Velocity S-wave (km/s) = 3.74257 3.76548 3.75405
# Velocity P-wave (km/s) = 7.15461 7.17063 7.16262
#
# Compressibility (1/GPa) = 0.01578675
#
# Stress axis : x y z
#
# Youngs Moduli (GPa) = 70.56952 70.56952 84.42239
#
# Poissons Ratio (x) = 0.39738 0.27727
# Poissons Ratio (y) = 0.39738 0.27727
# Poissons Ratio (z) = 0.23177 0.23177
#
# Static dielectric constant tensor:
#      x y z
#    x 3.415610 0.000000 0.000000 
#    y 0.000000 3.415610 0.000000 
#    z 0.000000 0.000000 3.901880 
# 
# 
# High freq. dielectric constant tensor:
#      x y z
#    x 1.750390 0.000000 0.000000 
#    y 0.000000 1.750390 0.000000 
#    z 0.000000 0.000000 1.770720 
# 
# From -- ./inp_files/13103.got.cif
#   From: 2010.03.12/outbox.cif.g09.slc.cpg/sg139_7_cif.got.tgz:13103.got - 2010.04.08 09:46:31.
