data_PCOD8319644
_publ_section_title
;
Structure prediction by ZEFSAII (Michael W. Deem and Ramdas Pophale) SiO2 
 PCOD8319644
Probable space group: I 4/M M M
;
_chemical_formula_sum "Si O2"
_cell_formula_units_Z 192
_cell_length_a 29.780183
_cell_length_b 29.780183
_cell_length_c 12.515764
_cell_angle_alpha 90.000000
_cell_angle_beta 90.000000
_cell_angle_gamma 90.000000
_cell_volume 11099.721694
_symmetry_space_group_name_H-M "I 4/M M M"
_symmetry_group_IT_number 139
_symmetry_cell_setting 'tetragonal'
loop_
_space_group_symop_operation_xyz
x,y,z
-y,x,z
-x,-y,z
y,-x,z
x,-y,-z
-x,y,-z
y,x,-z
-y,-x,-z
-x,-y,-z
y,-x,-z
x,y,-z
-y,x,-z
-x,y,z
x,-y,z
-y,-x,z
y,x,z
1/2+x,1/2+y,1/2+z
1/2-y,1/2+x,1/2+z
1/2-x,1/2-y,1/2+z
1/2+y,1/2-x,1/2+z
1/2+x,1/2-y,1/2-z
1/2-x,1/2+y,1/2-z
1/2+y,1/2+x,1/2-z
1/2-y,1/2-x,1/2-z
1/2-x,1/2-y,1/2-z
1/2+y,1/2-x,1/2-z
1/2+x,1/2+y,1/2-z
1/2-y,1/2+x,1/2-z
1/2-x,1/2+y,1/2+z
1/2+x,1/2-y,1/2+z
1/2-y,1/2-x,1/2+z
1/2+y,1/2+x,1/2+z
loop_
_atom_site_type_symbol
_atom_site_label
_atom_site_fract_x
_atom_site_fract_y
_atom_site_fract_z
Si Si1 0.055058 0.312792 0.000000
Si Si2 0.787556 0.949568 0.000000
Si Si3 0.719562 0.949737 0.620681
Si Si4 0.179374 0.386140 0.299047
Si Si5 0.260117 0.669438 0.625384
Si Si6 0.949836 0.174342 0.383093
Si Si7 0.168455 0.100378 0.179655
O O1 0.078824 0.333316 0.105730
O O2 0.073397 0.261261 0.000000
O O3 0.000000 0.319598 0.000000
O O4 0.816605 0.939953 0.104325
O O5 0.773563 0.000000 0.000000
O O6 0.705227 0.935800 0.500000
O O7 0.702239 0.913898 0.704760
O O8 0.772605 0.950745 0.631067
O O9 0.701129 0.000000 0.646349
O O10 0.133595 0.366406 0.250000
O O11 0.209500 0.342687 0.337214
O O12 0.265840 0.659010 0.500000
O O13 0.279051 0.720950 0.647595
O O14 0.291104 0.635474 0.691722
O O15 0.931114 0.161208 0.500000
O O16 0.917733 0.153249 0.294511
O O17 0.000000 0.155139 0.369089
O O18 0.125538 0.125538 0.129035
#
# Coordination Sequence:
#
# PCOD8319644 Si02
#       7
#    16  16  32  32  32  32  32
#     4  11  22  39  57  81 108 139 175 220 281 313
#     4  11  19  31  55  77  97 127 173 216 269 319
#     4   9  18  33  51  72 100 134 165 207 268 323
#     4  12  22  33  55  78 107 137 184 223 259 298
#     4  10  19  34  50  67 102 146 188 223 255 293
#     4   9  17  30  47  66  91 127 170 209 258 310
#     4  11  18  28  46  70 101 131 168 209 258 312
#
# _framework density 17.297730000000001
#
# number of rings (size 3 to 8) (size 9 to 14) (size 15 to 20)
#    0.000    1.667    5.000    2.250    1.167    3.333 
#    0.000    0.000    0.000    0.500    0.000    0.000 
#    0.000   21.667    0.000    7.333    0.000    0.000 
#
# Total GULP energy -1189302.788141 kJ/mol
# GULP energy per Si atom -12388.570710 kJ/mol
# Density = 1.725836 g / cm^3
# Si number density = 17.297730 Si / 1000 Ang^3
#
#
#
# Elastic Constant Matrix: (Units=GPa)
#
#
# Indices 1 2 3 4 5 6 
#
# 1 52.1325 26.2269 29.1218 0.0000 0.0000 0.0000
# 2 26.2269 52.1305 29.1209 0.0000 0.0000 0.0000
# 3 29.1218 29.1209 99.6573 0.0000 0.0000 0.0000
# 4 0.0000 0.0000 0.0000 44.9467 0.0000 0.0000
# 5 0.0000 0.0000 0.0000 0.0000 44.9512 0.0000
# 6 0.0000 0.0000 0.0000 0.0000 0.0000 15.8665
#
#
#
# Elastic Compliance Matrix: (Units=1/GPa)
#
#
# Indices 1 2 3 4 5 6 
#
# 1 0.027453 -0.011150 -0.004764 0.000000 0.000000 0.000000
# 2 -0.011150 0.027453 -0.004764 0.000000 0.000000 0.000000
# 3 -0.004764 -0.004764 0.012819 0.000000 0.000000 0.000000
# 4 0.000000 0.000000 0.000000 0.022249 0.000000 0.000000
# 5 0.000000 0.000000 0.000000 0.000000 0.022246 0.000000
# 6 0.000000 0.000000 0.000000 0.000000 0.000000 0.063026
#
#
# Mechanical properties :
#
#
# Convention : Reuss Voigt Hill
#
# Bulk Modulus (GPa) = 37.92403 41.42885 39.67644
# Shear Modulus (GPa) = 22.18365 29.11625 25.64995
#
# Velocity S-wave (km/s) = 3.58503 4.10718 3.85496
# Velocity P-wave (km/s) = 6.25368 6.81868 6.54228
#
# Compressibility (1/GPa) = 0.02636850
#
# Stress axis : x y z
#
# Youngs Moduli (GPa) = 36.42648 36.42524 78.01183
#
# Poissons Ratio (x) = 0.40615 0.37164
# Poissons Ratio (y) = 0.40616 0.37164
# Poissons Ratio (z) = 0.17353 0.17353
#
# Static dielectric constant tensor:
#      x y z
#    x 3.142880 0.000000 0.000000 
#    y 0.000000 3.142890 0.000000 
#    z 0.000000 0.000000 3.464230 
# 
# 
# High freq. dielectric constant tensor:
#      x y z
#    x 1.637850 0.000000 0.000000 
#    y 0.000000 1.637850 0.000000 
#    z 0.000000 0.000000 1.683190 
# 
# From -- ./inp_files/4321.got.cif
#   From: 2010.03.12/outbox.cif.g09.slc.cpg/sg139_3_cif.got.tgz:4321.got - 2010.04.08 09:46:31.
