data_PCOD8319175
_publ_section_title
;
Structure prediction by ZEFSAII (Michael W. Deem and Ramdas Pophale) SiO2 
 PCOD8319175
Probable space group: P 42/N C M
;
_chemical_formula_sum "Si O2"
_cell_formula_units_Z 96
_cell_length_a 14.847042
_cell_length_b 14.847042
_cell_length_c 22.387061
_cell_angle_alpha 90.000000
_cell_angle_beta 90.000000
_cell_angle_gamma 90.000000
_cell_volume 4934.884094
_symmetry_space_group_name_H-M "P 42/N C M"
_symmetry_group_IT_number 138
_space_group.IT_coordinate_system_code '2'
_symmetry_cell_setting 'tetragonal'
loop_
_space_group_symop_operation_xyz
x,y,z
1/2-y,x,1/2+z
1/2-x,1/2-y,z
y,1/2-x,1/2+z
1/2+x,-y,1/2-z
-x,1/2+y,1/2-z
1/2+y,1/2+x,-z
-y,-x,-z
-x,-y,-z
1/2+y,-x,1/2-z
1/2+x,1/2+y,-z
-y,1/2+x,1/2-z
1/2-x,y,1/2+z
x,1/2-y,1/2+z
1/2-y,1/2-x,z
y,x,z
loop_
_atom_site_type_symbol
_atom_site_label
_atom_site_fract_x
_atom_site_fract_y
_atom_site_fract_z
Si Si1 0.075325 0.075325 0.931436
Si Si2 0.820517 0.320518 0.937672
Si Si3 0.098199 0.750000 0.250000
Si Si4 0.075854 0.075854 0.430076
Si Si5 0.751434 0.490234 0.874477
Si Si6 0.424146 0.075855 0.069925
Si Si7 0.248565 0.509765 0.874478
Si Si8 0.924675 0.924675 0.931436
O O1 0.038641 0.162185 0.897376
O O2 0.099716 0.099716 0.000000
O O3 0.000000 0.000000 0.929551
O O4 0.750000 0.250000 0.960253
O O5 0.764642 0.392107 0.901223
O O6 0.892107 0.264642 0.901223
O O7 0.862759 0.362759 0.000000
O O8 0.160834 0.839165 0.252301
O O9 0.027270 0.753764 0.195891
O O10 0.027270 0.746235 0.304109
O O11 0.094791 0.094791 0.500000
O O12 0.049230 0.164894 0.394982
O O13 1.000000 1.000000 0.421459
O O14 0.835106 0.549230 0.894982
O O15 0.662184 0.538640 0.897376
#
# Coordination Sequence:
#
# PCOD8319175 Si02
#       8
#     8  16  16   8  16   8  16   8
#     4  11  24  42  64  95 134 172 217 280 347 402
#     4  11  20  35  61  91 121 158 216 279 329 374
#     4  11  22  40  66  95 132 172 226 279 332 399
#     4  11  22  40  66  95 130 171 226 285 334 395
#     4  12  24  40  63  95 130 175 222 267 337 394
#     4  11  22  40  66  95 130 171 226 285 334 395
#     4  12  24  40  63  95 130 175 222 267 337 394
#     4  11  24  42  64  95 134 172 217 280 347 402
#
# _framework density 19.453343
#
# number of rings (size 3 to 8) (size 9 to 14) (size 15 to 20)
#    0.000    0.667    3.333    6.000    0.000    4.667 
#    0.000    5.000    0.000    2.000    0.000    0.000 
#    0.000    0.000    0.000    0.000    0.000    0.000 
#
# Total GULP energy -1189832.729185 kJ/mol
# GULP energy per Si atom -12394.090929 kJ/mol
# Density = 1.940907 g / cm^3
# Si number density = 19.453343 Si / 1000 Ang^3
#
#
#
# Elastic Constant Matrix: (Units=GPa)
#
#
# Indices 1 2 3 4 5 6 
#
# 1 111.5933 84.1123 75.6733 0.0000 0.0000 0.0000
# 2 84.1123 111.5933 75.6733 0.0000 0.0000 0.0000
# 3 75.6733 75.6733 201.9750 0.0000 0.0000 0.0000
# 4 0.0000 0.0000 0.0000 28.9104 0.0000 0.0000
# 5 0.0000 0.0000 0.0000 0.0000 28.9104 0.0000
# 6 0.0000 0.0000 0.0000 0.0000 0.0000 50.8217
#
#
#
# Elastic Compliance Matrix: (Units=1/GPa)
#
#
# Indices 1 2 3 4 5 6 
#
# 1 0.021791 -0.014597 -0.002695 0.000000 0.000000 0.000000
# 2 -0.014597 0.021791 -0.002695 0.000000 0.000000 0.000000
# 3 -0.002695 -0.002695 0.006971 0.000000 0.000000 0.000000
# 4 0.000000 0.000000 0.000000 0.034590 0.000000 0.000000
# 5 0.000000 0.000000 0.000000 0.000000 0.034590 0.000000
# 6 0.000000 0.000000 0.000000 0.000000 0.000000 0.019677
#
#
# Mechanical properties :
#
#
# Convention : Reuss Voigt Hill
#
# Bulk Modulus (GPa) = 94.53971 99.56437 97.05204
# Shear Modulus (GPa) = 27.33561 34.37537 30.85549
#
# Velocity S-wave (km/s) = 3.75265 4.20821 3.98694
# Velocity P-wave (km/s) = 8.21463 8.65472 8.43755
#
# Compressibility (1/GPa) = 0.01057757
#
# Stress axis : x y z
#
# Youngs Moduli (GPa) = 45.88961 45.88961 143.45399
#
# Poissons Ratio (x) = 0.66986 0.38667
# Poissons Ratio (y) = 0.66986 0.38667
# Poissons Ratio (z) = 0.12369 0.12369
#
# Static dielectric constant tensor:
#      x y z
#    x 6.480430 0.000000 0.000000 
#    y 0.000000 6.480430 0.000000 
#    z 0.000000 0.000000 3.912820 
# 
# 
# High freq. dielectric constant tensor:
#      x y z
#    x 1.759040 0.000000 0.000000 
#    y 0.000000 1.759040 0.000000 
#    z 0.000000 0.000000 1.777070 
# 
# From -- ./inp_files/6339.got.cif
#   From: 2010.03.12/outbox.cif.g09.slc.cpg/sg138_4_cif.got.tgz:6339.got - 2010.04.08 09:41:05.
