data_PCOD8319199
_publ_section_title
;
Structure prediction by ZEFSAII (Michael W. Deem and Ramdas Pophale) SiO2 
 PCOD8319199
Probable space group: P 42/N C M
;
_chemical_formula_sum "Si O2"
_cell_formula_units_Z 96
_cell_length_a 23.161149
_cell_length_b 23.161149
_cell_length_c 10.037083
_cell_angle_alpha 90.000000
_cell_angle_beta 90.000000
_cell_angle_gamma 90.000000
_cell_volume 5384.280991
_symmetry_space_group_name_H-M "P 42/N C M"
_symmetry_group_IT_number 138
_space_group.IT_coordinate_system_code '2'
_symmetry_cell_setting 'tetragonal'
loop_
_space_group_symop_operation_xyz
x,y,z
1/2-y,x,1/2+z
1/2-x,1/2-y,z
y,1/2-x,1/2+z
1/2+x,-y,1/2-z
-x,1/2+y,1/2-z
1/2+y,1/2+x,-z
-y,-x,-z
-x,-y,-z
1/2+y,-x,1/2-z
1/2+x,1/2+y,-z
-y,1/2+x,1/2-z
1/2-x,y,1/2+z
x,1/2-y,1/2+z
1/2-y,1/2-x,z
y,x,z
loop_
_atom_site_type_symbol
_atom_site_label
_atom_site_fract_x
_atom_site_fract_y
_atom_site_fract_z
Si Si1 0.248968 0.500495 0.238655
Si Si2 0.957549 0.132181 0.657969
Si Si3 0.425299 0.074702 0.771049
Si Si4 0.573159 0.926842 0.779980
Si Si5 0.865754 0.040717 0.651986
Si Si6 0.577904 0.756073 0.510886
Si Si7 0.860365 0.639636 0.008606
Si Si8 0.117040 0.382961 0.500294
O O1 0.190853 0.539569 0.245910
O O2 0.306147 0.538538 0.264937
O O3 0.246120 0.447964 0.341395
O O4 0.249312 0.474470 0.091454
O O5 0.895560 0.102302 0.681908
O O6 0.966699 0.148152 0.503498
O O7 0.005604 0.086060 0.703729
O O8 0.490921 0.089431 0.807194
O O9 0.382486 0.117515 0.848820
O O10 0.417057 0.082944 0.614251
O O11 0.593330 0.906670 0.636753
O O12 0.607570 0.892431 0.890610
O O13 0.626779 0.707316 0.495166
O O14 0.609172 0.815402 0.484105
#
# Coordination Sequence:
#
# PCOD8319199 Si02
#       8
#    16  16   8   8  16  16   8   8
#     4  12  20  40  60  84 118 156 190 248 296 356
#     4  11  22  37  63  91 115 153 200 241 292 362
#     4  12  19  37  56  88 116 147 195 254 301 343
#     4  12  19  37  56  88 116 147 195 254 301 343
#     4  11  22  37  63  91 115 153 200 241 292 362
#     4  12  22  37  58  80 118 161 208 236 290 346
#     4  12  20  37  61  80 108 166 214 238 271 351
#     4  12  24  33  55  84 122 160 192 248 301 341
#
# _framework density 17.829678999999999
#
# number of rings (size 3 to 8) (size 9 to 14) (size 15 to 20)
#    0.000    0.333   10.000    0.500    0.000    1.667 
#    0.000    4.167    0.000    4.500    0.000    2.333 
#    0.000    0.000    0.000    0.000    0.000    0.000 
#
# Total GULP energy -1190645.568625 kJ/mol
# GULP energy per Si atom -12402.558007 kJ/mol
# Density = 1.778910 g / cm^3
# Si number density = 17.829679 Si / 1000 Ang^3
#
#
#
# Elastic Constant Matrix: (Units=GPa)
#
#
# Indices 1 2 3 4 5 6 
#
# 1 100.7064 64.8394 26.3387 0.0000 0.0000 0.0000
# 2 64.8394 100.7064 26.3387 0.0000 0.0000 0.0000
# 3 26.3387 26.3387 76.9510 0.0000 0.0000 0.0000
# 4 0.0000 0.0000 0.0000 24.4779 0.0000 0.0000
# 5 0.0000 0.0000 0.0000 0.0000 24.4779 0.0000
# 6 0.0000 0.0000 0.0000 0.0000 0.0000 86.6786
#
#
#
# Elastic Compliance Matrix: (Units=1/GPa)
#
#
# Indices 1 2 3 4 5 6 
#
# 1 0.017330 -0.010551 -0.002320 0.000000 0.000000 0.000000
# 2 -0.010551 0.017330 -0.002320 0.000000 0.000000 0.000000
# 3 -0.002320 -0.002320 0.014584 0.000000 0.000000 0.000000
# 4 0.000000 0.000000 0.000000 0.040853 0.000000 0.000000
# 5 0.000000 0.000000 0.000000 0.000000 0.040853 0.000000
# 6 0.000000 0.000000 0.000000 0.000000 0.000000 0.011537
#
#
# Mechanical properties :
#
#
# Convention : Reuss Voigt Hill
#
# Bulk Modulus (GPa) = 53.02116 57.04416 55.03266
# Shear Modulus (GPa) = 27.90860 37.85003 32.87931
#
# Velocity S-wave (km/s) = 3.96067 4.61246 4.29893
# Velocity P-wave (km/s) = 7.12166 7.77366 7.45479
#
# Compressibility (1/GPa) = 0.01886039
#
# Stress axis : x y z
#
# Youngs Moduli (GPa) = 57.70391 57.70391 68.56986
#
# Poissons Ratio (x) = 0.60883 0.15910
# Poissons Ratio (y) = 0.60883 0.15910
# Poissons Ratio (z) = 0.13389 0.13389
#
# Static dielectric constant tensor:
#      x y z
#    x 3.362930 0.000000 0.000000 
#    y 0.000000 3.362930 0.000000 
#    z 0.000000 0.000000 3.384370 
# 
# 
# High freq. dielectric constant tensor:
#      x y z
#    x 1.679850 0.000000 0.000000 
#    y 0.000000 1.679850 0.000000 
#    z 0.000000 0.000000 1.698790 
# 
# From -- ./inp_files/1791.got.cif
#   From: 2010.03.12/outbox.cif.g09.slc.cpg/sg138_1_cif.got.tgz:1791.got - 2010.04.08 09:41:05.
