data_PCOD8319162
_publ_section_title
;
Structure prediction by ZEFSAII (Michael W. Deem and Ramdas Pophale) SiO2 
 PCOD8319162
Probable space group: P 42/N C M
;
_chemical_formula_sum "Si O2"
_cell_formula_units_Z 56
_cell_length_a 17.053169
_cell_length_b 17.053169
_cell_length_c 8.442945
_cell_angle_alpha 90.000000
_cell_angle_beta 90.000000
_cell_angle_gamma 90.000000
_cell_volume 2455.297673
_symmetry_space_group_name_H-M "P 42/N C M"
_symmetry_group_IT_number 138
_space_group.IT_coordinate_system_code '2'
_symmetry_cell_setting 'tetragonal'
loop_
_space_group_symop_operation_xyz
x,y,z
1/2-y,x,1/2+z
1/2-x,1/2-y,z
y,1/2-x,1/2+z
1/2+x,-y,1/2-z
-x,1/2+y,1/2-z
1/2+y,1/2+x,-z
-y,-x,-z
-x,-y,-z
1/2+y,-x,1/2-z
1/2+x,1/2+y,-z
-y,1/2+x,1/2-z
1/2-x,y,1/2+z
x,1/2-y,1/2+z
1/2-y,1/2-x,z
y,x,z
loop_
_atom_site_type_symbol
_atom_site_label
_atom_site_fract_x
_atom_site_fract_y
_atom_site_fract_z
Si Si1 0.750000 0.250000 0.750000
Si Si2 0.162938 0.662938 0.500000
Si Si3 0.495950 0.711267 0.846961
Si Si4 0.656685 0.843316 0.447632
Si Si5 0.750000 0.750000 0.197202
Si Si6 0.500198 0.868641 0.008149
O O1 0.774072 0.323737 0.641205
O O2 0.174080 0.578092 0.568577
O O3 0.500075 0.684240 0.665480
O O4 0.565155 0.673158 0.948133
O O5 0.497603 0.806719 0.861871
O O6 0.694094 0.805907 0.293274
O O7 0.693590 0.806411 0.602066
O O8 0.579432 0.920569 0.998465
O O9 0.424055 0.924055 0.000000
#
# Coordination Sequence:
#
# PCOD8319162 Si02
#       6
#     4   8  16   8   4  16
#     4  10  24  46  68 106 140 190 244 298 360 422
#     4  11  26  43  72 104 146 187 243 300 358 438
#     4  12  26  47  74 108 144 195 242 301 364 437
#     4  11  24  45  69 104 143 182 250 289 371 423
#     4  10  24  42  72 102 136 190 238 312 344 432
#     4  11  28  53  74 107 151 195 241 305 368 435
#
# _framework density 22.807827
#
# number of rings (size 3 to 8) (size 9 to 14) (size 15 to 20)
#    0.000    0.857    1.429    3.429   16.000    0.571 
#    2.571    0.000    0.000    0.000    0.000    0.000 
#    0.000    0.000    0.000    0.000    0.000    0.000 
#
# Total GULP energy -694548.953095 kJ/mol
# GULP energy per Si atom -12402.659877 kJ/mol
# Density = 2.275592 g / cm^3
# Si number density = 22.807827 Si / 1000 Ang^3
#
#
#
# Elastic Constant Matrix: (Units=GPa)
#
#
# Indices 1 2 3 4 5 6 
#
# 1 152.7765 49.3482 44.9994 0.0000 0.0000 0.0000
# 2 49.3482 152.7765 44.9994 0.0000 0.0000 0.0000
# 3 44.9994 44.9994 106.5284 0.0000 0.0000 0.0000
# 4 0.0000 0.0000 0.0000 -123.7402 0.0000 0.0000
# 5 0.0000 0.0000 0.0000 0.0000 -123.7402 0.0000
# 6 0.0000 0.0000 0.0000 0.0000 0.0000 36.8058
#
#
#
# Elastic Compliance Matrix: (Units=1/GPa)
#
#
# Indices 1 2 3 4 5 6 
#
# 1 0.007881 -0.001787 -0.002574 0.000000 0.000000 0.000000
# 2 -0.001787 0.007881 -0.002574 0.000000 0.000000 0.000000
# 3 -0.002574 -0.002574 0.011562 0.000000 0.000000 0.000000
# 4 0.000000 0.000000 0.000000 -0.008081 0.000000 0.000000
# 5 0.000000 0.000000 0.000000 0.000000 -0.008081 0.000000
# 6 0.000000 0.000000 0.000000 0.000000 0.000000 0.027170
#
#
# Mechanical properties :
#
#
# Convention : Reuss Voigt Hill
#
# Bulk Modulus (GPa) = 74.33385 76.75281 75.54333
# Shear Modulus (GPa) = 88.20528 -23.95263 32.12633
#
# Velocity S-wave (km/s) = 6.22553 -3.24418 3.75716
# Velocity P-wave (km/s) = 9.18359 4.43757 7.21216
#
# Compressibility (1/GPa) = 0.01345282
#
# Stress axis : x y z
#
# Youngs Moduli (GPa) = 126.88669 126.88669 86.49181
#
# Poissons Ratio (x) = 0.22681 0.22263
# Poissons Ratio (y) = 0.22681 0.22263
# Poissons Ratio (z) = 0.32661 0.32661
#
# Static dielectric constant tensor:
#      x y z
#    x 4.322630 0.000000 0.000000 
#    y 0.000000 4.322630 0.000000 
#    z 0.000000 0.000000 4.318940 
# 
# 
# High freq. dielectric constant tensor:
#      x y z
#    x 1.913990 0.000000 0.000000 
#    y 0.000000 1.913990 0.000000 
#    z 0.000000 0.000000 1.906690 
# 
# From -- ./inp_files/1251.got.cif
#   From: 2010.03.12/outbox.cif.g09.slc.cpg/sg138_1_cif.got.tgz:1251.got - 2010.04.08 09:41:05.
