data_PCOD8319899
_publ_section_title
;
Structure prediction by ZEFSAII (Michael W. Deem and Ramdas Pophale) SiO2 
 PCOD8319899
Probable space group: I 4/M M M
;
_chemical_formula_sum "Si O2"
_cell_formula_units_Z 224
_cell_length_a 23.081744
_cell_length_b 23.081744
_cell_length_c 24.395282
_cell_angle_alpha 90.000000
_cell_angle_beta 90.000000
_cell_angle_gamma 90.000000
_cell_volume 12996.998914
_symmetry_space_group_name_H-M "I 4/M M M"
_symmetry_group_IT_number 139
_symmetry_cell_setting 'tetragonal'
loop_
_space_group_symop_operation_xyz
x,y,z
-y,x,z
-x,-y,z
y,-x,z
x,-y,-z
-x,y,-z
y,x,-z
-y,-x,-z
-x,-y,-z
y,-x,-z
x,y,-z
-y,x,-z
-x,y,z
x,-y,z
-y,-x,z
y,x,z
1/2+x,1/2+y,1/2+z
1/2-y,1/2+x,1/2+z
1/2-x,1/2-y,1/2+z
1/2+y,1/2-x,1/2+z
1/2+x,1/2-y,1/2-z
1/2-x,1/2+y,1/2-z
1/2+y,1/2+x,1/2-z
1/2-y,1/2-x,1/2-z
1/2-x,1/2-y,1/2-z
1/2+y,1/2-x,1/2-z
1/2+x,1/2+y,1/2-z
1/2-y,1/2+x,1/2-z
1/2-x,1/2+y,1/2+z
1/2+x,1/2-y,1/2+z
1/2-y,1/2-x,1/2+z
1/2+y,1/2+x,1/2+z
loop_
_atom_site_type_symbol
_atom_site_label
_atom_site_fract_x
_atom_site_fract_y
_atom_site_fract_z
Si Si1 0.433482 0.066422 0.915757
Si Si2 0.773389 0.317099 0.164553
Si Si3 0.843386 0.338688 0.939549
Si Si4 0.211271 0.881760 0.061404
Si Si5 0.064187 0.617575 0.199910
Si Si6 0.265431 0.127186 0.221672
Si Si7 0.838723 0.933416 0.165778
O O1 0.500000 0.082179 0.930006
O O2 0.390399 0.110322 0.945978
O O3 0.423126 0.075148 0.851710
O O4 0.420427 0.000000 0.933738
O O5 0.711106 0.288895 0.150520
O O6 0.796928 0.348528 0.109192
O O7 0.812604 0.263786 0.188079
O O8 0.766343 0.365181 0.212510
O O9 0.876594 0.279105 0.925467
O O10 0.813312 0.333140 0.000000
O O11 0.181365 0.818636 0.068629
O O12 0.183095 0.927154 0.103320
O O13 0.200997 0.905730 0.000000
O O14 0.075503 0.575503 0.250000
O O15 0.103932 0.673556 0.199475
O O16 0.000000 0.642616 0.201852
O O17 0.211088 0.087434 0.207362
O O18 0.896690 0.896690 0.176391
O O19 0.853298 0.000000 0.177782
#
# Coordination Sequence:
#
# PCOD8319899 Si02
#       7
#    32  32  32  32  32  32  32
#     4  10  21  36  50  66  95 137 180 217 253 293
#     4  11  20  33  54  78 106 132 159 201 260 318
#     4  11  21  34  53  75  99 130 170 214 258 302
#     4   9  18  33  53  78 107 136 170 216 265 305
#     4  11  19  30  49  75 105 135 173 213 255 298
#     4  11  19  34  54  78 102 134 166 206 255 307
#     4  11  22  36  54  76 104 137 174 213 257 306
#
# _framework density 17.234748
#
# number of rings (size 3 to 8) (size 9 to 14) (size 15 to 20)
#    0.000    1.429    4.286    3.000    0.000    4.286 
#    0.000    2.857    0.000    0.000    0.000    2.000 
#    0.000    0.000    0.000    0.000    0.000    0.143 
#
# Total GULP energy -1388343.245650 kJ/mol
# GULP energy per Si atom -12395.921836 kJ/mol
# Density = 1.719552 g / cm^3
# Si number density = 17.234748 Si / 1000 Ang^3
#
#
#
# Elastic Constant Matrix: (Units=GPa)
#
#
# Indices 1 2 3 4 5 6 
#
# 1 127.5604 -8.2329 30.0334 0.0000 0.0000 0.0000
# 2 -8.2329 127.5604 30.0333 0.0000 0.0000 0.0000
# 3 30.0334 30.0333 109.9721 0.0000 0.0000 0.0000
# 4 0.0000 0.0000 0.0000 15.6355 0.0000 0.0000
# 5 0.0000 0.0000 0.0000 0.0000 15.6355 0.0000
# 6 0.0000 0.0000 0.0000 0.0000 0.0000 25.1139
#
#
#
# Elastic Compliance Matrix: (Units=1/GPa)
#
#
# Indices 1 2 3 4 5 6 
#
# 1 0.008540 0.001176 -0.002653 0.000000 0.000000 0.000000
# 2 0.001176 0.008540 -0.002653 0.000000 0.000000 0.000000
# 3 -0.002653 -0.002653 0.010543 0.000000 0.000000 0.000000
# 4 0.000000 0.000000 0.000000 0.063957 0.000000 0.000000
# 5 0.000000 0.000000 0.000000 0.000000 0.063957 0.000000
# 6 0.000000 0.000000 0.000000 0.000000 0.000000 0.039819
#
#
# Mechanical properties :
#
#
# Convention : Reuss Voigt Hill
#
# Bulk Modulus (GPa) = 51.65091 52.08450 51.86771
# Shear Modulus (GPa) = 23.80151 32.16091 27.98121
#
# Velocity S-wave (km/s) = 3.72024 4.32447 4.03368
# Velocity P-wave (km/s) = 6.96331 7.43108 7.20099
#
# Compressibility (1/GPa) = 0.01936074
#
# Stress axis : x y z
#
# Youngs Moduli (GPa) = 117.09528 117.09528 94.85398
#
# Poissons Ratio (x) = -0.13769 0.25169
# Poissons Ratio (y) = -0.13769 0.25169
# Poissons Ratio (z) = 0.31070 0.31070
#
# Static dielectric constant tensor:
#      x y z
#    x 3.197190 0.000000 0.000000 
#    y 0.000000 3.197190 0.000000 
#    z 0.000000 0.000000 3.366000 
# 
# 
# High freq. dielectric constant tensor:
#      x y z
#    x 1.645330 0.000000 0.000000 
#    y 0.000000 1.645330 0.000000 
#    z 0.000000 0.000000 1.676380 
# 
# From -- ./inp_files/12173.got.cif
#   From: 2010.03.12/outbox.cif.g09.slc.cpg/sg139_7_cif.got.tgz:12173.got - 2010.04.08 09:46:31.
