data_PCOD8319373
_publ_section_title
;
Structure prediction by ZEFSAII (Michael W. Deem and Ramdas Pophale) SiO2 
 PCOD8319373
Probable space group: I 4/M M M
;
_chemical_formula_sum "Si O2"
_cell_formula_units_Z 192
_cell_length_a 20.878194
_cell_length_b 20.878194
_cell_length_c 23.963592
_cell_angle_alpha 90.000000
_cell_angle_beta 90.000000
_cell_angle_gamma 90.000000
_cell_volume 10445.705423
_symmetry_space_group_name_H-M "I 4/M M M"
_symmetry_group_IT_number 139
_symmetry_cell_setting 'tetragonal'
loop_
_space_group_symop_operation_xyz
x,y,z
-y,x,z
-x,-y,z
y,-x,z
x,-y,-z
-x,y,-z
y,x,-z
-y,-x,-z
-x,-y,-z
y,-x,-z
x,y,-z
-y,x,-z
-x,y,z
x,-y,z
-y,-x,z
y,x,z
1/2+x,1/2+y,1/2+z
1/2-y,1/2+x,1/2+z
1/2-x,1/2-y,1/2+z
1/2+y,1/2-x,1/2+z
1/2+x,1/2-y,1/2-z
1/2-x,1/2+y,1/2-z
1/2+y,1/2+x,1/2-z
1/2-y,1/2-x,1/2-z
1/2-x,1/2-y,1/2-z
1/2+y,1/2-x,1/2-z
1/2+x,1/2+y,1/2-z
1/2-y,1/2+x,1/2-z
1/2-x,1/2+y,1/2+z
1/2+x,1/2-y,1/2+z
1/2-y,1/2-x,1/2+z
1/2+y,1/2+x,1/2+z
loop_
_atom_site_type_symbol
_atom_site_label
_atom_site_fract_x
_atom_site_fract_y
_atom_site_fract_z
Si Si1 0.571683 0.571683 0.433588
Si Si2 0.073331 0.177409 0.668429
Si Si3 0.137249 0.685025 0.935059
Si Si4 0.672920 0.327081 0.434089
Si Si5 0.365106 0.072342 0.168754
Si Si6 0.625900 0.271307 0.061524
Si Si7 0.071363 0.305020 0.717500
O O1 0.500000 0.589755 0.413075
O O2 0.573768 0.573768 0.500000
O O3 0.622230 0.622230 0.408006
O O4 0.115203 0.115203 0.683568
O O5 0.076236 0.194674 0.602842
O O6 0.106644 0.239404 0.698870
O O7 0.000000 0.162202 0.685403
O O8 0.155088 0.756038 0.914588
O O9 0.080781 0.661681 0.893946
O O10 0.196698 0.637458 0.925331
O O11 0.114598 0.683643 0.000000
O O12 0.669856 0.330145 0.500000
O O13 0.309951 0.078707 0.215749
O O14 0.413198 0.129266 0.184748
O O15 0.395298 0.000000 0.172427
O O16 0.695480 0.304521 0.064972
O O17 0.596087 0.278929 0.000000
O O18 0.000000 0.290327 0.698691
#
# Coordination Sequence:
#
# PCOD8319373 Si02
#       7
#    16  32  32  16  32  32  32
#     4   8  14  25  40  58  83 121 172 222 260 298
#     4  10  20  35  56  81 109 139 176 223 270 321
#     4  10  18  30  48  75 107 140 175 214 264 320
#     4   9  17  28  45  67  97 133 171 210 254 312
#     4  10  20  34  53  79 109 138 175 222 264 308
#     4   9  16  29  50  74 103 139 177 214 258 319
#     4   9  19  37  56  77 105 138 178 219 263 316
#
# _framework density 18.380761
#
# number of rings (size 3 to 8) (size 9 to 14) (size 15 to 20)
#    0.000    2.583    2.500    0.250    0.000    1.833 
#    1.500    4.167    0.000    0.500    0.000    3.500 
#    0.000    0.000    0.000    0.000    0.000    0.000 
#
# Total GULP energy -1189276.382580 kJ/mol
# GULP energy per Si atom -12388.295652 kJ/mol
# Density = 1.833893 g / cm^3
# Si number density = 18.380761 Si / 1000 Ang^3
#
#
#
# Elastic Constant Matrix: (Units=GPa)
#
#
# Indices 1 2 3 4 5 6 
#
# 1 82.0026 34.8702 26.9779 0.0000 0.0000 0.0000
# 2 34.8702 82.0026 26.9779 0.0000 0.0000 0.0000
# 3 26.9779 26.9779 79.1725 0.0000 0.0000 0.0000
# 4 0.0000 0.0000 0.0000 17.0196 0.0000 0.0000
# 5 0.0000 0.0000 0.0000 0.0000 17.0196 0.0000
# 6 0.0000 0.0000 0.0000 0.0000 0.0000 22.8811
#
#
#
# Elastic Compliance Matrix: (Units=1/GPa)
#
#
# Indices 1 2 3 4 5 6 
#
# 1 0.015685 -0.005532 -0.003460 0.000000 0.000000 0.000000
# 2 -0.005532 0.015685 -0.003460 0.000000 0.000000 0.000000
# 3 -0.003460 -0.003460 0.014988 0.000000 0.000000 0.000000
# 4 0.000000 0.000000 0.000000 0.058756 0.000000 0.000000
# 5 0.000000 0.000000 0.000000 0.000000 0.058756 0.000000
# 6 0.000000 0.000000 0.000000 0.000000 0.000000 0.043704
#
#
# Mechanical properties :
#
#
# Convention : Reuss Voigt Hill
#
# Bulk Modulus (GPa) = 46.60615 46.75886 46.68250
# Shear Modulus (GPa) = 20.86558 21.67419 21.26988
#
# Velocity S-wave (km/s) = 3.37291 3.43764 3.40543
# Velocity P-wave (km/s) = 6.37022 6.42267 6.39650
#
# Compressibility (1/GPa) = 0.02145640
#
# Stress axis : x y z
#
# Youngs Moduli (GPa) = 63.75437 63.75439 66.71785
#
# Poissons Ratio (x) = 0.35267 0.23083
# Poissons Ratio (y) = 0.35266 0.23083
# Poissons Ratio (z) = 0.22058 0.22058
#
# Static dielectric constant tensor:
#      x y z
#    x 3.326230 0.000000 0.000000 
#    y 0.000000 3.326220 0.000000 
#    z 0.000000 0.000000 3.290150 
# 
# 
# High freq. dielectric constant tensor:
#      x y z
#    x 1.699910 0.000000 0.000000 
#    y 0.000000 1.699910 0.000000 
#    z 0.000000 0.000000 1.697850 
# 
# From -- ./inp_files/12033.got.cif
#   From: 2010.03.12/outbox.cif.g09.slc.cpg/sg139_7_cif.got.tgz:12033.got - 2010.04.08 09:46:31.
