data_PCOD8319129
_publ_section_title
;
Structure prediction by ZEFSAII (Michael W. Deem and Ramdas Pophale) SiO2 
 PCOD8319129
Probable space group: P 42/N C M
;
_chemical_formula_sum "Si O2"
_cell_formula_units_Z 96
_cell_length_a 24.035391
_cell_length_b 24.035391
_cell_length_c 9.108480
_cell_angle_alpha 90.000000
_cell_angle_beta 90.000000
_cell_angle_gamma 90.000000
_cell_volume 5261.969083
_symmetry_space_group_name_H-M "P 42/N C M"
_symmetry_group_IT_number 138
_space_group.IT_coordinate_system_code '2'
_symmetry_cell_setting 'tetragonal'
loop_
_space_group_symop_operation_xyz
x,y,z
1/2-y,x,1/2+z
1/2-x,1/2-y,z
y,1/2-x,1/2+z
1/2+x,-y,1/2-z
-x,1/2+y,1/2-z
1/2+y,1/2+x,-z
-y,-x,-z
-x,-y,-z
1/2+y,-x,1/2-z
1/2+x,1/2+y,-z
-y,1/2+x,1/2-z
1/2-x,y,1/2+z
x,1/2-y,1/2+z
1/2-y,1/2-x,z
y,x,z
loop_
_atom_site_type_symbol
_atom_site_label
_atom_site_fract_x
_atom_site_fract_y
_atom_site_fract_z
Si Si1 0.191572 0.808377 0.323489
Si Si2 0.099490 0.900387 0.327238
Si Si3 0.106886 0.193286 0.169193
Si Si4 0.607011 0.693391 0.168693
Si Si5 0.896559 0.514279 0.331179
Si Si6 0.896483 0.985614 0.169122
O O1 0.198183 0.801818 0.500000
O O2 0.249954 0.827109 0.249932
O O3 0.145398 0.854478 0.282184
O O4 0.095301 0.904700 0.500000
O O5 0.039341 0.884207 0.265851
O O6 0.115565 0.960482 0.265363
O O7 0.160568 0.160568 0.232324
O O8 0.097279 0.249920 0.250440
O O9 0.052646 0.156487 0.192435
O O10 0.116774 0.206406 0.000303
O O11 0.660814 0.660814 0.231705
O O12 0.552878 0.656483 0.192377
O O13 0.952605 0.547396 0.282670
O O14 0.902755 0.496400 0.500198
O O15 0.952565 0.952565 0.217702
#
# Coordination Sequence:
#
# PCOD8319129 Si02
#       6
#    16  16  16  16  16  16
#     4  10  22  40  59  79 105 136 170 210 257 306
#     4  11  23  35  53  84 111 132 167 213 258 307
#     4   9  19  35  53  75 104 138 177 219 261 306
#     4   9  19  35  53  75 104 138 177 219 261 306
#     4   9  19  36  55  75 104 142 178 212 255 307
#     4   9  19  36  55  75 104 142 178 212 255 307
#
# _framework density 18.244119999999999
#
# number of rings (size 3 to 8) (size 9 to 14) (size 15 to 20)
#    0.000    2.500    0.000    4.000    0.000    9.000 
#    0.000   11.667    0.000    0.000    0.000    0.000 
#    0.000    0.000    0.000    0.000    0.000    0.000 
#
# Total GULP energy -1190066.250900 kJ/mol
# GULP energy per Si atom -12396.523447 kJ/mol
# Density = 1.820260 g / cm^3
# Si number density = 18.244120 Si / 1000 Ang^3
#
#
#
# Elastic Constant Matrix: (Units=GPa)
#
#
# Indices 1 2 3 4 5 6 
#
# 1 129.0221 61.5047 62.8243 0.0000 0.0000 0.0000
# 2 61.5047 129.0218 62.8242 0.0000 0.0000 0.0000
# 3 62.8243 62.8242 82.8242 0.0000 0.0000 0.0000
# 4 0.0000 0.0000 0.0000 36.0258 0.0000 0.0000
# 5 0.0000 0.0000 0.0000 0.0000 36.0258 0.0000
# 6 0.0000 0.0000 0.0000 0.0000 0.0000 7.0999
#
#
#
# Elastic Compliance Matrix: (Units=1/GPa)
#
#
# Indices 1 2 3 4 5 6 
#
# 1 0.012657 -0.002154 -0.007966 0.000000 0.000000 0.000000
# 2 -0.002154 0.012657 -0.007966 0.000000 0.000000 0.000000
# 3 -0.007966 -0.007966 0.024159 0.000000 0.000000 0.000000
# 4 0.000000 0.000000 0.000000 0.027758 0.000000 0.000000
# 5 0.000000 0.000000 0.000000 0.000000 0.027758 0.000000
# 6 0.000000 0.000000 0.000000 0.000000 0.000000 0.140847
#
#
# Mechanical properties :
#
#
# Convention : Reuss Voigt Hill
#
# Bulk Modulus (GPa) = 75.19633 79.46383 77.33008
# Shear Modulus (GPa) = 17.45559 26.07797 21.76678
#
# Velocity S-wave (km/s) = 3.09654 3.78483 3.45785
# Velocity P-wave (km/s) = 7.35466 7.92151 7.64334
#
# Compressibility (1/GPa) = 0.01329852
#
# Stress axis : x y z
#
# Youngs Moduli (GPa) = 79.01050 79.01036 41.39285
#
# Poissons Ratio (x) = 0.17022 0.32974
# Poissons Ratio (y) = 0.17022 0.32974
# Poissons Ratio (z) = 0.62941 0.62941
#
# Static dielectric constant tensor:
#      x y z
#    x 3.423280 0.000000 0.000000 
#    y 0.000000 3.423280 0.000000 
#    z 0.000000 0.000000 3.312420 
# 
# 
# High freq. dielectric constant tensor:
#      x y z
#    x 1.714140 0.000000 0.000000 
#    y 0.000000 1.714140 0.000000 
#    z 0.000000 0.000000 1.702420 
# 
# From -- ./inp_files/1721.got.cif
#   From: 2010.03.12/outbox.cif.g09.slc.cpg/sg138_1_cif.got.tgz:1721.got - 2010.04.08 09:41:05.
