data_PCOD8319580
_publ_section_title
;
Structure prediction by ZEFSAII (Michael W. Deem and Ramdas Pophale) SiO2 
 PCOD8319580
Probable space group: I 4/M M M
;
_chemical_formula_sum "Si O2"
_cell_formula_units_Z 160
_cell_length_a 32.223966
_cell_length_b 32.223966
_cell_length_c 8.847069
_cell_angle_alpha 90.000000
_cell_angle_beta 90.000000
_cell_angle_gamma 90.000000
_cell_volume 9186.654762
_symmetry_space_group_name_H-M "I 4/M M M"
_symmetry_group_IT_number 139
_symmetry_cell_setting 'tetragonal'
loop_
_space_group_symop_operation_xyz
x,y,z
-y,x,z
-x,-y,z
y,-x,z
x,-y,-z
-x,y,-z
y,x,-z
-y,-x,-z
-x,-y,-z
y,-x,-z
x,y,-z
-y,x,-z
-x,y,z
x,-y,z
-y,-x,z
y,x,z
1/2+x,1/2+y,1/2+z
1/2-y,1/2+x,1/2+z
1/2-x,1/2-y,1/2+z
1/2+y,1/2-x,1/2+z
1/2+x,1/2-y,1/2-z
1/2-x,1/2+y,1/2-z
1/2+y,1/2+x,1/2-z
1/2-y,1/2-x,1/2-z
1/2-x,1/2-y,1/2-z
1/2+y,1/2-x,1/2-z
1/2+x,1/2+y,1/2-z
1/2-y,1/2+x,1/2-z
1/2-x,1/2+y,1/2+z
1/2+x,1/2-y,1/2+z
1/2-y,1/2-x,1/2+z
1/2+y,1/2+x,1/2+z
loop_
_atom_site_type_symbol
_atom_site_label
_atom_site_fract_x
_atom_site_fract_y
_atom_site_fract_z
Si Si1 0.757017 0.409543 0.827869
Si Si2 0.000000 0.349842 0.827239
Si Si3 0.231633 0.500000 0.167056
Si Si4 0.547318 0.614126 0.176913
Si Si5 0.608042 0.675537 0.676045
Si Si6 0.653572 0.910093 0.181129
O O1 0.741923 0.457858 0.819493
O O2 0.720147 0.383585 0.752188
O O3 0.800028 0.402539 0.740405
O O4 0.763187 0.394800 0.000000
O O5 0.955284 0.364734 0.760687
O O6 0.000000 0.300520 0.804641
O O7 0.000000 0.362035 0.000000
O O8 0.209321 0.500000 0.000000
O O9 0.500000 0.608151 0.230593
O O10 0.572130 0.572130 0.218851
O O11 0.566971 0.653378 0.261255
O O12 0.550034 0.623494 0.000000
O O13 0.601739 0.682407 0.500000
O O14 0.648232 0.648232 0.714238
O O15 0.624838 0.875162 0.250000
O O16 0.653929 0.907952 0.000000
#
# Coordination Sequence:
#
# PCOD8319580 Si02
#       6
#    32  16  16  32  32  32
#     4  10  19  32  51  75 101 130 165 206 253 303
#     4   8  16  30  48  71 103 138 169 201 239 284
#     4   8  16  28  44  70  99 123 153 197 245 296
#     4   9  18  32  49  69  94 126 166 212 261 313
#     4  10  21  35  49  68  96 130 167 208 256 311
#     4  10  19  33  53  79 109 140 173 209 249 292
#
# _framework density 17.416568000000002
#
# number of rings (size 3 to 8) (size 9 to 14) (size 15 to 20)
#    0.000    2.600    0.000    1.800    1.400    3.400 
#    0.000    1.000    0.000    0.900    0.000    4.900 
#    0.000    0.000    0.000    0.000    0.000    0.000 
#
# Total GULP energy -991187.207087 kJ/mol
# GULP energy per Si atom -12389.840089 kJ/mol
# Density = 1.737693 g / cm^3
# Si number density = 17.416568 Si / 1000 Ang^3
#
#
#
# Elastic Constant Matrix: (Units=GPa)
#
#
# Indices 1 2 3 4 5 6 
#
# 1 109.9105 61.1087 46.7447 0.0000 0.0000 0.0000
# 2 61.1087 109.9105 46.7447 0.0000 0.0000 0.0000
# 3 46.7447 46.7447 71.7112 0.0000 0.0000 0.0000
# 4 0.0000 0.0000 0.0000 23.2465 0.0000 0.0000
# 5 0.0000 0.0000 0.0000 0.0000 23.2465 0.0000
# 6 0.0000 0.0000 0.0000 0.0000 0.0000 17.5001
#
#
#
# Elastic Compliance Matrix: (Units=1/GPa)
#
#
# Indices 1 2 3 4 5 6 
#
# 1 0.014788 -0.005703 -0.005922 0.000000 0.000000 0.000000
# 2 -0.005703 0.014788 -0.005922 0.000000 0.000000 0.000000
# 3 -0.005922 -0.005922 0.021665 0.000000 0.000000 0.000000
# 4 0.000000 0.000000 0.000000 0.043017 0.000000 0.000000
# 5 0.000000 0.000000 0.000000 0.000000 0.043017 0.000000
# 6 0.000000 0.000000 0.000000 0.000000 0.000000 0.057143
#
#
# Mechanical properties :
#
#
# Convention : Reuss Voigt Hill
#
# Bulk Modulus (GPa) = 61.93066 66.74759 64.33913
# Shear Modulus (GPa) = 21.28628 21.92754 21.60691
#
# Velocity S-wave (km/s) = 3.49977 3.55210 3.52603
# Velocity P-wave (km/s) = 7.20880 7.43173 7.32111
#
# Compressibility (1/GPa) = 0.01614709
#
# Stress axis : x y z
#
# Youngs Moduli (GPa) = 67.62357 67.62357 46.15775
#
# Poissons Ratio (x) = 0.38568 0.27333
# Poissons Ratio (y) = 0.38568 0.27333
# Poissons Ratio (z) = 0.40044 0.40044
#
# Static dielectric constant tensor:
#      x y z
#    x 3.187470 0.000000 0.000000 
#    y 0.000000 3.187470 0.000000 
#    z 0.000000 0.000000 3.312050 
# 
# 
# High freq. dielectric constant tensor:
#      x y z
#    x 1.657160 0.000000 0.000000 
#    y 0.000000 1.657160 0.000000 
#    z 0.000000 0.000000 1.679500 
# 
# From -- ./inp_files/2237.got.cif
#   From: 2010.03.12/outbox.cif.g09.slc.cpg/sg139_2_cif.got.tgz:2237.got - 2010.04.08 09:46:31.
