data_PCOD8319429
_publ_section_title
;
Structure prediction by ZEFSAII (Michael W. Deem and Ramdas Pophale) SiO2 
 PCOD8319429
Probable space group: I 4/M M M
;
_chemical_formula_sum "Si O2"
_cell_formula_units_Z 240
_cell_length_a 28.175856
_cell_length_b 28.175856
_cell_length_c 18.037755
_cell_angle_alpha 90.000000
_cell_angle_beta 90.000000
_cell_angle_gamma 90.000000
_cell_volume 14319.792400
_symmetry_space_group_name_H-M "I 4/M M M"
_symmetry_group_IT_number 139
_symmetry_cell_setting 'tetragonal'
loop_
_space_group_symop_operation_xyz
x,y,z
-y,x,z
-x,-y,z
y,-x,z
x,-y,-z
-x,y,-z
y,x,-z
-y,-x,-z
-x,-y,-z
y,-x,-z
x,y,-z
-y,x,-z
-x,y,z
x,-y,z
-y,-x,z
y,x,z
1/2+x,1/2+y,1/2+z
1/2-y,1/2+x,1/2+z
1/2-x,1/2-y,1/2+z
1/2+y,1/2-x,1/2+z
1/2+x,1/2-y,1/2-z
1/2-x,1/2+y,1/2-z
1/2+y,1/2+x,1/2-z
1/2-y,1/2-x,1/2-z
1/2-x,1/2-y,1/2-z
1/2+y,1/2-x,1/2-z
1/2+x,1/2+y,1/2-z
1/2-y,1/2+x,1/2-z
1/2-x,1/2+y,1/2+z
1/2+x,1/2-y,1/2+z
1/2-y,1/2-x,1/2+z
1/2+y,1/2+x,1/2+z
loop_
_atom_site_type_symbol
_atom_site_label
_atom_site_fract_x
_atom_site_fract_y
_atom_site_fract_z
Si Si1 0.867579 0.943848 0.000000
Si Si2 0.887180 0.380596 0.164566
Si Si3 0.054541 0.697506 0.651523
Si Si4 0.556211 0.296181 0.082717
Si Si5 0.556023 0.313090 0.353349
Si Si6 0.556342 0.367842 0.208029
Si Si7 0.055369 0.551694 0.919294
Si Si8 0.445370 0.792524 0.672319
O O1 0.838347 0.926767 0.928285
O O2 0.918694 0.918694 0.000000
O O3 0.876914 0.000000 0.000000
O O4 0.876101 0.376101 0.250000
O O5 0.841813 0.406176 0.125521
O O6 0.930786 0.415404 0.149084
O O7 0.906666 0.329235 0.136761
O O8 0.072834 0.745111 0.612214
O O9 0.055347 0.704532 0.739280
O O10 0.000000 0.684597 0.627515
O O11 0.500000 0.297040 0.081970
O O12 0.574023 0.337329 0.137595
O O13 0.576684 0.304940 0.000000
O O14 0.500000 0.312255 0.348361
O O15 0.574894 0.341256 0.281782
O O16 0.573697 0.258807 0.353199
O O17 0.500000 0.375905 0.208598
O O18 0.580759 0.419242 0.203776
O O19 0.078801 0.500000 0.907770
O O20 0.000000 0.546105 0.917983
O O21 0.071608 0.572263 0.000000
O O22 0.500000 0.802042 0.644828
#
# Coordination Sequence:
#
# PCOD8319429 Si02
#       8
#    16  32  32  32  32  32  32  32
#     4  10  20  33  52  80 108 132 163 195 227 279
#     4  10  19  28  44  70  92 115 156 207 262 301
#     4   9  16  28  45  67  95 124 157 204 257 301
#     4   9  17  30  49  71  95 127 169 210 243 281
#     4   9  17  32  51  71  99 134 168 202 235 273
#     4  10  19  32  52  77 106 136 161 188 227 277
#     4   9  18  31  41  52  82 126 161 190 234 300
#     4   9  16  29  47  66  95 127 159 203 250 294
#
# _framework density 16.760019
#
# number of rings (size 3 to 8) (size 9 to 14) (size 15 to 20)
#    0.000    2.667    1.333    1.600    0.000    2.600 
#    1.200    2.000    0.000    2.400    0.000    4.667 
#    0.000    0.000    0.000    0.000    0.000    0.000 
#
# Total GULP energy -1486658.442403 kJ/mol
# GULP energy per Si atom -12388.820353 kJ/mol
# Density = 1.672187 g / cm^3
# Si number density = 16.760019 Si / 1000 Ang^3
#
#
#
# Elastic Constant Matrix: (Units=GPa)
#
#
# Indices 1 2 3 4 5 6 
#
# 1 86.3549 55.6801 35.0463 0.0000 0.0000 0.0000
# 2 55.6801 86.3549 35.0463 0.0000 0.0000 0.0000
# 3 35.0463 35.0463 61.2798 0.0000 0.0000 0.0000
# 4 0.0000 0.0000 0.0000 40.7625 0.0000 0.0000
# 5 0.0000 0.0000 0.0000 0.0000 40.7625 0.0000
# 6 0.0000 0.0000 0.0000 0.0000 0.0000 20.6532
#
#
#
# Elastic Compliance Matrix: (Units=1/GPa)
#
#
# Indices 1 2 3 4 5 6 
#
# 1 0.021204 -0.011396 -0.005610 0.000000 0.000000 0.000000
# 2 -0.011396 0.021204 -0.005610 0.000000 0.000000 0.000000
# 3 -0.005610 -0.005610 0.022735 0.000000 0.000000 0.000000
# 4 0.000000 0.000000 0.000000 0.024532 0.000000 0.000000
# 5 0.000000 0.000000 0.000000 0.000000 0.024532 0.000000
# 6 0.000000 0.000000 0.000000 0.000000 0.000000 0.048419
#
#
# Mechanical properties :
#
#
# Convention : Reuss Voigt Hill
#
# Bulk Modulus (GPa) = 50.21636 53.94832 52.08234
# Shear Modulus (GPa) = 23.31049 27.65009 25.48029
#
# Velocity S-wave (km/s) = 3.73344 4.06614 3.90334
# Velocity P-wave (km/s) = 6.97222 7.36907 7.17339
#
# Compressibility (1/GPa) = 0.01991383
#
# Stress axis : x y z
#
# Youngs Moduli (GPa) = 47.15982 47.15982 43.98482
#
# Poissons Ratio (x) = 0.53742 0.24674
# Poissons Ratio (y) = 0.53742 0.24674
# Poissons Ratio (z) = 0.26456 0.26456
#
# Static dielectric constant tensor:
#      x y z
#    x 3.090260 0.000000 0.000000 
#    y 0.000000 3.090260 0.000000 
#    z 0.000000 0.000000 3.326020 
# 
# 
# High freq. dielectric constant tensor:
#      x y z
#    x 1.623360 0.000000 0.000000 
#    y 0.000000 1.623360 0.000000 
#    z 0.000000 0.000000 1.643460 
# 
# From -- ./inp_files/6815.got.cif
#   From: 2010.03.12/outbox.cif.g09.slc.cpg/sg139_4_cif.got.tgz:6815.got - 2010.04.08 09:46:31.
