data_PCOD8319014
_publ_section_title
;
Structure prediction by ZEFSAII (Michael W. Deem and Ramdas Pophale) SiO2 
 PCOD8319014
Probable space group: P 42/N C M
;
_chemical_formula_sum "Si O2"
_cell_formula_units_Z 96
_cell_length_a 23.640585
_cell_length_b 23.640585
_cell_length_c 9.518392
_cell_angle_alpha 90.000000
_cell_angle_beta 90.000000
_cell_angle_gamma 90.000000
_cell_volume 5319.612832
_symmetry_space_group_name_H-M "P 42/N C M"
_symmetry_group_IT_number 138
_space_group.IT_coordinate_system_code '2'
_symmetry_cell_setting 'tetragonal'
loop_
_space_group_symop_operation_xyz
x,y,z
1/2-y,x,1/2+z
1/2-x,1/2-y,z
y,1/2-x,1/2+z
1/2+x,-y,1/2-z
-x,1/2+y,1/2-z
1/2+y,1/2+x,-z
-y,-x,-z
-x,-y,-z
1/2+y,-x,1/2-z
1/2+x,1/2+y,-z
-y,1/2+x,1/2-z
1/2-x,y,1/2+z
x,1/2-y,1/2+z
1/2-y,1/2-x,z
y,x,z
loop_
_atom_site_type_symbol
_atom_site_label
_atom_site_fract_x
_atom_site_fract_y
_atom_site_fract_z
Si Si1 0.688269 0.811732 0.523069
Si Si2 0.804739 0.396413 0.662653
Si Si3 0.818398 0.818398 0.517997
Si Si4 0.371171 0.128830 0.717340
Si Si5 0.304580 0.604436 0.162963
Si Si6 0.369578 0.130423 0.241667
Si Si7 0.475628 0.305891 0.166674
Si Si8 0.694258 0.525722 0.162974
O O1 0.752377 0.828899 0.491163
O O2 0.647830 0.852171 0.436286
O O3 0.673971 0.826030 0.684257
O O4 0.856917 0.357200 0.707983
O O5 0.789368 0.388499 0.499989
O O6 0.750263 0.377124 0.750082
O O7 0.822414 0.460924 0.695856
O O8 0.834324 0.834324 0.675809
O O9 0.858147 0.858147 0.422406
O O10 0.358076 0.061872 0.726259
O O11 0.322167 0.540262 0.198181
O O12 0.356698 0.065409 0.282904
O O13 0.457217 0.250347 0.252073
O O14 0.465230 0.294396 0.002021
#
# Coordination Sequence:
#
# PCOD8319014 Si02
#       8
#     8  16   8   8  16   8  16  16
#     4  11  20  36  48  70  99 132 178 226 279 314
#     4   9  19  36  58  84 112 140 173 214 262 318
#     4  11  24  32  48  70 101 136 176 228 281 316
#     4  12  22  33  51  73 102 141 180 221 265 316
#     4   9  19  36  58  84 112 140 173 214 262 318
#     4  12  22  33  51  73 102 141 180 221 265 316
#     4  10  20  35  54  76 104 141 182 222 263 314
#     4  10  20  35  54  76 104 141 182 222 263 314
#
# _framework density 18.046426
#
# number of rings (size 3 to 8) (size 9 to 14) (size 15 to 20)
#    0.000    1.833    1.667    3.000    2.333    2.333 
#    0.000    2.500    0.000    4.000    0.000    1.167 
#    0.000    0.000    0.000    0.000    0.000    0.000 
#
# Total GULP energy -1190505.168178 kJ/mol
# GULP energy per Si atom -12401.095502 kJ/mol
# Density = 1.800535 g / cm^3
# Si number density = 18.046426 Si / 1000 Ang^3
#
#
#
# Elastic Constant Matrix: (Units=GPa)
#
#
# Indices 1 2 3 4 5 6 
#
# 1 113.1977 84.4003 39.8895 0.0000 0.0000 0.0000
# 2 84.4003 113.1977 39.8895 0.0000 0.0000 0.0000
# 3 39.8895 39.8895 57.4059 0.0000 0.0000 0.0000
# 4 0.0000 0.0000 0.0000 25.9947 0.0000 0.0000
# 5 0.0000 0.0000 0.0000 0.0000 25.9947 0.0000
# 6 0.0000 0.0000 0.0000 0.0000 0.0000 35.0416
#
#
#
# Elastic Compliance Matrix: (Units=1/GPa)
#
#
# Indices 1 2 3 4 5 6 
#
# 1 0.020880 -0.013846 -0.004888 0.000000 0.000000 0.000000
# 2 -0.013846 0.020880 -0.004888 0.000000 0.000000 0.000000
# 3 -0.004888 -0.004888 0.024213 0.000000 0.000000 0.000000
# 4 0.000000 0.000000 0.000000 0.038469 0.000000 0.000000
# 5 0.000000 0.000000 0.000000 0.000000 0.038469 0.000000
# 6 0.000000 0.000000 0.000000 0.000000 0.000000 0.028538
#
#
# Mechanical properties :
#
#
# Convention : Reuss Voigt Hill
#
# Bulk Modulus (GPa) = 53.39127 68.01779 60.70453
# Shear Modulus (GPa) = 22.22873 25.38101 23.80487
#
# Velocity S-wave (km/s) = 3.51344 3.75431 3.63587
# Velocity P-wave (km/s) = 6.79034 7.52099 7.16499
#
# Compressibility (1/GPa) = 0.01872965
#
# Stress axis : x y z
#
# Youngs Moduli (GPa) = 47.89320 47.89320 41.30075
#
# Poissons Ratio (x) = 0.66311 0.20187
# Poissons Ratio (y) = 0.66311 0.20187
# Poissons Ratio (z) = 0.23410 0.23410
#
# Static dielectric constant tensor:
#      x y z
#    x 3.332300 0.000000 0.000000 
#    y 0.000000 3.332300 0.000000 
#    z 0.000000 0.000000 3.375600 
# 
# 
# High freq. dielectric constant tensor:
#      x y z
#    x 1.688740 0.000000 0.000000 
#    y 0.000000 1.688740 0.000000 
#    z 0.000000 0.000000 1.706950 
# 
# From -- ./inp_files/1787.got.cif
#   From: 2010.03.12/outbox.cif.g09.slc.cpg/sg138_1_cif.got.tgz:1787.got - 2010.04.08 09:41:05.
