data_PCOD8319612
_publ_section_title
;
Structure prediction by ZEFSAII (Michael W. Deem and Ramdas Pophale) SiO2 
 PCOD8319612
Probable space group: I 4/M M M
;
_chemical_formula_sum "Si O2"
_cell_formula_units_Z 176
_cell_length_a 23.626201
_cell_length_b 23.626201
_cell_length_c 18.182252
_cell_angle_alpha 90.000000
_cell_angle_beta 90.000000
_cell_angle_gamma 90.000000
_cell_volume 10149.285314
_symmetry_space_group_name_H-M "I 4/M M M"
_symmetry_group_IT_number 139
_symmetry_cell_setting 'tetragonal'
loop_
_space_group_symop_operation_xyz
x,y,z
-y,x,z
-x,-y,z
y,-x,z
x,-y,-z
-x,y,-z
y,x,-z
-y,-x,-z
-x,-y,-z
y,-x,-z
x,y,-z
-y,x,-z
-x,y,z
x,-y,z
-y,-x,z
y,x,z
1/2+x,1/2+y,1/2+z
1/2-y,1/2+x,1/2+z
1/2-x,1/2-y,1/2+z
1/2+y,1/2-x,1/2+z
1/2+x,1/2-y,1/2-z
1/2-x,1/2+y,1/2-z
1/2+y,1/2+x,1/2-z
1/2-y,1/2-x,1/2-z
1/2-x,1/2-y,1/2-z
1/2+y,1/2-x,1/2-z
1/2+x,1/2+y,1/2-z
1/2-y,1/2+x,1/2-z
1/2-x,1/2+y,1/2+z
1/2+x,1/2-y,1/2+z
1/2-y,1/2-x,1/2+z
1/2+y,1/2+x,1/2+z
loop_
_atom_site_type_symbol
_atom_site_label
_atom_site_fract_x
_atom_site_fract_y
_atom_site_fract_z
Si Si1 0.345318 0.159704 0.916628
Si Si2 0.566080 0.341344 0.000000
Si Si3 0.934955 0.631887 0.192889
Si Si4 0.563982 0.739519 0.725099
Si Si5 0.719437 0.626083 0.581873
Si Si6 0.717477 0.625511 0.132086
O O1 0.372205 0.104170 0.879203
O O2 0.277668 0.160329 0.910959
O O3 0.366564 0.216006 0.877506
O O4 0.366677 0.159215 0.000000
O O5 0.581231 0.305295 0.927721
O O6 0.500000 0.355286 0.000000
O O7 0.599333 0.400668 0.000000
O O8 0.916365 0.583636 0.250000
O O9 0.926725 0.693100 0.230178
O O10 0.000000 0.621906 0.169449
O O11 0.500000 0.723133 0.742475
O O12 0.577683 0.716484 0.643476
O O13 0.602075 0.708010 0.785729
O O14 0.714950 0.598689 0.500000
O O15 0.669183 0.669183 0.596193
O O16 0.685004 0.685004 0.123250
#
# Coordination Sequence:
#
# PCOD8319612 Si02
#       6
#    32  16  32  32  32  32
#     4  10  19  33  52  78 108 136 170 212 269 321
#     4  10  22  37  54  78 105 139 177 213 259 315
#     4  10  20  35  53  73  99 137 182 221 262 309
#     4  10  20  33  50  73 104 140 178 216 260 313
#     4   9  18  31  49  75 107 138 170 211 260 316
#     4  11  20  32  54  80 107 136 170 214 267 324
#
# _framework density 17.341123
#
# number of rings (size 3 to 8) (size 9 to 14) (size 15 to 20)
#    0.000    2.000    2.727    1.636    0.000    1.727 
#    0.000    6.364    0.000    0.000    0.000    1.273 
#    0.000    3.273    0.000    8.000    0.000    0.364 
#
# Total GULP energy -1091244.385151 kJ/mol
# GULP energy per Si atom -12400.504377 kJ/mol
# Density = 1.730165 g / cm^3
# Si number density = 17.341123 Si / 1000 Ang^3
#
#
#
# Elastic Constant Matrix: (Units=GPa)
#
#
# Indices 1 2 3 4 5 6 
#
# 1 80.4752 39.9963 42.1866 0.0000 0.0000 0.0000
# 2 39.9963 80.4752 42.1878 0.0000 0.0000 0.0000
# 3 42.1866 42.1878 124.3044 0.0000 0.0000 0.0000
# 4 0.0000 0.0000 0.0000 23.3823 0.0000 0.0000
# 5 0.0000 0.0000 0.0000 0.0000 23.3823 0.0000
# 6 0.0000 0.0000 0.0000 0.0000 0.0000 14.0943
#
#
#
# Elastic Compliance Matrix: (Units=1/GPa)
#
#
# Indices 1 2 3 4 5 6 
#
# 1 0.017797 -0.006908 -0.003695 0.000000 0.000000 0.000000
# 2 -0.006908 0.017797 -0.003696 0.000000 0.000000 0.000000
# 3 -0.003695 -0.003696 0.010553 0.000000 0.000000 0.000000
# 4 0.000000 0.000000 0.000000 0.042767 0.000000 0.000000
# 5 0.000000 0.000000 0.000000 0.000000 0.042767 0.000000
# 6 0.000000 0.000000 0.000000 0.000000 0.000000 0.070951
#
#
# Mechanical properties :
#
#
# Convention : Reuss Voigt Hill
#
# Bulk Modulus (GPa) = 56.98365 59.33292 58.15828
# Shear Modulus (GPa) = 21.08999 22.89737 21.99368
#
# Velocity S-wave (km/s) = 3.49117 3.63768 3.56518
# Velocity P-wave (km/s) = 7.01304 7.20646 7.11041
#
# Compressibility (1/GPa) = 0.01754889
#
# Stress axis : x y z
#
# Youngs Moduli (GPa) = 56.19077 56.19013 94.75784
#
# Poissons Ratio (x) = 0.38814 0.35017
# Poissons Ratio (y) = 0.38815 0.35020
# Poissons Ratio (z) = 0.20765 0.20766
#
# Static dielectric constant tensor:
#      x y z
#    x 3.048570 0.000000 0.000000 
#    y 0.000000 3.048560 0.000000 
#    z 0.000000 0.000000 3.399850 
# 
# 
# High freq. dielectric constant tensor:
#      x y z
#    x 1.653350 0.000000 0.000000 
#    y 0.000000 1.653350 0.000000 
#    z 0.000000 0.000000 1.683900 
# 
# From -- ./inp_files/6380.got.cif
#   From: 2010.03.12/outbox.cif.g09.slc.cpg/sg139_4_cif.got.tgz:6380.got - 2010.04.08 09:46:31.
