data_PCOD8319262
_publ_section_title
;
Structure prediction by ZEFSAII (Michael W. Deem and Ramdas Pophale) SiO2 
 PCOD8319262
Probable space group: I 4/M M M
;
_chemical_formula_sum "Si O2"
_cell_formula_units_Z 144
_cell_length_a 23.606906
_cell_length_b 23.606906
_cell_length_c 18.242024
_cell_angle_alpha 90.000000
_cell_angle_beta 90.000000
_cell_angle_gamma 90.000000
_cell_volume 10166.024786
_symmetry_space_group_name_H-M "I 4/M M M"
_symmetry_group_IT_number 139
_symmetry_cell_setting 'tetragonal'
loop_
_space_group_symop_operation_xyz
x,y,z
-y,x,z
-x,-y,z
y,-x,z
x,-y,-z
-x,y,-z
y,x,-z
-y,-x,-z
-x,-y,-z
y,-x,-z
x,y,-z
-y,x,-z
-x,y,z
x,-y,z
-y,-x,z
y,x,z
1/2+x,1/2+y,1/2+z
1/2-y,1/2+x,1/2+z
1/2-x,1/2-y,1/2+z
1/2+y,1/2-x,1/2+z
1/2+x,1/2-y,1/2-z
1/2-x,1/2+y,1/2-z
1/2+y,1/2+x,1/2-z
1/2-y,1/2-x,1/2-z
1/2-x,1/2-y,1/2-z
1/2+y,1/2-x,1/2-z
1/2+x,1/2+y,1/2-z
1/2-y,1/2+x,1/2-z
1/2-x,1/2+y,1/2+z
1/2+x,1/2-y,1/2+z
1/2-y,1/2-x,1/2+z
1/2+y,1/2+x,1/2+z
loop_
_atom_site_type_symbol
_atom_site_label
_atom_site_fract_x
_atom_site_fract_y
_atom_site_fract_z
Si Si1 0.621936 0.115165 0.583910
Si Si2 0.434420 0.848409 0.283618
Si Si3 0.434880 0.774393 0.147908
Si Si4 0.062586 0.500000 0.086566
Si Si5 0.156235 0.935417 0.584698
O O1 0.608499 0.130564 0.500000
O O2 0.593607 0.163318 0.635862
O O3 0.689032 0.107424 0.596522
O O4 0.595345 0.055837 0.612175
O O5 0.500000 0.864099 0.292550
O O6 0.402083 0.902083 0.250000
O O7 0.426532 0.792626 0.232890
O O8 0.500000 0.783830 0.122558
O O9 0.418373 0.709019 0.136412
O O10 0.000000 0.500000 0.121420
O O11 0.058722 0.500000 0.000000
O O12 0.173800 0.926632 0.500000
O O13 0.103622 0.896379 0.607153
O O14 0.137527 0.000000 0.598905
#
# Coordination Sequence:
#
# PCOD8319262 Si02
#       5
#    32  32  32  16  32
#     4  10  17  25  37  52  72 101 138 179 217 245
#     4   9  18  27  35  49  71 101 136 174 213 247
#     4   9  16  28  41  54  76 105 137 165 193 238
#     4   9  16  22  30  48  72  96 126 170 222 260
#     4   9  17  28  45  68  89 107 125 149 185 233
#
# _framework density 14.164828
#
# number of rings (size 3 to 8) (size 9 to 14) (size 15 to 20)
#    0.000    2.778    1.111    1.333    1.556    2.667 
#    0.000    1.111    0.000    6.000    0.000    0.000 
#    0.000    0.000    0.000    0.667    0.000    1.556 
#
# Total GULP energy -892380.561952 kJ/mol
# GULP energy per Si atom -12394.174472 kJ/mol
# Density = 1.413259 g / cm^3
# Si number density = 14.164828 Si / 1000 Ang^3
#
#
#
# Elastic Constant Matrix: (Units=GPa)
#
#
# Indices 1 2 3 4 5 6 
#
# 1 73.1949 45.5366 35.6156 0.0000 0.0000 0.0000
# 2 45.5366 73.1949 35.6156 0.0000 0.0000 0.0000
# 3 35.6156 35.6156 90.6743 0.0000 0.0000 0.0000
# 4 0.0000 0.0000 0.0000 15.9373 0.0000 0.0000
# 5 0.0000 0.0000 0.0000 0.0000 15.9373 0.0000
# 6 0.0000 0.0000 0.0000 0.0000 0.0000 14.5815
#
#
#
# Elastic Compliance Matrix: (Units=1/GPa)
#
#
# Indices 1 2 3 4 5 6 
#
# 1 0.023587 -0.012568 -0.004328 0.000000 0.000000 0.000000
# 2 -0.012568 0.023587 -0.004328 0.000000 0.000000 0.000000
# 3 -0.004328 -0.004328 0.014428 0.000000 0.000000 0.000000
# 4 0.000000 0.000000 0.000000 0.062746 0.000000 0.000000
# 5 0.000000 0.000000 0.000000 0.000000 0.062746 0.000000
# 6 0.000000 0.000000 0.000000 0.000000 0.000000 0.068580
#
#
# Mechanical properties :
#
#
# Convention : Reuss Voigt Hill
#
# Bulk Modulus (GPa) = 52.20830 52.28884 52.24857
# Shear Modulus (GPa) = 16.41992 17.31098 16.86545
#
# Velocity S-wave (km/s) = 3.40840 3.49966 3.45433
# Velocity P-wave (km/s) = 7.24067 7.30239 7.27160
#
# Compressibility (1/GPa) = 0.01915404
#
# Stress axis : x y z
#
# Youngs Moduli (GPa) = 42.39580 42.39580 69.30731
#
# Poissons Ratio (x) = 0.53284 0.29997
# Poissons Ratio (y) = 0.53284 0.29997
# Poissons Ratio (z) = 0.18349 0.18349
#
# Static dielectric constant tensor:
#      x y z
#    x 2.597150 0.000000 0.000000 
#    y 0.000000 2.597150 0.000000 
#    z 0.000000 0.000000 2.907110 
# 
# 
# High freq. dielectric constant tensor:
#      x y z
#    x 1.510790 0.000000 0.000000 
#    y 0.000000 1.510790 0.000000 
#    z 0.000000 0.000000 1.537530 
# 
# From -- ./inp_files/8597.got.cif
#   From: 2010.03.12/outbox.cif.g09.slc.cpg/sg139_5_cif.got.tgz:8597.got - 2010.04.08 09:46:31.
