data_PCOD8319749
_publ_section_title
;
Structure prediction by ZEFSAII (Michael W. Deem and Ramdas Pophale) SiO2 
 PCOD8319749
Probable space group: I 4/M M M
;
_chemical_formula_sum "Si O2"
_cell_formula_units_Z 128
_cell_length_a 19.655891
_cell_length_b 19.655891
_cell_length_c 18.104505
_cell_angle_alpha 90.000000
_cell_angle_beta 90.000000
_cell_angle_gamma 90.000000
_cell_volume 6994.748848
_symmetry_space_group_name_H-M "I 4/M M M"
_symmetry_group_IT_number 139
_symmetry_cell_setting 'tetragonal'
loop_
_space_group_symop_operation_xyz
x,y,z
-y,x,z
-x,-y,z
y,-x,z
x,-y,-z
-x,y,-z
y,x,-z
-y,-x,-z
-x,-y,-z
y,-x,-z
x,y,-z
-y,x,-z
-x,y,z
x,-y,z
-y,-x,z
y,x,z
1/2+x,1/2+y,1/2+z
1/2-y,1/2+x,1/2+z
1/2-x,1/2-y,1/2+z
1/2+y,1/2-x,1/2+z
1/2+x,1/2-y,1/2-z
1/2-x,1/2+y,1/2-z
1/2+y,1/2+x,1/2-z
1/2-y,1/2-x,1/2-z
1/2-x,1/2-y,1/2-z
1/2+y,1/2-x,1/2-z
1/2+x,1/2+y,1/2-z
1/2-y,1/2+x,1/2-z
1/2-x,1/2+y,1/2+z
1/2+x,1/2-y,1/2+z
1/2-y,1/2-x,1/2+z
1/2+y,1/2+x,1/2+z
loop_
_atom_site_type_symbol
_atom_site_label
_atom_site_fract_x
_atom_site_fract_y
_atom_site_fract_z
Si Si1 0.890865 0.000000 0.087080
Si Si2 0.248721 0.000000 0.333901
Si Si3 0.500000 0.113492 0.084048
Si Si4 0.240598 0.868325 0.414528
Si Si5 0.500000 0.244368 0.660606
Si Si6 0.351858 0.898154 0.916023
O O1 0.932817 0.067184 0.111548
O O2 0.817377 0.000000 0.123147
O O3 0.881082 0.000000 0.000000
O O4 0.213792 0.932298 0.366954
O O5 0.327051 0.000000 0.356751
O O6 0.242311 0.000000 0.246756
O O7 0.429322 0.071974 0.094990
O O8 0.500000 0.144120 0.000000
O O9 0.231352 0.887043 0.500000
O O10 0.197040 0.802961 0.391522
O O11 0.318669 0.850991 0.396824
O O12 0.566124 0.201032 0.638155
O O13 0.328101 0.911860 0.000000
#
# Coordination Sequence:
#
# PCOD8319749 Si02
#       6
#    16  16  16  32  16  32
#     4   9  20  40  59  69  86 126 173 211 255 312
#     4  10  20  33  50  76 113 143 163 197 261 327
#     4   8  16  33  53  69  97 144 184 207 237 292
#     4   9  18  35  59  80  99 133 180 221 255 299
#     4  12  23  31  49  81 111 134 162 210 264 308
#     4   9  18  33  51  74 103 136 176 215 249 291
#
# _framework density 18.299441000000002
#
# number of rings (size 3 to 8) (size 9 to 14) (size 15 to 20)
#    0.000    2.625    0.000    4.125    0.000    6.500 
#    0.000    5.625    0.000    6.375    0.000    1.750 
#    0.000    0.000    0.000    0.000    0.000    0.000 
#
# Total GULP energy -793198.757497 kJ/mol
# GULP energy per Si atom -12393.730586 kJ/mol
# Density = 1.825779 g / cm^3
# Si number density = 18.299441 Si / 1000 Ang^3
#
#
#
# Elastic Constant Matrix: (Units=GPa)
#
#
# Indices 1 2 3 4 5 6 
#
# 1 127.5479 66.1435 50.2412 0.0000 0.0000 0.0000
# 2 66.1435 127.5479 50.2412 0.0000 0.0000 0.0000
# 3 50.2412 50.2412 72.9640 0.0000 0.0000 0.0000
# 4 0.0000 0.0000 0.0000 48.5591 0.0000 0.0000
# 5 0.0000 0.0000 0.0000 0.0000 48.5591 0.0000
# 6 0.0000 0.0000 0.0000 0.0000 0.0000 -0.3756
#
#
#
# Elastic Compliance Matrix: (Units=1/GPa)
#
#
# Indices 1 2 3 4 5 6 
#
# 1 0.012159 -0.004127 -0.005531 0.000000 0.000000 0.000000
# 2 -0.004127 0.012159 -0.005531 0.000000 0.000000 0.000000
# 3 -0.005531 -0.005531 0.021322 0.000000 0.000000 0.000000
# 4 0.000000 0.000000 0.000000 0.020593 0.000000 0.000000
# 5 0.000000 0.000000 0.000000 0.000000 0.020593 0.000000
# 6 0.000000 0.000000 0.000000 0.000000 0.000000 -2.662082
#
#
# Mechanical properties :
#
#
# Convention : Reuss Voigt Hill
#
# Bulk Modulus (GPa) = 65.51634 73.47905 69.49769
# Shear Modulus (GPa) = -1.96867 30.11078 14.07106
#
# Velocity S-wave (km/s) = -1.03834 4.06081 2.77597
# Velocity P-wave (km/s) = 5.86878 7.88846 6.95235
#
# Compressibility (1/GPa) = 0.01526337
#
# Stress axis : x y z
#
# Youngs Moduli (GPa) = 82.24527 82.24527 46.90011
#
# Poissons Ratio (x) = 0.33940 0.25939
# Poissons Ratio (y) = 0.33940 0.25939
# Poissons Ratio (z) = 0.45487 0.45487
#
# Static dielectric constant tensor:
#      x y z
#    x 3.446210 0.000000 0.000000 
#    y 0.000000 3.446210 0.000000 
#    z 0.000000 0.000000 3.167650 
# 
# 
# High freq. dielectric constant tensor:
#      x y z
#    x 1.705000 0.000000 0.000000 
#    y 0.000000 1.705000 0.000000 
#    z 0.000000 0.000000 1.691930 
# 
# From -- ./inp_files/5521.got.cif
#   From: 2010.03.12/outbox.cif.g09.slc.cpg/sg139_3_cif.got.tgz:5521.got - 2010.04.08 09:46:31.
