data_PCOD8319902
_publ_section_title
;
Structure prediction by ZEFSAII (Michael W. Deem and Ramdas Pophale) SiO2 
 PCOD8319902
Probable space group: I 4/M M M
;
_chemical_formula_sum "Si O2"
_cell_formula_units_Z 192
_cell_length_a 16.877720
_cell_length_b 16.877720
_cell_length_c 37.292923
_cell_angle_alpha 90.000000
_cell_angle_beta 90.000000
_cell_angle_gamma 90.000000
_cell_volume 10623.166292
_symmetry_space_group_name_H-M "I 4/M M M"
_symmetry_group_IT_number 139
_symmetry_cell_setting 'tetragonal'
loop_
_space_group_symop_operation_xyz
x,y,z
-y,x,z
-x,-y,z
y,-x,z
x,-y,-z
-x,y,-z
y,x,-z
-y,-x,-z
-x,-y,-z
y,-x,-z
x,y,-z
-y,x,-z
-x,y,z
x,-y,z
-y,-x,z
y,x,z
1/2+x,1/2+y,1/2+z
1/2-y,1/2+x,1/2+z
1/2-x,1/2-y,1/2+z
1/2+y,1/2-x,1/2+z
1/2+x,1/2-y,1/2-z
1/2-x,1/2+y,1/2-z
1/2+y,1/2+x,1/2-z
1/2-y,1/2-x,1/2-z
1/2-x,1/2-y,1/2-z
1/2+y,1/2-x,1/2-z
1/2+x,1/2+y,1/2-z
1/2-y,1/2+x,1/2-z
1/2-x,1/2+y,1/2+z
1/2+x,1/2-y,1/2+z
1/2-y,1/2-x,1/2+z
1/2+y,1/2+x,1/2+z
loop_
_atom_site_type_symbol
_atom_site_label
_atom_site_fract_x
_atom_site_fract_y
_atom_site_fract_z
Si Si1 0.408820 0.147363 0.958478
Si Si2 0.000000 0.126086 0.042630
Si Si3 0.289374 0.089193 0.262183
Si Si4 0.290688 0.836086 0.664368
Si Si5 0.223023 0.909384 0.401708
Si Si6 0.305406 0.000000 0.957340
Si Si7 0.782829 0.089928 0.812297
O O1 0.500000 0.121257 0.952412
O O2 0.388942 0.227845 0.937427
O O3 0.351927 0.077750 0.943789
O O4 0.391894 0.165160 0.000000
O O5 0.921343 0.078658 0.055676
O O6 0.000000 0.215532 0.058341
O O7 0.000000 0.129838 0.000000
O O8 0.369764 0.130237 0.250000
O O9 0.256835 0.127185 0.298789
O O10 0.223782 0.096286 0.230951
O O11 0.312896 0.000000 0.270443
O O12 0.237180 0.762821 0.653207
O O13 0.283346 0.898578 0.632001
O O14 0.378776 0.799387 0.669765
O O15 0.145593 0.854408 0.399376
O O16 0.193437 0.000000 0.402142
O O17 0.304599 0.000000 0.000000
O O18 0.858650 0.141351 0.824329
O O19 0.795781 0.000000 0.825026
#
# Coordination Sequence:
#
# PCOD8319902 Si02
#       7
#    32  16  32  32  32  16  32
#     4   9  18  33  52  75 103 131 162 205 253 297
#     4   8  14  24  38  62  97 127 150 184 230 278
#     4   9  16  26  43  66  93 126 161 199 244 294
#     4   9  17  31  49  68  93 126 166 207 245 292
#     4  10  21  36  54  76 102 133 168 207 252 301
#     4   9  16  28  50  75  97 127 165 200 240 296
#     4   9  17  29  46  70  98 128 164 204 248 298
#
# _framework density 18.073706000000001
#
# number of rings (size 3 to 8) (size 9 to 14) (size 15 to 20)
#    0.000    2.917    0.000    1.500    0.000    4.500 
#    1.500    1.667    0.000    1.000    0.000    4.667 
#    0.000    0.000    0.000    0.000    0.000    0.000 
#
# Total GULP energy -1189857.703038 kJ/mol
# GULP energy per Si atom -12394.351073 kJ/mol
# Density = 1.803257 g / cm^3
# Si number density = 18.073706 Si / 1000 Ang^3
#
#
#
# Elastic Constant Matrix: (Units=GPa)
#
#
# Indices 1 2 3 4 5 6 
#
# 1 112.6356 57.9723 32.3078 0.0000 0.0000 0.0000
# 2 57.9723 112.6352 32.3082 0.0000 0.0000 0.0000
# 3 32.3078 32.3082 63.7677 0.0000 0.0000 0.0000
# 4 0.0000 0.0000 0.0000 19.8030 0.0000 0.0000
# 5 0.0000 0.0000 0.0000 0.0000 19.8030 0.0000
# 6 0.0000 0.0000 0.0000 0.0000 0.0000 22.5892
#
#
#
# Elastic Compliance Matrix: (Units=1/GPa)
#
#
# Indices 1 2 3 4 5 6 
#
# 1 0.012773 -0.005520 -0.003675 0.000000 0.000000 0.000000
# 2 -0.005520 0.012774 -0.003675 0.000000 0.000000 0.000000
# 3 -0.003675 -0.003675 0.019406 0.000000 0.000000 0.000000
# 4 0.000000 0.000000 0.000000 0.050498 0.000000 0.000000
# 5 0.000000 0.000000 0.000000 0.000000 0.050497 0.000000
# 6 0.000000 0.000000 0.000000 0.000000 0.000000 0.044269
#
#
# Mechanical properties :
#
#
# Convention : Reuss Voigt Hill
#
# Bulk Modulus (GPa) = 52.04897 59.35724 55.70310
# Shear Modulus (GPa) = 22.48597 23.53571 23.01084
#
# Velocity S-wave (km/s) = 3.53104 3.61253 3.57202
# Velocity P-wave (km/s) = 6.74426 7.09320 6.92093
#
# Compressibility (1/GPa) = 0.01921268
#
# Stress axis : x y z
#
# Youngs Moduli (GPa) = 78.28710 78.28655 51.53135
#
# Poissons Ratio (x) = 0.43217 0.18937
# Poissons Ratio (y) = 0.43217 0.18937
# Poissons Ratio (z) = 0.28769 0.28770
#
# Static dielectric constant tensor:
#      x y z
#    x 3.323860 0.000000 0.000000 
#    y 0.000000 3.323870 0.000000 
#    z 0.000000 0.000000 3.262720 
# 
# 
# High freq. dielectric constant tensor:
#      x y z
#    x 1.692720 0.000000 0.000000 
#    y 0.000000 1.692720 0.000000 
#    z 0.000000 0.000000 1.682150 
# 
# From -- ./inp_files/14354.got.cif
#   From: 2010.03.12/outbox.cif.g09.slc.cpg/sg139_8_cif.got.tgz:14354.got - 2010.04.08 09:46:31.
