data_PCOD8319799
_publ_section_title
;
Structure prediction by ZEFSAII (Michael W. Deem and Ramdas Pophale) SiO2 
 PCOD8319799
Probable space group: I 4/M M M
;
_chemical_formula_sum "Si O2"
_cell_formula_units_Z 192
_cell_length_a 19.726650
_cell_length_b 19.726650
_cell_length_c 26.886495
_cell_angle_alpha 90.000000
_cell_angle_beta 90.000000
_cell_angle_gamma 90.000000
_cell_volume 10462.630029
_symmetry_space_group_name_H-M "I 4/M M M"
_symmetry_group_IT_number 139
_symmetry_cell_setting 'tetragonal'
loop_
_space_group_symop_operation_xyz
x,y,z
-y,x,z
-x,-y,z
y,-x,z
x,-y,-z
-x,y,-z
y,x,-z
-y,-x,-z
-x,-y,-z
y,-x,-z
x,y,-z
-y,x,-z
-x,y,z
x,-y,z
-y,-x,z
y,x,z
1/2+x,1/2+y,1/2+z
1/2-y,1/2+x,1/2+z
1/2-x,1/2-y,1/2+z
1/2+y,1/2-x,1/2+z
1/2+x,1/2-y,1/2-z
1/2-x,1/2+y,1/2-z
1/2+y,1/2+x,1/2-z
1/2-y,1/2-x,1/2-z
1/2-x,1/2-y,1/2-z
1/2+y,1/2-x,1/2-z
1/2+x,1/2+y,1/2-z
1/2-y,1/2+x,1/2-z
1/2-x,1/2+y,1/2+z
1/2+x,1/2-y,1/2+z
1/2-y,1/2-x,1/2+z
1/2+y,1/2+x,1/2+z
loop_
_atom_site_type_symbol
_atom_site_label
_atom_site_fract_x
_atom_site_fract_y
_atom_site_fract_z
Si Si1 0.820121 0.075939 0.775030
Si Si2 0.921396 0.808980 0.886340
Si Si3 0.420836 0.827298 0.442145
Si Si4 0.576003 0.683338 0.057922
Si Si5 0.579677 0.821210 0.115137
Si Si6 0.269603 0.161838 0.294003
O O1 0.896040 0.103960 0.780642
O O2 0.784445 0.086406 0.828884
O O3 0.784034 0.111175 0.729323
O O4 0.825255 0.000000 0.758222
O O5 0.872847 0.872847 0.899148
O O6 0.898666 0.745243 0.919657
O O7 0.000000 0.829884 0.896806
O O8 0.401756 0.826843 0.500000
O O9 0.500000 0.839453 0.433244
O O10 0.383358 0.890026 0.415986
O O11 0.500000 0.657760 0.068621
O O12 0.626483 0.626483 0.079395
O O13 0.591091 0.753371 0.084342
O O14 0.588179 0.695364 0.000000
O O15 0.500000 0.834681 0.126145
O O16 0.623443 0.813581 0.164974
O O17 0.229557 0.229557 0.313767
O O18 0.320518 0.179482 0.250000
#
# Coordination Sequence:
#
# PCOD8319799 Si02
#       6
#    32  32  32  32  32  32
#     4   9  17  30  49  73 103 138 172 207 247 292
#     4   9  18  33  54  81 112 144 178 216 260 315
#     4  10  22  39  57  77 102 134 173 217 267 324
#     4   9  18  32  50  75 107 140 174 211 251 298
#     4  11  22  36  56  79 103 133 172 221 271 313
#     4  10  20  34  53  77 105 136 171 210 255 311
#
# _framework density 18.351026000000001
#
# number of rings (size 3 to 8) (size 9 to 14) (size 15 to 20)
#    0.000    2.333    0.000    2.500    0.000    4.833 
#    0.000    4.167    0.000    0.000    0.000    4.667 
#    0.000    0.000    0.000    0.000    0.000    0.000 
#
# Total GULP energy -1190118.417613 kJ/mol
# GULP energy per Si atom -12397.066850 kJ/mol
# Density = 1.830926 g / cm^3
# Si number density = 18.351026 Si / 1000 Ang^3
#
#
#
# Elastic Constant Matrix: (Units=GPa)
#
#
# Indices 1 2 3 4 5 6 
#
# 1 67.9227 32.0697 25.7535 0.0000 0.0000 0.0000
# 2 32.0697 67.9222 25.7531 0.0000 0.0000 0.0000
# 3 25.7535 25.7531 65.8305 0.0000 0.0000 0.0000
# 4 0.0000 0.0000 0.0000 25.5004 0.0000 0.0000
# 5 0.0000 0.0000 0.0000 0.0000 25.5005 0.0000
# 6 0.0000 0.0000 0.0000 0.0000 0.0000 31.3690
#
#
#
# Elastic Compliance Matrix: (Units=1/GPa)
#
#
# Indices 1 2 3 4 5 6 
#
# 1 0.020208 -0.007684 -0.004900 0.000000 0.000000 0.000000
# 2 -0.007684 0.020208 -0.004900 0.000000 0.000000 0.000000
# 3 -0.004900 -0.004900 0.019024 0.000000 0.000000 0.000000
# 4 0.000000 0.000000 0.000000 0.039215 0.000000 0.000000
# 5 0.000000 0.000000 0.000000 0.000000 0.039215 0.000000
# 6 0.000000 0.000000 0.000000 0.000000 0.000000 0.031879
#
#
# Mechanical properties :
#
#
# Convention : Reuss Voigt Hill
#
# Bulk Modulus (GPa) = 40.85877 40.98090 40.91984
# Shear Modulus (GPa) = 23.48812 24.34725 23.91769
#
# Velocity S-wave (km/s) = 3.58150 3.64641 3.61410
# Velocity P-wave (km/s) = 6.27824 6.33313 6.30575
#
# Compressibility (1/GPa) = 0.02447455
#
# Stress axis : x y z
#
# Youngs Moduli (GPa) = 49.48482 49.48463 52.56478
#
# Poissons Ratio (x) = 0.38022 0.25756
# Poissons Ratio (y) = 0.38022 0.25755
# Poissons Ratio (z) = 0.24247 0.24246
#
# Static dielectric constant tensor:
#      x y z
#    x 3.453790 0.000000 0.000000 
#    y 0.000000 3.453790 0.000000 
#    z 0.000000 0.000000 3.436850 
# 
# 
# High freq. dielectric constant tensor:
#      x y z
#    x 1.710800 0.000000 0.000000 
#    y 0.000000 1.710800 0.000000 
#    z 0.000000 0.000000 1.712470 
# 
# From -- ./inp_files/11935.got.cif
#   From: 2010.03.12/outbox.cif.g09.slc.cpg/sg139_6_cif.got.tgz:11935.got - 2010.04.08 09:46:31.
