data_PCOD8319406
_publ_section_title
;
Structure prediction by ZEFSAII (Michael W. Deem and Ramdas Pophale) SiO2 
 PCOD8319406
Probable space group: I 4/M M M
;
_chemical_formula_sum "Si O2"
_cell_formula_units_Z 144
_cell_length_a 19.391841
_cell_length_b 19.391841
_cell_length_c 22.431245
_cell_angle_alpha 90.000000
_cell_angle_beta 90.000000
_cell_angle_gamma 90.000000
_cell_volume 8435.123820
_symmetry_space_group_name_H-M "I 4/M M M"
_symmetry_group_IT_number 139
_symmetry_cell_setting 'tetragonal'
loop_
_space_group_symop_operation_xyz
x,y,z
-y,x,z
-x,-y,z
y,-x,z
x,-y,-z
-x,y,-z
y,x,-z
-y,-x,-z
-x,-y,-z
y,-x,-z
x,y,-z
-y,x,-z
-x,y,z
x,-y,z
-y,-x,z
y,x,z
1/2+x,1/2+y,1/2+z
1/2-y,1/2+x,1/2+z
1/2-x,1/2-y,1/2+z
1/2+y,1/2-x,1/2+z
1/2+x,1/2-y,1/2-z
1/2-x,1/2+y,1/2-z
1/2+y,1/2+x,1/2-z
1/2-y,1/2-x,1/2-z
1/2-x,1/2-y,1/2-z
1/2+y,1/2-x,1/2-z
1/2+x,1/2+y,1/2-z
1/2-y,1/2+x,1/2-z
1/2-x,1/2+y,1/2+z
1/2+x,1/2-y,1/2+z
1/2-y,1/2-x,1/2+z
1/2+y,1/2+x,1/2+z
loop_
_atom_site_type_symbol
_atom_site_label
_atom_site_fract_x
_atom_site_fract_y
_atom_site_fract_z
Si Si1 0.080927 0.309314 0.231989
Si Si2 0.238250 0.352834 0.388351
Si Si3 0.919913 0.808254 0.000000
Si Si4 0.364657 0.749848 0.065237
Si Si5 0.422766 0.309416 0.822204
O O1 0.121761 0.378239 0.250000
O O2 0.099743 0.278212 0.167994
O O3 0.102352 0.251626 0.279727
O O4 0.000000 0.326758 0.234293
O O5 0.293846 0.293846 0.371184
O O6 0.265575 0.400625 0.441288
O O7 0.165485 0.321059 0.409367
O O8 0.880951 0.880951 0.000000
O O9 0.000000 0.825086 0.000000
O O10 0.300314 0.699687 0.058745
O O11 0.420728 0.717820 0.109830
O O12 0.398925 0.761211 0.000000
O O13 0.500000 0.332998 0.807070
O O14 0.374768 0.374768 0.811653
#
# Coordination Sequence:
#
# PCOD8319406 Si02
#       5
#    32  32  16  32  32
#     4  11  22  35  53  77 104 137 176 218 265 315
#     4  10  18  31  53  78 103 132 170 220 265 302
#     4  10  20  33  50  76 109 143 178 216 262 314
#     4   9  16  29  51  77 101 127 165 213 260 300
#     4  10  21  35  53  78 106 138 174 212 259 312
#
# _framework density 17.071473999999998
#
# number of rings (size 3 to 8) (size 9 to 14) (size 15 to 20)
#    0.000    2.000    3.333    1.333    0.000    1.889 
#    0.000    0.000    0.000    0.000    0.000    6.222 
#    0.000    7.111    0.000    0.000    0.000    0.000 
#
# Total GULP energy -892727.923393 kJ/mol
# GULP energy per Si atom -12398.998936 kJ/mol
# Density = 1.703262 g / cm^3
# Si number density = 17.071474 Si / 1000 Ang^3
#
#
#
# Elastic Constant Matrix: (Units=GPa)
#
#
# Indices 1 2 3 4 5 6 
#
# 1 83.9028 51.9915 39.0348 0.0000 0.0000 0.0000
# 2 51.9915 83.9028 39.0348 0.0000 0.0000 0.0000
# 3 39.0348 39.0348 121.7712 0.0000 0.0000 0.0000
# 4 0.0000 0.0000 0.0000 16.4009 0.0000 0.0000
# 5 0.0000 0.0000 0.0000 0.0000 16.4009 0.0000
# 6 0.0000 0.0000 0.0000 0.0000 0.0000 19.3272
#
#
#
# Elastic Compliance Matrix: (Units=1/GPa)
#
#
# Indices 1 2 3 4 5 6 
#
# 1 0.020178 -0.011159 -0.002891 0.000000 0.000000 0.000000
# 2 -0.011159 0.020178 -0.002891 0.000000 0.000000 0.000000
# 3 -0.002891 -0.002891 0.010066 0.000000 0.000000 0.000000
# 4 0.000000 0.000000 0.000000 0.060972 0.000000 0.000000
# 5 0.000000 0.000000 0.000000 0.000000 0.060972 0.000000
# 6 0.000000 0.000000 0.000000 0.000000 0.000000 0.051741
#
#
# Mechanical properties :
#
#
# Convention : Reuss Voigt Hill
#
# Bulk Modulus (GPa) = 60.46006 61.07766 60.76886
# Shear Modulus (GPa) = 18.97509 21.06018 20.01763
#
# Velocity S-wave (km/s) = 3.33755 3.51614 3.42801
# Velocity P-wave (km/s) = 7.09542 7.23461 7.16536
#
# Compressibility (1/GPa) = 0.01653984
#
# Stress axis : x y z
#
# Youngs Moduli (GPa) = 49.55820 49.55820 99.34625
#
# Poissons Ratio (x) = 0.55300 0.28724
# Poissons Ratio (y) = 0.55300 0.28724
# Poissons Ratio (z) = 0.14329 0.14329
#
# Static dielectric constant tensor:
#      x y z
#    x 2.991770 0.000000 0.000000 
#    y 0.000000 2.991770 0.000000 
#    z 0.000000 0.000000 3.474390 
# 
# 
# High freq. dielectric constant tensor:
#      x y z
#    x 1.643640 0.000000 0.000000 
#    y 0.000000 1.643640 0.000000 
#    z 0.000000 0.000000 1.678850 
# 
# From -- ./inp_files/8158.got.cif
#   From: 2010.03.12/outbox.cif.g09.slc.cpg/sg139_5_cif.got.tgz:8158.got - 2010.04.08 09:46:31.
