data_PCOD8319996
_publ_section_title
;
Structure prediction by ZEFSAII (Michael W. Deem and Ramdas Pophale) SiO2 
 PCOD8319996
Probable space group: I 4/M M M
;
_chemical_formula_sum "Si O2"
_cell_formula_units_Z 144
_cell_length_a 17.683413
_cell_length_b 17.683413
_cell_length_c 23.100504
_cell_angle_alpha 90.000000
_cell_angle_beta 90.000000
_cell_angle_gamma 90.000000
_cell_volume 7223.599104
_symmetry_space_group_name_H-M "I 4/M M M"
_symmetry_group_IT_number 139
_symmetry_cell_setting 'tetragonal'
loop_
_space_group_symop_operation_xyz
x,y,z
-y,x,z
-x,-y,z
y,-x,z
x,-y,-z
-x,y,-z
y,x,-z
-y,-x,-z
-x,-y,-z
y,-x,-z
x,y,-z
-y,x,-z
-x,y,z
x,-y,z
-y,-x,z
y,x,z
1/2+x,1/2+y,1/2+z
1/2-y,1/2+x,1/2+z
1/2-x,1/2-y,1/2+z
1/2+y,1/2-x,1/2+z
1/2+x,1/2-y,1/2-z
1/2-x,1/2+y,1/2-z
1/2+y,1/2+x,1/2-z
1/2-y,1/2-x,1/2-z
1/2-x,1/2-y,1/2-z
1/2+y,1/2-x,1/2-z
1/2+x,1/2+y,1/2-z
1/2-y,1/2+x,1/2-z
1/2-x,1/2+y,1/2+z
1/2+x,1/2-y,1/2+z
1/2-y,1/2-x,1/2+z
1/2+y,1/2+x,1/2+z
loop_
_atom_site_type_symbol
_atom_site_label
_atom_site_fract_x
_atom_site_fract_y
_atom_site_fract_z
Si Si1 0.608695 0.000000 0.719862
Si Si2 0.500000 0.267027 0.737376
Si Si3 0.086188 0.500000 0.087677
Si Si4 0.349504 0.841439 0.564955
Si Si5 0.500000 0.377537 0.563915
Si Si6 0.663140 0.336861 0.258762
Si Si7 0.257512 0.742489 0.151893
Si Si8 0.000000 0.274008 0.886525
O O1 0.576162 0.923839 0.750000
O O2 0.700388 0.000000 0.714605
O O3 0.576387 0.000000 0.655885
O O4 0.426613 0.320673 0.741010
O O5 0.500000 0.210002 0.681702
O O6 0.136161 0.569632 0.066044
O O7 0.000000 0.500000 0.061989
O O8 0.324507 0.817211 0.500000
O O9 0.287078 0.816412 0.611486
O O10 0.427871 0.802866 0.580268
O O11 0.574268 0.425733 0.572501
O O12 0.500000 0.340380 0.500000
O O13 0.500000 0.316504 0.613649
O O14 0.696711 0.303290 0.199866
O O15 0.700173 0.299828 0.316007
#
# Coordination Sequence:
#
# PCOD8319996 Si02
#       8
#    16  16  16  32  16  16  16  16
#     4  11  22  37  63  96 130 176 220 268 323 397
#     4  12  25  42  64  94 128 175 214 275 328 391
#     4  12  23  40  62  95 128 170 219 264 325 384
#     4  12  25  42  63  92 133 174 217 267 327 395
#     4   9  20  36  52  73 107 160 220 264 299 351
#     4  11  26  45  68  92 131 163 221 272 333 389
#     4  11  25  44  66  96 122 169 216 278 325 388
#     4  12  23  36  55  89 127 171 214 255 318 381
#
# _framework density 19.934660999999998
#
# number of rings (size 3 to 8) (size 9 to 14) (size 15 to 20)
#    0.000    0.667    4.444    4.667    6.222    0.667 
#    0.000    0.000    0.000    0.000    0.000    0.000 
#    0.000    0.000    0.000    8.667    0.000    0.000 
#
# Total GULP energy -892691.807341 kJ/mol
# GULP energy per Si atom -12398.497324 kJ/mol
# Density = 1.988929 g / cm^3
# Si number density = 19.934661 Si / 1000 Ang^3
#
#
#
# Elastic Constant Matrix: (Units=GPa)
#
#
# Indices 1 2 3 4 5 6 
#
# 1 130.9098 56.7346 31.7227 0.0000 0.0000 0.0000
# 2 56.7346 130.9105 31.7228 0.0000 0.0000 0.0000
# 3 31.7227 31.7228 113.6267 0.0000 0.0000 0.0000
# 4 0.0000 0.0000 0.0000 21.1459 0.0000 0.0000
# 5 0.0000 0.0000 0.0000 0.0000 21.1460 0.0000
# 6 0.0000 0.0000 0.0000 0.0000 0.0000 36.0944
#
#
#
# Elastic Compliance Matrix: (Units=1/GPa)
#
#
# Indices 1 2 3 4 5 6 
#
# 1 0.009683 -0.003798 -0.001643 0.000000 0.000000 0.000000
# 2 -0.003798 0.009683 -0.001643 0.000000 0.000000 0.000000
# 3 -0.001643 -0.001643 0.009718 0.000000 0.000000 0.000000
# 4 0.000000 0.000000 0.000000 0.047290 0.000000 0.000000
# 5 0.000000 0.000000 0.000000 0.000000 0.047290 0.000000
# 6 0.000000 0.000000 0.000000 0.000000 0.000000 0.027705
#
#
# Mechanical properties :
#
#
# Convention : Reuss Voigt Hill
#
# Bulk Modulus (GPa) = 67.04274 68.42302 67.73288
# Shear Modulus (GPa) = 29.32371 32.69507 31.00939
#
# Velocity S-wave (km/s) = 3.83951 4.05422 3.94833
# Velocity P-wave (km/s) = 7.30480 7.50425 7.40520
#
# Compressibility (1/GPa) = 0.01491586
#
# Stress axis : x y z
#
# Youngs Moduli (GPa) = 103.27218 103.27273 102.90079
#
# Poissons Ratio (x) = 0.39227 0.16906
# Poissons Ratio (y) = 0.39227 0.16906
# Poissons Ratio (z) = 0.16967 0.16967
#
# Static dielectric constant tensor:
#      x y z
#    x 3.651180 0.000000 0.000000 
#    y 0.000000 3.651170 0.000000 
#    z 0.000000 0.000000 3.948210 
# 
# 
# High freq. dielectric constant tensor:
#      x y z
#    x 1.773650 0.000000 0.000000 
#    y 0.000000 1.773650 0.000000 
#    z 0.000000 0.000000 1.789040 
# 
# From -- ./inp_files/11605.got.cif
#   From: 2010.03.12/outbox.cif.g09.slc.cpg/sg139_6_cif.got.tgz:11605.got - 2010.04.08 09:46:31.
