data_PCOD8319517
_publ_section_title
;
Structure prediction by ZEFSAII (Michael W. Deem and Ramdas Pophale) SiO2 
 PCOD8319517
Probable space group: I 4/M M M
;
_chemical_formula_sum "Si O2"
_cell_formula_units_Z 240
_cell_length_a 20.706114
_cell_length_b 20.706114
_cell_length_c 30.691349
_cell_angle_alpha 90.000000
_cell_angle_beta 90.000000
_cell_angle_gamma 90.000000
_cell_volume 13158.705862
_symmetry_space_group_name_H-M "I 4/M M M"
_symmetry_group_IT_number 139
_symmetry_cell_setting 'tetragonal'
loop_
_space_group_symop_operation_xyz
x,y,z
-y,x,z
-x,-y,z
y,-x,z
x,-y,-z
-x,y,-z
y,x,-z
-y,-x,-z
-x,-y,-z
y,-x,-z
x,y,-z
-y,x,-z
-x,y,z
x,-y,z
-y,-x,z
y,x,z
1/2+x,1/2+y,1/2+z
1/2-y,1/2+x,1/2+z
1/2-x,1/2-y,1/2+z
1/2+y,1/2-x,1/2+z
1/2+x,1/2-y,1/2-z
1/2-x,1/2+y,1/2-z
1/2+y,1/2+x,1/2-z
1/2-y,1/2-x,1/2-z
1/2-x,1/2-y,1/2-z
1/2+y,1/2-x,1/2-z
1/2+x,1/2+y,1/2-z
1/2-y,1/2+x,1/2-z
1/2-x,1/2+y,1/2+z
1/2+x,1/2-y,1/2+z
1/2-y,1/2-x,1/2+z
1/2+y,1/2+x,1/2+z
loop_
_atom_site_type_symbol
_atom_site_label
_atom_site_fract_x
_atom_site_fract_y
_atom_site_fract_z
Si Si1 0.372128 0.272281 0.243399
Si Si2 0.071485 0.734092 0.099505
Si Si3 0.072475 0.172851 0.173293
Si Si4 0.196467 0.698109 0.051304
Si Si5 0.427616 0.111292 0.657461
Si Si6 0.927579 0.824206 0.338685
Si Si7 0.427822 0.803478 0.108198
Si Si8 0.126822 0.626822 0.250000
O O1 0.299045 0.299045 0.235496
O O2 0.389823 0.280109 0.293876
O O3 0.420058 0.314272 0.213133
O O4 0.379420 0.198235 0.230185
O O5 0.078705 0.802227 0.123806
O O6 0.126956 0.728403 0.063402
O O7 0.078802 0.682884 0.138471
O O8 0.000000 0.727959 0.077521
O O9 0.101405 0.101405 0.174756
O O10 0.000000 0.168670 0.189603
O O11 0.254525 0.745476 0.067858
O O12 0.199973 0.626186 0.070786
O O13 0.200493 0.690864 0.000000
O O14 0.500000 0.083561 0.647504
O O15 0.371537 0.070003 0.634265
O O16 0.420762 0.112087 0.709927
O O17 0.878745 0.878745 0.356797
O O18 0.911129 0.755496 0.360115
O O19 0.000000 0.847297 0.349379
O O20 0.500000 0.795076 0.087975
#
# Coordination Sequence:
#
# PCOD8319517 Si02
#       8
#    32  32  32  32  32  32  32  16
#     4  10  20  31  46  73 104 138 183 227 264 304
#     4   9  18  34  54  77 105 136 168 205 255 312
#     4  10  19  31  48  70 100 137 176 216 257 302
#     4  10  21  37  58  85 111 132 164 213 260 309
#     4  10  21  34  51  75 102 136 176 224 266 299
#     4  10  20  34  53  77 106 140 179 220 262 308
#     4  10  21  38  57  76 104 141 175 213 260 316
#     4  12  19  32  50  75 104 140 184 224 264 310
#
# _framework density 18.238876000000001
#
# number of rings (size 3 to 8) (size 9 to 14) (size 15 to 20)
#    0.000    2.000    2.667    1.400    0.000    2.133 
#    0.000    0.000    0.000    2.400    0.000    3.733 
#    0.000    0.000    0.000   24.800    0.000    0.000 
#
# Total GULP energy -1487324.514608 kJ/mol
# GULP energy per Si atom -12394.370955 kJ/mol
# Density = 1.819736 g / cm^3
# Si number density = 18.238876 Si / 1000 Ang^3
#
#
#
# Elastic Constant Matrix: (Units=GPa)
#
#
# Indices 1 2 3 4 5 6 
#
# 1 123.8959 34.0604 31.2181 0.0000 0.0000 0.0000
# 2 34.0604 123.8959 31.2181 0.0000 0.0000 0.0000
# 3 31.2181 31.2181 64.8571 0.0000 0.0000 0.0000
# 4 0.0000 0.0000 0.0000 21.4424 0.0000 0.0000
# 5 0.0000 0.0000 0.0000 0.0000 21.4424 0.0000
# 6 0.0000 0.0000 0.0000 0.0000 0.0000 21.2715
#
#
#
# Elastic Compliance Matrix: (Units=1/GPa)
#
#
# Indices 1 2 3 4 5 6 
#
# 1 0.009475 -0.001657 -0.003763 0.000000 0.000000 0.000000
# 2 -0.001657 0.009475 -0.003763 0.000000 0.000000 0.000000
# 3 -0.003763 -0.003763 0.019041 0.000000 0.000000 0.000000
# 4 0.000000 0.000000 0.000000 0.046637 0.000000 0.000000
# 5 0.000000 0.000000 0.000000 0.000000 0.046637 0.000000
# 6 0.000000 0.000000 0.000000 0.000000 0.000000 0.047011
#
#
# Mechanical properties :
#
#
# Convention : Reuss Voigt Hill
#
# Bulk Modulus (GPa) = 50.95545 56.18245 53.56895
# Shear Modulus (GPa) = 24.60830 27.24141 25.92486
#
# Velocity S-wave (km/s) = 3.67716 3.86889 3.77424
# Velocity P-wave (km/s) = 6.78433 7.12940 6.95900
#
# Compressibility (1/GPa) = 0.01962499
#
# Stress axis : x y z
#
# Youngs Moduli (GPa) = 105.54166 105.54166 52.51735
#
# Poissons Ratio (x) = 0.17483 0.19764
# Poissons Ratio (y) = 0.17483 0.19764
# Poissons Ratio (z) = 0.39718 0.39718
#
# Static dielectric constant tensor:
#      x y z
#    x 3.414230 0.000000 0.000000 
#    y 0.000000 3.414230 0.000000 
#    z 0.000000 0.000000 2.982940 
# 
# 
# High freq. dielectric constant tensor:
#      x y z
#    x 1.709020 0.000000 0.000000 
#    y 0.000000 1.709020 0.000000 
#    z 0.000000 0.000000 1.675190 
# 
# From -- ./inp_files/14612.got.cif
#   From: 2010.03.12/outbox.cif.g09.slc.cpg/sg139_8_cif.got.tgz:14612.got - 2010.04.08 09:46:31.
