data_PCOD8319989
_publ_section_title
;
Structure prediction by ZEFSAII (Michael W. Deem and Ramdas Pophale) SiO2 
 PCOD8319989
Probable space group: I 4/M M M
;
_chemical_formula_sum "Si O2"
_cell_formula_units_Z 240
_cell_length_a 29.600727
_cell_length_b 29.600727
_cell_length_c 14.597145
_cell_angle_alpha 90.000000
_cell_angle_beta 90.000000
_cell_angle_gamma 90.000000
_cell_volume 12790.062809
_symmetry_space_group_name_H-M "I 4/M M M"
_symmetry_group_IT_number 139
_symmetry_cell_setting 'tetragonal'
loop_
_space_group_symop_operation_xyz
x,y,z
-y,x,z
-x,-y,z
y,-x,z
x,-y,-z
-x,y,-z
y,x,-z
-y,-x,-z
-x,-y,-z
y,-x,-z
x,y,-z
-y,x,-z
-x,y,z
x,-y,z
-y,-x,z
y,x,z
1/2+x,1/2+y,1/2+z
1/2-y,1/2+x,1/2+z
1/2-x,1/2-y,1/2+z
1/2+y,1/2-x,1/2+z
1/2+x,1/2-y,1/2-z
1/2-x,1/2+y,1/2-z
1/2+y,1/2+x,1/2-z
1/2-y,1/2-x,1/2-z
1/2-x,1/2-y,1/2-z
1/2+y,1/2-x,1/2-z
1/2+x,1/2+y,1/2-z
1/2-y,1/2+x,1/2-z
1/2-x,1/2+y,1/2+z
1/2+x,1/2-y,1/2+z
1/2-y,1/2-x,1/2+z
1/2+y,1/2+x,1/2+z
loop_
_atom_site_type_symbol
_atom_site_label
_atom_site_fract_x
_atom_site_fract_y
_atom_site_fract_z
Si Si1 0.903780 0.697794 0.901458
Si Si2 0.924578 0.222095 0.603254
Si Si3 0.745120 0.674444 0.850679
Si Si4 0.877174 0.051169 0.608870
Si Si5 0.254257 0.182536 0.136639
Si Si6 0.053140 0.446861 0.250000
Si Si7 0.119062 0.404680 0.893563
Si Si8 0.549184 0.802465 0.786004
O O1 0.865430 0.736715 0.910427
O O2 0.881521 0.649020 0.885243
O O3 0.937105 0.707340 0.818418
O O4 0.929606 0.698040 0.000000
O O5 0.943249 0.223741 0.500000
O O6 0.874354 0.242494 0.604632
O O7 0.928428 0.170996 0.641293
O O8 0.955171 0.254051 0.665539
O O9 0.697127 0.697127 0.871327
O O10 0.784751 0.704768 0.893892
O O11 0.754531 0.672049 0.743516
O O12 0.879629 0.051452 0.500000
O O13 0.917106 0.082895 0.649258
O O14 0.883292 0.000000 0.646096
O O15 0.206726 0.206726 0.107891
O O16 0.063165 0.500000 0.257197
O O17 0.076275 0.426623 0.158574
O O18 0.165075 0.417774 0.842040
O O19 0.119023 0.420814 0.000000
O O20 0.500000 0.825597 0.784827
#
# Coordination Sequence:
#
# PCOD8319989 Si02
#       8
#    32  32  32  32  32  16  32  32
#     4  11  23  39  60  83 108 141 182 230 282 334
#     4  11  21  33  52  78 110 146 183 225 275 327
#     4   9  17  29  49  76 106 141 177 213 256 311
#     4   9  18  32  49  72 105 144 188 236 282 332
#     4   9  18  33  53  78 109 143 180 222 266 317
#     4  11  24  42  64  90 117 144 182 238 297 348
#     4  11  24  41  63  87 112 147 188 230 284 348
#     4  12  24  39  58  79 109 143 182 232 279 336
#
# _framework density 18.764567
#
# number of rings (size 3 to 8) (size 9 to 14) (size 15 to 20)
#    0.000    1.667    2.667    3.200    1.867    5.733 
#    0.000    4.000    0.000    0.000    0.000    0.000 
#    0.000    0.000    0.000    0.000    0.000    0.133 
#
# Total GULP energy -1487388.116919 kJ/mol
# GULP energy per Si atom -12394.900974 kJ/mol
# Density = 1.872186 g / cm^3
# Si number density = 18.764567 Si / 1000 Ang^3
#
#
#
# Elastic Constant Matrix: (Units=GPa)
#
#
# Indices 1 2 3 4 5 6 
#
# 1 87.0850 25.2364 31.9402 0.0000 0.0000 0.0000
# 2 25.2364 87.0853 31.9402 0.0000 0.0000 0.0000
# 3 31.9402 31.9402 105.9392 0.0000 0.0000 0.0000
# 4 0.0000 0.0000 0.0000 8.3717 0.0000 0.0000
# 5 0.0000 0.0000 0.0000 0.0000 8.3732 0.0000
# 6 0.0000 0.0000 0.0000 0.0000 0.0000 24.6017
#
#
#
# Elastic Compliance Matrix: (Units=1/GPa)
#
#
# Indices 1 2 3 4 5 6 
#
# 1 0.013457 -0.002711 -0.003240 0.000000 0.000000 0.000000
# 2 -0.002711 0.013457 -0.003240 0.000000 0.000000 0.000000
# 3 -0.003240 -0.003240 0.011393 0.000000 0.000000 0.000000
# 4 0.000000 0.000000 0.000000 0.119451 0.000000 0.000000
# 5 0.000000 0.000000 0.000000 0.000000 0.119429 0.000000
# 6 0.000000 0.000000 0.000000 0.000000 0.000000 0.040648
#
#
# Mechanical properties :
#
#
# Convention : Reuss Voigt Hill
#
# Bulk Modulus (GPa) = 50.18806 50.92700 50.55753
# Shear Modulus (GPa) = 14.58330 21.00216 17.79273
#
# Velocity S-wave (km/s) = 2.79081 3.34914 3.08264
# Velocity P-wave (km/s) = 6.09828 6.49266 6.29856
#
# Compressibility (1/GPa) = 0.01992506
#
# Stress axis : x y z
#
# Youngs Moduli (GPa) = 74.31061 74.31089 87.77390
#
# Poissons Ratio (x) = 0.20149 0.28436
# Poissons Ratio (y) = 0.20149 0.28436
# Poissons Ratio (z) = 0.24075 0.24075
#
# Static dielectric constant tensor:
#      x y z
#    x 3.498780 0.000000 0.000000 
#    y 0.000000 3.498740 0.000000 
#    z 0.000000 0.000000 3.422240 
# 
# 
# High freq. dielectric constant tensor:
#      x y z
#    x 1.723060 0.000000 0.000000 
#    y 0.000000 1.723060 0.000000 
#    z 0.000000 0.000000 1.711640 
# 
# From -- ./inp_files/6809.got.cif
#   From: 2010.03.12/outbox.cif.g09.slc.cpg/sg139_4_cif.got.tgz:6809.got - 2010.04.08 09:46:31.
