data_PCOD8319050
_publ_section_title
;
Structure prediction by ZEFSAII (Michael W. Deem and Ramdas Pophale) SiO2 
 PCOD8319050
Probable space group: P 42/N C M
;
_chemical_formula_sum "Si O2"
_cell_formula_units_Z 64
_cell_length_a 12.414490
_cell_length_b 12.414490
_cell_length_c 18.656994
_cell_angle_alpha 90.000000
_cell_angle_beta 90.000000
_cell_angle_gamma 90.000000
_cell_volume 2875.407743
_symmetry_space_group_name_H-M "P 42/N C M"
_symmetry_group_IT_number 138
_space_group.IT_coordinate_system_code '2'
_symmetry_cell_setting 'tetragonal'
loop_
_space_group_symop_operation_xyz
x,y,z
1/2-y,x,1/2+z
1/2-x,1/2-y,z
y,1/2-x,1/2+z
1/2+x,-y,1/2-z
-x,1/2+y,1/2-z
1/2+y,1/2+x,-z
-y,-x,-z
-x,-y,-z
1/2+y,-x,1/2-z
1/2+x,1/2+y,-z
-y,1/2+x,1/2-z
1/2-x,y,1/2+z
x,1/2-y,1/2+z
1/2-y,1/2-x,z
y,x,z
loop_
_atom_site_type_symbol
_atom_site_label
_atom_site_fract_x
_atom_site_fract_y
_atom_site_fract_z
Si Si1 0.423698 0.244387 0.363257
Si Si2 0.824258 0.996243 0.491818
Si Si3 0.250854 0.625946 0.634174
Si Si4 0.555111 0.377413 0.262724
O O1 0.375826 0.124175 0.354820
O O2 0.329185 0.329185 0.373249
O O3 0.494768 0.253506 0.435602
O O4 0.489508 0.272825 0.291408
O O5 0.917758 0.082243 0.500000
O O6 0.743872 0.039173 0.430029
O O7 0.879772 0.879772 0.474082
O O8 0.250000 0.750000 0.607172
O O9 0.148511 0.610152 0.686471
O O10 0.357434 0.595516 0.677651
O O11 0.479869 0.479869 0.253057
#
# Coordination Sequence:
#
# PCOD8319050 Si02
#       4
#    16  16  16  16
#     4   9  19  37  61  90 123 159 201 250 306 369
#     4  10  20  37  63  88 116 161 205 245 300 366
#     4  12  23  41  60  91 124 159 206 254 305 366
#     4  11  22  40  64  89 123 165 204 251 312 370
#
# _framework density 22.257714
#
# number of rings (size 3 to 8) (size 9 to 14) (size 15 to 20)
#    0.000    1.500    5.000    0.750    0.000    3.500 
#    0.000    0.000    0.000    1.500    0.000    0.000 
#    0.000    0.000    0.000    0.000    0.000    0.000 
#
# Total GULP energy -793519.000000 kJ/mol
# GULP energy per Si atom -12398.734375 kJ/mol
# Density = 2.220705 g / cm^3
# Si number density = 22.257714 Si / 1000 Ang^3
#
#
#
# Elastic Constant Matrix: (Units=GPa)
#
#
# Indices 1 2 3 4 5 6 
#
# 1 47.0749 4.9451 -1.2176 0.0000 0.0000 0.0000
# 2 4.9451 47.0764 -1.2167 0.0000 0.0000 0.0000
# 3 -1.2176 -1.2167 76.3530 0.0000 0.0000 0.0000
# 4 0.0000 0.0000 0.0000 32.2166 0.0000 0.0000
# 5 0.0000 0.0000 0.0000 0.0000 32.2166 0.0000
# 6 0.0000 0.0000 0.0000 0.0000 0.0000 37.3989
#
#
#
# Elastic Compliance Matrix: (Units=1/GPa)
#
#
# Indices 1 2 3 4 5 6 
#
# 1 0.021487 -0.002249 0.000307 0.000000 0.000000 0.000000
# 2 -0.002249 0.021486 0.000307 0.000000 0.000000 0.000000
# 3 0.000307 0.000307 0.013107 0.000000 0.000000 0.000000
# 4 0.000000 0.000000 0.000000 0.031040 0.000000 0.000000
# 5 0.000000 0.000000 0.000000 0.000000 0.031040 0.000000
# 6 0.000000 0.000000 0.000000 0.000000 0.000000 0.026739
#
#
# Mechanical properties :
#
#
# Convention : Reuss Voigt Hill
#
# Bulk Modulus (GPa) = 18.93639 19.50288 19.21964
# Shear Modulus (GPa) = 30.16172 31.56599 30.86385
#
# Velocity S-wave (km/s) = 3.68518 3.76999 3.72783
# Velocity P-wave (km/s) = 5.16078 5.26610 5.21370
#
# Compressibility (1/GPa) = 0.05280838
#
# Stress axis : x y z
#
# Youngs Moduli (GPa) = 46.53993 46.54139 76.29605
#
# Poissons Ratio (x) = 0.10468 -0.02341
# Poissons Ratio (y) = 0.10468 -0.02339
# Poissons Ratio (z) = -0.01428 -0.01427
#
# Static dielectric constant tensor:
#      x y z
#    x 4.069780 0.000000 0.000000 
#    y 0.000000 4.069790 0.000000 
#    z 0.000000 0.000000 4.182360 
# 
# 
# High freq. dielectric constant tensor:
#      x y z
#    x 1.867180 0.000000 0.000000 
#    y 0.000000 1.867180 0.000000 
#    z 0.000000 0.000000 1.872740 
# 
# From -- ./inp_files/5827.got.cif
#   From: 2010.03.12/outbox.cif.g09.slc.cpg/sg138_3_cif.got.tgz:5827.got - 2010.04.08 09:41:05.
