data_PCOD8319622
_publ_section_title
;
Structure prediction by ZEFSAII (Michael W. Deem and Ramdas Pophale) SiO2 
 PCOD8319622
Probable space group: I 4/M M M
;
_chemical_formula_sum "Si O2"
_cell_formula_units_Z 192
_cell_length_a 18.553308
_cell_length_b 18.553308
_cell_length_c 30.509598
_cell_angle_alpha 90.000000
_cell_angle_beta 90.000000
_cell_angle_gamma 90.000000
_cell_volume 10502.173625
_symmetry_space_group_name_H-M "I 4/M M M"
_symmetry_group_IT_number 139
_symmetry_cell_setting 'tetragonal'
loop_
_space_group_symop_operation_xyz
x,y,z
-y,x,z
-x,-y,z
y,-x,z
x,-y,-z
-x,y,-z
y,x,-z
-y,-x,-z
-x,-y,-z
y,-x,-z
x,y,-z
-y,x,-z
-x,y,z
x,-y,z
-y,-x,z
y,x,z
1/2+x,1/2+y,1/2+z
1/2-y,1/2+x,1/2+z
1/2-x,1/2-y,1/2+z
1/2+y,1/2-x,1/2+z
1/2+x,1/2-y,1/2-z
1/2-x,1/2+y,1/2-z
1/2+y,1/2+x,1/2-z
1/2-y,1/2-x,1/2-z
1/2-x,1/2-y,1/2-z
1/2+y,1/2-x,1/2-z
1/2+x,1/2+y,1/2-z
1/2-y,1/2+x,1/2-z
1/2-x,1/2+y,1/2+z
1/2+x,1/2-y,1/2+z
1/2-y,1/2-x,1/2+z
1/2+y,1/2+x,1/2+z
loop_
_atom_site_type_symbol
_atom_site_label
_atom_site_fract_x
_atom_site_fract_y
_atom_site_fract_z
Si Si1 0.344490 0.773954 0.334005
Si Si2 0.415834 0.298464 0.585734
Si Si3 0.918678 0.802541 0.572886
Si Si4 0.415695 0.788397 0.500000
Si Si5 0.697861 0.417483 0.257052
Si Si6 0.582850 0.188609 0.000000
Si Si7 0.418920 0.769261 0.835642
O O1 0.268361 0.731640 0.337878
O O2 0.397973 0.751103 0.372680
O O3 0.382250 0.758716 0.287668
O O4 0.332424 0.859780 0.336961
O O5 0.500000 0.317034 0.584953
O O6 0.373850 0.373850 0.588608
O O7 0.391143 0.256248 0.542424
O O8 0.868306 0.868306 0.559362
O O9 0.898907 0.733988 0.543379
O O10 0.907426 0.783106 0.623420
O O11 0.000000 0.827410 0.563213
O O12 0.500000 0.802443 0.500000
O O13 0.380843 0.867019 0.500000
O O14 0.686378 0.500000 0.270185
O O15 0.621991 0.378010 0.265029
O O16 0.721321 0.407639 0.207204
O O17 0.500000 0.162663 0.000000
O O18 0.500000 0.803009 0.836457
#
# Coordination Sequence:
#
# PCOD8319622 Si02
#       7
#    32  32  32  16  32  16  32
#     4  10  19  33  54  76 101 135 172 211 254 299
#     4  10  21  36  55  80 107 136 170 208 253 305
#     4  10  20  33  50  74 103 134 169 207 248 297
#     4  10  21  36  54  78 106 134 169 210 252 304
#     4  10  20  33  51  76 104 135 171 210 254 305
#     4  10  21  36  54  76 102 134 173 216 258 298
#     4  10  20  33  51  76 103 131 169 214 256 301
#
# _framework density 18.281929999999999
#
# number of rings (size 3 to 8) (size 9 to 14) (size 15 to 20)
#    0.000    2.000    0.000    4.000    0.000    4.667 
#    0.000    0.000    0.000   12.000    0.000    4.667 
#    0.000    0.000    0.000    0.000    0.000    0.000 
#
# Total GULP energy -1190734.329030 kJ/mol
# GULP energy per Si atom -12403.482594 kJ/mol
# Density = 1.824032 g / cm^3
# Si number density = 18.281930 Si / 1000 Ang^3
#
#
#
# Elastic Constant Matrix: (Units=GPa)
#
#
# Indices 1 2 3 4 5 6 
#
# 1 104.6325 59.6957 25.2502 0.0000 0.0000 0.0000
# 2 59.6957 104.6325 25.2502 0.0000 0.0000 0.0000
# 3 25.2502 25.2502 93.0082 0.0000 0.0000 0.0000
# 4 0.0000 0.0000 0.0000 20.4714 0.0000 0.0000
# 5 0.0000 0.0000 0.0000 0.0000 20.4714 0.0000
# 6 0.0000 0.0000 0.0000 0.0000 0.0000 27.6393
#
#
#
# Elastic Compliance Matrix: (Units=1/GPa)
#
#
# Indices 1 2 3 4 5 6 
#
# 1 0.014446 -0.007807 -0.001802 0.000000 0.000000 0.000000
# 2 -0.007807 0.014446 -0.001802 0.000000 0.000000 0.000000
# 3 -0.001802 -0.001802 0.011730 0.000000 0.000000 0.000000
# 4 0.000000 0.000000 0.000000 0.048849 0.000000 0.000000
# 5 0.000000 0.000000 0.000000 0.000000 0.048849 0.000000
# 6 0.000000 0.000000 0.000000 0.000000 0.000000 0.036180
#
#
# Mechanical properties :
#
#
# Convention : Reuss Voigt Hill
#
# Bulk Modulus (GPa) = 56.18235 58.07393 57.12814
# Shear Modulus (GPa) = 24.59928 26.52156 25.56042
#
# Velocity S-wave (km/s) = 3.67216 3.81293 3.74321
# Velocity P-wave (km/s) = 6.98408 7.15677 7.07095
#
# Compressibility (1/GPa) = 0.01779918
#
# Stress axis : x y z
#
# Youngs Moduli (GPa) = 69.22142 69.22142 85.24843
#
# Poissons Ratio (x) = 0.54042 0.15366
# Poissons Ratio (y) = 0.54042 0.15366
# Poissons Ratio (z) = 0.12477 0.12477
#
# Static dielectric constant tensor:
#      x y z
#    x 3.256500 0.000000 0.000000 
#    y 0.000000 3.256500 0.000000 
#    z 0.000000 0.000000 3.656770 
# 
# 
# High freq. dielectric constant tensor:
#      x y z
#    x 1.698890 0.000000 0.000000 
#    y 0.000000 1.698890 0.000000 
#    z 0.000000 0.000000 1.733730 
# 
# From -- ./inp_files/14348.got.cif
#   From: 2010.03.12/outbox.cif.g09.slc.cpg/sg139_8_cif.got.tgz:14348.got - 2010.04.08 09:46:31.
