data_PCOD8319280
_publ_section_title
;
Structure prediction by ZEFSAII (Michael W. Deem and Ramdas Pophale) SiO2 
 PCOD8319280
Probable space group: I 4/M M M
;
_chemical_formula_sum "Si O2"
_cell_formula_units_Z 208
_cell_length_a 26.417089
_cell_length_b 26.417089
_cell_length_c 17.568860
_cell_angle_alpha 90.000000
_cell_angle_beta 90.000000
_cell_angle_gamma 90.000000
_cell_volume 12260.650165
_symmetry_space_group_name_H-M "I 4/M M M"
_symmetry_group_IT_number 139
_symmetry_cell_setting 'tetragonal'
loop_
_space_group_symop_operation_xyz
x,y,z
-y,x,z
-x,-y,z
y,-x,z
x,-y,-z
-x,y,-z
y,x,-z
-y,-x,-z
-x,-y,-z
y,-x,-z
x,y,-z
-y,x,-z
-x,y,z
x,-y,z
-y,-x,z
y,x,z
1/2+x,1/2+y,1/2+z
1/2-y,1/2+x,1/2+z
1/2-x,1/2-y,1/2+z
1/2+y,1/2-x,1/2+z
1/2+x,1/2-y,1/2-z
1/2-x,1/2+y,1/2-z
1/2+y,1/2+x,1/2-z
1/2-y,1/2-x,1/2-z
1/2-x,1/2-y,1/2-z
1/2+y,1/2-x,1/2-z
1/2+x,1/2+y,1/2-z
1/2-y,1/2+x,1/2-z
1/2-x,1/2+y,1/2+z
1/2+x,1/2-y,1/2+z
1/2-y,1/2-x,1/2+z
1/2+y,1/2+x,1/2+z
loop_
_atom_site_type_symbol
_atom_site_label
_atom_site_fract_x
_atom_site_fract_y
_atom_site_fract_z
Si Si1 0.781257 0.703660 0.089954
Si Si2 0.939742 0.861946 0.500000
Si Si3 0.251271 0.559971 0.286836
Si Si4 0.058612 0.640378 0.728074
Si Si5 0.207828 0.056959 0.369836
Si Si6 0.093614 0.690828 0.414790
Si Si7 0.783729 0.865223 0.911732
O O1 0.729035 0.729035 0.122180
O O2 0.791092 0.647559 0.121367
O O3 0.827657 0.739211 0.113357
O O4 0.776733 0.701002 0.000000
O O5 0.918971 0.918971 0.500000
O O6 0.917328 0.834304 0.575855
O O7 0.000000 0.862306 0.500000
O O8 0.257441 0.500000 0.294968
O O9 0.191565 0.572836 0.274951
O O10 0.283197 0.581107 0.213880
O O11 0.276121 0.584885 0.361149
O O12 0.093013 0.593013 0.750000
O O13 0.068566 0.648575 0.638303
O O14 0.000000 0.626087 0.741551
O O15 0.260474 0.057533 0.416050
O O16 0.190319 0.000000 0.356944
O O17 0.099356 0.668382 0.500000
O O18 0.837965 0.837965 0.897552
O O19 0.778930 0.880984 0.000000
#
# Coordination Sequence:
#
# PCOD8319280 Si02
#       7
#    32  16  32  32  32  32  32
#     4   8  15  26  40  63  96 128 155 184 225 279
#     4  10  20  33  48  66  92 126 161 195 231 273
#     4   9  18  32  50  72  97 124 159 204 244 289
#     4  10  21  35  51  71  96 127 165 207 252 301
#     4   9  18  31  45  65  93 119 146 190 243 283
#     4  10  17  28  50  74  93 124 158 196 238 293
#     4   9  17  30  47  67  96 132 162 194 238 287
#
# _framework density 16.964842000000001
#
# number of rings (size 3 to 8) (size 9 to 14) (size 15 to 20)
#    0.000    2.769    0.769    3.231    0.000    2.692 
#    0.000    2.308    0.000    9.692    0.000    1.077 
#    0.000    0.308    0.000    1.692    0.000    0.000 
#
# Total GULP energy -1288469.001919 kJ/mol
# GULP energy per Si atom -12389.125018 kJ/mol
# Density = 1.692623 g / cm^3
# Si number density = 16.964842 Si / 1000 Ang^3
#
#
#
# Elastic Constant Matrix: (Units=GPa)
#
#
# Indices 1 2 3 4 5 6 
#
# 1 53.8982 44.1861 41.1460 0.0000 0.0000 0.0000
# 2 44.1861 53.8982 41.1460 0.0000 0.0000 0.0000
# 3 41.1460 41.1460 90.6892 0.0000 0.0000 0.0000
# 4 0.0000 0.0000 0.0000 17.2372 0.0000 0.0000
# 5 0.0000 0.0000 0.0000 0.0000 17.2372 0.0000
# 6 0.0000 0.0000 0.0000 0.0000 0.0000 26.0651
#
#
#
# Elastic Compliance Matrix: (Units=1/GPa)
#
#
# Indices 1 2 3 4 5 6 
#
# 1 0.059713 -0.043252 -0.007469 0.000000 0.000000 0.000000
# 2 -0.043252 0.059713 -0.007469 0.000000 0.000000 0.000000
# 3 -0.007469 -0.007469 0.017804 0.000000 0.000000 0.000000
# 4 0.000000 0.000000 0.000000 0.058014 0.000000 0.000000
# 5 0.000000 0.000000 0.000000 0.000000 0.058014 0.000000
# 6 0.000000 0.000000 0.000000 0.000000 0.000000 0.038365
#
#
# Mechanical properties :
#
#
# Convention : Reuss Voigt Hill
#
# Bulk Modulus (GPa) = 47.95666 50.16019 49.05842
# Shear Modulus (GPa) = 12.04960 16.90840 14.47900
#
# Velocity S-wave (km/s) = 2.66798 3.16044 2.92459
# Velocity P-wave (km/s) = 6.14983 6.55356 6.35490
#
# Compressibility (1/GPa) = 0.02085216
#
# Stress axis : x y z
#
# Youngs Moduli (GPa) = 16.74678 16.74678 56.16798
#
# Poissons Ratio (x) = 0.72432 0.41950
# Poissons Ratio (y) = 0.72432 0.41950
# Poissons Ratio (z) = 0.12508 0.12508
#
# Static dielectric constant tensor:
#      x y z
#    x 3.358070 0.000000 0.000000 
#    y 0.000000 3.358070 0.000000 
#    z 0.000000 0.000000 3.178710 
# 
# 
# High freq. dielectric constant tensor:
#      x y z
#    x 1.636670 0.000000 0.000000 
#    y 0.000000 1.636670 0.000000 
#    z 0.000000 0.000000 1.646730 
# 
# From -- ./inp_files/8990.got.cif
#   From: 2010.03.12/outbox.cif.g09.slc.cpg/sg139_5_cif.got.tgz:8990.got - 2010.04.08 09:46:31.
