data_PCOD8319086
_publ_section_title
;
Structure prediction by ZEFSAII (Michael W. Deem and Ramdas Pophale) SiO2 
 PCOD8319086
Probable space group: P 42/N C M
;
_chemical_formula_sum "Si O2"
_cell_formula_units_Z 96
_cell_length_a 24.446443
_cell_length_b 24.446443
_cell_length_c 8.921759
_cell_angle_alpha 90.000000
_cell_angle_beta 90.000000
_cell_angle_gamma 90.000000
_cell_volume 5331.898121
_symmetry_space_group_name_H-M "P 42/N C M"
_symmetry_group_IT_number 138
_space_group.IT_coordinate_system_code '2'
_symmetry_cell_setting 'tetragonal'
loop_
_space_group_symop_operation_xyz
x,y,z
1/2-y,x,1/2+z
1/2-x,1/2-y,z
y,1/2-x,1/2+z
1/2+x,-y,1/2-z
-x,1/2+y,1/2-z
1/2+y,1/2+x,-z
-y,-x,-z
-x,-y,-z
1/2+y,-x,1/2-z
1/2+x,1/2+y,-z
-y,1/2+x,1/2-z
1/2-x,y,1/2+z
x,1/2-y,1/2+z
1/2-y,1/2-x,z
y,x,z
loop_
_atom_site_type_symbol
_atom_site_label
_atom_site_fract_x
_atom_site_fract_y
_atom_site_fract_z
Si Si1 0.137841 0.791993 0.091581
Si Si2 0.829596 0.366777 0.156357
Si Si3 0.799950 0.481485 0.464220
Si Si4 0.505631 0.416228 0.910627
Si Si5 0.585230 0.004183 0.941866
Si Si6 0.810277 0.009313 0.633292
O O1 0.131150 0.835165 0.227110
O O2 0.152786 0.733278 0.158686
O O3 0.085112 0.795294 0.980510
O O4 0.191280 0.808721 0.000000
O O5 0.827494 0.430434 0.184267
O O6 0.857609 0.357609 0.000000
O O7 0.854563 0.503995 0.539194
O O8 0.745757 0.502438 0.547276
O O9 0.801021 0.512032 0.302404
O O10 0.451823 0.451823 0.947232
O O11 0.514940 0.410636 0.734247
O O12 0.557109 0.442892 0.000000
O O13 0.545025 0.954976 0.982003
O O14 0.561597 0.061597 0.000000
O O15 0.641291 0.987011 0.026786
#
# Coordination Sequence:
#
# PCOD8319086 Si02
#       6
#    16  16  16  16  16  16
#     4  11  22  37  47  67  90 124 172 219 270 315
#     4  11  24  33  50  66  89 126 168 221 270 316
#     4  11  23  36  55  74 103 137 174 217 265 323
#     4  10  21  36  57  83 109 139 176 221 270 321
#     4  10  21  36  56  82 109 138 176 222 270 321
#     4  11  23  37  54  76 102 139 174 218 266 322
#
# _framework density 18.004846000000001
#
# number of rings (size 3 to 8) (size 9 to 14) (size 15 to 20)
#    0.000    1.333    1.667    4.000   11.667    4.000 
#    0.000    0.000    0.000    0.000    0.000    0.000 
#    0.000    0.667    0.000    7.000    0.000    3.000 
#
# Total GULP energy -1189303.681591 kJ/mol
# GULP energy per Si atom -12388.580017 kJ/mol
# Density = 1.796387 g / cm^3
# Si number density = 18.004846 Si / 1000 Ang^3
#
#
#
# Elastic Constant Matrix: (Units=GPa)
#
#
# Indices 1 2 3 4 5 6 
#
# 1 77.9373 21.6486 35.7872 0.0000 0.0000 0.0000
# 2 21.6486 77.9378 35.7874 0.0000 0.0000 0.0000
# 3 35.7872 35.7874 120.8191 0.0000 0.0000 0.0000
# 4 0.0000 0.0000 0.0000 31.3367 0.0000 0.0000
# 5 0.0000 0.0000 0.0000 0.0000 31.3393 0.0000
# 6 0.0000 0.0000 0.0000 0.0000 0.0000 19.2919
#
#
#
# Elastic Compliance Matrix: (Units=1/GPa)
#
#
# Indices 1 2 3 4 5 6 
#
# 1 0.015262 -0.002504 -0.003779 0.000000 0.000000 0.000000
# 2 -0.002504 0.015261 -0.003779 0.000000 0.000000 0.000000
# 3 -0.003779 -0.003779 0.010515 0.000000 0.000000 0.000000
# 4 0.000000 0.000000 0.000000 0.031912 0.000000 0.000000
# 5 0.000000 0.000000 0.000000 0.000000 0.031909 0.000000
# 6 0.000000 0.000000 0.000000 0.000000 0.000000 0.051835
#
#
# Mechanical properties :
#
#
# Convention : Reuss Voigt Hill
#
# Bulk Modulus (GPa) = 47.81241 51.46007 49.63624
# Shear Modulus (GPa) = 27.20512 28.62498 27.91505
#
# Velocity S-wave (km/s) = 3.89136 3.99162 3.94181
# Velocity P-wave (km/s) = 6.84129 7.06309 6.95307
#
# Compressibility (1/GPa) = 0.02091507
#
# Stress axis : x y z
#
# Youngs Moduli (GPa) = 65.52431 65.52465 95.09807
#
# Poissons Ratio (x) = 0.16407 0.35936
# Poissons Ratio (y) = 0.16407 0.35936
# Poissons Ratio (z) = 0.24761 0.24761
#
# Static dielectric constant tensor:
#      x y z
#    x 66.365380 0.000000 0.000000 
#    y 0.000000 70.691220 0.000000 
#    z 0.000000 0.000000 3.650940 
# 
# 
# High freq. dielectric constant tensor:
#      x y z
#    x 1.668160 0.000000 0.000000 
#    y 0.000000 1.668160 0.000000 
#    z 0.000000 0.000000 1.727610 
# 
# From -- ./inp_files/1722.got.cif
#   From: 2010.03.12/outbox.cif.g09.slc.cpg/sg138_1_cif.got.tgz:1722.got - 2010.04.08 09:41:05.
