data_PCOD8319018
_publ_section_title
;
Structure prediction by ZEFSAII (Michael W. Deem and Ramdas Pophale) SiO2 
 PCOD8319018
Probable space group: P 42/N C M
;
_chemical_formula_sum "Si O2"
_cell_formula_units_Z 80
_cell_length_a 10.706024
_cell_length_b 10.706024
_cell_length_c 33.250243
_cell_angle_alpha 90.000000
_cell_angle_beta 90.000000
_cell_angle_gamma 90.000000
_cell_volume 3811.107936
_symmetry_space_group_name_H-M "P 42/N C M"
_symmetry_group_IT_number 138
_space_group.IT_coordinate_system_code '2'
_symmetry_cell_setting 'tetragonal'
loop_
_space_group_symop_operation_xyz
x,y,z
1/2-y,x,1/2+z
1/2-x,1/2-y,z
y,1/2-x,1/2+z
1/2+x,-y,1/2-z
-x,1/2+y,1/2-z
1/2+y,1/2+x,-z
-y,-x,-z
-x,-y,-z
1/2+y,-x,1/2-z
1/2+x,1/2+y,-z
-y,1/2+x,1/2-z
1/2-x,y,1/2+z
x,1/2-y,1/2+z
1/2-y,1/2-x,z
y,x,z
loop_
_atom_site_type_symbol
_atom_site_label
_atom_site_fract_x
_atom_site_fract_y
_atom_site_fract_z
Si Si1 0.456035 0.253455 1.000000
Si Si2 0.006987 0.199311 0.794464
Si Si3 0.699311 0.506987 0.794464
Si Si4 0.648232 0.148232 0.847507
Si Si5 0.395716 0.604284 0.439724
O O1 0.343751 0.156249 1.000000
O O2 0.394059 0.394059 0.000000
O O3 0.546659 0.227760 0.038459
O O4 0.546660 0.227761 0.961541
O O5 0.147839 0.147839 0.800306
O O6 0.912383 0.087617 0.802116
O O7 0.987750 0.250000 0.750000
O O8 0.982576 0.308854 0.827262
O O9 0.647839 0.647839 0.800306
O O10 0.808854 0.482576 0.827262
O O11 0.750000 0.250000 0.835021
O O12 0.639622 0.139622 0.894992
O O13 0.500000 0.500000 0.440499
#
# Coordination Sequence:
#
# PCOD8319018 Si02
#       5
#    16  16  16  16  16
#     4   8  15  31  54  76 102 138 178 224 278 332
#     4  10  20  35  56  77 101 141 188 229 276 337
#     4  10  20  35  56  77 101 141 188 229 276 337
#     4  10  21  35  53  76 114 148 176 224 284 337
#     4   9  18  32  52  78 102 134 182 224 268 334
#
# _framework density 20.991271999999999
#
# number of rings (size 3 to 8) (size 9 to 14) (size 15 to 20)
#    0.000    2.600    2.000    1.200    0.000    3.600 
#    0.000    2.000    0.000    1.200    0.000    0.000 
#    0.000    0.000    0.000    0.000    0.000    0.000 
#
# Total GULP energy -991096.228736 kJ/mol
# GULP energy per Si atom -12388.702859 kJ/mol
# Density = 2.094349 g / cm^3
# Si number density = 20.991272 Si / 1000 Ang^3
#
#
#
# Elastic Constant Matrix: (Units=GPa)
#
#
# Indices 1 2 3 4 5 6 
#
# 1 60.4391 52.2019 37.3344 0.0000 0.0000 0.0000
# 2 52.2019 60.4391 37.3344 0.0000 0.0000 0.0000
# 3 37.3344 37.3344 160.1656 0.0000 0.0000 0.0000
# 4 0.0000 0.0000 0.0000 50.1070 0.0000 0.0000
# 5 0.0000 0.0000 0.0000 0.0000 50.1070 0.0000
# 6 0.0000 0.0000 0.0000 0.0000 0.0000 28.2384
#
#
#
# Elastic Compliance Matrix: (Units=1/GPa)
#
#
# Indices 1 2 3 4 5 6 
#
# 1 0.065951 -0.055450 -0.002448 0.000000 0.000000 0.000000
# 2 -0.055450 0.065951 -0.002448 0.000000 0.000000 0.000000
# 3 -0.002448 -0.002448 0.007385 0.000000 0.000000 0.000000
# 4 0.000000 0.000000 0.000000 0.019957 0.000000 0.000000
# 5 0.000000 0.000000 0.000000 0.000000 0.019957 0.000000
# 6 0.000000 0.000000 0.000000 0.000000 0.000000 0.035413
#
#
# Mechanical properties :
#
#
# Convention : Reuss Voigt Hill
#
# Bulk Modulus (GPa) = 53.77866 59.42055 56.59960
# Shear Modulus (GPa) = 14.64120 35.96869 25.30494
#
# Velocity S-wave (km/s) = 2.64387 4.14394 3.47580
# Velocity P-wave (km/s) = 5.91567 7.15996 6.56735
#
# Compressibility (1/GPa) = 0.01859474
#
# Stress axis : x y z
#
# Youngs Moduli (GPa) = 15.16288 15.16288 135.41699
#
# Poissons Ratio (x) = 0.84079 0.33145
# Poissons Ratio (y) = 0.84079 0.33145
# Poissons Ratio (z) = 0.03711 0.03711
#
# Static dielectric constant tensor:
#      x y z
#    x 4.057820 0.000000 0.000000 
#    y 0.000000 4.057820 0.000000 
#    z 0.000000 0.000000 -0.595960 
# 
# 
# High freq. dielectric constant tensor:
#      x y z
#    x 1.816650 0.000000 0.000000 
#    y 0.000000 1.816650 0.000000 
#    z 0.000000 0.000000 1.810130 
# 
# From -- ./inp_files/7919.got.cif
#   From: 2010.03.12/outbox.cif.g09.slc.cpg/sg138_4_cif.got.tgz:7919.got - 2010.04.08 09:41:05.
