data_PCOD8319868
_publ_section_title
;
Structure prediction by ZEFSAII (Michael W. Deem and Ramdas Pophale) SiO2 
 PCOD8319868
Probable space group: I 4/M M M
;
_chemical_formula_sum "Si O2"
_cell_formula_units_Z 120
_cell_length_a 17.844563
_cell_length_b 17.844563
_cell_length_c 19.291151
_cell_angle_alpha 90.000000
_cell_angle_beta 90.000000
_cell_angle_gamma 90.000000
_cell_volume 6142.850900
_symmetry_space_group_name_H-M "I 4/M M M"
_symmetry_group_IT_number 139
_symmetry_cell_setting 'tetragonal'
loop_
_space_group_symop_operation_xyz
x,y,z
-y,x,z
-x,-y,z
y,-x,z
x,-y,-z
-x,y,-z
y,x,-z
-y,-x,-z
-x,-y,-z
y,-x,-z
x,y,-z
-y,x,-z
-x,y,z
x,-y,z
-y,-x,z
y,x,z
1/2+x,1/2+y,1/2+z
1/2-y,1/2+x,1/2+z
1/2-x,1/2-y,1/2+z
1/2+y,1/2-x,1/2+z
1/2+x,1/2-y,1/2-z
1/2-x,1/2+y,1/2-z
1/2+y,1/2+x,1/2-z
1/2-y,1/2-x,1/2-z
1/2-x,1/2-y,1/2-z
1/2+y,1/2-x,1/2-z
1/2+x,1/2+y,1/2-z
1/2-y,1/2+x,1/2-z
1/2-x,1/2+y,1/2+z
1/2+x,1/2-y,1/2+z
1/2-y,1/2-x,1/2+z
1/2+y,1/2+x,1/2+z
loop_
_atom_site_type_symbol
_atom_site_label
_atom_site_fract_x
_atom_site_fract_y
_atom_site_fract_z
Si Si1 0.914131 0.708336 0.360193
Si Si2 0.834128 0.165873 0.884843
Si Si3 0.915528 0.084473 0.000000
Si Si4 0.810505 0.810505 0.731976
Si Si5 0.293986 0.416838 0.000000
Si Si6 0.412540 0.181101 0.419242
O O1 0.875591 0.767060 0.308366
O O2 0.902101 0.741776 0.435381
O O3 0.880619 0.623719 0.366887
O O4 0.000000 0.701285 0.336891
O O5 0.887695 0.112306 0.926622
O O6 0.845071 0.154930 0.802423
O O7 0.751075 0.142989 0.908240
O O8 0.000000 0.106863 0.000000
O O9 0.750000 0.750000 0.750000
O O10 0.327388 0.500000 0.000000
O O11 0.364923 0.364923 0.000000
O O12 0.410168 0.156859 0.500000
O O13 0.500000 0.195514 0.397800
#
# Coordination Sequence:
#
# PCOD8319868 Si02
#       6
#    32  16   8  16  16  32
#     4  11  23  40  62  92 128 166 209 262 313 370
#     4  12  23  40  65  92 120 159 218 265 311 379
#     4  11  24  42  66  98 130 160 202 265 340 396
#     4  12  24  42  64  92 120 167 217 262 314 374
#     4  10  20  36  64  89 117 161 203 253 310 363
#     4  11  22  37  63  96 128 166 214 267 320 375
#
# _framework density 19.534903
#
# number of rings (size 3 to 8) (size 9 to 14) (size 15 to 20)
#    0.000    0.867    6.667    0.800    0.000    2.800 
#    0.000    1.333    0.000    0.400    0.000    0.000 
#    0.000    0.000    0.000    0.000    0.000    0.000 
#
# Total GULP energy -743508.368652 kJ/mol
# GULP energy per Si atom -12391.806144 kJ/mol
# Density = 1.949044 g / cm^3
# Si number density = 19.534903 Si / 1000 Ang^3
#
#
#
# Elastic Constant Matrix: (Units=GPa)
#
#
# Indices 1 2 3 4 5 6 
#
# 1 137.8661 63.5988 39.5774 0.0000 0.0000 0.0000
# 2 63.5988 137.8658 39.5775 0.0000 0.0000 0.0000
# 3 39.5774 39.5775 111.3750 0.0000 0.0000 0.0000
# 4 0.0000 0.0000 0.0000 101.3760 0.0000 0.0000
# 5 0.0000 0.0000 0.0000 0.0000 101.3900 0.0000
# 6 0.0000 0.0000 0.0000 0.0000 0.0000 32.2632
#
#
#
# Elastic Compliance Matrix: (Units=1/GPa)
#
#
# Indices 1 2 3 4 5 6 
#
# 1 0.009617 -0.003848 -0.002050 0.000000 0.000000 0.000000
# 2 -0.003848 0.009617 -0.002050 0.000000 0.000000 0.000000
# 3 -0.002050 -0.002050 0.010436 0.000000 0.000000 0.000000
# 4 0.000000 0.000000 0.000000 0.009864 0.000000 0.000000
# 5 0.000000 0.000000 0.000000 0.000000 0.009863 0.000000
# 6 0.000000 0.000000 0.000000 0.000000 0.000000 0.030995
#
#
# Mechanical properties :
#
#
# Convention : Reuss Voigt Hill
#
# Bulk Modulus (GPa) = 72.60258 74.73492 73.66875
# Shear Modulus (GPa) = 49.56423 63.29604 56.43014
#
# Velocity S-wave (km/s) = 5.04254 5.69841 5.38048
# Velocity P-wave (km/s) = 8.43500 9.03526 8.74029
#
# Compressibility (1/GPa) = 0.01377361
#
# Stress axis : x y z
#
# Youngs Moduli (GPa) = 103.98256 103.98229 95.82508
#
# Poissons Ratio (x) = 0.40011 0.19645
# Poissons Ratio (y) = 0.40011 0.19645
# Poissons Ratio (z) = 0.21317 0.21317
#
# Static dielectric constant tensor:
#      x y z
#    x 6.118650 0.000000 0.000000 
#    y 0.000000 6.116480 0.000000 
#    z 0.000000 0.000000 3.376940 
# 
# 
# High freq. dielectric constant tensor:
#      x y z
#    x 1.763770 0.000000 0.000000 
#    y 0.000000 1.763770 0.000000 
#    z 0.000000 0.000000 1.762270 
# 
# From -- ./inp_files/9872.got.cif
#   From: 2010.03.12/outbox.cif.g09.slc.cpg/sg139_5_cif.got.tgz:9872.got - 2010.04.08 09:46:31.
