data_PCOD8319224
_publ_section_title
;
Structure prediction by ZEFSAII (Michael W. Deem and Ramdas Pophale) SiO2 
 PCOD8319224
Probable space group: P 42/N C M
;
_chemical_formula_sum "Si O2"
_cell_formula_units_Z 64
_cell_length_a 11.965308
_cell_length_b 11.965308
_cell_length_c 19.558457
_cell_angle_alpha 90.000000
_cell_angle_beta 90.000000
_cell_angle_gamma 90.000000
_cell_volume 2800.156820
_symmetry_space_group_name_H-M "P 42/N C M"
_symmetry_group_IT_number 138
_space_group.IT_coordinate_system_code '2'
_symmetry_cell_setting 'tetragonal'
loop_
_space_group_symop_operation_xyz
x,y,z
1/2-y,x,1/2+z
1/2-x,1/2-y,z
y,1/2-x,1/2+z
1/2+x,-y,1/2-z
-x,1/2+y,1/2-z
1/2+y,1/2+x,-z
-y,-x,-z
-x,-y,-z
1/2+y,-x,1/2-z
1/2+x,1/2+y,-z
-y,1/2+x,1/2-z
1/2-x,y,1/2+z
x,1/2-y,1/2+z
1/2-y,1/2-x,z
y,x,z
loop_
_atom_site_type_symbol
_atom_site_label
_atom_site_fract_x
_atom_site_fract_y
_atom_site_fract_z
Si Si1 0.657972 0.023116 0.398230
Si Si2 0.928742 0.252382 0.344646
Si Si3 0.498389 0.320247 0.483727
Si Si4 0.978546 0.158110 0.704004
O O1 0.539887 0.960114 0.391151
O O2 0.646940 0.154237 0.381669
O O3 0.704810 0.005168 0.474564
O O4 0.745672 0.970775 0.344263
O O5 0.010759 0.204553 0.402936
O O6 0.855543 0.152669 0.312409
O O7 0.997387 0.308403 0.282876
O O8 0.609370 0.390631 0.500000
O O9 0.388831 0.388831 0.506141
O O10 0.042766 0.042766 0.689120
#
# Coordination Sequence:
#
# PCOD8319224 Si02
#       4
#    16  16  16  16
#     4  12  27  46  73 109 148 189 239 303 366 430
#     4  12  25  44  75 106 141 188 244 298 358 432
#     4  11  25  45  73 106 147 195 242 296 361 434
#     4  12  26  45  72 107 145 189 243 299 363 433
#
# _framework density 22.855864
#
# number of rings (size 3 to 8) (size 9 to 14) (size 15 to 20)
#    0.000    0.250    5.000    3.750    0.000    7.000 
#    0.000    0.000    0.000    6.750    0.000    0.000 
#    0.000    0.000    0.000    0.000    0.000    0.000 
#
# Total GULP energy -793829.106032 kJ/mol
# GULP energy per Si atom -12403.579782 kJ/mol
# Density = 2.280384 g / cm^3
# Si number density = 22.855864 Si / 1000 Ang^3
#
#
#
# Elastic Constant Matrix: (Units=GPa)
#
#
# Indices 1 2 3 4 5 6 
#
# 1 95.5361 63.2451 28.4910 0.0000 0.0000 0.0000
# 2 63.2451 95.5366 28.4908 0.0000 0.0000 0.0000
# 3 28.4910 28.4908 150.7904 0.0000 0.0000 0.0000
# 4 0.0000 0.0000 0.0000 35.4887 0.0000 0.0000
# 5 0.0000 0.0000 0.0000 0.0000 35.4889 0.0000
# 6 0.0000 0.0000 0.0000 0.0000 0.0000 28.7906
#
#
#
# Elastic Compliance Matrix: (Units=1/GPa)
#
#
# Indices 1 2 3 4 5 6 
#
# 1 0.018862 -0.012106 -0.001277 0.000000 0.000000 0.000000
# 2 -0.012106 0.018862 -0.001276 0.000000 0.000000 0.000000
# 3 -0.001277 -0.001276 0.007114 0.000000 0.000000 0.000000
# 4 0.000000 0.000000 0.000000 0.028178 0.000000 0.000000
# 5 0.000000 0.000000 0.000000 0.000000 0.028178 0.000000
# 6 0.000000 0.000000 0.000000 0.000000 0.000000 0.034734
#
#
# Mechanical properties :
#
#
# Convention : Reuss Voigt Hill
#
# Bulk Modulus (GPa) = 64.43230 64.70190 64.56710
# Shear Modulus (GPa) = 29.33942 34.72939 32.03441
#
# Velocity S-wave (km/s) = 3.58672 3.90230 3.74783
# Velocity P-wave (km/s) = 6.73830 6.97668 6.85853
#
# Compressibility (1/GPa) = 0.01552017
#
# Stress axis : x y z
#
# Youngs Moduli (GPa) = 53.01620 53.01654 140.56592
#
# Poissons Ratio (x) = 0.64182 0.17944
# Poissons Ratio (y) = 0.64182 0.17943
# Poissons Ratio (z) = 0.06768 0.06767
#
# Static dielectric constant tensor:
#      x y z
#    x 3.906200 0.000000 0.000000 
#    y 0.000000 3.906200 0.000000 
#    z 0.000000 0.000000 4.504210 
# 
# 
# High freq. dielectric constant tensor:
#      x y z
#    x 1.888500 0.000000 0.000000 
#    y 0.000000 1.888500 0.000000 
#    z 0.000000 0.000000 1.924990 
# 
# From -- ./inp_files/5830.got.cif
#   From: 2010.03.12/outbox.cif.g09.slc.cpg/sg138_3_cif.got.tgz:5830.got - 2010.04.08 09:41:05.
