data_PCOD8320529
_publ_section_title
;
Structure prediction by ZEFSAII (Michael W. Deem and Ramdas Pophale) SiO2 
 PCOD8320529
Probable space group: I 4/M C M
;
_chemical_formula_sum "Si O2"
_cell_formula_units_Z 144
_cell_length_a 22.926661
_cell_length_b 22.926661
_cell_length_c 18.505371
_cell_angle_alpha 90.000000
_cell_angle_beta 90.000000
_cell_angle_gamma 90.000000
_cell_volume 9727.011184
_symmetry_space_group_name_H-M "I 4/M C M"
_symmetry_group_IT_number 140
_symmetry_cell_setting 'tetragonal'
loop_
_space_group_symop_operation_xyz
x,y,z
-y,x,z
-x,-y,z
y,-x,z
x,-y,1/2-z
-x,y,1/2-z
y,x,1/2-z
-y,-x,1/2-z
-x,-y,-z
y,-x,-z
x,y,-z
-y,x,-z
-x,y,1/2+z
x,-y,1/2+z
-y,-x,1/2+z
y,x,1/2+z
1/2+x,1/2+y,1/2+z
1/2-y,1/2+x,1/2+z
1/2-x,1/2-y,1/2+z
1/2+y,1/2-x,1/2+z
1/2+x,1/2-y,-z
1/2-x,1/2+y,-z
1/2+y,1/2+x,-z
1/2-y,1/2-x,-z
1/2-x,1/2-y,1/2-z
1/2+y,1/2-x,1/2-z
1/2+x,1/2+y,1/2-z
1/2-y,1/2+x,1/2-z
1/2-x,1/2+y,z
1/2+x,1/2-y,z
1/2-y,1/2-x,z
1/2+y,1/2+x,z
loop_
_atom_site_type_symbol
_atom_site_label
_atom_site_fract_x
_atom_site_fract_y
_atom_site_fract_z
Si Si1 0.046726 0.546726 0.913943
Si Si2 0.275824 0.129696 0.915841
Si Si3 0.293185 0.695147 0.330915
Si Si4 0.212368 0.384647 0.915851
Si Si5 0.509949 0.828442 0.914771
O O1 0.108620 0.526145 0.881249
O O2 0.000000 0.500000 0.888534
O O3 0.051744 0.551744 0.000000
O O4 0.333279 0.166722 0.893369
O O5 0.218103 0.151637 0.875741
O O6 0.284549 0.062217 0.894454
O O7 0.264168 0.137309 0.000000
O O8 0.316232 0.683768 0.250000
O O9 0.243297 0.743297 0.331916
O O10 0.267239 0.637175 0.368295
O O11 0.156374 0.343627 0.905201
O O12 0.195860 0.448595 0.885114
O O13 0.231089 0.386037 0.000000
O O14 0.503692 0.835861 0.000000
#
# Coordination Sequence:
#
# PCOD8320529 Si02
#       5
#    16  32  32  32  32
#     4   9  14  20  32  54  85 116 140 168 202 234
#     4   9  15  25  41  59  80 106 137 170 204 242
#     4   9  17  28  41  56  76 101 138 177 216 251
#     4   9  16  26  40  59  83 110 137 170 211 249
#     4   9  15  23  36  58  85 110 139 170 201 243
#
# _framework density 14.804136
#
# number of rings (size 3 to 8) (size 9 to 14) (size 15 to 20)
#    0.000    3.000    1.111    1.333    0.000    5.333 
#    0.000    1.111    0.000    0.000    0.000    0.000 
#    0.000    0.889    0.000   10.222    0.000    4.000 
#
# Total GULP energy -892475.267726 kJ/mol
# GULP energy per Si atom -12395.489830 kJ/mol
# Density = 1.477044 g / cm^3
# Si number density = 14.804136 Si / 1000 Ang^3
#
#
#
# Elastic Constant Matrix: (Units=GPa)
#
#
# Indices 1 2 3 4 5 6 
#
# 1 90.8508 67.9460 39.0442 0.0000 0.0000 0.0000
# 2 67.9460 90.8509 39.0441 0.0000 0.0000 0.0000
# 3 39.0442 39.0441 46.8380 0.0000 0.0000 0.0000
# 4 0.0000 0.0000 0.0000 7.8567 0.0000 0.0000
# 5 0.0000 0.0000 0.0000 0.0000 7.8568 0.0000
# 6 0.0000 0.0000 0.0000 0.0000 0.0000 23.1410
#
#
#
# Elastic Compliance Matrix: (Units=1/GPa)
#
#
# Indices 1 2 3 4 5 6 
#
# 1 0.027166 -0.016493 -0.008896 0.000000 0.000000 0.000000
# 2 -0.016493 0.027165 -0.008896 0.000000 0.000000 0.000000
# 3 -0.008896 -0.008896 0.036182 0.000000 0.000000 0.000000
# 4 0.000000 0.000000 0.000000 0.127280 0.000000 0.000000
# 5 0.000000 0.000000 0.000000 0.000000 0.127279 0.000000
# 6 0.000000 0.000000 0.000000 0.000000 0.000000 0.043213
#
#
# Mechanical properties :
#
#
# Convention : Reuss Voigt Hill
#
# Bulk Modulus (GPa) = 45.57639 57.84536 51.71087
# Shear Modulus (GPa) = 10.77190 13.27125 12.02158
#
# Velocity S-wave (km/s) = 2.70038 2.99734 2.85273
# Velocity P-wave (km/s) = 6.36992 7.15103 6.77175
#
# Compressibility (1/GPa) = 0.02194119
#
# Stress axis : x y z
#
# Youngs Moduli (GPa) = 36.81132 36.81150 27.63800
#
# Poissons Ratio (x) = 0.60715 0.24588
# Poissons Ratio (y) = 0.60714 0.24587
# Poissons Ratio (z) = 0.32749 0.32748
#
# Static dielectric constant tensor:
#      x y z
#    x 2.832370 0.000000 0.000000 
#    y 0.000000 2.832370 0.000000 
#    z 0.000000 0.000000 2.656040 
# 
# 
# High freq. dielectric constant tensor:
#      x y z
#    x 1.548100 0.000000 0.000000 
#    y 0.000000 1.548100 0.000000 
#    z 0.000000 0.000000 1.537100 
# 
# From -- ./inp_files/7030.got.cif
#   From: 2010.06.25/outbox.cif.g09.slc.cpg/sg140_4_cif.got.tgz:7030.got - 2010.06.28 10:53:23.
