data_PCOD8320822
_publ_section_title
;
Structure prediction by ZEFSAII (Michael W. Deem and Ramdas Pophale) SiO2 
 PCOD8320822
Probable space group: I 41/A M D
;
_chemical_formula_sum "Si O2"
_cell_formula_units_Z 160
_cell_length_a 20.131905
_cell_length_b 20.131905
_cell_length_c 18.934899
_cell_angle_alpha 90.000000
_cell_angle_beta 90.000000
_cell_angle_gamma 90.000000
_cell_volume 7674.193361
_symmetry_space_group_name_H-M "I 41/A M D"
_symmetry_group_IT_number 141
_space_group.IT_coordinate_system_code '2'
_symmetry_cell_setting 'tetragonal'
loop_
_space_group_symop_operation_xyz
x,y,z
1/4-y,3/4+x,1/4+z
-x,1/2-y,z
1/4+y,1/4-x,3/4+z
x,-y,-z
-x,1/2+y,-z
1/4+y,3/4+x,1/4-z
1/4-y,1/4-x,3/4-z
-x,-y,-z
3/4+y,1/4-x,3/4-z
x,1/2+y,-z
3/4-y,3/4+x,1/4-z
-x,y,z
x,1/2-y,z
3/4-y,1/4-x,3/4+z
3/4+y,3/4+x,1/4+z
1/2+x,1/2+y,1/2+z
3/4-y,1/4+x,3/4+z
1/2-x,-y,1/2+z
3/4+y,3/4-x,1/4+z
1/2+x,1/2-y,1/2-z
1/2-x,y,1/2-z
3/4+y,1/4+x,3/4-z
3/4-y,3/4-x,1/4-z
1/2-x,1/2-y,1/2-z
1/4+y,3/4-x,1/4-z
1/2+x,y,1/2-z
1/4-y,1/4+x,3/4-z
1/2-x,1/2+y,1/2+z
1/2+x,-y,1/2+z
1/4-y,3/4-x,1/4+z
1/4+y,1/4+x,3/4+z
loop_
_atom_site_type_symbol
_atom_site_label
_atom_site_fract_x
_atom_site_fract_y
_atom_site_fract_z
Si Si1 0.922579 0.418466 0.701499
Si Si2 0.691977 0.374725 0.299838
Si Si3 0.353171 0.010875 0.671034
Si Si4 0.578399 0.825392 0.954800
Si Si5 0.804522 0.674086 0.301314
O O1 0.915576 0.448457 0.623039
O O2 0.888845 0.466882 0.757762
O O3 0.879743 0.351352 0.707210
O O4 0.000000 0.404857 0.718868
O O5 0.750000 0.347268 0.250000
O O6 0.701513 0.453934 0.312576
O O7 0.621273 0.363601 0.262324
O O8 0.320018 0.070018 0.625000
O O9 0.411524 0.973128 0.629078
O O10 0.500000 0.830277 0.965041
O O11 0.602519 0.750000 0.968405
O O12 0.597490 0.847490 0.875000
O O13 0.808884 0.750000 0.281273
O O14 0.750000 0.638451 0.250000
#
# Coordination Sequence:
#
# PCOD8320822 Si02
#       5
#    32  32  32  32  32
#     4  11  25  43  66  98 132 172 217 274 336 397
#     4  11  27  39  65  97 133 172 220 277 332 380
#     4  11  24  42  66  91 133 173 221 268 328 403
#     4   9  20  41  66  92 129 176 216 257 319 392
#     4  10  21  41  68  95 125 169 216 268 330 396
#
# _framework density 20.849095999999999
#
# number of rings (size 3 to 8) (size 9 to 14) (size 15 to 20)
#    0.000    1.600    2.000    1.800    8.400    6.000 
#    0.000    0.000    0.000    0.000    0.000    0.000 
#    0.000    0.000    0.000    0.000    0.000    0.000 
#
# Total GULP energy -991669.028787 kJ/mol
# GULP energy per Si atom -12395.862860 kJ/mol
# Density = 2.080164 g / cm^3
# Si number density = 20.849096 Si / 1000 Ang^3
#
#
#
# Elastic Constant Matrix: (Units=GPa)
#
#
# Indices 1 2 3 4 5 6 
#
# 1 89.3460 32.1364 36.5533 0.0000 0.0000 0.0000
# 2 32.1364 89.3460 36.5533 0.0000 0.0000 0.0000
# 3 36.5533 36.5533 119.6635 0.0000 0.0000 0.0000
# 4 0.0000 0.0000 0.0000 26.5608 0.0000 0.0000
# 5 0.0000 0.0000 0.0000 0.0000 26.5608 0.0000
# 6 0.0000 0.0000 0.0000 0.0000 0.0000 16.1506
#
#
#
# Elastic Compliance Matrix: (Units=1/GPa)
#
#
# Indices 1 2 3 4 5 6 
#
# 1 0.013783 -0.003697 -0.003081 0.000000 0.000000 0.000000
# 2 -0.003697 0.013783 -0.003081 0.000000 0.000000 0.000000
# 3 -0.003081 -0.003081 0.010239 0.000000 0.000000 0.000000
# 4 0.000000 0.000000 0.000000 0.037649 0.000000 0.000000
# 5 0.000000 0.000000 0.000000 0.000000 0.037649 0.000000
# 6 0.000000 0.000000 0.000000 0.000000 0.000000 0.061917
#
#
# Mechanical properties :
#
#
# Convention : Reuss Voigt Hill
#
# Bulk Modulus (GPa) = 55.28862 56.53798 55.91330
# Shear Modulus (GPa) = 24.90453 26.72860 25.81656
#
# Velocity S-wave (km/s) = 3.45992 3.58439 3.52271
# Velocity P-wave (km/s) = 6.52208 6.65635 6.58956
#
# Compressibility (1/GPa) = 0.01808690
#
# Stress axis : x y z
#
# Youngs Moduli (GPa) = 72.55511 72.55511 97.66616
#
# Poissons Ratio (x) = 0.26823 0.30089
# Poissons Ratio (y) = 0.26823 0.30089
# Poissons Ratio (z) = 0.22353 0.22353
#
# Static dielectric constant tensor:
#      x y z
#    x 3.666030 0.000000 0.000000 
#    y 0.000000 3.666030 0.000000 
#    z 0.000000 0.000000 3.982300 
# 
# 
# High freq. dielectric constant tensor:
#      x y z
#    x 1.809190 0.000000 0.000000 
#    y 0.000000 1.809190 0.000000 
#    z 0.000000 0.000000 1.833020 
# 
# From -- ./inp_files/8599.got.cif
#   From: 2010.03.12/outbox.cif.g09.slc.cpg/sg141_5_cif.got.tgz:8599.got - 2010.04.03 13:18:35.
