data_PCOD8320580
_publ_section_title
;
Structure prediction by ZEFSAII (Michael W. Deem and Ramdas Pophale) SiO2 
 PCOD8320580
Probable space group: I 41/A M D
;
_chemical_formula_sum "Si O2"
_cell_formula_units_Z 144
_cell_length_a 18.195710
_cell_length_b 18.195710
_cell_length_c 21.470349
_cell_angle_alpha 90.000000
_cell_angle_beta 90.000000
_cell_angle_gamma 90.000000
_cell_volume 7108.486074
_symmetry_space_group_name_H-M "I 41/A M D"
_symmetry_group_IT_number 141
_space_group.IT_coordinate_system_code '2'
_symmetry_cell_setting 'tetragonal'
loop_
_space_group_symop_operation_xyz
x,y,z
1/4-y,3/4+x,1/4+z
-x,1/2-y,z
1/4+y,1/4-x,3/4+z
x,-y,-z
-x,1/2+y,-z
1/4+y,3/4+x,1/4-z
1/4-y,1/4-x,3/4-z
-x,-y,-z
3/4+y,1/4-x,3/4-z
x,1/2+y,-z
3/4-y,3/4+x,1/4-z
-x,y,z
x,1/2-y,z
3/4-y,1/4-x,3/4+z
3/4+y,3/4+x,1/4+z
1/2+x,1/2+y,1/2+z
3/4-y,1/4+x,3/4+z
1/2-x,-y,1/2+z
3/4+y,3/4-x,1/4+z
1/2+x,1/2-y,1/2-z
1/2-x,y,1/2-z
3/4+y,1/4+x,3/4-z
3/4-y,3/4-x,1/4-z
1/2-x,1/2-y,1/2-z
1/4+y,3/4-x,1/4-z
1/2+x,y,1/2-z
1/4-y,1/4+x,3/4-z
1/2-x,1/2+y,1/2+z
1/2+x,-y,1/2+z
1/4-y,3/4-x,1/4+z
1/4+y,1/4+x,3/4+z
loop_
_atom_site_type_symbol
_atom_site_label
_atom_site_fract_x
_atom_site_fract_y
_atom_site_fract_z
Si Si1 0.825429 0.575429 0.125000
Si Si2 0.335176 0.335678 0.255022
Si Si3 0.582627 0.949555 0.817076
Si Si4 0.347196 0.417288 0.868254
Si Si5 0.917393 0.912301 0.244024
O O1 0.739888 0.591027 0.134236
O O2 0.857244 0.618134 0.065405
O O3 0.350802 0.250000 0.252291
O O4 0.250000 0.355972 0.250000
O O5 0.378492 0.372157 0.197191
O O6 0.367690 0.368538 0.319407
O O7 0.500000 0.936456 0.842667
O O8 0.628426 0.996133 0.868340
O O9 0.580899 0.999043 0.753740
O O10 0.381486 0.377101 0.806979
O O11 0.000000 0.881473 0.234660
#
# Coordination Sequence:
#
# PCOD8320580 Si02
#       5
#    16  32  32  32  32
#     4  12  18  30  62  85  98 135 190 226 256 318
#     4  11  21  32  50  78 107 140 185 226 259 309
#     4   9  19  34  49  71 106 140 170 215 274 317
#     4  10  18  32  52  77 106 132 176 224 266 305
#     4   9  20  34  51  80 111 137 165 217 281 320
#
# _framework density 20.257477999999999
#
# number of rings (size 3 to 8) (size 9 to 14) (size 15 to 20)
#    1.333    0.667    2.222    3.333    0.000    0.444 
#    0.000    0.000    0.000    4.333    0.000    3.111 
#    0.000    0.000    0.000    0.000    0.000    0.000 
#
# Total GULP energy -892227.336606 kJ/mol
# GULP energy per Si atom -12392.046342 kJ/mol
# Density = 2.021137 g / cm^3
# Si number density = 20.257478 Si / 1000 Ang^3
#
#
#
# Elastic Constant Matrix: (Units=GPa)
#
#
# Indices 1 2 3 4 5 6 
#
# 1 43.6986 -3.0110 5.4825 0.0000 0.0000 0.0000
# 2 -3.0110 43.6986 5.4825 0.0000 0.0000 0.0000
# 3 5.4825 5.4825 58.6769 0.0000 0.0000 0.0000
# 4 0.0000 0.0000 0.0000 17.8409 0.0000 0.0000
# 5 0.0000 0.0000 0.0000 0.0000 17.8410 0.0000
# 6 0.0000 0.0000 0.0000 0.0000 0.0000 16.0471
#
#
#
# Elastic Compliance Matrix: (Units=1/GPa)
#
#
# Indices 1 2 3 4 5 6 
#
# 1 0.023311 0.001902 -0.002356 0.000000 0.000000 0.000000
# 2 0.001902 0.023311 -0.002356 0.000000 0.000000 0.000000
# 3 -0.002356 -0.002356 0.017483 0.000000 0.000000 0.000000
# 4 0.000000 0.000000 0.000000 0.056051 0.000000 0.000000
# 5 0.000000 0.000000 0.000000 0.000000 0.056051 0.000000
# 6 0.000000 0.000000 0.000000 0.000000 0.000000 0.062316
#
#
# Mechanical properties :
#
#
# Convention : Reuss Voigt Hill
#
# Bulk Modulus (GPa) = 17.09856 17.99803 17.54829
# Shear Modulus (GPa) = 18.96553 19.55382 19.25967
#
# Velocity S-wave (km/s) = 3.06310 3.11024 3.08676
# Velocity P-wave (km/s) = 4.57919 4.66927 4.62445
#
# Compressibility (1/GPa) = 0.05848446
#
# Stress axis : x y z
#
# Youngs Moduli (GPa) = 42.89895 42.89895 57.19944
#
# Poissons Ratio (x) = -0.08158 0.13475
# Poissons Ratio (y) = -0.08158 0.13475
# Poissons Ratio (z) = 0.10106 0.10106
#
# Static dielectric constant tensor:
#      x y z
#    x 3.288720 0.000000 0.000000 
#    y 0.000000 3.288720 0.000000 
#    z 0.000000 0.000000 3.672910 
# 
# 
# High freq. dielectric constant tensor:
#      x y z
#    x 1.758050 0.000000 0.000000 
#    y 0.000000 1.758050 0.000000 
#    z 0.000000 0.000000 1.802280 
# 
# From -- ./inp_files/10313.got.cif
#   From: 2010.03.12/outbox.cif.g09.slc.cpg/sg141_6_cif.got.tgz:10313.got - 2010.04.03 13:18:35.
