data_PCOD8320582
_publ_section_title
;
Structure prediction by ZEFSAII (Michael W. Deem and Ramdas Pophale) SiO2 
 PCOD8320582
Probable space group: I 41/A M D
;
_chemical_formula_sum "Si O2"
_cell_formula_units_Z 192
_cell_length_a 18.679270
_cell_length_b 18.679270
_cell_length_c 29.364489
_cell_angle_alpha 90.000000
_cell_angle_beta 90.000000
_cell_angle_gamma 90.000000
_cell_volume 10245.714430
_symmetry_space_group_name_H-M "I 41/A M D"
_symmetry_group_IT_number 141
_space_group.IT_coordinate_system_code '2'
_symmetry_cell_setting 'tetragonal'
loop_
_space_group_symop_operation_xyz
x,y,z
1/4-y,3/4+x,1/4+z
-x,1/2-y,z
1/4+y,1/4-x,3/4+z
x,-y,-z
-x,1/2+y,-z
1/4+y,3/4+x,1/4-z
1/4-y,1/4-x,3/4-z
-x,-y,-z
3/4+y,1/4-x,3/4-z
x,1/2+y,-z
3/4-y,3/4+x,1/4-z
-x,y,z
x,1/2-y,z
3/4-y,1/4-x,3/4+z
3/4+y,3/4+x,1/4+z
1/2+x,1/2+y,1/2+z
3/4-y,1/4+x,3/4+z
1/2-x,-y,1/2+z
3/4+y,3/4-x,1/4+z
1/2+x,1/2-y,1/2-z
1/2-x,y,1/2-z
3/4+y,1/4+x,3/4-z
3/4-y,3/4-x,1/4-z
1/2-x,1/2-y,1/2-z
1/4+y,3/4-x,1/4-z
1/2+x,y,1/2-z
1/4-y,1/4+x,3/4-z
1/2-x,1/2+y,1/2+z
1/2+x,-y,1/2+z
1/4-y,3/4-x,1/4+z
1/4+y,1/4+x,3/4+z
loop_
_atom_site_type_symbol
_atom_site_label
_atom_site_fract_x
_atom_site_fract_y
_atom_site_fract_z
Si Si1 0.665267 0.528444 0.746330
Si Si2 0.817697 0.095507 0.823758
Si Si3 0.732159 0.426227 0.407559
Si Si4 0.821373 0.750000 0.220875
Si Si5 0.920260 0.367221 0.629478
Si Si6 0.919542 0.829889 0.471185
Si Si7 0.584790 0.250000 0.804159
O O1 0.750000 0.538778 0.750000
O O2 0.644969 0.465240 0.709528
O O3 0.636449 0.509688 0.796924
O O4 0.632146 0.605761 0.735575
O O5 0.847712 0.097712 0.875000
O O6 0.826131 0.176987 0.807593
O O7 0.735266 0.074145 0.825463
O O8 0.794190 0.455811 0.375000
O O9 0.691209 0.371966 0.374736
O O10 0.750000 0.750000 0.250000
O O11 0.890763 0.750000 0.252530
O O12 0.917622 0.323262 0.583107
O O13 0.885250 0.319682 0.669662
O O14 0.000000 0.388461 0.643101
O O15 0.906491 0.750000 0.490897
O O16 0.000000 0.856971 0.486208
O O17 0.500000 0.250000 0.807128
#
# Coordination Sequence:
#
# PCOD8320582 Si02
#       7
#    32  32  32  16  32  32  16
#     4  10  20  36  56  80 115 151 189 238 293 352
#     4  10  21  38  54  81 116 152 201 246 297 349
#     4  10  20  36  56  80 112 142 184 241 286 342
#     4  12  22  36  60  84 108 154 212 252 294 364
#     4  10  18  32  54  79 109 140 178 232 288 340
#     4  10  20  35  56  86 116 143 183 238 296 359
#     4  10  20  34  52  80 110 142 190 238 300 336
#
# _framework density 18.739543000000001
#
# number of rings (size 3 to 8) (size 9 to 14) (size 15 to 20)
#    0.000    1.833    0.833    6.500    0.000    1.000 
#    6.000    0.833    0.000    0.000    0.000    1.167 
#    0.000    0.000    0.000    0.000    0.000    0.000 
#
# Total GULP energy -1189460.588811 kJ/mol
# GULP energy per Si atom -12390.214467 kJ/mol
# Density = 1.869689 g / cm^3
# Si number density = 18.739543 Si / 1000 Ang^3
#
#
#
# Elastic Constant Matrix: (Units=GPa)
#
#
# Indices 1 2 3 4 5 6 
#
# 1 96.2557 46.5139 40.8541 0.0000 0.0000 0.0000
# 2 46.5139 96.2568 40.8541 0.0000 0.0000 0.0000
# 3 40.8541 40.8541 103.9205 0.0000 0.0000 0.0000
# 4 0.0000 0.0000 0.0000 28.7423 0.0000 0.0000
# 5 0.0000 0.0000 0.0000 0.0000 28.7424 0.0000
# 6 0.0000 0.0000 0.0000 0.0000 0.0000 27.8068
#
#
#
# Elastic Compliance Matrix: (Units=1/GPa)
#
#
# Indices 1 2 3 4 5 6 
#
# 1 0.014571 -0.005533 -0.003553 0.000000 0.000000 0.000000
# 2 -0.005533 0.014571 -0.003553 0.000000 0.000000 0.000000
# 3 -0.003553 -0.003553 0.012416 0.000000 0.000000 0.000000
# 4 0.000000 0.000000 0.000000 0.034792 0.000000 0.000000
# 5 0.000000 0.000000 0.000000 0.000000 0.034792 0.000000
# 6 0.000000 0.000000 0.000000 0.000000 0.000000 0.035962
#
#
# Mechanical properties :
#
#
# Convention : Reuss Voigt Hill
#
# Bulk Modulus (GPa) = 61.42604 61.43081 61.42842
# Shear Modulus (GPa) = 28.12023 28.27237 28.19630
#
# Velocity S-wave (km/s) = 3.87794 3.88841 3.88318
# Velocity P-wave (km/s) = 7.27332 7.28095 7.27714
#
# Compressibility (1/GPa) = 0.01627974
#
# Stress axis : x y z
#
# Youngs Moduli (GPa) = 68.63085 68.63182 80.53944
#
# Poissons Ratio (x) = 0.37974 0.28616
# Poissons Ratio (y) = 0.37973 0.28615
# Poissons Ratio (z) = 0.24385 0.24384
#
# Static dielectric constant tensor:
#      x y z
#    x 3.372630 0.000000 0.000000 
#    y 0.000000 3.372630 0.000000 
#    z 0.000000 0.000000 3.696040 
# 
# 
# High freq. dielectric constant tensor:
#      x y z
#    x 1.718970 0.000000 0.000000 
#    y 0.000000 1.718970 0.000000 
#    z 0.000000 0.000000 1.727030 
# 
# From -- ./inp_files/14483.got.cif
#   From: 2010.03.12/outbox.cif.g09.slc.cpg/sg141_8_cif.got.tgz:14483.got - 2010.04.03 13:18:35.
