data_PCOD8320400
_publ_section_title
;
Structure prediction by ZEFSAII (Michael W. Deem and Ramdas Pophale) SiO2 
 PCOD8320400
Probable space group: I 4/M C M
;
_chemical_formula_sum "Si O2"
_cell_formula_units_Z 160
_cell_length_a 22.327948
_cell_length_b 22.327948
_cell_length_c 16.632586
_cell_angle_alpha 90.000000
_cell_angle_beta 90.000000
_cell_angle_gamma 90.000000
_cell_volume 8291.963883
_symmetry_space_group_name_H-M "I 4/M C M"
_symmetry_group_IT_number 140
_symmetry_cell_setting 'tetragonal'
loop_
_space_group_symop_operation_xyz
x,y,z
-y,x,z
-x,-y,z
y,-x,z
x,-y,1/2-z
-x,y,1/2-z
y,x,1/2-z
-y,-x,1/2-z
-x,-y,-z
y,-x,-z
x,y,-z
-y,x,-z
-x,y,1/2+z
x,-y,1/2+z
-y,-x,1/2+z
y,x,1/2+z
1/2+x,1/2+y,1/2+z
1/2-y,1/2+x,1/2+z
1/2-x,1/2-y,1/2+z
1/2+y,1/2-x,1/2+z
1/2+x,1/2-y,-z
1/2-x,1/2+y,-z
1/2+y,1/2+x,-z
1/2-y,1/2-x,-z
1/2-x,1/2-y,1/2-z
1/2+y,1/2-x,1/2-z
1/2+x,1/2+y,1/2-z
1/2-y,1/2+x,1/2-z
1/2-x,1/2+y,z
1/2+x,1/2-y,z
1/2-y,1/2-x,z
1/2+y,1/2+x,z
loop_
_atom_site_type_symbol
_atom_site_label
_atom_site_fract_x
_atom_site_fract_y
_atom_site_fract_z
Si Si1 0.008749 0.836961 0.908570
Si Si2 0.632526 0.616723 0.157011
Si Si3 0.781244 0.480756 0.661397
Si Si4 0.000775 0.403807 0.908926
Si Si5 0.757003 0.645363 0.906084
O O1 0.070689 0.866177 0.883876
O O2 0.954676 0.859927 0.852431
O O3 0.012122 0.765148 0.899645
O O4 0.994165 0.854209 0.000000
O O5 0.633143 0.633143 0.250000
O O6 0.686731 0.653559 0.114853
O O7 0.760613 0.500000 0.750000
O O8 0.846797 0.506943 0.647172
O O9 0.782459 0.409053 0.647870
O O10 0.054492 0.445508 0.876626
O O11 0.938581 0.438581 0.905150
O O12 0.015158 0.383989 0.000000
O O13 0.794324 0.705677 0.885491
O O14 0.763773 0.629119 0.000000
#
# Coordination Sequence:
#
# PCOD8320400 Si02
#       5
#    32  32  32  32  32
#     4  11  22  39  61  83 111 148 188 226 271 334
#     4  11  22  39  60  88 120 147 182 231 286 332
#     4  11  21  34  53  80 111 144 182 231 283 328
#     4   9  18  33  52  74 103 141 184 228 275 331
#     4  10  21  39  62  84 109 149 198 236 272 332
#
# _framework density 19.295791000000001
#
# number of rings (size 3 to 8) (size 9 to 14) (size 15 to 20)
#    0.000    1.600    0.000    9.000    0.000    4.000 
#    0.000    4.000    0.000    3.600    0.000    0.000 
#    0.000    0.000    0.000    0.000    0.000    0.000 
#
# Total GULP energy -992096.177354 kJ/mol
# GULP energy per Si atom -12401.202217 kJ/mol
# Density = 1.925187 g / cm^3
# Si number density = 19.295791 Si / 1000 Ang^3
#
#
#
# Elastic Constant Matrix: (Units=GPa)
#
#
# Indices 1 2 3 4 5 6 
#
# 1 119.0129 61.0623 35.9449 0.0000 0.0000 0.0000
# 2 61.0623 119.0129 35.9449 0.0000 0.0000 0.0000
# 3 35.9449 35.9449 94.7292 0.0000 0.0000 0.0000
# 4 0.0000 0.0000 0.0000 30.3376 0.0000 0.0000
# 5 0.0000 0.0000 0.0000 0.0000 30.3376 0.0000
# 6 0.0000 0.0000 0.0000 0.0000 0.0000 24.4378
#
#
#
# Elastic Compliance Matrix: (Units=1/GPa)
#
#
# Indices 1 2 3 4 5 6 
#
# 1 0.011900 -0.005356 -0.002483 0.000000 0.000000 0.000000
# 2 -0.005356 0.011900 -0.002483 0.000000 0.000000 0.000000
# 3 -0.002483 -0.002483 0.012441 0.000000 0.000000 0.000000
# 4 0.000000 0.000000 0.000000 0.032962 0.000000 0.000000
# 5 0.000000 0.000000 0.000000 0.000000 0.032962 0.000000
# 6 0.000000 0.000000 0.000000 0.000000 0.000000 0.040920
#
#
# Mechanical properties :
#
#
# Convention : Reuss Voigt Hill
#
# Bulk Modulus (GPa) = 64.11540 66.51769 65.31655
# Shear Modulus (GPa) = 29.59794 30.34278 29.97036
#
# Velocity S-wave (km/s) = 3.92076 3.96979 3.94535
# Velocity P-wave (km/s) = 7.33459 7.45384 7.39446
#
# Compressibility (1/GPa) = 0.01559688
#
# Stress axis : x y z
#
# Youngs Moduli (GPa) = 84.03100 84.03100 80.37917
#
# Poissons Ratio (x) = 0.45005 0.19961
# Poissons Ratio (y) = 0.45005 0.19961
# Poissons Ratio (z) = 0.20868 0.20868
#
# Static dielectric constant tensor:
#      x y z
#    x 3.545830 0.000000 0.000000 
#    y 0.000000 3.545830 0.000000 
#    z 0.000000 0.000000 3.646180 
# 
# 
# High freq. dielectric constant tensor:
#      x y z
#    x 1.749930 0.000000 0.000000 
#    y 0.000000 1.749930 0.000000 
#    z 0.000000 0.000000 1.753720 
# 
# From -- ./inp_files/4728.got.cif
#   From: 2010.06.25/outbox.cif.g09.slc.cpg/sg140_3_cif.got.tgz:4728.got - 2010.06.28 10:53:23.
