data_PCOD8320300
_publ_section_title
;
Structure prediction by ZEFSAII (Michael W. Deem and Ramdas Pophale) SiO2 
 PCOD8320300
Probable space group: I 4/M C M
;
_chemical_formula_sum "Si O2"
_cell_formula_units_Z 176
_cell_length_a 18.876829
_cell_length_b 18.876829
_cell_length_c 26.731439
_cell_angle_alpha 90.000000
_cell_angle_beta 90.000000
_cell_angle_gamma 90.000000
_cell_volume 9525.338577
_symmetry_space_group_name_H-M "I 4/M C M"
_symmetry_group_IT_number 140
_symmetry_cell_setting 'tetragonal'
loop_
_space_group_symop_operation_xyz
x,y,z
-y,x,z
-x,-y,z
y,-x,z
x,-y,1/2-z
-x,y,1/2-z
y,x,1/2-z
-y,-x,1/2-z
-x,-y,-z
y,-x,-z
x,y,-z
-y,x,-z
-x,y,1/2+z
x,-y,1/2+z
-y,-x,1/2+z
y,x,1/2+z
1/2+x,1/2+y,1/2+z
1/2-y,1/2+x,1/2+z
1/2-x,1/2-y,1/2+z
1/2+y,1/2-x,1/2+z
1/2+x,1/2-y,-z
1/2-x,1/2+y,-z
1/2+y,1/2+x,-z
1/2-y,1/2-x,-z
1/2-x,1/2-y,1/2-z
1/2+y,1/2-x,1/2-z
1/2+x,1/2+y,1/2-z
1/2-y,1/2+x,1/2-z
1/2-x,1/2+y,z
1/2+x,1/2-y,z
1/2-y,1/2-x,z
1/2+y,1/2+x,z
loop_
_atom_site_type_symbol
_atom_site_label
_atom_site_fract_x
_atom_site_fract_y
_atom_site_fract_z
Si Si1 0.154705 0.770085 0.391702
Si Si2 0.504679 0.793307 0.598863
Si Si3 0.951678 0.667343 0.701278
Si Si4 0.114276 0.497121 0.500000
Si Si5 0.162455 0.218918 0.702314
Si Si6 0.747931 0.865432 0.056745
O O1 0.194415 0.694415 0.386172
O O2 0.170044 0.821763 0.345274
O O3 0.183725 0.814306 0.439332
O O4 0.071758 0.758303 0.398227
O O5 0.499059 0.837592 0.650645
O O6 0.511260 0.842855 0.550621
O O7 0.433866 0.745884 0.592187
O O8 0.896395 0.603606 0.701293
O O9 0.914412 0.744401 0.701373
O O10 0.000000 0.659735 0.750000
O O11 0.050796 0.550796 0.500000
O O12 0.083196 0.416805 0.500000
O O13 0.167536 0.167536 0.750000
O O14 0.219453 0.280547 0.705722
O O15 0.679433 0.820568 0.075174
O O16 0.738648 0.891273 0.000000
#
# Coordination Sequence:
#
# PCOD8320300 Si02
#       6
#    32  32  32  16  32  32
#     4  10  21  36  57  86 115 149 198 252 292 338
#     4  12  22  37  60  87 118 156 199 243 296 355
#     4  11  23  38  58  85 119 160 198 236 290 359
#     4  11  24  38  54  82 124 167 196 230 286 355
#     4   9  17  33  55  79 110 145 186 241 294 335
#     4  10  20  36  59  84 115 155 195 241 296 352
#
# _framework density 18.477034
#
# number of rings (size 3 to 8) (size 9 to 14) (size 15 to 20)
#    0.000    1.545    2.727    3.273    1.273    3.091 
#    0.000    0.000    0.000    0.545    0.000    1.273 
#    0.000    0.000    0.000    0.000    0.000    0.000 
#
# Total GULP energy -1090982.328358 kJ/mol
# GULP energy per Si atom -12397.526459 kJ/mol
# Density = 1.843498 g / cm^3
# Si number density = 18.477034 Si / 1000 Ang^3
#
#
#
# Elastic Constant Matrix: (Units=GPa)
#
#
# Indices 1 2 3 4 5 6 
#
# 1 87.8300 61.0424 37.5832 0.0000 0.0000 0.0000
# 2 61.0424 87.8298 37.5831 0.0000 0.0000 0.0000
# 3 37.5832 37.5831 122.5225 0.0000 0.0000 0.0000
# 4 0.0000 0.0000 0.0000 27.5639 0.0000 0.0000
# 5 0.0000 0.0000 0.0000 0.0000 27.5637 0.0000
# 6 0.0000 0.0000 0.0000 0.0000 0.0000 27.4707
#
#
#
# Elastic Compliance Matrix: (Units=1/GPa)
#
#
# Indices 1 2 3 4 5 6 
#
# 1 0.022639 -0.014691 -0.002438 0.000000 0.000000 0.000000
# 2 -0.014691 0.022640 -0.002438 0.000000 0.000000 0.000000
# 3 -0.002438 -0.002438 0.009657 0.000000 0.000000 0.000000
# 4 0.000000 0.000000 0.000000 0.036279 0.000000 0.000000
# 5 0.000000 0.000000 0.000000 0.000000 0.036280 0.000000
# 6 0.000000 0.000000 0.000000 0.000000 0.000000 0.036402
#
#
# Mechanical properties :
#
#
# Convention : Reuss Voigt Hill
#
# Bulk Modulus (GPa) = 63.28486 63.39998 63.34242
# Shear Modulus (GPa) = 24.00386 27.31791 25.66088
#
# Velocity S-wave (km/s) = 3.60824 3.84927 3.73070
# Velocity P-wave (km/s) = 7.18916 7.35821 7.27418
#
# Compressibility (1/GPa) = 0.01580157
#
# Stress axis : x y z
#
# Youngs Moduli (GPa) = 44.17065 44.17058 103.54665
#
# Poissons Ratio (x) = 0.64892 0.25245
# Poissons Ratio (y) = 0.64893 0.25245
# Poissons Ratio (z) = 0.10769 0.10769
#
# Static dielectric constant tensor:
#      x y z
#    x 3.328170 0.000000 0.000000 
#    y 0.000000 3.328170 0.000000 
#    z 0.000000 0.000000 3.688800 
# 
# 
# High freq. dielectric constant tensor:
#      x y z
#    x 1.696000 0.000000 0.000000 
#    y 0.000000 1.696000 0.000000 
#    z 0.000000 0.000000 1.740520 
# 
# From -- ./inp_files/10693.got.cif
#   From: 2010.06.25/outbox.cif.g09.slc.cpg/sg140_6_cif.got.tgz:10693.got - 2010.06.28 10:53:23.
