data_PCOD8320429
_publ_section_title
;
Structure prediction by ZEFSAII (Michael W. Deem and Ramdas Pophale) SiO2 
 PCOD8320429
Probable space group: I 4/M C M
;
_chemical_formula_sum "Si O2"
_cell_formula_units_Z 160
_cell_length_a 23.244832
_cell_length_b 23.244832
_cell_length_c 12.997881
_cell_angle_alpha 90.000000
_cell_angle_beta 90.000000
_cell_angle_gamma 90.000000
_cell_volume 7023.043848
_symmetry_space_group_name_H-M "I 4/M C M"
_symmetry_group_IT_number 140
_symmetry_cell_setting 'tetragonal'
loop_
_space_group_symop_operation_xyz
x,y,z
-y,x,z
-x,-y,z
y,-x,z
x,-y,1/2-z
-x,y,1/2-z
y,x,1/2-z
-y,-x,1/2-z
-x,-y,-z
y,-x,-z
x,y,-z
-y,x,-z
-x,y,1/2+z
x,-y,1/2+z
-y,-x,1/2+z
y,x,1/2+z
1/2+x,1/2+y,1/2+z
1/2-y,1/2+x,1/2+z
1/2-x,1/2-y,1/2+z
1/2+y,1/2-x,1/2+z
1/2+x,1/2-y,-z
1/2-x,1/2+y,-z
1/2+y,1/2+x,-z
1/2-y,1/2-x,-z
1/2-x,1/2-y,1/2-z
1/2+y,1/2-x,1/2-z
1/2+x,1/2+y,1/2-z
1/2-y,1/2+x,1/2-z
1/2-x,1/2+y,z
1/2+x,1/2-y,z
1/2-y,1/2-x,z
1/2+y,1/2+x,z
loop_
_atom_site_type_symbol
_atom_site_label
_atom_site_fract_x
_atom_site_fract_y
_atom_site_fract_z
Si Si1 0.690472 0.398081 0.619776
Si Si2 0.808650 0.539844 0.113557
Si Si3 0.912287 0.678861 0.320305
Si Si4 0.918529 0.961437 0.376868
Si Si5 0.823611 0.230442 0.880037
O O1 0.680243 0.389478 0.500000
O O2 0.744750 0.438742 0.638876
O O3 0.637751 0.432201 0.670563
O O4 0.691792 0.332925 0.664848
O O5 0.813086 0.470614 0.115023
O O6 0.843611 0.570390 0.205367
O O7 0.829000 0.560652 0.000000
O O8 0.871037 0.628964 0.368247
O O9 0.877450 0.739573 0.320294
O O10 0.917092 0.962475 0.500000
O O11 0.972919 0.924088 0.337174
O O12 0.765668 0.265668 0.861415
O O13 0.840971 0.229760 0.000000
#
# Coordination Sequence:
#
# PCOD8320429 Si02
#       5
#    32  32  32  32  32
#     4   9  18  30  50  82 119 161 203 250 302 356
#     4  10  22  39  60  90 124 157 199 250 309 368
#     4  10  22  40  63  91 123 161 204 249 301 366
#     4   8  14  24  40  68 106 150 201 248 288 334
#     4   9  18  33  55  85 121 161 204 248 296 354
#
# _framework density 22.782143999999999
#
# number of rings (size 3 to 8) (size 9 to 14) (size 15 to 20)
#    0.000    2.800    0.000    1.200    2.800    3.200 
#    0.000    4.000    0.000    4.800    0.000    5.600 
#    0.000    0.000    0.000    0.000    0.000    0.000 
#
# Total GULP energy -991382.302173 kJ/mol
# GULP energy per Si atom -12392.278777 kJ/mol
# Density = 2.273029 g / cm^3
# Si number density = 22.782144 Si / 1000 Ang^3
#
#
#
# Elastic Constant Matrix: (Units=GPa)
#
#
# Indices 1 2 3 4 5 6 
#
# 1 114.6051 63.0875 3.7365 0.0000 0.0000 0.0000
# 2 63.0875 114.6051 3.7365 0.0000 0.0000 0.0000
# 3 3.7365 3.7365 68.5497 0.0000 0.0000 0.0000
# 4 0.0000 0.0000 0.0000 20.0957 0.0000 0.0000
# 5 0.0000 0.0000 0.0000 0.0000 20.0957 0.0000
# 6 0.0000 0.0000 0.0000 0.0000 0.0000 31.1135
#
#
#
# Elastic Compliance Matrix: (Units=1/GPa)
#
#
# Indices 1 2 3 4 5 6 
#
# 1 0.012526 -0.006885 -0.000307 0.000000 0.000000 0.000000
# 2 -0.006885 0.012526 -0.000307 0.000000 0.000000 0.000000
# 3 -0.000307 -0.000307 0.014621 0.000000 0.000000 0.000000
# 4 0.000000 0.000000 0.000000 0.049762 0.000000 0.000000
# 5 0.000000 0.000000 0.000000 0.000000 0.049762 0.000000
# 6 0.000000 0.000000 0.000000 0.000000 0.000000 0.032140
#
#
# Mechanical properties :
#
#
# Convention : Reuss Voigt Hill
#
# Bulk Modulus (GPa) = 40.53028 48.76452 44.64740
# Shear Modulus (GPa) = 25.69885 29.40763 27.55324
#
# Velocity S-wave (km/s) = 3.36225 3.59670 3.48145
# Velocity P-wave (km/s) = 5.73603 6.22089 5.98337
#
# Compressibility (1/GPa) = 0.02467291
#
# Stress axis : x y z
#
# Youngs Moduli (GPa) = 79.83558 79.83558 68.39256
#
# Poissons Ratio (x) = 0.54968 0.02103
# Poissons Ratio (y) = 0.54968 0.02103
# Poissons Ratio (z) = 0.02455 0.02455
#
# Static dielectric constant tensor:
#      x y z
#    x 4.020780 0.000000 0.000000 
#    y 0.000000 4.020780 0.000000 
#    z 0.000000 0.000000 4.189250 
# 
# 
# High freq. dielectric constant tensor:
#      x y z
#    x 1.883350 0.000000 0.000000 
#    y 0.000000 1.883350 0.000000 
#    z 0.000000 0.000000 1.920930 
# 
# From -- ./inp_files/4766.got.cif
#   From: 2010.06.25/outbox.cif.g09.slc.cpg/sg140_3_cif.got.tgz:4766.got - 2010.06.28 10:53:23.
