data_PCOD8320599
_publ_section_title
;
Structure prediction by ZEFSAII (Michael W. Deem and Ramdas Pophale) SiO2 
 PCOD8320599
Probable space group: I 41/A M D
;
_chemical_formula_sum "Si O2"
_cell_formula_units_Z 192
_cell_length_a 22.259649
_cell_length_b 22.259649
_cell_length_c 23.278963
_cell_angle_alpha 90.000000
_cell_angle_beta 90.000000
_cell_angle_gamma 90.000000
_cell_volume 11534.539320
_symmetry_space_group_name_H-M "I 41/A M D"
_symmetry_group_IT_number 141
_space_group.IT_coordinate_system_code '2'
_symmetry_cell_setting 'tetragonal'
loop_
_space_group_symop_operation_xyz
x,y,z
1/4-y,3/4+x,1/4+z
-x,1/2-y,z
1/4+y,1/4-x,3/4+z
x,-y,-z
-x,1/2+y,-z
1/4+y,3/4+x,1/4-z
1/4-y,1/4-x,3/4-z
-x,-y,-z
3/4+y,1/4-x,3/4-z
x,1/2+y,-z
3/4-y,3/4+x,1/4-z
-x,y,z
x,1/2-y,z
3/4-y,1/4-x,3/4+z
3/4+y,3/4+x,1/4+z
1/2+x,1/2+y,1/2+z
3/4-y,1/4+x,3/4+z
1/2-x,-y,1/2+z
3/4+y,3/4-x,1/4+z
1/2+x,1/2-y,1/2-z
1/2-x,y,1/2-z
3/4+y,1/4+x,3/4-z
3/4-y,3/4-x,1/4-z
1/2-x,1/2-y,1/2-z
1/4+y,3/4-x,1/4-z
1/2+x,y,1/2-z
1/4-y,1/4+x,3/4-z
1/2-x,1/2+y,1/2+z
1/2+x,-y,1/2+z
1/4-y,3/4-x,1/4+z
1/4+y,1/4+x,3/4+z
loop_
_atom_site_type_symbol
_atom_site_label
_atom_site_fract_x
_atom_site_fract_y
_atom_site_fract_z
Si Si1 0.432811 0.178035 0.563937
Si Si2 0.430345 0.820752 0.666617
Si Si3 0.651997 0.096198 0.265354
Si Si4 0.237360 0.318672 0.445830
Si Si5 0.122236 0.817791 0.951050
Si Si6 0.346837 0.484735 0.091032
O O1 0.405134 0.155134 0.625000
O O2 0.500000 0.154710 0.557829
O O3 0.429714 0.250000 0.564922
O O4 0.399098 0.149370 0.509296
O O5 0.500000 0.837909 0.673182
O O6 0.419539 0.750000 0.670461
O O7 0.392241 0.849645 0.718004
O O8 0.405300 0.847858 0.606289
O O9 0.609219 0.040731 0.246895
O O10 0.697705 0.082392 0.318389
O O11 0.691515 0.115244 0.211066
O O12 0.212437 0.250000 0.447766
O O13 0.307397 0.319393 0.455026
O O14 0.227772 0.346060 0.382686
O O15 0.097089 0.750000 0.951178
O O16 0.287292 0.462709 0.125000
#
# Coordination Sequence:
#
# PCOD8320599 Si02
#       6
#    32  32  32  32  32  32
#     4   8  13  22  38  61  89 120 153 190 232 281
#     4  10  19  30  47  74 106 136 165 202 256 319
#     4  10  19  33  51  73  99 130 171 218 262 299
#     4  10  19  32  50  73  99 129 167 211 256 306
#     4   9  16  27  43  66  96 127 160 197 238 295
#     4   9  19  34  52  71  96 130 174 222 259 300
#
# _framework density 16.645658000000001
#
# number of rings (size 3 to 8) (size 9 to 14) (size 15 to 20)
#    0.000    2.667    1.667    1.500    0.000    2.667 
#    0.000    2.500    0.000    0.000    0.000    8.167 
#    0.000    8.000    0.000    0.000    0.000    0.000 
#
# Total GULP energy -1189356.193558 kJ/mol
# GULP energy per Si atom -12389.127016 kJ/mol
# Density = 1.660777 g / cm^3
# Si number density = 16.645658 Si / 1000 Ang^3
#
#
#
# Elastic Constant Matrix: (Units=GPa)
#
#
# Indices 1 2 3 4 5 6 
#
# 1 75.0881 41.0779 46.6817 0.0000 0.0000 0.0000
# 2 41.0779 75.0874 46.6815 0.0000 0.0000 0.0000
# 3 46.6817 46.6815 105.5197 0.0000 0.0000 0.0000
# 4 0.0000 0.0000 0.0000 16.9686 0.0000 0.0000
# 5 0.0000 0.0000 0.0000 0.0000 16.9681 0.0000
# 6 0.0000 0.0000 0.0000 0.0000 0.0000 18.2481
#
#
#
# Elastic Compliance Matrix: (Units=1/GPa)
#
#
# Indices 1 2 3 4 5 6 
#
# 1 0.021380 -0.008023 -0.005909 0.000000 0.000000 0.000000
# 2 -0.008023 0.021381 -0.005910 0.000000 0.000000 0.000000
# 3 -0.005909 -0.005910 0.014706 0.000000 0.000000 0.000000
# 4 0.000000 0.000000 0.000000 0.058933 0.000000 0.000000
# 5 0.000000 0.000000 0.000000 0.000000 0.058934 0.000000
# 6 0.000000 0.000000 0.000000 0.000000 0.000000 0.054800
#
#
# Mechanical properties :
#
#
# Convention : Reuss Voigt Hill
#
# Bulk Modulus (GPa) = 56.23219 58.28638 57.25929
# Shear Modulus (GPa) = 18.13271 18.52056 18.32663
#
# Velocity S-wave (km/s) = 3.30409 3.33924 3.32171
# Velocity P-wave (km/s) = 6.95782 7.06819 7.01322
#
# Compressibility (1/GPa) = 0.01778341
#
# Stress axis : x y z
#
# Youngs Moduli (GPa) = 46.77168 46.77117 68.00135
#
# Poissons Ratio (x) = 0.37523 0.40185
# Poissons Ratio (y) = 0.37523 0.40186
# Poissons Ratio (z) = 0.27640 0.27640
#
# Static dielectric constant tensor:
#      x y z
#    x 3.023460 0.000000 0.000000 
#    y 0.000000 3.023470 0.000000 
#    z 0.000000 0.000000 3.511560 
# 
# 
# High freq. dielectric constant tensor:
#      x y z
#    x 1.618420 0.000000 0.000000 
#    y 0.000000 1.618420 0.000000 
#    z 0.000000 0.000000 1.658910 
# 
# From -- ./inp_files/11726.got.cif
#   From: 2010.03.12/outbox.cif.g09.slc.cpg/sg141_6_cif.got.tgz:11726.got - 2010.04.03 13:18:35.
