data_PCOD8320761
_publ_section_title
;
Structure prediction by ZEFSAII (Michael W. Deem and Ramdas Pophale) SiO2 
 PCOD8320761
Probable space group: I 41/A M D
;
_chemical_formula_sum "Si O2"
_cell_formula_units_Z 160
_cell_length_a 26.463208
_cell_length_b 26.463208
_cell_length_c 11.798749
_cell_angle_alpha 90.000000
_cell_angle_beta 90.000000
_cell_angle_gamma 90.000000
_cell_volume 8262.680179
_symmetry_space_group_name_H-M "I 41/A M D"
_symmetry_group_IT_number 141
_space_group.IT_coordinate_system_code '2'
_symmetry_cell_setting 'tetragonal'
loop_
_space_group_symop_operation_xyz
x,y,z
1/4-y,3/4+x,1/4+z
-x,1/2-y,z
1/4+y,1/4-x,3/4+z
x,-y,-z
-x,1/2+y,-z
1/4+y,3/4+x,1/4-z
1/4-y,1/4-x,3/4-z
-x,-y,-z
3/4+y,1/4-x,3/4-z
x,1/2+y,-z
3/4-y,3/4+x,1/4-z
-x,y,z
x,1/2-y,z
3/4-y,1/4-x,3/4+z
3/4+y,3/4+x,1/4+z
1/2+x,1/2+y,1/2+z
3/4-y,1/4+x,3/4+z
1/2-x,-y,1/2+z
3/4+y,3/4-x,1/4+z
1/2+x,1/2-y,1/2-z
1/2-x,y,1/2-z
3/4+y,1/4+x,3/4-z
3/4-y,3/4-x,1/4-z
1/2-x,1/2-y,1/2-z
1/4+y,3/4-x,1/4-z
1/2+x,y,1/2-z
1/4-y,1/4+x,3/4-z
1/2-x,1/2+y,1/2+z
1/2+x,-y,1/2+z
1/4-y,3/4-x,1/4+z
1/4+y,1/4+x,3/4+z
loop_
_atom_site_type_symbol
_atom_site_label
_atom_site_fract_x
_atom_site_fract_y
_atom_site_fract_z
Si Si1 0.174099 0.356534 0.095710
Si Si2 0.227464 0.691384 0.550389
Si Si3 0.361791 0.309070 0.630751
Si Si4 0.799361 0.637331 0.317719
Si Si5 0.627032 0.307227 0.194409
O O1 0.232010 0.341654 0.123453
O O2 0.162967 0.416817 0.091990
O O3 0.134476 0.333685 0.184673
O O4 0.169637 0.331150 0.972963
O O5 0.244957 0.750000 0.536354
O O6 0.218029 0.666331 0.429204
O O7 0.177167 0.688052 0.621944
O O8 0.367047 0.250000 0.622123
O O9 0.417919 0.332082 0.625000
O O10 0.333357 0.323701 0.746303
O O11 0.750000 0.618933 0.250000
O O12 0.581753 0.331753 0.125000
O O13 0.611574 0.250000 0.218181
#
# Coordination Sequence:
#
# PCOD8320761 Si02
#       5
#    32  32  32  32  32
#     4  11  22  39  62  89 123 157 206 260 309 362
#     4  11  22  38  66  92 117 163 212 255 308 370
#     4  10  21  35  55  85 118 156 198 246 301 362
#     4  11  22  37  62  90 127 160 201 253 310 373
#     4  11  23  41  64  91 124 162 208 261 313 372
#
# _framework density 19.364177000000002
#
# number of rings (size 3 to 8) (size 9 to 14) (size 15 to 20)
#    0.000    1.200    4.000    3.000    0.000    2.800 
#    0.000    0.000    4.400    2.400    0.000    0.000 
#    0.000    0.000    0.000    0.000    0.000    0.000 
#
# Total GULP energy -991972.992812 kJ/mol
# GULP energy per Si atom -12399.662410 kJ/mol
# Density = 1.932010 g / cm^3
# Si number density = 19.364177 Si / 1000 Ang^3
#
#
#
# Elastic Constant Matrix: (Units=GPa)
#
#
# Indices 1 2 3 4 5 6 
#
# 1 111.6536 46.7973 6.5648 0.0000 0.0000 0.0000
# 2 46.7973 111.6652 6.5706 0.0000 0.0000 0.0000
# 3 6.5648 6.5706 63.1485 0.0000 0.0000 0.0000
# 4 0.0000 0.0000 0.0000 21.6564 0.0000 0.0000
# 5 0.0000 0.0000 0.0000 0.0000 21.6598 0.0000
# 6 0.0000 0.0000 0.0000 0.0000 0.0000 28.4869
#
#
#
# Elastic Compliance Matrix: (Units=1/GPa)
#
#
# Indices 1 2 3 4 5 6 
#
# 1 0.010892 -0.004526 -0.000661 0.000000 0.000000 0.000000
# 2 -0.004526 0.010891 -0.000663 0.000000 0.000000 0.000000
# 3 -0.000661 -0.000663 0.015973 0.000000 0.000000 0.000000
# 4 0.000000 0.000000 0.000000 0.046176 0.000000 0.000000
# 5 0.000000 0.000000 0.000000 0.000000 0.046168 0.000000
# 6 0.000000 0.000000 0.000000 0.000000 0.000000 0.035104
#
#
# Mechanical properties :
#
#
# Convention : Reuss Voigt Hill
#
# Bulk Modulus (GPa) = 38.37790 45.14808 41.76299
# Shear Modulus (GPa) = 26.94115 29.46295 28.20205
#
# Velocity S-wave (km/s) = 3.73404 3.90490 3.82043
# Velocity P-wave (km/s) = 6.20103 6.61036 6.40896
#
# Compressibility (1/GPa) = 0.02605666
#
# Stress axis : x y z
#
# Youngs Moduli (GPa) = 91.81007 91.81871 62.60403
#
# Poissons Ratio (x) = 0.41555 0.04141
# Poissons Ratio (y) = 0.41551 0.04149
# Poissons Ratio (z) = 0.06072 0.06085
#
# Static dielectric constant tensor:
#      x y z
#    x 3.659140 0.000000 0.000000 
#    y 0.000000 3.659140 0.000000 
#    z 0.000000 0.000000 3.755810 
# 
# 
# High freq. dielectric constant tensor:
#      x y z
#    x 1.749620 0.000000 0.000000 
#    y 0.000000 1.749620 0.000000 
#    z 0.000000 0.000000 1.771080 
# 
# From -- ./inp_files/4864.got.cif
#   From: 2010.03.12/outbox.cif.g09.slc.cpg/sg141_3_cif.got.tgz:4864.got - 2010.04.03 13:18:35.
