data_PCOD8320992
_publ_section_title
;
Structure prediction by ZEFSAII (Michael W. Deem and Ramdas Pophale) SiO2 
 PCOD8320992
Probable space group: I 41/A C D
;
_chemical_formula_sum "Si O2"
_cell_formula_units_Z 240
_cell_length_a 25.623834
_cell_length_b 25.623834
_cell_length_c 20.787019
_cell_angle_alpha 90.000000
_cell_angle_beta 90.000000
_cell_angle_gamma 90.000000
_cell_volume 13648.358996
_symmetry_space_group_name_H-M "I 41/A C D"
_symmetry_group_IT_number 142
_space_group.IT_coordinate_system_code '2'
_symmetry_cell_setting 'tetragonal'
loop_
_space_group_symop_operation_xyz
x,y,z
1/4-y,3/4+x,1/4+z
-x,1/2-y,z
1/4+y,1/4-x,3/4+z
x,-y,1/2-z
1/2-x,y,-z
3/4+y,1/4+x,1/4-z
1/4-y,1/4-x,1/4-z
-x,-y,-z
3/4+y,1/4-x,3/4-z
x,1/2+y,-z
3/4-y,3/4+x,1/4-z
-x,y,1/2+z
1/2+x,-y,z
1/4-y,3/4-x,3/4+z
3/4+y,3/4+x,3/4+z
1/2+x,1/2+y,1/2+z
3/4-y,1/4+x,3/4+z
1/2-x,-y,1/2+z
3/4+y,3/4-x,1/4+z
1/2+x,1/2-y,-z
-x,1/2+y,1/2-z
1/4+y,3/4+x,3/4-z
3/4-y,3/4-x,3/4-z
1/2-x,1/2-y,1/2-z
1/4+y,3/4-x,1/4-z
1/2+x,y,1/2-z
1/4-y,1/4+x,3/4-z
1/2-x,1/2+y,z
x,1/2-y,1/2+z
3/4-y,1/4-x,1/4+z
1/4+y,1/4+x,1/4+z
loop_
_atom_site_type_symbol
_atom_site_label
_atom_site_fract_x
_atom_site_fract_y
_atom_site_fract_z
Si Si1 0.967492 0.828381 0.618736
Si Si2 0.337149 0.659564 0.951437
Si Si3 0.963560 0.370683 0.626890
Si Si4 0.742848 0.678785 0.348406
Si Si5 0.160390 0.154302 0.225289
Si Si6 0.927829 0.177829 0.625000
Si Si7 0.707160 0.755062 0.045509
Si Si8 0.017322 0.410187 0.987557
O O1 0.934357 0.776039 0.608113
O O2 0.941785 0.864335 0.672940
O O3 0.968572 0.857614 0.550634
O O4 0.294228 0.646425 0.896795
O O5 0.355956 0.603041 0.977751
O O6 0.312589 0.693421 0.008656
O O7 0.909215 0.340786 0.625000
O O8 0.968020 0.402748 0.561396
O O9 0.011225 0.330802 0.639223
O O10 0.964419 0.411404 0.686766
O O11 0.789270 0.642386 0.319773
O O12 0.768190 0.726888 0.386936
O O13 0.709584 0.701757 0.289712
O O14 0.107359 0.162063 0.185253
O O15 0.172058 0.205656 0.267602
O O16 0.750000 0.726503 0.000000
#
# Coordination Sequence:
#
# PCOD8320992 Si02
#       8
#    32  32  32  32  32  16  32  32
#     4  10  20  32  46  71 110 156 183 213 256 319
#     4  10  20  33  51  77 108 141 184 224 276 327
#     4  11  22  34  52  79 115 152 184 221 269 334
#     4  10  20  35  53  75 108 139 181 232 274 325
#     4  11  17  32  53  73 106 140 180 226 269 327
#     4  10  19  32  48  80 112 146 178 210 266 322
#     4  10  20  35  53  76 109 145 182 232 269 318
#     4  10  21  33  51  75 106 145 186 221 265 324
#
# _framework density 17.584531999999999
#
# number of rings (size 3 to 8) (size 9 to 14) (size 15 to 20)
#    0.000    1.733    5.333    0.600    1.867    0.000 
#    2.400    0.000    0.000    0.000    0.000    0.000 
#   22.000    0.000    0.000    0.000    0.000    0.000 
#
# Total GULP energy -1487631.420956 kJ/mol
# GULP energy per Si atom -12396.928508 kJ/mol
# Density = 1.754451 g / cm^3
# Si number density = 17.584532 Si / 1000 Ang^3
#
#
#
# Elastic Constant Matrix: (Units=GPa)
#
#
# Indices 1 2 3 4 5 6 
#
# 1 91.5314 45.9672 46.4859 0.0000 0.0000 0.0000
# 2 45.9672 91.5272 46.4839 0.0000 0.0000 0.0000
# 3 46.4859 46.4839 88.0201 0.0000 0.0000 0.0000
# 4 0.0000 0.0000 0.0000 28.2961 0.0000 0.0000
# 5 0.0000 0.0000 0.0000 0.0000 28.2961 0.0000
# 6 0.0000 0.0000 0.0000 0.0000 0.0000 19.1518
#
#
#
# Elastic Compliance Matrix: (Units=1/GPa)
#
#
# Indices 1 2 3 4 5 6 
#
# 1 0.016630 -0.005318 -0.005974 0.000000 0.000000 0.000000
# 2 -0.005318 0.016631 -0.005974 0.000000 0.000000 0.000000
# 3 -0.005974 -0.005974 0.017671 0.000000 0.000000 0.000000
# 4 0.000000 0.000000 0.000000 0.035341 0.000000 0.000000
# 5 0.000000 0.000000 0.000000 0.000000 0.035341 0.000000
# 6 0.000000 0.000000 0.000000 0.000000 0.000000 0.052214
#
#
# Mechanical properties :
#
#
# Convention : Reuss Voigt Hill
#
# Bulk Modulus (GPa) = 60.97917 60.99475 60.98696
# Shear Modulus (GPa) = 23.38343 23.95825 23.67084
#
# Velocity S-wave (km/s) = 3.65056 3.69516 3.67293
# Velocity P-wave (km/s) = 7.24719 7.27788 7.26255
#
# Compressibility (1/GPa) = 0.01639904
#
# Stress axis : x y z
#
# Youngs Moduli (GPa) = 60.13212 60.13024 56.58886
#
# Poissons Ratio (x) = 0.31976 0.33809
# Poissons Ratio (y) = 0.31977 0.33807
# Poissons Ratio (z) = 0.35926 0.35923
#
# Static dielectric constant tensor:
#      x y z
#    x 3.281290 0.000000 0.000000 
#    y 0.000000 3.281280 0.000000 
#    z 0.000000 0.000000 3.386140 
# 
# 
# High freq. dielectric constant tensor:
#      x y z
#    x 1.657780 0.000000 0.000000 
#    y 0.000000 1.657780 0.000000 
#    z 0.000000 0.000000 1.692950 
# 
# From -- ./inp_files/9316.got.cif
#   From: 2010.03.12/outbox.cif.g09.slc.cpg/sg142_5_cif.got.tgz:9316.got - 2010.04.03 13:27:16.
