data_PCOD8320087
_publ_section_title
;
Structure prediction by ZEFSAII (Michael W. Deem and Ramdas Pophale) SiO2 
 PCOD8320087
Probable space group: I 4/M C M
;
_chemical_formula_sum "Si O2"
_cell_formula_units_Z 192
_cell_length_a 26.448211
_cell_length_b 26.448211
_cell_length_c 14.795447
_cell_angle_alpha 90.000000
_cell_angle_beta 90.000000
_cell_angle_gamma 90.000000
_cell_volume 10349.531544
_symmetry_space_group_name_H-M "I 4/M C M"
_symmetry_group_IT_number 140
_symmetry_cell_setting 'tetragonal'
loop_
_space_group_symop_operation_xyz
x,y,z
-y,x,z
-x,-y,z
y,-x,z
x,-y,1/2-z
-x,y,1/2-z
y,x,1/2-z
-y,-x,1/2-z
-x,-y,-z
y,-x,-z
x,y,-z
-y,x,-z
-x,y,1/2+z
x,-y,1/2+z
-y,-x,1/2+z
y,x,1/2+z
1/2+x,1/2+y,1/2+z
1/2-y,1/2+x,1/2+z
1/2-x,1/2-y,1/2+z
1/2+y,1/2-x,1/2+z
1/2+x,1/2-y,-z
1/2-x,1/2+y,-z
1/2+y,1/2+x,-z
1/2-y,1/2-x,-z
1/2-x,1/2-y,1/2-z
1/2+y,1/2-x,1/2-z
1/2+x,1/2+y,1/2-z
1/2-y,1/2+x,1/2-z
1/2-x,1/2+y,z
1/2+x,1/2-y,z
1/2-y,1/2-x,z
1/2+y,1/2+x,z
loop_
_atom_site_type_symbol
_atom_site_label
_atom_site_fract_x
_atom_site_fract_y
_atom_site_fract_z
Si Si1 0.752196 0.833122 0.000000
Si Si2 0.614264 0.193492 0.148813
Si Si3 0.421943 0.341667 0.241462
Si Si4 0.401022 0.766344 0.674335
Si Si5 0.838607 0.995780 0.602681
Si Si6 0.781911 0.495338 0.399583
Si Si7 0.167918 0.751365 0.500000
O O1 0.747861 0.868208 0.912436
O O2 0.707408 0.792593 0.000000
O O3 0.808333 0.807943 0.000000
O O4 0.641739 0.141739 0.114562
O O5 0.630249 0.200087 0.253939
O O6 0.553328 0.191296 0.145332
O O7 0.633581 0.240870 0.088105
O O8 0.368092 0.368092 0.250000
O O9 0.414869 0.282030 0.235050
O O10 0.452621 0.357975 0.150709
O O11 0.450440 0.357419 0.333794
O O12 0.452245 0.796750 0.649158
O O13 0.860242 0.992277 0.500000
O O14 0.778365 0.993075 0.600674
O O15 0.803577 0.497679 0.500000
O O16 0.216043 0.716043 0.500000
#
# Coordination Sequence:
#
# PCOD8320087 Si02
#       7
#    16  32  32  32  32  32  16
#     4  11  24  39  52  74 117 155 194 231 267 334
#     4  11  21  35  57  82 113 150 191 230 279 334
#     4  10  21  34  53  84 109 137 185 236 276 337
#     4  11  22  37  54  82 110 149 190 230 287 325
#     4   9  19  36  54  75 107 142 178 228 290 334
#     4  10  18  35  57  76 106 145 182 234 280 322
#     4   9  22  37  50  76 112 156 194 229 268 323
#
# _framework density 18.551563999999999
#
# number of rings (size 3 to 8) (size 9 to 14) (size 15 to 20)
#    0.000    1.833    3.333    1.000    3.500    0.667 
#    0.000    2.500    0.000    4.000    0.000    4.667 
#    0.000   12.000    0.000    0.000    0.000    0.000 
#
# Total GULP energy -1189476.926392 kJ/mol
# GULP energy per Si atom -12390.384650 kJ/mol
# Density = 1.850934 g / cm^3
# Si number density = 18.551564 Si / 1000 Ang^3
#
#
#
# Elastic Constant Matrix: (Units=GPa)
#
#
# Indices 1 2 3 4 5 6 
#
# 1 69.0853 28.1550 31.4724 0.0000 0.0000 0.0000
# 2 28.1550 69.0853 31.4725 0.0000 0.0000 0.0000
# 3 31.4724 31.4725 155.0110 0.0000 0.0000 0.0000
# 4 0.0000 0.0000 0.0000 16.4541 0.0000 0.0000
# 5 0.0000 0.0000 0.0000 0.0000 16.4552 0.0000
# 6 0.0000 0.0000 0.0000 0.0000 0.0000 21.4967
#
#
#
# Elastic Compliance Matrix: (Units=1/GPa)
#
#
# Indices 1 2 3 4 5 6 
#
# 1 0.018136 -0.006296 -0.002404 0.000000 0.000000 0.000000
# 2 -0.006296 0.018136 -0.002404 0.000000 0.000000 0.000000
# 3 -0.002404 -0.002404 0.007427 0.000000 0.000000 0.000000
# 4 0.000000 0.000000 0.000000 0.060775 0.000000 0.000000
# 5 0.000000 0.000000 0.000000 0.000000 0.060771 0.000000
# 6 0.000000 0.000000 0.000000 0.000000 0.000000 0.046519
#
#
# Mechanical properties :
#
#
# Convention : Reuss Voigt Hill
#
# Bulk Modulus (GPa) = 46.53007 52.82014 49.67511
# Shear Modulus (GPa) = 20.73527 24.35333 22.54430
#
# Velocity S-wave (km/s) = 3.34684 3.62710 3.48979
# Velocity P-wave (km/s) = 6.33017 6.78786 6.56301
#
# Compressibility (1/GPa) = 0.02149148
#
# Stress axis : x y z
#
# Youngs Moduli (GPa) = 55.13956 55.13954 134.63846
#
# Poissons Ratio (x) = 0.34715 0.32366
# Poissons Ratio (y) = 0.34715 0.32366
# Poissons Ratio (z) = 0.13255 0.13255
#
# Static dielectric constant tensor:
#      x y z
#    x 3.238640 0.000000 0.000000 
#    y 0.000000 3.238650 0.000000 
#    z 0.000000 0.000000 3.794830 
# 
# 
# High freq. dielectric constant tensor:
#      x y z
#    x 1.689250 0.000000 0.000000 
#    y 0.000000 1.689250 0.000000 
#    z 0.000000 0.000000 1.746980 
# 
# From -- ./inp_files/5222.got.cif
#   From: 2010.06.25/outbox.cif.g09.slc.cpg/sg140_3_cif.got.tgz:5222.got - 2010.06.28 10:53:23.
