data_PCOD8320453
_publ_section_title
;
Structure prediction by ZEFSAII (Michael W. Deem and Ramdas Pophale) SiO2 
 PCOD8320453
Probable space group: I 4/M C M
;
_chemical_formula_sum "Si O2"
_cell_formula_units_Z 104
_cell_length_a 18.580495
_cell_length_b 18.580495
_cell_length_c 15.081385
_cell_angle_alpha 90.000000
_cell_angle_beta 90.000000
_cell_angle_gamma 90.000000
_cell_volume 5206.618850
_symmetry_space_group_name_H-M "I 4/M C M"
_symmetry_group_IT_number 140
_symmetry_cell_setting 'tetragonal'
loop_
_space_group_symop_operation_xyz
x,y,z
-y,x,z
-x,-y,z
y,-x,z
x,-y,1/2-z
-x,y,1/2-z
y,x,1/2-z
-y,-x,1/2-z
-x,-y,-z
y,-x,-z
x,y,-z
-y,x,-z
-x,y,1/2+z
x,-y,1/2+z
-y,-x,1/2+z
y,x,1/2+z
1/2+x,1/2+y,1/2+z
1/2-y,1/2+x,1/2+z
1/2-x,1/2-y,1/2+z
1/2+y,1/2-x,1/2+z
1/2+x,1/2-y,-z
1/2-x,1/2+y,-z
1/2+y,1/2+x,-z
1/2-y,1/2-x,-z
1/2-x,1/2-y,1/2-z
1/2+y,1/2-x,1/2-z
1/2+x,1/2+y,1/2-z
1/2-y,1/2+x,1/2-z
1/2-x,1/2+y,z
1/2+x,1/2-y,z
1/2-y,1/2-x,z
1/2+y,1/2+x,z
loop_
_atom_site_type_symbol
_atom_site_label
_atom_site_fract_x
_atom_site_fract_y
_atom_site_fract_z
Si Si1 0.315814 0.184187 0.598643
Si Si2 0.439168 0.828106 0.500000
Si Si3 0.969696 0.728860 0.848244
Si Si4 0.216306 0.716306 0.000000
Si Si5 0.006338 0.112095 0.144851
O O1 0.340632 0.159369 0.500000
O O2 0.384149 0.214642 0.652297
O O3 0.253690 0.246310 0.587269
O O4 0.408944 0.908944 0.500000
O O5 0.487607 0.824019 0.412374
O O6 0.370835 0.771511 0.500000
O O7 0.000000 0.719451 0.750000
O O8 0.984515 0.807465 0.890005
O O9 0.933284 0.074937 0.109571
O O10 0.000000 0.112403 0.250000
#
# Coordination Sequence:
#
# PCOD8320453 Si02
#       5
#    16  16  32   8  32
#     4  10  22  43  62  94 128 175 210 265 327 386
#     4  10  23  42  62  94 126 161 218 271 318 386
#     4  11  23  40  66  91 128 169 218 269 329 387
#     4   8  22  40  70  91 133 174 206 280 330 386
#     4   8  16  31  54  87 123 157 197 248 311 385
#
# _framework density 19.974575000000002
#
# number of rings (size 3 to 8) (size 9 to 14) (size 15 to 20)
#    0.923    1.538    1.538    0.923    6.462    0.000 
#    0.000    3.077    0.000    1.846    0.000    0.000 
#    0.000    0.000    0.000    0.000    0.000    0.000 
#
# Total GULP energy -644326.238956 kJ/mol
# GULP energy per Si atom -12390.889211 kJ/mol
# Density = 1.992911 g / cm^3
# Si number density = 19.974575 Si / 1000 Ang^3
#
#
#
# Elastic Constant Matrix: (Units=GPa)
#
#
# Indices 1 2 3 4 5 6 
#
# 1 80.4150 9.6549 8.0762 0.0000 0.0000 0.0000
# 2 9.6549 80.4153 8.0763 0.0000 0.0000 0.0000
# 3 8.0762 8.0763 66.7438 0.0000 0.0000 0.0000
# 4 0.0000 0.0000 0.0000 20.7592 0.0000 0.0000
# 5 0.0000 0.0000 0.0000 0.0000 20.7592 0.0000
# 6 0.0000 0.0000 0.0000 0.0000 0.0000 29.1327
#
#
#
# Elastic Compliance Matrix: (Units=1/GPa)
#
#
# Indices 1 2 3 4 5 6 
#
# 1 0.012741 -0.001392 -0.001373 0.000000 0.000000 0.000000
# 2 -0.001392 0.012740 -0.001373 0.000000 0.000000 0.000000
# 3 -0.001373 -0.001373 0.015315 0.000000 0.000000 0.000000
# 4 0.000000 0.000000 0.000000 0.048171 0.000000 0.000000
# 5 0.000000 0.000000 0.000000 0.000000 0.048171 0.000000
# 6 0.000000 0.000000 0.000000 0.000000 0.000000 0.034326
#
#
# Mechanical properties :
#
#
# Convention : Reuss Voigt Hill
#
# Bulk Modulus (GPa) = 30.75078 31.02100 30.88589
# Shear Modulus (GPa) = 26.23558 27.58132 26.90845
#
# Velocity S-wave (km/s) = 3.62809 3.71997 3.67432
# Velocity P-wave (km/s) = 5.74274 5.83223 5.78766
#
# Compressibility (1/GPa) = 0.03251950
#
# Stress axis : x y z
#
# Youngs Moduli (GPa) = 78.48983 78.49013 65.29550
#
# Poissons Ratio (x) = 0.10924 0.08967
# Poissons Ratio (y) = 0.10924 0.08967
# Poissons Ratio (z) = 0.10778 0.10779
#
# Static dielectric constant tensor:
#      x y z
#    x 3.661690 0.000000 0.000000 
#    y 0.000000 3.661690 0.000000 
#    z 0.000000 0.000000 3.245590 
# 
# 
# High freq. dielectric constant tensor:
#      x y z
#    x 1.774230 0.000000 0.000000 
#    y 0.000000 1.774230 0.000000 
#    z 0.000000 0.000000 1.759980 
# 
# From -- ./inp_files/6022.got.cif
#   From: 2010.06.25/outbox.cif.g09.slc.cpg/sg140_4_cif.got.tgz:6022.got - 2010.06.28 10:53:23.
