data_PCOD8320650
_publ_section_title
;
Structure prediction by ZEFSAII (Michael W. Deem and Ramdas Pophale) SiO2 
 PCOD8320650
Probable space group: I 41/A M D
;
_chemical_formula_sum "Si O2"
_cell_formula_units_Z 112
_cell_length_a 15.400307
_cell_length_b 15.400307
_cell_length_c 26.939679
_cell_angle_alpha 90.000000
_cell_angle_beta 90.000000
_cell_angle_gamma 90.000000
_cell_volume 6389.269005
_symmetry_space_group_name_H-M "I 41/A M D"
_symmetry_group_IT_number 141
_space_group.IT_coordinate_system_code '2'
_symmetry_cell_setting 'tetragonal'
loop_
_space_group_symop_operation_xyz
x,y,z
1/4-y,3/4+x,1/4+z
-x,1/2-y,z
1/4+y,1/4-x,3/4+z
x,-y,-z
-x,1/2+y,-z
1/4+y,3/4+x,1/4-z
1/4-y,1/4-x,3/4-z
-x,-y,-z
3/4+y,1/4-x,3/4-z
x,1/2+y,-z
3/4-y,3/4+x,1/4-z
-x,y,z
x,1/2-y,z
3/4-y,1/4-x,3/4+z
3/4+y,3/4+x,1/4+z
1/2+x,1/2+y,1/2+z
3/4-y,1/4+x,3/4+z
1/2-x,-y,1/2+z
3/4+y,3/4-x,1/4+z
1/2+x,1/2-y,1/2-z
1/2-x,y,1/2-z
3/4+y,1/4+x,3/4-z
3/4-y,3/4-x,1/4-z
1/2-x,1/2-y,1/2-z
1/4+y,3/4-x,1/4-z
1/2+x,y,1/2-z
1/4-y,1/4+x,3/4-z
1/2-x,1/2+y,1/2+z
1/2+x,-y,1/2+z
1/4-y,3/4-x,1/4+z
1/4+y,1/4+x,3/4+z
loop_
_atom_site_type_symbol
_atom_site_label
_atom_site_fract_x
_atom_site_fract_y
_atom_site_fract_z
Si Si1 0.500000 0.848234 0.089531
Si Si2 0.500000 0.848048 0.206399
Si Si3 0.683697 0.648139 0.059710
Si Si4 0.836948 0.536322 0.277245
Si Si5 0.259250 0.009250 0.625000
O O1 0.500000 0.750000 0.070177
O O2 0.500000 0.853544 0.147965
O O3 0.412253 0.891977 0.068915
O O4 0.500000 0.750000 0.226108
O O5 0.411389 0.891098 0.225732
O O6 0.688937 0.750000 0.071158
O O7 0.751302 0.602162 0.097555
O O8 0.704436 0.624739 0.002961
O O9 0.750000 0.572666 0.250000
O O10 0.816456 0.503177 0.333097
#
# Coordination Sequence:
#
# PCOD8320650 Si02
#       5
#    16  16  32  32  16
#     4   9  18  32  56  82  99 137 189 226 263 329
#     4  11  20  36  59  84 112 152 192 233 278 335
#     4  10  19  35  57  78 109 144 181 228 276 330
#     4  10  21  36  55  84 115 146 183 235 285 334
#     4  10  20  34  54  81 111 142 184 224 286 320
#
# _framework density 17.529392000000001
#
# number of rings (size 3 to 8) (size 9 to 14) (size 15 to 20)
#    0.000    2.000    4.286    0.000    0.000    0.571 
#    0.000   12.143    0.000    0.000    0.000    0.000 
#    0.000    0.000    0.000    0.000    0.000    0.000 
#
# Total GULP energy -694003.052050 kJ/mol
# GULP energy per Si atom -12392.911644 kJ/mol
# Density = 1.748949 g / cm^3
# Si number density = 17.529392 Si / 1000 Ang^3
#
#
#
# Elastic Constant Matrix: (Units=GPa)
#
#
# Indices 1 2 3 4 5 6 
#
# 1 111.2180 61.3688 42.1885 0.0000 0.0000 0.0000
# 2 61.3688 111.2180 42.1885 0.0000 0.0000 0.0000
# 3 42.1885 42.1885 99.0829 0.0000 0.0000 0.0000
# 4 0.0000 0.0000 0.0000 23.6246 0.0000 0.0000
# 5 0.0000 0.0000 0.0000 0.0000 23.6246 0.0000
# 6 0.0000 0.0000 0.0000 0.0000 0.0000 16.0595
#
#
#
# Elastic Compliance Matrix: (Units=1/GPa)
#
#
# Indices 1 2 3 4 5 6 
#
# 1 0.013689 -0.006372 -0.003116 0.000000 0.000000 0.000000
# 2 -0.006372 0.013689 -0.003116 0.000000 0.000000 0.000000
# 3 -0.003116 -0.003116 0.012746 0.000000 0.000000 0.000000
# 4 0.000000 0.000000 0.000000 0.042329 0.000000 0.000000
# 5 0.000000 0.000000 0.000000 0.000000 0.042329 0.000000
# 6 0.000000 0.000000 0.000000 0.000000 0.000000 0.062269
#
#
# Mechanical properties :
#
#
# Convention : Reuss Voigt Hill
#
# Bulk Modulus (GPa) = 67.03346 68.11229 67.57287
# Shear Modulus (GPa) = 23.01725 24.37993 23.69859
#
# Velocity S-wave (km/s) = 3.62756 3.73339 3.68086
# Velocity P-wave (km/s) = 7.47457 7.58450 7.52974
#
# Compressibility (1/GPa) = 0.01491792
#
# Stress axis : x y z
#
# Youngs Moduli (GPa) = 73.05153 73.05153 78.45706
#
# Poissons Ratio (x) = 0.46545 0.24445
# Poissons Ratio (y) = 0.46545 0.24445
# Poissons Ratio (z) = 0.22761 0.22761
#
# Static dielectric constant tensor:
#      x y z
#    x 3.359110 0.000000 0.000000 
#    y 0.000000 3.359110 0.000000 
#    z 0.000000 0.000000 3.359060 
# 
# 
# High freq. dielectric constant tensor:
#      x y z
#    x 1.670090 0.000000 0.000000 
#    y 0.000000 1.670090 0.000000 
#    z 0.000000 0.000000 1.681980 
# 
# From -- ./inp_files/11188.got.cif
#   From: 2010.03.12/outbox.cif.g09.slc.cpg/sg141_6_cif.got.tgz:11188.got - 2010.04.03 13:18:35.
