data_PCOD8320974
_publ_section_title
;
Structure prediction by ZEFSAII (Michael W. Deem and Ramdas Pophale) SiO2 
 PCOD8320974
Probable space group: I 41/A C D
;
_chemical_formula_sum "Si O2"
_cell_formula_units_Z 152
_cell_length_a 22.716581
_cell_length_b 22.716581
_cell_length_c 15.606094
_cell_angle_alpha 90.000000
_cell_angle_beta 90.000000
_cell_angle_gamma 90.000000
_cell_volume 8053.416383
_symmetry_space_group_name_H-M "I 41/A C D"
_symmetry_group_IT_number 142
_space_group.IT_coordinate_system_code '2'
_symmetry_cell_setting 'tetragonal'
loop_
_space_group_symop_operation_xyz
x,y,z
1/4-y,3/4+x,1/4+z
-x,1/2-y,z
1/4+y,1/4-x,3/4+z
x,-y,1/2-z
1/2-x,y,-z
3/4+y,1/4+x,1/4-z
1/4-y,1/4-x,1/4-z
-x,-y,-z
3/4+y,1/4-x,3/4-z
x,1/2+y,-z
3/4-y,3/4+x,1/4-z
-x,y,1/2+z
1/2+x,-y,z
1/4-y,3/4-x,3/4+z
3/4+y,3/4+x,3/4+z
1/2+x,1/2+y,1/2+z
3/4-y,1/4+x,3/4+z
1/2-x,-y,1/2+z
3/4+y,3/4-x,1/4+z
1/2+x,1/2-y,-z
-x,1/2+y,1/2-z
1/4+y,3/4+x,3/4-z
3/4-y,3/4-x,3/4-z
1/2-x,1/2-y,1/2-z
1/4+y,3/4-x,1/4-z
1/2+x,y,1/2-z
1/4-y,1/4+x,3/4-z
1/2-x,1/2+y,z
x,1/2-y,1/2+z
3/4-y,1/4-x,1/4+z
1/4+y,1/4+x,1/4+z
loop_
_atom_site_type_symbol
_atom_site_label
_atom_site_fract_x
_atom_site_fract_y
_atom_site_fract_z
Si Si1 0.332218 0.875610 0.792628
Si Si2 0.500000 0.250000 0.625000
Si Si3 0.038403 0.522557 0.155836
Si Si4 0.750000 0.895149 0.000000
Si Si5 0.618975 0.212650 0.544947
Si Si6 0.057842 0.063676 0.128563
O O1 0.282881 0.849015 0.854780
O O2 0.397054 0.873986 0.835113
O O3 0.338855 0.837455 0.706129
O O4 0.314384 0.943801 0.774617
O O5 0.554771 0.239363 0.561615
O O6 0.054440 0.500000 0.250000
O O7 0.003064 0.583613 0.157157
O O8 0.001055 0.472859 0.105904
O O9 0.768050 0.852732 0.922357
O O10 0.633106 0.208766 0.443152
#
# Coordination Sequence:
#
# PCOD8320974 Si02
#       6
#    32   8  32  16  32  32
#     4  11  20  34  61  84 112 152 201 242 292 354
#     4  12  20  32  58  84 116 164 182 244 320 354
#     4  10  19  36  59  84 117 151 193 241 292 363
#     4  10  18  34  56  82 114 146 190 250 280 338
#     4  10  19  33  54  84 116 148 187 236 298 352
#     4  10  19  36  58  85 109 150 199 242 287 360
#
# _framework density 18.873977
#
# number of rings (size 3 to 8) (size 9 to 14) (size 15 to 20)
#    0.000    1.684    7.368    3.158    0.000    0.000 
#    0.000    2.105    9.263    0.000    0.000    0.000 
#    0.000    0.000    0.000    0.000    0.000    0.000 
#
# Total GULP energy -942099.560397 kJ/mol
# GULP energy per Si atom -12396.046847 kJ/mol
# Density = 1.883102 g / cm^3
# Si number density = 18.873977 Si / 1000 Ang^3
#
#
#
# Elastic Constant Matrix: (Units=GPa)
#
#
# Indices 1 2 3 4 5 6 
#
# 1 126.8077 58.8477 42.6728 0.0000 0.0000 0.0000
# 2 58.8477 126.8077 42.6728 0.0000 0.0000 0.0000
# 3 42.6728 42.6728 67.8201 0.0000 0.0000 0.0000
# 4 0.0000 0.0000 0.0000 22.2835 0.0000 0.0000
# 5 0.0000 0.0000 0.0000 0.0000 22.2835 0.0000
# 6 0.0000 0.0000 0.0000 0.0000 0.0000 36.6395
#
#
#
# Elastic Compliance Matrix: (Units=1/GPa)
#
#
# Indices 1 2 3 4 5 6 
#
# 1 0.011146 -0.003568 -0.004768 0.000000 0.000000 0.000000
# 2 -0.003568 0.011146 -0.004768 0.000000 0.000000 0.000000
# 3 -0.004768 -0.004768 0.020745 0.000000 0.000000 0.000000
# 4 0.000000 0.000000 0.000000 0.044876 0.000000 0.000000
# 5 0.000000 0.000000 0.000000 0.000000 0.044876 0.000000
# 6 0.000000 0.000000 0.000000 0.000000 0.000000 0.027293
#
#
# Mechanical properties :
#
#
# Convention : Reuss Voigt Hill
#
# Bulk Modulus (GPa) = 59.42211 67.75801 63.59006
# Shear Modulus (GPa) = 26.05484 28.05743 27.05613
#
# Velocity S-wave (km/s) = 3.71949 3.85978 3.79029
# Velocity P-wave (km/s) = 7.07093 7.47276 7.27462
#
# Compressibility (1/GPa) = 0.01682875
#
# Stress axis : x y z
#
# Youngs Moduli (GPa) = 89.71478 89.71478 48.20341
#
# Poissons Ratio (x) = 0.32011 0.22985
# Poissons Ratio (y) = 0.32011 0.22985
# Poissons Ratio (z) = 0.42779 0.42779
#
# Static dielectric constant tensor:
#      x y z
#    x 3.608110 0.000000 0.000000 
#    y 0.000000 3.608110 0.000000 
#    z 0.000000 0.000000 3.391390 
# 
# 
# High freq. dielectric constant tensor:
#      x y z
#    x 1.728600 0.000000 0.000000 
#    y 0.000000 1.728600 0.000000 
#    z 0.000000 0.000000 1.711820 
# 
# From -- ./inp_files/5469.got.cif
#   From: 2010.03.12/outbox.cif.g09.slc.cpg/sg142_3_cif.got.tgz:5469.got - 2010.04.03 13:27:16.
