data_PCOD8320110
_publ_section_title
;
Structure prediction by ZEFSAII (Michael W. Deem and Ramdas Pophale) SiO2 
 PCOD8320110
Probable space group: I 4/M C M
;
_chemical_formula_sum "Si O2"
_cell_formula_units_Z 192
_cell_length_a 27.079589
_cell_length_b 27.079589
_cell_length_c 15.144454
_cell_angle_alpha 90.000000
_cell_angle_beta 90.000000
_cell_angle_gamma 90.000000
_cell_volume 11105.490822
_symmetry_space_group_name_H-M "I 4/M C M"
_symmetry_group_IT_number 140
_symmetry_cell_setting 'tetragonal'
loop_
_space_group_symop_operation_xyz
x,y,z
-y,x,z
-x,-y,z
y,-x,z
x,-y,1/2-z
-x,y,1/2-z
y,x,1/2-z
-y,-x,1/2-z
-x,-y,-z
y,-x,-z
x,y,-z
-y,x,-z
-x,y,1/2+z
x,-y,1/2+z
-y,-x,1/2+z
y,x,1/2+z
1/2+x,1/2+y,1/2+z
1/2-y,1/2+x,1/2+z
1/2-x,1/2-y,1/2+z
1/2+y,1/2-x,1/2+z
1/2+x,1/2-y,-z
1/2-x,1/2+y,-z
1/2+y,1/2+x,-z
1/2-y,1/2-x,-z
1/2-x,1/2-y,1/2-z
1/2+y,1/2-x,1/2-z
1/2+x,1/2+y,1/2-z
1/2-y,1/2+x,1/2-z
1/2-x,1/2+y,z
1/2+x,1/2-y,z
1/2-y,1/2-x,z
1/2+y,1/2+x,z
loop_
_atom_site_type_symbol
_atom_site_label
_atom_site_fract_x
_atom_site_fract_y
_atom_site_fract_z
Si Si1 0.368701 0.943315 0.500000
Si Si2 0.187972 0.610446 0.149060
Si Si3 0.556685 0.131299 0.000000
Si Si4 0.389554 0.812028 0.850941
Si Si5 0.862384 0.056118 0.750000
Si Si6 0.443397 0.283916 0.101636
Si Si7 0.783916 0.056604 0.898364
O O1 0.424616 0.924616 0.500000
O O2 0.342256 0.926117 0.588259
O O3 0.368923 0.000000 0.500000
O O4 0.167139 0.667139 0.132948
O O5 0.178837 0.595492 0.250000
O O6 0.244922 0.600228 0.124777
O O7 0.573883 0.157744 0.911741
O O8 0.575384 0.075384 0.000000
O O9 0.332861 0.832861 0.867053
O O10 0.399772 0.755079 0.875224
O O11 0.910163 0.089838 0.750000
O O12 0.830894 0.067095 0.662289
O O13 0.830894 0.067095 0.837710
O O14 0.881104 0.000000 0.750000
O O15 0.500000 0.264082 0.118950
O O16 0.437813 0.299791 0.000000
O O17 0.799791 0.062187 0.000000
#
# Coordination Sequence:
#
# PCOD8320110 Si02
#       7
#    16  32  16  32  32  32  32
#     4  10  20  31  44  66  97 135 180 226 274 324
#     4  10  19  30  48  76 106 137 174 223 274 316
#     4  10  20  31  44  66  97 135 180 226 274 324
#     4  10  19  30  48  76 106 137 174 223 274 316
#     4  10  22  39  59  85 113 141 172 206 254 312
#     4  10  19  32  54  81 107 139 179 225 267 308
#     4  10  19  32  54  81 107 139 179 225 267 308
#
# _framework density 17.288744999999999
#
# number of rings (size 3 to 8) (size 9 to 14) (size 15 to 20)
#    0.000    2.000    3.333    1.000    0.000    3.000 
#    0.000    0.000    0.000    2.000    0.000   11.667 
#    0.000    0.000    0.000    0.000    0.000    0.000 
#
# Total GULP energy -1189265.509505 kJ/mol
# GULP energy per Si atom -12388.182391 kJ/mol
# Density = 1.724939 g / cm^3
# Si number density = 17.288745 Si / 1000 Ang^3
#
#
#
# Elastic Constant Matrix: (Units=GPa)
#
#
# Indices 1 2 3 4 5 6 
#
# 1 91.6478 65.0155 44.2465 0.0000 0.0000 0.0000
# 2 65.0155 91.6550 44.2487 0.0000 0.0000 0.0000
# 3 44.2465 44.2487 142.8696 0.0000 0.0000 0.0000
# 4 0.0000 0.0000 0.0000 19.2424 0.0000 0.0000
# 5 0.0000 0.0000 0.0000 0.0000 19.2445 0.0000
# 6 0.0000 0.0000 0.0000 0.0000 0.0000 34.1144
#
#
#
# Elastic Compliance Matrix: (Units=1/GPa)
#
#
# Indices 1 2 3 4 5 6 
#
# 1 0.022641 -0.014903 -0.002396 0.000000 0.000000 0.000000
# 2 -0.014903 0.022639 -0.002396 0.000000 0.000000 0.000000
# 3 -0.002396 -0.002396 0.008484 0.000000 0.000000 0.000000
# 4 0.000000 0.000000 0.000000 0.051969 0.000000 0.000000
# 5 0.000000 0.000000 0.000000 0.000000 0.051963 0.000000
# 6 0.000000 0.000000 0.000000 0.000000 0.000000 0.029313
#
#
# Mechanical properties :
#
#
# Convention : Reuss Voigt Hill
#
# Bulk Modulus (GPa) = 69.57854 70.35486 69.96670
# Shear Modulus (GPa) = 21.62729 26.03105 23.82917
#
# Velocity S-wave (km/s) = 3.54071 3.88450 3.71658
# Velocity P-wave (km/s) = 7.55300 7.80394 7.67950
#
# Compressibility (1/GPa) = 0.01437225
#
# Stress axis : x y z
#
# Youngs Moduli (GPa) = 44.16827 44.17158 117.87584
#
# Poissons Ratio (x) = 0.65831 0.28243
# Poissons Ratio (y) = 0.65826 0.28243
# Poissons Ratio (z) = 0.10583 0.10584
#
# Static dielectric constant tensor:
#      x y z
#    x 2.779840 0.000000 0.000000 
#    y 0.000000 2.779800 0.000000 
#    z 0.000000 0.000000 3.518500 
# 
# 
# High freq. dielectric constant tensor:
#      x y z
#    x 1.644070 0.000000 0.000000 
#    y 0.000000 1.644070 0.000000 
#    z 0.000000 0.000000 1.696010 
# 
# From -- ./inp_files/5192.got.cif
#   From: 2010.06.25/outbox.cif.g09.slc.cpg/sg140_3_cif.got.tgz:5192.got - 2010.06.28 10:53:23.
