data_PCOD8320490
_publ_section_title
;
Structure prediction by ZEFSAII (Michael W. Deem and Ramdas Pophale) SiO2 
 PCOD8320490
Probable space group: I 4/M C M
;
_chemical_formula_sum "Si O2"
_cell_formula_units_Z 192
_cell_length_a 19.610150
_cell_length_b 19.610150
_cell_length_c 27.558728
_cell_angle_alpha 90.000000
_cell_angle_beta 90.000000
_cell_angle_gamma 90.000000
_cell_volume 10597.928854
_symmetry_space_group_name_H-M "I 4/M C M"
_symmetry_group_IT_number 140
_symmetry_cell_setting 'tetragonal'
loop_
_space_group_symop_operation_xyz
x,y,z
-y,x,z
-x,-y,z
y,-x,z
x,-y,1/2-z
-x,y,1/2-z
y,x,1/2-z
-y,-x,1/2-z
-x,-y,-z
y,-x,-z
x,y,-z
-y,x,-z
-x,y,1/2+z
x,-y,1/2+z
-y,-x,1/2+z
y,x,1/2+z
1/2+x,1/2+y,1/2+z
1/2-y,1/2+x,1/2+z
1/2-x,1/2-y,1/2+z
1/2+y,1/2-x,1/2+z
1/2+x,1/2-y,-z
1/2-x,1/2+y,-z
1/2+y,1/2+x,-z
1/2-y,1/2-x,-z
1/2-x,1/2-y,1/2-z
1/2+y,1/2-x,1/2-z
1/2+x,1/2+y,1/2-z
1/2-y,1/2+x,1/2-z
1/2-x,1/2+y,z
1/2+x,1/2-y,z
1/2-y,1/2-x,z
1/2+y,1/2+x,z
loop_
_atom_site_type_symbol
_atom_site_label
_atom_site_fract_x
_atom_site_fract_y
_atom_site_fract_z
Si Si1 0.525161 0.201257 0.804812
Si Si2 0.584426 0.283368 0.646632
Si Si3 0.209322 0.290679 0.312528
Si Si4 0.426917 0.582905 0.305808
Si Si5 0.995894 0.391928 0.608678
Si Si6 0.703292 0.089653 0.444564
Si Si7 0.815016 0.315016 0.701721
O O1 0.500000 0.190319 0.750000
O O2 0.489684 0.268716 0.828388
O O3 0.501313 0.137894 0.837149
O O4 0.606888 0.205653 0.808726
O O5 0.635213 0.227541 0.667979
O O6 0.609029 0.360088 0.660468
O O7 0.587941 0.271692 0.588516
O O8 0.265546 0.234455 0.329694
O O9 0.203322 0.296679 0.255761
O O10 0.406069 0.506550 0.317853
O O11 0.405363 0.594638 0.250000
O O12 0.045018 0.454983 0.608658
O O13 0.020625 0.338130 0.568280
O O14 0.919589 0.419589 0.595942
O O15 0.727247 0.086618 0.500000
O O16 0.656641 0.156641 0.434908
#
# Coordination Sequence:
#
# PCOD8320490 Si02
#       7
#    32  32  16  32  32  32  16
#     4  11  22  32  48  72 110 152 188 216 268 331
#     4  11  22  35  57  81 109 147 189 234 275 338
#     4  11  24  36  51  77 114 141 190 230 270 339
#     4   9  21  37  57  83 113 145 183 226 278 332
#     4   9  18  30  47  73 104 142 185 226 267 317
#     4   9  18  34  54  77 106 141 188 239 281 327
#     4  11  24  36  47  76 111 154 178 225 274 337
#
# _framework density 18.116748000000001
#
# number of rings (size 3 to 8) (size 9 to 14) (size 15 to 20)
#    0.000    2.000    3.333    0.500    9.333    0.333 
#    0.000    2.500    0.000    1.000    0.000    5.833 
#    0.000    0.000    0.000    0.000    0.000    0.000 
#
# Total GULP energy -1189469.589936 kJ/mol
# GULP energy per Si atom -12390.308228 kJ/mol
# Density = 1.807551 g / cm^3
# Si number density = 18.116748 Si / 1000 Ang^3
#
#
#
# Elastic Constant Matrix: (Units=GPa)
#
#
# Indices 1 2 3 4 5 6 
#
# 1 111.6190 -17.0546 35.1814 0.0000 0.0000 0.0000
# 2 -17.0546 111.6186 35.1819 0.0000 0.0000 0.0000
# 3 35.1814 35.1819 113.3262 0.0000 0.0000 0.0000
# 4 0.0000 0.0000 0.0000 20.9429 0.0000 0.0000
# 5 0.0000 0.0000 0.0000 0.0000 20.9428 0.0000
# 6 0.0000 0.0000 0.0000 0.0000 0.0000 14.4706
#
#
#
# Elastic Compliance Matrix: (Units=1/GPa)
#
#
# Indices 1 2 3 4 5 6 
#
# 1 0.010761 0.002990 -0.004269 0.000000 0.000000 0.000000
# 2 0.002990 0.010762 -0.004269 0.000000 0.000000 0.000000
# 3 -0.004269 -0.004269 0.011475 0.000000 0.000000 0.000000
# 4 0.000000 0.000000 0.000000 0.047749 0.000000 0.000000
# 5 0.000000 0.000000 0.000000 0.000000 0.047749 0.000000
# 6 0.000000 0.000000 0.000000 0.000000 0.000000 0.069106
#
#
# Mechanical properties :
#
#
# Convention : Reuss Voigt Hill
#
# Bulk Modulus (GPa) = 45.65963 49.24238 47.45101
# Shear Modulus (GPa) = 23.14837 30.15494 26.65165
#
# Velocity S-wave (km/s) = 3.57842 4.08423 3.83966
# Velocity P-wave (km/s) = 6.50624 7.03426 6.77539
#
# Compressibility (1/GPa) = 0.02190118
#
# Stress axis : x y z
#
# Youngs Moduli (GPa) = 92.92440 92.92370 87.14825
#
# Poissons Ratio (x) = -0.27783 0.37204
# Poissons Ratio (y) = -0.27783 0.37204
# Poissons Ratio (z) = 0.39670 0.39670
#
# Static dielectric constant tensor:
#      x y z
#    x 3.451680 0.000000 0.000000 
#    y 0.000000 3.451680 0.000000 
#    z 0.000000 0.000000 3.166530 
# 
# 
# High freq. dielectric constant tensor:
#      x y z
#    x 1.699070 0.000000 0.000000 
#    y 0.000000 1.699070 0.000000 
#    z 0.000000 0.000000 1.670420 
# 
# From -- ./inp_files/10911.got.cif
#   From: 2010.06.25/outbox.cif.g09.slc.cpg/sg140_6_cif.got.tgz:10911.got - 2010.06.28 10:53:23.
