data_PCOD8320826
_publ_section_title
;
Structure prediction by ZEFSAII (Michael W. Deem and Ramdas Pophale) SiO2 
 PCOD8320826
Probable space group: I 41/A M D
;
_chemical_formula_sum "Si O2"
_cell_formula_units_Z 112
_cell_length_a 14.709322
_cell_length_b 14.709322
_cell_length_c 26.646267
_cell_angle_alpha 90.000000
_cell_angle_beta 90.000000
_cell_angle_gamma 90.000000
_cell_volume 5765.297009
_symmetry_space_group_name_H-M "I 41/A M D"
_symmetry_group_IT_number 141
_space_group.IT_coordinate_system_code '2'
_symmetry_cell_setting 'tetragonal'
loop_
_space_group_symop_operation_xyz
x,y,z
1/4-y,3/4+x,1/4+z
-x,1/2-y,z
1/4+y,1/4-x,3/4+z
x,-y,-z
-x,1/2+y,-z
1/4+y,3/4+x,1/4-z
1/4-y,1/4-x,3/4-z
-x,-y,-z
3/4+y,1/4-x,3/4-z
x,1/2+y,-z
3/4-y,3/4+x,1/4-z
-x,y,z
x,1/2-y,z
3/4-y,1/4-x,3/4+z
3/4+y,3/4+x,1/4+z
1/2+x,1/2+y,1/2+z
3/4-y,1/4+x,3/4+z
1/2-x,-y,1/2+z
3/4+y,3/4-x,1/4+z
1/2+x,1/2-y,1/2-z
1/2-x,y,1/2-z
3/4+y,1/4+x,3/4-z
3/4-y,3/4-x,1/4-z
1/2-x,1/2-y,1/2-z
1/4+y,3/4-x,1/4-z
1/2+x,y,1/2-z
1/4-y,1/4+x,3/4-z
1/2-x,1/2+y,1/2+z
1/2+x,-y,1/2+z
1/4-y,3/4-x,1/4+z
1/4+y,1/4+x,3/4+z
loop_
_atom_site_type_symbol
_atom_site_label
_atom_site_fract_x
_atom_site_fract_y
_atom_site_fract_z
Si Si1 0.189442 0.250000 0.056996
Si Si2 0.853666 0.250000 0.383385
Si Si3 0.849905 0.599905 0.125000
Si Si4 0.892972 0.388997 0.131242
Si Si5 0.000000 0.148643 0.796788
Si Si6 0.500000 0.049266 0.946504
O O1 0.299855 0.250000 0.063580
O O2 0.146040 0.161366 0.082492
O O3 0.173607 0.250000 0.997899
O O4 0.910476 0.160476 0.375000
O O5 0.781356 0.250000 0.341110
O O6 0.865361 0.492702 0.122718
O O7 0.886228 0.656932 0.077708
O O8 0.856678 0.342050 0.183354
O O9 0.000000 0.379592 0.132713
O O10 0.000000 0.250000 0.774341
O O11 0.500000 0.000000 0.000000
#
# Coordination Sequence:
#
# PCOD8320826 Si02
#       6
#    16  16  16  32  16  16
#     4  10  24  37  70  90 123 168 224 265 326 395
#     4   9  20  41  61  88 129 159 200 265 326 380
#     4  12  23  40  64  92 137 178 212 274 336 382
#     4  10  21  43  62  89 130 168 212 274 327 385
#     4  12  22  43  63  95 131 171 224 270 328 393
#     4  10  23  39  66  93 126 161 217 266 328 396
#
# _framework density 19.426579
#
# number of rings (size 3 to 8) (size 9 to 14) (size 15 to 20)
#    0.000    1.857    2.857    2.571    8.000    3.429 
#    5.143    2.857    0.000    0.000    0.000    0.000 
#    0.000    0.000    0.000    0.000    0.000    0.000 
#
# Total GULP energy -693831.283522 kJ/mol
# GULP energy per Si atom -12389.844349 kJ/mol
# Density = 1.938236 g / cm^3
# Si number density = 19.426579 Si / 1000 Ang^3
#
#
#
# Elastic Constant Matrix: (Units=GPa)
#
#
# Indices 1 2 3 4 5 6 
#
# 1 166.9900 47.7334 37.5651 0.0000 0.0000 0.0000
# 2 47.7334 166.9900 37.5651 0.0000 0.0000 0.0000
# 3 37.5651 37.5651 108.9253 0.0000 0.0000 0.0000
# 4 0.0000 0.0000 0.0000 26.0758 0.0000 0.0000
# 5 0.0000 0.0000 0.0000 0.0000 26.0758 0.0000
# 6 0.0000 0.0000 0.0000 0.0000 0.0000 40.2241
#
#
#
# Elastic Compliance Matrix: (Units=1/GPa)
#
#
# Indices 1 2 3 4 5 6 
#
# 1 0.006841 -0.001545 -0.001827 0.000000 0.000000 0.000000
# 2 -0.001545 0.006841 -0.001827 0.000000 0.000000 0.000000
# 3 -0.001827 -0.001827 0.010440 0.000000 0.000000 0.000000
# 4 0.000000 0.000000 0.000000 0.038350 0.000000 0.000000
# 5 0.000000 0.000000 0.000000 0.000000 0.038350 0.000000
# 6 0.000000 0.000000 0.000000 0.000000 0.000000 0.024861
#
#
# Mechanical properties :
#
#
# Convention : Reuss Voigt Hill
#
# Bulk Modulus (GPa) = 72.84998 76.51473 74.68236
# Shear Modulus (GPa) = 35.54853 39.81126 37.67990
#
# Velocity S-wave (km/s) = 4.28236 4.53185 4.40887
# Velocity P-wave (km/s) = 7.87611 8.17653 8.02773
#
# Compressibility (1/GPa) = 0.01372684
#
# Stress axis : x y z
#
# Youngs Moduli (GPa) = 146.18259 146.18259 95.78150
#
# Poissons Ratio (x) = 0.22578 0.17495
# Poissons Ratio (y) = 0.22578 0.17495
# Poissons Ratio (z) = 0.26700 0.26700
#
# Static dielectric constant tensor:
#      x y z
#    x 3.300330 0.000000 0.000000 
#    y 0.000000 3.300330 0.000000 
#    z 0.000000 0.000000 2.936710 
# 
# 
# High freq. dielectric constant tensor:
#      x y z
#    x 1.777010 0.000000 0.000000 
#    y 0.000000 1.777010 0.000000 
#    z 0.000000 0.000000 1.735310 
# 
# From -- ./inp_files/12555.got.cif
#   From: 2010.03.12/outbox.cif.g09.slc.cpg/sg141_7_cif.got.tgz:12555.got - 2010.04.03 13:18:35.
