data_PCOD8320779
_publ_section_title
;
Structure prediction by ZEFSAII (Michael W. Deem and Ramdas Pophale) SiO2 
 PCOD8320779
Probable space group: I 41/A M D
;
_chemical_formula_sum "Si O2"
_cell_formula_units_Z 160
_cell_length_a 19.845477
_cell_length_b 19.845477
_cell_length_c 19.152580
_cell_angle_alpha 90.000000
_cell_angle_beta 90.000000
_cell_angle_gamma 90.000000
_cell_volume 7543.108748
_symmetry_space_group_name_H-M "I 41/A M D"
_symmetry_group_IT_number 141
_space_group.IT_coordinate_system_code '2'
_symmetry_cell_setting 'tetragonal'
loop_
_space_group_symop_operation_xyz
x,y,z
1/4-y,3/4+x,1/4+z
-x,1/2-y,z
1/4+y,1/4-x,3/4+z
x,-y,-z
-x,1/2+y,-z
1/4+y,3/4+x,1/4-z
1/4-y,1/4-x,3/4-z
-x,-y,-z
3/4+y,1/4-x,3/4-z
x,1/2+y,-z
3/4-y,3/4+x,1/4-z
-x,y,z
x,1/2-y,z
3/4-y,1/4-x,3/4+z
3/4+y,3/4+x,1/4+z
1/2+x,1/2+y,1/2+z
3/4-y,1/4+x,3/4+z
1/2-x,-y,1/2+z
3/4+y,3/4-x,1/4+z
1/2+x,1/2-y,1/2-z
1/2-x,y,1/2-z
3/4+y,1/4+x,3/4-z
3/4-y,3/4-x,1/4-z
1/2-x,1/2-y,1/2-z
1/4+y,3/4-x,1/4-z
1/2+x,y,1/2-z
1/4-y,1/4+x,3/4-z
1/2-x,1/2+y,1/2+z
1/2+x,-y,1/2+z
1/4-y,3/4-x,1/4+z
1/4+y,1/4+x,3/4+z
loop_
_atom_site_type_symbol
_atom_site_label
_atom_site_fract_x
_atom_site_fract_y
_atom_site_fract_z
Si Si1 0.879726 0.826400 0.200506
Si Si2 0.676985 0.826579 0.721509
Si Si3 0.610669 0.069034 0.811457
Si Si4 0.642137 0.502453 0.402590
Si Si5 0.810637 0.326853 0.517334
O O1 0.890324 0.750000 0.225139
O O2 0.912737 0.837264 0.125000
O O3 0.916977 0.874336 0.257307
O O4 0.799532 0.842335 0.197805
O O5 0.662304 0.750000 0.744448
O O6 0.750000 0.849426 0.750000
O O7 0.668882 0.832925 0.638397
O O8 0.621638 0.875392 0.755880
O O9 0.692009 0.073519 0.804289
O O10 0.584846 0.995587 0.791644
O O11 0.702618 0.547383 0.375000
O O12 0.599251 0.470089 0.340669
O O13 0.834777 0.250000 0.522459
#
# Coordination Sequence:
#
# PCOD8320779 Si02
#       5
#    32  32  32  32  32
#     4  11  23  39  59  92 139 179 220 265 319 393
#     4  10  25  46  68  94 126 165 216 276 339 401
#     4  11  23  38  65  95 128 167 217 268 331 391
#     4  10  21  36  60  94 130 171 219 271 320 376
#     4  11  23  39  65  96 131 171 213 267 325 393
#
# _framework density 21.211413
#
# number of rings (size 3 to 8) (size 9 to 14) (size 15 to 20)
#    0.000    1.400    4.000    1.800    5.600    6.200 
#    0.000    0.000    0.000    0.000    0.000    2.800 
#    0.000    0.000    0.000    0.000    0.000    0.000 
#
# Total GULP energy -991948.740050 kJ/mol
# GULP energy per Si atom -12399.359251 kJ/mol
# Density = 2.116313 g / cm^3
# Si number density = 21.211413 Si / 1000 Ang^3
#
#
#
# Elastic Constant Matrix: (Units=GPa)
#
#
# Indices 1 2 3 4 5 6 
#
# 1 135.0328 61.5830 15.0433 0.0000 0.0000 0.0000
# 2 61.5830 135.0421 15.0513 0.0000 0.0000 0.0000
# 3 15.0433 15.0513 61.3014 0.0000 0.0000 0.0000
# 4 0.0000 0.0000 0.0000 -55.8987 0.0000 0.0000
# 5 0.0000 0.0000 0.0000 0.0000 -55.3732 0.0000
# 6 0.0000 0.0000 0.0000 0.0000 0.0000 19.4314
#
#
#
# Elastic Compliance Matrix: (Units=1/GPa)
#
#
# Indices 1 2 3 4 5 6 
#
# 1 0.009449 -0.004165 -0.001296 0.000000 0.000000 0.000000
# 2 -0.004165 0.009449 -0.001298 0.000000 0.000000 0.000000
# 3 -0.001296 -0.001298 0.016950 0.000000 0.000000 0.000000
# 4 0.000000 0.000000 0.000000 -0.017890 0.000000 0.000000
# 5 0.000000 0.000000 0.000000 0.000000 -0.018059 0.000000
# 6 0.000000 0.000000 0.000000 0.000000 0.000000 0.051463
#
#
# Mechanical properties :
#
#
# Convention : Reuss Voigt Hill
#
# Bulk Modulus (GPa) = 44.78280 57.19238 50.98759
# Shear Modulus (GPa) = 69.13374 -2.38817 33.37279
#
# Velocity S-wave (km/s) = 5.71520 -1.06223 3.97084
# Velocity P-wave (km/s) = 8.04424 5.05145 6.71665
#
# Compressibility (1/GPa) = 0.02233000
#
# Stress axis : x y z
#
# Youngs Moduli (GPa) = 105.82710 105.83143 58.99827
#
# Poissons Ratio (x) = 0.44076 0.07648
# Poissons Ratio (y) = 0.44074 0.07658
# Poissons Ratio (z) = 0.13719 0.13737
#
# Static dielectric constant tensor:
#      x y z
#    x 3.847490 0.000000 0.000000 
#    y 0.000000 3.847530 0.000000 
#    z 0.000000 0.000000 3.761330 
# 
# 
# High freq. dielectric constant tensor:
#      x y z
#    x 1.828550 0.000000 0.000000 
#    y 0.000000 1.828550 0.000000 
#    z 0.000000 0.000000 1.828260 
# 
# From -- ./inp_files/8566.got.cif
#   From: 2010.03.12/outbox.cif.g09.slc.cpg/sg141_5_cif.got.tgz:8566.got - 2010.04.03 13:18:35.
