data_PCOD8320467
_publ_section_title
;
Structure prediction by ZEFSAII (Michael W. Deem and Ramdas Pophale) SiO2 
 PCOD8320467
Probable space group: I 4/M C M
;
_chemical_formula_sum "Si O2"
_cell_formula_units_Z 160
_cell_length_a 19.419761
_cell_length_b 19.419761
_cell_length_c 27.004051
_cell_angle_alpha 90.000000
_cell_angle_beta 90.000000
_cell_angle_gamma 90.000000
_cell_volume 10183.959909
_symmetry_space_group_name_H-M "I 4/M C M"
_symmetry_group_IT_number 140
_symmetry_cell_setting 'tetragonal'
loop_
_space_group_symop_operation_xyz
x,y,z
-y,x,z
-x,-y,z
y,-x,z
x,-y,1/2-z
-x,y,1/2-z
y,x,1/2-z
-y,-x,1/2-z
-x,-y,-z
y,-x,-z
x,y,-z
-y,x,-z
-x,y,1/2+z
x,-y,1/2+z
-y,-x,1/2+z
y,x,1/2+z
1/2+x,1/2+y,1/2+z
1/2-y,1/2+x,1/2+z
1/2-x,1/2-y,1/2+z
1/2+y,1/2-x,1/2+z
1/2+x,1/2-y,-z
1/2-x,1/2+y,-z
1/2+y,1/2+x,-z
1/2-y,1/2-x,-z
1/2-x,1/2-y,1/2-z
1/2+y,1/2-x,1/2-z
1/2+x,1/2+y,1/2-z
1/2-y,1/2+x,1/2-z
1/2-x,1/2+y,z
1/2+x,1/2-y,z
1/2-y,1/2-x,z
1/2+y,1/2+x,z
loop_
_atom_site_type_symbol
_atom_site_label
_atom_site_fract_x
_atom_site_fract_y
_atom_site_fract_z
Si Si1 0.309442 0.084338 0.702089
Si Si2 0.513361 0.612795 0.054762
Si Si3 0.347071 0.414696 0.798552
Si Si4 0.066458 0.676185 0.817460
Si Si5 0.675361 0.446082 0.151360
O O1 0.355884 0.144117 0.678642
O O2 0.231308 0.110436 0.699052
O O3 0.326435 0.074097 0.759114
O O4 0.328763 0.015351 0.670992
O O5 0.441200 0.574873 0.061365
O O6 0.520903 0.671831 0.096531
O O7 0.517417 0.646842 0.000000
O O8 0.387624 0.387624 0.750000
O O9 0.343338 0.497594 0.805573
O O10 0.386564 0.381777 0.845117
O O11 0.113987 0.613987 0.840181
O O12 0.088875 0.750193 0.839507
#
# Coordination Sequence:
#
# PCOD8320467 Si02
#       5
#    32  32  32  32  32
#     4   9  18  31  45  63  88 122 160 191 221 267
#     4   9  17  30  46  65  88 120 161 197 227 266
#     4  11  20  29  41  63  96 131 156 184 219 267
#     4   9  18  31  46  64  89 118 153 195 234 272
#     4  11  19  30  45  64  94 125 157 191 228 268
#
# _framework density 15.710982
#
# number of rings (size 3 to 8) (size 9 to 14) (size 15 to 20)
#    0.000    2.200    4.000    1.200    0.000    2.000 
#    0.000    3.000    0.000    0.600    0.000    0.000 
#    0.000   12.800    0.000    7.200    0.000    0.400 
#
# Total GULP energy -991068.635969 kJ/mol
# GULP energy per Si atom -12388.357950 kJ/mol
# Density = 1.567522 g / cm^3
# Si number density = 15.710982 Si / 1000 Ang^3
#
#
#
# Elastic Constant Matrix: (Units=GPa)
#
#
# Indices 1 2 3 4 5 6 
#
# 1 74.4415 52.3497 20.8031 0.0000 0.0000 0.0000
# 2 52.3497 74.4415 20.8031 0.0000 0.0000 0.0000
# 3 20.8031 20.8031 52.2738 0.0000 0.0000 0.0000
# 4 0.0000 0.0000 0.0000 8.8013 0.0000 0.0000
# 5 0.0000 0.0000 0.0000 0.0000 8.8013 0.0000
# 6 0.0000 0.0000 0.0000 0.0000 0.0000 29.6593
#
#
#
# Elastic Compliance Matrix: (Units=1/GPa)
#
#
# Indices 1 2 3 4 5 6 
#
# 1 0.027169 -0.018097 -0.003610 0.000000 0.000000 0.000000
# 2 -0.018097 0.027169 -0.003610 0.000000 0.000000 0.000000
# 3 -0.003610 -0.003610 0.022003 0.000000 0.000000 0.000000
# 4 0.000000 0.000000 0.000000 0.113620 0.000000 0.000000
# 5 0.000000 0.000000 0.000000 0.000000 0.113620 0.000000
# 6 0.000000 0.000000 0.000000 0.000000 0.000000 0.033716
#
#
# Mechanical properties :
#
#
# Convention : Reuss Voigt Hill
#
# Bulk Modulus (GPa) = 38.90136 43.22983 41.06560
# Shear Modulus (GPa) = 12.61034 16.59911 14.60473
#
# Velocity S-wave (km/s) = 2.83617 3.25396 3.05222
# Velocity P-wave (km/s) = 5.96150 6.45702 6.21420
#
# Compressibility (1/GPa) = 0.02570604
#
# Stress axis : x y z
#
# Youngs Moduli (GPa) = 36.80716 36.80716 45.44737
#
# Poissons Ratio (x) = 0.66610 0.16407
# Poissons Ratio (y) = 0.66610 0.16407
# Poissons Ratio (z) = 0.13288 0.13288
#
# Static dielectric constant tensor:
#      x y z
#    x 3.125370 0.000000 0.000000 
#    y 0.000000 3.125370 0.000000 
#    z 0.000000 0.000000 2.758980 
# 
# 
# High freq. dielectric constant tensor:
#      x y z
#    x 1.595320 0.000000 0.000000 
#    y 0.000000 1.595320 0.000000 
#    z 0.000000 0.000000 1.562590 
# 
# From -- ./inp_files/11409.got.cif
#   From: 2010.06.25/outbox.cif.g09.slc.cpg/sg140_6_cif.got.tgz:11409.got - 2010.06.28 10:53:23.
