data_PCOD8320445
_publ_section_title
;
Structure prediction by ZEFSAII (Michael W. Deem and Ramdas Pophale) SiO2 
 PCOD8320445
Probable space group: I 4/M C M
;
_chemical_formula_sum "Si O2"
_cell_formula_units_Z 160
_cell_length_a 20.855100
_cell_length_b 20.855100
_cell_length_c 17.544309
_cell_angle_alpha 90.000000
_cell_angle_beta 90.000000
_cell_angle_gamma 90.000000
_cell_volume 7630.637474
_symmetry_space_group_name_H-M "I 4/M C M"
_symmetry_group_IT_number 140
_symmetry_cell_setting 'tetragonal'
loop_
_space_group_symop_operation_xyz
x,y,z
-y,x,z
-x,-y,z
y,-x,z
x,-y,1/2-z
-x,y,1/2-z
y,x,1/2-z
-y,-x,1/2-z
-x,-y,-z
y,-x,-z
x,y,-z
-y,x,-z
-x,y,1/2+z
x,-y,1/2+z
-y,-x,1/2+z
y,x,1/2+z
1/2+x,1/2+y,1/2+z
1/2-y,1/2+x,1/2+z
1/2-x,1/2-y,1/2+z
1/2+y,1/2-x,1/2+z
1/2+x,1/2-y,-z
1/2-x,1/2+y,-z
1/2+y,1/2+x,-z
1/2-y,1/2-x,-z
1/2-x,1/2-y,1/2-z
1/2+y,1/2-x,1/2-z
1/2+x,1/2+y,1/2-z
1/2-y,1/2+x,1/2-z
1/2-x,1/2+y,z
1/2+x,1/2-y,z
1/2-y,1/2-x,z
1/2+y,1/2+x,z
loop_
_atom_site_type_symbol
_atom_site_label
_atom_site_fract_x
_atom_site_fract_y
_atom_site_fract_z
Si Si1 0.637904 0.033815 0.175419
Si Si2 0.917655 0.417655 0.912629
Si Si3 0.273371 0.122264 0.412542
Si Si4 0.189027 0.689027 0.090153
Si Si5 0.409626 0.447055 0.588750
Si Si6 0.653495 0.324431 0.660964
O O1 0.588523 0.088523 0.201774
O O2 0.698379 0.062647 0.132627
O O3 0.665734 0.000000 0.250000
O O4 0.602196 0.985199 0.120990
O O5 0.864321 0.364321 0.898028
O O6 0.929830 0.429830 0.000000
O O7 0.276037 0.102956 0.500000
O O8 0.312363 0.187638 0.396135
O O9 0.201163 0.130911 0.386646
O O10 0.251672 0.661646 0.132449
O O11 0.202945 0.702945 0.000000
O O12 0.477584 0.413623 0.608082
O O13 0.392688 0.437292 0.500000
O O14 0.352908 0.416640 0.640734
O O15 0.670075 0.329926 0.750000
#
# Coordination Sequence:
#
# PCOD8320445 Si02
#       6
#    32  16  32  16  32  32
#     4  11  23  39  65  92 128 171 214 263 318 371
#     4  11  25  41  62  92 128 167 212 267 322 378
#     4  10  22  41  65  90 121 170 221 261 306 377
#     4  11  25  44  65  89 124 166 213 263 317 384
#     4   9  20  42  69  94 125 167 214 262 313 376
#     4  12  25  39  66  97 129 167 206 262 327 386
#
# _framework density 20.968105000000001
#
# number of rings (size 3 to 8) (size 9 to 14) (size 15 to 20)
#    0.000    1.400    2.000    3.600    2.800    4.000 
#    0.000    3.000    0.000    0.000    0.000    0.000 
#    0.000    0.000    0.000    0.000    0.000    0.000 
#
# Total GULP energy -992269.565046 kJ/mol
# GULP energy per Si atom -12403.369563 kJ/mol
# Density = 2.092038 g / cm^3
# Si number density = 20.968105 Si / 1000 Ang^3
#
#
#
# Elastic Constant Matrix: (Units=GPa)
#
#
# Indices 1 2 3 4 5 6 
#
# 1 52.3629 7.6984 9.0535 0.0000 0.0000 0.0000
# 2 7.6984 52.3634 9.0536 0.0000 0.0000 0.0000
# 3 9.0535 9.0536 95.0202 0.0000 0.0000 0.0000
# 4 0.0000 0.0000 0.0000 35.5357 0.0000 0.0000
# 5 0.0000 0.0000 0.0000 0.0000 35.5357 0.0000
# 6 0.0000 0.0000 0.0000 0.0000 0.0000 34.0906
#
#
#
# Elastic Compliance Matrix: (Units=1/GPa)
#
#
# Indices 1 2 3 4 5 6 
#
# 1 0.019766 -0.002624 -0.001633 0.000000 0.000000 0.000000
# 2 -0.002624 0.019765 -0.001633 0.000000 0.000000 0.000000
# 3 -0.001633 -0.001633 0.010835 0.000000 0.000000 0.000000
# 4 0.000000 0.000000 0.000000 0.028141 0.000000 0.000000
# 5 0.000000 0.000000 0.000000 0.000000 0.028141 0.000000
# 6 0.000000 0.000000 0.000000 0.000000 0.000000 0.029334
#
#
# Mechanical properties :
#
#
# Convention : Reuss Voigt Hill
#
# Bulk Modulus (GPa) = 25.91607 27.92862 26.92234
# Shear Modulus (GPa) = 31.12866 32.62845 31.87856
#
# Velocity S-wave (km/s) = 3.85719 3.94902 3.90338
# Velocity P-wave (km/s) = 5.67661 5.84307 5.76044
#
# Compressibility (1/GPa) = 0.03858610
#
# Stress axis : x y z
#
# Youngs Moduli (GPa) = 50.59293 50.59344 92.29073
#
# Poissons Ratio (x) = 0.13273 0.15074
# Poissons Ratio (y) = 0.13273 0.15074
# Poissons Ratio (z) = 0.08263 0.08263
#
# Static dielectric constant tensor:
#      x y z
#    x 3.774880 0.000000 0.000000 
#    y 0.000000 3.774880 0.000000 
#    z 0.000000 0.000000 3.848080 
# 
# 
# High freq. dielectric constant tensor:
#      x y z
#    x 1.823310 0.000000 0.000000 
#    y 0.000000 1.823310 0.000000 
#    z 0.000000 0.000000 1.829320 
# 
# From -- ./inp_files/6909.got.cif
#   From: 2010.06.25/outbox.cif.g09.slc.cpg/sg140_4_cif.got.tgz:6909.got - 2010.06.28 10:53:23.
