data_PCOD8320156
_publ_section_title
;
Structure prediction by ZEFSAII (Michael W. Deem and Ramdas Pophale) SiO2 
 PCOD8320156
Probable space group: I 4/M C M
;
_chemical_formula_sum "Si O2"
_cell_formula_units_Z 144
_cell_length_a 21.867740
_cell_length_b 21.867740
_cell_length_c 16.325350
_cell_angle_alpha 90.000000
_cell_angle_beta 90.000000
_cell_angle_gamma 90.000000
_cell_volume 7806.750580
_symmetry_space_group_name_H-M "I 4/M C M"
_symmetry_group_IT_number 140
_symmetry_cell_setting 'tetragonal'
loop_
_space_group_symop_operation_xyz
x,y,z
-y,x,z
-x,-y,z
y,-x,z
x,-y,1/2-z
-x,y,1/2-z
y,x,1/2-z
-y,-x,1/2-z
-x,-y,-z
y,-x,-z
x,y,-z
-y,x,-z
-x,y,1/2+z
x,-y,1/2+z
-y,-x,1/2+z
y,x,1/2+z
1/2+x,1/2+y,1/2+z
1/2-y,1/2+x,1/2+z
1/2-x,1/2-y,1/2+z
1/2+y,1/2-x,1/2+z
1/2+x,1/2-y,-z
1/2-x,1/2+y,-z
1/2+y,1/2+x,-z
1/2-y,1/2-x,-z
1/2-x,1/2-y,1/2-z
1/2+y,1/2-x,1/2-z
1/2+x,1/2+y,1/2-z
1/2-y,1/2+x,1/2-z
1/2-x,1/2+y,z
1/2+x,1/2-y,z
1/2-y,1/2-x,z
1/2+y,1/2+x,z
loop_
_atom_site_type_symbol
_atom_site_label
_atom_site_fract_x
_atom_site_fract_y
_atom_site_fract_z
Si Si1 0.947305 0.654732 0.682066
Si Si2 0.433221 0.169074 0.000000
Si Si3 0.945250 0.915242 0.000000
Si Si4 0.766525 0.164724 0.500000
Si Si5 0.571685 0.715551 0.237621
Si Si6 0.134052 0.851486 0.371666
O O1 0.900996 0.599005 0.691698
O O2 0.971184 0.658976 0.585979
O O3 0.911741 0.717881 0.700948
O O4 0.000000 0.644637 0.750000
O O5 0.378361 0.121640 0.000000
O O6 0.403368 0.236866 0.000000
O O7 0.922506 0.878712 0.921340
O O8 0.017799 0.915975 0.000000
O O9 0.715303 0.215303 0.500000
O O10 0.809379 0.174474 0.422265
O O11 0.500000 0.710357 0.250000
O O12 0.592409 0.659630 0.181326
O O13 0.608052 0.706806 0.322536
#
# Coordination Sequence:
#
# PCOD8320156 Si02
#       6
#    32  16  16  16  32  32
#     4  10  21  38  61  88 117 152 193 237 287 345
#     4   9  17  35  59  83 112 149 188 223 275 343
#     4  10  20  34  51  72 102 143 190 237 282 331
#     4  10  19  33  52  79 109 141 184 230 276 338
#     4  10  20  34  52  77 109 142 181 233 289 341
#     4  10  20  33  52  77 104 142 186 231 285 342
#
# _framework density 18.445575000000002
#
# number of rings (size 3 to 8) (size 9 to 14) (size 15 to 20)
#    0.000    2.111    2.222    1.333    0.000    1.111 
#    0.000    7.222    0.000    7.333    0.000    0.000 
#    0.000    0.000    0.000    0.000    0.000    0.000 
#
# Total GULP energy -892162.309475 kJ/mol
# GULP energy per Si atom -12391.143187 kJ/mol
# Density = 1.840359 g / cm^3
# Si number density = 18.445575 Si / 1000 Ang^3
#
#
#
# Elastic Constant Matrix: (Units=GPa)
#
#
# Indices 1 2 3 4 5 6 
#
# 1 66.1036 22.8858 47.6856 0.0000 0.0000 0.0000
# 2 22.8858 66.1031 47.6847 0.0000 0.0000 0.0000
# 3 47.6856 47.6847 155.0684 0.0000 0.0000 0.0000
# 4 0.0000 0.0000 0.0000 19.4174 0.0000 0.0000
# 5 0.0000 0.0000 0.0000 0.0000 19.4179 0.0000
# 6 0.0000 0.0000 0.0000 0.0000 0.0000 22.8448
#
#
#
# Elastic Compliance Matrix: (Units=1/GPa)
#
#
# Indices 1 2 3 4 5 6 
#
# 1 0.019950 -0.003189 -0.005154 0.000000 0.000000 0.000000
# 2 -0.003189 0.019950 -0.005154 0.000000 0.000000 0.000000
# 3 -0.005154 -0.005154 0.009619 0.000000 0.000000 0.000000
# 4 0.000000 0.000000 0.000000 0.051500 0.000000 0.000000
# 5 0.000000 0.000000 0.000000 0.000000 0.051499 0.000000
# 6 0.000000 0.000000 0.000000 0.000000 0.000000 0.043774
#
#
# Mechanical properties :
#
#
# Convention : Reuss Voigt Hill
#
# Bulk Modulus (GPa) = 44.39690 58.19860 51.29775
# Shear Modulus (GPa) = 21.66436 23.60395 22.63415
#
# Velocity S-wave (km/s) = 3.43082 3.58111 3.50677
# Velocity P-wave (km/s) = 6.30994 6.97991 6.65336
#
# Compressibility (1/GPa) = 0.02252409
#
# Stress axis : x y z
#
# Youngs Moduli (GPa) = 50.12543 50.12554 103.96394
#
# Poissons Ratio (x) = 0.15984 0.53586
# Poissons Ratio (y) = 0.15984 0.53584
# Poissons Ratio (z) = 0.25836 0.25835
#
# Static dielectric constant tensor:
#      x y z
#    x 3.296610 0.000000 0.000000 
#    y 0.000000 3.296610 0.000000 
#    z 0.000000 0.000000 4.769420 
# 
# 
# High freq. dielectric constant tensor:
#      x y z
#    x 1.702020 0.000000 0.000000 
#    y 0.000000 1.702020 0.000000 
#    z 0.000000 0.000000 1.736140 
# 
# From -- ./inp_files/6728.got.cif
#   From: 2010.06.25/outbox.cif.g09.slc.cpg/sg140_4_cif.got.tgz:6728.got - 2010.06.28 10:53:23.
