data_PCOD8320854
_publ_section_title
;
Structure prediction by ZEFSAII (Michael W. Deem and Ramdas Pophale) SiO2 
 PCOD8320854
Probable space group: I 41/A M D
;
_chemical_formula_sum "Si O2"
_cell_formula_units_Z 160
_cell_length_a 17.835514
_cell_length_b 17.835514
_cell_length_c 24.433557
_cell_angle_alpha 90.000000
_cell_angle_beta 90.000000
_cell_angle_gamma 90.000000
_cell_volume 7772.450324
_symmetry_space_group_name_H-M "I 41/A M D"
_symmetry_group_IT_number 141
_space_group.IT_coordinate_system_code '2'
_symmetry_cell_setting 'tetragonal'
loop_
_space_group_symop_operation_xyz
x,y,z
1/4-y,3/4+x,1/4+z
-x,1/2-y,z
1/4+y,1/4-x,3/4+z
x,-y,-z
-x,1/2+y,-z
1/4+y,3/4+x,1/4-z
1/4-y,1/4-x,3/4-z
-x,-y,-z
3/4+y,1/4-x,3/4-z
x,1/2+y,-z
3/4-y,3/4+x,1/4-z
-x,y,z
x,1/2-y,z
3/4-y,1/4-x,3/4+z
3/4+y,3/4+x,1/4+z
1/2+x,1/2+y,1/2+z
3/4-y,1/4+x,3/4+z
1/2-x,-y,1/2+z
3/4+y,3/4-x,1/4+z
1/2+x,1/2-y,1/2-z
1/2-x,y,1/2-z
3/4+y,1/4+x,3/4-z
3/4-y,3/4-x,1/4-z
1/2-x,1/2-y,1/2-z
1/4+y,3/4-x,1/4-z
1/2+x,y,1/2-z
1/4-y,1/4+x,3/4-z
1/2-x,1/2+y,1/2+z
1/2+x,-y,1/2+z
1/4-y,3/4-x,1/4+z
1/4+y,1/4+x,3/4+z
loop_
_atom_site_type_symbol
_atom_site_label
_atom_site_fract_x
_atom_site_fract_y
_atom_site_fract_z
Si Si1 0.585965 0.079705 0.171796
Si Si2 0.086885 0.913338 0.290595
Si Si3 0.849144 0.336957 0.611561
Si Si4 0.180830 0.338161 0.917313
Si Si5 0.333568 0.163534 0.263218
O O1 0.500000 0.096517 0.155645
O O2 0.640733 0.109268 0.125000
O O3 0.604212 0.119999 0.228577
O O4 0.599775 0.992174 0.179489
O O5 0.132318 0.850967 0.324656
O O6 0.118303 0.915209 0.228661
O O7 0.000000 0.891316 0.289874
O O8 0.863756 0.250000 0.597138
O O9 0.764349 0.360671 0.599673
O O10 0.902487 0.391944 0.576105
O O11 0.169368 0.250000 0.914898
O O12 0.123583 0.373583 0.875000
O O13 0.336173 0.250000 0.246849
O O14 0.250000 0.132380 0.250000
#
# Coordination Sequence:
#
# PCOD8320854 Si02
#       5
#    32  32  32  32  32
#     4  11  22  38  59  87 125 166 209 256 303 363
#     4  10  22  42  63  88 127 166 204 257 316 373
#     4  11  23  41  64  93 127 164 211 262 312 373
#     4  10  23  44  66  91 125 162 205 261 321 378
#     4  11  23  38  58  88 125 167 212 257 309 371
#
# _framework density 20.585528
#
# number of rings (size 3 to 8) (size 9 to 14) (size 15 to 20)
#    0.000    1.400    2.000    3.000    0.000   11.200 
#    0.000    4.000    0.000    0.000    0.000    0.000 
#    0.000    0.000    0.000    0.000    0.000    0.000 
#
# Total GULP energy -992384.069197 kJ/mol
# GULP energy per Si atom -12404.800865 kJ/mol
# Density = 2.053867 g / cm^3
# Si number density = 20.585528 Si / 1000 Ang^3
#
#
#
# Elastic Constant Matrix: (Units=GPa)
#
#
# Indices 1 2 3 4 5 6 
#
# 1 56.5374 28.7151 33.5607 0.0000 0.0000 0.0000
# 2 28.7151 56.5380 33.5605 0.0000 0.0000 0.0000
# 3 33.5607 33.5605 138.1849 0.0000 0.0000 0.0000
# 4 0.0000 0.0000 0.0000 32.0313 0.0000 0.0000
# 5 0.0000 0.0000 0.0000 0.0000 32.0268 0.0000
# 6 0.0000 0.0000 0.0000 0.0000 0.0000 32.2147
#
#
#
# Elastic Compliance Matrix: (Units=1/GPa)
#
#
# Indices 1 2 3 4 5 6 
#
# 1 0.025223 -0.010720 -0.003522 0.000000 0.000000 0.000000
# 2 -0.010720 0.025222 -0.003522 0.000000 0.000000 0.000000
# 3 -0.003522 -0.003522 0.008948 0.000000 0.000000 0.000000
# 4 0.000000 0.000000 0.000000 0.031219 0.000000 0.000000
# 5 0.000000 0.000000 0.000000 0.000000 0.031224 0.000000
# 6 0.000000 0.000000 0.000000 0.000000 0.000000 0.031042
#
#
# Mechanical properties :
#
#
# Convention : Reuss Voigt Hill
#
# Bulk Modulus (GPa) = 41.90346 49.21475 45.55911
# Shear Modulus (GPa) = 25.46334 29.61616 27.53975
#
# Velocity S-wave (km/s) = 3.52085 3.79712 3.66159
# Velocity P-wave (km/s) = 6.07688 6.57142 6.32898
#
# Compressibility (1/GPa) = 0.02386438
#
# Stress axis : x y z
#
# Youngs Moduli (GPa) = 39.64680 39.64741 111.76202
#
# Poissons Ratio (x) = 0.42500 0.39367
# Poissons Ratio (y) = 0.42499 0.39365
# Poissons Ratio (z) = 0.13965 0.13965
#
# Static dielectric constant tensor:
#      x y z
#    x 3.621800 0.000000 0.000000 
#    y 0.000000 3.621790 0.000000 
#    z 0.000000 0.000000 3.906910 
# 
# 
# High freq. dielectric constant tensor:
#      x y z
#    x 1.800580 0.000000 0.000000 
#    y 0.000000 1.800580 0.000000 
#    z 0.000000 0.000000 1.818510 
# 
# From -- ./inp_files/12682.got.cif
#   From: 2010.03.12/outbox.cif.g09.slc.cpg/sg141_7_cif.got.tgz:12682.got - 2010.04.03 13:18:35.
