data_PCOD8320999
_publ_section_title
;
Structure prediction by ZEFSAII (Michael W. Deem and Ramdas Pophale) SiO2 
 PCOD8320999
Probable space group: I 41/A C D
;
_chemical_formula_sum "Si O2"
_cell_formula_units_Z 160
_cell_length_a 16.942511
_cell_length_b 16.942511
_cell_length_c 29.294763
_cell_angle_alpha 90.000000
_cell_angle_beta 90.000000
_cell_angle_gamma 90.000000
_cell_volume 8409.023020
_symmetry_space_group_name_H-M "I 41/A C D"
_symmetry_group_IT_number 142
_space_group.IT_coordinate_system_code '2'
_symmetry_cell_setting 'tetragonal'
loop_
_space_group_symop_operation_xyz
x,y,z
1/4-y,3/4+x,1/4+z
-x,1/2-y,z
1/4+y,1/4-x,3/4+z
x,-y,1/2-z
1/2-x,y,-z
3/4+y,1/4+x,1/4-z
1/4-y,1/4-x,1/4-z
-x,-y,-z
3/4+y,1/4-x,3/4-z
x,1/2+y,-z
3/4-y,3/4+x,1/4-z
-x,y,1/2+z
1/2+x,-y,z
1/4-y,3/4-x,3/4+z
3/4+y,3/4+x,3/4+z
1/2+x,1/2+y,1/2+z
3/4-y,1/4+x,3/4+z
1/2-x,-y,1/2+z
3/4+y,3/4-x,1/4+z
1/2+x,1/2-y,-z
-x,1/2+y,1/2-z
1/4+y,3/4+x,3/4-z
3/4-y,3/4-x,3/4-z
1/2-x,1/2-y,1/2-z
1/4+y,3/4-x,1/4-z
1/2+x,y,1/2-z
1/4-y,1/4+x,3/4-z
1/2-x,1/2+y,z
x,1/2-y,1/2+z
3/4-y,1/4-x,1/4+z
1/4+y,1/4+x,1/4+z
loop_
_atom_site_type_symbol
_atom_site_label
_atom_site_fract_x
_atom_site_fract_y
_atom_site_fract_z
Si Si1 0.396152 0.817876 0.360157
Si Si2 0.972734 0.569003 0.466649
Si Si3 0.171832 0.176428 0.024593
Si Si4 0.069430 0.191439 0.488596
Si Si5 0.275348 0.652229 0.122012
O O1 0.473172 0.855650 0.383364
O O2 0.391260 0.839681 0.306565
O O3 0.319073 0.856885 0.383518
O O4 0.891648 0.607761 0.484512
O O5 0.960495 0.541601 0.414700
O O6 0.000000 0.500000 0.500000
O O7 0.041009 0.635796 0.469668
O O8 0.187006 0.193318 0.077861
O O9 0.250000 0.145860 0.000000
O O10 0.145764 0.260254 0.004035
O O11 0.000000 0.250000 0.473303
O O12 0.315396 0.565396 0.125000
#
# Coordination Sequence:
#
# PCOD8320999 Si02
#       5
#    32  32  32  32  32
#     4  11  20  33  64  92 114 149 208 258 292 340
#     4  10  20  37  60  84 114 158 199 236 293 365
#     4  10  22  37  58  86 120 152 195 247 303 347
#     4  10  19  35  58  87 112 149 199 247 285 346
#     4  10  22  38  58  86 123 160 187 241 309 367
#
# _framework density 19.027182
#
# number of rings (size 3 to 8) (size 9 to 14) (size 15 to 20)
#    0.000    1.800    4.000    1.200    2.800    0.800 
#    0.000    5.000   13.200    0.000    0.000    0.000 
#    0.000    0.000    0.000    0.000    0.000    0.000 
#
# Total GULP energy -991860.039564 kJ/mol
# GULP energy per Si atom -12398.250495 kJ/mol
# Density = 1.898387 g / cm^3
# Si number density = 19.027182 Si / 1000 Ang^3
#
#
#
# Elastic Constant Matrix: (Units=GPa)
#
#
# Indices 1 2 3 4 5 6 
#
# 1 102.1629 52.6008 47.6422 0.0000 0.0000 0.0000
# 2 52.6008 102.1629 47.6422 0.0000 0.0000 0.0000
# 3 47.6422 47.6422 115.3506 0.0000 0.0000 0.0000
# 4 0.0000 0.0000 0.0000 28.6515 0.0000 0.0000
# 5 0.0000 0.0000 0.0000 0.0000 28.6515 0.0000
# 6 0.0000 0.0000 0.0000 0.0000 0.0000 21.0883
#
#
#
# Elastic Compliance Matrix: (Units=1/GPa)
#
#
# Indices 1 2 3 4 5 6 
#
# 1 0.014421 -0.005756 -0.003579 0.000000 0.000000 0.000000
# 2 -0.005756 0.014421 -0.003579 0.000000 0.000000 0.000000
# 3 -0.003579 -0.003579 0.011625 0.000000 0.000000 0.000000
# 4 0.000000 0.000000 0.000000 0.034902 0.000000 0.000000
# 5 0.000000 0.000000 0.000000 0.000000 0.034902 0.000000
# 6 0.000000 0.000000 0.000000 0.000000 0.000000 0.047420
#
#
# Mechanical properties :
#
#
# Convention : Reuss Voigt Hill
#
# Bulk Modulus (GPa) = 68.30576 68.38298 68.34437
# Shear Modulus (GPa) = 26.53957 27.13099 26.83528
#
# Velocity S-wave (km/s) = 3.73879 3.78022 3.75956
# Velocity P-wave (km/s) = 7.39020 7.42098 7.40561
#
# Compressibility (1/GPa) = 0.01464005
#
# Stress axis : x y z
#
# Youngs Moduli (GPa) = 69.34448 69.34448 86.01836
#
# Poissons Ratio (x) = 0.39914 0.30784
# Poissons Ratio (y) = 0.39914 0.30784
# Poissons Ratio (z) = 0.24817 0.24817
#
# Static dielectric constant tensor:
#      x y z
#    x 3.455190 0.000000 0.000000 
#    y 0.000000 3.455190 0.000000 
#    z 0.000000 0.000000 3.579360 
# 
# 
# High freq. dielectric constant tensor:
#      x y z
#    x 1.727640 0.000000 0.000000 
#    y 0.000000 1.727640 0.000000 
#    z 0.000000 0.000000 1.748840 
# 
# From -- ./inp_files/11293.got.cif
#   From: 2010.03.12/outbox.cif.g09.slc.cpg/sg142_6_cif.got.tgz:11293.got - 2010.04.03 13:27:16.
