data_PCOD8320964
_publ_section_title
;
Structure prediction by ZEFSAII (Michael W. Deem and Ramdas Pophale) SiO2 
 PCOD8320964
Probable space group: I 41/A C D
;
_chemical_formula_sum "Si O2"
_cell_formula_units_Z 136
_cell_length_a 18.786902
_cell_length_b 18.786902
_cell_length_c 18.337343
_cell_angle_alpha 90.000000
_cell_angle_beta 90.000000
_cell_angle_gamma 90.000000
_cell_volume 6472.122793
_symmetry_space_group_name_H-M "I 41/A C D"
_symmetry_group_IT_number 142
_space_group.IT_coordinate_system_code '2'
_symmetry_cell_setting 'tetragonal'
loop_
_space_group_symop_operation_xyz
x,y,z
1/4-y,3/4+x,1/4+z
-x,1/2-y,z
1/4+y,1/4-x,3/4+z
x,-y,1/2-z
1/2-x,y,-z
3/4+y,1/4+x,1/4-z
1/4-y,1/4-x,1/4-z
-x,-y,-z
3/4+y,1/4-x,3/4-z
x,1/2+y,-z
3/4-y,3/4+x,1/4-z
-x,y,1/2+z
1/2+x,-y,z
1/4-y,3/4-x,3/4+z
3/4+y,3/4+x,3/4+z
1/2+x,1/2+y,1/2+z
3/4-y,1/4+x,3/4+z
1/2-x,-y,1/2+z
3/4+y,3/4-x,1/4+z
1/2+x,1/2-y,-z
-x,1/2+y,1/2-z
1/4+y,3/4+x,3/4-z
3/4-y,3/4-x,3/4-z
1/2-x,1/2-y,1/2-z
1/4+y,3/4-x,1/4-z
1/2+x,y,1/2-z
1/4-y,1/4+x,3/4-z
1/2-x,1/2+y,z
x,1/2-y,1/2+z
3/4-y,1/4-x,1/4+z
1/4+y,1/4+x,1/4+z
loop_
_atom_site_type_symbol
_atom_site_label
_atom_site_fract_x
_atom_site_fract_y
_atom_site_fract_z
Si Si1 0.319992 0.125576 0.035521
Si Si2 0.816885 0.460938 0.544904
Si Si3 0.638792 0.289223 0.789831
Si Si4 0.000000 0.750000 0.875000
Si Si5 0.796408 0.692116 0.681966
O O1 0.336629 0.166764 0.110035
O O2 0.305130 0.044477 0.057776
O O3 0.250000 0.159308 0.000000
O O4 0.380508 0.136846 0.974875
O O5 0.750000 0.429097 0.500000
O O6 0.824595 0.425406 0.625000
O O7 0.887385 0.446951 0.499039
O O8 0.573179 0.248380 0.828104
O O9 0.713231 0.289423 0.835547
O O10 0.658506 0.259395 0.709651
#
# Coordination Sequence:
#
# PCOD8320964 Si02
#       5
#    32  32  32   8  32
#     4  10  20  36  63  88 120 162 205 261 314 370
#     4  10  18  31  58  95 122 162 207 255 311 369
#     4  10  24  39  61  88 123 161 212 254 320 380
#     4  12  24  44  62  88 120 180 206 248 316 404
#     4  10  21  40  59  89 128 155 206 272 310 372
#
# _framework density 21.013200000000001
#
# number of rings (size 3 to 8) (size 9 to 14) (size 15 to 20)
#    0.000    1.882    2.353    1.412    1.647    1.882 
#    0.000    0.000    0.000    0.000    0.000    0.000 
#    0.000    0.000    0.000    0.000    0.000    0.000 
#
# Total GULP energy -842971.197668 kJ/mol
# GULP energy per Si atom -12396.635260 kJ/mol
# Density = 2.096537 g / cm^3
# Si number density = 21.013200 Si / 1000 Ang^3
#
#
#
# Elastic Constant Matrix: (Units=GPa)
#
#
# Indices 1 2 3 4 5 6 
#
# 1 80.2743 35.1773 21.8480 0.0000 0.0000 0.0000
# 2 35.1773 80.2745 21.8483 0.0000 0.0000 0.0000
# 3 21.8480 21.8483 77.4950 0.0000 0.0000 0.0000
# 4 0.0000 0.0000 0.0000 27.4775 0.0000 0.0000
# 5 0.0000 0.0000 0.0000 0.0000 27.4772 0.0000
# 6 0.0000 0.0000 0.0000 0.0000 0.0000 25.6085
#
#
#
# Elastic Compliance Matrix: (Units=1/GPa)
#
#
# Indices 1 2 3 4 5 6 
#
# 1 0.015935 -0.006239 -0.002734 0.000000 0.000000 0.000000
# 2 -0.006239 0.015935 -0.002734 0.000000 0.000000 0.000000
# 3 -0.002734 -0.002734 0.014445 0.000000 0.000000 0.000000
# 4 0.000000 0.000000 0.000000 0.036393 0.000000 0.000000
# 5 0.000000 0.000000 0.000000 0.000000 0.036394 0.000000
# 6 0.000000 0.000000 0.000000 0.000000 0.000000 0.039050
#
#
# Mechanical properties :
#
#
# Convention : Reuss Voigt Hill
#
# Bulk Modulus (GPa) = 43.66174 43.97676 43.81925
# Shear Modulus (GPa) = 26.42705 26.72399 26.57552
#
# Velocity S-wave (km/s) = 3.55017 3.57006 3.56013
# Velocity P-wave (km/s) = 6.13419 6.16177 6.14799
#
# Compressibility (1/GPa) = 0.02290335
#
# Stress axis : x y z
#
# Youngs Moduli (GPa) = 62.75363 62.75370 69.22584
#
# Poissons Ratio (x) = 0.39152 0.18924
# Poissons Ratio (y) = 0.39152 0.18924
# Poissons Ratio (z) = 0.17155 0.17155
#
# Static dielectric constant tensor:
#      x y z
#    x 3.706360 0.000000 0.000000 
#    y 0.000000 3.706360 0.000000 
#    z 0.000000 0.000000 3.662060 
# 
# 
# High freq. dielectric constant tensor:
#      x y z
#    x 1.811880 0.000000 0.000000 
#    y 0.000000 1.811880 0.000000 
#    z 0.000000 0.000000 1.820800 
# 
# From -- ./inp_files/8826.got.cif
#   From: 2010.03.12/outbox.cif.g09.slc.cpg/sg142_5_cif.got.tgz:8826.got - 2010.04.03 13:27:16.
