data_PCOD8320598
_publ_section_title
;
Structure prediction by ZEFSAII (Michael W. Deem and Ramdas Pophale) SiO2 
 PCOD8320598
Probable space group: I 41/A M D
;
_chemical_formula_sum "Si O2"
_cell_formula_units_Z 96
_cell_length_a 24.825715
_cell_length_b 24.825715
_cell_length_c 9.043999
_cell_angle_alpha 90.000000
_cell_angle_beta 90.000000
_cell_angle_gamma 90.000000
_cell_volume 5573.962421
_symmetry_space_group_name_H-M "I 41/A M D"
_symmetry_group_IT_number 141
_space_group.IT_coordinate_system_code '2'
_symmetry_cell_setting 'tetragonal'
loop_
_space_group_symop_operation_xyz
x,y,z
1/4-y,3/4+x,1/4+z
-x,1/2-y,z
1/4+y,1/4-x,3/4+z
x,-y,-z
-x,1/2+y,-z
1/4+y,3/4+x,1/4-z
1/4-y,1/4-x,3/4-z
-x,-y,-z
3/4+y,1/4-x,3/4-z
x,1/2+y,-z
3/4-y,3/4+x,1/4-z
-x,y,z
x,1/2-y,z
3/4-y,1/4-x,3/4+z
3/4+y,3/4+x,1/4+z
1/2+x,1/2+y,1/2+z
3/4-y,1/4+x,3/4+z
1/2-x,-y,1/2+z
3/4+y,3/4-x,1/4+z
1/2+x,1/2-y,1/2-z
1/2-x,y,1/2-z
3/4+y,1/4+x,3/4-z
3/4-y,3/4-x,1/4-z
1/2-x,1/2-y,1/2-z
1/4+y,3/4-x,1/4-z
1/2+x,y,1/2-z
1/4-y,1/4+x,3/4-z
1/2-x,1/2+y,1/2+z
1/2+x,-y,1/2+z
1/4-y,3/4-x,1/4+z
1/4+y,1/4+x,3/4+z
loop_
_atom_site_type_symbol
_atom_site_label
_atom_site_fract_x
_atom_site_fract_y
_atom_site_fract_z
Si Si1 0.063406 0.891151 0.546477
Si Si2 0.139382 0.963213 0.715877
Si Si3 0.635060 0.409940 0.785150
O O1 0.088527 0.838527 0.625000
O O2 0.085948 0.944763 0.626899
O O3 0.081166 0.893569 0.374399
O O4 0.000000 0.888538 0.559371
O O5 0.191492 0.941492 0.625000
O O6 0.138298 0.937434 0.878708
O O7 0.140809 0.026370 0.732730
O O8 0.632211 0.382211 0.625000
#
# Coordination Sequence:
#
# PCOD8320598 Si02
#       3
#    32  32  32
#     4   9  19  36  55  72  91 121 166 210 245 289
#     4   9  18  30  47  72 101 136 171 195 224 276
#     4  10  19  30  46  74 107 133 160 195 236 283
#
# _framework density 17.222937000000002
#
# number of rings (size 3 to 8) (size 9 to 14) (size 15 to 20)
#    0.000    3.333    0.000    5.000    0.000    7.000 
#    0.000    6.667    0.000   10.000    0.000    0.000 
#    0.000    0.000    0.000    0.000    0.000    0.000 
#
# Total GULP energy -594970.563688 kJ/mol
# GULP energy per Si atom -12395.220077 kJ/mol
# Density = 1.718374 g / cm^3
# Si number density = 17.222937 Si / 1000 Ang^3
#
#
#
# Elastic Constant Matrix: (Units=GPa)
#
#
# Indices 1 2 3 4 5 6 
#
# 1 93.8000 11.3091 28.2674 0.0000 0.0000 0.0000
# 2 11.3091 93.8000 28.2674 0.0000 0.0000 0.0000
# 3 28.2674 28.2674 140.0032 0.0000 0.0000 0.0000
# 4 0.0000 0.0000 0.0000 8.4589 0.0000 0.0000
# 5 0.0000 0.0000 0.0000 0.0000 8.4589 0.0000
# 6 0.0000 0.0000 0.0000 0.0000 0.0000 5.7442
#
#
#
# Elastic Compliance Matrix: (Units=1/GPa)
#
#
# Indices 1 2 3 4 5 6 
#
# 1 0.011398 -0.000725 -0.002155 0.000000 0.000000 0.000000
# 2 -0.000725 0.011398 -0.002155 0.000000 0.000000 0.000000
# 3 -0.002155 -0.002155 0.008013 0.000000 0.000000 0.000000
# 4 0.000000 0.000000 0.000000 0.118219 0.000000 0.000000
# 5 0.000000 0.000000 0.000000 0.000000 0.118219 0.000000
# 6 0.000000 0.000000 0.000000 0.000000 0.000000 0.174088
#
#
# Mechanical properties :
#
#
# Convention : Reuss Voigt Hill
#
# Bulk Modulus (GPa) = 48.21803 51.47677 49.84740
# Shear Modulus (GPa) = 10.90949 21.84968 16.37958
#
# Velocity S-wave (km/s) = 2.51953 3.56566 3.08723
# Velocity P-wave (km/s) = 6.04328 6.84874 6.45858
#
# Compressibility (1/GPa) = 0.02073913
#
# Stress axis : x y z
#
# Youngs Moduli (GPa) = 87.73642 87.73642 124.79910
#
# Poissons Ratio (x) = 0.06359 0.26893
# Poissons Ratio (y) = 0.06359 0.26893
# Poissons Ratio (z) = 0.18907 0.18907
#
# Static dielectric constant tensor:
#      x y z
#    x 2.947880 0.000000 0.000000 
#    y 0.000000 2.947880 0.000000 
#    z 0.000000 0.000000 3.468960 
# 
# 
# High freq. dielectric constant tensor:
#      x y z
#    x 1.642740 0.000000 0.000000 
#    y 0.000000 1.642740 0.000000 
#    z 0.000000 0.000000 1.675550 
# 
# From -- ./inp_files/2460.got.cif
#   From: 2010.03.12/outbox.cif.g09.slc.cpg/sg141_2_cif.got.tgz:2460.got - 2010.04.03 13:18:35.
