data_PCOD8320046
_publ_section_title
;
Structure prediction by ZEFSAII (Michael W. Deem and Ramdas Pophale) SiO2 
 PCOD8320046
Probable space group: I 4/M C M
;
_chemical_formula_sum "Si O2"
_cell_formula_units_Z 208
_cell_length_a 21.294465
_cell_length_b 21.294465
_cell_length_c 29.357271
_cell_angle_alpha 90.000000
_cell_angle_beta 90.000000
_cell_angle_gamma 90.000000
_cell_volume 13312.178999
_symmetry_space_group_name_H-M "I 4/M C M"
_symmetry_group_IT_number 140
_symmetry_cell_setting 'tetragonal'
loop_
_space_group_symop_operation_xyz
x,y,z
-y,x,z
-x,-y,z
y,-x,z
x,-y,1/2-z
-x,y,1/2-z
y,x,1/2-z
-y,-x,1/2-z
-x,-y,-z
y,-x,-z
x,y,-z
-y,x,-z
-x,y,1/2+z
x,-y,1/2+z
-y,-x,1/2+z
y,x,1/2+z
1/2+x,1/2+y,1/2+z
1/2-y,1/2+x,1/2+z
1/2-x,1/2-y,1/2+z
1/2+y,1/2-x,1/2+z
1/2+x,1/2-y,-z
1/2-x,1/2+y,-z
1/2+y,1/2+x,-z
1/2-y,1/2-x,-z
1/2-x,1/2-y,1/2-z
1/2+y,1/2-x,1/2-z
1/2+x,1/2+y,1/2-z
1/2-y,1/2+x,1/2-z
1/2-x,1/2+y,z
1/2+x,1/2-y,z
1/2-y,1/2-x,z
1/2+y,1/2+x,z
loop_
_atom_site_type_symbol
_atom_site_label
_atom_site_fract_x
_atom_site_fract_y
_atom_site_fract_z
Si Si1 0.766436 0.369358 0.630187
Si Si2 0.539692 0.189475 0.052963
Si Si3 0.201660 0.603379 0.051104
Si Si4 0.165888 0.235821 0.632248
Si Si5 0.178065 0.067112 0.302318
Si Si6 0.423475 0.329672 0.197041
Si Si7 0.548747 0.951253 0.446211
O O1 0.830647 0.330647 0.641651
O O2 0.774196 0.411161 0.584783
O O3 0.709258 0.323072 0.621367
O O4 0.742506 0.412016 0.672359
O O5 0.469648 0.213455 0.060342
O O6 0.534038 0.118399 0.069989
O O7 0.561526 0.194958 0.000000
O O8 0.129745 0.629745 0.058889
O O9 0.249414 0.638847 0.083130
O O10 0.222204 0.619129 0.000000
O O11 0.206887 0.293114 0.652589
O O12 0.109985 0.224785 0.668042
O O13 0.115157 0.106681 0.313526
O O14 0.192213 0.077362 0.249244
O O15 0.161606 0.996000 0.317071
O O16 0.542970 0.957031 0.500000
O O17 0.500000 0.000000 0.423067
#
# Coordination Sequence:
#
# PCOD8320046 Si02
#       7
#    32  32  32  32  32  32  16
#     4  10  19  30  43  64  90 117 147 180 220 260
#     4  10  18  28  43  62  87 116 146 182 222 263
#     4   9  17  29  44  63  85 114 148 181 217 256
#     4   9  18  30  45  63  88 119 149 181 214 259
#     4   9  18  30  48  67  91 116 141 182 220 267
#     4   9  17  31  47  69  90 114 145 176 225 265
#     4   9  16  26  40  60  84 111 140 176 220 262
#
# _framework density 15.624790000000001
#
# number of rings (size 3 to 8) (size 9 to 14) (size 15 to 20)
#    0.000    2.692    0.769    1.385    0.000    3.385 
#    0.000    6.154    0.000    0.000    0.000    0.000 
#    0.000    0.000    0.000   28.615    0.000    0.615 
#
# Total GULP energy -1288619.091140 kJ/mol
# GULP energy per Si atom -12390.568184 kJ/mol
# Density = 1.558923 g / cm^3
# Si number density = 15.624790 Si / 1000 Ang^3
#
#
#
# Elastic Constant Matrix: (Units=GPa)
#
#
# Indices 1 2 3 4 5 6 
#
# 1 93.5690 40.2308 53.9709 0.0000 0.0000 0.0000
# 2 40.2308 93.5691 53.9708 0.0000 0.0000 0.0000
# 3 53.9709 53.9708 75.5674 0.0000 0.0000 0.0000
# 4 0.0000 0.0000 0.0000 25.7233 0.0000 0.0000
# 5 0.0000 0.0000 0.0000 0.0000 25.7233 0.0000
# 6 0.0000 0.0000 0.0000 0.0000 0.0000 12.8441
#
#
#
# Elastic Compliance Matrix: (Units=1/GPa)
#
#
# Indices 1 2 3 4 5 6 
#
# 1 0.018191 -0.000557 -0.012595 0.000000 0.000000 0.000000
# 2 -0.000557 0.018191 -0.012595 0.000000 0.000000 0.000000
# 3 -0.012595 -0.012595 0.031224 0.000000 0.000000 0.000000
# 4 0.000000 0.000000 0.000000 0.038875 0.000000 0.000000
# 5 0.000000 0.000000 0.000000 0.000000 0.038875 0.000000
# 6 0.000000 0.000000 0.000000 0.000000 0.000000 0.077857
#
#
# Mechanical properties :
#
#
# Convention : Reuss Voigt Hill
#
# Bulk Modulus (GPa) = 62.05827 62.11671 62.08749
# Shear Modulus (GPa) = 17.85219 20.49368 19.17293
#
# Velocity S-wave (km/s) = 3.38384 3.62555 3.50678
# Velocity P-wave (km/s) = 7.42100 7.57415 7.49796
#
# Compressibility (1/GPa) = 0.01611389
#
# Stress axis : x y z
#
# Youngs Moduli (GPa) = 54.97095 54.97114 32.02690
#
# Poissons Ratio (x) = 0.03061 0.40337
# Poissons Ratio (y) = 0.03061 0.40337
# Poissons Ratio (z) = 0.69235 0.69234
#
# Static dielectric constant tensor:
#      x y z
#    x 3.061920 0.000000 0.000000 
#    y 0.000000 3.061910 0.000000 
#    z 0.000000 0.000000 2.903560 
# 
# 
# High freq. dielectric constant tensor:
#      x y z
#    x 1.599910 0.000000 0.000000 
#    y 0.000000 1.599910 0.000000 
#    z 0.000000 0.000000 1.586140 
# 
# From -- ./inp_files/11742.got.cif
#   From: 2010.06.25/outbox.cif.g09.slc.cpg/sg140_6_cif.got.tgz:11742.got - 2010.06.28 10:53:23.
