data_PCOD8320672
_publ_section_title
;
Structure prediction by ZEFSAII (Michael W. Deem and Ramdas Pophale) SiO2 
 PCOD8320672
Probable space group: I 41/A M D
;
_chemical_formula_sum "Si O2"
_cell_formula_units_Z 80
_cell_length_a 23.548867
_cell_length_b 23.548867
_cell_length_c 8.697873
_cell_angle_alpha 90.000000
_cell_angle_beta 90.000000
_cell_angle_gamma 90.000000
_cell_volume 4823.397966
_symmetry_space_group_name_H-M "I 41/A M D"
_symmetry_group_IT_number 141
_space_group.IT_coordinate_system_code '2'
_symmetry_cell_setting 'tetragonal'
loop_
_space_group_symop_operation_xyz
x,y,z
1/4-y,3/4+x,1/4+z
-x,1/2-y,z
1/4+y,1/4-x,3/4+z
x,-y,-z
-x,1/2+y,-z
1/4+y,3/4+x,1/4-z
1/4-y,1/4-x,3/4-z
-x,-y,-z
3/4+y,1/4-x,3/4-z
x,1/2+y,-z
3/4-y,3/4+x,1/4-z
-x,y,z
x,1/2-y,z
3/4-y,1/4-x,3/4+z
3/4+y,3/4+x,1/4+z
1/2+x,1/2+y,1/2+z
3/4-y,1/4+x,3/4+z
1/2-x,-y,1/2+z
3/4+y,3/4-x,1/4+z
1/2+x,1/2-y,1/2-z
1/2-x,y,1/2-z
3/4+y,1/4+x,3/4-z
3/4-y,3/4-x,1/4-z
1/2-x,1/2-y,1/2-z
1/4+y,3/4-x,1/4-z
1/2+x,y,1/2-z
1/4-y,1/4+x,3/4-z
1/2-x,1/2+y,1/2+z
1/2+x,-y,1/2+z
1/4-y,3/4-x,1/4+z
1/4+y,1/4+x,3/4+z
loop_
_atom_site_type_symbol
_atom_site_label
_atom_site_fract_x
_atom_site_fract_y
_atom_site_fract_z
Si Si1 0.141482 0.516498 0.163385
Si Si2 0.842656 0.907345 0.625000
Si Si3 0.309060 0.812816 0.663747
O O1 0.197449 0.552552 0.125000
O O2 0.159811 0.462809 0.267007
O O3 0.093252 0.552659 0.249349
O O4 0.113862 0.500000 0.000000
O O5 0.898354 0.901498 0.520396
O O6 0.335803 0.750000 0.640157
O O7 0.250000 0.807044 0.750000
#
# Coordination Sequence:
#
# PCOD8320672 Si02
#       3
#    32  16  32
#     4  11  21  29  49  76 106 134 167 202 254 308
#     4  10  20  32  50  73 102 134 168 206 246 303
#     4   9  19  34  49  70 101 133 165 204 246 298
#
# _framework density 16.585818
#
# number of rings (size 3 to 8) (size 9 to 14) (size 15 to 20)
#    0.000    2.000    4.000    0.000    2.800    0.800 
#    0.000    0.000    0.000    0.600    0.000    0.000 
#    0.000    0.000    0.000    0.000    0.000    0.000 
#
# Total GULP energy -495767.728183 kJ/mol
# GULP energy per Si atom -12394.193205 kJ/mol
# Density = 1.654807 g / cm^3
# Si number density = 16.585818 Si / 1000 Ang^3
#
#
#
# Elastic Constant Matrix: (Units=GPa)
#
#
# Indices 1 2 3 4 5 6 
#
# 1 103.9571 45.7895 55.8532 0.0000 0.0000 0.0000
# 2 45.7895 103.9608 55.8542 0.0000 0.0000 0.0000
# 3 55.8532 55.8542 153.4567 0.0000 0.0000 0.0000
# 4 0.0000 0.0000 0.0000 27.9644 0.0000 0.0000
# 5 0.0000 0.0000 0.0000 0.0000 28.0011 0.0000
# 6 0.0000 0.0000 0.0000 0.0000 0.0000 14.1069
#
#
#
# Elastic Compliance Matrix: (Units=1/GPa)
#
#
# Indices 1 2 3 4 5 6 
#
# 1 0.013179 -0.004012 -0.003336 0.000000 0.000000 0.000000
# 2 -0.004012 0.013179 -0.003336 0.000000 0.000000 0.000000
# 3 -0.003336 -0.003336 0.008945 0.000000 0.000000 0.000000
# 4 0.000000 0.000000 0.000000 0.035760 0.000000 0.000000
# 5 0.000000 0.000000 0.000000 0.000000 0.035713 0.000000
# 6 0.000000 0.000000 0.000000 0.000000 0.000000 0.070887
#
#
# Mechanical properties :
#
#
# Convention : Reuss Voigt Hill
#
# Bulk Modulus (GPa) = 71.77209 75.15203 73.46206
# Shear Modulus (GPa) = 24.54861 27.60633 26.07747
#
# Velocity S-wave (km/s) = 3.85138 4.08420 3.96949
# Velocity P-wave (km/s) = 7.94636 8.22498 8.08687
#
# Compressibility (1/GPa) = 0.01393299
#
# Stress axis : x y z
#
# Youngs Moduli (GPa) = 75.87729 75.88005 111.79173
#
# Poissons Ratio (x) = 0.30445 0.37299
# Poissons Ratio (y) = 0.30444 0.37298
# Poissons Ratio (z) = 0.25316 0.25316
#
# Static dielectric constant tensor:
#      x y z
#    x 3.160590 0.000000 0.000000 
#    y 0.000000 3.160590 0.000000 
#    z 0.000000 0.000000 3.541790 
# 
# 
# High freq. dielectric constant tensor:
#      x y z
#    x 1.610430 0.000000 0.000000 
#    y 0.000000 1.610430 0.000000 
#    z 0.000000 0.000000 1.662100 
# 
# From -- ./inp_files/2269.got.cif
#   From: 2010.03.12/outbox.cif.g09.slc.cpg/sg141_2_cif.got.tgz:2269.got - 2010.04.03 13:18:35.
