data_PCOD8320436
_publ_section_title
;
Structure prediction by ZEFSAII (Michael W. Deem and Ramdas Pophale) SiO2 
 PCOD8320436
Probable space group: I 4/M C M
;
_chemical_formula_sum "Si O2"
_cell_formula_units_Z 144
_cell_length_a 18.009168
_cell_length_b 18.009168
_cell_length_c 22.546128
_cell_angle_alpha 90.000000
_cell_angle_beta 90.000000
_cell_angle_gamma 90.000000
_cell_volume 7312.388672
_symmetry_space_group_name_H-M "I 4/M C M"
_symmetry_group_IT_number 140
_symmetry_cell_setting 'tetragonal'
loop_
_space_group_symop_operation_xyz
x,y,z
-y,x,z
-x,-y,z
y,-x,z
x,-y,1/2-z
-x,y,1/2-z
y,x,1/2-z
-y,-x,1/2-z
-x,-y,-z
y,-x,-z
x,y,-z
-y,x,-z
-x,y,1/2+z
x,-y,1/2+z
-y,-x,1/2+z
y,x,1/2+z
1/2+x,1/2+y,1/2+z
1/2-y,1/2+x,1/2+z
1/2-x,1/2-y,1/2+z
1/2+y,1/2-x,1/2+z
1/2+x,1/2-y,-z
1/2-x,1/2+y,-z
1/2+y,1/2+x,-z
1/2-y,1/2-x,-z
1/2-x,1/2-y,1/2-z
1/2+y,1/2-x,1/2-z
1/2+x,1/2+y,1/2-z
1/2-y,1/2+x,1/2-z
1/2-x,1/2+y,z
1/2+x,1/2-y,z
1/2-y,1/2-x,z
1/2+y,1/2+x,z
loop_
_atom_site_type_symbol
_atom_site_label
_atom_site_fract_x
_atom_site_fract_y
_atom_site_fract_z
Si Si1 0.673608 0.659160 0.500000
Si Si2 0.647676 0.494314 0.500000
Si Si3 0.146790 0.646790 0.674483
Si Si4 0.276688 0.996028 0.682176
Si Si5 0.836990 0.336990 0.189832
Si Si6 0.002384 0.115044 0.869637
Si Si7 0.752832 0.252832 0.599178
O O1 0.694715 0.571377 0.500000
O O2 0.587154 0.685748 0.500000
O O3 0.708019 0.690269 0.560210
O O4 0.600404 0.497994 0.440080
O O5 0.163443 0.559576 0.666972
O O6 0.173225 0.673225 0.739657
O O7 0.187821 0.687821 0.621233
O O8 0.318516 0.919821 0.668118
O O9 0.250689 0.000000 0.750000
O O10 0.202042 0.005294 0.644056
O O11 0.781152 0.281152 0.158514
O O12 0.927650 0.075463 0.843848
#
# Coordination Sequence:
#
# PCOD8320436 Si02
#       7
#    16  16  16  32  16  32  16
#     4  11  24  35  60  82 126 151 206 241 280 360
#     4  12  20  37  54  86 110 161 188 236 284 339
#     4  10  22  40  62  86 117 153 200 247 299 358
#     4  10  23  40  61  88 115 157 199 247 303 352
#     4  10  22  40  62  86 117 153 200 247 299 358
#     4  11  22  36  57  86 124 161 194 243 292 364
#     4  11  23  40  54  92 117 159 196 244 302 339
#
# _framework density 19.692606999999999
#
# number of rings (size 3 to 8) (size 9 to 14) (size 15 to 20)
#    0.000    1.333    2.222    3.000    3.111    2.444 
#    0.000    3.333    0.000    0.000    0.000    0.000 
#    0.000   12.444    0.000    0.000    0.000    0.000 
#
# Total GULP energy -892155.712474 kJ/mol
# GULP energy per Si atom -12391.051562 kJ/mol
# Density = 1.964779 g / cm^3
# Si number density = 19.692607 Si / 1000 Ang^3
#
#
#
# Elastic Constant Matrix: (Units=GPa)
#
#
# Indices 1 2 3 4 5 6 
#
# 1 121.9957 51.7833 25.6013 0.0000 0.0000 0.0000
# 2 51.7833 121.9957 25.6013 0.0000 0.0000 0.0000
# 3 25.6013 25.6013 55.5799 0.0000 0.0000 0.0000
# 4 0.0000 0.0000 0.0000 -26.3448 0.0000 0.0000
# 5 0.0000 0.0000 0.0000 0.0000 -26.3448 0.0000
# 6 0.0000 0.0000 0.0000 0.0000 0.0000 35.4166
#
#
#
# Elastic Compliance Matrix: (Units=1/GPa)
#
#
# Indices 1 2 3 4 5 6 
#
# 1 0.010450 -0.003792 -0.003067 0.000000 0.000000 0.000000
# 2 -0.003792 0.010450 -0.003067 0.000000 0.000000 0.000000
# 3 -0.003067 -0.003067 0.020817 0.000000 0.000000 0.000000
# 4 0.000000 0.000000 0.000000 -0.037958 0.000000 0.000000
# 5 0.000000 0.000000 0.000000 0.000000 -0.037958 0.000000
# 6 0.000000 0.000000 0.000000 0.000000 0.000000 0.028235
#
#
# Mechanical properties :
#
#
# Convention : Reuss Voigt Hill
#
# Bulk Modulus (GPa) = 45.73280 56.17147 50.95213
# Shear Modulus (GPa) = 236.09768 9.65107 122.87438
#
# Velocity S-wave (km/s) = 10.96138 2.21619 7.90770
# Velocity P-wave (km/s) = 13.54534 5.92746 10.45492
#
# Compressibility (1/GPa) = 0.02186615
#
# Stress axis : x y z
#
# Youngs Moduli (GPa) = 95.69117 95.69117 48.03670
#
# Poissons Ratio (x) = 0.36288 0.14732
# Poissons Ratio (y) = 0.36288 0.14732
# Poissons Ratio (z) = 0.29347 0.29347
#
# Static dielectric constant tensor:
#      x y z
#    x 3.610490 0.000000 0.000000 
#    y 0.000000 3.610490 0.000000 
#    z 0.000000 0.000000 3.566720 
# 
# 
# High freq. dielectric constant tensor:
#      x y z
#    x 1.767930 0.000000 0.000000 
#    y 0.000000 1.767930 0.000000 
#    z 0.000000 0.000000 1.765060 
# 
# From -- ./inp_files/9519.got.cif
#   From: 2010.06.25/outbox.cif.g09.slc.cpg/sg140_5_cif.got.tgz:9519.got - 2010.06.28 10:53:23.
