data_PCOD8320428
_publ_section_title
;
Structure prediction by ZEFSAII (Michael W. Deem and Ramdas Pophale) SiO2 
 PCOD8320428
Probable space group: I 4/M C M
;
_chemical_formula_sum "Si O2"
_cell_formula_units_Z 160
_cell_length_a 17.872874
_cell_length_b 17.872874
_cell_length_c 25.924138
_cell_angle_alpha 90.000000
_cell_angle_beta 90.000000
_cell_angle_gamma 90.000000
_cell_volume 8281.196922
_symmetry_space_group_name_H-M "I 4/M C M"
_symmetry_group_IT_number 140
_symmetry_cell_setting 'tetragonal'
loop_
_space_group_symop_operation_xyz
x,y,z
-y,x,z
-x,-y,z
y,-x,z
x,-y,1/2-z
-x,y,1/2-z
y,x,1/2-z
-y,-x,1/2-z
-x,-y,-z
y,-x,-z
x,y,-z
-y,x,-z
-x,y,1/2+z
x,-y,1/2+z
-y,-x,1/2+z
y,x,1/2+z
1/2+x,1/2+y,1/2+z
1/2-y,1/2+x,1/2+z
1/2-x,1/2-y,1/2+z
1/2+y,1/2-x,1/2+z
1/2+x,1/2-y,-z
1/2-x,1/2+y,-z
1/2+y,1/2+x,-z
1/2-y,1/2-x,-z
1/2-x,1/2-y,1/2-z
1/2+y,1/2-x,1/2-z
1/2+x,1/2+y,1/2-z
1/2-y,1/2+x,1/2-z
1/2-x,1/2+y,z
1/2+x,1/2-y,z
1/2-y,1/2-x,z
1/2+y,1/2+x,z
loop_
_atom_site_type_symbol
_atom_site_label
_atom_site_fract_x
_atom_site_fract_y
_atom_site_fract_z
Si Si1 0.443305 0.056695 0.623108
Si Si2 0.486585 0.621921 0.056556
Si Si3 0.215198 0.096887 0.369901
Si Si4 0.340194 0.159807 0.438786
Si Si5 0.342253 0.281755 0.197462
Si Si6 0.005847 0.314639 0.692233
O O1 0.401561 0.098440 0.577127
O O2 0.496210 0.113045 0.656149
O O3 0.500000 0.000000 0.595660
O O4 0.418285 0.564809 0.062369
O O5 0.476051 0.679713 0.102945
O O6 0.482168 0.660572 0.000000
O O7 0.261408 0.137560 0.414576
O O8 0.156036 0.156565 0.348015
O O9 0.262866 0.065430 0.321800
O O10 0.333867 0.166134 0.500000
O O11 0.329926 0.329926 0.250000
O O12 0.270977 0.229024 0.189689
O O13 0.416839 0.232189 0.190305
O O14 0.000000 0.344717 0.750000
#
# Coordination Sequence:
#
# PCOD8320428 Si02
#       6
#    16  32  32  16  32  32
#     4  10  24  39  59  89 116 158 204 250 308 358
#     4   9  18  33  55  80 106 142 190 244 296 347
#     4  11  20  37  56  85 114 154 197 239 297 362
#     4  10  22  39  60  86 115 150 202 252 296 358
#     4  11  22  36  57  82 120 159 196 244 295 357
#     4  11  23  36  57  87 121 157 203 244 301 357
#
# _framework density 19.320878
#
# number of rings (size 3 to 8) (size 9 to 14) (size 15 to 20)
#    0.000    1.600    3.000    3.000    2.800    0.200 
#    0.000    0.000    0.000    1.200    0.000    0.000 
#    0.000    0.000    0.000    0.000    0.000    0.000 
#
# Total GULP energy -991187.027906 kJ/mol
# GULP energy per Si atom -12389.837849 kJ/mol
# Density = 1.927690 g / cm^3
# Si number density = 19.320878 Si / 1000 Ang^3
#
#
#
# Elastic Constant Matrix: (Units=GPa)
#
#
# Indices 1 2 3 4 5 6 
#
# 1 56.6696 12.7531 17.0005 0.0000 0.0000 0.0000
# 2 12.7531 56.6694 17.0001 0.0000 0.0000 0.0000
# 3 17.0005 17.0001 93.3510 0.0000 0.0000 0.0000
# 4 0.0000 0.0000 0.0000 19.7038 0.0000 0.0000
# 5 0.0000 0.0000 0.0000 0.0000 19.7041 0.0000
# 6 0.0000 0.0000 0.0000 0.0000 0.0000 43.8404
#
#
#
# Elastic Compliance Matrix: (Units=1/GPa)
#
#
# Indices 1 2 3 4 5 6 
#
# 1 0.019293 -0.003478 -0.002880 0.000000 0.000000 0.000000
# 2 -0.003478 0.019293 -0.002880 0.000000 0.000000 0.000000
# 3 -0.002880 -0.002880 0.011761 0.000000 0.000000 0.000000
# 4 0.000000 0.000000 0.000000 0.050752 0.000000 0.000000
# 5 0.000000 0.000000 0.000000 0.000000 0.050751 0.000000
# 6 0.000000 0.000000 0.000000 0.000000 0.000000 0.022810
#
#
# Mechanical properties :
#
#
# Convention : Reuss Voigt Hill
#
# Bulk Modulus (GPa) = 31.37647 33.35526 32.36587
# Shear Modulus (GPa) = 24.53882 27.31209 25.92546
#
# Velocity S-wave (km/s) = 3.56767 3.76387 3.66708
# Velocity P-wave (km/s) = 5.76593 6.01584 5.89221
#
# Compressibility (1/GPa) = 0.03187102
#
# Stress axis : x y z
#
# Youngs Moduli (GPa) = 51.83284 51.83272 85.02491
#
# Poissons Ratio (x) = 0.18026 0.24488
# Poissons Ratio (y) = 0.18026 0.24488
# Poissons Ratio (z) = 0.14929 0.14928
#
# Static dielectric constant tensor:
#      x y z
#    x 3.539530 0.000000 0.000000 
#    y 0.000000 3.539530 0.000000 
#    z 0.000000 0.000000 3.497410 
# 
# 
# High freq. dielectric constant tensor:
#      x y z
#    x 1.751130 0.000000 0.000000 
#    y 0.000000 1.751130 0.000000 
#    z 0.000000 0.000000 1.750040 
# 
# From -- ./inp_files/10598.got.cif
#   From: 2010.06.25/outbox.cif.g09.slc.cpg/sg140_6_cif.got.tgz:10598.got - 2010.06.28 10:53:23.
