data_PCOD8320487
_publ_section_title
;
Structure prediction by ZEFSAII (Michael W. Deem and Ramdas Pophale) SiO2 
 PCOD8320487
Probable space group: I 4/M C M
;
_chemical_formula_sum "Si O2"
_cell_formula_units_Z 120
_cell_length_a 17.032640
_cell_length_b 17.032640
_cell_length_c 20.183330
_cell_angle_alpha 90.000000
_cell_angle_beta 90.000000
_cell_angle_gamma 90.000000
_cell_volume 5855.402525
_symmetry_space_group_name_H-M "I 4/M C M"
_symmetry_group_IT_number 140
_symmetry_cell_setting 'tetragonal'
loop_
_space_group_symop_operation_xyz
x,y,z
-y,x,z
-x,-y,z
y,-x,z
x,-y,1/2-z
-x,y,1/2-z
y,x,1/2-z
-y,-x,1/2-z
-x,-y,-z
y,-x,-z
x,y,-z
-y,x,-z
-x,y,1/2+z
x,-y,1/2+z
-y,-x,1/2+z
y,x,1/2+z
1/2+x,1/2+y,1/2+z
1/2-y,1/2+x,1/2+z
1/2-x,1/2-y,1/2+z
1/2+y,1/2-x,1/2+z
1/2+x,1/2-y,-z
1/2-x,1/2+y,-z
1/2+y,1/2+x,-z
1/2-y,1/2-x,-z
1/2-x,1/2-y,1/2-z
1/2+y,1/2-x,1/2-z
1/2+x,1/2+y,1/2-z
1/2-y,1/2+x,1/2-z
1/2-x,1/2+y,z
1/2+x,1/2-y,z
1/2-y,1/2-x,z
1/2+y,1/2+x,z
loop_
_atom_site_type_symbol
_atom_site_label
_atom_site_fract_x
_atom_site_fract_y
_atom_site_fract_z
Si Si1 0.000000 0.500000 0.883268
Si Si2 0.500000 0.762705 0.750000
Si Si3 0.616733 0.116733 0.572823
Si Si4 0.220757 0.911426 0.372229
Si Si5 0.261905 0.761905 0.171893
Si Si6 0.546066 0.379206 0.500000
Si Si7 0.617594 0.882407 0.307936
O O1 0.050982 0.550982 0.932654
O O2 0.056645 0.443356 0.840081
O O3 0.529189 0.706057 0.810142
O O4 0.573079 0.819259 0.736650
O O5 0.644017 0.144017 0.500000
O O6 0.688092 0.077074 0.611105
O O7 0.206521 0.819944 0.357548
O O8 0.168364 0.936669 0.433613
O O9 0.250000 0.750000 0.250000
O O10 0.326392 0.826392 0.147062
O O11 0.600405 0.455007 0.500000
#
# Coordination Sequence:
#
# PCOD8320487 Si02
#       7
#     8  16  16  32  16  16  16
#     4  12  23  35  66  96 144 184 224 272 348 424
#     4  12  22  39  68 101 136 182 226 284 344 419
#     4  11  21  41  62  95 137 185 219 273 336 417
#     4  11  24  43  70  95 135 182 227 282 355 414
#     4  11  23  41  64 104 140 175 232 281 337 421
#     4  11  28  49  70  93 124 173 236 298 358 422
#     4  12  23  39  61 103 144 179 222 280 345 413
#
# _framework density 20.493893
#
# number of rings (size 3 to 8) (size 9 to 14) (size 15 to 20)
#    0.000    0.667    6.667    1.800    3.733    0.000 
#    0.000    0.000    2.933    1.600    0.000    0.000 
#    0.000    0.000    0.000    0.000    0.000    0.000 
#
# Total GULP energy -743653.215905 kJ/mol
# GULP energy per Si atom -12394.220265 kJ/mol
# Density = 2.044725 g / cm^3
# Si number density = 20.493893 Si / 1000 Ang^3
#
#
#
# Elastic Constant Matrix: (Units=GPa)
#
#
# Indices 1 2 3 4 5 6 
#
# 1 68.6917 119.4283 62.3508 0.0000 0.0000 0.0000
# 2 119.4283 68.6917 62.3508 0.0000 0.0000 0.0000
# 3 62.3508 62.3508 150.4052 0.0000 0.0000 0.0000
# 4 0.0000 0.0000 0.0000 12.5354 0.0000 0.0000
# 5 0.0000 0.0000 0.0000 0.0000 12.5354 0.0000
# 6 0.0000 0.0000 0.0000 0.0000 0.0000 45.9138
#
#
#
# Elastic Compliance Matrix: (Units=1/GPa)
#
#
# Indices 1 2 3 4 5 6 
#
# 1 -0.006190 0.013520 -0.003039 0.000000 0.000000 0.000000
# 2 0.013520 -0.006190 -0.003039 0.000000 0.000000 0.000000
# 3 -0.003039 -0.003039 0.009168 0.000000 0.000000 0.000000
# 4 0.000000 0.000000 0.000000 0.079774 0.000000 0.000000
# 5 0.000000 0.000000 0.000000 0.000000 0.079774 0.000000
# 6 0.000000 0.000000 0.000000 0.000000 0.000000 0.021780
#
#
# Mechanical properties :
#
#
# Convention : Reuss Voigt Hill
#
# Bulk Modulus (GPa) = 85.66450 86.22758 85.94604
# Shear Modulus (GPa) = 29.91802 17.10748 23.51275
#
# Velocity S-wave (km/s) = 3.82494 2.89236 3.39086
# Velocity P-wave (km/s) = 7.83567 7.30208 7.57358
#
# Compressibility (1/GPa) = 0.01167345
#
# Stress axis : x y z
#
# Youngs Moduli (GPa) = -161.55645 -161.55645 109.07395
#
# Poissons Ratio (x) = 2.18422 0.33144
# Poissons Ratio (y) = 2.18422 0.33144
# Poissons Ratio (z) = -0.49092 -0.49092
#
# Static dielectric constant tensor:
#      x y z
#    x 3.645000 0.000000 0.000000 
#    y 0.000000 3.645000 0.000000 
#    z 0.000000 0.000000 3.662010 
# 
# 
# High freq. dielectric constant tensor:
#      x y z
#    x 1.805110 0.000000 0.000000 
#    y 0.000000 1.805110 0.000000 
#    z 0.000000 0.000000 1.800390 
# 
# From -- ./inp_files/8074.got.cif
#   From: 2010.06.25/outbox.cif.g09.slc.cpg/sg140_5_cif.got.tgz:8074.got - 2010.06.28 10:53:23.
