data_PCOD8320856
_publ_section_title
;
Structure prediction by ZEFSAII (Michael W. Deem and Ramdas Pophale) SiO2 
 PCOD8320856
Probable space group: I 41/A M D
;
_chemical_formula_sum "Si O2"
_cell_formula_units_Z 112
_cell_length_a 17.342385
_cell_length_b 17.342385
_cell_length_c 17.351681
_cell_angle_alpha 90.000000
_cell_angle_beta 90.000000
_cell_angle_gamma 90.000000
_cell_volume 5218.662383
_symmetry_space_group_name_H-M "I 41/A M D"
_symmetry_group_IT_number 141
_space_group.IT_coordinate_system_code '2'
_symmetry_cell_setting 'tetragonal'
loop_
_space_group_symop_operation_xyz
x,y,z
1/4-y,3/4+x,1/4+z
-x,1/2-y,z
1/4+y,1/4-x,3/4+z
x,-y,-z
-x,1/2+y,-z
1/4+y,3/4+x,1/4-z
1/4-y,1/4-x,3/4-z
-x,-y,-z
3/4+y,1/4-x,3/4-z
x,1/2+y,-z
3/4-y,3/4+x,1/4-z
-x,y,z
x,1/2-y,z
3/4-y,1/4-x,3/4+z
3/4+y,3/4+x,1/4+z
1/2+x,1/2+y,1/2+z
3/4-y,1/4+x,3/4+z
1/2-x,-y,1/2+z
3/4+y,3/4-x,1/4+z
1/2+x,1/2-y,1/2-z
1/2-x,y,1/2-z
3/4+y,1/4+x,3/4-z
3/4-y,3/4-x,1/4-z
1/2-x,1/2-y,1/2-z
1/4+y,3/4-x,1/4-z
1/2+x,y,1/2-z
1/4-y,1/4+x,3/4-z
1/2-x,1/2+y,1/2+z
1/2+x,-y,1/2+z
1/4-y,3/4-x,1/4+z
1/4+y,1/4+x,3/4+z
loop_
_atom_site_type_symbol
_atom_site_label
_atom_site_fract_x
_atom_site_fract_y
_atom_site_fract_z
Si Si1 0.411292 0.911026 0.801561
Si Si2 0.590005 0.340005 0.625000
Si Si3 0.160893 0.929881 0.265057
Si Si4 0.087194 0.661503 0.394273
O O1 0.359225 0.890776 0.875000
O O2 0.500000 0.914889 0.828023
O O3 0.399198 0.847088 0.735626
O O4 0.385855 0.991074 0.764052
O O5 0.500000 0.357838 0.628626
O O6 0.629384 0.373116 0.700597
O O7 0.250000 0.947371 0.250000
O O8 0.148463 0.889915 0.347930
O O9 0.102653 0.750000 0.372144
O O10 0.000000 0.637423 0.372130
#
# Coordination Sequence:
#
# PCOD8320856 Si02
#       4
#    32  16  32  32
#     4  11  25  43  68  98 131 174 221 274 331 392
#     4  11  24  44  70  98 132 178 229 274 326 398
#     4  12  26  41  64  98 137 176 218 274 334 392
#     4  10  22  42  67  94 128 172 222 273 328 394
#
# _framework density 21.461438000000001
#
# number of rings (size 3 to 8) (size 9 to 14) (size 15 to 20)
#    0.000    1.000    0.000    6.000    6.000    8.286 
#    0.000    2.857    0.000    0.000    0.000    0.000 
#    0.000    0.000    0.000    0.000    0.000    0.000 
#
# Total GULP energy -694771.141480 kJ/mol
# GULP energy per Si atom -12406.627526 kJ/mol
# Density = 2.141259 g / cm^3
# Si number density = 21.461438 Si / 1000 Ang^3
#
#
#
# Elastic Constant Matrix: (Units=GPa)
#
#
# Indices 1 2 3 4 5 6 
#
# 1 68.0085 13.6796 23.1762 0.0000 0.0000 0.0000
# 2 13.6796 68.0025 23.1746 0.0000 0.0000 0.0000
# 3 23.1762 23.1746 84.3376 0.0000 0.0000 0.0000
# 4 0.0000 0.0000 0.0000 23.8151 0.0000 0.0000
# 5 0.0000 0.0000 0.0000 0.0000 23.8157 0.0000
# 6 0.0000 0.0000 0.0000 0.0000 0.0000 34.3768
#
#
#
# Elastic Compliance Matrix: (Units=1/GPa)
#
#
# Indices 1 2 3 4 5 6 
#
# 1 0.016455 -0.001952 -0.003985 0.000000 0.000000 0.000000
# 2 -0.001952 0.016456 -0.003986 0.000000 0.000000 0.000000
# 3 -0.003985 -0.003986 0.014047 0.000000 0.000000 0.000000
# 4 0.000000 0.000000 0.000000 0.041990 0.000000 0.000000
# 5 0.000000 0.000000 0.000000 0.000000 0.041989 0.000000
# 6 0.000000 0.000000 0.000000 0.000000 0.000000 0.029089
#
#
# Mechanical properties :
#
#
# Convention : Reuss Voigt Hill
#
# Bulk Modulus (GPa) = 36.88299 37.82324 37.35311
# Shear Modulus (GPa) = 26.46755 27.08940 26.77848
#
# Velocity S-wave (km/s) = 3.51559 3.55665 3.53618
# Velocity P-wave (km/s) = 5.80536 5.87609 5.84083
#
# Compressibility (1/GPa) = 0.02711277
#
# Stress axis : x y z
#
# Youngs Moduli (GPa) = 60.77243 60.76732 71.18711
#
# Poissons Ratio (x) = 0.11861 0.28371
# Poissons Ratio (y) = 0.11862 0.28372
# Poissons Ratio (z) = 0.24221 0.24219
#
# Static dielectric constant tensor:
#      x y z
#    x 3.971040 0.000000 0.000000 
#    y 0.000000 3.971040 0.000000 
#    z 0.000000 0.000000 3.510610 
# 
# 
# High freq. dielectric constant tensor:
#      x y z
#    x 1.849790 0.000000 0.000000 
#    y 0.000000 1.849790 0.000000 
#    z 0.000000 0.000000 1.854220 
# 
# From -- ./inp_files/7927.got.cif
#   From: 2010.03.12/outbox.cif.g09.slc.cpg/sg141_4_cif.got.tgz:7927.got - 2010.04.03 13:18:35.
