data_PCOD8320301
_publ_section_title
;
Structure prediction by ZEFSAII (Michael W. Deem and Ramdas Pophale) SiO2 
 PCOD8320301
Probable space group: I 4/M C M
;
_chemical_formula_sum "Si O2"
_cell_formula_units_Z 160
_cell_length_a 22.956609
_cell_length_b 22.956609
_cell_length_c 14.893560
_cell_angle_alpha 90.000000
_cell_angle_beta 90.000000
_cell_angle_gamma 90.000000
_cell_volume 7848.993944
_symmetry_space_group_name_H-M "I 4/M C M"
_symmetry_group_IT_number 140
_symmetry_cell_setting 'tetragonal'
loop_
_space_group_symop_operation_xyz
x,y,z
-y,x,z
-x,-y,z
y,-x,z
x,-y,1/2-z
-x,y,1/2-z
y,x,1/2-z
-y,-x,1/2-z
-x,-y,-z
y,-x,-z
x,y,-z
-y,x,-z
-x,y,1/2+z
x,-y,1/2+z
-y,-x,1/2+z
y,x,1/2+z
1/2+x,1/2+y,1/2+z
1/2-y,1/2+x,1/2+z
1/2-x,1/2-y,1/2+z
1/2+y,1/2-x,1/2+z
1/2+x,1/2-y,-z
1/2-x,1/2+y,-z
1/2+y,1/2+x,-z
1/2-y,1/2-x,-z
1/2-x,1/2-y,1/2-z
1/2+y,1/2-x,1/2-z
1/2+x,1/2+y,1/2-z
1/2-y,1/2+x,1/2-z
1/2-x,1/2+y,z
1/2+x,1/2-y,z
1/2-y,1/2-x,z
1/2+y,1/2+x,z
loop_
_atom_site_type_symbol
_atom_site_label
_atom_site_fract_x
_atom_site_fract_y
_atom_site_fract_z
Si Si1 0.798307 0.520852 0.601916
Si Si2 0.491526 0.326031 0.151770
Si Si3 0.730502 0.678505 0.838967
Si Si4 0.085848 0.320882 0.224146
Si Si5 0.612363 0.378992 0.099909
O O1 0.824440 0.528643 0.500000
O O2 0.728914 0.513259 0.585907
O O3 0.827388 0.467670 0.655631
O O4 0.809887 0.574667 0.669277
O O5 0.500000 0.297829 0.250000
O O6 0.546266 0.365910 0.127219
O O7 0.432361 0.363789 0.158956
O O8 0.705495 0.705495 0.750000
O O9 0.772054 0.727947 0.886767
O O10 0.767646 0.622779 0.812980
O O11 0.677120 0.655265 0.898630
O O12 0.118310 0.381691 0.216662
O O13 0.612320 0.403541 0.000000
#
# Coordination Sequence:
#
# PCOD8320301 Si02
#       5
#    32  32  32  32  32
#     4  11  21  38  62  90 124 163 207 255 312 375
#     4  12  23  41  61  84 119 168 213 258 317 372
#     4  10  20  36  59  85 119 161 204 252 312 376
#     4  10  21  38  61  91 125 161 205 258 312 377
#     4  12  24  38  59  88 120 158 212 267 314 369
#
# _framework density 20.384778000000001
#
# number of rings (size 3 to 8) (size 9 to 14) (size 15 to 20)
#    0.000    1.000    4.000    4.800    0.000    1.600 
#    0.000    4.000    0.000   10.800    0.000    5.600 
#    0.000    0.000    0.000    0.000    0.000    0.000 
#
# Total GULP energy -991472.412759 kJ/mol
# GULP energy per Si atom -12393.405159 kJ/mol
# Density = 2.033838 g / cm^3
# Si number density = 20.384778 Si / 1000 Ang^3
#
#
#
# Elastic Constant Matrix: (Units=GPa)
#
#
# Indices 1 2 3 4 5 6 
#
# 1 90.7621 48.3461 13.0730 0.0000 0.0000 0.0000
# 2 48.3461 90.7621 13.0730 0.0000 0.0000 0.0000
# 3 13.0730 13.0730 106.3787 0.0000 0.0000 0.0000
# 4 0.0000 0.0000 0.0000 21.1680 0.0000 0.0000
# 5 0.0000 0.0000 0.0000 0.0000 21.1680 0.0000
# 6 0.0000 0.0000 0.0000 0.0000 0.0000 30.1664
#
#
#
# Elastic Compliance Matrix: (Units=1/GPa)
#
#
# Indices 1 2 3 4 5 6 
#
# 1 0.015467 -0.008109 -0.000904 0.000000 0.000000 0.000000
# 2 -0.008109 0.015467 -0.000904 0.000000 0.000000 0.000000
# 3 -0.000904 -0.000904 0.009623 0.000000 0.000000 0.000000
# 4 0.000000 0.000000 0.000000 0.047241 0.000000 0.000000
# 5 0.000000 0.000000 0.000000 0.000000 0.047241 0.000000
# 6 0.000000 0.000000 0.000000 0.000000 0.000000 0.033149
#
#
# Mechanical properties :
#
#
# Convention : Reuss Voigt Hill
#
# Bulk Modulus (GPa) = 48.25642 48.54303 48.39973
# Shear Modulus (GPa) = 25.65009 28.72787 27.18898
#
# Velocity S-wave (km/s) = 3.55110 3.75811 3.65607
# Velocity P-wave (km/s) = 6.36694 6.53424 6.45113
#
# Compressibility (1/GPa) = 0.02072263
#
# Stress axis : x y z
#
# Youngs Moduli (GPa) = 64.65241 64.65241 103.92161
#
# Poissons Ratio (x) = 0.52425 0.09398
# Poissons Ratio (y) = 0.52425 0.09398
# Poissons Ratio (z) = 0.05847 0.05847
#
# Static dielectric constant tensor:
#      x y z
#    x 3.795790 0.000000 0.000000 
#    y 0.000000 3.795790 0.000000 
#    z 0.000000 0.000000 3.606820 
# 
# 
# High freq. dielectric constant tensor:
#      x y z
#    x 1.793190 0.000000 0.000000 
#    y 0.000000 1.793190 0.000000 
#    z 0.000000 0.000000 1.796490 
# 
# From -- ./inp_files/4689.got.cif
#   From: 2010.06.25/outbox.cif.g09.slc.cpg/sg140_3_cif.got.tgz:4689.got - 2010.06.28 10:53:23.
