data_PCOD8320380
_publ_section_title
;
Structure prediction by ZEFSAII (Michael W. Deem and Ramdas Pophale) SiO2 
 PCOD8320380
Probable space group: I 4/M C M
;
_chemical_formula_sum "Si O2"
_cell_formula_units_Z 192
_cell_length_a 20.944187
_cell_length_b 20.944187
_cell_length_c 21.997276
_cell_angle_alpha 90.000000
_cell_angle_beta 90.000000
_cell_angle_gamma 90.000000
_cell_volume 9649.302413
_symmetry_space_group_name_H-M "I 4/M C M"
_symmetry_group_IT_number 140
_symmetry_cell_setting 'tetragonal'
loop_
_space_group_symop_operation_xyz
x,y,z
-y,x,z
-x,-y,z
y,-x,z
x,-y,1/2-z
-x,y,1/2-z
y,x,1/2-z
-y,-x,1/2-z
-x,-y,-z
y,-x,-z
x,y,-z
-y,x,-z
-x,y,1/2+z
x,-y,1/2+z
-y,-x,1/2+z
y,x,1/2+z
1/2+x,1/2+y,1/2+z
1/2-y,1/2+x,1/2+z
1/2-x,1/2-y,1/2+z
1/2+y,1/2-x,1/2+z
1/2+x,1/2-y,-z
1/2-x,1/2+y,-z
1/2+y,1/2+x,-z
1/2-y,1/2-x,-z
1/2-x,1/2-y,1/2-z
1/2+y,1/2-x,1/2-z
1/2+x,1/2+y,1/2-z
1/2-y,1/2+x,1/2-z
1/2-x,1/2+y,z
1/2+x,1/2-y,z
1/2-y,1/2-x,z
1/2+y,1/2+x,z
loop_
_atom_site_type_symbol
_atom_site_label
_atom_site_fract_x
_atom_site_fract_y
_atom_site_fract_z
Si Si1 0.258990 0.860396 0.864324
Si Si2 0.653207 0.948388 0.569281
Si Si3 0.583674 0.816530 0.120383
Si Si4 0.191285 0.863426 0.429443
Si Si5 0.679551 0.075192 0.755284
Si Si6 0.959763 0.089697 0.928240
O O1 0.295237 0.795237 0.848581
O O2 0.290850 0.896689 0.921314
O O3 0.188693 0.838521 0.884001
O O4 0.265474 0.907023 0.804991
O O5 0.652225 0.970741 0.500000
O O6 0.585313 0.914688 0.587137
O O7 0.670636 0.008966 0.610022
O O8 0.615771 0.884230 0.106356
O O9 0.619779 0.765233 0.078421
O O10 0.596147 0.794263 0.189500
O O11 0.179451 0.843752 0.500000
O O12 0.156549 0.929062 0.409915
O O13 0.614216 0.114216 0.771947
O O14 0.663924 0.000000 0.750000
O O15 0.031462 0.083904 0.902148
O O16 0.961684 0.083362 0.000000
#
# Coordination Sequence:
#
# PCOD8320380 Si02
#       6
#    32  32  32  32  32  32
#     4  10  21  38  59  83 114 154 203 250 299 363
#     4  10  21  37  59  87 120 158 198 244 300 366
#     4  11  24  39  58  86 120 157 202 254 306 365
#     4  11  23  36  58  86 120 161 197 244 310 377
#     4  10  21  39  62  87 117 157 209 266 313 359
#     4   8  16  31  50  76 108 142 185 235 287 349
#
# _framework density 19.89781
#
# number of rings (size 3 to 8) (size 9 to 14) (size 15 to 20)
#    0.000    2.000    1.667    2.000    2.333    4.167 
#    0.000    5.000    0.000    0.000    0.000    0.000 
#    0.000    4.000    0.000    0.000    0.000    0.000 
#
# Total GULP energy -1189406.802213 kJ/mol
# GULP energy per Si atom -12389.654190 kJ/mol
# Density = 1.985252 g / cm^3
# Si number density = 19.897810 Si / 1000 Ang^3
#
#
#
# Elastic Constant Matrix: (Units=GPa)
#
#
# Indices 1 2 3 4 5 6 
#
# 1 75.3682 33.6962 25.4753 0.0000 0.0000 0.0000
# 2 33.6962 75.3682 25.4753 0.0000 0.0000 0.0000
# 3 25.4753 25.4753 84.9394 0.0000 0.0000 0.0000
# 4 0.0000 0.0000 0.0000 26.4957 0.0000 0.0000
# 5 0.0000 0.0000 0.0000 0.0000 26.4957 0.0000
# 6 0.0000 0.0000 0.0000 0.0000 0.0000 26.4075
#
#
#
# Elastic Compliance Matrix: (Units=1/GPa)
#
#
# Indices 1 2 3 4 5 6 
#
# 1 0.017330 -0.006667 -0.003198 0.000000 0.000000 0.000000
# 2 -0.006667 0.017330 -0.003198 0.000000 0.000000 0.000000
# 3 -0.003198 -0.003198 0.013691 0.000000 0.000000 0.000000
# 4 0.000000 0.000000 0.000000 0.037742 0.000000 0.000000
# 5 0.000000 0.000000 0.000000 0.000000 0.037742 0.000000
# 6 0.000000 0.000000 0.000000 0.000000 0.000000 0.037868
#
#
# Mechanical properties :
#
#
# Convention : Reuss Voigt Hill
#
# Bulk Modulus (GPa) = 44.99432 44.99661 44.99546
# Shear Modulus (GPa) = 25.60981 25.94840 25.77910
#
# Velocity S-wave (km/s) = 3.59146 3.61513 3.60331
# Velocity P-wave (km/s) = 6.31347 6.33155 6.32252
#
# Compressibility (1/GPa) = 0.02222503
#
# Stress axis : x y z
#
# Youngs Moduli (GPa) = 57.70374 57.70374 73.03836
#
# Poissons Ratio (x) = 0.38471 0.23358
# Poissons Ratio (y) = 0.38471 0.23358
# Poissons Ratio (z) = 0.18454 0.18454
#
# Static dielectric constant tensor:
#      x y z
#    x 3.615970 0.000000 0.000000 
#    y 0.000000 3.615970 0.000000 
#    z 0.000000 0.000000 3.596310 
# 
# 
# High freq. dielectric constant tensor:
#      x y z
#    x 1.772070 0.000000 0.000000 
#    y 0.000000 1.772070 0.000000 
#    z 0.000000 0.000000 1.761510 
# 
# From -- ./inp_files/9752.got.cif
#   From: 2010.06.25/outbox.cif.g09.slc.cpg/sg140_5_cif.got.tgz:9752.got - 2010.06.28 10:53:23.
