data_PCOD8320605
_publ_section_title
;
Structure prediction by ZEFSAII (Michael W. Deem and Ramdas Pophale) SiO2 
 PCOD8320605
Probable space group: I 41/A M D
;
_chemical_formula_sum "Si O2"
_cell_formula_units_Z 160
_cell_length_a 25.466766
_cell_length_b 25.466766
_cell_length_c 13.687011
_cell_angle_alpha 90.000000
_cell_angle_beta 90.000000
_cell_angle_gamma 90.000000
_cell_volume 8876.795440
_symmetry_space_group_name_H-M "I 41/A M D"
_symmetry_group_IT_number 141
_space_group.IT_coordinate_system_code '2'
_symmetry_cell_setting 'tetragonal'
loop_
_space_group_symop_operation_xyz
x,y,z
1/4-y,3/4+x,1/4+z
-x,1/2-y,z
1/4+y,1/4-x,3/4+z
x,-y,-z
-x,1/2+y,-z
1/4+y,3/4+x,1/4-z
1/4-y,1/4-x,3/4-z
-x,-y,-z
3/4+y,1/4-x,3/4-z
x,1/2+y,-z
3/4-y,3/4+x,1/4-z
-x,y,z
x,1/2-y,z
3/4-y,1/4-x,3/4+z
3/4+y,3/4+x,1/4+z
1/2+x,1/2+y,1/2+z
3/4-y,1/4+x,3/4+z
1/2-x,-y,1/2+z
3/4+y,3/4-x,1/4+z
1/2+x,1/2-y,1/2-z
1/2-x,y,1/2-z
3/4+y,1/4+x,3/4-z
3/4-y,3/4-x,1/4-z
1/2-x,1/2-y,1/2-z
1/4+y,3/4-x,1/4-z
1/2+x,y,1/2-z
1/4-y,1/4+x,3/4-z
1/2-x,1/2+y,1/2+z
1/2+x,-y,1/2+z
1/4-y,3/4-x,1/4+z
1/4+y,1/4+x,3/4+z
loop_
_atom_site_type_symbol
_atom_site_label
_atom_site_fract_x
_atom_site_fract_y
_atom_site_fract_z
Si Si1 0.438645 0.587250 0.244740
Si Si2 0.133193 0.311462 0.438891
Si Si3 0.062486 0.504907 0.609629
Si Si4 0.441372 0.049504 0.550896
Si Si5 0.605079 0.691493 0.159436
O O1 0.500000 0.579788 0.253600
O O2 0.414865 0.545126 0.168727
O O3 0.413647 0.573493 0.351626
O O4 0.430346 0.646974 0.209495
O O5 0.128727 0.250000 0.416624
O O6 0.089801 0.339801 0.375000
O O7 0.191370 0.331962 0.410704
O O8 0.120032 0.324914 0.550224
O O9 0.085010 0.500000 0.500000
O O10 0.000000 0.503189 0.608041
O O11 0.500000 0.030638 0.580865
O O12 0.444309 0.091866 0.467620
O O13 0.411319 0.000000 0.500000
O O14 0.577984 0.750000 0.162303
#
# Coordination Sequence:
#
# PCOD8320605 Si02
#       5
#    32  32  32  32  32
#     4  10  19  31  49  72  99 133 170 207 251 301
#     4  10  20  33  49  71 100 133 169 210 258 311
#     4   9  17  30  48  69  93 124 168 217 255 291
#     4   9  17  31  50  70  93 123 163 209 252 295
#     4  10  20  32  47  71 102 132 163 201 249 308
#
# _framework density 18.024522999999999
#
# number of rings (size 3 to 8) (size 9 to 14) (size 15 to 20)
#    0.000    2.400    0.000    3.000    0.000    7.800 
#    0.000    2.000    0.000    3.600    0.000    7.000 
#    0.000    0.000    0.000    0.000    0.000    0.000 
#
# Total GULP energy -991292.015768 kJ/mol
# GULP energy per Si atom -12391.150197 kJ/mol
# Density = 1.798350 g / cm^3
# Si number density = 18.024523 Si / 1000 Ang^3
#
#
#
# Elastic Constant Matrix: (Units=GPa)
#
#
# Indices 1 2 3 4 5 6 
#
# 1 65.1008 23.6797 45.6780 0.0000 0.0000 0.0000
# 2 23.6797 65.1008 45.6780 0.0000 0.0000 0.0000
# 3 45.6780 45.6780 167.5496 0.0000 0.0000 0.0000
# 4 0.0000 0.0000 0.0000 24.4787 0.0000 0.0000
# 5 0.0000 0.0000 0.0000 0.0000 24.4787 0.0000
# 6 0.0000 0.0000 0.0000 0.0000 0.0000 2.0972
#
#
#
# Elastic Compliance Matrix: (Units=1/GPa)
#
#
# Indices 1 2 3 4 5 6 
#
# 1 0.019899 -0.004243 -0.004268 0.000000 0.000000 0.000000
# 2 -0.004243 0.019899 -0.004268 0.000000 0.000000 0.000000
# 3 -0.004268 -0.004268 0.008296 0.000000 0.000000 0.000000
# 4 0.000000 0.000000 0.000000 0.040852 0.000000 0.000000
# 5 0.000000 0.000000 0.000000 0.000000 0.040852 0.000000
# 6 0.000000 0.000000 0.000000 0.000000 0.000000 0.476824
#
#
# Mechanical properties :
#
#
# Convention : Reuss Voigt Hill
#
# Bulk Modulus (GPa) = 44.37650 58.64697 51.51173
# Shear Modulus (GPa) = 7.81627 22.39195 15.10411
#
# Velocity S-wave (km/s) = 2.08468 3.52846 2.89792
# Velocity P-wave (km/s) = 5.51978 7.01484 6.31173
#
# Compressibility (1/GPa) = 0.02253445
#
# Stress axis : x y z
#
# Youngs Moduli (GPa) = 50.25385 50.25385 120.54643
#
# Poissons Ratio (x) = 0.21324 0.51451
# Poissons Ratio (y) = 0.21324 0.51451
# Poissons Ratio (z) = 0.21449 0.21449
#
# Static dielectric constant tensor:
#      x y z
#    x 3.268940 0.000000 0.000000 
#    y 0.000000 3.268940 0.000000 
#    z 0.000000 0.000000 3.760060 
# 
# 
# High freq. dielectric constant tensor:
#      x y z
#    x 1.667090 0.000000 0.000000 
#    y 0.000000 1.667090 0.000000 
#    z 0.000000 0.000000 1.725840 
# 
# From -- ./inp_files/4820.got.cif
#   From: 2010.03.12/outbox.cif.g09.slc.cpg/sg141_3_cif.got.tgz:4820.got - 2010.04.03 13:18:35.
