data_PCOD8320481
_publ_section_title
;
Structure prediction by ZEFSAII (Michael W. Deem and Ramdas Pophale) SiO2 
 PCOD8320481
Probable space group: I 4/M C M
;
_chemical_formula_sum "Si O2"
_cell_formula_units_Z 128
_cell_length_a 15.789733
_cell_length_b 15.789733
_cell_length_c 27.988171
_cell_angle_alpha 90.000000
_cell_angle_beta 90.000000
_cell_angle_gamma 90.000000
_cell_volume 6977.889555
_symmetry_space_group_name_H-M "I 4/M C M"
_symmetry_group_IT_number 140
_symmetry_cell_setting 'tetragonal'
loop_
_space_group_symop_operation_xyz
x,y,z
-y,x,z
-x,-y,z
y,-x,z
x,-y,1/2-z
-x,y,1/2-z
y,x,1/2-z
-y,-x,1/2-z
-x,-y,-z
y,-x,-z
x,y,-z
-y,x,-z
-x,y,1/2+z
x,-y,1/2+z
-y,-x,1/2+z
y,x,1/2+z
1/2+x,1/2+y,1/2+z
1/2-y,1/2+x,1/2+z
1/2-x,1/2-y,1/2+z
1/2+y,1/2-x,1/2+z
1/2+x,1/2-y,-z
1/2-x,1/2+y,-z
1/2+y,1/2+x,-z
1/2-y,1/2-x,-z
1/2-x,1/2-y,1/2-z
1/2+y,1/2-x,1/2-z
1/2+x,1/2+y,1/2-z
1/2-y,1/2+x,1/2-z
1/2-x,1/2+y,z
1/2+x,1/2-y,z
1/2-y,1/2-x,z
1/2+y,1/2+x,z
loop_
_atom_site_type_symbol
_atom_site_label
_atom_site_fract_x
_atom_site_fract_y
_atom_site_fract_z
Si Si1 0.736472 0.101473 0.626105
Si Si2 0.633907 0.468871 0.055803
Si Si3 0.529272 0.166496 0.804665
Si Si4 0.164540 0.804452 0.699096
O O1 0.682978 0.182978 0.607307
O O2 0.777077 0.050017 0.582197
O O3 0.817642 0.126740 0.658349
O O4 0.670978 0.047498 0.658262
O O5 0.600475 0.562411 0.069350
O O6 0.653939 0.464245 0.000000
O O7 0.500000 0.163409 0.750000
O O8 0.582216 0.082216 0.815967
O O9 0.583399 0.250261 0.814643
O O10 0.149472 0.850529 0.750000
O O11 0.248448 0.748448 0.703223
#
# Coordination Sequence:
#
# PCOD8320481 Si02
#       4
#    32  32  32  32
#     4  11  21  33  53  80 110 145 179 215 264 318
#     4   9  19  38  62  83 103 131 172 226 282 326
#     4  11  21  33  50  73 106 146 186 221 257 311
#     4   9  17  31  47  68 100 139 182 222 255 291
#
# _framework density 18.343654000000001
#
# number of rings (size 3 to 8) (size 9 to 14) (size 15 to 20)
#    0.000    2.000    2.500    3.000    0.000    2.250 
#    0.000    0.000    0.000    2.250    0.000    1.750 
#    0.000    0.000    0.000    0.000    0.000    0.000 
#
# Total GULP energy -793461.399295 kJ/mol
# GULP energy per Si atom -12397.834364 kJ/mol
# Density = 1.830190 g / cm^3
# Si number density = 18.343654 Si / 1000 Ang^3
#
#
#
# Elastic Constant Matrix: (Units=GPa)
#
#
# Indices 1 2 3 4 5 6 
#
# 1 75.1136 31.3625 33.1787 0.0000 0.0000 0.0000
# 2 31.3625 75.1135 33.1788 0.0000 0.0000 0.0000
# 3 33.1787 33.1788 70.0471 0.0000 0.0000 0.0000
# 4 0.0000 0.0000 0.0000 19.6737 0.0000 0.0000
# 5 0.0000 0.0000 0.0000 0.0000 19.6737 0.0000
# 6 0.0000 0.0000 0.0000 0.0000 0.0000 27.6465
#
#
#
# Elastic Compliance Matrix: (Units=1/GPa)
#
#
# Indices 1 2 3 4 5 6 
#
# 1 0.018091 -0.004766 -0.006312 0.000000 0.000000 0.000000
# 2 -0.004766 0.018091 -0.006312 0.000000 0.000000 0.000000
# 3 -0.006312 -0.006312 0.020255 0.000000 0.000000 0.000000
# 4 0.000000 0.000000 0.000000 0.050829 0.000000 0.000000
# 5 0.000000 0.000000 0.000000 0.000000 0.050829 0.000000
# 6 0.000000 0.000000 0.000000 0.000000 0.000000 0.036171
#
#
# Mechanical properties :
#
#
# Convention : Reuss Voigt Hill
#
# Bulk Modulus (GPa) = 46.16985 46.19047 46.18016
# Shear Modulus (GPa) = 21.16270 21.56905 21.36587
#
# Velocity S-wave (km/s) = 3.40027 3.43276 3.41655
# Velocity P-wave (km/s) = 6.37494 6.39899 6.38697
#
# Compressibility (1/GPa) = 0.02165916
#
# Stress axis : x y z
#
# Youngs Moduli (GPa) = 55.27626 55.27605 49.36961
#
# Poissons Ratio (x) = 0.26343 0.31161
# Poissons Ratio (y) = 0.26343 0.31161
# Poissons Ratio (z) = 0.34889 0.34889
#
# Static dielectric constant tensor:
#      x y z
#    x 3.289050 0.000000 0.000000 
#    y 0.000000 3.289050 0.000000 
#    z 0.000000 0.000000 3.209780 
# 
# 
# High freq. dielectric constant tensor:
#      x y z
#    x 1.705040 0.000000 0.000000 
#    y 0.000000 1.705040 0.000000 
#    z 0.000000 0.000000 1.695040 
# 
# From -- ./inp_files/9283.got.cif
#   From: 2010.06.25/outbox.cif.g09.slc.cpg/sg140_5_cif.got.tgz:9283.got - 2010.06.28 10:53:23.
