data_PCOD8320351
_publ_section_title
;
Structure prediction by ZEFSAII (Michael W. Deem and Ramdas Pophale) SiO2 
 PCOD8320351
Probable space group: I 4/M C M
;
_chemical_formula_sum "Si O2"
_cell_formula_units_Z 224
_cell_length_a 24.710053
_cell_length_b 24.710053
_cell_length_c 19.260453
_cell_angle_alpha 90.000000
_cell_angle_beta 90.000000
_cell_angle_gamma 90.000000
_cell_volume 11760.176809
_symmetry_space_group_name_H-M "I 4/M C M"
_symmetry_group_IT_number 140
_symmetry_cell_setting 'tetragonal'
loop_
_space_group_symop_operation_xyz
x,y,z
-y,x,z
-x,-y,z
y,-x,z
x,-y,1/2-z
-x,y,1/2-z
y,x,1/2-z
-y,-x,1/2-z
-x,-y,-z
y,-x,-z
x,y,-z
-y,x,-z
-x,y,1/2+z
x,-y,1/2+z
-y,-x,1/2+z
y,x,1/2+z
1/2+x,1/2+y,1/2+z
1/2-y,1/2+x,1/2+z
1/2-x,1/2-y,1/2+z
1/2+y,1/2-x,1/2+z
1/2+x,1/2-y,-z
1/2-x,1/2+y,-z
1/2+y,1/2+x,-z
1/2-y,1/2-x,-z
1/2-x,1/2-y,1/2-z
1/2+y,1/2-x,1/2-z
1/2+x,1/2+y,1/2-z
1/2-y,1/2+x,1/2-z
1/2-x,1/2+y,z
1/2+x,1/2-y,z
1/2-y,1/2-x,z
1/2+y,1/2+x,z
loop_
_atom_site_type_symbol
_atom_site_label
_atom_site_fract_x
_atom_site_fract_y
_atom_site_fract_z
Si Si1 0.922894 0.777716 0.580202
Si Si2 0.176313 0.846867 0.080128
Si Si3 0.655337 0.932276 0.080535
Si Si4 0.721979 0.947641 0.707786
Si Si5 0.743232 0.331607 0.708497
Si Si6 0.211884 0.040130 0.422414
Si Si7 0.022397 0.393771 0.179621
O O1 0.909143 0.770163 0.500000
O O2 0.875374 0.815036 0.611369
O O3 0.925751 0.716473 0.611573
O O4 0.979354 0.810637 0.591438
O O5 0.228151 0.831277 0.126595
O O6 0.166973 0.912403 0.087748
O O7 0.188537 0.831794 0.000000
O O8 0.625220 0.874781 0.088596
O O9 0.623066 0.976996 0.124373
O O10 0.656450 0.950648 0.000000
O O11 0.747082 0.892155 0.738490
O O12 0.737346 0.951608 0.627248
O O13 0.657549 0.944156 0.708859
O O14 0.744334 0.000000 0.750000
O O15 0.693081 0.306920 0.750000
O O16 0.797391 0.297391 0.719610
O O17 0.236041 0.042875 0.500000
O O18 0.063351 0.436650 0.143864
O O19 0.000000 0.421166 0.250000
#
# Coordination Sequence:
#
# PCOD8320351 Si02
#       7
#    32  32  32  32  32  32  32
#     4   9  17  32  55  80 109 141 176 221 271 320
#     4   9  19  33  54  83 109 142 185 224 271 333
#     4  10  21  36  54  77 103 136 181 227 270 320
#     4  10  21  36  56  78 102 141 187 223 266 331
#     4  10  22  37  53  78 115 147 176 228 286 332
#     4   9  17  33  55  79 108 138 175 221 265 316
#     4  11  23  37  53  73 101 137 179 225 274 323
#
# _framework density 19.047332999999998
#
# number of rings (size 3 to 8) (size 9 to 14) (size 15 to 20)
#    0.000    2.286    1.429    0.857    2.000    2.143 
#    0.000    5.000    0.000    3.000    0.000    3.000 
#    0.000    0.286    0.000    0.000    0.000    0.000 
#
# Total GULP energy -1387696.285867 kJ/mol
# GULP energy per Si atom -12390.145410 kJ/mol
# Density = 1.900398 g / cm^3
# Si number density = 19.047333 Si / 1000 Ang^3
#
#
#
# Elastic Constant Matrix: (Units=GPa)
#
#
# Indices 1 2 3 4 5 6 
#
# 1 117.8571 74.3872 33.8638 0.0000 0.0000 0.0000
# 2 74.3872 117.8562 33.8641 0.0000 0.0000 0.0000
# 3 33.8638 33.8641 66.4520 0.0000 0.0000 0.0000
# 4 0.0000 0.0000 0.0000 24.9788 0.0000 0.0000
# 5 0.0000 0.0000 0.0000 0.0000 24.9789 0.0000
# 6 0.0000 0.0000 0.0000 0.0000 0.0000 36.2996
#
#
#
# Elastic Compliance Matrix: (Units=1/GPa)
#
#
# Indices 1 2 3 4 5 6 
#
# 1 0.014672 -0.008332 -0.003231 0.000000 0.000000 0.000000
# 2 -0.008332 0.014672 -0.003231 0.000000 0.000000 0.000000
# 3 -0.003231 -0.003231 0.018341 0.000000 0.000000 0.000000
# 4 0.000000 0.000000 0.000000 0.040034 0.000000 0.000000
# 5 0.000000 0.000000 0.000000 0.000000 0.040034 0.000000
# 6 0.000000 0.000000 0.000000 0.000000 0.000000 0.027549
#
#
# Mechanical properties :
#
#
# Convention : Reuss Voigt Hill
#
# Bulk Modulus (GPa) = 55.25509 65.15505 60.20507
# Shear Modulus (GPa) = 26.18859 27.92148 27.05503
#
# Velocity S-wave (km/s) = 3.71202 3.83286 3.77292
# Velocity P-wave (km/s) = 6.88799 7.33955 7.11735
#
# Compressibility (1/GPa) = 0.01809788
#
# Stress axis : x y z
#
# Youngs Moduli (GPa) = 68.15608 68.15524 54.52164
#
# Poissons Ratio (x) = 0.56789 0.17615
# Poissons Ratio (y) = 0.56790 0.17616
# Poissons Ratio (z) = 0.22020 0.22021
#
# Static dielectric constant tensor:
#      x y z
#    x 3.598580 0.000000 0.000000 
#    y 0.000000 3.598590 0.000000 
#    z 0.000000 0.000000 3.505330 
# 
# 
# High freq. dielectric constant tensor:
#      x y z
#    x 1.729020 0.000000 0.000000 
#    y 0.000000 1.729020 0.000000 
#    z 0.000000 0.000000 1.743680 
# 
# From -- ./inp_files/9964.got.cif
#   From: 2010.06.25/outbox.cif.g09.slc.cpg/sg140_5_cif.got.tgz:9964.got - 2010.06.28 10:53:23.
