data_PCOD8320106
_publ_section_title
;
Structure prediction by ZEFSAII (Michael W. Deem and Ramdas Pophale) SiO2 
 PCOD8320106
Probable space group: I 4/M C M
;
_chemical_formula_sum "Si O2"
_cell_formula_units_Z 160
_cell_length_a 17.461978
_cell_length_b 17.461978
_cell_length_c 32.224520
_cell_angle_alpha 90.000000
_cell_angle_beta 90.000000
_cell_angle_gamma 90.000000
_cell_volume 9825.922412
_symmetry_space_group_name_H-M "I 4/M C M"
_symmetry_group_IT_number 140
_symmetry_cell_setting 'tetragonal'
loop_
_space_group_symop_operation_xyz
x,y,z
-y,x,z
-x,-y,z
y,-x,z
x,-y,1/2-z
-x,y,1/2-z
y,x,1/2-z
-y,-x,1/2-z
-x,-y,-z
y,-x,-z
x,y,-z
-y,x,-z
-x,y,1/2+z
x,-y,1/2+z
-y,-x,1/2+z
y,x,1/2+z
1/2+x,1/2+y,1/2+z
1/2-y,1/2+x,1/2+z
1/2-x,1/2-y,1/2+z
1/2+y,1/2-x,1/2+z
1/2+x,1/2-y,-z
1/2-x,1/2+y,-z
1/2+y,1/2+x,-z
1/2-y,1/2-x,-z
1/2-x,1/2-y,1/2-z
1/2+y,1/2-x,1/2-z
1/2+x,1/2+y,1/2-z
1/2-y,1/2+x,1/2-z
1/2-x,1/2+y,z
1/2+x,1/2-y,z
1/2-y,1/2-x,z
1/2+y,1/2+x,z
loop_
_atom_site_type_symbol
_atom_site_label
_atom_site_fract_x
_atom_site_fract_y
_atom_site_fract_z
Si Si1 0.585735 0.790217 0.665746
Si Si2 0.191098 0.185913 0.393205
Si Si3 0.791789 0.415991 0.840796
Si Si4 0.907088 0.081684 0.951243
Si Si5 0.626845 0.254480 0.253720
O O1 0.630070 0.869931 0.661787
O O2 0.631013 0.723069 0.642545
O O3 0.503266 0.803858 0.644802
O O4 0.575986 0.766209 0.713798
O O5 0.259118 0.240883 0.410569
O O6 0.124725 0.237084 0.373579
O O7 0.155873 0.135329 0.429846
O O8 0.873540 0.373540 0.838746
O O9 0.752145 0.421370 0.795750
O O10 0.993160 0.106404 0.938347
O O11 0.895950 0.091607 0.000000
O O12 0.659122 0.340879 0.250000
O O13 0.698178 0.198178 0.257405
#
# Coordination Sequence:
#
# PCOD8320106 Si02
#       5
#    32  32  32  32  32
#     4  10  19  30  46  67  91 121 155 191 229 267
#     4  10  19  31  48  70  94 121 154 185 219 270
#     4  10  19  30  46  67  91 121 155 191 229 267
#     4   9  18  33  52  72  94 119 146 182 230 275
#     4   9  15  28  45  62  86 116 155 193 224 262
#
# _framework density 16.283459000000001
#
# number of rings (size 3 to 8) (size 9 to 14) (size 15 to 20)
#    0.000    2.400    2.000    2.400    0.000    0.800 
#    0.000    0.000    0.000    3.600    0.000    1.400 
#    0.000    0.000    0.000   37.200    0.000    0.000 
#
# Total GULP energy -991754.188793 kJ/mol
# GULP energy per Si atom -12396.927360 kJ/mol
# Density = 1.624640 g / cm^3
# Si number density = 16.283459 Si / 1000 Ang^3
#
#
#
# Elastic Constant Matrix: (Units=GPa)
#
#
# Indices 1 2 3 4 5 6 
#
# 1 76.3200 26.3155 17.1940 0.0000 0.0000 0.0000
# 2 26.3155 76.3196 17.1940 0.0000 0.0000 0.0000
# 3 17.1940 17.1940 49.6874 0.0000 0.0000 0.0000
# 4 0.0000 0.0000 0.0000 20.4945 0.0000 0.0000
# 5 0.0000 0.0000 0.0000 0.0000 20.4945 0.0000
# 6 0.0000 0.0000 0.0000 0.0000 0.0000 20.7837
#
#
#
# Elastic Compliance Matrix: (Units=1/GPa)
#
#
# Indices 1 2 3 4 5 6 
#
# 1 0.015510 -0.004489 -0.003814 0.000000 0.000000 0.000000
# 2 -0.004489 0.015510 -0.003814 0.000000 0.000000 0.000000
# 3 -0.003814 -0.003814 0.022765 0.000000 0.000000 0.000000
# 4 0.000000 0.000000 0.000000 0.048794 0.000000 0.000000
# 5 0.000000 0.000000 0.000000 0.000000 0.048794 0.000000
# 6 0.000000 0.000000 0.000000 0.000000 0.000000 0.048115
#
#
# Mechanical properties :
#
#
# Convention : Reuss Voigt Hill
#
# Bulk Modulus (GPa) = 33.83825 35.97041 34.90433
# Shear Modulus (GPa) = 21.40692 21.79611 21.60151
#
# Velocity S-wave (km/s) = 3.62973 3.66258 3.64619
# Velocity P-wave (km/s) = 6.19617 6.32646 6.26165
#
# Compressibility (1/GPa) = 0.02955235
#
# Stress axis : x y z
#
# Youngs Moduli (GPa) = 64.47615 64.47575 43.92653
#
# Poissons Ratio (x) = 0.28941 0.16752
# Poissons Ratio (y) = 0.28941 0.16753
# Poissons Ratio (z) = 0.24589 0.24590
#
# Static dielectric constant tensor:
#      x y z
#    x 3.012660 0.000000 0.000000 
#    y 0.000000 3.012660 0.000000 
#    z 0.000000 0.000000 2.878230 
# 
# 
# High freq. dielectric constant tensor:
#      x y z
#    x 1.622030 0.000000 0.000000 
#    y 0.000000 1.622030 0.000000 
#    z 0.000000 0.000000 1.608840 
# 
# From -- ./inp_files/10492.got.cif
#   From: 2010.06.25/outbox.cif.g09.slc.cpg/sg140_6_cif.got.tgz:10492.got - 2010.06.28 10:53:23.
