data_PCOD8320330
_publ_section_title
;
Structure prediction by ZEFSAII (Michael W. Deem and Ramdas Pophale) SiO2 
 PCOD8320330
Probable space group: I 4/M C M
;
_chemical_formula_sum "Si O2"
_cell_formula_units_Z 176
_cell_length_a 18.375815
_cell_length_b 18.375815
_cell_length_c 26.869336
_cell_angle_alpha 90.000000
_cell_angle_beta 90.000000
_cell_angle_gamma 90.000000
_cell_volume 9072.984188
_symmetry_space_group_name_H-M "I 4/M C M"
_symmetry_group_IT_number 140
_symmetry_cell_setting 'tetragonal'
loop_
_space_group_symop_operation_xyz
x,y,z
-y,x,z
-x,-y,z
y,-x,z
x,-y,1/2-z
-x,y,1/2-z
y,x,1/2-z
-y,-x,1/2-z
-x,-y,-z
y,-x,-z
x,y,-z
-y,x,-z
-x,y,1/2+z
x,-y,1/2+z
-y,-x,1/2+z
y,x,1/2+z
1/2+x,1/2+y,1/2+z
1/2-y,1/2+x,1/2+z
1/2-x,1/2-y,1/2+z
1/2+y,1/2-x,1/2+z
1/2+x,1/2-y,-z
1/2-x,1/2+y,-z
1/2+y,1/2+x,-z
1/2-y,1/2-x,-z
1/2-x,1/2-y,1/2-z
1/2+y,1/2-x,1/2-z
1/2+x,1/2+y,1/2-z
1/2-y,1/2+x,1/2-z
1/2-x,1/2+y,z
1/2+x,1/2-y,z
1/2-y,1/2-x,z
1/2+y,1/2+x,z
loop_
_atom_site_type_symbol
_atom_site_label
_atom_site_fract_x
_atom_site_fract_y
_atom_site_fract_z
Si Si1 0.103025 0.770172 0.880118
Si Si2 0.534838 0.851201 0.056844
Si Si3 0.770448 0.729553 0.889010
Si Si4 0.795257 0.084501 0.735976
Si Si5 0.196068 0.696068 0.278427
Si Si6 0.966049 0.886341 0.444784
Si Si7 0.125706 0.625706 0.558045
O O1 0.083291 0.693230 0.903945
O O2 0.185661 0.788073 0.894680
O O3 0.092092 0.774791 0.821518
O O4 0.048065 0.827377 0.903450
O O5 0.567075 0.932926 0.056524
O O6 0.453118 0.851009 0.078815
O O7 0.538484 0.819351 0.000000
O O8 0.799414 0.700587 0.837040
O O9 0.813792 0.686209 0.931201
O O10 0.867121 0.132880 0.750000
O O11 0.722254 0.114602 0.763666
O O12 0.809427 0.000000 0.750000
O O13 0.250000 0.750000 0.250000
O O14 0.955832 0.853408 0.500000
O O15 0.047955 0.911066 0.436934
O O16 0.115871 0.615871 0.500000
#
# Coordination Sequence:
#
# PCOD8320330 Si02
#       7
#    32  32  16  32  16  32  16
#     4  12  23  38  64  91 123 161 203 253 305 366
#     4  10  22  41  63  91 125 162 202 252 315 371
#     4  12  24  41  64  91 121 159 205 255 303 363
#     4  11  25  42  65  93 125 165 205 257 315 373
#     4  10  20  46  63  84 119 163 204 250 307 369
#     4   9  21  39  57  81 119 164 203 244 301 364
#     4  10  25  42  64  92 123 161 208 258 307 371
#
# _framework density 19.398247999999999
#
# number of rings (size 3 to 8) (size 9 to 14) (size 15 to 20)
#    0.000    1.455    4.545    1.364    7.636    2.727 
#    0.000    0.000    0.000    0.273    0.000    0.000 
#    0.000    0.000    0.000    0.000    0.000    0.000 
#
# Total GULP energy -1090830.800028 kJ/mol
# GULP energy per Si atom -12395.804546 kJ/mol
# Density = 1.935410 g / cm^3
# Si number density = 19.398248 Si / 1000 Ang^3
#
#
#
# Elastic Constant Matrix: (Units=GPa)
#
#
# Indices 1 2 3 4 5 6 
#
# 1 100.1927 43.7366 22.4884 0.0000 0.0000 0.0000
# 2 43.7366 100.1931 22.4890 0.0000 0.0000 0.0000
# 3 22.4884 22.4890 61.7451 0.0000 0.0000 0.0000
# 4 0.0000 0.0000 0.0000 8.9528 0.0000 0.0000
# 5 0.0000 0.0000 0.0000 0.0000 8.9518 0.0000
# 6 0.0000 0.0000 0.0000 0.0000 0.0000 26.5089
#
#
#
# Elastic Compliance Matrix: (Units=1/GPa)
#
#
# Indices 1 2 3 4 5 6 
#
# 1 0.012776 -0.004936 -0.002855 0.000000 0.000000 0.000000
# 2 -0.004936 0.012777 -0.002856 0.000000 0.000000 0.000000
# 3 -0.002855 -0.002856 0.018276 0.000000 0.000000 0.000000
# 4 0.000000 0.000000 0.000000 0.111696 0.000000 0.000000
# 5 0.000000 0.000000 0.000000 0.000000 0.111709 0.000000
# 6 0.000000 0.000000 0.000000 0.000000 0.000000 0.037723
#
#
# Mechanical properties :
#
#
# Convention : Reuss Voigt Hill
#
# Bulk Modulus (GPa) = 44.37756 48.83987 46.60872
# Shear Modulus (GPa) = 14.98068 20.44384 17.71226
#
# Velocity S-wave (km/s) = 2.78199 3.24991 3.02501
# Velocity P-wave (km/s) = 5.76594 6.27014 6.02332
#
# Compressibility (1/GPa) = 0.02253391
#
# Stress axis : x y z
#
# Youngs Moduli (GPa) = 78.26877 78.26867 54.71751
#
# Poissons Ratio (x) = 0.38636 0.15624
# Poissons Ratio (y) = 0.38636 0.15625
# Poissons Ratio (z) = 0.22349 0.22351
#
# Static dielectric constant tensor:
#      x y z
#    x 3.810280 0.000000 0.000000 
#    y 0.000000 3.810270 0.000000 
#    z 0.000000 0.000000 3.571880 
# 
# 
# High freq. dielectric constant tensor:
#      x y z
#    x 1.755860 0.000000 0.000000 
#    y 0.000000 1.755860 0.000000 
#    z 0.000000 0.000000 1.754270 
# 
# From -- ./inp_files/10758.got.cif
#   From: 2010.06.25/outbox.cif.g09.slc.cpg/sg140_6_cif.got.tgz:10758.got - 2010.06.28 10:53:23.
