data_PCOD8320213
_publ_section_title
;
Structure prediction by ZEFSAII (Michael W. Deem and Ramdas Pophale) SiO2 
 PCOD8320213
Probable space group: I 4/M C M
;
_chemical_formula_sum "Si O2"
_cell_formula_units_Z 160
_cell_length_a 21.326146
_cell_length_b 21.326146
_cell_length_c 19.036755
_cell_angle_alpha 90.000000
_cell_angle_beta 90.000000
_cell_angle_gamma 90.000000
_cell_volume 8658.001901
_symmetry_space_group_name_H-M "I 4/M C M"
_symmetry_group_IT_number 140
_symmetry_cell_setting 'tetragonal'
loop_
_space_group_symop_operation_xyz
x,y,z
-y,x,z
-x,-y,z
y,-x,z
x,-y,1/2-z
-x,y,1/2-z
y,x,1/2-z
-y,-x,1/2-z
-x,-y,-z
y,-x,-z
x,y,-z
-y,x,-z
-x,y,1/2+z
x,-y,1/2+z
-y,-x,1/2+z
y,x,1/2+z
1/2+x,1/2+y,1/2+z
1/2-y,1/2+x,1/2+z
1/2-x,1/2-y,1/2+z
1/2+y,1/2-x,1/2+z
1/2+x,1/2-y,-z
1/2-x,1/2+y,-z
1/2+y,1/2+x,-z
1/2-y,1/2-x,-z
1/2-x,1/2-y,1/2-z
1/2+y,1/2-x,1/2-z
1/2+x,1/2+y,1/2-z
1/2-y,1/2+x,1/2-z
1/2-x,1/2+y,z
1/2+x,1/2-y,z
1/2-y,1/2-x,z
1/2+y,1/2+x,z
loop_
_atom_site_type_symbol
_atom_site_label
_atom_site_fract_x
_atom_site_fract_y
_atom_site_fract_z
Si Si1 0.208574 0.891611 0.082973
Si Si2 0.671643 0.070686 0.167349
Si Si3 0.654741 0.258676 0.420028
Si Si4 0.093337 0.030902 0.583429
Si Si5 0.325488 0.927400 0.330042
O O1 0.274221 0.898570 0.121260
O O2 0.176053 0.826825 0.105485
O O3 0.161672 0.946779 0.108976
O O4 0.221174 0.893222 0.000000
O O5 0.607029 0.107029 0.151908
O O6 0.691213 0.077542 0.248284
O O7 0.660532 0.998466 0.146836
O O8 0.630322 0.260688 0.500000
O O9 0.714204 0.214204 0.411546
O O10 0.597434 0.234728 0.372494
O O11 0.091461 0.033284 0.500000
O O12 0.039139 0.078729 0.611078
O O13 0.387040 0.887040 0.349218
#
# Coordination Sequence:
#
# PCOD8320213 Si02
#       5
#    32  32  32  32  32
#     4  10  20  31  51  80 110 140 173 215 264 312
#     4  10  21  36  54  78 107 139 177 222 273 320
#     4   9  18  33  53  77 104 133 168 211 259 312
#     4   8  15  28  45  69 101 135 173 213 251 299
#     4   9  20  38  57  77 103 137 179 222 264 320
#
# _framework density 18.480015000000002
#
# number of rings (size 3 to 8) (size 9 to 14) (size 15 to 20)
#    0.000    2.800    0.000    1.200    2.800    3.200 
#    0.000    5.000    0.000    0.000    0.000    4.200 
#    0.000    0.000    0.000    0.000    0.000    0.000 
#
# Total GULP energy -991921.050610 kJ/mol
# GULP energy per Si atom -12399.013133 kJ/mol
# Density = 1.843795 g / cm^3
# Si number density = 18.480015 Si / 1000 Ang^3
#
#
#
# Elastic Constant Matrix: (Units=GPa)
#
#
# Indices 1 2 3 4 5 6 
#
# 1 115.7522 47.1839 44.0966 0.0000 0.0000 0.0000
# 2 47.1839 115.7522 44.0966 0.0000 0.0000 0.0000
# 3 44.0966 44.0966 46.0917 0.0000 0.0000 0.0000
# 4 0.0000 0.0000 0.0000 25.0567 0.0000 0.0000
# 5 0.0000 0.0000 0.0000 0.0000 25.0567 0.0000
# 6 0.0000 0.0000 0.0000 0.0000 0.0000 22.5878
#
#
#
# Elastic Compliance Matrix: (Units=1/GPa)
#
#
# Indices 1 2 3 4 5 6 
#
# 1 0.013657 -0.000927 -0.012178 0.000000 0.000000 0.000000
# 2 -0.000927 0.013657 -0.012178 0.000000 0.000000 0.000000
# 3 -0.012178 -0.012178 0.044998 0.000000 0.000000 0.000000
# 4 0.000000 0.000000 0.000000 0.039910 0.000000 0.000000
# 5 0.000000 0.000000 0.000000 0.000000 0.039910 0.000000
# 6 0.000000 0.000000 0.000000 0.000000 0.000000 0.044272
#
#
# Mechanical properties :
#
#
# Convention : Reuss Voigt Hill
#
# Bulk Modulus (GPa) = 45.99054 60.92779 53.45917
# Shear Modulus (GPa) = 19.66827 24.02150 21.84489
#
# Velocity S-wave (km/s) = 3.26590 3.60927 3.44187
# Velocity P-wave (km/s) = 6.25797 7.10002 6.69225
#
# Compressibility (1/GPa) = 0.02174360
#
# Stress axis : x y z
#
# Youngs Moduli (GPa) = 73.22502 73.22502 22.22332
#
# Poissons Ratio (x) = 0.06791 0.27064
# Poissons Ratio (y) = 0.06791 0.27064
# Poissons Ratio (z) = 0.89174 0.89174
#
# Static dielectric constant tensor:
#      x y z
#    x 3.545710 0.000000 0.000000 
#    y 0.000000 3.545710 0.000000 
#    z 0.000000 0.000000 3.160320 
# 
# 
# High freq. dielectric constant tensor:
#      x y z
#    x 1.723480 0.000000 0.000000 
#    y 0.000000 1.723480 0.000000 
#    z 0.000000 0.000000 1.683610 
# 
# From -- ./inp_files/6794.got.cif
#   From: 2010.06.25/outbox.cif.g09.slc.cpg/sg140_4_cif.got.tgz:6794.got - 2010.06.28 10:53:23.
