data_PCOD8320917
_publ_section_title
;
Structure prediction by ZEFSAII (Michael W. Deem and Ramdas Pophale) SiO2 
 PCOD8320917
Probable space group: I 41/A M D
;
_chemical_formula_sum "Si O2"
_cell_formula_units_Z 160
_cell_length_a 20.788380
_cell_length_b 20.788380
_cell_length_c 18.094089
_cell_angle_alpha 90.000000
_cell_angle_beta 90.000000
_cell_angle_gamma 90.000000
_cell_volume 7819.482570
_symmetry_space_group_name_H-M "I 41/A M D"
_symmetry_group_IT_number 141
_space_group.IT_coordinate_system_code '2'
_symmetry_cell_setting 'tetragonal'
loop_
_space_group_symop_operation_xyz
x,y,z
1/4-y,3/4+x,1/4+z
-x,1/2-y,z
1/4+y,1/4-x,3/4+z
x,-y,-z
-x,1/2+y,-z
1/4+y,3/4+x,1/4-z
1/4-y,1/4-x,3/4-z
-x,-y,-z
3/4+y,1/4-x,3/4-z
x,1/2+y,-z
3/4-y,3/4+x,1/4-z
-x,y,z
x,1/2-y,z
3/4-y,1/4-x,3/4+z
3/4+y,3/4+x,1/4+z
1/2+x,1/2+y,1/2+z
3/4-y,1/4+x,3/4+z
1/2-x,-y,1/2+z
3/4+y,3/4-x,1/4+z
1/2+x,1/2-y,1/2-z
1/2-x,y,1/2-z
3/4+y,1/4+x,3/4-z
3/4-y,3/4-x,1/4-z
1/2-x,1/2-y,1/2-z
1/4+y,3/4-x,1/4-z
1/2+x,y,1/2-z
1/4-y,1/4+x,3/4-z
1/2-x,1/2+y,1/2+z
1/2+x,-y,1/2+z
1/4-y,3/4-x,1/4+z
1/4+y,1/4+x,3/4+z
loop_
_atom_site_type_symbol
_atom_site_label
_atom_site_fract_x
_atom_site_fract_y
_atom_site_fract_z
Si Si1 0.926555 0.058190 0.213206
Si Si2 0.191672 0.014408 0.300718
Si Si3 0.069381 0.174211 0.455133
Si Si4 0.692765 0.632474 0.198086
Si Si5 0.426992 0.325590 0.709685
O O1 0.904501 0.131201 0.231192
O O2 0.924167 0.050543 0.125677
O O3 0.000000 0.043809 0.239443
O O4 0.876672 0.013948 0.258023
O O5 0.250000 0.039965 0.250000
O O6 0.205016 0.941108 0.323972
O O7 0.192138 0.057863 0.375000
O O8 0.097194 0.152807 0.375000
O O9 0.060380 0.250000 0.451782
O O10 0.000000 0.141806 0.472669
O O11 0.750000 0.658123 0.250000
O O12 0.623263 0.639900 0.236448
O O13 0.500000 0.349966 0.726244
O O14 0.423419 0.250000 0.723612
O O15 0.408415 0.341586 0.625000
#
# Coordination Sequence:
#
# PCOD8320917 Si02
#       5
#    32  32  32  32  32
#     4  11  23  38  61  94 122 156 206 261 317 372
#     4  11  23  44  66  87 122 171 214 255 312 383
#     4   8  15  31  56  84 115 152 191 237 300 371
#     4  11  25  39  62  89 122 167 214 262 310 369
#     4   9  20  39  62  90 128 170 206 254 323 383
#
# _framework density 20.461711999999999
#
# number of rings (size 3 to 8) (size 9 to 14) (size 15 to 20)
#    0.000    2.000    2.000    2.400    2.800    3.200 
#    0.000    2.000    0.000    1.200    0.000    0.000 
#    0.000    0.000    0.000    0.000    0.000    0.000 
#
# Total GULP energy -991719.353661 kJ/mol
# GULP energy per Si atom -12396.491921 kJ/mol
# Density = 2.041514 g / cm^3
# Si number density = 20.461712 Si / 1000 Ang^3
#
#
#
# Elastic Constant Matrix: (Units=GPa)
#
#
# Indices 1 2 3 4 5 6 
#
# 1 82.9002 15.6106 36.7290 0.0000 0.0000 0.0000
# 2 15.6106 82.8999 36.7286 0.0000 0.0000 0.0000
# 3 36.7290 36.7286 118.0708 0.0000 0.0000 0.0000
# 4 0.0000 0.0000 0.0000 32.9203 0.0000 0.0000
# 5 0.0000 0.0000 0.0000 0.0000 32.9206 0.0000
# 6 0.0000 0.0000 0.0000 0.0000 0.0000 28.8834
#
#
#
# Elastic Compliance Matrix: (Units=1/GPa)
#
#
# Indices 1 2 3 4 5 6 
#
# 1 0.014039 -0.000822 -0.004111 0.000000 0.000000 0.000000
# 2 -0.000822 0.014039 -0.004111 0.000000 0.000000 0.000000
# 3 -0.004111 -0.004111 0.011027 0.000000 0.000000 0.000000
# 4 0.000000 0.000000 0.000000 0.030376 0.000000 0.000000
# 5 0.000000 0.000000 0.000000 0.000000 0.030376 0.000000
# 6 0.000000 0.000000 0.000000 0.000000 0.000000 0.034622
#
#
# Mechanical properties :
#
#
# Convention : Reuss Voigt Hill
#
# Bulk Modulus (GPa) = 47.58369 51.33414 49.45892
# Shear Modulus (GPa) = 31.33315 31.93171 31.63243
#
# Velocity S-wave (km/s) = 3.91744 3.95468 3.93610
# Velocity P-wave (km/s) = 6.61568 6.78196 6.69934
#
# Compressibility (1/GPa) = 0.02101560
#
# Stress axis : x y z
#
# Youngs Moduli (GPa) = 71.22962 71.22951 90.68287
#
# Poissons Ratio (x) = 0.05856 0.37284
# Poissons Ratio (y) = 0.05856 0.37284
# Poissons Ratio (z) = 0.29286 0.29286
#
# Static dielectric constant tensor:
#      x y z
#    x 3.731710 0.000000 0.000000 
#    y 0.000000 3.731680 0.000000 
#    z 0.000000 0.000000 3.681330 
# 
# 
# High freq. dielectric constant tensor:
#      x y z
#    x 1.792070 0.000000 0.000000 
#    y 0.000000 1.792070 0.000000 
#    z 0.000000 0.000000 1.797460 
# 
# From -- ./inp_files/8574.got.cif
#   From: 2010.03.12/outbox.cif.g09.slc.cpg/sg141_5_cif.got.tgz:8574.got - 2010.04.03 13:18:35.
