data_PCOD8320474
_publ_section_title
;
Structure prediction by ZEFSAII (Michael W. Deem and Ramdas Pophale) SiO2 
 PCOD8320474
Probable space group: I 4/M C M
;
_chemical_formula_sum "Si O2"
_cell_formula_units_Z 128
_cell_length_a 15.568066
_cell_length_b 15.568066
_cell_length_c 27.856731
_cell_angle_alpha 90.000000
_cell_angle_beta 90.000000
_cell_angle_gamma 90.000000
_cell_volume 6751.487666
_symmetry_space_group_name_H-M "I 4/M C M"
_symmetry_group_IT_number 140
_symmetry_cell_setting 'tetragonal'
loop_
_space_group_symop_operation_xyz
x,y,z
-y,x,z
-x,-y,z
y,-x,z
x,-y,1/2-z
-x,y,1/2-z
y,x,1/2-z
-y,-x,1/2-z
-x,-y,-z
y,-x,-z
x,y,-z
-y,x,-z
-x,y,1/2+z
x,-y,1/2+z
-y,-x,1/2+z
y,x,1/2+z
1/2+x,1/2+y,1/2+z
1/2-y,1/2+x,1/2+z
1/2-x,1/2-y,1/2+z
1/2+y,1/2-x,1/2+z
1/2+x,1/2-y,-z
1/2-x,1/2+y,-z
1/2+y,1/2+x,-z
1/2-y,1/2-x,-z
1/2-x,1/2-y,1/2-z
1/2+y,1/2-x,1/2-z
1/2+x,1/2+y,1/2-z
1/2-y,1/2+x,1/2-z
1/2-x,1/2+y,z
1/2+x,1/2-y,z
1/2-y,1/2-x,z
1/2+y,1/2+x,z
loop_
_atom_site_type_symbol
_atom_site_label
_atom_site_fract_x
_atom_site_fract_y
_atom_site_fract_z
Si Si1 0.310362 0.666338 0.052274
Si Si2 0.969197 0.328193 0.945555
Si Si3 0.861711 0.013398 0.194176
Si Si4 0.904311 0.732252 0.872897
O O1 0.239597 0.739597 0.050585
O O2 0.263942 0.576145 0.061968
O O3 0.376363 0.686147 0.094760
O O4 0.357171 0.663367 0.000000
O O5 0.905335 0.405335 0.933975
O O6 0.045273 0.333724 0.907262
O O7 0.004371 0.336616 0.000000
O O8 0.770453 0.034073 0.168732
O O9 0.924140 0.092610 0.179816
O O10 0.842151 0.000000 0.250000
O O11 0.822588 0.677413 0.852120
#
# Coordination Sequence:
#
# PCOD8320474 Si02
#       4
#    32  32  32  32
#     4   8  15  28  45  67  97 132 167 202 239 281
#     4   9  18  32  48  68 100 141 177 205 239 292
#     4   9  19  38  60  77  96 126 166 210 255 302
#     4  11  20  30  49  77 104 129 163 208 255 300
#
# _framework density 18.958784999999999
#
# number of rings (size 3 to 8) (size 9 to 14) (size 15 to 20)
#    0.000    2.750    0.000    4.500    0.000    2.000 
#    0.000    5.000    0.000    0.000    0.000   10.500 
#    0.000    0.000    0.000    0.000    0.000    0.000 
#
# Total GULP energy -792964.103384 kJ/mol
# GULP energy per Si atom -12390.064115 kJ/mol
# Density = 1.891563 g / cm^3
# Si number density = 18.958785 Si / 1000 Ang^3
#
#
#
# Elastic Constant Matrix: (Units=GPa)
#
#
# Indices 1 2 3 4 5 6 
#
# 1 64.3841 24.8701 41.3563 0.0000 0.0000 0.0000
# 2 24.8701 64.3841 41.3563 0.0000 0.0000 0.0000
# 3 41.3563 41.3563 81.2103 0.0000 0.0000 0.0000
# 4 0.0000 0.0000 0.0000 25.0370 0.0000 0.0000
# 5 0.0000 0.0000 0.0000 0.0000 25.0370 0.0000
# 6 0.0000 0.0000 0.0000 0.0000 0.0000 27.0727
#
#
#
# Elastic Compliance Matrix: (Units=1/GPa)
#
#
# Indices 1 2 3 4 5 6 
#
# 1 0.023262 -0.002045 -0.010805 0.000000 0.000000 0.000000
# 2 -0.002045 0.023262 -0.010805 0.000000 0.000000 0.000000
# 3 -0.010805 -0.010805 0.023318 0.000000 0.000000 0.000000
# 4 0.000000 0.000000 0.000000 0.039941 0.000000 0.000000
# 5 0.000000 0.000000 0.000000 0.000000 0.039941 0.000000
# 6 0.000000 0.000000 0.000000 0.000000 0.000000 0.036938
#
#
# Mechanical properties :
#
#
# Convention : Reuss Voigt Hill
#
# Bulk Modulus (GPa) = 44.37903 47.23822 45.80863
# Shear Modulus (GPa) = 20.70548 22.25572 21.48060
#
# Velocity S-wave (km/s) = 3.30833 3.42994 3.36968
# Velocity P-wave (km/s) = 6.16866 6.37623 6.27330
#
# Compressibility (1/GPa) = 0.02253316
#
# Stress axis : x y z
#
# Youngs Moduli (GPa) = 42.98840 42.98840 42.88500
#
# Poissons Ratio (x) = 0.08793 0.46335
# Poissons Ratio (y) = 0.08793 0.46335
# Poissons Ratio (z) = 0.46447 0.46447
#
# Static dielectric constant tensor:
#      x y z
#    x 3.343560 0.000000 0.000000 
#    y 0.000000 3.343560 0.000000 
#    z 0.000000 0.000000 3.535010 
# 
# 
# High freq. dielectric constant tensor:
#      x y z
#    x 1.724120 0.000000 0.000000 
#    y 0.000000 1.724120 0.000000 
#    z 0.000000 0.000000 1.719090 
# 
# From -- ./inp_files/9300.got.cif
#   From: 2010.06.25/outbox.cif.g09.slc.cpg/sg140_5_cif.got.tgz:9300.got - 2010.06.28 10:53:23.
