data_PCOD8320906
_publ_section_title
;
Structure prediction by ZEFSAII (Michael W. Deem and Ramdas Pophale) SiO2 
 PCOD8320906
Probable space group: I 41/A M D
;
_chemical_formula_sum "Si O2"
_cell_formula_units_Z 80
_cell_length_a 14.830486
_cell_length_b 14.830486
_cell_length_c 15.141767
_cell_angle_alpha 90.000000
_cell_angle_beta 90.000000
_cell_angle_gamma 90.000000
_cell_volume 3330.330429
_symmetry_space_group_name_H-M "I 41/A M D"
_symmetry_group_IT_number 141
_space_group.IT_coordinate_system_code '2'
_symmetry_cell_setting 'tetragonal'
loop_
_space_group_symop_operation_xyz
x,y,z
1/4-y,3/4+x,1/4+z
-x,1/2-y,z
1/4+y,1/4-x,3/4+z
x,-y,-z
-x,1/2+y,-z
1/4+y,3/4+x,1/4-z
1/4-y,1/4-x,3/4-z
-x,-y,-z
3/4+y,1/4-x,3/4-z
x,1/2+y,-z
3/4-y,3/4+x,1/4-z
-x,y,z
x,1/2-y,z
3/4-y,1/4-x,3/4+z
3/4+y,3/4+x,1/4+z
1/2+x,1/2+y,1/2+z
3/4-y,1/4+x,3/4+z
1/2-x,-y,1/2+z
3/4+y,3/4-x,1/4+z
1/2+x,1/2-y,1/2-z
1/2-x,y,1/2-z
3/4+y,1/4+x,3/4-z
3/4-y,3/4-x,1/4-z
1/2-x,1/2-y,1/2-z
1/4+y,3/4-x,1/4-z
1/2+x,y,1/2-z
1/4-y,1/4+x,3/4-z
1/2-x,1/2+y,1/2+z
1/2+x,-y,1/2+z
1/4-y,3/4-x,1/4+z
1/4+y,1/4+x,3/4+z
loop_
_atom_site_type_symbol
_atom_site_label
_atom_site_fract_x
_atom_site_fract_y
_atom_site_fract_z
Si Si1 0.779000 0.897516 0.475858
Si Si2 0.397813 0.853215 0.556773
Si Si3 0.403842 0.153842 0.125000
O O1 0.672373 0.872083 0.476448
O O2 0.824415 0.874645 0.382971
O O3 0.824775 0.842629 0.554162
O O4 0.795832 0.000000 0.500000
O O5 0.500000 0.870108 0.522870
O O6 0.387953 0.750000 0.590648
O O7 0.500000 0.146785 0.074126
#
# Coordination Sequence:
#
# PCOD8320906 Si02
#       3
#    32  32  16
#     4  12  23  40  63  95 133 171 214 267 326 392
#     4  11  24  42  66  96 132 173 217 271 330 390
#     4  11  22  36  60  92 128 167 206 258 320 383
#
# _framework density 24.021640000000001
#
# number of rings (size 3 to 8) (size 9 to 14) (size 15 to 20)
#    0.000    0.600    4.000    4.800    0.000    5.600 
#    0.000    0.000    0.000    0.000    0.000    5.600 
#    0.000    0.000    0.000    0.000    0.000    0.000 
#
# Total GULP energy -495757.321244 kJ/mol
# GULP energy per Si atom -12393.933031 kJ/mol
# Density = 2.396697 g / cm^3
# Si number density = 24.021640 Si / 1000 Ang^3
#
#
#
# Elastic Constant Matrix: (Units=GPa)
#
#
# Indices 1 2 3 4 5 6 
#
# 1 182.8598 42.1266 35.1841 0.0000 0.0000 0.0000
# 2 42.1266 182.8598 35.1841 0.0000 0.0000 0.0000
# 3 35.1841 35.1841 55.6586 0.0000 0.0000 0.0000
# 4 0.0000 0.0000 0.0000 5.3364 0.0000 0.0000
# 5 0.0000 0.0000 0.0000 0.0000 5.3364 0.0000
# 6 0.0000 0.0000 0.0000 0.0000 0.0000 27.1858
#
#
#
# Elastic Compliance Matrix: (Units=1/GPa)
#
#
# Indices 1 2 3 4 5 6 
#
# 1 0.006323 -0.000783 -0.003502 0.000000 0.000000 0.000000
# 2 -0.000783 0.006323 -0.003502 0.000000 0.000000 0.000000
# 3 -0.003502 -0.003502 0.022394 0.000000 0.000000 0.000000
# 4 0.000000 0.000000 0.000000 0.187391 0.000000 0.000000
# 5 0.000000 0.000000 0.000000 0.000000 0.187391 0.000000
# 6 0.000000 0.000000 0.000000 0.000000 0.000000 0.036784
#
#
# Mechanical properties :
#
#
# Convention : Reuss Voigt Hill
#
# Bulk Modulus (GPa) = 51.37152 71.81862 61.59507
# Shear Modulus (GPa) = 10.66850 28.16395 19.41623
#
# Velocity S-wave (km/s) = 2.10970 3.42781 2.84611
# Velocity P-wave (km/s) = 5.23129 6.75491 6.04133
#
# Compressibility (1/GPa) = 0.01946604
#
# Stress axis : x y z
#
# Youngs Moduli (GPa) = 158.15659 158.15659 44.65422
#
# Poissons Ratio (x) = 0.12380 0.15638
# Poissons Ratio (y) = 0.12380 0.15638
# Poissons Ratio (z) = 0.55388 0.55388
#
# Static dielectric constant tensor:
#      x y z
#    x 4.772950 0.000000 0.000000 
#    y 0.000000 4.772950 0.000000 
#    z 0.000000 0.000000 3.901080 
# 
# 
# High freq. dielectric constant tensor:
#      x y z
#    x 1.979000 0.000000 0.000000 
#    y 0.000000 1.979000 0.000000 
#    z 0.000000 0.000000 1.903560 
# 
# From -- ./inp_files/9536.got.cif
#   From: 2010.03.12/outbox.cif.g09.slc.cpg/sg141_5_cif.got.tgz:9536.got - 2010.04.03 13:18:35.
