data_PCOD8320571
_publ_section_title
;
Structure prediction by ZEFSAII (Michael W. Deem and Ramdas Pophale) SiO2 
 PCOD8320571
Probable space group: I 41/A M D
;
_chemical_formula_sum "Si O2"
_cell_formula_units_Z 128
_cell_length_a 27.169117
_cell_length_b 27.169117
_cell_length_c 10.562450
_cell_angle_alpha 90.000000
_cell_angle_beta 90.000000
_cell_angle_gamma 90.000000
_cell_volume 7796.787794
_symmetry_space_group_name_H-M "I 41/A M D"
_symmetry_group_IT_number 141
_space_group.IT_coordinate_system_code '2'
_symmetry_cell_setting 'tetragonal'
loop_
_space_group_symop_operation_xyz
x,y,z
1/4-y,3/4+x,1/4+z
-x,1/2-y,z
1/4+y,1/4-x,3/4+z
x,-y,-z
-x,1/2+y,-z
1/4+y,3/4+x,1/4-z
1/4-y,1/4-x,3/4-z
-x,-y,-z
3/4+y,1/4-x,3/4-z
x,1/2+y,-z
3/4-y,3/4+x,1/4-z
-x,y,z
x,1/2-y,z
3/4-y,1/4-x,3/4+z
3/4+y,3/4+x,1/4+z
1/2+x,1/2+y,1/2+z
3/4-y,1/4+x,3/4+z
1/2-x,-y,1/2+z
3/4+y,3/4-x,1/4+z
1/2+x,1/2-y,1/2-z
1/2-x,y,1/2-z
3/4+y,1/4+x,3/4-z
3/4-y,3/4-x,1/4-z
1/2-x,1/2-y,1/2-z
1/4+y,3/4-x,1/4-z
1/2+x,y,1/2-z
1/4-y,1/4+x,3/4-z
1/2-x,1/2+y,1/2+z
1/2+x,-y,1/2+z
1/4-y,3/4-x,1/4+z
1/4+y,1/4+x,3/4+z
loop_
_atom_site_type_symbol
_atom_site_label
_atom_site_fract_x
_atom_site_fract_y
_atom_site_fract_z
Si Si1 0.607170 0.357170 0.125000
Si Si2 0.782178 0.307051 0.638407
Si Si3 0.443053 0.806948 0.375000
Si Si4 0.941525 0.641962 0.877809
Si Si5 0.788516 0.807534 0.640733
O O1 0.579411 0.335703 0.247831
O O2 0.594502 0.414958 0.103571
O O3 0.786097 0.250000 0.671954
O O4 0.750000 0.332809 0.750000
O O5 0.836853 0.329049 0.642751
O O6 0.761276 0.315006 0.495736
O O7 0.500000 0.819238 0.372507
O O8 0.420969 0.830448 0.247784
O O9 0.000000 0.645339 0.870683
O O10 0.805568 0.750000 0.652686
O O11 0.750000 0.821787 0.750000
#
# Coordination Sequence:
#
# PCOD8320571 Si02
#       5
#    16  32  16  32  32
#     4  10  18  30  48  69  94 123 154 193 236 283
#     4   8  14  26  43  61  83 111 143 182 226 268
#     4   9  18  30  40  54  82 119 156 189 220 261
#     4   9  18  30  43  63  90 120 155 192 229 273
#     4   9  18  31  47  70  96 121 154 194 235 282
#
# _framework density 16.417017999999999
#
# number of rings (size 3 to 8) (size 9 to 14) (size 15 to 20)
#    0.000    3.125    0.000    2.250    0.000    4.000 
#    0.000    5.000    0.000    3.375    0.000    7.000 
#    0.000    0.000    0.000    0.000    0.000    0.000 
#
# Total GULP energy -792872.509150 kJ/mol
# GULP energy per Si atom -12388.632955 kJ/mol
# Density = 1.637965 g / cm^3
# Si number density = 16.417018 Si / 1000 Ang^3
#
#
#
# Elastic Constant Matrix: (Units=GPa)
#
#
# Indices 1 2 3 4 5 6 
#
# 1 65.3166 15.3558 51.4881 0.0000 0.0000 0.0000
# 2 15.3558 65.3149 51.4881 0.0000 0.0000 0.0000
# 3 51.4881 51.4881 189.5042 0.0000 0.0000 0.0000
# 4 0.0000 0.0000 0.0000 29.4012 0.0000 0.0000
# 5 0.0000 0.0000 0.0000 0.0000 29.4011 0.0000
# 6 0.0000 0.0000 0.0000 0.0000 0.0000 17.5356
#
#
#
# Elastic Compliance Matrix: (Units=1/GPa)
#
#
# Indices 1 2 3 4 5 6 
#
# 1 0.019497 -0.000519 -0.005156 0.000000 0.000000 0.000000
# 2 -0.000519 0.019497 -0.005156 0.000000 0.000000 0.000000
# 3 -0.005156 -0.005156 0.008079 0.000000 0.000000 0.000000
# 4 0.000000 0.000000 0.000000 0.034012 0.000000 0.000000
# 5 0.000000 0.000000 0.000000 0.000000 0.034012 0.000000
# 6 0.000000 0.000000 0.000000 0.000000 0.000000 0.057027
#
#
# Mechanical properties :
#
#
# Convention : Reuss Voigt Hill
#
# Bulk Modulus (GPa) = 39.35540 61.86664 50.61102
# Shear Modulus (GPa) = 24.72100 28.72116 26.72108
#
# Velocity S-wave (km/s) = 3.88469 4.18721 4.03879
# Velocity P-wave (km/s) = 6.64421 7.81941 7.25564
#
# Compressibility (1/GPa) = 0.02540947
#
# Stress axis : x y z
#
# Youngs Moduli (GPa) = 51.29098 51.28925 123.78031
#
# Poissons Ratio (x) = 0.02662 0.63823
# Poissons Ratio (y) = 0.02662 0.63825
# Poissons Ratio (z) = 0.26447 0.26447
#
# Static dielectric constant tensor:
#      x y z
#    x 2.885240 0.000000 0.000000 
#    y 0.000000 2.885260 0.000000 
#    z 0.000000 0.000000 3.593320 
# 
# 
# High freq. dielectric constant tensor:
#      x y z
#    x 1.594330 0.000000 0.000000 
#    y 0.000000 1.594340 0.000000 
#    z 0.000000 0.000000 1.662310 
# 
# From -- ./inp_files/3028.got.cif
#   From: 2010.03.12/outbox.cif.g09.slc.cpg/sg141_2_cif.got.tgz:3028.got - 2010.04.03 13:18:35.
