data_PCOD8320850
_publ_section_title
;
Structure prediction by ZEFSAII (Michael W. Deem and Ramdas Pophale) SiO2 
 PCOD8320850
Probable space group: I 41/A M D
;
_chemical_formula_sum "Si O2"
_cell_formula_units_Z 160
_cell_length_a 23.346636
_cell_length_b 23.346636
_cell_length_c 14.287868
_cell_angle_alpha 90.000000
_cell_angle_beta 90.000000
_cell_angle_gamma 90.000000
_cell_volume 7787.822665
_symmetry_space_group_name_H-M "I 41/A M D"
_symmetry_group_IT_number 141
_space_group.IT_coordinate_system_code '2'
_symmetry_cell_setting 'tetragonal'
loop_
_space_group_symop_operation_xyz
x,y,z
1/4-y,3/4+x,1/4+z
-x,1/2-y,z
1/4+y,1/4-x,3/4+z
x,-y,-z
-x,1/2+y,-z
1/4+y,3/4+x,1/4-z
1/4-y,1/4-x,3/4-z
-x,-y,-z
3/4+y,1/4-x,3/4-z
x,1/2+y,-z
3/4-y,3/4+x,1/4-z
-x,y,z
x,1/2-y,z
3/4-y,1/4-x,3/4+z
3/4+y,3/4+x,1/4+z
1/2+x,1/2+y,1/2+z
3/4-y,1/4+x,3/4+z
1/2-x,-y,1/2+z
3/4+y,3/4-x,1/4+z
1/2+x,1/2-y,1/2-z
1/2-x,y,1/2-z
3/4+y,1/4+x,3/4-z
3/4-y,3/4-x,1/4-z
1/2-x,1/2-y,1/2-z
1/4+y,3/4-x,1/4-z
1/2+x,y,1/2-z
1/4-y,1/4+x,3/4-z
1/2-x,1/2+y,1/2+z
1/2+x,-y,1/2+z
1/4-y,3/4-x,1/4+z
1/4+y,1/4+x,3/4+z
loop_
_atom_site_type_symbol
_atom_site_label
_atom_site_fract_x
_atom_site_fract_y
_atom_site_fract_z
Si Si1 0.064657 0.108168 0.118872
Si Si2 0.125418 0.538952 0.587984
Si Si3 0.066077 0.499504 0.772090
Si Si4 0.901704 0.687068 0.719650
Si Si5 0.119487 0.184000 0.963247
O O1 0.064876 0.144931 0.212614
O O2 0.000000 0.104829 0.078455
O O3 0.087875 0.044895 0.148843
O O4 0.105589 0.138902 0.044802
O O5 0.140637 0.500000 0.500000
O O6 0.184394 0.565607 0.625000
O O7 0.098171 0.503424 0.673133
O O8 0.082220 0.587293 0.552220
O O9 0.074480 0.436002 0.813755
O O10 0.000000 0.513414 0.751845
O O11 0.938215 0.688215 0.625000
O O12 0.899581 0.750000 0.764995
O O13 0.079905 0.170096 0.875000
O O14 0.107833 0.250000 0.994361
#
# Coordination Sequence:
#
# PCOD8320850 Si02
#       5
#    32  32  32  32  32
#     4  11  22  39  63  94 132 167 209 265 323 384
#     4  11  22  38  61  87 125 169 218 266 311 372
#     4  10  22  41  64  92 126 168 215 258 316 393
#     4  11  21  34  56  90 128 166 202 251 321 390
#     4  11  25  44  68  95 125 169 221 273 328 385
#
# _framework density 20.544896000000001
#
# number of rings (size 3 to 8) (size 9 to 14) (size 15 to 20)
#    0.000    1.200    4.000    3.600    0.000    7.600 
#    0.000    4.000    0.000    0.000    0.000    0.000 
#    0.000    0.000    0.000    0.000    0.000    0.000 
#
# Total GULP energy -991992.421533 kJ/mol
# GULP energy per Si atom -12399.905269 kJ/mol
# Density = 2.049813 g / cm^3
# Si number density = 20.544896 Si / 1000 Ang^3
#
#
#
# Elastic Constant Matrix: (Units=GPa)
#
#
# Indices 1 2 3 4 5 6 
#
# 1 102.6754 50.8039 39.7862 0.0000 0.0000 0.0000
# 2 50.8039 102.6718 39.7850 0.0000 0.0000 0.0000
# 3 39.7862 39.7850 94.2912 0.0000 0.0000 0.0000
# 4 0.0000 0.0000 0.0000 34.4281 0.0000 0.0000
# 5 0.0000 0.0000 0.0000 0.0000 34.4283 0.0000
# 6 0.0000 0.0000 0.0000 0.0000 0.0000 23.8162
#
#
#
# Elastic Compliance Matrix: (Units=1/GPa)
#
#
# Indices 1 2 3 4 5 6 
#
# 1 0.013809 -0.005470 -0.003519 0.000000 0.000000 0.000000
# 2 -0.005470 0.013810 -0.003519 0.000000 0.000000 0.000000
# 3 -0.003519 -0.003519 0.013575 0.000000 0.000000 0.000000
# 4 0.000000 0.000000 0.000000 0.029046 0.000000 0.000000
# 5 0.000000 0.000000 0.000000 0.000000 0.029046 0.000000
# 6 0.000000 0.000000 0.000000 0.000000 0.000000 0.041988
#
#
# Mechanical properties :
#
#
# Convention : Reuss Voigt Hill
#
# Bulk Modulus (GPa) = 61.80816 62.26542 62.03679
# Shear Modulus (GPa) = 29.12351 29.81875 29.47113
#
# Velocity S-wave (km/s) = 3.76913 3.81385 3.79155
# Velocity P-wave (km/s) = 7.00653 7.05455 7.03058
#
# Compressibility (1/GPa) = 0.01617909
#
# Stress axis : x y z
#
# Youngs Moduli (GPa) = 72.41456 72.41235 73.66416
#
# Poissons Ratio (x) = 0.39606 0.25923
# Poissons Ratio (y) = 0.39607 0.25923
# Poissons Ratio (z) = 0.25483 0.25482
#
# Static dielectric constant tensor:
#      x y z
#    x 3.838820 0.000000 0.000000 
#    y 0.000000 3.838800 0.000000 
#    z 0.000000 0.000000 3.731920 
# 
# 
# High freq. dielectric constant tensor:
#      x y z
#    x 1.802290 0.000000 0.000000 
#    y 0.000000 1.802290 0.000000 
#    z 0.000000 0.000000 1.797620 
# 
# From -- ./inp_files/6576.got.cif
#   From: 2010.03.12/outbox.cif.g09.slc.cpg/sg141_4_cif.got.tgz:6576.got - 2010.04.03 13:18:35.
