data_PCOD8320786
_publ_section_title
;
Structure prediction by ZEFSAII (Michael W. Deem and Ramdas Pophale) SiO2 
 PCOD8320786
Probable space group: I 41/A M D
;
_chemical_formula_sum "Si O2"
_cell_formula_units_Z 176
_cell_length_a 18.317332
_cell_length_b 18.317332
_cell_length_c 27.448102
_cell_angle_alpha 90.000000
_cell_angle_beta 90.000000
_cell_angle_gamma 90.000000
_cell_volume 9209.514861
_symmetry_space_group_name_H-M "I 41/A M D"
_symmetry_group_IT_number 141
_space_group.IT_coordinate_system_code '2'
_symmetry_cell_setting 'tetragonal'
loop_
_space_group_symop_operation_xyz
x,y,z
1/4-y,3/4+x,1/4+z
-x,1/2-y,z
1/4+y,1/4-x,3/4+z
x,-y,-z
-x,1/2+y,-z
1/4+y,3/4+x,1/4-z
1/4-y,1/4-x,3/4-z
-x,-y,-z
3/4+y,1/4-x,3/4-z
x,1/2+y,-z
3/4-y,3/4+x,1/4-z
-x,y,z
x,1/2-y,z
3/4-y,1/4-x,3/4+z
3/4+y,3/4+x,1/4+z
1/2+x,1/2+y,1/2+z
3/4-y,1/4+x,3/4+z
1/2-x,-y,1/2+z
3/4+y,3/4-x,1/4+z
1/2+x,1/2-y,1/2-z
1/2-x,y,1/2-z
3/4+y,1/4+x,3/4-z
3/4-y,3/4-x,1/4-z
1/2-x,1/2-y,1/2-z
1/4+y,3/4-x,1/4-z
1/2+x,y,1/2-z
1/4-y,1/4+x,3/4-z
1/2-x,1/2+y,1/2+z
1/2+x,-y,1/2+z
1/4-y,3/4-x,1/4+z
1/4+y,1/4+x,3/4+z
loop_
_atom_site_type_symbol
_atom_site_label
_atom_site_fract_x
_atom_site_fract_y
_atom_site_fract_z
Si Si1 0.641179 0.096773 0.379753
Si Si2 0.285662 0.929390 0.027972
Si Si3 0.307845 0.383285 0.672080
Si Si4 0.582679 0.167322 0.125000
Si Si5 0.584117 0.025796 0.186733
Si Si6 0.000000 0.832984 0.915246
Si Si7 0.000000 0.917583 0.014858
O O1 0.715519 0.122865 0.405511
O O2 0.573222 0.151208 0.384465
O O3 0.658761 0.088258 0.322637
O O4 0.611545 0.022943 0.404659
O O5 0.206640 0.950823 0.047515
O O6 0.277742 0.860935 0.992172
O O7 0.318369 0.000000 0.000000
O O8 0.358165 0.391836 0.625000
O O9 0.347781 0.322104 0.703774
O O10 0.591991 0.250000 0.146263
O O11 0.596639 0.107484 0.166574
O O12 0.500000 0.003028 0.186324
O O13 0.000000 0.750000 0.928590
O O14 0.000000 0.869576 0.967497
O O15 0.000000 0.000000 0.000000
#
# Coordination Sequence:
#
# PCOD8320786 Si02
#       7
#    32  32  32  16  32  16  16
#     4  11  22  39  62  90 128 163 205 257 314 366
#     4  11  21  36  64  92 120 156 209 260 308 367
#     4  10  21  37  59  91 118 159 205 263 308 362
#     4   9  20  40  62  84 116 156 198 260 323 374
#     4  11  22  37  61  91 119 156 206 254 306 375
#     4  12  26  42  62  90 132 176 212 254 313 381
#     4  12  20  40  68  86 120 172 216 248 314 387
#
# _framework density 19.110669999999999
#
# number of rings (size 3 to 8) (size 9 to 14) (size 15 to 20)
#    0.000    1.182    3.636    3.273    2.545    0.000 
#    3.273    1.818    0.000    4.909    0.000    0.000 
#    0.000    0.000    0.000    0.000    0.000    0.000 
#
# Total GULP energy -1091307.772372 kJ/mol
# GULP energy per Si atom -12401.224686 kJ/mol
# Density = 1.906717 g / cm^3
# Si number density = 19.110670 Si / 1000 Ang^3
#
#
#
# Elastic Constant Matrix: (Units=GPa)
#
#
# Indices 1 2 3 4 5 6 
#
# 1 96.4753 40.5548 55.0868 0.0000 0.0000 0.0000
# 2 40.5548 96.4773 55.0858 0.0000 0.0000 0.0000
# 3 55.0868 55.0858 147.8984 0.0000 0.0000 0.0000
# 4 0.0000 0.0000 0.0000 25.1139 0.0000 0.0000
# 5 0.0000 0.0000 0.0000 0.0000 25.1147 0.0000
# 6 0.0000 0.0000 0.0000 0.0000 0.0000 27.4900
#
#
#
# Elastic Compliance Matrix: (Units=1/GPa)
#
#
# Indices 1 2 3 4 5 6 
#
# 1 0.014150 -0.003733 -0.003880 0.000000 0.000000 0.000000
# 2 -0.003733 0.014149 -0.003880 0.000000 0.000000 0.000000
# 3 -0.003880 -0.003880 0.009652 0.000000 0.000000 0.000000
# 4 0.000000 0.000000 0.000000 0.039819 0.000000 0.000000
# 5 0.000000 0.000000 0.000000 0.000000 0.039817 0.000000
# 6 0.000000 0.000000 0.000000 0.000000 0.000000 0.036377
#
#
# Mechanical properties :
#
#
# Convention : Reuss Voigt Hill
#
# Bulk Modulus (GPa) = 66.81804 71.36731 69.09268
# Shear Modulus (GPa) = 27.48198 28.21862 27.85030
#
# Velocity S-wave (km/s) = 3.79627 3.84681 3.82162
# Velocity P-wave (km/s) = 7.36581 7.56015 7.46361
#
# Compressibility (1/GPa) = 0.01496602
#
# Stress axis : x y z
#
# Youngs Moduli (GPa) = 70.67185 70.67441 103.60907
#
# Poissons Ratio (x) = 0.26380 0.40202
# Poissons Ratio (y) = 0.26379 0.40198
# Poissons Ratio (z) = 0.27421 0.27420
#
# Static dielectric constant tensor:
#      x y z
#    x 3.322010 0.000000 0.000000 
#    y 0.000000 3.321990 0.000000 
#    z 0.000000 0.000000 3.609610 
# 
# 
# High freq. dielectric constant tensor:
#      x y z
#    x 1.744150 0.000000 0.000000 
#    y 0.000000 1.744150 0.000000 
#    z 0.000000 0.000000 1.748310 
# 
# From -- ./inp_files/12935.got.cif
#   From: 2010.03.12/outbox.cif.g09.slc.cpg/sg141_7_cif.got.tgz:12935.got - 2010.04.03 13:18:35.
