data_PCOD8320750
_publ_section_title
;
Structure prediction by ZEFSAII (Michael W. Deem and Ramdas Pophale) SiO2 
 PCOD8320750
Probable space group: I 41/A M D
;
_chemical_formula_sum "Si O2"
_cell_formula_units_Z 176
_cell_length_a 17.205978
_cell_length_b 17.205978
_cell_length_c 29.918557
_cell_angle_alpha 90.000000
_cell_angle_beta 90.000000
_cell_angle_gamma 90.000000
_cell_volume 8857.259520
_symmetry_space_group_name_H-M "I 41/A M D"
_symmetry_group_IT_number 141
_space_group.IT_coordinate_system_code '2'
_symmetry_cell_setting 'tetragonal'
loop_
_space_group_symop_operation_xyz
x,y,z
1/4-y,3/4+x,1/4+z
-x,1/2-y,z
1/4+y,1/4-x,3/4+z
x,-y,-z
-x,1/2+y,-z
1/4+y,3/4+x,1/4-z
1/4-y,1/4-x,3/4-z
-x,-y,-z
3/4+y,1/4-x,3/4-z
x,1/2+y,-z
3/4-y,3/4+x,1/4-z
-x,y,z
x,1/2-y,z
3/4-y,1/4-x,3/4+z
3/4+y,3/4+x,1/4+z
1/2+x,1/2+y,1/2+z
3/4-y,1/4+x,3/4+z
1/2-x,-y,1/2+z
3/4+y,3/4-x,1/4+z
1/2+x,1/2-y,1/2-z
1/2-x,y,1/2-z
3/4+y,1/4+x,3/4-z
3/4-y,3/4-x,1/4-z
1/2-x,1/2-y,1/2-z
1/4+y,3/4-x,1/4-z
1/2+x,y,1/2-z
1/4-y,1/4+x,3/4-z
1/2-x,1/2+y,1/2+z
1/2+x,-y,1/2+z
1/4-y,3/4-x,1/4+z
1/4+y,1/4+x,3/4+z
loop_
_atom_site_type_symbol
_atom_site_label
_atom_site_fract_x
_atom_site_fract_y
_atom_site_fract_z
Si Si1 0.626573 0.462386 0.849156
Si Si2 0.672385 0.162237 0.026056
Si Si3 0.092139 0.451550 0.792027
Si Si4 0.000000 0.614113 0.509896
Si Si5 0.588231 0.835026 0.218441
Si Si6 0.221724 0.250000 0.173629
Si Si7 0.700137 0.950137 0.375000
O O1 0.631120 0.541072 0.819135
O O2 0.589913 0.387084 0.825961
O O3 0.577605 0.477715 0.894104
O O4 0.713572 0.437658 0.858152
O O5 0.698836 0.250000 0.034339
O O6 0.714946 0.134027 0.980324
O O7 0.579239 0.158681 0.022893
O O8 0.124298 0.384130 0.759148
O O9 0.136276 0.436020 0.837494
O O10 0.000000 0.447496 0.800736
O O11 0.000000 0.603956 0.455892
O O12 0.000000 0.537928 0.539405
O O13 0.500000 0.819086 0.230600
O O14 0.629467 0.750000 0.212452
#
# Coordination Sequence:
#
# PCOD8320750 Si02
#       7
#    32  32  32  16  32  16  16
#     4  11  21  39  60  82 119 155 197 245 297 353
#     4  10  20  40  60  80 115 161 197 250 304 349
#     4   9  21  40  58  81 122 157 185 242 306 354
#     4  11  23  34  60  88 117 149 212 242 298 368
#     4   9  18  37  64  88 110 152 201 242 295 351
#     4  11  22  40  56  86 122 160 184 264 306 346
#     4  12  24  34  58  91 117 156 202 230 298 370
#
# _framework density 19.870705999999998
#
# number of rings (size 3 to 8) (size 9 to 14) (size 15 to 20)
#    0.000    1.818    1.818    3.545    0.000    5.818 
#    0.000    2.727    2.000    0.000    0.000    0.000 
#    0.000    0.000    0.000    0.000    0.000    0.000 
#
# Total GULP energy -1090546.564678 kJ/mol
# GULP energy per Si atom -12392.574599 kJ/mol
# Density = 1.982548 g / cm^3
# Si number density = 19.870706 Si / 1000 Ang^3
#
#
#
# Elastic Constant Matrix: (Units=GPa)
#
#
# Indices 1 2 3 4 5 6 
#
# 1 104.5403 13.4386 42.4321 0.0000 0.0000 0.0000
# 2 13.4386 104.5403 42.4321 0.0000 0.0000 0.0000
# 3 42.4321 42.4321 133.5943 0.0000 0.0000 0.0000
# 4 0.0000 0.0000 0.0000 27.7825 0.0000 0.0000
# 5 0.0000 0.0000 0.0000 0.0000 27.7825 0.0000
# 6 0.0000 0.0000 0.0000 0.0000 0.0000 3.6737
#
#
#
# Elastic Compliance Matrix: (Units=1/GPa)
#
#
# Indices 1 2 3 4 5 6 
#
# 1 0.010981 0.000005 -0.003489 0.000000 0.000000 0.000000
# 2 0.000005 0.010981 -0.003489 0.000000 0.000000 0.000000
# 3 -0.003489 -0.003489 0.009702 0.000000 0.000000 0.000000
# 4 0.000000 0.000000 0.000000 0.035994 0.000000 0.000000
# 5 0.000000 0.000000 0.000000 0.000000 0.035994 0.000000
# 6 0.000000 0.000000 0.000000 0.000000 0.000000 0.272207
#
#
# Mechanical properties :
#
#
# Convention : Reuss Voigt Hill
#
# Bulk Modulus (GPa) = 56.44448 59.92008 58.18228
# Shear Modulus (GPa) = 12.63541 28.13922 20.38732
#
# Velocity S-wave (km/s) = 2.52440 3.76721 3.20660
# Velocity P-wave (km/s) = 6.07983 7.01021 6.56153
#
# Compressibility (1/GPa) = 0.01771653
#
# Stress axis : x y z
#
# Youngs Moduli (GPa) = 91.06303 91.06303 103.07216
#
# Poissons Ratio (x) = -0.00042 0.35966
# Poissons Ratio (y) = -0.00042 0.35966
# Poissons Ratio (z) = 0.31775 0.31775
#
# Static dielectric constant tensor:
#      x y z
#    x 3.659950 0.000000 0.000000 
#    y 0.000000 3.659950 0.000000 
#    z 0.000000 0.000000 3.645510 
# 
# 
# High freq. dielectric constant tensor:
#      x y z
#    x 1.771530 0.000000 0.000000 
#    y 0.000000 1.771530 0.000000 
#    z 0.000000 0.000000 1.776580 
# 
# From -- ./inp_files/14405.got.cif
#   From: 2010.03.12/outbox.cif.g09.slc.cpg/sg141_8_cif.got.tgz:14405.got - 2010.04.03 13:18:35.
