data_PCOD8320286
_publ_section_title
;
Structure prediction by ZEFSAII (Michael W. Deem and Ramdas Pophale) SiO2 
 PCOD8320286
Probable space group: I 4/M C M
;
_chemical_formula_sum "Si O2"
_cell_formula_units_Z 144
_cell_length_a 20.384475
_cell_length_b 20.384475
_cell_length_c 16.871386
_cell_angle_alpha 90.000000
_cell_angle_beta 90.000000
_cell_angle_gamma 90.000000
_cell_volume 7010.513391
_symmetry_space_group_name_H-M "I 4/M C M"
_symmetry_group_IT_number 140
_symmetry_cell_setting 'tetragonal'
loop_
_space_group_symop_operation_xyz
x,y,z
-y,x,z
-x,-y,z
y,-x,z
x,-y,1/2-z
-x,y,1/2-z
y,x,1/2-z
-y,-x,1/2-z
-x,-y,-z
y,-x,-z
x,y,-z
-y,x,-z
-x,y,1/2+z
x,-y,1/2+z
-y,-x,1/2+z
y,x,1/2+z
1/2+x,1/2+y,1/2+z
1/2-y,1/2+x,1/2+z
1/2-x,1/2-y,1/2+z
1/2+y,1/2-x,1/2+z
1/2+x,1/2-y,-z
1/2-x,1/2+y,-z
1/2+y,1/2+x,-z
1/2-y,1/2-x,-z
1/2-x,1/2-y,1/2-z
1/2+y,1/2-x,1/2-z
1/2+x,1/2+y,1/2-z
1/2-y,1/2+x,1/2-z
1/2-x,1/2+y,z
1/2+x,1/2-y,z
1/2-y,1/2-x,z
1/2+y,1/2+x,z
loop_
_atom_site_type_symbol
_atom_site_label
_atom_site_fract_x
_atom_site_fract_y
_atom_site_fract_z
Si Si1 0.553894 0.586720 0.405798
Si Si2 0.838312 0.661689 0.406776
Si Si3 0.554385 0.054385 0.911928
Si Si4 0.763933 0.263933 0.340497
Si Si5 0.485007 0.180006 0.093866
Si Si6 0.275824 0.400863 0.093568
O O1 0.478842 0.589225 0.374072
O O2 0.550875 0.587195 0.500000
O O3 0.594077 0.649377 0.376524
O O4 0.844119 0.655882 0.500000
O O5 0.783701 0.716300 0.389539
O O6 0.816522 0.589803 0.372263
O O7 0.523717 0.117734 0.868140
O O8 0.500000 0.000000 0.917642
O O9 0.576741 0.076741 0.000000
O O10 0.750000 0.250000 0.250000
O O11 0.753708 0.340161 0.359428
O O12 0.529145 0.242878 0.115919
O O13 0.479584 0.170679 0.000000
O O14 0.269288 0.387146 0.000000
#
# Coordination Sequence:
#
# PCOD8320286 Si02
#       6
#    32  16  16  16  32  32
#     4   8  15  28  50  84 118 140 169 225 291 344
#     4  10  20  36  61  90 117 145 189 244 292 340
#     4   9  13  22  40  71 117 143 159 206 274 334
#     4  12  27  43  54  75 117 163 199 240 286 347
#     4   9  17  29  53  90 118 142 178 230 288 343
#     4  10  20  35  60  86 112 147 190 237 290 346
#
# _framework density 20.540578
#
# number of rings (size 3 to 8) (size 9 to 14) (size 15 to 20)
#    0.000    2.556    1.111    2.333    3.111    1.778 
#    0.000    1.111    0.000    0.000    0.000    1.556 
#    0.000    0.000    0.000    0.000    0.000    0.000 
#
# Total GULP energy -892153.583156 kJ/mol
# GULP energy per Si atom -12391.021988 kJ/mol
# Density = 2.049383 g / cm^3
# Si number density = 20.540578 Si / 1000 Ang^3
#
#
#
# Elastic Constant Matrix: (Units=GPa)
#
#
# Indices 1 2 3 4 5 6 
#
# 1 119.4867 55.1960 19.7809 0.0000 0.0000 0.0000
# 2 55.1960 119.4867 19.7810 0.0000 0.0000 0.0000
# 3 19.7809 19.7810 26.2995 0.0000 0.0000 0.0000
# 4 0.0000 0.0000 0.0000 3.9471 0.0000 0.0000
# 5 0.0000 0.0000 0.0000 0.0000 3.9471 0.0000
# 6 0.0000 0.0000 0.0000 0.0000 0.0000 38.8947
#
#
#
# Elastic Compliance Matrix: (Units=1/GPa)
#
#
# Indices 1 2 3 4 5 6 
#
# 1 0.011227 -0.004327 -0.005190 0.000000 0.000000 0.000000
# 2 -0.004327 0.011227 -0.005190 0.000000 0.000000 0.000000
# 3 -0.005190 -0.005190 0.045831 0.000000 0.000000 0.000000
# 4 0.000000 0.000000 0.000000 0.253349 0.000000 0.000000
# 5 0.000000 0.000000 0.000000 0.000000 0.253350 0.000000
# 6 0.000000 0.000000 0.000000 0.000000 0.000000 0.025710
#
#
# Mechanical properties :
#
#
# Convention : Reuss Voigt Hill
#
# Bulk Modulus (GPa) = 25.72588 50.53208 38.12898
# Shear Modulus (GPa) = 7.77526 20.72545 14.25035
#
# Velocity S-wave (km/s) = 1.94770 3.17992 2.63680
# Velocity P-wave (km/s) = 4.19639 6.17552 5.27952
#
# Compressibility (1/GPa) = 0.03887136
#
# Stress axis : x y z
#
# Youngs Moduli (GPa) = 89.06949 89.06941 21.81950
#
# Poissons Ratio (x) = 0.38542 0.11324
# Poissons Ratio (y) = 0.38542 0.11324
# Poissons Ratio (z) = 0.46225 0.46226
#
# Static dielectric constant tensor:
#      x y z
#    x 4.167140 0.000000 0.000000 
#    y 0.000000 4.167130 0.000000 
#    z 0.000000 0.000000 2.977080 
# 
# 
# High freq. dielectric constant tensor:
#      x y z
#    x 1.817770 0.000000 0.000000 
#    y 0.000000 1.817770 0.000000 
#    z 0.000000 0.000000 1.720360 
# 
# From -- ./inp_files/6724.got.cif
#   From: 2010.06.25/outbox.cif.g09.slc.cpg/sg140_4_cif.got.tgz:6724.got - 2010.06.28 10:53:23.
