data_PCOD8320393
_publ_section_title
;
Structure prediction by ZEFSAII (Michael W. Deem and Ramdas Pophale) SiO2 
 PCOD8320393
Probable space group: I 4/M C M
;
_chemical_formula_sum "Si O2"
_cell_formula_units_Z 160
_cell_length_a 30.536419
_cell_length_b 30.536419
_cell_length_c 8.619283
_cell_angle_alpha 90.000000
_cell_angle_beta 90.000000
_cell_angle_gamma 90.000000
_cell_volume 8037.247689
_symmetry_space_group_name_H-M "I 4/M C M"
_symmetry_group_IT_number 140
_symmetry_cell_setting 'tetragonal'
loop_
_space_group_symop_operation_xyz
x,y,z
-y,x,z
-x,-y,z
y,-x,z
x,-y,1/2-z
-x,y,1/2-z
y,x,1/2-z
-y,-x,1/2-z
-x,-y,-z
y,-x,-z
x,y,-z
-y,x,-z
-x,y,1/2+z
x,-y,1/2+z
-y,-x,1/2+z
y,x,1/2+z
1/2+x,1/2+y,1/2+z
1/2-y,1/2+x,1/2+z
1/2-x,1/2-y,1/2+z
1/2+y,1/2-x,1/2+z
1/2+x,1/2-y,-z
1/2-x,1/2+y,-z
1/2+y,1/2+x,-z
1/2-y,1/2-x,-z
1/2-x,1/2-y,1/2-z
1/2+y,1/2-x,1/2-z
1/2+x,1/2+y,1/2-z
1/2-y,1/2+x,1/2-z
1/2-x,1/2+y,z
1/2+x,1/2-y,z
1/2-y,1/2-x,z
1/2+y,1/2+x,z
loop_
_atom_site_type_symbol
_atom_site_label
_atom_site_fract_x
_atom_site_fract_y
_atom_site_fract_z
Si Si1 0.548775 0.617710 0.681720
Si Si2 0.385212 0.885212 0.817166
Si Si3 0.254661 0.314862 0.317669
Si Si4 0.953110 0.453110 0.816503
Si Si5 0.290062 0.901001 0.682877
Si Si6 0.046073 0.214600 0.819642
O O1 0.500000 0.611106 0.750000
O O2 0.582614 0.582614 0.750000
O O3 0.544374 0.609449 0.500000
O O4 0.569312 0.667184 0.710126
O O5 0.417599 0.917599 0.729900
O O6 0.336252 0.899170 0.769958
O O7 0.390600 0.890600 0.000000
O O8 0.302299 0.302299 0.250000
O O9 0.256849 0.314850 0.500000
O O10 0.219419 0.280582 0.252767
O O11 0.239575 0.361255 0.254936
O O12 0.938547 0.500000 0.750000
O O13 0.956561 0.456561 0.000000
O O14 0.299985 0.899255 0.500000
O O15 0.258502 0.940620 0.726233
O O16 0.000000 0.203178 0.750000
O O17 0.045763 0.227110 0.000000
#
# Coordination Sequence:
#
# PCOD8320393 Si02
#       6
#    32  16  32  16  32  32
#     4  10  21  38  61  88 122 158 201 251 306 364
#     4  12  25  41  63  93 125 159 201 249 300 355
#     4   9  18  33  52  76 108 145 186 229 280 332
#     4  11  23  44  71  99 129 159 194 237 290 355
#     4  11  22  39  60  85 119 157 198 247 299 352
#     4  10  22  40  60  85 115 154 199 244 294 352
#
# _framework density 19.907312000000001
#
# number of rings (size 3 to 8) (size 9 to 14) (size 15 to 20)
#    0.000    1.700    1.000    3.900    0.000    5.800 
#    0.000    9.000    0.000    0.000    0.000    0.000 
#    0.000    0.000    0.000    0.000    0.000    0.000 
#
# Total GULP energy -991169.235342 kJ/mol
# GULP energy per Si atom -12389.615442 kJ/mol
# Density = 1.986200 g / cm^3
# Si number density = 19.907312 Si / 1000 Ang^3
#
#
#
# Elastic Constant Matrix: (Units=GPa)
#
#
# Indices 1 2 3 4 5 6 
#
# 1 136.0063 13.1064 34.9704 0.0000 0.0000 0.0000
# 2 13.1064 136.0063 34.9704 0.0000 0.0000 0.0000
# 3 34.9704 34.9704 96.2627 0.0000 0.0000 0.0000
# 4 0.0000 0.0000 0.0000 32.2949 0.0000 0.0000
# 5 0.0000 0.0000 0.0000 0.0000 32.2949 0.0000
# 6 0.0000 0.0000 0.0000 0.0000 0.0000 36.8683
#
#
#
# Elastic Compliance Matrix: (Units=1/GPa)
#
#
# Indices 1 2 3 4 5 6 
#
# 1 0.008110 -0.000026 -0.002937 0.000000 0.000000 0.000000
# 2 -0.000026 0.008110 -0.002937 0.000000 0.000000 0.000000
# 3 -0.002937 -0.002937 0.012522 0.000000 0.000000 0.000000
# 4 0.000000 0.000000 0.000000 0.030965 0.000000 0.000000
# 5 0.000000 0.000000 0.000000 0.000000 0.030965 0.000000
# 6 0.000000 0.000000 0.000000 0.000000 0.000000 0.027124
#
#
# Mechanical properties :
#
#
# Convention : Reuss Voigt Hill
#
# Bulk Modulus (GPa) = 59.02231 59.37442 59.19837
# Shear Modulus (GPa) = 36.97062 39.30682 38.13872
#
# Velocity S-wave (km/s) = 4.31413 4.44835 4.38175
# Velocity P-wave (km/s) = 7.38434 7.50159 7.44320
#
# Compressibility (1/GPa) = 0.01694274
#
# Stress axis : x y z
#
# Youngs Moduli (GPa) = 123.30085 123.30085 79.85994
#
# Poissons Ratio (x) = 0.00326 0.23452
# Poissons Ratio (y) = 0.00326 0.23452
# Poissons Ratio (z) = 0.36210 0.36210
#
# Static dielectric constant tensor:
#      x y z
#    x 3.849050 0.000000 0.000000 
#    y 0.000000 3.849050 0.000000 
#    z 0.000000 0.000000 3.746600 
# 
# 
# High freq. dielectric constant tensor:
#      x y z
#    x 1.779040 0.000000 0.000000 
#    y 0.000000 1.779040 0.000000 
#    z 0.000000 0.000000 1.785450 
# 
# From -- ./inp_files/1822.got.cif
#   From: 2010.06.25/outbox.cif.g09.slc.cpg/sg140_1_cif.got.tgz:1822.got - 2010.06.28 10:53:23.
