data_PCOD8320553
_publ_section_title
;
Structure prediction by ZEFSAII (Michael W. Deem and Ramdas Pophale) SiO2 
 PCOD8320553
Probable space group: I 41/A M D
;
_chemical_formula_sum "Si O2"
_cell_formula_units_Z 160
_cell_length_a 27.425999
_cell_length_b 27.425999
_cell_length_c 13.840699
_cell_angle_alpha 90.000000
_cell_angle_beta 90.000000
_cell_angle_gamma 90.000000
_cell_volume 10410.772006
_symmetry_space_group_name_H-M "I 41/A M D"
_symmetry_group_IT_number 141
_space_group.IT_coordinate_system_code '2'
_symmetry_cell_setting 'tetragonal'
loop_
_space_group_symop_operation_xyz
x,y,z
1/4-y,3/4+x,1/4+z
-x,1/2-y,z
1/4+y,1/4-x,3/4+z
x,-y,-z
-x,1/2+y,-z
1/4+y,3/4+x,1/4-z
1/4-y,1/4-x,3/4-z
-x,-y,-z
3/4+y,1/4-x,3/4-z
x,1/2+y,-z
3/4-y,3/4+x,1/4-z
-x,y,z
x,1/2-y,z
3/4-y,1/4-x,3/4+z
3/4+y,3/4+x,1/4+z
1/2+x,1/2+y,1/2+z
3/4-y,1/4+x,3/4+z
1/2-x,-y,1/2+z
3/4+y,3/4-x,1/4+z
1/2+x,1/2-y,1/2-z
1/2-x,y,1/2-z
3/4+y,1/4+x,3/4-z
3/4-y,3/4-x,1/4-z
1/2-x,1/2-y,1/2-z
1/4+y,3/4-x,1/4-z
1/2+x,y,1/2-z
1/4-y,1/4+x,3/4-z
1/2-x,1/2+y,1/2+z
1/2+x,-y,1/2+z
1/4-y,3/4-x,1/4+z
1/4+y,1/4+x,3/4+z
loop_
_atom_site_type_symbol
_atom_site_label
_atom_site_fract_x
_atom_site_fract_y
_atom_site_fract_z
Si Si1 0.234159 0.192432 0.053425
Si Si2 0.269343 0.807346 0.150732
Si Si3 0.165350 0.661645 0.623811
Si Si4 0.444353 0.389247 0.916343
Si Si5 0.055588 0.378230 0.175802
O O1 0.244295 0.250000 0.071005
O O2 0.276741 0.161381 0.105495
O O3 0.182911 0.175577 0.097636
O O4 0.233867 0.179930 0.939125
O O5 0.271947 0.750000 0.164428
O O6 0.250000 0.832000 0.250000
O O7 0.323842 0.825716 0.128732
O O8 0.143737 0.606264 0.625000
O O9 0.155195 0.688760 0.723483
O O10 0.137437 0.691816 0.540636
O O11 0.500000 0.377533 0.892943
O O12 0.415394 0.340128 0.891702
O O13 0.000000 0.365292 0.148138
#
# Coordination Sequence:
#
# PCOD8320553 Si02
#       5
#    32  32  32  32  32
#     4   9  16  26  41  62  85 107 138 178 214 249
#     4   8  14  27  46  62  75  96 131 178 222 251
#     4   9  16  26  41  61  85 113 143 176 212 246
#     4  10  18  26  39  61  89 119 145 170 205 248
#     4   9  17  28  41  60  85 113 146 177 206 247
#
# _framework density 15.368696999999999
#
# number of rings (size 3 to 8) (size 9 to 14) (size 15 to 20)
#    0.000    3.000    0.000    3.600    0.000    2.000 
#    0.000    1.000    0.000    3.600    0.000    8.400 
#    0.000    8.000    0.000    0.000    0.000    0.200 
#
# Total GULP energy -991650.148278 kJ/mol
# GULP energy per Si atom -12395.626853 kJ/mol
# Density = 1.533372 g / cm^3
# Si number density = 15.368697 Si / 1000 Ang^3
#
#
#
# Elastic Constant Matrix: (Units=GPa)
#
#
# Indices 1 2 3 4 5 6 
#
# 1 86.3936 52.0646 40.8280 0.0000 0.0000 0.0000
# 2 52.0646 86.3942 40.8281 0.0000 0.0000 0.0000
# 3 40.8280 40.8281 74.7611 0.0000 0.0000 0.0000
# 4 0.0000 0.0000 0.0000 15.2430 0.0000 0.0000
# 5 0.0000 0.0000 0.0000 0.0000 15.2426 0.0000
# 6 0.0000 0.0000 0.0000 0.0000 0.0000 18.6759
#
#
#
# Elastic Compliance Matrix: (Units=1/GPa)
#
#
# Indices 1 2 3 4 5 6 
#
# 1 0.019892 -0.009238 -0.005818 0.000000 0.000000 0.000000
# 2 -0.009238 0.019892 -0.005818 0.000000 0.000000 0.000000
# 3 -0.005818 -0.005818 0.019731 0.000000 0.000000 0.000000
# 4 0.000000 0.000000 0.000000 0.065604 0.000000 0.000000
# 5 0.000000 0.000000 0.000000 0.000000 0.065606 0.000000
# 6 0.000000 0.000000 0.000000 0.000000 0.000000 0.053545
#
#
# Mechanical properties :
#
#
# Convention : Reuss Voigt Hill
#
# Bulk Modulus (GPa) = 56.28887 57.22113 56.75500
# Shear Modulus (GPa) = 17.12690 17.42085 17.27387
#
# Velocity S-wave (km/s) = 3.34189 3.37044 3.35620
# Velocity P-wave (km/s) = 7.18304 7.24290 7.21303
#
# Compressibility (1/GPa) = 0.01776550
#
# Stress axis : x y z
#
# Youngs Moduli (GPa) = 50.27229 50.27262 50.68270
#
# Poissons Ratio (x) = 0.46442 0.29488
# Poissons Ratio (y) = 0.46442 0.29487
# Poissons Ratio (z) = 0.29249 0.29249
#
# Static dielectric constant tensor:
#      x y z
#    x 2.841050 0.000000 0.000000 
#    y 0.000000 2.841050 0.000000 
#    z 0.000000 0.000000 3.191350 
# 
# 
# High freq. dielectric constant tensor:
#      x y z
#    x 1.567690 0.000000 0.000000 
#    y 0.000000 1.567690 0.000000 
#    z 0.000000 0.000000 1.588430 
# 
# From -- ./inp_files/6629.got.cif
#   From: 2010.03.12/outbox.cif.g09.slc.cpg/sg141_4_cif.got.tgz:6629.got - 2010.04.03 13:18:35.
