data_PCOD8320262
_publ_section_title
;
Structure prediction by ZEFSAII (Michael W. Deem and Ramdas Pophale) SiO2 
 PCOD8320262
Probable space group: I 4/M C M
;
_chemical_formula_sum "Si O2"
_cell_formula_units_Z 160
_cell_length_a 30.673087
_cell_length_b 30.673087
_cell_length_c 9.585960
_cell_angle_alpha 90.000000
_cell_angle_beta 90.000000
_cell_angle_gamma 90.000000
_cell_volume 9018.837985
_symmetry_space_group_name_H-M "I 4/M C M"
_symmetry_group_IT_number 140
_symmetry_cell_setting 'tetragonal'
loop_
_space_group_symop_operation_xyz
x,y,z
-y,x,z
-x,-y,z
y,-x,z
x,-y,1/2-z
-x,y,1/2-z
y,x,1/2-z
-y,-x,1/2-z
-x,-y,-z
y,-x,-z
x,y,-z
-y,x,-z
-x,y,1/2+z
x,-y,1/2+z
-y,-x,1/2+z
y,x,1/2+z
1/2+x,1/2+y,1/2+z
1/2-y,1/2+x,1/2+z
1/2-x,1/2-y,1/2+z
1/2+y,1/2-x,1/2+z
1/2+x,1/2-y,-z
1/2-x,1/2+y,-z
1/2+y,1/2+x,-z
1/2-y,1/2-x,-z
1/2-x,1/2-y,1/2-z
1/2+y,1/2-x,1/2-z
1/2+x,1/2+y,1/2-z
1/2-y,1/2+x,1/2-z
1/2-x,1/2+y,z
1/2+x,1/2-y,z
1/2-y,1/2-x,z
1/2+y,1/2+x,z
loop_
_atom_site_type_symbol
_atom_site_label
_atom_site_fract_x
_atom_site_fract_y
_atom_site_fract_z
Si Si1 0.159895 0.219257 0.838327
Si Si2 0.934211 0.884313 0.500000
Si Si3 0.572130 0.677532 0.252915
Si Si4 0.872561 0.965743 0.500000
Si Si5 0.039343 0.270262 0.342879
Si Si6 0.367561 0.201638 0.841644
O O1 0.198759 0.198759 0.750000
O O2 0.117119 0.189306 0.828759
O O3 0.152991 0.266570 0.772216
O O4 0.173378 0.223979 0.000000
O O5 0.917933 0.857897 0.634360
O O6 0.912014 0.931535 0.500000
O O7 0.985947 0.892409 0.500000
O O8 0.538769 0.657725 0.364521
O O9 0.550865 0.720213 0.187055
O O10 0.022844 0.273603 0.500000
O O11 0.080698 0.301585 0.314722
O O12 0.000000 0.287735 0.250000
O O13 0.345956 0.154045 0.823847
O O14 0.359888 0.219675 0.000000
#
# Coordination Sequence:
#
# PCOD8320262 Si02
#       6
#    32  16  32  16  32  32
#     4  11  22  35  55  79 104 135 176 219 260 311
#     4  12  24  39  56  72  97 125 165 211 270 334
#     4  11  23  37  55  78 102 129 163 215 272 323
#     4  12  24  39  54  74  95 127 163 211 270 330
#     4  10  20  34  57  84 109 136 172 216 258 304
#     4   9  20  38  55  76 110 149 181 212 255 305
#
# _framework density 17.740645000000001
#
# number of rings (size 3 to 8) (size 9 to 14) (size 15 to 20)
#    0.000    1.400    2.000    4.200    4.200    1.800 
#    0.000    0.000    0.000    2.400    0.000    0.000 
#    0.000    0.400    0.000    5.000    0.000    0.000 
#
# Total GULP energy -992252.121294 kJ/mol
# GULP energy per Si atom -12403.151516 kJ/mol
# Density = 1.770027 g / cm^3
# Si number density = 17.740645 Si / 1000 Ang^3
#
#
#
# Elastic Constant Matrix: (Units=GPa)
#
#
# Indices 1 2 3 4 5 6 
#
# 1 84.7519 60.4512 48.6244 0.0000 0.0000 0.0000
# 2 60.4512 84.7519 48.6244 0.0000 0.0000 0.0000
# 3 48.6244 48.6244 139.3085 0.0000 0.0000 0.0000
# 4 0.0000 0.0000 0.0000 24.0275 0.0000 0.0000
# 5 0.0000 0.0000 0.0000 0.0000 24.0275 0.0000
# 6 0.0000 0.0000 0.0000 0.0000 0.0000 19.0753
#
#
#
# Elastic Compliance Matrix: (Units=1/GPa)
#
#
# Indices 1 2 3 4 5 6 
#
# 1 0.025070 -0.016082 -0.003137 0.000000 0.000000 0.000000
# 2 -0.016082 0.025070 -0.003137 0.000000 0.000000 0.000000
# 3 -0.003137 -0.003137 0.009368 0.000000 0.000000 0.000000
# 4 0.000000 0.000000 0.000000 0.041619 0.000000 0.000000
# 5 0.000000 0.000000 0.000000 0.000000 0.041619 0.000000
# 6 0.000000 0.000000 0.000000 0.000000 0.000000 0.052424
#
#
# Mechanical properties :
#
#
# Convention : Reuss Voigt Hill
#
# Bulk Modulus (GPa) = 67.58761 69.35692 68.47227
# Shear Modulus (GPa) = 20.42377 23.50021 21.96199
#
# Velocity S-wave (km/s) = 3.39668 3.64353 3.52227
# Velocity P-wave (km/s) = 7.31871 7.54190 7.43114
#
# Compressibility (1/GPa) = 0.01479561
#
# Stress axis : x y z
#
# Youngs Moduli (GPa) = 39.88906 39.88906 106.74258
#
# Poissons Ratio (x) = 0.64148 0.33487
# Poissons Ratio (y) = 0.64148 0.33487
# Poissons Ratio (z) = 0.12514 0.12514
#
# Static dielectric constant tensor:
#      x y z
#    x 3.187710 0.000000 0.000000 
#    y 0.000000 3.187710 0.000000 
#    z 0.000000 0.000000 3.626580 
# 
# 
# High freq. dielectric constant tensor:
#      x y z
#    x 1.665040 0.000000 0.000000 
#    y 0.000000 1.665040 0.000000 
#    z 0.000000 0.000000 1.706120 
# 
# From -- ./inp_files/1848.got.cif
#   From: 2010.06.25/outbox.cif.g09.slc.cpg/sg140_1_cif.got.tgz:1848.got - 2010.06.28 10:53:23.
