data_PCOD8320808
_publ_section_title
;
Structure prediction by ZEFSAII (Michael W. Deem and Ramdas Pophale) SiO2 
 PCOD8320808
Probable space group: I 41/A M D
;
_chemical_formula_sum "Si O2"
_cell_formula_units_Z 240
_cell_length_a 28.117576
_cell_length_b 28.117576
_cell_length_c 15.879370
_cell_angle_alpha 90.000000
_cell_angle_beta 90.000000
_cell_angle_gamma 90.000000
_cell_volume 12554.199435
_symmetry_space_group_name_H-M "I 41/A M D"
_symmetry_group_IT_number 141
_space_group.IT_coordinate_system_code '2'
_symmetry_cell_setting 'tetragonal'
loop_
_space_group_symop_operation_xyz
x,y,z
1/4-y,3/4+x,1/4+z
-x,1/2-y,z
1/4+y,1/4-x,3/4+z
x,-y,-z
-x,1/2+y,-z
1/4+y,3/4+x,1/4-z
1/4-y,1/4-x,3/4-z
-x,-y,-z
3/4+y,1/4-x,3/4-z
x,1/2+y,-z
3/4-y,3/4+x,1/4-z
-x,y,z
x,1/2-y,z
3/4-y,1/4-x,3/4+z
3/4+y,3/4+x,1/4+z
1/2+x,1/2+y,1/2+z
3/4-y,1/4+x,3/4+z
1/2-x,-y,1/2+z
3/4+y,3/4-x,1/4+z
1/2+x,1/2-y,1/2-z
1/2-x,y,1/2-z
3/4+y,1/4+x,3/4-z
3/4-y,3/4-x,1/4-z
1/2-x,1/2-y,1/2-z
1/4+y,3/4-x,1/4-z
1/2+x,y,1/2-z
1/4-y,1/4+x,3/4-z
1/2-x,1/2+y,1/2+z
1/2+x,-y,1/2+z
1/4-y,3/4-x,1/4+z
1/4+y,1/4+x,3/4+z
loop_
_atom_site_type_symbol
_atom_site_label
_atom_site_fract_x
_atom_site_fract_y
_atom_site_fract_z
Si Si1 0.773846 0.304664 0.335361
Si Si2 0.788853 0.147761 0.030148
Si Si3 0.681517 0.805987 0.189394
Si Si4 0.872588 0.875253 0.842351
Si Si5 0.116003 0.305894 0.308500
Si Si6 0.734535 0.484535 0.125000
Si Si7 0.055409 0.966335 0.114582
Si Si8 0.218455 0.925490 0.466562
O O1 0.758573 0.250000 0.341484
O O2 0.750000 0.326210 0.250000
O O3 0.754501 0.330803 0.417010
O O4 0.830130 0.311651 0.339585
O O5 0.832064 0.139187 0.092160
O O6 0.806251 0.182427 0.955032
O O7 0.767783 0.102385 0.981462
O O8 0.674613 0.750000 0.178957
O O9 0.636695 0.830396 0.145509
O O10 0.729783 0.825448 0.144462
O O11 0.683303 0.822888 0.287264
O O12 0.886884 0.831687 0.781880
O O13 0.856583 0.921440 0.789919
O O14 0.102804 0.250000 0.298457
O O15 0.080111 0.330111 0.375000
O O16 0.791352 0.475020 0.133637
O O17 0.709192 0.461088 0.203969
O O18 0.000000 0.971544 0.102632
#
# Coordination Sequence:
#
# PCOD8320808 Si02
#       8
#    32  32  32  32  32  16  32  32
#     4  10  21  39  62  88 122 158 200 260 316 366
#     4  12  22  35  59  90 121 157 207 259 306 366
#     4   9  20  40  60  85 118 158 205 254 310 374
#     4  12  24  38  64  93 120 161 210 262 317 375
#     4  11  26  45  66  93 130 170 213 265 323 387
#     4  10  24  40  52  70 120 170 213 236 288 357
#     4   9  19  37  61  85 118 155 196 253 311 365
#     4  11  23  38  53  80 114 169 207 250 291 363
#
# _framework density 19.11711
#
# number of rings (size 3 to 8) (size 9 to 14) (size 15 to 20)
#    0.000    1.467    4.000    2.000    2.800    2.800 
#    0.000    0.000    0.000    0.000    0.000    0.000 
#    0.000    1.067    0.000    0.000    0.000    0.000 
#
# Total GULP energy -1487674.828998 kJ/mol
# GULP energy per Si atom -12397.290242 kJ/mol
# Density = 1.907360 g / cm^3
# Si number density = 19.117110 Si / 1000 Ang^3
#
#
#
# Elastic Constant Matrix: (Units=GPa)
#
#
# Indices 1 2 3 4 5 6 
#
# 1 87.8873 45.5874 54.3787 0.0000 0.0000 0.0000
# 2 45.5874 87.8873 54.3787 0.0000 0.0000 0.0000
# 3 54.3787 54.3787 136.4743 0.0000 0.0000 0.0000
# 4 0.0000 0.0000 0.0000 32.3603 0.0000 0.0000
# 5 0.0000 0.0000 0.0000 0.0000 32.3603 0.0000
# 6 0.0000 0.0000 0.0000 0.0000 0.0000 25.4009
#
#
#
# Elastic Compliance Matrix: (Units=1/GPa)
#
#
# Indices 1 2 3 4 5 6 
#
# 1 0.017367 -0.006273 -0.004420 0.000000 0.000000 0.000000
# 2 -0.006273 0.017367 -0.004420 0.000000 0.000000 0.000000
# 3 -0.004420 -0.004420 0.010850 0.000000 0.000000 0.000000
# 4 0.000000 0.000000 0.000000 0.030902 0.000000 0.000000
# 5 0.000000 0.000000 0.000000 0.000000 0.030902 0.000000
# 6 0.000000 0.000000 0.000000 0.000000 0.000000 0.039369
#
#
# Mechanical properties :
#
#
# Convention : Reuss Voigt Hill
#
# Bulk Modulus (GPa) = 65.12032 68.99317 67.05674
# Shear Modulus (GPa) = 27.45672 28.55122 28.00397
#
# Velocity S-wave (km/s) = 3.79388 3.86876 3.83151
# Velocity P-wave (km/s) = 7.30269 7.49163 7.39776
#
# Compressibility (1/GPa) = 0.01535619
#
# Stress axis : x y z
#
# Youngs Moduli (GPa) = 57.57942 57.57942 92.16565
#
# Poissons Ratio (x) = 0.36122 0.40741
# Poissons Ratio (y) = 0.36122 0.40741
# Poissons Ratio (z) = 0.25452 0.25452
#
# Static dielectric constant tensor:
#      x y z
#    x 3.454550 0.000000 0.000000 
#    y 0.000000 3.454550 0.000000 
#    z 0.000000 0.000000 3.975250 
# 
# 
# High freq. dielectric constant tensor:
#      x y z
#    x 1.729970 0.000000 0.000000 
#    y 0.000000 1.729970 0.000000 
#    z 0.000000 0.000000 1.756870 
# 
# From -- ./inp_files/7054.got.cif
#   From: 2010.03.12/outbox.cif.g09.slc.cpg/sg141_4_cif.got.tgz:7054.got - 2010.04.03 13:18:35.
