data_PCOD8320114
_publ_section_title
;
Structure prediction by ZEFSAII (Michael W. Deem and Ramdas Pophale) SiO2 
 PCOD8320114
Probable space group: I 4/M C M
;
_chemical_formula_sum "Si O2"
_cell_formula_units_Z 160
_cell_length_a 21.327120
_cell_length_b 21.327120
_cell_length_c 15.892341
_cell_angle_alpha 90.000000
_cell_angle_beta 90.000000
_cell_angle_gamma 90.000000
_cell_volume 7228.568489
_symmetry_space_group_name_H-M "I 4/M C M"
_symmetry_group_IT_number 140
_symmetry_cell_setting 'tetragonal'
loop_
_space_group_symop_operation_xyz
x,y,z
-y,x,z
-x,-y,z
y,-x,z
x,-y,1/2-z
-x,y,1/2-z
y,x,1/2-z
-y,-x,1/2-z
-x,-y,-z
y,-x,-z
x,y,-z
-y,x,-z
-x,y,1/2+z
x,-y,1/2+z
-y,-x,1/2+z
y,x,1/2+z
1/2+x,1/2+y,1/2+z
1/2-y,1/2+x,1/2+z
1/2-x,1/2-y,1/2+z
1/2+y,1/2-x,1/2+z
1/2+x,1/2-y,-z
1/2-x,1/2+y,-z
1/2+y,1/2+x,-z
1/2-y,1/2-x,-z
1/2-x,1/2-y,1/2-z
1/2+y,1/2-x,1/2-z
1/2+x,1/2+y,1/2-z
1/2-y,1/2+x,1/2-z
1/2-x,1/2+y,z
1/2+x,1/2-y,z
1/2-y,1/2-x,z
1/2+y,1/2+x,z
loop_
_atom_site_type_symbol
_atom_site_label
_atom_site_fract_x
_atom_site_fract_y
_atom_site_fract_z
Si Si1 0.558293 0.156993 0.399773
Si Si2 0.081197 0.684632 0.597827
Si Si3 0.098761 0.788461 0.905422
Si Si4 0.469851 0.593750 0.399494
Si Si5 0.174138 0.221405 0.836310
O O1 0.560554 0.152858 0.500000
O O2 0.596206 0.096206 0.363282
O O3 0.486419 0.161344 0.368448
O O4 0.592865 0.219550 0.363482
O O5 0.077966 0.704364 0.500000
O O6 0.126312 0.626312 0.611930
O O7 0.106342 0.745458 0.650093
O O8 0.053090 0.839804 0.861474
O O9 0.169968 0.813274 0.907872
O O10 0.074766 0.780042 0.000000
O O11 0.421846 0.539668 0.367453
O O12 0.466899 0.594706 0.500000
O O13 0.181939 0.181939 0.750000
O O14 0.225715 0.274286 0.845122
#
# Coordination Sequence:
#
# PCOD8320114 Si02
#       5
#    32  32  32  32  32
#     4   9  18  31  49  79 113 140 176 228 281 328
#     4   9  18  33  55  80 106 142 185 224 268 331
#     4  10  19  30  53  79 103 134 171 220 273 323
#     4   8  15  27  44  71 103 133 167 207 255 313
#     4  10  21  36  52  73 104 139 175 219 270 323
#
# _framework density 22.134397
#
# number of rings (size 3 to 8) (size 9 to 14) (size 15 to 20)
#    0.000    2.800    0.000    1.800    2.800    2.400 
#    0.000    3.000    0.000    0.000    0.000    1.400 
#    0.000    4.800    0.000    0.200    0.000    0.200 
#
# Total GULP energy -991191.831877 kJ/mol
# GULP energy per Si atom -12389.897898 kJ/mol
# Density = 2.208402 g / cm^3
# Si number density = 22.134397 Si / 1000 Ang^3
#
#
#
# Elastic Constant Matrix: (Units=GPa)
#
#
# Indices 1 2 3 4 5 6 
#
# 1 158.6357 74.6963 28.5270 0.0000 0.0000 0.0000
# 2 74.6963 158.6357 28.5270 0.0000 0.0000 0.0000
# 3 28.5270 28.5270 16.7688 0.0000 0.0000 0.0000
# 4 0.0000 0.0000 0.0000 13.1990 0.0000 0.0000
# 5 0.0000 0.0000 0.0000 0.0000 13.1990 0.0000
# 6 0.0000 0.0000 0.0000 0.0000 0.0000 34.2606
#
#
#
# Elastic Compliance Matrix: (Units=1/GPa)
#
#
# Indices 1 2 3 4 5 6 
#
# 1 0.009626 -0.002288 -0.012484 0.000000 0.000000 0.000000
# 2 -0.002288 0.009626 -0.012484 0.000000 0.000000 0.000000
# 3 -0.012484 -0.012484 0.102109 0.000000 0.000000 0.000000
# 4 0.000000 0.000000 0.000000 0.075763 0.000000 0.000000
# 5 0.000000 0.000000 0.000000 0.000000 0.075763 0.000000
# 6 0.000000 0.000000 0.000000 0.000000 0.000000 0.029188
#
#
# Mechanical properties :
#
#
# Convention : Reuss Voigt Hill
#
# Bulk Modulus (GPa) = 14.95871 66.39342 40.67607
# Shear Modulus (GPa) = 13.19717 25.61774 19.40745
#
# Velocity S-wave (km/s) = 2.44443 3.40571 2.96429
# Velocity P-wave (km/s) = 3.83924 6.74728 5.48934
#
# Compressibility (1/GPa) = 0.06685069
#
# Stress axis : x y z
#
# Youngs Moduli (GPa) = 103.88741 103.88741 9.79342
#
# Poissons Ratio (x) = 0.23765 0.12226
# Poissons Ratio (y) = 0.23765 0.12226
# Poissons Ratio (z) = 1.29691 1.29691
#
# Static dielectric constant tensor:
#      x y z
#    x 4.248600 0.000000 0.000000 
#    y 0.000000 4.248600 0.000000 
#    z 0.000000 0.000000 3.445380 
# 
# 
# High freq. dielectric constant tensor:
#      x y z
#    x 1.876830 0.000000 0.000000 
#    y 0.000000 1.876830 0.000000 
#    z 0.000000 0.000000 1.812300 
# 
# From -- ./inp_files/6774.got.cif
#   From: 2010.06.25/outbox.cif.g09.slc.cpg/sg140_4_cif.got.tgz:6774.got - 2010.06.28 10:53:23.
