data_PCOD8320494
_publ_section_title
;
Structure prediction by ZEFSAII (Michael W. Deem and Ramdas Pophale) SiO2 
 PCOD8320494
Probable space group: I 4/M C M
;
_chemical_formula_sum "Si O2"
_cell_formula_units_Z 112
_cell_length_a 15.342026
_cell_length_b 15.342026
_cell_length_c 24.973949
_cell_angle_alpha 90.000000
_cell_angle_beta 90.000000
_cell_angle_gamma 90.000000
_cell_volume 5878.312219
_symmetry_space_group_name_H-M "I 4/M C M"
_symmetry_group_IT_number 140
_symmetry_cell_setting 'tetragonal'
loop_
_space_group_symop_operation_xyz
x,y,z
-y,x,z
-x,-y,z
y,-x,z
x,-y,1/2-z
-x,y,1/2-z
y,x,1/2-z
-y,-x,1/2-z
-x,-y,-z
y,-x,-z
x,y,-z
-y,x,-z
-x,y,1/2+z
x,-y,1/2+z
-y,-x,1/2+z
y,x,1/2+z
1/2+x,1/2+y,1/2+z
1/2-y,1/2+x,1/2+z
1/2-x,1/2-y,1/2+z
1/2+y,1/2-x,1/2+z
1/2+x,1/2-y,-z
1/2-x,1/2+y,-z
1/2+y,1/2+x,-z
1/2-y,1/2-x,-z
1/2-x,1/2-y,1/2-z
1/2+y,1/2-x,1/2-z
1/2+x,1/2+y,1/2-z
1/2-y,1/2+x,1/2-z
1/2-x,1/2+y,z
1/2+x,1/2-y,z
1/2-y,1/2-x,z
1/2+y,1/2+x,z
loop_
_atom_site_type_symbol
_atom_site_label
_atom_site_fract_x
_atom_site_fract_y
_atom_site_fract_z
Si Si1 0.762906 0.525242 0.842131
Si Si2 0.142173 0.000000 0.750000
Si Si3 0.817419 0.682582 0.777179
Si Si4 0.858712 0.018083 0.061238
Si Si5 0.071809 0.428192 0.309988
O O1 0.698959 0.475092 0.801957
O O2 0.763819 0.621013 0.816573
O O3 0.725743 0.529106 0.901975
O O4 0.856348 0.477814 0.845602
O O5 0.085644 0.914357 0.750000
O O6 0.750000 0.750000 0.750000
O O7 0.878708 0.621292 0.738953
O O8 0.904493 0.926127 0.073449
O O9 0.827173 0.022209 0.000000
O O10 0.000000 0.500000 0.290641
#
# Coordination Sequence:
#
# PCOD8320494 Si02
#       5
#    32  16  16  32  16
#     4  12  23  38  62  85 124 162 219 252 321 380
#     4  11  22  34  53  88 126 154 189 254 332 389
#     4  12  26  38  59  93 128 161 219 274 316 376
#     4   9  20  41  67  94 125 162 205 265 344 402
#     4  12  26  44  61  86 129 189 213 249 325 418
#
# _framework density 19.053089
#
# number of rings (size 3 to 8) (size 9 to 14) (size 15 to 20)
#    0.000    1.000    4.286    3.429    6.000    2.286 
#    0.000    1.429    0.000    4.286    0.000    0.000 
#    0.000    0.000    0.000    0.000    0.000    0.000 
#
# Total GULP energy -693992.963551 kJ/mol
# GULP energy per Si atom -12392.731492 kJ/mol
# Density = 1.900972 g / cm^3
# Si number density = 19.053089 Si / 1000 Ang^3
#
#
#
# Elastic Constant Matrix: (Units=GPa)
#
#
# Indices 1 2 3 4 5 6 
#
# 1 128.9138 64.9945 64.6915 0.0000 0.0000 0.0000
# 2 64.9945 128.9147 64.6914 0.0000 0.0000 0.0000
# 3 64.6915 64.6914 134.0452 0.0000 0.0000 0.0000
# 4 0.0000 0.0000 0.0000 26.5212 0.0000 0.0000
# 5 0.0000 0.0000 0.0000 0.0000 26.5183 0.0000
# 6 0.0000 0.0000 0.0000 0.0000 0.0000 70.8181
#
#
#
# Elastic Compliance Matrix: (Units=1/GPa)
#
#
# Indices 1 2 3 4 5 6 
#
# 1 0.011626 -0.004019 -0.003671 0.000000 0.000000 0.000000
# 2 -0.004019 0.011625 -0.003671 0.000000 0.000000 0.000000
# 3 -0.003671 -0.003671 0.011003 0.000000 0.000000 0.000000
# 4 0.000000 0.000000 0.000000 0.037706 0.000000 0.000000
# 5 0.000000 0.000000 0.000000 0.000000 0.037710 0.000000
# 6 0.000000 0.000000 0.000000 0.000000 0.000000 0.014121
#
#
# Mechanical properties :
#
#
# Convention : Reuss Voigt Hill
#
# Bulk Modulus (GPa) = 86.71100 86.73649 86.72375
# Shear Modulus (GPa) = 33.25424 37.93795 35.59609
#
# Velocity S-wave (km/s) = 4.18227 4.46709 4.32702
# Velocity P-wave (km/s) = 8.30246 8.49876 8.40118
#
# Compressibility (1/GPa) = 0.01153256
#
# Stress axis : x y z
#
# Youngs Moduli (GPa) = 86.01706 86.01797 90.88078
#
# Poissons Ratio (x) = 0.34571 0.33362
# Poissons Ratio (y) = 0.34571 0.33361
# Poissons Ratio (z) = 0.31577 0.31576
#
# Static dielectric constant tensor:
#      x y z
#    x 3.694280 0.000000 0.000000 
#    y 0.000000 3.694270 0.000000 
#    z 0.000000 0.000000 3.291040 
# 
# 
# High freq. dielectric constant tensor:
#      x y z
#    x 1.749170 0.000000 0.000000 
#    y 0.000000 1.749170 0.000000 
#    z 0.000000 0.000000 1.717320 
# 
# From -- ./inp_files/9124.got.cif
#   From: 2010.06.25/outbox.cif.g09.slc.cpg/sg140_5_cif.got.tgz:9124.got - 2010.06.28 10:53:23.
