data_PCOD8320602
_publ_section_title
;
Structure prediction by ZEFSAII (Michael W. Deem and Ramdas Pophale) SiO2 
 PCOD8320602
Probable space group: I 41/A M D
;
_chemical_formula_sum "Si O2"
_cell_formula_units_Z 176
_cell_length_a 17.532328
_cell_length_b 17.532328
_cell_length_c 32.856899
_cell_angle_alpha 90.000000
_cell_angle_beta 90.000000
_cell_angle_gamma 90.000000
_cell_volume 10099.636582
_symmetry_space_group_name_H-M "I 41/A M D"
_symmetry_group_IT_number 141
_space_group.IT_coordinate_system_code '2'
_symmetry_cell_setting 'tetragonal'
loop_
_space_group_symop_operation_xyz
x,y,z
1/4-y,3/4+x,1/4+z
-x,1/2-y,z
1/4+y,1/4-x,3/4+z
x,-y,-z
-x,1/2+y,-z
1/4+y,3/4+x,1/4-z
1/4-y,1/4-x,3/4-z
-x,-y,-z
3/4+y,1/4-x,3/4-z
x,1/2+y,-z
3/4-y,3/4+x,1/4-z
-x,y,z
x,1/2-y,z
3/4-y,1/4-x,3/4+z
3/4+y,3/4+x,1/4+z
1/2+x,1/2+y,1/2+z
3/4-y,1/4+x,3/4+z
1/2-x,-y,1/2+z
3/4+y,3/4-x,1/4+z
1/2+x,1/2-y,1/2-z
1/2-x,y,1/2-z
3/4+y,1/4+x,3/4-z
3/4-y,3/4-x,1/4-z
1/2-x,1/2-y,1/2-z
1/4+y,3/4-x,1/4-z
1/2+x,y,1/2-z
1/4-y,1/4+x,3/4-z
1/2-x,1/2+y,1/2+z
1/2+x,-y,1/2+z
1/4-y,3/4-x,1/4+z
1/4+y,1/4+x,3/4+z
loop_
_atom_site_type_symbol
_atom_site_label
_atom_site_fract_x
_atom_site_fract_y
_atom_site_fract_z
Si Si1 0.911304 0.967270 0.436242
Si Si2 0.288743 0.160836 0.611768
Si Si3 0.680229 0.950017 0.140737
Si Si4 0.684744 0.108316 0.050004
Si Si5 0.586078 0.836078 0.875000
Si Si6 0.414676 0.937077 0.712531
O O1 0.892699 0.966388 0.388095
O O2 0.886739 0.885895 0.453478
O O3 0.000000 0.981922 0.443661
O O4 0.863204 0.032061 0.460176
O O5 0.364979 0.114979 0.625000
O O6 0.305690 0.250000 0.618508
O O7 0.214436 0.136049 0.639243
O O8 0.261994 0.142569 0.564749
O O9 0.750690 0.999311 0.125000
O O10 0.660093 0.978523 0.185774
O O11 0.640885 0.150363 0.086681
O O12 0.701151 0.159334 0.010734
O O13 0.598866 0.750000 0.859266
O O14 0.500000 0.913647 0.701090
#
# Coordination Sequence:
#
# PCOD8320602 Si02
#       6
#    32  32  32  32  16  32
#     4  10  19  31  47  68  95 133 181 221 253 297
#     4   9  18  35  57  80 105 129 162 208 264 328
#     4   8  16  31  50  71  96 131 172 211 244 295
#     4  11  19  33  53  71  99 139 181 220 256 308
#     4  11  22  32  46  74 110 146 187 232 270 302
#     4  10  22  35  49  73 103 134 168 215 269 313
#
# _framework density 17.426369000000001
#
# number of rings (size 3 to 8) (size 9 to 14) (size 15 to 20)
#    0.000    2.273    2.727    2.727    0.000    3.455 
#    0.000    0.000    0.000    2.182    0.000    0.000 
#    0.000    0.000    0.000    0.000    0.000    0.000 
#
# Total GULP energy -1090165.151845 kJ/mol
# GULP energy per Si atom -12388.240362 kJ/mol
# Density = 1.738671 g / cm^3
# Si number density = 17.426369 Si / 1000 Ang^3
#
#
#
# Elastic Constant Matrix: (Units=GPa)
#
#
# Indices 1 2 3 4 5 6 
#
# 1 75.3934 40.5658 41.7826 0.0000 0.0000 0.0000
# 2 40.5658 75.3936 41.7821 0.0000 0.0000 0.0000
# 3 41.7826 41.7821 89.0691 0.0000 0.0000 0.0000
# 4 0.0000 0.0000 0.0000 15.2407 0.0000 0.0000
# 5 0.0000 0.0000 0.0000 0.0000 15.2405 0.0000
# 6 0.0000 0.0000 0.0000 0.0000 0.0000 22.6282
#
#
#
# Elastic Compliance Matrix: (Units=1/GPa)
#
#
# Indices 1 2 3 4 5 6 
#
# 1 0.020870 -0.007843 -0.006111 0.000000 0.000000 0.000000
# 2 -0.007843 0.020870 -0.006111 0.000000 0.000000 0.000000
# 3 -0.006111 -0.006111 0.016961 0.000000 0.000000 0.000000
# 4 0.000000 0.000000 0.000000 0.065614 0.000000 0.000000
# 5 0.000000 0.000000 0.000000 0.000000 0.065615 0.000000
# 6 0.000000 0.000000 0.000000 0.000000 0.000000 0.044193
#
#
# Mechanical properties :
#
#
# Convention : Reuss Voigt Hill
#
# Bulk Modulus (GPa) = 53.84709 54.23524 54.04116
# Shear Modulus (GPa) = 17.82892 18.33692 18.08292
#
# Velocity S-wave (km/s) = 3.20206 3.24736 3.22479
# Velocity P-wave (km/s) = 6.68115 6.72685 6.70404
#
# Compressibility (1/GPa) = 0.01857111
#
# Stress axis : x y z
#
# Youngs Moduli (GPa) = 47.91471 47.91529 58.95916
#
# Poissons Ratio (x) = 0.37578 0.36033
# Poissons Ratio (y) = 0.37577 0.36031
# Poissons Ratio (z) = 0.29283 0.29282
#
# Static dielectric constant tensor:
#      x y z
#    x 3.309740 0.000000 0.000000 
#    y 0.000000 3.309740 0.000000 
#    z 0.000000 0.000000 3.325910 
# 
# 
# High freq. dielectric constant tensor:
#      x y z
#    x 1.663440 0.000000 0.000000 
#    y 0.000000 1.663440 0.000000 
#    z 0.000000 0.000000 1.661190 
# 
# From -- ./inp_files/14382.got.cif
#   From: 2010.03.12/outbox.cif.g09.slc.cpg/sg141_8_cif.got.tgz:14382.got - 2010.04.03 13:18:35.
