data_PCOD8320045
_publ_section_title
;
Structure prediction by ZEFSAII (Michael W. Deem and Ramdas Pophale) SiO2 
 PCOD8320045
Probable space group: I 4/M C M
;
_chemical_formula_sum "Si O2"
_cell_formula_units_Z 144
_cell_length_a 20.798645
_cell_length_b 20.798645
_cell_length_c 21.114583
_cell_angle_alpha 90.000000
_cell_angle_beta 90.000000
_cell_angle_gamma 90.000000
_cell_volume 9133.823041
_symmetry_space_group_name_H-M "I 4/M C M"
_symmetry_group_IT_number 140
_symmetry_cell_setting 'tetragonal'
loop_
_space_group_symop_operation_xyz
x,y,z
-y,x,z
-x,-y,z
y,-x,z
x,-y,1/2-z
-x,y,1/2-z
y,x,1/2-z
-y,-x,1/2-z
-x,-y,-z
y,-x,-z
x,y,-z
-y,x,-z
-x,y,1/2+z
x,-y,1/2+z
-y,-x,1/2+z
y,x,1/2+z
1/2+x,1/2+y,1/2+z
1/2-y,1/2+x,1/2+z
1/2-x,1/2-y,1/2+z
1/2+y,1/2-x,1/2+z
1/2+x,1/2-y,-z
1/2-x,1/2+y,-z
1/2+y,1/2+x,-z
1/2-y,1/2-x,-z
1/2-x,1/2-y,1/2-z
1/2+y,1/2-x,1/2-z
1/2+x,1/2+y,1/2-z
1/2-y,1/2+x,1/2-z
1/2-x,1/2+y,z
1/2+x,1/2-y,z
1/2-y,1/2-x,z
1/2+y,1/2+x,z
loop_
_atom_site_type_symbol
_atom_site_label
_atom_site_fract_x
_atom_site_fract_y
_atom_site_fract_z
Si Si1 0.644245 0.251842 0.184595
Si Si2 0.147476 0.244516 0.325932
Si Si3 0.500000 0.897895 0.250000
Si Si4 0.682968 0.922136 0.928946
Si Si5 0.445992 0.159373 0.625657
O O1 0.699562 0.199562 0.190623
O O2 0.675384 0.318711 0.160280
O O3 0.615396 0.258707 0.255974
O O4 0.591597 0.227110 0.134119
O O5 0.200386 0.299615 0.329820
O O6 0.094267 0.259805 0.379474
O O7 0.558451 0.941550 0.224709
O O8 0.522188 0.853744 0.306826
O O9 0.618846 0.881155 0.913929
O O10 0.666149 0.997856 0.925615
O O11 0.707471 0.907481 0.000000
O O12 0.398109 0.101892 0.604737
#
# Coordination Sequence:
#
# PCOD8320045 Si02
#       5
#    32  32  16  32  32
#     4   8  14  25  44  65  81  98 126 175 228 258
#     4   8  14  27  44  61  80 103 135 172 213 258
#     4   9  16  24  36  56  82 112 142 171 202 236
#     4  10  20  31  41  54  79 118 154 176 197 237
#     4  10  18  27  40  60  84 109 140 176 211 243
#
# _framework density 15.765579000000001
#
# number of rings (size 3 to 8) (size 9 to 14) (size 15 to 20)
#    0.000    3.000    0.000    3.333    0.000    5.333 
#    0.000    2.222    0.000    4.000    0.000    0.000 
#    0.000    0.889    0.000    8.000    0.000    2.667 
#
# Total GULP energy -892234.261602 kJ/mol
# GULP energy per Si atom -12392.142522 kJ/mol
# Density = 1.572970 g / cm^3
# Si number density = 15.765579 Si / 1000 Ang^3
#
#
#
# Elastic Constant Matrix: (Units=GPa)
#
#
# Indices 1 2 3 4 5 6 
#
# 1 49.0134 39.0667 32.4679 0.0000 0.0000 0.0000
# 2 39.0667 49.0134 32.4679 0.0000 0.0000 0.0000
# 3 32.4679 32.4679 63.1386 0.0000 0.0000 0.0000
# 4 0.0000 0.0000 0.0000 17.8088 0.0000 0.0000
# 5 0.0000 0.0000 0.0000 0.0000 17.8088 0.0000
# 6 0.0000 0.0000 0.0000 0.0000 0.0000 19.3156
#
#
#
# Elastic Compliance Matrix: (Units=1/GPa)
#
#
# Indices 1 2 3 4 5 6 
#
# 1 0.059411 -0.041125 -0.009403 0.000000 0.000000 0.000000
# 2 -0.041125 0.059411 -0.009403 0.000000 0.000000 0.000000
# 3 -0.009403 -0.009403 0.025509 0.000000 0.000000 0.000000
# 4 0.000000 0.000000 0.000000 0.056152 0.000000 0.000000
# 5 0.000000 0.000000 0.000000 0.000000 0.056152 0.000000
# 6 0.000000 0.000000 0.000000 0.000000 0.000000 0.051772
#
#
# Mechanical properties :
#
#
# Convention : Reuss Voigt Hill
#
# Bulk Modulus (GPa) = 40.86995 41.01895 40.94445
# Shear Modulus (GPa) = 11.45674 14.79749 13.12711
#
# Velocity S-wave (km/s) = 2.69865 3.06697 2.88869
# Velocity P-wave (km/s) = 5.97412 6.21420 6.09534
#
# Compressibility (1/GPa) = 0.02446785
#
# Stress axis : x y z
#
# Youngs Moduli (GPa) = 16.83199 16.83199 39.20201
#
# Poissons Ratio (x) = 0.69222 0.36862
# Poissons Ratio (y) = 0.69222 0.36862
# Poissons Ratio (z) = 0.15827 0.15827
#
# Static dielectric constant tensor:
#      x y z
#    x 3.049160 0.000000 0.000000 
#    y 0.000000 3.049160 0.000000 
#    z 0.000000 0.000000 2.900700 
# 
# 
# High freq. dielectric constant tensor:
#      x y z
#    x 1.575840 0.000000 0.000000 
#    y 0.000000 1.575840 0.000000 
#    z 0.000000 0.000000 1.592110 
# 
# From -- ./inp_files/8378.got.cif
#   From: 2010.06.25/outbox.cif.g09.slc.cpg/sg140_5_cif.got.tgz:8378.got - 2010.06.28 10:53:23.
