data_PCOD8320320
_publ_section_title
;
Structure prediction by ZEFSAII (Michael W. Deem and Ramdas Pophale) SiO2 
 PCOD8320320
Probable space group: I 4/M C M
;
_chemical_formula_sum "Si O2"
_cell_formula_units_Z 144
_cell_length_a 20.292264
_cell_length_b 20.292264
_cell_length_c 17.787522
_cell_angle_alpha 90.000000
_cell_angle_beta 90.000000
_cell_angle_gamma 90.000000
_cell_volume 7324.474272
_symmetry_space_group_name_H-M "I 4/M C M"
_symmetry_group_IT_number 140
_symmetry_cell_setting 'tetragonal'
loop_
_space_group_symop_operation_xyz
x,y,z
-y,x,z
-x,-y,z
y,-x,z
x,-y,1/2-z
-x,y,1/2-z
y,x,1/2-z
-y,-x,1/2-z
-x,-y,-z
y,-x,-z
x,y,-z
-y,x,-z
-x,y,1/2+z
x,-y,1/2+z
-y,-x,1/2+z
y,x,1/2+z
1/2+x,1/2+y,1/2+z
1/2-y,1/2+x,1/2+z
1/2-x,1/2-y,1/2+z
1/2+y,1/2-x,1/2+z
1/2+x,1/2-y,-z
1/2-x,1/2+y,-z
1/2+y,1/2+x,-z
1/2-y,1/2-x,-z
1/2-x,1/2-y,1/2-z
1/2+y,1/2-x,1/2-z
1/2+x,1/2+y,1/2-z
1/2-y,1/2+x,1/2-z
1/2-x,1/2+y,z
1/2+x,1/2-y,z
1/2-y,1/2-x,z
1/2+y,1/2+x,z
loop_
_atom_site_type_symbol
_atom_site_label
_atom_site_fract_x
_atom_site_fract_y
_atom_site_fract_z
Si Si1 0.466270 0.660907 0.415781
Si Si2 0.803233 0.521849 0.368448
Si Si3 0.998594 0.601477 0.000000
Si Si4 0.605220 0.786967 0.275360
Si Si5 0.406772 0.637579 0.824415
O O1 0.474725 0.632307 0.500000
O O2 0.477894 0.738484 0.419514
O O3 0.520504 0.631904 0.358938
O O4 0.393216 0.643748 0.385206
O O5 0.862968 0.524793 0.425461
O O6 0.814612 0.453724 0.325145
O O7 0.796851 0.583627 0.311452
O O8 0.032232 0.532232 0.000000
O O9 0.919553 0.580448 0.000000
O O10 0.672292 0.827709 0.290435
O O11 0.616299 0.710830 0.299111
O O12 0.407082 0.592919 0.750000
#
# Coordination Sequence:
#
# PCOD8320320 Si02
#       5
#    32  32  16  32  32
#     4  11  22  40  62  86 123 160 196 250 307 365
#     4  10  20  38  61  85 122 162 202 247 303 364
#     4  11  22  36  58  90 124 161 208 256 300 357
#     4  10  21  38  62  90 121 161 205 251 306 361
#     4  11  22  39  63  91 119 157 207 250 303 365
#
# _framework density 19.660112999999999
#
# number of rings (size 3 to 8) (size 9 to 14) (size 15 to 20)
#    0.000    1.444    3.333    2.667    0.000    0.889 
#    0.000    2.222    0.000    5.333    0.000    0.000 
#    0.000    0.000    0.000    0.000    0.000    0.000 
#
# Total GULP energy -892150.797226 kJ/mol
# GULP energy per Si atom -12390.983295 kJ/mol
# Density = 1.961537 g / cm^3
# Si number density = 19.660113 Si / 1000 Ang^3
#
#
#
# Elastic Constant Matrix: (Units=GPa)
#
#
# Indices 1 2 3 4 5 6 
#
# 1 95.5936 57.4525 59.6076 0.0000 0.0000 0.0000
# 2 57.4525 95.5928 59.6073 0.0000 0.0000 0.0000
# 3 59.6076 59.6073 141.8681 0.0000 0.0000 0.0000
# 4 0.0000 0.0000 0.0000 21.4034 0.0000 0.0000
# 5 0.0000 0.0000 0.0000 0.0000 21.4034 0.0000
# 6 0.0000 0.0000 0.0000 0.0000 0.0000 34.0583
#
#
#
# Elastic Compliance Matrix: (Units=1/GPa)
#
#
# Indices 1 2 3 4 5 6 
#
# 1 0.017966 -0.008253 -0.004081 0.000000 0.000000 0.000000
# 2 -0.008253 0.017966 -0.004081 0.000000 0.000000 0.000000
# 3 -0.004081 -0.004081 0.010478 0.000000 0.000000 0.000000
# 4 0.000000 0.000000 0.000000 0.046722 0.000000 0.000000
# 5 0.000000 0.000000 0.000000 0.000000 0.046721 0.000000
# 6 0.000000 0.000000 0.000000 0.000000 0.000000 0.029361
#
#
# Mechanical properties :
#
#
# Convention : Reuss Voigt Hill
#
# Bulk Modulus (GPa) = 73.63777 76.26546 74.95161
# Shear Modulus (GPa) = 24.20481 25.79885 25.00183
#
# Velocity S-wave (km/s) = 3.51260 3.62642 3.56996
# Velocity P-wave (km/s) = 7.34764 7.51071 7.42962
#
# Compressibility (1/GPa) = 0.01357999
#
# Stress axis : x y z
#
# Youngs Moduli (GPa) = 55.66159 55.66115 95.43697
#
# Poissons Ratio (x) = 0.45937 0.38947
# Poissons Ratio (y) = 0.45937 0.38947
# Poissons Ratio (z) = 0.22715 0.22715
#
# Static dielectric constant tensor:
#      x y z
#    x 3.469880 0.000000 0.000000 
#    y 0.000000 3.469880 0.000000 
#    z 0.000000 0.000000 3.683730 
# 
# 
# High freq. dielectric constant tensor:
#      x y z
#    x 1.758360 0.000000 0.000000 
#    y 0.000000 1.758360 0.000000 
#    z 0.000000 0.000000 1.778830 
# 
# From -- ./inp_files/6679.got.cif
#   From: 2010.06.25/outbox.cif.g09.slc.cpg/sg140_4_cif.got.tgz:6679.got - 2010.06.28 10:53:23.
