data_PCOD8320281
_publ_section_title
;
Structure prediction by ZEFSAII (Michael W. Deem and Ramdas Pophale) SiO2 
 PCOD8320281
Probable space group: I 4/M C M
;
_chemical_formula_sum "Si O2"
_cell_formula_units_Z 240
_cell_length_a 19.642278
_cell_length_b 19.642278
_cell_length_c 28.368104
_cell_angle_alpha 90.000000
_cell_angle_beta 90.000000
_cell_angle_gamma 90.000000
_cell_volume 10944.955929
_symmetry_space_group_name_H-M "I 4/M C M"
_symmetry_group_IT_number 140
_symmetry_cell_setting 'tetragonal'
loop_
_space_group_symop_operation_xyz
x,y,z
-y,x,z
-x,-y,z
y,-x,z
x,-y,1/2-z
-x,y,1/2-z
y,x,1/2-z
-y,-x,1/2-z
-x,-y,-z
y,-x,-z
x,y,-z
-y,x,-z
-x,y,1/2+z
x,-y,1/2+z
-y,-x,1/2+z
y,x,1/2+z
1/2+x,1/2+y,1/2+z
1/2-y,1/2+x,1/2+z
1/2-x,1/2-y,1/2+z
1/2+y,1/2-x,1/2+z
1/2+x,1/2-y,-z
1/2-x,1/2+y,-z
1/2+y,1/2+x,-z
1/2-y,1/2-x,-z
1/2-x,1/2-y,1/2-z
1/2+y,1/2-x,1/2-z
1/2+x,1/2+y,1/2-z
1/2-y,1/2+x,1/2-z
1/2-x,1/2+y,z
1/2+x,1/2-y,z
1/2-y,1/2-x,z
1/2+y,1/2+x,z
loop_
_atom_site_type_symbol
_atom_site_label
_atom_site_fract_x
_atom_site_fract_y
_atom_site_fract_z
Si Si1 0.904139 0.750794 0.054118
Si Si2 0.454344 0.403137 0.145248
Si Si3 0.969693 0.359471 0.617889
Si Si4 0.334167 0.051593 0.210432
Si Si5 0.836471 0.036630 0.552480
Si Si6 0.180687 0.926032 0.727971
Si Si7 0.772107 0.830050 0.944787
Si Si8 0.943110 0.443110 0.052182
O O1 0.919071 0.691764 0.091353
O O2 0.836972 0.787456 0.073774
O O3 0.961869 0.807635 0.056226
O O4 0.897373 0.722924 0.000000
O O5 0.532322 0.411220 0.161135
O O6 0.451108 0.397385 0.088693
O O7 0.426183 0.337774 0.172511
O O8 0.925663 0.425663 0.633927
O O9 0.007059 0.325702 0.662709
O O10 0.027466 0.378927 0.580165
O O11 0.387995 0.112006 0.202673
O O12 0.262427 0.084205 0.228634
O O13 0.361935 0.000000 0.250000
O O14 0.864388 0.053058 0.500000
O O15 0.776708 0.090125 0.567152
O O16 0.137365 0.862635 0.750000
O O17 0.161209 0.000000 0.750000
O O18 0.703037 0.796964 0.922887
O O19 0.771947 0.819634 0.000000
O O20 0.000000 0.500000 0.046612
O O21 0.918993 0.418993 0.000000
#
# Coordination Sequence:
#
# PCOD8320281 Si02
#       8
#    32  32  32  32  32  32  32  16
#     4  10  20  35  57  87 122 165 219 277 331 390
#     4  11  22  36  62  95 125 164 212 262 324 398
#     4  11  21  37  62  90 125 168 218 276 334 395
#     4  11  25  44  68  97 131 175 219 266 330 400
#     4  10  21  37  55  83 129 174 214 264 321 388
#     4  11  23  44  73 101 130 163 210 275 335 395
#     4   9  18  35  57  79 112 165 219 262 314 380
#     4   9  18  32  54  88 127 164 212 276 341 390
#
# _framework density 21.927907999999999
#
# number of rings (size 3 to 8) (size 9 to 14) (size 15 to 20)
#    0.000    1.667    2.000    2.800    0.000    4.000 
#    1.200    1.333    0.000    0.000    0.000    0.000 
#    0.000    0.000    0.000    0.000    0.000    0.000 
#
# Total GULP energy -1487152.881492 kJ/mol
# GULP energy per Si atom -12392.940679 kJ/mol
# Density = 2.187800 g / cm^3
# Si number density = 21.927908 Si / 1000 Ang^3
#
#
#
# Elastic Constant Matrix: (Units=GPa)
#
#
# Indices 1 2 3 4 5 6 
#
# 1 70.7086 -8.6163 15.2928 0.0000 0.0000 0.0000
# 2 -8.6163 70.7086 15.2928 0.0000 0.0000 0.0000
# 3 15.2928 15.2928 108.9765 0.0000 0.0000 0.0000
# 4 0.0000 0.0000 0.0000 21.4169 0.0000 0.0000
# 5 0.0000 0.0000 0.0000 0.0000 21.4169 0.0000
# 6 0.0000 0.0000 0.0000 0.0000 0.0000 -81.8722
#
#
#
# Elastic Compliance Matrix: (Units=1/GPa)
#
#
# Indices 1 2 3 4 5 6 
#
# 1 0.014954 0.002347 -0.002428 0.000000 0.000000 0.000000
# 2 0.002347 0.014954 -0.002428 0.000000 0.000000 0.000000
# 3 -0.002428 -0.002428 0.009858 0.000000 0.000000 0.000000
# 4 0.000000 0.000000 0.000000 0.046692 0.000000 0.000000
# 5 0.000000 0.000000 0.000000 0.000000 0.046692 0.000000
# 6 0.000000 0.000000 0.000000 0.000000 0.000000 -0.012214
#
#
# Mechanical properties :
#
#
# Convention : Reuss Voigt Hill
#
# Bulk Modulus (GPa) = 28.77847 32.70359 30.74103
# Shear Modulus (GPa) = 36.35447 7.42062 21.88754
#
# Velocity S-wave (km/s) = 4.07616 1.84159 3.16279
# Velocity P-wave (km/s) = 5.94189 4.41231 5.23328
#
# Compressibility (1/GPa) = 0.03474820
#
# Stress axis : x y z
#
# Youngs Moduli (GPa) = 66.87315 66.87315 101.44349
#
# Poissons Ratio (x) = -0.15697 0.24629
# Poissons Ratio (y) = -0.15697 0.24629
# Poissons Ratio (z) = 0.16236 0.16236
#
# Static dielectric constant tensor:
#      x y z
#    x 3.970880 0.000000 0.000000 
#    y 0.000000 3.970880 0.000000 
#    z 0.000000 0.000000 3.899580 
# 
# 
# High freq. dielectric constant tensor:
#      x y z
#    x 1.858500 0.000000 0.000000 
#    y 0.000000 1.858500 0.000000 
#    z 0.000000 0.000000 1.851790 
# 
# From -- ./inp_files/10965.got.cif
#   From: 2010.06.25/outbox.cif.g09.slc.cpg/sg140_6_cif.got.tgz:10965.got - 2010.06.28 10:53:23.
