data_PCOD8320717
_publ_section_title
;
Structure prediction by ZEFSAII (Michael W. Deem and Ramdas Pophale) SiO2 
 PCOD8320717
Probable space group: I 41/A M D
;
_chemical_formula_sum "Si O2"
_cell_formula_units_Z 176
_cell_length_a 17.365650
_cell_length_b 17.365650
_cell_length_c 28.584315
_cell_angle_alpha 90.000000
_cell_angle_beta 90.000000
_cell_angle_gamma 90.000000
_cell_volume 8620.051818
_symmetry_space_group_name_H-M "I 41/A M D"
_symmetry_group_IT_number 141
_space_group.IT_coordinate_system_code '2'
_symmetry_cell_setting 'tetragonal'
loop_
_space_group_symop_operation_xyz
x,y,z
1/4-y,3/4+x,1/4+z
-x,1/2-y,z
1/4+y,1/4-x,3/4+z
x,-y,-z
-x,1/2+y,-z
1/4+y,3/4+x,1/4-z
1/4-y,1/4-x,3/4-z
-x,-y,-z
3/4+y,1/4-x,3/4-z
x,1/2+y,-z
3/4-y,3/4+x,1/4-z
-x,y,z
x,1/2-y,z
3/4-y,1/4-x,3/4+z
3/4+y,3/4+x,1/4+z
1/2+x,1/2+y,1/2+z
3/4-y,1/4+x,3/4+z
1/2-x,-y,1/2+z
3/4+y,3/4-x,1/4+z
1/2+x,1/2-y,1/2-z
1/2-x,y,1/2-z
3/4+y,1/4+x,3/4-z
3/4-y,3/4-x,1/4-z
1/2-x,1/2-y,1/2-z
1/4+y,3/4-x,1/4-z
1/2+x,y,1/2-z
1/4-y,1/4+x,3/4-z
1/2-x,1/2+y,1/2+z
1/2+x,-y,1/2+z
1/4-y,3/4-x,1/4+z
1/4+y,1/4+x,3/4+z
loop_
_atom_site_type_symbol
_atom_site_label
_atom_site_fract_x
_atom_site_fract_y
_atom_site_fract_z
Si Si1 0.748382 0.528112 0.321868
Si Si2 0.585814 0.911487 0.605541
Si Si3 0.866706 0.412781 0.285314
Si Si4 0.411202 0.750000 0.641602
Si Si5 0.252110 0.666475 0.450298
Si Si6 0.000000 0.911953 0.491149
Si Si7 0.413979 0.836022 0.875000
O O1 0.749031 0.500970 0.375000
O O2 0.798622 0.605983 0.318994
O O3 0.784634 0.458113 0.291216
O O4 0.662341 0.551947 0.303563
O O5 0.500000 0.925343 0.585792
O O6 0.606676 0.821788 0.608001
O O7 0.592226 0.940492 0.658861
O O8 0.920212 0.461728 0.250726
O O9 0.867037 0.327836 0.264358
O O10 0.904306 0.402716 0.336239
O O11 0.500000 0.750000 0.658985
O O12 0.356350 0.750000 0.686309
O O13 0.296106 0.750000 0.444568
O O14 0.000000 0.000000 0.500000
O O15 0.500000 0.845866 0.896324
#
# Coordination Sequence:
#
# PCOD8320717 Si02
#       7
#    32  32  32  16  32  16  16
#     4  10  21  37  58  84 120 148 190 253 303 359
#     4   9  19  37  62  88 113 147 194 248 305 354
#     4  12  22  38  53  79 118 161 204 246 292 346
#     4  10  20  36  60  88 118 156 206 256 288 348
#     4  10  20  36  58  82 109 153 204 245 293 350
#     4  12  24  32  54  80 116 164 206 240 286 342
#     4  11  24  38  50  74 116 164 208 249 292 336
#
# _framework density 20.41751
#
# number of rings (size 3 to 8) (size 9 to 14) (size 15 to 20)
#    0.000    1.545    3.636    2.182    2.545    0.727 
#    3.273    0.000    0.000    2.727    0.000    3.818 
#    0.000    0.000    0.000    0.000    0.000    0.000 
#
# Total GULP energy -1090180.094954 kJ/mol
# GULP energy per Si atom -12388.410170 kJ/mol
# Density = 2.037104 g / cm^3
# Si number density = 20.417510 Si / 1000 Ang^3
#
#
#
# Elastic Constant Matrix: (Units=GPa)
#
#
# Indices 1 2 3 4 5 6 
#
# 1 125.9074 61.4043 29.7584 0.0000 0.0000 0.0000
# 2 61.4043 125.9072 29.7585 0.0000 0.0000 0.0000
# 3 29.7584 29.7585 62.8280 0.0000 0.0000 0.0000
# 4 0.0000 0.0000 0.0000 17.1500 0.0000 0.0000
# 5 0.0000 0.0000 0.0000 0.0000 17.1500 0.0000
# 6 0.0000 0.0000 0.0000 0.0000 0.0000 22.3515
#
#
#
# Elastic Compliance Matrix: (Units=1/GPa)
#
#
# Indices 1 2 3 4 5 6 
#
# 1 0.010894 -0.004609 -0.002977 0.000000 0.000000 0.000000
# 2 -0.004609 0.010894 -0.002977 0.000000 0.000000 0.000000
# 3 -0.002977 -0.002977 0.018736 0.000000 0.000000 0.000000
# 4 0.000000 0.000000 0.000000 0.058309 0.000000 0.000000
# 5 0.000000 0.000000 0.000000 0.000000 0.058309 0.000000
# 6 0.000000 0.000000 0.000000 0.000000 0.000000 0.044740
#
#
# Mechanical properties :
#
#
# Convention : Reuss Voigt Hill
#
# Bulk Modulus (GPa) = 51.54996 61.83166 56.69081
# Shear Modulus (GPa) = 21.78902 24.24504 23.01703
#
# Velocity S-wave (km/s) = 3.27031 3.44970 3.36120
# Velocity P-wave (km/s) = 6.28988 6.79828 6.54901
#
# Compressibility (1/GPa) = 0.01939866
#
# Stress axis : x y z
#
# Youngs Moduli (GPa) = 91.79510 91.79490 53.37242
#
# Poissons Ratio (x) = 0.42311 0.15887
# Poissons Ratio (y) = 0.42311 0.15887
# Poissons Ratio (z) = 0.27324 0.27324
#
# Static dielectric constant tensor:
#      x y z
#    x 3.768090 0.000000 0.000000 
#    y 0.000000 3.768110 0.000000 
#    z 0.000000 0.000000 3.557700 
# 
# 
# High freq. dielectric constant tensor:
#      x y z
#    x 1.784750 0.000000 0.000000 
#    y 0.000000 1.784760 0.000000 
#    z 0.000000 0.000000 1.785420 
# 
# From -- ./inp_files/12983.got.cif
#   From: 2010.03.12/outbox.cif.g09.slc.cpg/sg141_7_cif.got.tgz:12983.got - 2010.04.03 13:18:35.
