data_PCOD8320565
_publ_section_title
;
Structure prediction by ZEFSAII (Michael W. Deem and Ramdas Pophale) SiO2 
 PCOD8320565
Probable space group: I 41/A M D
;
_chemical_formula_sum "Si O2"
_cell_formula_units_Z 176
_cell_length_a 27.508946
_cell_length_b 27.508946
_cell_length_c 13.709192
_cell_angle_alpha 90.000000
_cell_angle_beta 90.000000
_cell_angle_gamma 90.000000
_cell_volume 10374.322881
_symmetry_space_group_name_H-M "I 41/A M D"
_symmetry_group_IT_number 141
_space_group.IT_coordinate_system_code '2'
_symmetry_cell_setting 'tetragonal'
loop_
_space_group_symop_operation_xyz
x,y,z
1/4-y,3/4+x,1/4+z
-x,1/2-y,z
1/4+y,1/4-x,3/4+z
x,-y,-z
-x,1/2+y,-z
1/4+y,3/4+x,1/4-z
1/4-y,1/4-x,3/4-z
-x,-y,-z
3/4+y,1/4-x,3/4-z
x,1/2+y,-z
3/4-y,3/4+x,1/4-z
-x,y,z
x,1/2-y,z
3/4-y,1/4-x,3/4+z
3/4+y,3/4+x,1/4+z
1/2+x,1/2+y,1/2+z
3/4-y,1/4+x,3/4+z
1/2-x,-y,1/2+z
3/4+y,3/4-x,1/4+z
1/2+x,1/2-y,1/2-z
1/2-x,y,1/2-z
3/4+y,1/4+x,3/4-z
3/4-y,3/4-x,1/4-z
1/2-x,1/2-y,1/2-z
1/4+y,3/4-x,1/4-z
1/2+x,y,1/2-z
1/4-y,1/4+x,3/4-z
1/2-x,1/2+y,1/2+z
1/2+x,-y,1/2+z
1/4-y,3/4-x,1/4+z
1/4+y,1/4+x,3/4+z
loop_
_atom_site_type_symbol
_atom_site_label
_atom_site_fract_x
_atom_site_fract_y
_atom_site_fract_z
Si Si1 0.054754 0.390939 0.088580
Si Si2 0.055269 0.860465 0.424949
Si Si3 0.556192 0.115166 0.626403
Si Si4 0.306467 0.807476 0.968633
Si Si5 0.103342 0.353342 0.375000
Si Si6 0.301117 0.805814 0.551262
O O1 0.084894 0.341489 0.100458
O O2 0.067631 0.432957 0.166784
O O3 0.000000 0.374062 0.105927
O O4 0.062422 0.411215 0.979124
O O5 0.067070 0.843950 0.534930
O O6 0.061956 0.918553 0.402476
O O7 0.000000 0.845131 0.401432
O O8 0.500000 0.126846 0.649378
O O9 0.583836 0.166165 0.625000
O O10 0.578858 0.080011 0.709351
O O11 0.314242 0.750000 0.942258
O O12 0.341747 0.842739 0.907574
O O13 0.253046 0.827713 0.940846
O O14 0.292556 0.750000 0.524671
#
# Coordination Sequence:
#
# PCOD8320565 Si02
#       6
#    32  32  32  32  16  32
#     4   9  18  30  46  69 102 133 160 196 233 283
#     4  10  19  32  48  69  98 130 165 200 237 285
#     4  10  18  29  46  71 103 135 165 195 233 285
#     4   9  18  33  49  70  98 125 157 200 249 292
#     4  10  20  32  48  67  94 122 162 200 244 292
#     4   9  18  31  49  71  97 125 157 200 245 289
#
# _framework density 16.964963000000001
#
# number of rings (size 3 to 8) (size 9 to 14) (size 15 to 20)
#    0.000    2.545    1.818    0.545    0.000    2.727 
#    0.000    8.182    0.000    3.545    0.000    0.000 
#   35.455    0.000    0.000    0.000    0.000    0.000 
#
# Total GULP energy -1090308.588740 kJ/mol
# GULP energy per Si atom -12389.870327 kJ/mol
# Density = 1.692635 g / cm^3
# Si number density = 16.964963 Si / 1000 Ang^3
#
#
#
# Elastic Constant Matrix: (Units=GPa)
#
#
# Indices 1 2 3 4 5 6 
#
# 1 70.5566 36.3564 21.7329 0.0000 0.0000 0.0000
# 2 36.3564 70.5550 21.7345 0.0000 0.0000 0.0000
# 3 21.7329 21.7345 83.6297 0.0000 0.0000 0.0000
# 4 0.0000 0.0000 0.0000 17.0807 0.0000 0.0000
# 5 0.0000 0.0000 0.0000 0.0000 17.0813 0.0000
# 6 0.0000 0.0000 0.0000 0.0000 0.0000 9.3562
#
#
#
# Elastic Compliance Matrix: (Units=1/GPa)
#
#
# Indices 1 2 3 4 5 6 
#
# 1 0.019849 -0.009391 -0.002718 0.000000 0.000000 0.000000
# 2 -0.009391 0.019850 -0.002718 0.000000 0.000000 0.000000
# 3 -0.002718 -0.002718 0.013370 0.000000 0.000000 0.000000
# 4 0.000000 0.000000 0.000000 0.058546 0.000000 0.000000
# 5 0.000000 0.000000 0.000000 0.000000 0.058544 0.000000
# 6 0.000000 0.000000 0.000000 0.000000 0.000000 0.106881
#
#
# Mechanical properties :
#
#
# Convention : Reuss Voigt Hill
#
# Bulk Modulus (GPa) = 42.70702 42.70987 42.70844
# Shear Modulus (GPa) = 15.89836 18.36480 17.13158
#
# Velocity S-wave (km/s) = 3.06458 3.29373 3.18122
# Velocity P-wave (km/s) = 6.14414 6.30038 6.22275
#
# Compressibility (1/GPa) = 0.02341535
#
# Stress axis : x y z
#
# Youngs Moduli (GPa) = 50.38032 50.37843 74.79339
#
# Poissons Ratio (x) = 0.47310 0.20326
# Poissons Ratio (y) = 0.47312 0.20331
# Poissons Ratio (z) = 0.13691 0.13695
#
# Static dielectric constant tensor:
#      x y z
#    x 3.056070 0.000000 0.000000 
#    y 0.000000 3.056070 0.000000 
#    z 0.000000 0.000000 3.462620 
# 
# 
# High freq. dielectric constant tensor:
#      x y z
#    x 1.625500 0.000000 0.000000 
#    y 0.000000 1.625500 0.000000 
#    z 0.000000 0.000000 1.672250 
# 
# From -- ./inp_files/6817.got.cif
#   From: 2010.03.12/outbox.cif.g09.slc.cpg/sg141_4_cif.got.tgz:6817.got - 2010.04.03 13:18:35.
