data_PCOD8320753
_publ_section_title
;
Structure prediction by ZEFSAII (Michael W. Deem and Ramdas Pophale) SiO2 
 PCOD8320753
Probable space group: I 41/A M D
;
_chemical_formula_sum "Si O2"
_cell_formula_units_Z 160
_cell_length_a 17.531236
_cell_length_b 17.531236
_cell_length_c 26.075123
_cell_angle_alpha 90.000000
_cell_angle_beta 90.000000
_cell_angle_gamma 90.000000
_cell_volume 8014.038749
_symmetry_space_group_name_H-M "I 41/A M D"
_symmetry_group_IT_number 141
_space_group.IT_coordinate_system_code '2'
_symmetry_cell_setting 'tetragonal'
loop_
_space_group_symop_operation_xyz
x,y,z
1/4-y,3/4+x,1/4+z
-x,1/2-y,z
1/4+y,1/4-x,3/4+z
x,-y,-z
-x,1/2+y,-z
1/4+y,3/4+x,1/4-z
1/4-y,1/4-x,3/4-z
-x,-y,-z
3/4+y,1/4-x,3/4-z
x,1/2+y,-z
3/4-y,3/4+x,1/4-z
-x,y,z
x,1/2-y,z
3/4-y,1/4-x,3/4+z
3/4+y,3/4+x,1/4+z
1/2+x,1/2+y,1/2+z
3/4-y,1/4+x,3/4+z
1/2-x,-y,1/2+z
3/4+y,3/4-x,1/4+z
1/2+x,1/2-y,1/2-z
1/2-x,y,1/2-z
3/4+y,1/4+x,3/4-z
3/4-y,3/4-x,1/4-z
1/2-x,1/2-y,1/2-z
1/4+y,3/4-x,1/4-z
1/2+x,y,1/2-z
1/4-y,1/4+x,3/4-z
1/2-x,1/2+y,1/2+z
1/2+x,-y,1/2+z
1/4-y,3/4-x,1/4+z
1/4+y,1/4+x,3/4+z
loop_
_atom_site_type_symbol
_atom_site_label
_atom_site_fract_x
_atom_site_fract_y
_atom_site_fract_z
Si Si1 0.682654 0.750000 0.069060
Si Si2 0.410472 0.598469 0.219353
Si Si3 0.182536 0.883533 0.572160
Si Si4 0.750000 0.044082 0.250000
Si Si5 0.293298 0.893594 0.428130
Si Si6 0.000000 0.341408 0.287272
Si Si7 0.000000 0.659864 0.916571
O O1 0.732339 0.674326 0.078911
O O2 0.612205 0.750000 0.107442
O O3 0.644114 0.750000 0.013298
O O4 0.500000 0.602543 0.217375
O O5 0.387512 0.520502 0.190046
O O6 0.384080 0.602728 0.278456
O O7 0.375187 0.673375 0.192339
O O8 0.179580 0.929580 0.625000
O O9 0.153263 0.935321 0.524602
O O10 0.118615 0.818975 0.572993
O O11 0.719736 0.994145 0.298218
O O12 0.336458 0.913543 0.375000
O O13 0.000000 0.250000 0.277204
O O14 0.000000 0.750000 0.921096
#
# Coordination Sequence:
#
# PCOD8320753 Si02
#       7
#    16  32  32  16  32  16  16
#     4  12  23  47  64  95 136 177 209 280 339 377
#     4  10  20  45  63  91 132 175 211 273 337 387
#     4  11  23  39  67  94 128 173 214 277 330 397
#     4  10  22  40  63  91 126 172 220 260 336 401
#     4  11  23  39  68  95 129 174 217 272 336 400
#     4  12  25  44  69  94 133 173 226 271 337 398
#     4  10  25  39  69  92 125 172 229 266 320 410
#
# _framework density 19.964964999999999
#
# number of rings (size 3 to 8) (size 9 to 14) (size 15 to 20)
#    0.000    1.200    6.000    0.900    9.800    0.800 
#    0.000    1.500    0.000    0.000    0.000    0.000 
#    0.000    0.000    0.000    0.000    0.000    0.000 
#
# Total GULP energy -991112.978491 kJ/mol
# GULP energy per Si atom -12388.912231 kJ/mol
# Density = 1.991952 g / cm^3
# Si number density = 19.964965 Si / 1000 Ang^3
#
#
#
# Elastic Constant Matrix: (Units=GPa)
#
#
# Indices 1 2 3 4 5 6 
#
# 1 98.5946 30.3022 35.9218 0.0000 0.0000 0.0000
# 2 30.3022 98.5949 35.9220 0.0000 0.0000 0.0000
# 3 35.9218 35.9220 131.3819 0.0000 0.0000 0.0000
# 4 0.0000 0.0000 0.0000 28.1647 0.0000 0.0000
# 5 0.0000 0.0000 0.0000 0.0000 28.1649 0.0000
# 6 0.0000 0.0000 0.0000 0.0000 0.0000 -1.2473
#
#
#
# Elastic Compliance Matrix: (Units=1/GPa)
#
#
# Indices 1 2 3 4 5 6 
#
# 1 0.011898 -0.002745 -0.002503 0.000000 0.000000 0.000000
# 2 -0.002745 0.011898 -0.002503 0.000000 0.000000 0.000000
# 3 -0.002503 -0.002503 0.008980 0.000000 0.000000 0.000000
# 4 0.000000 0.000000 0.000000 0.035505 0.000000 0.000000
# 5 0.000000 0.000000 0.000000 0.000000 0.035505 0.000000
# 6 0.000000 0.000000 0.000000 0.000000 0.000000 -0.801758
#
#
# Mechanical properties :
#
#
# Convention : Reuss Voigt Hill
#
# Bulk Modulus (GPa) = 57.88514 59.20705 58.54610
# Shear Modulus (GPa) = -7.38865 26.11150 9.36142
#
# Velocity S-wave (km/s) = -1.92584 3.62037 2.16774
# Velocity P-wave (km/s) = 4.91031 6.86993 5.97106
#
# Compressibility (1/GPa) = 0.01727559
#
# Stress axis : x y z
#
# Youngs Moduli (GPa) = 84.04807 84.04821 111.35996
#
# Poissons Ratio (x) = 0.23071 0.27869
# Poissons Ratio (y) = 0.23071 0.27869
# Poissons Ratio (z) = 0.21034 0.21034
#
# Static dielectric constant tensor:
#      x y z
#    x 3.833690 0.000000 0.000000 
#    y 0.000000 3.833690 0.000000 
#    z 0.000000 0.000000 3.689350 
# 
# 
# High freq. dielectric constant tensor:
#      x y z
#    x 1.777730 0.000000 0.000000 
#    y 0.000000 1.777730 0.000000 
#    z 0.000000 0.000000 1.791230 
# 
# From -- ./inp_files/12835.got.cif
#   From: 2010.03.12/outbox.cif.g09.slc.cpg/sg141_7_cif.got.tgz:12835.got - 2010.04.03 13:18:35.
