data_PCOD8320967
_publ_section_title
;
Structure prediction by ZEFSAII (Michael W. Deem and Ramdas Pophale) SiO2 
 PCOD8320967
Probable space group: I 41/A C D
;
_chemical_formula_sum "Si O2"
_cell_formula_units_Z 144
_cell_length_a 27.033467
_cell_length_b 27.033467
_cell_length_c 10.957241
_cell_angle_alpha 90.000000
_cell_angle_beta 90.000000
_cell_angle_gamma 90.000000
_cell_volume 8007.643085
_symmetry_space_group_name_H-M "I 41/A C D"
_symmetry_group_IT_number 142
_space_group.IT_coordinate_system_code '2'
_symmetry_cell_setting 'tetragonal'
loop_
_space_group_symop_operation_xyz
x,y,z
1/4-y,3/4+x,1/4+z
-x,1/2-y,z
1/4+y,1/4-x,3/4+z
x,-y,1/2-z
1/2-x,y,-z
3/4+y,1/4+x,1/4-z
1/4-y,1/4-x,1/4-z
-x,-y,-z
3/4+y,1/4-x,3/4-z
x,1/2+y,-z
3/4-y,3/4+x,1/4-z
-x,y,1/2+z
1/2+x,-y,z
1/4-y,3/4-x,3/4+z
3/4+y,3/4+x,3/4+z
1/2+x,1/2+y,1/2+z
3/4-y,1/4+x,3/4+z
1/2-x,-y,1/2+z
3/4+y,3/4-x,1/4+z
1/2+x,1/2-y,-z
-x,1/2+y,1/2-z
1/4+y,3/4+x,3/4-z
3/4-y,3/4-x,3/4-z
1/2-x,1/2-y,1/2-z
1/4+y,3/4-x,1/4-z
1/2+x,y,1/2-z
1/4-y,1/4+x,3/4-z
1/2-x,1/2+y,z
x,1/2-y,1/2+z
3/4-y,1/4-x,1/4+z
1/4+y,1/4+x,1/4+z
loop_
_atom_site_type_symbol
_atom_site_label
_atom_site_fract_x
_atom_site_fract_y
_atom_site_fract_z
Si Si1 0.550139 0.876011 0.278982
Si Si2 0.369513 0.119513 0.375000
Si Si3 0.958575 0.441570 0.050242
Si Si4 0.057614 0.629568 0.152687
Si Si5 0.431593 0.952678 0.990878
O O1 0.559028 0.901033 0.147802
O O2 0.583902 0.827707 0.297297
O O3 0.495347 0.854406 0.296208
O O4 0.564419 0.917040 0.376911
O O5 0.380092 0.156341 0.484030
O O6 0.314268 0.133403 0.323586
O O7 0.926234 0.491776 0.061456
O O8 0.947845 0.423532 0.912449
O O9 0.017550 0.450611 0.070636
#
# Coordination Sequence:
#
# PCOD8320967 Si02
#       5
#    32  16  32  32  32
#     4  10  19  34  50  74 106 143 182 225 268 332
#     4  10  18  36  46  77 108 138 168 230 272 340
#     4  10  18  33  50  79  98 142 180 225 271 334
#     4  10  21  32  52  71 109 144 181 225 269 322
#     4   9  19  30  54  73 107 134 173 228 286 313
#
# _framework density 17.98282
#
# number of rings (size 3 to 8) (size 9 to 14) (size 15 to 20)
#    0.000    2.222    2.222    1.333    0.000    1.333 
#    0.000    0.000    0.000    0.000    0.000    0.000 
#   86.667    0.000    0.000    0.000    0.000    0.000 
#
# Total GULP energy -892030.052037 kJ/mol
# GULP energy per Si atom -12389.306278 kJ/mol
# Density = 1.794189 g / cm^3
# Si number density = 17.982820 Si / 1000 Ang^3
#
#
#
# Elastic Constant Matrix: (Units=GPa)
#
#
# Indices 1 2 3 4 5 6 
#
# 1 70.5679 50.1686 27.7204 0.0000 0.0000 0.0000
# 2 50.1686 70.5679 27.7204 0.0000 0.0000 0.0000
# 3 27.7204 27.7204 76.2725 0.0000 0.0000 0.0000
# 4 0.0000 0.0000 0.0000 25.8926 0.0000 0.0000
# 5 0.0000 0.0000 0.0000 0.0000 25.8926 0.0000
# 6 0.0000 0.0000 0.0000 0.0000 0.0000 27.6161
#
#
#
# Elastic Compliance Matrix: (Units=1/GPa)
#
#
# Indices 1 2 3 4 5 6 
#
# 1 0.029481 -0.019540 -0.003613 0.000000 0.000000 0.000000
# 2 -0.019540 0.029481 -0.003613 0.000000 0.000000 0.000000
# 3 -0.003613 -0.003613 0.015737 0.000000 0.000000 0.000000
# 4 0.000000 0.000000 0.000000 0.038621 0.000000 0.000000
# 5 0.000000 0.000000 0.000000 0.000000 0.038621 0.000000
# 6 0.000000 0.000000 0.000000 0.000000 0.000000 0.036211
#
#
# Mechanical properties :
#
#
# Convention : Reuss Voigt Hill
#
# Bulk Modulus (GPa) = 47.24162 47.62525 47.43343
# Shear Modulus (GPa) = 20.10119 23.33351 21.71735
#
# Velocity S-wave (km/s) = 3.34698 3.60605 3.47893
# Velocity P-wave (km/s) = 6.42369 6.62415 6.52469
#
# Compressibility (1/GPa) = 0.02116777
#
# Stress axis : x y z
#
# Youngs Moduli (GPa) = 33.91960 33.91960 63.54359
#
# Poissons Ratio (x) = 0.66278 0.22959
# Poissons Ratio (y) = 0.66278 0.22959
# Poissons Ratio (z) = 0.12256 0.12256
#
# Static dielectric constant tensor:
#      x y z
#    x 3.394280 0.000000 0.000000 
#    y 0.000000 3.394280 0.000000 
#    z 0.000000 0.000000 3.418550 
# 
# 
# High freq. dielectric constant tensor:
#      x y z
#    x 1.674250 0.000000 0.000000 
#    y 0.000000 1.674250 0.000000 
#    z 0.000000 0.000000 1.710100 
# 
# From -- ./inp_files/3763.got.cif
#   From: 2010.03.12/outbox.cif.g09.slc.cpg/sg142_2_cif.got.tgz:3763.got - 2010.04.03 13:27:16.
