data_PCOD8320440
_publ_section_title
;
Structure prediction by ZEFSAII (Michael W. Deem and Ramdas Pophale) SiO2 
 PCOD8320440
Probable space group: I 4/M C M
;
_chemical_formula_sum "Si O2"
_cell_formula_units_Z 128
_cell_length_a 21.175888
_cell_length_b 21.175888
_cell_length_c 13.800465
_cell_angle_alpha 90.000000
_cell_angle_beta 90.000000
_cell_angle_gamma 90.000000
_cell_volume 6188.380124
_symmetry_space_group_name_H-M "I 4/M C M"
_symmetry_group_IT_number 140
_symmetry_cell_setting 'tetragonal'
loop_
_space_group_symop_operation_xyz
x,y,z
-y,x,z
-x,-y,z
y,-x,z
x,-y,1/2-z
-x,y,1/2-z
y,x,1/2-z
-y,-x,1/2-z
-x,-y,-z
y,-x,-z
x,y,-z
-y,x,-z
-x,y,1/2+z
x,-y,1/2+z
-y,-x,1/2+z
y,x,1/2+z
1/2+x,1/2+y,1/2+z
1/2-y,1/2+x,1/2+z
1/2-x,1/2-y,1/2+z
1/2+y,1/2-x,1/2+z
1/2+x,1/2-y,-z
1/2-x,1/2+y,-z
1/2+y,1/2+x,-z
1/2-y,1/2-x,-z
1/2-x,1/2-y,1/2-z
1/2+y,1/2-x,1/2-z
1/2+x,1/2+y,1/2-z
1/2-y,1/2+x,1/2-z
1/2-x,1/2+y,z
1/2+x,1/2-y,z
1/2-y,1/2-x,z
1/2+y,1/2+x,z
loop_
_atom_site_type_symbol
_atom_site_label
_atom_site_fract_x
_atom_site_fract_y
_atom_site_fract_z
Si Si1 0.272903 0.126414 0.757910
Si Si2 0.076682 0.938530 0.614476
Si Si3 0.552819 0.052819 0.112933
Si Si4 0.329457 0.666602 0.385802
Si Si5 0.500000 0.159438 0.250000
O O1 0.336995 0.163006 0.735568
O O2 0.237619 0.160833 0.847550
O O3 0.229915 0.130949 0.661621
O O4 0.293477 0.055409 0.785454
O O5 0.075114 0.939096 0.500000
O O6 0.131421 0.892732 0.650617
O O7 0.009464 0.912268 0.653637
O O8 0.526242 0.116599 0.162100
O O9 0.500000 0.000000 0.126043
O O10 0.566812 0.066812 0.000000
O O11 0.318884 0.666595 0.500000
#
# Coordination Sequence:
#
# PCOD8320440 Si02
#       5
#    32  32  16  32  16
#     4  11  25  42  63  90 125 171 210 264 333 379
#     4   8  15  30  53  83 119 155 195 251 311 364
#     4  11  22  42  74 103 132 176 214 264 347 404
#     4  10  22  40  64  91 125 165 217 266 315 393
#     4  12  23  46  66  96 143 168 222 288 320 398
#
# _framework density 20.683927000000001
#
# number of rings (size 3 to 8) (size 9 to 14) (size 15 to 20)
#    0.000    1.875    2.500    2.250    3.500    4.000 
#    0.000    0.000    0.000    6.000    0.000    0.000 
#    0.000    0.000    0.000    0.000    0.000    0.000 
#
# Total GULP energy -793336.095613 kJ/mol
# GULP energy per Si atom -12395.876494 kJ/mol
# Density = 2.063685 g / cm^3
# Si number density = 20.683927 Si / 1000 Ang^3
#
#
#
# Elastic Constant Matrix: (Units=GPa)
#
#
# Indices 1 2 3 4 5 6 
#
# 1 94.4783 34.3651 21.4235 0.0000 0.0000 0.0000
# 2 34.3651 94.4783 21.4235 0.0000 0.0000 0.0000
# 3 21.4235 21.4235 122.8890 0.0000 0.0000 0.0000
# 4 0.0000 0.0000 0.0000 -31.7966 0.0000 0.0000
# 5 0.0000 0.0000 0.0000 0.0000 -31.7966 0.0000
# 6 0.0000 0.0000 0.0000 0.0000 0.0000 53.9925
#
#
#
# Elastic Compliance Matrix: (Units=1/GPa)
#
#
# Indices 1 2 3 4 5 6 
#
# 1 0.012437 -0.004198 -0.001436 0.000000 0.000000 0.000000
# 2 -0.004198 0.012437 -0.001436 0.000000 0.000000 0.000000
# 3 -0.001436 -0.001436 0.008638 0.000000 0.000000 0.000000
# 4 0.000000 0.000000 0.000000 -0.031450 0.000000 0.000000
# 5 0.000000 0.000000 0.000000 0.000000 -0.031450 0.000000
# 6 0.000000 0.000000 0.000000 0.000000 0.000000 0.018521
#
#
# Mechanical properties :
#
#
# Convention : Reuss Voigt Hill
#
# Bulk Modulus (GPa) = 51.62372 51.80777 51.71575
# Shear Modulus (GPa) = 513.74865 13.72209 263.73537
#
# Velocity S-wave (km/s) = 15.77719 2.57848 11.30417
# Velocity P-wave (km/s) = 18.89195 5.82808 13.97985
#
# Compressibility (1/GPa) = 0.01937094
#
# Stress axis : x y z
#
# Youngs Moduli (GPa) = 80.40436 80.40436 115.76458
#
# Poissons Ratio (x) = 0.33755 0.16628
# Poissons Ratio (y) = 0.33755 0.16628
# Poissons Ratio (z) = 0.11549 0.11549
#
# Static dielectric constant tensor:
#      x y z
#    x 3.979470 0.000000 0.000000 
#    y 0.000000 3.979470 0.000000 
#    z 0.000000 0.000000 3.585280 
# 
# 
# High freq. dielectric constant tensor:
#      x y z
#    x 1.814660 0.000000 0.000000 
#    y 0.000000 1.814660 0.000000 
#    z 0.000000 0.000000 1.806060 
# 
# From -- ./inp_files/4380.got.cif
#   From: 2010.06.25/outbox.cif.g09.slc.cpg/sg140_3_cif.got.tgz:4380.got - 2010.06.28 10:53:23.
