data_PCOD8320842
_publ_section_title
;
Structure prediction by ZEFSAII (Michael W. Deem and Ramdas Pophale) SiO2 
 PCOD8320842
Probable space group: I 41/A M D
;
_chemical_formula_sum "Si O2"
_cell_formula_units_Z 112
_cell_length_a 13.960497
_cell_length_b 13.960497
_cell_length_c 23.411207
_cell_angle_alpha 90.000000
_cell_angle_beta 90.000000
_cell_angle_gamma 90.000000
_cell_volume 4562.738343
_symmetry_space_group_name_H-M "I 41/A M D"
_symmetry_group_IT_number 141
_space_group.IT_coordinate_system_code '2'
_symmetry_cell_setting 'tetragonal'
loop_
_space_group_symop_operation_xyz
x,y,z
1/4-y,3/4+x,1/4+z
-x,1/2-y,z
1/4+y,1/4-x,3/4+z
x,-y,-z
-x,1/2+y,-z
1/4+y,3/4+x,1/4-z
1/4-y,1/4-x,3/4-z
-x,-y,-z
3/4+y,1/4-x,3/4-z
x,1/2+y,-z
3/4-y,3/4+x,1/4-z
-x,y,z
x,1/2-y,z
3/4-y,1/4-x,3/4+z
3/4+y,3/4+x,1/4+z
1/2+x,1/2+y,1/2+z
3/4-y,1/4+x,3/4+z
1/2-x,-y,1/2+z
3/4+y,3/4-x,1/4+z
1/2+x,1/2-y,1/2-z
1/2-x,y,1/2-z
3/4+y,1/4+x,3/4-z
3/4-y,3/4-x,1/4-z
1/2-x,1/2-y,1/2-z
1/4+y,3/4-x,1/4-z
1/2+x,y,1/2-z
1/4-y,1/4+x,3/4-z
1/2-x,1/2+y,1/2+z
1/2+x,-y,1/2+z
1/4-y,3/4-x,1/4+z
1/4+y,1/4+x,3/4+z
loop_
_atom_site_type_symbol
_atom_site_label
_atom_site_fract_x
_atom_site_fract_y
_atom_site_fract_z
Si Si1 0.607113 0.136276 0.060502
Si Si2 0.284560 0.534560 0.375000
Si Si3 0.891770 0.643667 0.903564
Si Si4 0.216569 0.357105 0.985157
O O1 0.500000 0.096346 0.046336
O O2 0.605043 0.250000 0.056972
O O3 0.640805 0.109196 0.125000
O O4 0.687976 0.097739 0.016192
O O5 0.172967 0.564731 0.378592
O O6 0.325407 0.578729 0.433681
O O7 0.878690 0.750000 0.877544
O O8 0.000000 0.607145 0.893460
O O9 0.870716 0.645538 0.970727
O O10 0.240342 0.250000 0.962969
#
# Coordination Sequence:
#
# PCOD8320842 Si02
#       4
#    32  16  32  32
#     4   8  15  31  59  96 138 181 224 275 340 419
#     4  12  24  40  68 102 134 178 238 298 352 424
#     4  10  24  47  70  94 134 184 230 285 352 418
#     4  10  22  39  62  97 137 179 233 293 354 419
#
# _framework density 24.546664
#
# number of rings (size 3 to 8) (size 9 to 14) (size 15 to 20)
#    0.000    2.286    0.000    2.571    2.000    4.571 
#    0.000    2.857    0.000    7.714    0.000    0.000 
#    0.000    0.000    0.000    0.000    0.000    0.000 
#
# Total GULP energy -693925.508775 kJ/mol
# GULP energy per Si atom -12391.526942 kJ/mol
# Density = 2.449080 g / cm^3
# Si number density = 24.546664 Si / 1000 Ang^3
#
#
#
# Elastic Constant Matrix: (Units=GPa)
#
#
# Indices 1 2 3 4 5 6 
#
# 1 115.6659 72.0136 24.5560 0.0000 0.0000 0.0000
# 2 72.0136 115.6659 24.5564 0.0000 0.0000 0.0000
# 3 24.5560 24.5564 87.3819 0.0000 0.0000 0.0000
# 4 0.0000 0.0000 0.0000 26.1423 0.0000 0.0000
# 5 0.0000 0.0000 0.0000 0.0000 26.1425 0.0000
# 6 0.0000 0.0000 0.0000 0.0000 0.0000 32.9477
#
#
#
# Elastic Compliance Matrix: (Units=1/GPa)
#
#
# Indices 1 2 3 4 5 6 
#
# 1 0.014330 -0.008579 -0.001616 0.000000 0.000000 0.000000
# 2 -0.008579 0.014330 -0.001616 0.000000 0.000000 0.000000
# 3 -0.001616 -0.001616 0.012352 0.000000 0.000000 0.000000
# 4 0.000000 0.000000 0.000000 0.038252 0.000000 0.000000
# 5 0.000000 0.000000 0.000000 0.000000 0.038252 0.000000
# 6 0.000000 0.000000 0.000000 0.000000 0.000000 0.030351
#
#
# Mechanical properties :
#
#
# Convention : Reuss Voigt Hill
#
# Bulk Modulus (GPa) = 57.50460 62.32953 59.91706
# Shear Modulus (GPa) = 28.20308 30.21903 29.21105
#
# Velocity S-wave (km/s) = 3.39331 3.51249 3.45341
# Velocity P-wave (km/s) = 6.23139 6.47283 6.35325
#
# Compressibility (1/GPa) = 0.01738991
#
# Stress axis : x y z
#
# Youngs Moduli (GPa) = 69.78497 69.78487 80.95601
#
# Poissons Ratio (x) = 0.59866 0.13084
# Poissons Ratio (y) = 0.59866 0.13085
# Poissons Ratio (z) = 0.11278 0.11279
#
# Static dielectric constant tensor:
#      x y z
#    x 4.475290 0.000000 0.000000 
#    y 0.000000 4.475290 0.000000 
#    z 0.000000 0.000000 4.319210 
# 
# 
# High freq. dielectric constant tensor:
#      x y z
#    x 1.972060 0.000000 0.000000 
#    y 0.000000 1.972060 0.000000 
#    z 0.000000 0.000000 1.961090 
# 
# From -- ./inp_files/11134.got.cif
#   From: 2010.03.12/outbox.cif.g09.slc.cpg/sg141_6_cif.got.tgz:11134.got - 2010.04.03 13:18:35.
