data_PCOD8320515
_publ_section_title
;
Structure prediction by ZEFSAII (Michael W. Deem and Ramdas Pophale) SiO2 
 PCOD8320515
Probable space group: I 4/M C M
;
_chemical_formula_sum "Si O2"
_cell_formula_units_Z 160
_cell_length_a 19.649860
_cell_length_b 19.649860
_cell_length_c 19.025880
_cell_angle_alpha 90.000000
_cell_angle_beta 90.000000
_cell_angle_gamma 90.000000
_cell_volume 7346.215670
_symmetry_space_group_name_H-M "I 4/M C M"
_symmetry_group_IT_number 140
_symmetry_cell_setting 'tetragonal'
loop_
_space_group_symop_operation_xyz
x,y,z
-y,x,z
-x,-y,z
y,-x,z
x,-y,1/2-z
-x,y,1/2-z
y,x,1/2-z
-y,-x,1/2-z
-x,-y,-z
y,-x,-z
x,y,-z
-y,x,-z
-x,y,1/2+z
x,-y,1/2+z
-y,-x,1/2+z
y,x,1/2+z
1/2+x,1/2+y,1/2+z
1/2-y,1/2+x,1/2+z
1/2-x,1/2-y,1/2+z
1/2+y,1/2-x,1/2+z
1/2+x,1/2-y,-z
1/2-x,1/2+y,-z
1/2+y,1/2+x,-z
1/2-y,1/2-x,-z
1/2-x,1/2-y,1/2-z
1/2+y,1/2-x,1/2-z
1/2+x,1/2+y,1/2-z
1/2-y,1/2+x,1/2-z
1/2-x,1/2+y,z
1/2+x,1/2-y,z
1/2-y,1/2-x,z
1/2+y,1/2+x,z
loop_
_atom_site_type_symbol
_atom_site_label
_atom_site_fract_x
_atom_site_fract_y
_atom_site_fract_z
Si Si1 0.503432 0.388916 0.331534
Si Si2 0.654151 0.734561 0.797817
Si Si3 0.519238 0.742979 0.583943
Si Si4 0.839306 0.547568 0.687273
Si Si5 0.717015 0.328145 0.422726
O O1 0.569140 0.435232 0.348718
O O2 0.500000 0.366722 0.250000
O O3 0.514817 0.323552 0.381113
O O4 0.667468 0.667468 0.750000
O O5 0.710710 0.789291 0.778435
O O6 0.582548 0.770273 0.782975
O O7 0.658881 0.709592 0.878028
O O8 0.507095 0.744735 0.500000
O O9 0.492090 0.814468 0.617242
O O10 0.598130 0.737730 0.605110
O O11 0.867331 0.500000 0.750000
O O12 0.897907 0.602094 0.666404
O O13 0.685205 0.332070 0.500000
O O14 0.786708 0.286708 0.420290
#
# Coordination Sequence:
#
# PCOD8320515 Si02
#       5
#    32  32  32  32  32
#     4   9  20  40  63  88 126 178 230 274 319 387
#     4   9  18  34  59  87 114 148 195 256 319 378
#     4  11  24  39  61  95 132 172 215 268 330 396
#     4  11  25  44  65  92 125 165 218 276 332 395
#     4   9  19  37  60  87 123 164 201 246 312 384
#
# _framework density 21.779923
#
# number of rings (size 3 to 8) (size 9 to 14) (size 15 to 20)
#    0.000    2.200    0.000    2.400    2.800    4.600 
#    0.000    3.000    0.000    0.000    0.000    4.200 
#    0.000    0.000    0.000    0.000    0.000    0.000 
#
# Total GULP energy -991493.114852 kJ/mol
# GULP energy per Si atom -12393.663936 kJ/mol
# Density = 2.173035 g / cm^3
# Si number density = 21.779923 Si / 1000 Ang^3
#
#
#
# Elastic Constant Matrix: (Units=GPa)
#
#
# Indices 1 2 3 4 5 6 
#
# 1 77.7380 21.6678 18.5747 0.0000 0.0000 0.0000
# 2 21.6678 77.7380 18.5747 0.0000 0.0000 0.0000
# 3 18.5747 18.5747 68.5668 0.0000 0.0000 0.0000
# 4 0.0000 0.0000 0.0000 27.6210 0.0000 0.0000
# 5 0.0000 0.0000 0.0000 0.0000 27.6210 0.0000
# 6 0.0000 0.0000 0.0000 0.0000 0.0000 35.0665
#
#
#
# Elastic Compliance Matrix: (Units=1/GPa)
#
#
# Indices 1 2 3 4 5 6 
#
# 1 0.014514 -0.003321 -0.003032 0.000000 0.000000 0.000000
# 2 -0.003321 0.014514 -0.003032 0.000000 0.000000 0.000000
# 3 -0.003032 -0.003032 0.016227 0.000000 0.000000 0.000000
# 4 0.000000 0.000000 0.000000 0.036204 0.000000 0.000000
# 5 0.000000 0.000000 0.000000 0.000000 0.036204 0.000000
# 6 0.000000 0.000000 0.000000 0.000000 0.000000 0.028517
#
#
# Mechanical properties :
#
#
# Convention : Reuss Voigt Hill
#
# Bulk Modulus (GPa) = 37.75808 37.96410 37.86109
# Shear Modulus (GPa) = 28.77213 29.07676 28.92445
#
# Velocity S-wave (km/s) = 3.63855 3.65776 3.64817
# Velocity P-wave (km/s) = 5.91827 5.94202 5.93016
#
# Compressibility (1/GPa) = 0.02648440
#
# Stress axis : x y z
#
# Youngs Moduli (GPa) = 68.89964 68.89964 61.62521
#
# Poissons Ratio (x) = 0.22881 0.18686
# Poissons Ratio (y) = 0.22881 0.18686
# Poissons Ratio (z) = 0.20891 0.20891
#
# Static dielectric constant tensor:
#      x y z
#    x 3.959270 0.000000 0.000000 
#    y 0.000000 3.959270 0.000000 
#    z 0.000000 0.000000 3.979650 
# 
# 
# High freq. dielectric constant tensor:
#      x y z
#    x 1.856180 0.000000 0.000000 
#    y 0.000000 1.856180 0.000000 
#    z 0.000000 0.000000 1.848660 
# 
# From -- ./inp_files/6777.got.cif
#   From: 2010.06.25/outbox.cif.g09.slc.cpg/sg140_4_cif.got.tgz:6777.got - 2010.06.28 10:53:23.
