data_PCOD8320499
_publ_section_title
;
Structure prediction by ZEFSAII (Michael W. Deem and Ramdas Pophale) SiO2 
 PCOD8320499
Probable space group: I 4/M C M
;
_chemical_formula_sum "Si O2"
_cell_formula_units_Z 112
_cell_length_a 14.994602
_cell_length_b 14.994602
_cell_length_c 24.128556
_cell_angle_alpha 90.000000
_cell_angle_beta 90.000000
_cell_angle_gamma 90.000000
_cell_volume 5425.018425
_symmetry_space_group_name_H-M "I 4/M C M"
_symmetry_group_IT_number 140
_symmetry_cell_setting 'tetragonal'
loop_
_space_group_symop_operation_xyz
x,y,z
-y,x,z
-x,-y,z
y,-x,z
x,-y,1/2-z
-x,y,1/2-z
y,x,1/2-z
-y,-x,1/2-z
-x,-y,-z
y,-x,-z
x,y,-z
-y,x,-z
-x,y,1/2+z
x,-y,1/2+z
-y,-x,1/2+z
y,x,1/2+z
1/2+x,1/2+y,1/2+z
1/2-y,1/2+x,1/2+z
1/2-x,1/2-y,1/2+z
1/2+y,1/2-x,1/2+z
1/2+x,1/2-y,-z
1/2-x,1/2+y,-z
1/2+y,1/2+x,-z
1/2-y,1/2-x,-z
1/2-x,1/2-y,1/2-z
1/2+y,1/2-x,1/2-z
1/2+x,1/2+y,1/2-z
1/2-y,1/2+x,1/2-z
1/2-x,1/2+y,z
1/2+x,1/2-y,z
1/2-y,1/2-x,z
1/2+y,1/2+x,z
loop_
_atom_site_type_symbol
_atom_site_label
_atom_site_fract_x
_atom_site_fract_y
_atom_site_fract_z
Si Si1 0.504703 0.143901 0.189695
Si Si2 0.747727 0.605487 0.606383
Si Si3 0.399609 0.394291 0.812405
Si Si4 0.046505 0.141331 0.500000
O O1 0.500000 0.194243 0.250000
O O2 0.436146 0.063855 0.194935
O O3 0.476715 0.208473 0.139989
O O4 0.603292 0.103292 0.177432
O O5 0.819922 0.680079 0.589823
O O6 0.671876 0.651342 0.645500
O O7 0.702888 0.564486 0.552552
O O8 0.503897 0.376944 0.824379
O O9 0.371098 0.371098 0.750000
O O10 0.943869 0.111201 0.500000
#
# Coordination Sequence:
#
# PCOD8320499 Si02
#       4
#    32  32  32  16
#     4   8  16  33  56  85 126 171 200 224 285 373
#     4  11  22  37  62  94 124 149 195 263 310 348
#     4   9  19  36  57  81 117 164 206 238 282 356
#     4  11  25  48  70  79 105 163 214 245 298 375
#
# _framework density 20.645092000000002
#
# number of rings (size 3 to 8) (size 9 to 14) (size 15 to 20)
#    0.000    2.429    0.000    3.857    4.000    2.857 
#    0.000    7.857    0.000    3.429    0.000    0.000 
#    0.000    0.000    0.000    0.000    0.000    0.000 
#
# Total GULP energy -694006.309168 kJ/mol
# GULP energy per Si atom -12392.969807 kJ/mol
# Density = 2.059810 g / cm^3
# Si number density = 20.645092 Si / 1000 Ang^3
#
#
#
# Elastic Constant Matrix: (Units=GPa)
#
#
# Indices 1 2 3 4 5 6 
#
# 1 100.7238 40.4368 70.4411 0.0000 0.0000 0.0000
# 2 40.4368 100.7238 70.4411 0.0000 0.0000 0.0000
# 3 70.4411 70.4411 175.8456 0.0000 0.0000 0.0000
# 4 0.0000 0.0000 0.0000 32.9116 0.0000 0.0000
# 5 0.0000 0.0000 0.0000 0.0000 32.9116 0.0000
# 6 0.0000 0.0000 0.0000 0.0000 0.0000 9.7268
#
#
#
# Elastic Compliance Matrix: (Units=1/GPa)
#
#
# Indices 1 2 3 4 5 6 
#
# 1 0.014195 -0.002392 -0.004728 0.000000 0.000000 0.000000
# 2 -0.002392 0.014195 -0.004728 0.000000 0.000000 0.000000
# 3 -0.004728 -0.004728 0.009475 0.000000 0.000000 0.000000
# 4 0.000000 0.000000 0.000000 0.030384 0.000000 0.000000
# 5 0.000000 0.000000 0.000000 0.000000 0.030384 0.000000
# 6 0.000000 0.000000 0.000000 0.000000 0.000000 0.102809
#
#
# Mechanical properties :
#
#
# Convention : Reuss Voigt Hill
#
# Bulk Modulus (GPa) = 70.58012 82.21459 76.39736
# Shear Modulus (GPa) = 21.75218 28.17495 24.96356
#
# Velocity S-wave (km/s) = 3.24948 3.69823 3.48109
# Velocity P-wave (km/s) = 6.95273 7.62530 7.29677
#
# Compressibility (1/GPa) = 0.01416830
#
# Stress axis : x y z
#
# Youngs Moduli (GPa) = 70.44696 70.44696 105.54340
#
# Poissons Ratio (x) = 0.16852 0.49901
# Poissons Ratio (y) = 0.16852 0.49901
# Poissons Ratio (z) = 0.33308 0.33308
#
# Static dielectric constant tensor:
#      x y z
#    x 3.844640 0.000000 0.000000 
#    y 0.000000 3.844640 0.000000 
#    z 0.000000 0.000000 3.856730 
# 
# 
# High freq. dielectric constant tensor:
#      x y z
#    x 1.803290 0.000000 0.000000 
#    y 0.000000 1.803290 0.000000 
#    z 0.000000 0.000000 1.804060 
# 
# From -- ./inp_files/9077.got.cif
#   From: 2010.06.25/outbox.cif.g09.slc.cpg/sg140_5_cif.got.tgz:9077.got - 2010.06.28 10:53:23.
