data_PCOD8320357
_publ_section_title
;
Structure prediction by ZEFSAII (Michael W. Deem and Ramdas Pophale) SiO2 
 PCOD8320357
Probable space group: I 4/M C M
;
_chemical_formula_sum "Si O2"
_cell_formula_units_Z 192
_cell_length_a 18.992102
_cell_length_b 18.992102
_cell_length_c 28.107708
_cell_angle_alpha 90.000000
_cell_angle_beta 90.000000
_cell_angle_gamma 90.000000
_cell_volume 10138.448544
_symmetry_space_group_name_H-M "I 4/M C M"
_symmetry_group_IT_number 140
_symmetry_cell_setting 'tetragonal'
loop_
_space_group_symop_operation_xyz
x,y,z
-y,x,z
-x,-y,z
y,-x,z
x,-y,1/2-z
-x,y,1/2-z
y,x,1/2-z
-y,-x,1/2-z
-x,-y,-z
y,-x,-z
x,y,-z
-y,x,-z
-x,y,1/2+z
x,-y,1/2+z
-y,-x,1/2+z
y,x,1/2+z
1/2+x,1/2+y,1/2+z
1/2-y,1/2+x,1/2+z
1/2-x,1/2-y,1/2+z
1/2+y,1/2-x,1/2+z
1/2+x,1/2-y,-z
1/2-x,1/2+y,-z
1/2+y,1/2+x,-z
1/2-y,1/2-x,-z
1/2-x,1/2-y,1/2-z
1/2+y,1/2-x,1/2-z
1/2+x,1/2+y,1/2-z
1/2-y,1/2+x,1/2-z
1/2-x,1/2+y,z
1/2+x,1/2-y,z
1/2-y,1/2-x,z
1/2+y,1/2+x,z
loop_
_atom_site_type_symbol
_atom_site_label
_atom_site_fract_x
_atom_site_fract_y
_atom_site_fract_z
Si Si1 0.443974 0.670505 0.847479
Si Si2 0.997579 0.616414 0.000000
Si Si3 0.661127 0.420274 0.901475
Si Si4 0.830518 0.443749 0.341556
Si Si5 0.322368 0.937434 0.588721
Si Si6 0.570394 0.592225 0.000000
Si Si7 0.608957 0.000000 0.250000
Si Si8 0.500000 0.616421 0.250000
O O1 0.497958 0.648130 0.889115
O O2 0.374323 0.624525 0.858180
O O3 0.419436 0.751082 0.851643
O O4 0.486118 0.662154 0.797378
O O5 0.008795 0.668408 0.955407
O O6 0.919552 0.580449 0.000000
O O7 0.054394 0.554394 0.000000
O O8 0.744336 0.407047 0.903960
O O9 0.629587 0.400001 0.952707
O O10 0.882596 0.382596 0.360027
O O11 0.847601 0.517766 0.366333
O O12 0.841292 0.458689 0.286170
O O13 0.369557 0.869557 0.581514
O O14 0.486698 0.597720 0.000000
O O15 0.558245 0.941755 0.224818
O O16 0.430672 0.569329 0.250000
#
# Coordination Sequence:
#
# PCOD8320357 Si02
#       8
#    32  16  32  32  32  16  16  16
#     4  11  22  37  56  82 118 150 189 239 290 345
#     4   9  17  32  56  82 109 142 186 240 286 331
#     4  11  22  37  56  83 116 149 192 238 287 348
#     4  10  21  36  57  83 114 152 192 237 289 346
#     4  10  21  36  57  84 115 152 193 239 289 344
#     4  11  21  34  59  84 107 144 186 233 286 340
#     4   9  17  32  56  82 109 143 190 246 291 337
#     4  11  21  34  60  86 109 147 188 238 288 340
#
# _framework density 18.937808
#
# number of rings (size 3 to 8) (size 9 to 14) (size 15 to 20)
#    0.000    1.667    3.333    2.000    0.000    2.667 
#    0.000    0.000    0.000    0.500    0.000    0.000 
#    0.000    0.000    0.000    0.000    0.000    0.000 
#
# Total GULP energy -1189802.905805 kJ/mol
# GULP energy per Si atom -12393.780269 kJ/mol
# Density = 1.889470 g / cm^3
# Si number density = 18.937808 Si / 1000 Ang^3
#
#
#
# Elastic Constant Matrix: (Units=GPa)
#
#
# Indices 1 2 3 4 5 6 
#
# 1 85.5178 54.0421 31.7651 0.0000 0.0000 0.0000
# 2 54.0421 85.5176 31.7653 0.0000 0.0000 0.0000
# 3 31.7651 31.7653 91.5082 0.0000 0.0000 0.0000
# 4 0.0000 0.0000 0.0000 26.3283 0.0000 0.0000
# 5 0.0000 0.0000 0.0000 0.0000 26.3284 0.0000
# 6 0.0000 0.0000 0.0000 0.0000 0.0000 24.2838
#
#
#
# Elastic Compliance Matrix: (Units=1/GPa)
#
#
# Indices 1 2 3 4 5 6 
#
# 1 0.020140 -0.011630 -0.002954 0.000000 0.000000 0.000000
# 2 -0.011630 0.020140 -0.002954 0.000000 0.000000 0.000000
# 3 -0.002954 -0.002954 0.012979 0.000000 0.000000 0.000000
# 4 0.000000 0.000000 0.000000 0.037982 0.000000 0.000000
# 5 0.000000 0.000000 0.000000 0.000000 0.037982 0.000000
# 6 0.000000 0.000000 0.000000 0.000000 0.000000 0.041180
#
#
# Mechanical properties :
#
#
# Convention : Reuss Voigt Hill
#
# Bulk Modulus (GPa) = 54.99724 55.29872 55.14798
# Shear Modulus (GPa) = 23.63607 25.05285 24.34446
#
# Velocity S-wave (km/s) = 3.53666 3.64112 3.58927
# Velocity P-wave (km/s) = 6.76619 6.85132 6.80889
#
# Compressibility (1/GPa) = 0.01818273
#
# Stress axis : x y z
#
# Youngs Moduli (GPa) = 49.65156 49.65131 77.04808
#
# Poissons Ratio (x) = 0.57746 0.22761
# Poissons Ratio (y) = 0.57746 0.22761
# Poissons Ratio (z) = 0.14667 0.14668
#
# Static dielectric constant tensor:
#      x y z
#    x 3.315210 0.000000 0.000000 
#    y 0.000000 3.315210 0.000000 
#    z 0.000000 0.000000 3.566060 
# 
# 
# High freq. dielectric constant tensor:
#      x y z
#    x 1.725710 0.000000 0.000000 
#    y 0.000000 1.725710 0.000000 
#    z 0.000000 0.000000 1.742880 
# 
# From -- ./inp_files/11666.got.cif
#   From: 2010.06.25/outbox.cif.g09.slc.cpg/sg140_6_cif.got.tgz:11666.got - 2010.06.28 10:53:23.
