data_PCOD8320727
_publ_section_title
;
Structure prediction by ZEFSAII (Michael W. Deem and Ramdas Pophale) SiO2 
 PCOD8320727
Probable space group: I 41/A M D
;
_chemical_formula_sum "Si O2"
_cell_formula_units_Z 160
_cell_length_a 18.138509
_cell_length_b 18.138509
_cell_length_c 25.363935
_cell_angle_alpha 90.000000
_cell_angle_beta 90.000000
_cell_angle_gamma 90.000000
_cell_volume 8344.874338
_symmetry_space_group_name_H-M "I 41/A M D"
_symmetry_group_IT_number 141
_space_group.IT_coordinate_system_code '2'
_symmetry_cell_setting 'tetragonal'
loop_
_space_group_symop_operation_xyz
x,y,z
1/4-y,3/4+x,1/4+z
-x,1/2-y,z
1/4+y,1/4-x,3/4+z
x,-y,-z
-x,1/2+y,-z
1/4+y,3/4+x,1/4-z
1/4-y,1/4-x,3/4-z
-x,-y,-z
3/4+y,1/4-x,3/4-z
x,1/2+y,-z
3/4-y,3/4+x,1/4-z
-x,y,z
x,1/2-y,z
3/4-y,1/4-x,3/4+z
3/4+y,3/4+x,1/4+z
1/2+x,1/2+y,1/2+z
3/4-y,1/4+x,3/4+z
1/2-x,-y,1/2+z
3/4+y,3/4-x,1/4+z
1/2+x,1/2-y,1/2-z
1/2-x,y,1/2-z
3/4+y,1/4+x,3/4-z
3/4-y,3/4-x,1/4-z
1/2-x,1/2-y,1/2-z
1/4+y,3/4-x,1/4-z
1/2+x,y,1/2-z
1/4-y,1/4+x,3/4-z
1/2-x,1/2+y,1/2+z
1/2+x,-y,1/2+z
1/4-y,3/4-x,1/4+z
1/4+y,1/4+x,3/4+z
loop_
_atom_site_type_symbol
_atom_site_label
_atom_site_fract_x
_atom_site_fract_y
_atom_site_fract_z
Si Si1 0.587221 0.944639 0.841984
Si Si2 0.170164 0.541746 0.764900
Si Si3 0.000000 0.833286 0.917945
Si Si4 0.148104 0.049053 0.930360
Si Si5 0.830120 0.750000 0.227071
Si Si6 0.147240 0.397504 0.629292
O O1 0.500000 0.926490 0.846721
O O2 0.634776 0.884776 0.875000
O O3 0.611467 0.940447 0.780797
O O4 0.601540 0.027091 0.863366
O O5 0.250000 0.575674 0.750000
O O6 0.179007 0.453734 0.772924
O O7 0.142890 0.575208 0.819541
O O8 0.926421 0.850629 0.885353
O O9 0.000000 0.750000 0.930701
O O10 0.000000 0.863927 0.976133
O O11 0.174016 0.075985 0.875000
O O12 0.071387 0.089249 0.940895
O O13 0.143848 0.960518 0.924242
O O14 0.750000 0.750000 0.250000
#
# Coordination Sequence:
#
# PCOD8320727 Si02
#       6
#    32  32  16  32  16  32
#     4  12  25  43  66  94 126 166 211 263 321 381
#     4  11  20  39  69  93 119 154 214 263 309 374
#     4  12  26  40  60  94 134 168 210 263 319 376
#     4  10  20  36  62  95 124 162 214 263 304 369
#     4  12  20  38  64  86 128 178 210 246 317 375
#     4  11  21  40  65  94 128 164 206 265 317 375
#
# _framework density 19.173446999999999
#
# number of rings (size 3 to 8) (size 9 to 14) (size 15 to 20)
#    0.000    0.800    6.000    3.000    1.400    0.200 
#    3.600    3.000    0.000    0.000    0.000    0.000 
#    0.000    0.000    0.000    0.000    0.000    0.000 
#
# Total GULP energy -991649.289898 kJ/mol
# GULP energy per Si atom -12395.616124 kJ/mol
# Density = 1.912981 g / cm^3
# Si number density = 19.173447 Si / 1000 Ang^3
#
#
#
# Elastic Constant Matrix: (Units=GPa)
#
#
# Indices 1 2 3 4 5 6 
#
# 1 129.0115 41.1408 31.8427 0.0000 0.0000 0.0000
# 2 41.1408 129.0149 31.8449 0.0000 0.0000 0.0000
# 3 31.8427 31.8449 84.5060 0.0000 0.0000 0.0000
# 4 0.0000 0.0000 0.0000 25.5550 0.0000 0.0000
# 5 0.0000 0.0000 0.0000 0.0000 25.5524 0.0000
# 6 0.0000 0.0000 0.0000 0.0000 0.0000 16.3516
#
#
#
# Elastic Compliance Matrix: (Units=1/GPa)
#
#
# Indices 1 2 3 4 5 6 
#
# 1 0.009111 -0.002269 -0.002578 0.000000 0.000000 0.000000
# 2 -0.002269 0.009111 -0.002578 0.000000 0.000000 0.000000
# 3 -0.002578 -0.002578 0.013777 0.000000 0.000000 0.000000
# 4 0.000000 0.000000 0.000000 0.039131 0.000000 0.000000
# 5 0.000000 0.000000 0.000000 0.000000 0.039135 0.000000
# 6 0.000000 0.000000 0.000000 0.000000 0.000000 0.061156
#
#
# Mechanical properties :
#
#
# Convention : Reuss Voigt Hill
#
# Bulk Modulus (GPa) = 58.31688 61.35434 59.83561
# Shear Modulus (GPa) = 26.04327 29.33875 27.69101
#
# Velocity S-wave (km/s) = 3.68951 3.91599 3.80443
# Velocity P-wave (km/s) = 6.97362 7.24677 7.11151
#
# Compressibility (1/GPa) = 0.01714769
#
# Stress axis : x y z
#
# Youngs Moduli (GPa) = 109.75547 109.75715 72.58709
#
# Poissons Ratio (x) = 0.24904 0.18714
# Poissons Ratio (y) = 0.24904 0.18716
# Poissons Ratio (z) = 0.28296 0.28299
#
# Static dielectric constant tensor:
#      x y z
#    x 3.365740 0.000000 0.000000 
#    y 0.000000 3.365580 0.000000 
#    z 0.000000 0.000000 3.675210 
# 
# 
# High freq. dielectric constant tensor:
#      x y z
#    x 1.738010 0.000000 0.000000 
#    y 0.000000 1.738010 0.000000 
#    z 0.000000 0.000000 1.764810 
# 
# From -- ./inp_files/12785.got.cif
#   From: 2010.03.12/outbox.cif.g09.slc.cpg/sg141_7_cif.got.tgz:12785.got - 2010.04.03 13:18:35.
