data_PCOD8320576
_publ_section_title
;
Structure prediction by ZEFSAII (Michael W. Deem and Ramdas Pophale) SiO2 
 PCOD8320576
Probable space group: I 41/A M D
;
_chemical_formula_sum "Si O2"
_cell_formula_units_Z 128
_cell_length_a 15.431069
_cell_length_b 15.431069
_cell_length_c 26.033864
_cell_angle_alpha 90.000000
_cell_angle_beta 90.000000
_cell_angle_gamma 90.000000
_cell_volume 6199.128777
_symmetry_space_group_name_H-M "I 41/A M D"
_symmetry_group_IT_number 141
_space_group.IT_coordinate_system_code '2'
_symmetry_cell_setting 'tetragonal'
loop_
_space_group_symop_operation_xyz
x,y,z
1/4-y,3/4+x,1/4+z
-x,1/2-y,z
1/4+y,1/4-x,3/4+z
x,-y,-z
-x,1/2+y,-z
1/4+y,3/4+x,1/4-z
1/4-y,1/4-x,3/4-z
-x,-y,-z
3/4+y,1/4-x,3/4-z
x,1/2+y,-z
3/4-y,3/4+x,1/4-z
-x,y,z
x,1/2-y,z
3/4-y,1/4-x,3/4+z
3/4+y,3/4+x,1/4+z
1/2+x,1/2+y,1/2+z
3/4-y,1/4+x,3/4+z
1/2-x,-y,1/2+z
3/4+y,3/4-x,1/4+z
1/2+x,1/2-y,1/2-z
1/2-x,y,1/2-z
3/4+y,1/4+x,3/4-z
3/4-y,3/4-x,1/4-z
1/2-x,1/2-y,1/2-z
1/4+y,3/4-x,1/4-z
1/2+x,y,1/2-z
1/4-y,1/4+x,3/4-z
1/2-x,1/2+y,1/2+z
1/2+x,-y,1/2+z
1/4-y,3/4-x,1/4+z
1/4+y,1/4+x,3/4+z
loop_
_atom_site_type_symbol
_atom_site_label
_atom_site_fract_x
_atom_site_fract_y
_atom_site_fract_z
Si Si1 0.093940 0.052581 0.947881
Si Si2 0.245133 0.847612 0.479736
Si Si3 0.097363 0.599391 0.870391
Si Si4 0.098330 0.026867 0.342444
O O1 0.170171 0.121100 0.949845
O O2 0.000000 0.099149 0.943022
O O3 0.107989 0.991637 0.899039
O O4 0.097013 0.000000 0.000000
O O5 0.265206 0.750000 0.495067
O O6 0.164549 0.856338 0.440955
O O7 0.223639 0.891239 0.534976
O O8 0.177326 0.659147 0.887601
O O9 0.000000 0.638264 0.882180
O O10 0.162304 0.087697 0.375000
O O11 0.000000 0.064777 0.344173
#
# Coordination Sequence:
#
# PCOD8320576 Si02
#       4
#    32  32  32  32
#     4  10  18  30  52  84 117 152 190 226 273 337
#     4  10  21  36  55  82 114 150 193 240 289 343
#     4  10  21  37  59  88 120 152 187 231 284 347
#     4  11  24  41  62  85 112 152 198 247 300 348
#
# _framework density 20.648064000000002
#
# number of rings (size 3 to 8) (size 9 to 14) (size 15 to 20)
#    0.000    1.750    2.500    2.250    0.000    1.250 
#    0.000    5.000    0.000    9.000    0.000    0.000 
#    0.000    0.000    0.000    0.000    0.000    0.000 
#
# Total GULP energy -792984.638292 kJ/mol
# GULP energy per Si atom -12390.384973 kJ/mol
# Density = 2.060107 g / cm^3
# Si number density = 20.648064 Si / 1000 Ang^3
#
#
#
# Elastic Constant Matrix: (Units=GPa)
#
#
# Indices 1 2 3 4 5 6 
#
# 1 55.8960 21.4512 28.8832 0.0000 0.0000 0.0000
# 2 21.4512 55.8977 28.8836 0.0000 0.0000 0.0000
# 3 28.8832 28.8836 117.6833 0.0000 0.0000 0.0000
# 4 0.0000 0.0000 0.0000 51.5729 0.0000 0.0000
# 5 0.0000 0.0000 0.0000 0.0000 51.5742 0.0000
# 6 0.0000 0.0000 0.0000 0.0000 0.0000 18.3861
#
#
#
# Elastic Compliance Matrix: (Units=1/GPa)
#
#
# Indices 1 2 3 4 5 6 
#
# 1 0.022431 -0.006601 -0.003885 0.000000 0.000000 0.000000
# 2 -0.006601 0.022430 -0.003885 0.000000 0.000000 0.000000
# 3 -0.003885 -0.003885 0.010405 0.000000 0.000000 0.000000
# 4 0.000000 0.000000 0.000000 0.019390 0.000000 0.000000
# 5 0.000000 0.000000 0.000000 0.000000 0.019390 0.000000
# 6 0.000000 0.000000 0.000000 0.000000 0.000000 0.054389
#
#
# Mechanical properties :
#
#
# Convention : Reuss Voigt Hill
#
# Bulk Modulus (GPa) = 37.70177 43.10145 40.40161
# Shear Modulus (GPa) = 26.87914 34.32391 30.60152
#
# Velocity S-wave (km/s) = 3.61193 4.08159 3.85392
# Velocity P-wave (km/s) = 5.97441 6.56751 6.27797
#
# Compressibility (1/GPa) = 0.02652396
#
# Stress axis : x y z
#
# Youngs Moduli (GPa) = 44.58090 44.58235 96.11204
#
# Poissons Ratio (x) = 0.29427 0.37342
# Poissons Ratio (y) = 0.29426 0.37342
# Poissons Ratio (z) = 0.17321 0.17321
#
# Static dielectric constant tensor:
#      x y z
#    x 3.559610 0.000000 0.000000 
#    y 0.000000 3.559610 0.000000 
#    z 0.000000 0.000000 4.157410 
# 
# 
# High freq. dielectric constant tensor:
#      x y z
#    x 1.785450 0.000000 0.000000 
#    y 0.000000 1.785450 0.000000 
#    z 0.000000 0.000000 1.830180 
# 
# From -- ./inp_files/11342.got.cif
#   From: 2010.03.12/outbox.cif.g09.slc.cpg/sg141_6_cif.got.tgz:11342.got - 2010.04.03 13:18:35.
