data_PCOD8320531
_publ_section_title
;
Structure prediction by ZEFSAII (Michael W. Deem and Ramdas Pophale) SiO2 
 PCOD8320531
Probable space group: I 4/M C M
;
_chemical_formula_sum "Si O2"
_cell_formula_units_Z 160
_cell_length_a 32.625028
_cell_length_b 32.625028
_cell_length_c 9.951341
_cell_angle_alpha 90.000000
_cell_angle_beta 90.000000
_cell_angle_gamma 90.000000
_cell_volume 10592.132248
_symmetry_space_group_name_H-M "I 4/M C M"
_symmetry_group_IT_number 140
_symmetry_cell_setting 'tetragonal'
loop_
_space_group_symop_operation_xyz
x,y,z
-y,x,z
-x,-y,z
y,-x,z
x,-y,1/2-z
-x,y,1/2-z
y,x,1/2-z
-y,-x,1/2-z
-x,-y,-z
y,-x,-z
x,y,-z
-y,x,-z
-x,y,1/2+z
x,-y,1/2+z
-y,-x,1/2+z
y,x,1/2+z
1/2+x,1/2+y,1/2+z
1/2-y,1/2+x,1/2+z
1/2-x,1/2-y,1/2+z
1/2+y,1/2-x,1/2+z
1/2+x,1/2-y,-z
1/2-x,1/2+y,-z
1/2+y,1/2+x,-z
1/2-y,1/2-x,-z
1/2-x,1/2-y,1/2-z
1/2+y,1/2-x,1/2-z
1/2+x,1/2+y,1/2-z
1/2-y,1/2+x,1/2-z
1/2-x,1/2+y,z
1/2+x,1/2-y,z
1/2-y,1/2-x,z
1/2+y,1/2+x,z
loop_
_atom_site_type_symbol
_atom_site_label
_atom_site_fract_x
_atom_site_fract_y
_atom_site_fract_z
Si Si1 0.681300 0.730369 0.651074
Si Si2 0.464000 0.201270 0.652849
Si Si3 0.627919 0.193461 0.842372
Si Si4 0.533078 0.701748 0.350718
Si Si5 0.115267 0.160771 0.852310
O O1 0.719619 0.719619 0.750000
O O2 0.697389 0.741478 0.500000
O O3 0.655076 0.768431 0.713343
O O4 0.653580 0.690616 0.640597
O O5 0.500000 0.183137 0.750000
O O6 0.469646 0.184041 0.500000
O O7 0.418749 0.190413 0.713799
O O8 0.467461 0.249699 0.650626
O O9 0.651006 0.151006 0.807915
O O10 0.623545 0.201357 0.000000
O O11 0.500000 0.682875 0.250000
O O12 0.523307 0.685556 0.500000
O O13 0.576880 0.686532 0.299552
O O14 0.123667 0.123667 0.750000
O O15 0.107036 0.142078 0.000000
#
# Coordination Sequence:
#
# PCOD8320531 Si02
#       5
#    32  32  32  32  32
#     4   9  16  27  40  55  78 109 144 177 206 234
#     4   9  16  28  44  61  81 105 135 168 206 248
#     4   9  16  27  44  62  81 109 144 176 204 242
#     4   9  16  26  40  58  79 102 131 168 205 242
#     4   9  16  26  39  55  78 106 135 168 202 236
#
# _framework density 15.105551999999999
#
# number of rings (size 3 to 8) (size 9 to 14) (size 15 to 20)
#    0.000    3.000    2.000    0.000    0.000    1.200 
#    0.000    1.000    0.000    1.800    0.000    0.000 
#    0.000    0.800    0.000    9.400    0.000    3.200 
#
# Total GULP energy -991198.638888 kJ/mol
# GULP energy per Si atom -12389.982986 kJ/mol
# Density = 1.507117 g / cm^3
# Si number density = 15.105552 Si / 1000 Ang^3
#
#
#
# Elastic Constant Matrix: (Units=GPa)
#
#
# Indices 1 2 3 4 5 6 
#
# 1 52.5342 30.8510 31.1262 0.0000 0.0000 0.0000
# 2 30.8510 52.5342 31.1262 0.0000 0.0000 0.0000
# 3 31.1262 31.1262 56.4136 0.0000 0.0000 0.0000
# 4 0.0000 0.0000 0.0000 6.8622 0.0000 0.0000
# 5 0.0000 0.0000 0.0000 0.0000 6.8622 0.0000
# 6 0.0000 0.0000 0.0000 0.0000 0.0000 15.6158
#
#
#
# Elastic Compliance Matrix: (Units=1/GPa)
#
#
# Indices 1 2 3 4 5 6 
#
# 1 0.033256 -0.012863 -0.011252 0.000000 0.000000 0.000000
# 2 -0.012863 0.033256 -0.011252 0.000000 0.000000 0.000000
# 3 -0.011252 -0.011252 0.030142 0.000000 0.000000 0.000000
# 4 0.000000 0.000000 0.000000 0.145725 0.000000 0.000000
# 5 0.000000 0.000000 0.000000 0.000000 0.145725 0.000000
# 6 0.000000 0.000000 0.000000 0.000000 0.000000 0.064038
#
#
# Mechanical properties :
#
#
# Convention : Reuss Voigt Hill
#
# Bulk Modulus (GPa) = 38.57857 38.63206 38.60532
# Shear Modulus (GPa) = 9.40707 10.42662 9.91685
#
# Velocity S-wave (km/s) = 2.49822 2.63011 2.56501
# Velocity P-wave (km/s) = 5.82376 5.90369 5.86386
#
# Compressibility (1/GPa) = 0.02592112
#
# Stress axis : x y z
#
# Youngs Moduli (GPa) = 30.07006 30.07006 33.17595
#
# Poissons Ratio (x) = 0.38679 0.37328
# Poissons Ratio (y) = 0.38679 0.37328
# Poissons Ratio (z) = 0.33834 0.33834
#
# Static dielectric constant tensor:
#      x y z
#    x 2.811400 0.000000 0.000000 
#    y 0.000000 2.811400 0.000000 
#    z 0.000000 0.000000 3.298210 
# 
# 
# High freq. dielectric constant tensor:
#      x y z
#    x 1.553840 0.000000 0.000000 
#    y 0.000000 1.553840 0.000000 
#    z 0.000000 0.000000 1.564270 
# 
# From -- ./inp_files/3145.got.cif
#   From: 2010.06.25/outbox.cif.g09.slc.cpg/sg140_2_cif.got.tgz:3145.got - 2010.06.28 10:53:23.
