data_PCOD8320893
_publ_section_title
;
Structure prediction by ZEFSAII (Michael W. Deem and Ramdas Pophale) SiO2 
 PCOD8320893
Probable space group: I 41/A M D
;
_chemical_formula_sum "Si O2"
_cell_formula_units_Z 160
_cell_length_a 21.470990
_cell_length_b 21.470990
_cell_length_c 16.473464
_cell_angle_alpha 90.000000
_cell_angle_beta 90.000000
_cell_angle_gamma 90.000000
_cell_volume 7594.323105
_symmetry_space_group_name_H-M "I 41/A M D"
_symmetry_group_IT_number 141
_space_group.IT_coordinate_system_code '2'
_symmetry_cell_setting 'tetragonal'
loop_
_space_group_symop_operation_xyz
x,y,z
1/4-y,3/4+x,1/4+z
-x,1/2-y,z
1/4+y,1/4-x,3/4+z
x,-y,-z
-x,1/2+y,-z
1/4+y,3/4+x,1/4-z
1/4-y,1/4-x,3/4-z
-x,-y,-z
3/4+y,1/4-x,3/4-z
x,1/2+y,-z
3/4-y,3/4+x,1/4-z
-x,y,z
x,1/2-y,z
3/4-y,1/4-x,3/4+z
3/4+y,3/4+x,1/4+z
1/2+x,1/2+y,1/2+z
3/4-y,1/4+x,3/4+z
1/2-x,-y,1/2+z
3/4+y,3/4-x,1/4+z
1/2+x,1/2-y,1/2-z
1/2-x,y,1/2-z
3/4+y,1/4+x,3/4-z
3/4-y,3/4-x,1/4-z
1/2-x,1/2-y,1/2-z
1/4+y,3/4-x,1/4-z
1/2+x,y,1/2-z
1/4-y,1/4+x,3/4-z
1/2-x,1/2+y,1/2+z
1/2+x,-y,1/2+z
1/4-y,3/4-x,1/4+z
1/4+y,1/4+x,3/4+z
loop_
_atom_site_type_symbol
_atom_site_label
_atom_site_fract_x
_atom_site_fract_y
_atom_site_fract_z
Si Si1 0.202538 0.641805 0.641650
Si Si2 0.928866 0.084569 0.558798
Si Si3 0.318789 0.080418 0.720961
Si Si4 0.244396 0.318015 0.515666
Si Si5 0.649895 0.178464 0.844687
O O1 0.178280 0.571721 0.625000
O O2 0.159054 0.672945 0.711314
O O3 0.274851 0.637649 0.666953
O O4 0.195078 0.682270 0.558858
O O5 0.906142 0.145002 0.607627
O O6 0.000000 0.071899 0.583373
O O7 0.327706 0.077706 0.625000
O O8 0.250000 0.057533 0.750000
O O9 0.332954 0.149012 0.757261
O O10 0.374349 0.038710 0.757208
O O11 0.278200 0.250000 0.517846
O O12 0.211876 0.329111 0.601629
O O13 0.630859 0.250000 0.831213
#
# Coordination Sequence:
#
# PCOD8320893 Si02
#       5
#    32  32  32  32  32
#     4  11  21  36  64 101 133 173 220 278 346 421
#     4  11  23  41  63  95 137 181 222 278 346 413
#     4  12  26  45  69 105 136 174 230 300 369 429
#     4  11  23  42  67  96 138 184 225 278 355 435
#     4  11  25  44  67  96 133 185 237 284 346 423
#
# _framework density 21.068369000000001
#
# number of rings (size 3 to 8) (size 9 to 14) (size 15 to 20)
#    0.000    0.800    6.000    2.400    0.000    4.000 
#    0.000    0.000    0.000    0.000    0.000    1.400 
#    0.000    0.000    0.000    0.000    0.000    0.000 
#
# Total GULP energy -991391.920756 kJ/mol
# GULP energy per Si atom -12392.399009 kJ/mol
# Density = 2.102042 g / cm^3
# Si number density = 21.068369 Si / 1000 Ang^3
#
#
#
# Elastic Constant Matrix: (Units=GPa)
#
#
# Indices 1 2 3 4 5 6 
#
# 1 138.6284 76.4594 45.1405 0.0000 0.0000 0.0000
# 2 76.4594 138.6297 45.1405 0.0000 0.0000 0.0000
# 3 45.1405 45.1405 164.0425 0.0000 0.0000 0.0000
# 4 0.0000 0.0000 0.0000 21.5175 0.0000 0.0000
# 5 0.0000 0.0000 0.0000 0.0000 21.5177 0.0000
# 6 0.0000 0.0000 0.0000 0.0000 0.0000 18.2216
#
#
#
# Elastic Compliance Matrix: (Units=1/GPa)
#
#
# Indices 1 2 3 4 5 6 
#
# 1 0.010671 -0.005414 -0.001446 0.000000 0.000000 0.000000
# 2 -0.005414 0.010671 -0.001446 0.000000 0.000000 0.000000
# 3 -0.001446 -0.001446 0.006892 0.000000 0.000000 0.000000
# 4 0.000000 0.000000 0.000000 0.046474 0.000000 0.000000
# 5 0.000000 0.000000 0.000000 0.000000 0.046473 0.000000
# 6 0.000000 0.000000 0.000000 0.000000 0.000000 0.054880
#
#
# Mechanical properties :
#
#
# Convention : Reuss Voigt Hill
#
# Bulk Modulus (GPa) = 86.06544 86.08681 86.07613
# Shear Modulus (GPa) = 25.43908 30.55536 27.99722
#
# Velocity S-wave (km/s) = 3.47861 3.81241 3.64933
# Velocity P-wave (km/s) = 7.55470 7.76715 7.66166
#
# Compressibility (1/GPa) = 0.01161907
#
# Stress axis : x y z
#
# Youngs Moduli (GPa) = 93.71411 93.71508 145.09522
#
# Poissons Ratio (x) = 0.50740 0.20987
# Poissons Ratio (y) = 0.50740 0.20987
# Poissons Ratio (z) = 0.13555 0.13555
#
# Static dielectric constant tensor:
#      x y z
#    x 3.703130 0.000000 0.000000 
#    y 0.000000 3.703120 0.000000 
#    z 0.000000 0.000000 4.201920 
# 
# 
# High freq. dielectric constant tensor:
#      x y z
#    x 1.805330 0.000000 0.000000 
#    y 0.000000 1.805330 0.000000 
#    z 0.000000 0.000000 1.854080 
# 
# From -- ./inp_files/8603.got.cif
#   From: 2010.03.12/outbox.cif.g09.slc.cpg/sg141_5_cif.got.tgz:8603.got - 2010.04.03 13:18:35.
