data_PCOD8320851
_publ_section_title
;
Structure prediction by ZEFSAII (Michael W. Deem and Ramdas Pophale) SiO2 
 PCOD8320851
Probable space group: I 41/A M D
;
_chemical_formula_sum "Si O2"
_cell_formula_units_Z 160
_cell_length_a 19.380729
_cell_length_b 19.380729
_cell_length_c 19.014147
_cell_angle_alpha 90.000000
_cell_angle_beta 90.000000
_cell_angle_gamma 90.000000
_cell_volume 7141.954267
_symmetry_space_group_name_H-M "I 41/A M D"
_symmetry_group_IT_number 141
_space_group.IT_coordinate_system_code '2'
_symmetry_cell_setting 'tetragonal'
loop_
_space_group_symop_operation_xyz
x,y,z
1/4-y,3/4+x,1/4+z
-x,1/2-y,z
1/4+y,1/4-x,3/4+z
x,-y,-z
-x,1/2+y,-z
1/4+y,3/4+x,1/4-z
1/4-y,1/4-x,3/4-z
-x,-y,-z
3/4+y,1/4-x,3/4-z
x,1/2+y,-z
3/4-y,3/4+x,1/4-z
-x,y,z
x,1/2-y,z
3/4-y,1/4-x,3/4+z
3/4+y,3/4+x,1/4+z
1/2+x,1/2+y,1/2+z
3/4-y,1/4+x,3/4+z
1/2-x,-y,1/2+z
3/4+y,3/4-x,1/4+z
1/2+x,1/2-y,1/2-z
1/2-x,y,1/2-z
3/4+y,1/4+x,3/4-z
3/4-y,3/4-x,1/4-z
1/2-x,1/2-y,1/2-z
1/4+y,3/4-x,1/4-z
1/2+x,y,1/2-z
1/4-y,1/4+x,3/4-z
1/2-x,1/2+y,1/2+z
1/2+x,-y,1/2+z
1/4-y,3/4-x,1/4+z
1/4+y,1/4+x,3/4+z
loop_
_atom_site_type_symbol
_atom_site_label
_atom_site_fract_x
_atom_site_fract_y
_atom_site_fract_z
Si Si1 0.693944 0.571054 0.457945
Si Si2 0.218956 0.171065 0.178993
Si Si3 0.575650 0.325810 0.267403
Si Si4 0.579375 0.467423 0.211873
Si Si5 0.423288 0.173283 0.708535
O O1 0.698890 0.500000 0.500000
O O2 0.693520 0.556481 0.375000
O O3 0.758753 0.621344 0.474034
O O4 0.627322 0.613504 0.485901
O O5 0.243930 0.250000 0.178961
O O6 0.250000 0.135651 0.250000
O O7 0.135863 0.164276 0.174896
O O8 0.251680 0.137229 0.109526
O O9 0.500000 0.331725 0.304413
O O10 0.584094 0.250000 0.231669
O O11 0.582520 0.384138 0.207655
O O12 0.500000 0.492084 0.224438
O O13 0.423019 0.173019 0.625000
O O14 0.500000 0.150337 0.734955
O O15 0.406739 0.250000 0.736841
#
# Coordination Sequence:
#
# PCOD8320851 Si02
#       5
#    32  32  32  32  32
#     4  11  25  42  62  91 125 164 212 265 319 378
#     4   9  19  37  61  91 125 166 212 259 321 392
#     4   9  19  38  65  96 129 166 217 274 323 385
#     4  10  22  41  65  90 128 176 212 260 329 391
#     4   8  15  33  63  94 124 161 203 248 303 369
#
# _framework density 22.402832
#
# number of rings (size 3 to 8) (size 9 to 14) (size 15 to 20)
#    0.000    2.600    0.000    1.200    2.800    2.800 
#    0.000    4.000    0.000   12.000    0.000    0.000 
#    0.000    0.000    0.000    0.000    0.000    0.000 
#
# Total GULP energy -991291.322877 kJ/mol
# GULP energy per Si atom -12391.141536 kJ/mol
# Density = 2.235184 g / cm^3
# Si number density = 22.402832 Si / 1000 Ang^3
#
#
#
# Elastic Constant Matrix: (Units=GPa)
#
#
# Indices 1 2 3 4 5 6 
#
# 1 150.4309 58.8320 50.4874 0.0000 0.0000 0.0000
# 2 58.8320 150.4310 50.4873 0.0000 0.0000 0.0000
# 3 50.4874 50.4873 111.4970 0.0000 0.0000 0.0000
# 4 0.0000 0.0000 0.0000 20.5009 0.0000 0.0000
# 5 0.0000 0.0000 0.0000 0.0000 20.5009 0.0000
# 6 0.0000 0.0000 0.0000 0.0000 0.0000 19.8172
#
#
#
# Elastic Compliance Matrix: (Units=1/GPa)
#
#
# Indices 1 2 3 4 5 6 
#
# 1 0.008516 -0.002401 -0.002769 0.000000 0.000000 0.000000
# 2 -0.002401 0.008516 -0.002769 0.000000 0.000000 0.000000
# 3 -0.002769 -0.002769 0.011476 0.000000 0.000000 0.000000
# 4 0.000000 0.000000 0.000000 0.048778 0.000000 0.000000
# 5 0.000000 0.000000 0.000000 0.000000 0.048778 0.000000
# 6 0.000000 0.000000 0.000000 0.000000 0.000000 0.050461
#
#
# Mechanical properties :
#
#
# Convention : Reuss Voigt Hill
#
# Bulk Modulus (GPa) = 79.17345 81.33025 80.25185
# Shear Modulus (GPa) = 25.43053 29.00061 27.21557
#
# Velocity S-wave (km/s) = 3.37285 3.60183 3.48922
# Velocity P-wave (km/s) = 7.11236 7.32666 7.22031
#
# Compressibility (1/GPa) = 0.01263050
#
# Stress axis : x y z
#
# Youngs Moduli (GPa) = 117.42691 117.42710 87.13553
#
# Poissons Ratio (x) = 0.28197 0.24126
# Poissons Ratio (y) = 0.28197 0.24126
# Poissons Ratio (z) = 0.32514 0.32513
#
# Static dielectric constant tensor:
#      x y z
#    x 4.259860 0.000000 0.000000 
#    y 0.000000 4.259860 0.000000 
#    z 0.000000 0.000000 3.651190 
# 
# 
# High freq. dielectric constant tensor:
#      x y z
#    x 1.890920 0.000000 0.000000 
#    y 0.000000 1.890920 0.000000 
#    z 0.000000 0.000000 1.835140 
# 
# From -- ./inp_files/8568.got.cif
#   From: 2010.03.12/outbox.cif.g09.slc.cpg/sg141_5_cif.got.tgz:8568.got - 2010.04.03 13:18:35.
