data_PCOD8320160
_publ_section_title
;
Structure prediction by ZEFSAII (Michael W. Deem and Ramdas Pophale) SiO2 
 PCOD8320160
Probable space group: I 4/M C M
;
_chemical_formula_sum "Si O2"
_cell_formula_units_Z 176
_cell_length_a 23.948147
_cell_length_b 23.948147
_cell_length_c 15.572381
_cell_angle_alpha 90.000000
_cell_angle_beta 90.000000
_cell_angle_gamma 90.000000
_cell_volume 8930.974542
_symmetry_space_group_name_H-M "I 4/M C M"
_symmetry_group_IT_number 140
_symmetry_cell_setting 'tetragonal'
loop_
_space_group_symop_operation_xyz
x,y,z
-y,x,z
-x,-y,z
y,-x,z
x,-y,1/2-z
-x,y,1/2-z
y,x,1/2-z
-y,-x,1/2-z
-x,-y,-z
y,-x,-z
x,y,-z
-y,x,-z
-x,y,1/2+z
x,-y,1/2+z
-y,-x,1/2+z
y,x,1/2+z
1/2+x,1/2+y,1/2+z
1/2-y,1/2+x,1/2+z
1/2-x,1/2-y,1/2+z
1/2+y,1/2-x,1/2+z
1/2+x,1/2-y,-z
1/2-x,1/2+y,-z
1/2+y,1/2+x,-z
1/2-y,1/2-x,-z
1/2-x,1/2-y,1/2-z
1/2+y,1/2-x,1/2-z
1/2+x,1/2+y,1/2-z
1/2-y,1/2+x,1/2-z
1/2-x,1/2+y,z
1/2+x,1/2-y,z
1/2-y,1/2-x,z
1/2+y,1/2+x,z
loop_
_atom_site_type_symbol
_atom_site_label
_atom_site_fract_x
_atom_site_fract_y
_atom_site_fract_z
Si Si1 0.127872 0.715424 0.720346
Si Si2 0.845633 0.744803 0.405001
Si Si3 0.074135 0.046581 0.600604
Si Si4 0.091752 0.502269 0.000000
Si Si5 0.664541 0.367082 0.343538
Si Si6 0.372668 0.960817 0.828056
O O1 0.190745 0.690745 0.710464
O O2 0.116727 0.724151 0.823612
O O3 0.119049 0.770421 0.664386
O O4 0.086229 0.673630 0.674490
O O5 0.871995 0.730680 0.500000
O O6 0.784827 0.715174 0.398725
O O7 0.840571 0.811765 0.401221
O O8 0.068419 0.042762 0.500000
O O9 0.130384 0.080538 0.620118
O O10 0.017508 0.076832 0.636996
O O11 0.130653 0.495929 0.916255
O O12 0.046018 0.453983 0.000000
O O13 0.063128 0.563128 0.000000
O O14 0.641586 0.358415 0.250000
O O15 0.434114 0.934114 0.818040
O O16 0.359764 0.000000 0.750000
#
# Coordination Sequence:
#
# PCOD8320160 Si02
#       6
#    32  32  32  16  32  32
#     4   9  19  36  54  78 119 155 183 234 294 344
#     4   9  17  32  55  82 109 144 193 235 276 342
#     4   9  19  37  57  77 105 139 179 232 286 333
#     4   9  18  34  58  86 112 144 198 251 284 338
#     4  10  19  33  54  81 108 146 186 228 281 345
#     4  10  20  37  58  83 116 154 195 240 294 347
#
# _framework density 19.706696999999998
#
# number of rings (size 3 to 8) (size 9 to 14) (size 15 to 20)
#    0.000    2.636    0.000    2.182    0.000    3.818 
#   11.455    0.909    0.000    0.000    0.000    0.000 
#    0.000    0.000    0.000    0.000    0.000    0.000 
#
# Total GULP energy -1090204.054547 kJ/mol
# GULP energy per Si atom -12388.682438 kJ/mol
# Density = 1.966184 g / cm^3
# Si number density = 19.706697 Si / 1000 Ang^3
#
#
#
# Elastic Constant Matrix: (Units=GPa)
#
#
# Indices 1 2 3 4 5 6 
#
# 1 82.9399 56.3741 37.4904 0.0000 0.0000 0.0000
# 2 56.3741 82.9402 37.4915 0.0000 0.0000 0.0000
# 3 37.4904 37.4915 100.6509 0.0000 0.0000 0.0000
# 4 0.0000 0.0000 0.0000 30.3948 0.0000 0.0000
# 5 0.0000 0.0000 0.0000 0.0000 30.3924 0.0000
# 6 0.0000 0.0000 0.0000 0.0000 0.0000 23.9676
#
#
#
# Elastic Compliance Matrix: (Units=1/GPa)
#
#
# Indices 1 2 3 4 5 6 
#
# 1 0.023310 -0.014332 -0.003344 0.000000 0.000000 0.000000
# 2 -0.014332 0.023310 -0.003344 0.000000 0.000000 0.000000
# 3 -0.003344 -0.003344 0.012427 0.000000 0.000000 0.000000
# 4 0.000000 0.000000 0.000000 0.032900 0.000000 0.000000
# 5 0.000000 0.000000 0.000000 0.000000 0.032903 0.000000
# 6 0.000000 0.000000 0.000000 0.000000 0.000000 0.041723
#
#
# Mechanical properties :
#
#
# Convention : Reuss Voigt Hill
#
# Bulk Modulus (GPa) = 58.80316 58.80477 58.80396
# Shear Modulus (GPa) = 23.33370 25.96263 24.64816
#
# Velocity S-wave (km/s) = 3.44473 3.63361 3.54043
# Velocity P-wave (km/s) = 6.76207 6.89267 6.82768
#
# Compressibility (1/GPa) = 0.01700589
#
# Stress axis : x y z
#
# Youngs Moduli (GPa) = 42.90017 42.89985 80.47253
#
# Poissons Ratio (x) = 0.61485 0.26909
# Poissons Ratio (y) = 0.61485 0.26913
# Poissons Ratio (z) = 0.14345 0.14347
#
# Static dielectric constant tensor:
#      x y z
#    x 3.863890 0.000000 0.000000 
#    y 0.000000 3.863830 0.000000 
#    z 0.000000 0.000000 3.817820 
# 
# 
# High freq. dielectric constant tensor:
#      x y z
#    x 1.752560 0.000000 0.000000 
#    y 0.000000 1.752560 0.000000 
#    z 0.000000 0.000000 1.774440 
# 
# From -- ./inp_files/4927.got.cif
#   From: 2010.06.25/outbox.cif.g09.slc.cpg/sg140_3_cif.got.tgz:4927.got - 2010.06.28 10:53:23.
