data_PCOD8320276
_publ_section_title
;
Structure prediction by ZEFSAII (Michael W. Deem and Ramdas Pophale) SiO2 
 PCOD8320276
Probable space group: I 4/M C M
;
_chemical_formula_sum "Si O2"
_cell_formula_units_Z 192
_cell_length_a 25.714251
_cell_length_b 25.714251
_cell_length_c 13.851194
_cell_angle_alpha 90.000000
_cell_angle_beta 90.000000
_cell_angle_gamma 90.000000
_cell_volume 9158.723957
_symmetry_space_group_name_H-M "I 4/M C M"
_symmetry_group_IT_number 140
_symmetry_cell_setting 'tetragonal'
loop_
_space_group_symop_operation_xyz
x,y,z
-y,x,z
-x,-y,z
y,-x,z
x,-y,1/2-z
-x,y,1/2-z
y,x,1/2-z
-y,-x,1/2-z
-x,-y,-z
y,-x,-z
x,y,-z
-y,x,-z
-x,y,1/2+z
x,-y,1/2+z
-y,-x,1/2+z
y,x,1/2+z
1/2+x,1/2+y,1/2+z
1/2-y,1/2+x,1/2+z
1/2-x,1/2-y,1/2+z
1/2+y,1/2-x,1/2+z
1/2+x,1/2-y,-z
1/2-x,1/2+y,-z
1/2+y,1/2+x,-z
1/2-y,1/2-x,-z
1/2-x,1/2-y,1/2-z
1/2+y,1/2-x,1/2-z
1/2+x,1/2+y,1/2-z
1/2-y,1/2+x,1/2-z
1/2-x,1/2+y,z
1/2+x,1/2-y,z
1/2-y,1/2-x,z
1/2+y,1/2+x,z
loop_
_atom_site_type_symbol
_atom_site_label
_atom_site_fract_x
_atom_site_fract_y
_atom_site_fract_z
Si Si1 0.937980 0.187662 0.385081
Si Si2 0.556541 0.201147 0.220243
Si Si3 0.213654 0.286347 0.108316
Si Si4 0.175579 0.818273 0.611815
Si Si5 0.633583 0.781299 0.110701
Si Si6 0.080998 0.984470 0.885495
Si Si7 0.627243 0.127243 0.106867
O O1 0.942875 0.197399 0.500000
O O2 0.947379 0.242788 0.332986
O O3 0.881378 0.165106 0.352843
O O4 0.976338 0.140896 0.350594
O O5 0.500000 0.183305 0.250000
O O6 0.589218 0.200358 0.318459
O O7 0.577385 0.153549 0.155973
O O8 0.190738 0.236258 0.164059
O O9 0.170666 0.329335 0.105362
O O10 0.230835 0.269166 0.000000
O O11 0.170637 0.805913 0.500000
O O12 0.219812 0.860354 0.632513
O O13 0.687437 0.812564 0.130354
O O14 0.615744 0.789938 0.000000
O O15 0.040712 0.939386 0.848267
O O16 0.080067 0.981372 0.000000
O O17 0.610311 0.110311 0.000000
#
# Coordination Sequence:
#
# PCOD8320276 Si02
#       7
#    32  32  16  32  32  32  16
#     4  10  20  35  56  87 128 168 211 270 327 373
#     4  12  26  41  61  95 128 161 205 255 310 381
#     4   9  14  27  55  86 117 155 201 237 276 360
#     4   9  16  29  54  87 121 161 206 252 303 374
#     4  10  21  39  61  86 122 164 203 250 312 374
#     4   8  15  30  54  81 114 170 237 286 324 367
#     4  11  22  43  70  95 129 172 207 243 306 381
#
# _framework density 20.963619000000001
#
# number of rings (size 3 to 8) (size 9 to 14) (size 15 to 20)
#    0.000    2.167    3.333    1.000    0.000    3.333 
#    0.000    5.000    0.000    0.250    0.000    1.750 
#    0.000    0.000    0.000    1.833    0.000    0.167 
#
# Total GULP energy -1189349.107374 kJ/mol
# GULP energy per Si atom -12389.053202 kJ/mol
# Density = 2.091591 g / cm^3
# Si number density = 20.963619 Si / 1000 Ang^3
#
#
#
# Elastic Constant Matrix: (Units=GPa)
#
#
# Indices 1 2 3 4 5 6 
#
# 1 100.1846 52.8896 45.0722 0.0000 0.0000 0.0000
# 2 52.8896 100.1842 45.0718 0.0000 0.0000 0.0000
# 3 45.0722 45.0718 84.3780 0.0000 0.0000 0.0000
# 4 0.0000 0.0000 0.0000 31.0757 0.0000 0.0000
# 5 0.0000 0.0000 0.0000 0.0000 31.0755 0.0000
# 6 0.0000 0.0000 0.0000 0.0000 0.0000 29.1703
#
#
#
# Elastic Compliance Matrix: (Units=1/GPa)
#
#
# Indices 1 2 3 4 5 6 
#
# 1 0.015337 -0.005807 -0.005091 0.000000 0.000000 0.000000
# 2 -0.005807 0.015337 -0.005091 0.000000 0.000000 0.000000
# 3 -0.005091 -0.005091 0.017290 0.000000 0.000000 0.000000
# 4 0.000000 0.000000 0.000000 0.032180 0.000000 0.000000
# 5 0.000000 0.000000 0.000000 0.000000 0.032180 0.000000
# 6 0.000000 0.000000 0.000000 0.000000 0.000000 0.034281
#
#
# Mechanical properties :
#
#
# Convention : Reuss Voigt Hill
#
# Bulk Modulus (GPa) = 62.54755 63.42376 62.98566
# Shear Modulus (GPa) = 27.18680 27.71183 27.44931
#
# Velocity S-wave (km/s) = 3.60510 3.63974 3.62246
# Velocity P-wave (km/s) = 6.87241 6.92701 6.89976
#
# Compressibility (1/GPa) = 0.01598784
#
# Stress axis : x y z
#
# Youngs Moduli (GPa) = 65.19990 65.19996 57.83545
#
# Poissons Ratio (x) = 0.37859 0.29445
# Poissons Ratio (y) = 0.37859 0.29444
# Poissons Ratio (z) = 0.33194 0.33194
#
# Static dielectric constant tensor:
#      x y z
#    x 3.762750 0.000000 0.000000 
#    y 0.000000 3.762750 0.000000 
#    z 0.000000 0.000000 4.001490 
# 
# 
# High freq. dielectric constant tensor:
#      x y z
#    x 1.800140 0.000000 0.000000 
#    y 0.000000 1.800140 0.000000 
#    z 0.000000 0.000000 1.826510 
# 
# From -- ./inp_files/5201.got.cif
#   From: 2010.06.25/outbox.cif.g09.slc.cpg/sg140_3_cif.got.tgz:5201.got - 2010.06.28 10:53:23.
