data_PCOD8320181
_publ_section_title
;
Structure prediction by ZEFSAII (Michael W. Deem and Ramdas Pophale) SiO2 
 PCOD8320181
Probable space group: I 4/M C M
;
_chemical_formula_sum "Si O2"
_cell_formula_units_Z 160
_cell_length_a 30.582814
_cell_length_b 30.582814
_cell_length_c 9.021899
_cell_angle_alpha 90.000000
_cell_angle_beta 90.000000
_cell_angle_gamma 90.000000
_cell_volume 8438.258931
_symmetry_space_group_name_H-M "I 4/M C M"
_symmetry_group_IT_number 140
_symmetry_cell_setting 'tetragonal'
loop_
_space_group_symop_operation_xyz
x,y,z
-y,x,z
-x,-y,z
y,-x,z
x,-y,1/2-z
-x,y,1/2-z
y,x,1/2-z
-y,-x,1/2-z
-x,-y,-z
y,-x,-z
x,y,-z
-y,x,-z
-x,y,1/2+z
x,-y,1/2+z
-y,-x,1/2+z
y,x,1/2+z
1/2+x,1/2+y,1/2+z
1/2-y,1/2+x,1/2+z
1/2-x,1/2-y,1/2+z
1/2+y,1/2-x,1/2+z
1/2+x,1/2-y,-z
1/2-x,1/2+y,-z
1/2+y,1/2+x,-z
1/2-y,1/2-x,-z
1/2-x,1/2-y,1/2-z
1/2+y,1/2-x,1/2-z
1/2+x,1/2+y,1/2-z
1/2-y,1/2+x,1/2-z
1/2-x,1/2+y,z
1/2+x,1/2-y,z
1/2-y,1/2-x,z
1/2+y,1/2+x,z
loop_
_atom_site_type_symbol
_atom_site_label
_atom_site_fract_x
_atom_site_fract_y
_atom_site_fract_z
Si Si1 0.546733 0.613530 0.675728
Si Si2 0.384085 0.884085 0.824916
Si Si3 0.257566 0.312314 0.339662
Si Si4 0.954239 0.545762 0.821432
Si Si5 0.286088 0.887757 0.824522
Si Si6 0.044934 0.213338 0.827227
O O1 0.500000 0.603213 0.750000
O O2 0.582996 0.582996 0.750000
O O3 0.543727 0.604361 0.500000
O O4 0.560604 0.663843 0.708343
O O5 0.418948 0.918948 0.765995
O O6 0.335525 0.898611 0.770584
O O7 0.384342 0.884342 0.000000
O O8 0.302546 0.302546 0.250000
O O9 0.269237 0.333484 0.500000
O O10 0.233320 0.266681 0.368229
O O11 0.225558 0.341803 0.244836
O O12 0.939523 0.500000 0.750000
O O13 0.957916 0.542085 0.000000
O O14 0.249806 0.921783 0.765722
O O15 0.283992 0.883477 0.000000
O O16 0.000000 0.224172 0.750000
O O17 0.037626 0.219394 0.000000
#
# Coordination Sequence:
#
# PCOD8320181 Si02
#       6
#    32  16  32  16  32  32
#     4  10  20  36  56  81 110 142 178 223 269 321
#     4   9  19  34  56  81 110 143 179 222 275 330
#     4  10  20  33  50  74 103 137 176 218 263 312
#     4  10  20  37  58  83 109 141 178 220 274 334
#     4  10  19  35  56  79 107 144 183 226 273 324
#     4   9  20  36  55  78 107 142 183 221 267 320
#
# _framework density 18.961258000000001
#
# number of rings (size 3 to 8) (size 9 to 14) (size 15 to 20)
#    0.000    2.300    1.000    1.800    0.000    4.200 
#    0.000    5.000    0.000    0.000    0.000    0.000 
#    0.000    0.000    0.000    0.000    0.000    0.000 
#
# Total GULP energy -991539.644681 kJ/mol
# GULP energy per Si atom -12394.245559 kJ/mol
# Density = 1.891810 g / cm^3
# Si number density = 18.961258 Si / 1000 Ang^3
#
#
#
# Elastic Constant Matrix: (Units=GPa)
#
#
# Indices 1 2 3 4 5 6 
#
# 1 119.1817 98.8307 47.6389 0.0000 0.0000 0.0000
# 2 98.8307 119.1818 47.6390 0.0000 0.0000 0.0000
# 3 47.6389 47.6390 62.0152 0.0000 0.0000 0.0000
# 4 0.0000 0.0000 0.0000 25.3096 0.0000 0.0000
# 5 0.0000 0.0000 0.0000 0.0000 25.3096 0.0000
# 6 0.0000 0.0000 0.0000 0.0000 0.0000 41.5344
#
#
#
# Elastic Compliance Matrix: (Units=1/GPa)
#
#
# Indices 1 2 3 4 5 6 
#
# 1 0.028021 -0.021116 -0.005304 0.000000 0.000000 0.000000
# 2 -0.021116 0.028021 -0.005304 0.000000 0.000000 0.000000
# 3 -0.005304 -0.005304 0.024274 0.000000 0.000000 0.000000
# 4 0.000000 0.000000 0.000000 0.039511 0.000000 0.000000
# 5 0.000000 0.000000 0.000000 0.000000 0.039511 0.000000
# 6 0.000000 0.000000 0.000000 0.000000 0.000000 0.024076
#
#
# Mechanical properties :
#
#
# Convention : Reuss Voigt Hill
#
# Bulk Modulus (GPa) = 59.28656 76.51064 67.89860
# Shear Modulus (GPa) = 19.80299 25.51539 22.65919
#
# Velocity S-wave (km/s) = 3.23521 3.67230 3.46066
# Velocity P-wave (km/s) = 6.72983 7.64328 7.20105
#
# Compressibility (1/GPa) = 0.01686723
#
# Stress axis : x y z
#
# Youngs Moduli (GPa) = 35.68716 35.68719 41.19560
#
# Poissons Ratio (x) = 0.75358 0.21851
# Poissons Ratio (y) = 0.75358 0.21852
# Poissons Ratio (z) = 0.18930 0.18930
#
# Static dielectric constant tensor:
#      x y z
#    x 3.579490 0.000000 0.000000 
#    y 0.000000 3.579490 0.000000 
#    z 0.000000 0.000000 3.595390 
# 
# 
# High freq. dielectric constant tensor:
#      x y z
#    x 1.733360 0.000000 0.000000 
#    y 0.000000 1.733360 0.000000 
#    z 0.000000 0.000000 1.736560 
# 
# From -- ./inp_files/1820.got.cif
#   From: 2010.06.25/outbox.cif.g09.slc.cpg/sg140_1_cif.got.tgz:1820.got - 2010.06.28 10:53:23.
