data_PCOD8320765
_publ_section_title
;
Structure prediction by ZEFSAII (Michael W. Deem and Ramdas Pophale) SiO2 
 PCOD8320765
Probable space group: I 41/A M D
;
_chemical_formula_sum "Si O2"
_cell_formula_units_Z 128
_cell_length_a 19.541338
_cell_length_b 19.541338
_cell_length_c 17.262835
_cell_angle_alpha 90.000000
_cell_angle_beta 90.000000
_cell_angle_gamma 90.000000
_cell_volume 6592.053340
_symmetry_space_group_name_H-M "I 41/A M D"
_symmetry_group_IT_number 141
_space_group.IT_coordinate_system_code '2'
_symmetry_cell_setting 'tetragonal'
loop_
_space_group_symop_operation_xyz
x,y,z
1/4-y,3/4+x,1/4+z
-x,1/2-y,z
1/4+y,1/4-x,3/4+z
x,-y,-z
-x,1/2+y,-z
1/4+y,3/4+x,1/4-z
1/4-y,1/4-x,3/4-z
-x,-y,-z
3/4+y,1/4-x,3/4-z
x,1/2+y,-z
3/4-y,3/4+x,1/4-z
-x,y,z
x,1/2-y,z
3/4-y,1/4-x,3/4+z
3/4+y,3/4+x,1/4+z
1/2+x,1/2+y,1/2+z
3/4-y,1/4+x,3/4+z
1/2-x,-y,1/2+z
3/4+y,3/4-x,1/4+z
1/2+x,1/2-y,1/2-z
1/2-x,y,1/2-z
3/4+y,1/4+x,3/4-z
3/4-y,3/4-x,1/4-z
1/2-x,1/2-y,1/2-z
1/4+y,3/4-x,1/4-z
1/2+x,y,1/2-z
1/4-y,1/4+x,3/4-z
1/2-x,1/2+y,1/2+z
1/2+x,-y,1/2+z
1/4-y,3/4-x,1/4+z
1/4+y,1/4+x,3/4+z
loop_
_atom_site_type_symbol
_atom_site_label
_atom_site_fract_x
_atom_site_fract_y
_atom_site_fract_z
Si Si1 0.323458 0.528523 0.085546
Si Si2 0.424725 0.568163 0.202562
Si Si3 0.854615 0.827927 0.197506
Si Si4 0.425546 0.022208 0.351941
O O1 0.257254 0.492747 0.125000
O O2 0.390449 0.517505 0.138766
O O3 0.319192 0.610906 0.082498
O O4 0.335899 0.500000 0.000000
O O5 0.500000 0.592715 0.173241
O O6 0.373830 0.631642 0.223134
O O7 0.434975 0.528055 0.280781
O O8 0.870103 0.750000 0.216592
O O9 0.901033 0.848968 0.125000
O O10 0.774461 0.839899 0.177568
O O11 0.500000 0.060466 0.362707
#
# Coordination Sequence:
#
# PCOD8320765 Si02
#       4
#    32  32  32  32
#     4  12  23  37  60  85 107 147 197 244 287 339
#     4  10  21  36  52  77 113 146 186 239 285 332
#     4   9  17  30  53  83 119 159 185 215 271 347
#     4   9  19  35  54  82 120 150 178 225 285 341
#
# _framework density 19.41732
#
# number of rings (size 3 to 8) (size 9 to 14) (size 15 to 20)
#    0.000    2.000    2.500    4.500    0.000    3.250 
#    0.000    2.500    0.000    0.000    0.000    0.000 
#    0.000    0.500    0.000    0.000    0.000    0.000 
#
# Total GULP energy -792923.790042 kJ/mol
# GULP energy per Si atom -12389.434219 kJ/mol
# Density = 1.937312 g / cm^3
# Si number density = 19.417320 Si / 1000 Ang^3
#
#
#
# Elastic Constant Matrix: (Units=GPa)
#
#
# Indices 1 2 3 4 5 6 
#
# 1 33.8895 61.1251 33.6920 0.0000 0.0000 0.0000
# 2 61.1251 33.8972 33.6971 0.0000 0.0000 0.0000
# 3 33.6920 33.6971 108.2132 0.0000 0.0000 0.0000
# 4 0.0000 0.0000 0.0000 7.5075 0.0000 0.0000
# 5 0.0000 0.0000 0.0000 0.0000 7.5071 0.0000
# 6 0.0000 0.0000 0.0000 0.0000 0.0000 14.7415
#
#
#
# Elastic Compliance Matrix: (Units=1/GPa)
#
#
# Indices 1 2 3 4 5 6 
#
# 1 -0.011609 0.025114 -0.004206 0.000000 0.000000 0.000000
# 2 0.025114 -0.011606 -0.004205 0.000000 0.000000 0.000000
# 3 -0.004206 -0.004205 0.011860 0.000000 0.000000 0.000000
# 4 0.000000 0.000000 0.000000 0.133200 0.000000 0.000000
# 5 0.000000 0.000000 0.000000 0.000000 0.133207 0.000000
# 6 0.000000 0.000000 0.000000 0.000000 0.000000 0.067836
#
#
# Mechanical properties :
#
#
# Convention : Reuss Voigt Hill
#
# Bulk Modulus (GPa) = 45.34872 48.11427 46.73149
# Shear Modulus (GPa) = 16.84455 9.11694 12.98074
#
# Velocity S-wave (km/s) = 2.94853 2.16921 2.58837
# Velocity P-wave (km/s) = 5.91585 5.57734 5.74909
#
# Compressibility (1/GPa) = 0.02205134
#
# Stress axis : x y z
#
# Youngs Moduli (GPa) = -86.14366 -86.16055 84.31630
#
# Poissons Ratio (x) = 2.16387 0.35465
# Poissons Ratio (y) = 2.16345 0.35457
# Poissons Ratio (z) = -0.36234 -0.36232
#
# Static dielectric constant tensor:
#      x y z
#    x 3.592080 0.000000 0.000000 
#    y 0.000000 3.592080 0.000000 
#    z 0.000000 0.000000 3.627660 
# 
# 
# High freq. dielectric constant tensor:
#      x y z
#    x 1.739730 0.000000 0.000000 
#    y 0.000000 1.739730 0.000000 
#    z 0.000000 0.000000 1.757120 
# 
# From -- ./inp_files/8224.got.cif
#   From: 2010.03.12/outbox.cif.g09.slc.cpg/sg141_5_cif.got.tgz:8224.got - 2010.04.03 13:18:35.
