data_PCOD8320878
_publ_section_title
;
Structure prediction by ZEFSAII (Michael W. Deem and Ramdas Pophale) SiO2 
 PCOD8320878
Probable space group: I 41/A M D
;
_chemical_formula_sum "Si O2"
_cell_formula_units_Z 160
_cell_length_a 20.113406
_cell_length_b 20.113406
_cell_length_c 18.108687
_cell_angle_alpha 90.000000
_cell_angle_beta 90.000000
_cell_angle_gamma 90.000000
_cell_volume 7325.853045
_symmetry_space_group_name_H-M "I 41/A M D"
_symmetry_group_IT_number 141
_space_group.IT_coordinate_system_code '2'
_symmetry_cell_setting 'tetragonal'
loop_
_space_group_symop_operation_xyz
x,y,z
1/4-y,3/4+x,1/4+z
-x,1/2-y,z
1/4+y,1/4-x,3/4+z
x,-y,-z
-x,1/2+y,-z
1/4+y,3/4+x,1/4-z
1/4-y,1/4-x,3/4-z
-x,-y,-z
3/4+y,1/4-x,3/4-z
x,1/2+y,-z
3/4-y,3/4+x,1/4-z
-x,y,z
x,1/2-y,z
3/4-y,1/4-x,3/4+z
3/4+y,3/4+x,1/4+z
1/2+x,1/2+y,1/2+z
3/4-y,1/4+x,3/4+z
1/2-x,-y,1/2+z
3/4+y,3/4-x,1/4+z
1/2+x,1/2-y,1/2-z
1/2-x,y,1/2-z
3/4+y,1/4+x,3/4-z
3/4-y,3/4-x,1/4-z
1/2-x,1/2-y,1/2-z
1/4+y,3/4-x,1/4-z
1/2+x,y,1/2-z
1/4-y,1/4+x,3/4-z
1/2-x,1/2+y,1/2+z
1/2+x,-y,1/2+z
1/4-y,3/4-x,1/4+z
1/4+y,1/4+x,3/4+z
loop_
_atom_site_type_symbol
_atom_site_label
_atom_site_fract_x
_atom_site_fract_y
_atom_site_fract_z
Si Si1 0.925297 0.671867 0.540979
Si Si2 0.738940 0.585350 0.666080
Si Si3 0.679571 0.823104 0.219321
Si Si4 0.183733 0.824227 0.956531
Si Si5 0.302021 0.147258 0.941496
O O1 0.904743 0.654743 0.625000
O O2 0.924999 0.750000 0.529004
O O3 0.870423 0.640139 0.488079
O O4 0.000000 0.644448 0.523868
O O5 0.801517 0.551517 0.625000
O O6 0.750000 0.609273 0.750000
O O7 0.715141 0.648842 0.619215
O O8 0.678342 0.532218 0.669053
O O9 0.663862 0.750000 0.254057
O O10 0.750000 0.850445 0.250000
O O11 0.621065 0.875085 0.238337
O O12 0.683911 0.811296 0.131739
O O13 0.155442 0.750000 0.943186
O O14 0.242432 0.818442 0.015776
#
# Coordination Sequence:
#
# PCOD8320878 Si02
#       5
#    32  32  32  32  32
#     4   9  19  36  59  91 135 186 227 262 320 400
#     4  11  24  42  65  93 129 180 226 270 327 393
#     4  10  24  45  69  96 127 173 227 280 344 416
#     4  11  25  41  66 102 135 172 219 280 341 399
#     4  11  23  38  67  94 131 171 221 276 335 394
#
# _framework density 21.84046
#
# number of rings (size 3 to 8) (size 9 to 14) (size 15 to 20)
#    0.000    1.600    2.000    2.400    8.400    4.000 
#    0.000    0.000    0.000    0.000    0.000    2.800 
#    0.000    0.000    0.000    0.000    0.000    0.000 
#
# Total GULP energy -991506.501998 kJ/mol
# GULP energy per Si atom -12393.831275 kJ/mol
# Density = 2.179075 g / cm^3
# Si number density = 21.840460 Si / 1000 Ang^3
#
#
#
# Elastic Constant Matrix: (Units=GPa)
#
#
# Indices 1 2 3 4 5 6 
#
# 1 129.0765 61.6462 30.6170 0.0000 0.0000 0.0000
# 2 61.6462 129.0765 30.6170 0.0000 0.0000 0.0000
# 3 30.6170 30.6170 83.2709 0.0000 0.0000 0.0000
# 4 0.0000 0.0000 0.0000 23.1866 0.0000 0.0000
# 5 0.0000 0.0000 0.0000 0.0000 23.1866 0.0000
# 6 0.0000 0.0000 0.0000 0.0000 0.0000 27.2967
#
#
#
# Elastic Compliance Matrix: (Units=1/GPa)
#
#
# Indices 1 2 3 4 5 6 
#
# 1 0.010388 -0.004443 -0.002186 0.000000 0.000000 0.000000
# 2 -0.004443 0.010388 -0.002186 0.000000 0.000000 0.000000
# 3 -0.002186 -0.002186 0.013616 0.000000 0.000000 0.000000
# 4 0.000000 0.000000 0.000000 0.043128 0.000000 0.000000
# 5 0.000000 0.000000 0.000000 0.000000 0.043128 0.000000
# 6 0.000000 0.000000 0.000000 0.000000 0.000000 0.036635
#
#
# Mechanical properties :
#
#
# Convention : Reuss Voigt Hill
#
# Bulk Modulus (GPa) = 59.65529 65.24272 62.44900
# Shear Modulus (GPa) = 27.70099 29.30355 28.50227
#
# Velocity S-wave (km/s) = 3.56523 3.66691 3.61643
# Velocity P-wave (km/s) = 6.65742 6.91849 6.78921
#
# Compressibility (1/GPa) = 0.01676297
#
# Stress axis : x y z
#
# Youngs Moduli (GPa) = 96.26886 96.26886 73.44088
#
# Poissons Ratio (x) = 0.42768 0.16053
# Poissons Ratio (y) = 0.42768 0.16053
# Poissons Ratio (z) = 0.21043 0.21043
#
# Static dielectric constant tensor:
#      x y z
#    x 3.999960 0.000000 0.000000 
#    y 0.000000 3.999960 0.000000 
#    z 0.000000 0.000000 3.992680 
# 
# 
# High freq. dielectric constant tensor:
#      x y z
#    x 1.856630 0.000000 0.000000 
#    y 0.000000 1.856630 0.000000 
#    z 0.000000 0.000000 1.854530 
# 
# From -- ./inp_files/8598.got.cif
#   From: 2010.03.12/outbox.cif.g09.slc.cpg/sg141_5_cif.got.tgz:8598.got - 2010.04.03 13:18:35.
