data_PCOD8320938
_publ_section_title
;
Structure prediction by ZEFSAII (Michael W. Deem and Ramdas Pophale) SiO2 
 PCOD8320938
Probable space group: I 41/A M D
;
_chemical_formula_sum "Si O2"
_cell_formula_units_Z 160
_cell_length_a 17.371426
_cell_length_b 17.371426
_cell_length_c 34.171785
_cell_angle_alpha 90.000000
_cell_angle_beta 90.000000
_cell_angle_gamma 90.000000
_cell_volume 10311.897951
_symmetry_space_group_name_H-M "I 41/A M D"
_symmetry_group_IT_number 141
_space_group.IT_coordinate_system_code '2'
_symmetry_cell_setting 'tetragonal'
loop_
_space_group_symop_operation_xyz
x,y,z
1/4-y,3/4+x,1/4+z
-x,1/2-y,z
1/4+y,1/4-x,3/4+z
x,-y,-z
-x,1/2+y,-z
1/4+y,3/4+x,1/4-z
1/4-y,1/4-x,3/4-z
-x,-y,-z
3/4+y,1/4-x,3/4-z
x,1/2+y,-z
3/4-y,3/4+x,1/4-z
-x,y,z
x,1/2-y,z
3/4-y,1/4-x,3/4+z
3/4+y,3/4+x,1/4+z
1/2+x,1/2+y,1/2+z
3/4-y,1/4+x,3/4+z
1/2-x,-y,1/2+z
3/4+y,3/4-x,1/4+z
1/2+x,1/2-y,1/2-z
1/2-x,y,1/2-z
3/4+y,1/4+x,3/4-z
3/4-y,3/4-x,1/4-z
1/2-x,1/2-y,1/2-z
1/4+y,3/4-x,1/4-z
1/2+x,y,1/2-z
1/4-y,1/4+x,3/4-z
1/2-x,1/2+y,1/2+z
1/2+x,-y,1/2+z
1/4-y,3/4-x,1/4+z
1/4+y,1/4+x,3/4+z
loop_
_atom_site_type_symbol
_atom_site_label
_atom_site_fract_x
_atom_site_fract_y
_atom_site_fract_z
Si Si1 0.911073 0.972930 0.428598
Si Si2 0.088841 0.462661 0.864278
Si Si3 0.313836 0.162658 0.958354
Si Si4 0.317520 0.535749 0.778894
Si Si5 0.202359 0.429895 0.106075
O O1 0.884629 0.891811 0.446495
O O2 0.896361 0.969001 0.381796
O O3 0.000000 0.987615 0.437065
O O4 0.864658 0.042549 0.449319
O O5 0.135339 0.385339 0.875000
O O6 0.102292 0.488531 0.818871
O O7 0.115464 0.536782 0.890366
O O8 0.000000 0.445613 0.873125
O O9 0.342159 0.250000 0.954449
O O10 0.294500 0.144993 0.003656
O O11 0.250000 0.507215 0.750000
O O12 0.335803 0.470938 0.811024
O O13 0.251868 0.498133 0.125000
#
# Coordination Sequence:
#
# PCOD8320938 Si02
#       5
#    32  32  32  32  32
#     4   9  17  28  42  61  84 111 143 174 202 240
#     4   9  16  28  45  63  84 107 134 168 204 247
#     4   9  18  29  42  63  87 109 134 169 212 249
#     4   9  16  27  45  63  82 108 140 177 210 242
#     4   8  15  28  43  60  82 110 141 172 205 242
#
# _framework density 15.516057999999999
#
# number of rings (size 3 to 8) (size 9 to 14) (size 15 to 20)
#    0.000    3.200    0.000    3.600    0.000    5.000 
#    0.000    0.000    0.000    5.400    0.000    0.000 
#    0.000    0.000    0.000    0.000    0.000    0.000 
#
# Total GULP energy -991357.453222 kJ/mol
# GULP energy per Si atom -12391.968165 kJ/mol
# Density = 1.548074 g / cm^3
# Si number density = 15.516058 Si / 1000 Ang^3
#
#
#
# Elastic Constant Matrix: (Units=GPa)
#
#
# Indices 1 2 3 4 5 6 
#
# 1 74.1226 33.4138 37.9086 0.0000 0.0000 0.0000
# 2 33.4138 74.1224 37.9085 0.0000 0.0000 0.0000
# 3 37.9086 37.9085 119.2418 0.0000 0.0000 0.0000
# 4 0.0000 0.0000 0.0000 15.6214 0.0000 0.0000
# 5 0.0000 0.0000 0.0000 0.0000 15.6215 0.0000
# 6 0.0000 0.0000 0.0000 0.0000 0.0000 14.3211
#
#
#
# Elastic Compliance Matrix: (Units=1/GPa)
#
#
# Indices 1 2 3 4 5 6 
#
# 1 0.018275 -0.006290 -0.003810 0.000000 0.000000 0.000000
# 2 -0.006290 0.018275 -0.003810 0.000000 0.000000 0.000000
# 3 -0.003810 -0.003810 0.010809 0.000000 0.000000 0.000000
# 4 0.000000 0.000000 0.000000 0.064015 0.000000 0.000000
# 5 0.000000 0.000000 0.000000 0.000000 0.064014 0.000000
# 6 0.000000 0.000000 0.000000 0.000000 0.000000 0.069827
#
#
# Mechanical properties :
#
#
# Convention : Reuss Voigt Hill
#
# Bulk Modulus (GPa) = 51.18023 53.99429 52.58726
# Shear Modulus (GPa) = 17.88595 19.66320 18.77458
#
# Velocity S-wave (km/s) = 3.39888 3.56375 3.48229
# Velocity P-wave (km/s) = 6.96133 7.19780 7.08055
#
# Compressibility (1/GPa) = 0.01953879
#
# Stress axis : x y z
#
# Youngs Moduli (GPa) = 54.71904 54.71889 92.51483
#
# Poissons Ratio (x) = 0.34416 0.35252
# Poissons Ratio (y) = 0.34416 0.35252
# Poissons Ratio (z) = 0.20850 0.20850
#
# Static dielectric constant tensor:
#      x y z
#    x 2.827850 0.000000 0.000000 
#    y 0.000000 2.827850 0.000000 
#    z 0.000000 0.000000 3.191650 
# 
# 
# High freq. dielectric constant tensor:
#      x y z
#    x 1.573950 0.000000 0.000000 
#    y 0.000000 1.573950 0.000000 
#    z 0.000000 0.000000 1.599520 
# 
# From -- ./inp_files/14300.got.cif
#   From: 2010.03.12/outbox.cif.g09.slc.cpg/sg141_8_cif.got.tgz:14300.got - 2010.04.03 13:18:35.
