data_PCOD8320337
_publ_section_title
;
Structure prediction by ZEFSAII (Michael W. Deem and Ramdas Pophale) SiO2 
 PCOD8320337
Probable space group: I 4/M C M
;
_chemical_formula_sum "Si O2"
_cell_formula_units_Z 176
_cell_length_a 18.406336
_cell_length_b 18.406336
_cell_length_c 24.879441
_cell_angle_alpha 90.000000
_cell_angle_beta 90.000000
_cell_angle_gamma 90.000000
_cell_volume 8428.985554
_symmetry_space_group_name_H-M "I 4/M C M"
_symmetry_group_IT_number 140
_symmetry_cell_setting 'tetragonal'
loop_
_space_group_symop_operation_xyz
x,y,z
-y,x,z
-x,-y,z
y,-x,z
x,-y,1/2-z
-x,y,1/2-z
y,x,1/2-z
-y,-x,1/2-z
-x,-y,-z
y,-x,-z
x,y,-z
-y,x,-z
-x,y,1/2+z
x,-y,1/2+z
-y,-x,1/2+z
y,x,1/2+z
1/2+x,1/2+y,1/2+z
1/2-y,1/2+x,1/2+z
1/2-x,1/2-y,1/2+z
1/2+y,1/2-x,1/2+z
1/2+x,1/2-y,-z
1/2-x,1/2+y,-z
1/2+y,1/2+x,-z
1/2-y,1/2-x,-z
1/2-x,1/2-y,1/2-z
1/2+y,1/2-x,1/2-z
1/2+x,1/2+y,1/2-z
1/2-y,1/2+x,1/2-z
1/2-x,1/2+y,z
1/2+x,1/2-y,z
1/2-y,1/2-x,z
1/2+y,1/2+x,z
loop_
_atom_site_type_symbol
_atom_site_label
_atom_site_fract_x
_atom_site_fract_y
_atom_site_fract_z
Si Si1 0.374902 0.288766 0.062565
Si Si2 0.692555 0.192555 0.232790
Si Si3 0.384182 0.884182 0.061767
Si Si4 0.949728 0.108817 0.128284
Si Si5 0.346930 0.962853 0.438020
Si Si6 0.803465 0.081662 0.271718
Si Si7 0.220339 0.720339 0.609812
O O1 0.427355 0.359394 0.069714
O O2 0.416189 0.218452 0.086400
O O3 0.304250 0.297625 0.099976
O O4 0.352950 0.280111 0.000000
O O5 0.750000 0.250000 0.250000
O O6 0.723142 0.116401 0.258282
O O7 0.691903 0.191903 0.167867
O O8 0.458288 0.855326 0.089964
O O9 0.323482 0.823482 0.065016
O O10 0.402550 0.902550 0.000000
O O11 0.923933 0.175810 0.165699
O O12 0.034682 0.094803 0.136689
O O13 0.326654 0.973352 0.500000
O O14 0.422862 0.922862 0.429399
O O15 0.868872 0.131129 0.250000
O O16 0.806160 0.000000 0.250000
#
# Coordination Sequence:
#
# PCOD8320337 Si02
#       7
#    32  16  16  32  32  32  16
#     4  11  23  39  61  87 128 175 214 257 312 384
#     4  10  24  42  63  96 126 160 206 274 334 389
#     4  10  21  34  60  90 117 154 208 259 306 366
#     4  11  25  41  63  95 128 169 215 266 328 394
#     4   9  18  36  57  83 116 159 207 255 305 354
#     4  11  21  40  69  97 128 163 211 275 333 390
#     4  12  24  41  62  89 124 165 214 261 316 391
#
# _framework density 20.880330000000001
#
# number of rings (size 3 to 8) (size 9 to 14) (size 15 to 20)
#    0.000    1.455    2.727    3.273    2.545    2.000 
#    0.000    0.909    0.000    0.273    0.000    0.000 
#    0.000    0.000    0.182    0.000    0.000    0.000 
#
# Total GULP energy -1090245.672825 kJ/mol
# GULP energy per Si atom -12389.155373 kJ/mol
# Density = 2.083281 g / cm^3
# Si number density = 20.880330 Si / 1000 Ang^3
#
#
#
# Elastic Constant Matrix: (Units=GPa)
#
#
# Indices 1 2 3 4 5 6 
#
# 1 39.3253 156.0145 25.5932 0.0000 0.0000 0.0000
# 2 156.0145 39.3237 25.5923 0.0000 0.0000 0.0000
# 3 25.5932 25.5923 50.3213 0.0000 0.0000 0.0000
# 4 0.0000 0.0000 0.0000 22.6659 0.0000 0.0000
# 5 0.0000 0.0000 0.0000 0.0000 22.6657 0.0000
# 6 0.0000 0.0000 0.0000 0.0000 0.0000 32.0005
#
#
#
# Elastic Compliance Matrix: (Units=1/GPa)
#
#
# Indices 1 2 3 4 5 6 
#
# 1 -0.001332 0.007238 -0.003004 0.000000 0.000000 0.000000
# 2 0.007238 -0.001332 -0.003004 0.000000 0.000000 0.000000
# 3 -0.003004 -0.003004 0.022928 0.000000 0.000000 0.000000
# 4 0.000000 0.000000 0.000000 0.044119 0.000000 0.000000
# 5 0.000000 0.000000 0.000000 0.000000 0.044120 0.000000
# 6 0.000000 0.000000 0.000000 0.000000 0.000000 0.031250
#
#
# Mechanical properties :
#
#
# Convention : Reuss Voigt Hill
#
# Bulk Modulus (GPa) = 44.00448 60.37449 52.18949
# Shear Modulus (GPa) = 34.51435 10.25111 22.38273
#
# Velocity S-wave (km/s) = 4.07007 2.21813 3.27762
# Velocity P-wave (km/s) = 6.57325 5.96133 6.27476
#
# Compressibility (1/GPa) = 0.02272496
#
# Stress axis : x y z
#
# Youngs Moduli (GPa) = -750.96631 -750.94401 43.61510
#
# Poissons Ratio (x) = 5.43539 0.13101
# Poissons Ratio (y) = 5.43555 0.13102
# Poissons Ratio (z) = -2.25581 -2.25584
#
# Static dielectric constant tensor:
#      x y z
#    x 4.318600 0.000000 0.000000 
#    y 0.000000 4.318610 0.000000 
#    z 0.000000 0.000000 3.448220 
# 
# 
# High freq. dielectric constant tensor:
#      x y z
#    x 1.822350 0.000000 0.000000 
#    y 0.000000 1.822350 0.000000 
#    z 0.000000 0.000000 1.790250 
# 
# From -- ./inp_files/10752.got.cif
#   From: 2010.06.25/outbox.cif.g09.slc.cpg/sg140_6_cif.got.tgz:10752.got - 2010.06.28 10:53:23.
