data_PCOD8320689
_publ_section_title
;
Structure prediction by ZEFSAII (Michael W. Deem and Ramdas Pophale) SiO2 
 PCOD8320689
Probable space group: I 41/A M D
;
_chemical_formula_sum "Si O2"
_cell_formula_units_Z 160
_cell_length_a 20.029190
_cell_length_b 20.029190
_cell_length_c 20.651564
_cell_angle_alpha 90.000000
_cell_angle_beta 90.000000
_cell_angle_gamma 90.000000
_cell_volume 8284.755962
_symmetry_space_group_name_H-M "I 41/A M D"
_symmetry_group_IT_number 141
_space_group.IT_coordinate_system_code '2'
_symmetry_cell_setting 'tetragonal'
loop_
_space_group_symop_operation_xyz
x,y,z
1/4-y,3/4+x,1/4+z
-x,1/2-y,z
1/4+y,1/4-x,3/4+z
x,-y,-z
-x,1/2+y,-z
1/4+y,3/4+x,1/4-z
1/4-y,1/4-x,3/4-z
-x,-y,-z
3/4+y,1/4-x,3/4-z
x,1/2+y,-z
3/4-y,3/4+x,1/4-z
-x,y,z
x,1/2-y,z
3/4-y,1/4-x,3/4+z
3/4+y,3/4+x,1/4+z
1/2+x,1/2+y,1/2+z
3/4-y,1/4+x,3/4+z
1/2-x,-y,1/2+z
3/4+y,3/4-x,1/4+z
1/2+x,1/2-y,1/2-z
1/2-x,y,1/2-z
3/4+y,1/4+x,3/4-z
3/4-y,3/4-x,1/4-z
1/2-x,1/2-y,1/2-z
1/4+y,3/4-x,1/4-z
1/2+x,y,1/2-z
1/4-y,1/4+x,3/4-z
1/2-x,1/2+y,1/2+z
1/2+x,-y,1/2+z
1/4-y,3/4-x,1/4+z
1/4+y,1/4+x,3/4+z
loop_
_atom_site_type_symbol
_atom_site_label
_atom_site_fract_x
_atom_site_fract_y
_atom_site_fract_z
Si Si1 0.220196 0.825530 0.593860
Si Si2 0.669822 0.329539 0.671192
Si Si3 0.864380 0.324418 0.145263
Si Si4 0.636366 0.071096 0.024272
Si Si5 0.575769 0.933069 0.564897
O O1 0.201003 0.750000 0.573534
O O2 0.299203 0.833540 0.600841
O O3 0.186137 0.841039 0.662439
O O4 0.196483 0.877432 0.538752
O O5 0.619543 0.369543 0.625000
O O6 0.658880 0.250000 0.658980
O O7 0.746374 0.354851 0.658667
O O8 0.656140 0.352469 0.745669
O O9 0.893406 0.250000 0.138635
O O10 0.849980 0.337391 0.220223
O O11 0.917803 0.376956 0.119517
O O12 0.666623 0.000000 0.000000
O O13 0.500000 0.950581 0.551256
#
# Coordination Sequence:
#
# PCOD8320689 Si02
#       5
#    32  32  32  32  32
#     4   9  18  34  54  76 106 141 182 228 267 315
#     4   9  19  38  60  81 106 143 182 221 272 324
#     4  10  20  34  53  78 106 143 182 219 270 325
#     4   9  18  34  53  77 106 141 180 224 270 319
#     4   9  20  38  54  76 111 143 174 221 276 323
#
# _framework density 19.312577999999998
#
# number of rings (size 3 to 8) (size 9 to 14) (size 15 to 20)
#    0.000    2.800    0.000    1.800    0.000    6.200 
#   10.800    6.000    0.000    9.600    0.000    0.000 
#    0.000    0.000    0.000    0.000    0.000    0.000 
#
# Total GULP energy -991431.297948 kJ/mol
# GULP energy per Si atom -12392.891224 kJ/mol
# Density = 1.926862 g / cm^3
# Si number density = 19.312578 Si / 1000 Ang^3
#
#
#
# Elastic Constant Matrix: (Units=GPa)
#
#
# Indices 1 2 3 4 5 6 
#
# 1 86.1043 40.1767 48.9683 0.0000 0.0000 0.0000
# 2 40.1767 86.1043 48.9683 0.0000 0.0000 0.0000
# 3 48.9683 48.9683 75.5187 0.0000 0.0000 0.0000
# 4 0.0000 0.0000 0.0000 31.4287 0.0000 0.0000
# 5 0.0000 0.0000 0.0000 0.0000 31.4287 0.0000
# 6 0.0000 0.0000 0.0000 0.0000 0.0000 30.2071
#
#
#
# Elastic Compliance Matrix: (Units=1/GPa)
#
#
# Indices 1 2 3 4 5 6 
#
# 1 0.018851 -0.002922 -0.010329 0.000000 0.000000 0.000000
# 2 -0.002922 0.018851 -0.010329 0.000000 0.000000 0.000000
# 3 -0.010329 -0.010329 0.026637 0.000000 0.000000 0.000000
# 4 0.000000 0.000000 0.000000 0.031818 0.000000 0.000000
# 5 0.000000 0.000000 0.000000 0.000000 0.031818 0.000000
# 6 0.000000 0.000000 0.000000 0.000000 0.000000 0.033105
#
#
# Mechanical properties :
#
#
# Convention : Reuss Voigt Hill
#
# Bulk Modulus (GPa) = 58.20832 58.21711 58.21272
# Shear Modulus (GPa) = 23.36798 25.92050 24.64424
#
# Velocity S-wave (km/s) = 3.48226 3.66752 3.57609
# Velocity P-wave (km/s) = 6.80983 6.93861 6.87452
#
# Compressibility (1/GPa) = 0.01717967
#
# Stress axis : x y z
#
# Youngs Moduli (GPa) = 53.04626 53.04625 37.54156
#
# Poissons Ratio (x) = 0.15500 0.38777
# Poissons Ratio (y) = 0.15500 0.38777
# Poissons Ratio (z) = 0.54792 0.54792
#
# Static dielectric constant tensor:
#      x y z
#    x 3.429890 0.000000 0.000000 
#    y 0.000000 3.429890 0.000000 
#    z 0.000000 0.000000 3.492300 
# 
# 
# High freq. dielectric constant tensor:
#      x y z
#    x 1.741840 0.000000 0.000000 
#    y 0.000000 1.741840 0.000000 
#    z 0.000000 0.000000 1.751920 
# 
# From -- ./inp_files/8548.got.cif
#   From: 2010.03.12/outbox.cif.g09.slc.cpg/sg141_5_cif.got.tgz:8548.got - 2010.04.03 13:18:35.
