data_PCOD8320173
_publ_section_title
;
Structure prediction by ZEFSAII (Michael W. Deem and Ramdas Pophale) SiO2 
 PCOD8320173
Probable space group: I 4/M C M
;
_chemical_formula_sum "Si O2"
_cell_formula_units_Z 176
_cell_length_a 17.387432
_cell_length_b 17.387432
_cell_length_c 30.876446
_cell_angle_alpha 90.000000
_cell_angle_beta 90.000000
_cell_angle_gamma 90.000000
_cell_volume 9334.653348
_symmetry_space_group_name_H-M "I 4/M C M"
_symmetry_group_IT_number 140
_symmetry_cell_setting 'tetragonal'
loop_
_space_group_symop_operation_xyz
x,y,z
-y,x,z
-x,-y,z
y,-x,z
x,-y,1/2-z
-x,y,1/2-z
y,x,1/2-z
-y,-x,1/2-z
-x,-y,-z
y,-x,-z
x,y,-z
-y,x,-z
-x,y,1/2+z
x,-y,1/2+z
-y,-x,1/2+z
y,x,1/2+z
1/2+x,1/2+y,1/2+z
1/2-y,1/2+x,1/2+z
1/2-x,1/2-y,1/2+z
1/2+y,1/2-x,1/2+z
1/2+x,1/2-y,-z
1/2-x,1/2+y,-z
1/2+y,1/2+x,-z
1/2-y,1/2-x,-z
1/2-x,1/2-y,1/2-z
1/2+y,1/2-x,1/2-z
1/2+x,1/2+y,1/2-z
1/2-y,1/2+x,1/2-z
1/2-x,1/2+y,z
1/2+x,1/2-y,z
1/2-y,1/2-x,z
1/2+y,1/2+x,z
loop_
_atom_site_type_symbol
_atom_site_label
_atom_site_fract_x
_atom_site_fract_y
_atom_site_fract_z
Si Si1 0.994656 0.122367 0.948832
Si Si2 0.396265 0.771403 0.666300
Si Si3 0.974356 0.723646 0.902571
Si Si4 0.435750 0.064251 0.551021
Si Si5 0.849095 0.224230 0.657153
Si Si6 0.582268 0.291316 0.244605
O O1 0.988725 0.209153 0.931575
O O2 0.920861 0.072616 0.932963
O O3 0.994553 0.127095 0.000000
O O4 0.337276 0.837276 0.653001
O O5 0.472317 0.788990 0.639073
O O6 0.362367 0.685920 0.654867
O O7 0.412567 0.774486 0.718203
O O8 0.964489 0.644725 0.928889
O O9 0.890567 0.752907 0.887342
O O10 0.423605 0.076396 0.500000
O O11 0.500000 0.000000 0.560631
O O12 0.777110 0.277110 0.667193
O O13 0.909921 0.239992 0.695884
O O14 0.500000 0.332730 0.250000
O O15 0.649186 0.350815 0.250000
#
# Coordination Sequence:
#
# PCOD8320173 Si02
#       6
#    32  32  32  16  32  32
#     4   9  19  36  58  85 115 145 178 224 287 349
#     4  10  21  35  55  80 111 147 188 232 278 326
#     4  12  20  36  60  84 109 145 188 237 278 340
#     4  11  26  44  60  82 113 152 192 237 300 351
#     4  10  20  35  54  81 109 144 188 233 276 325
#     4  10  19  34  53  76 112 150 185 224 274 329
#
# _framework density 18.854475999999998
#
# number of rings (size 3 to 8) (size 9 to 14) (size 15 to 20)
#    0.000    1.727    2.727    3.273    0.000    2.364 
#    0.000    0.000    0.000    0.000    0.000    1.273 
#    0.000    0.000    0.000    0.000    0.000    0.000 
#
# Total GULP energy -1090661.947299 kJ/mol
# GULP energy per Si atom -12393.885765 kJ/mol
# Density = 1.881156 g / cm^3
# Si number density = 18.854476 Si / 1000 Ang^3
#
#
#
# Elastic Constant Matrix: (Units=GPa)
#
#
# Indices 1 2 3 4 5 6 
#
# 1 79.7496 18.5444 30.7698 0.0000 0.0000 0.0000
# 2 18.5444 79.7514 30.7698 0.0000 0.0000 0.0000
# 3 30.7698 30.7698 78.0747 0.0000 0.0000 0.0000
# 4 0.0000 0.0000 0.0000 28.2349 0.0000 0.0000
# 5 0.0000 0.0000 0.0000 0.0000 28.2356 0.0000
# 6 0.0000 0.0000 0.0000 0.0000 0.0000 69.4543
#
#
#
# Elastic Compliance Matrix: (Units=1/GPa)
#
#
# Indices 1 2 3 4 5 6 
#
# 1 0.014922 -0.001416 -0.005323 0.000000 0.000000 0.000000
# 2 -0.001416 0.014922 -0.005323 0.000000 0.000000 0.000000
# 3 -0.005323 -0.005323 0.017004 0.000000 0.000000 0.000000
# 4 0.000000 0.000000 0.000000 0.035417 0.000000 0.000000
# 5 0.000000 0.000000 0.000000 0.000000 0.035416 0.000000
# 6 0.000000 0.000000 0.000000 0.000000 0.000000 0.014398
#
#
# Mechanical properties :
#
#
# Convention : Reuss Voigt Hill
#
# Bulk Modulus (GPa) = 44.00547 44.19374 44.09961
# Shear Modulus (GPa) = 30.52924 35.68442 33.10683
#
# Velocity S-wave (km/s) = 4.02830 4.35515 4.19491
# Velocity P-wave (km/s) = 6.71018 6.98427 6.84859
#
# Compressibility (1/GPa) = 0.02272445
#
# Stress axis : x y z
#
# Youngs Moduli (GPa) = 67.01399 67.01570 58.81068
#
# Poissons Ratio (x) = 0.09491 0.31304
# Poissons Ratio (y) = 0.09490 0.31303
# Poissons Ratio (z) = 0.35670 0.35670
#
# Static dielectric constant tensor:
#      x y z
#    x 3.484930 0.000000 0.000000 
#    y 0.000000 3.484880 0.000000 
#    z 0.000000 0.000000 3.577700 
# 
# 
# High freq. dielectric constant tensor:
#      x y z
#    x 1.727550 0.000000 0.000000 
#    y 0.000000 1.727550 0.000000 
#    z 0.000000 0.000000 1.734900 
# 
# From -- ./inp_files/10670.got.cif
#   From: 2010.06.25/outbox.cif.g09.slc.cpg/sg140_6_cif.got.tgz:10670.got - 2010.06.28 10:53:23.
