data_PCOD8320883
_publ_section_title
;
Structure prediction by ZEFSAII (Michael W. Deem and Ramdas Pophale) SiO2 
 PCOD8320883
Probable space group: I 41/A M D
;
_chemical_formula_sum "Si O2"
_cell_formula_units_Z 68
_cell_length_a 22.825904
_cell_length_b 22.825904
_cell_length_c 6.767500
_cell_angle_alpha 90.000000
_cell_angle_beta 90.000000
_cell_angle_gamma 90.000000
_cell_volume 3526.015664
_symmetry_space_group_name_H-M "I 41/A M D"
_symmetry_group_IT_number 141
_space_group.IT_coordinate_system_code '2'
_symmetry_cell_setting 'tetragonal'
loop_
_space_group_symop_operation_xyz
x,y,z
1/4-y,3/4+x,1/4+z
-x,1/2-y,z
1/4+y,1/4-x,3/4+z
x,-y,-z
-x,1/2+y,-z
1/4+y,3/4+x,1/4-z
1/4-y,1/4-x,3/4-z
-x,-y,-z
3/4+y,1/4-x,3/4-z
x,1/2+y,-z
3/4-y,3/4+x,1/4-z
-x,y,z
x,1/2-y,z
3/4-y,1/4-x,3/4+z
3/4+y,3/4+x,1/4+z
1/2+x,1/2+y,1/2+z
3/4-y,1/4+x,3/4+z
1/2-x,-y,1/2+z
3/4+y,3/4-x,1/4+z
1/2+x,1/2-y,1/2-z
1/2-x,y,1/2-z
3/4+y,1/4+x,3/4-z
3/4-y,3/4-x,1/4-z
1/2-x,1/2-y,1/2-z
1/4+y,3/4-x,1/4-z
1/2+x,y,1/2-z
1/4-y,1/4+x,3/4-z
1/2-x,1/2+y,1/2+z
1/2+x,-y,1/2+z
1/4-y,3/4-x,1/4+z
1/4+y,1/4+x,3/4+z
loop_
_atom_site_type_symbol
_atom_site_label
_atom_site_fract_x
_atom_site_fract_y
_atom_site_fract_z
Si Si1 0.500000 0.750000 0.375000
Si Si2 0.688243 0.750000 0.149775
Si Si3 0.623186 0.250000 0.455644
Si Si4 0.406969 0.433850 0.068547
O O1 0.500000 0.696931 0.215890
O O2 0.750000 0.750000 0.250000
O O3 0.638838 0.750000 0.314305
O O4 0.682413 0.807305 0.019269
O O5 0.647934 0.191765 0.349975
O O6 0.345170 0.404831 0.125000
O O7 0.395696 0.500000 0.000000
#
# Coordination Sequence:
#
# PCOD8320883 Si02
#       4
#     4  16  16  32
#     4  12  24  36  66 100 132 158 200 256 330 392
#     4  11  19  41  68  88 116 167 214 251 318 389
#     4  11  22  42  62  95 126 161 205 256 320 386
#     4  11  23  40  63  90 125 164 212 261 314 372
#
# _framework density 19.285222999999998
#
# number of rings (size 3 to 8) (size 9 to 14) (size 15 to 20)
#    0.000    0.941    4.706    4.235    0.000    1.882 
#    0.000    7.059    0.000    0.000    0.000    0.000 
#    0.000    0.000    0.000    0.000    0.000    0.000 
#
# Total GULP energy -421621.613382 kJ/mol
# GULP energy per Si atom -12400.635688 kJ/mol
# Density = 1.924133 g / cm^3
# Si number density = 19.285223 Si / 1000 Ang^3
#
#
#
# Elastic Constant Matrix: (Units=GPa)
#
#
# Indices 1 2 3 4 5 6 
#
# 1 162.4253 72.1721 62.9159 0.0000 0.0000 0.0000
# 2 72.1721 162.4190 62.9149 0.0000 0.0000 0.0000
# 3 62.9159 62.9149 143.8496 0.0000 0.0000 0.0000
# 4 0.0000 0.0000 0.0000 18.8646 0.0000 0.0000
# 5 0.0000 0.0000 0.0000 0.0000 18.8599 0.0000
# 6 0.0000 0.0000 0.0000 0.0000 0.0000 31.6906
#
#
#
# Elastic Compliance Matrix: (Units=1/GPa)
#
#
# Indices 1 2 3 4 5 6 
#
# 1 0.008325 -0.002756 -0.002436 0.000000 0.000000 0.000000
# 2 -0.002756 0.008325 -0.002436 0.000000 0.000000 0.000000
# 3 -0.002436 -0.002436 0.009082 0.000000 0.000000 0.000000
# 4 0.000000 0.000000 0.000000 0.053009 0.000000 0.000000
# 5 0.000000 0.000000 0.000000 0.000000 0.053023 0.000000
# 6 0.000000 0.000000 0.000000 0.000000 0.000000 0.031555
#
#
# Mechanical properties :
#
#
# Convention : Reuss Voigt Hill
#
# Bulk Modulus (GPa) = 95.44180 96.07773 95.75977
# Shear Modulus (GPa) = 27.46263 31.92910 29.69587
#
# Velocity S-wave (km/s) = 3.77772 4.07335 3.92832
# Velocity P-wave (km/s) = 8.28404 8.48825 8.38677
#
# Compressibility (1/GPa) = 0.01047759
#
# Stress axis : x y z
#
# Youngs Moduli (GPa) = 120.12613 120.12125 110.10329
#
# Poissons Ratio (x) = 0.33100 0.26818
# Poissons Ratio (y) = 0.33102 0.26819
# Poissons Ratio (z) = 0.29260 0.29259
#
# Static dielectric constant tensor:
#      x y z
#    x 3.571700 0.000000 0.000000 
#    y 0.000000 3.571710 0.000000 
#    z 0.000000 0.000000 2.763180 
# 
# 
# High freq. dielectric constant tensor:
#      x y z
#    x 1.750840 0.000000 0.000000 
#    y 0.000000 1.750840 0.000000 
#    z 0.000000 0.000000 1.767300 
# 
# From -- ./inp_files/915.got.cif
#   From: 2010.03.12/outbox.cif.g09.slc.cpg/sg141_1_cif.got.tgz:915.got - 2010.04.03 13:18:35.
