data_PCOD8320686
_publ_section_title
;
Structure prediction by ZEFSAII (Michael W. Deem and Ramdas Pophale) SiO2 
 PCOD8320686
Probable space group: I 41/A M D
;
_chemical_formula_sum "Si O2"
_cell_formula_units_Z 128
_cell_length_a 15.794226
_cell_length_b 15.794226
_cell_length_c 26.547908
_cell_angle_alpha 90.000000
_cell_angle_beta 90.000000
_cell_angle_gamma 90.000000
_cell_volume 6622.576749
_symmetry_space_group_name_H-M "I 41/A M D"
_symmetry_group_IT_number 141
_space_group.IT_coordinate_system_code '2'
_symmetry_cell_setting 'tetragonal'
loop_
_space_group_symop_operation_xyz
x,y,z
1/4-y,3/4+x,1/4+z
-x,1/2-y,z
1/4+y,1/4-x,3/4+z
x,-y,-z
-x,1/2+y,-z
1/4+y,3/4+x,1/4-z
1/4-y,1/4-x,3/4-z
-x,-y,-z
3/4+y,1/4-x,3/4-z
x,1/2+y,-z
3/4-y,3/4+x,1/4-z
-x,y,z
x,1/2-y,z
3/4-y,1/4-x,3/4+z
3/4+y,3/4+x,1/4+z
1/2+x,1/2+y,1/2+z
3/4-y,1/4+x,3/4+z
1/2-x,-y,1/2+z
3/4+y,3/4-x,1/4+z
1/2+x,1/2-y,1/2-z
1/2-x,y,1/2-z
3/4+y,1/4+x,3/4-z
3/4-y,3/4-x,1/4-z
1/2-x,1/2-y,1/2-z
1/4+y,3/4-x,1/4-z
1/2+x,y,1/2-z
1/4-y,1/4+x,3/4-z
1/2-x,1/2+y,1/2+z
1/2+x,-y,1/2+z
1/4-y,3/4-x,1/4+z
1/4+y,1/4+x,3/4+z
loop_
_atom_site_type_symbol
_atom_site_label
_atom_site_fract_x
_atom_site_fract_y
_atom_site_fract_z
Si Si1 0.269054 0.652186 0.387751
Si Si2 0.171736 0.844857 0.287495
Si Si3 0.899374 0.344279 0.318643
Si Si4 0.738730 0.652394 0.002240
O O1 0.293922 0.750000 0.392912
O O2 0.355773 0.605773 0.375000
O O3 0.198948 0.638079 0.344982
O O4 0.234555 0.615517 0.440990
O O5 0.131521 0.750000 0.283007
O O6 0.250000 0.851682 0.250000
O O7 0.106803 0.918099 0.272254
O O8 0.875795 0.374206 0.375000
O O9 0.862723 0.250000 0.306749
O O10 0.858814 0.414139 0.280762
O O11 0.000000 0.340651 0.314136
O O12 0.716914 0.750000 0.004422
#
# Coordination Sequence:
#
# PCOD8320686 Si02
#       4
#    32  32  32  32
#     4  10  20  34  51  75 103 135 178 222 269 323
#     4  10  20  35  52  73 104 139 175 217 269 321
#     4   8  15  31  55  81 109 140 174 217 269 324
#     4  10  20  34  55  81 105 136 182 223 264 324
#
# _framework density 19.327824
#
# number of rings (size 3 to 8) (size 9 to 14) (size 15 to 20)
#    0.000    2.500    2.500    0.750    0.000    1.750 
#    0.000    3.750    0.000    5.250    0.000    0.000 
#    0.000    0.000    0.000    0.000    0.000    0.000 
#
# Total GULP energy -793154.182536 kJ/mol
# GULP energy per Si atom -12393.034102 kJ/mol
# Density = 1.928383 g / cm^3
# Si number density = 19.327824 Si / 1000 Ang^3
#
#
#
# Elastic Constant Matrix: (Units=GPa)
#
#
# Indices 1 2 3 4 5 6 
#
# 1 56.2392 12.8223 51.0865 0.0000 0.0000 0.0000
# 2 12.8223 56.2390 51.0863 0.0000 0.0000 0.0000
# 3 51.0865 51.0863 179.7933 0.0000 0.0000 0.0000
# 4 0.0000 0.0000 0.0000 25.9349 0.0000 0.0000
# 5 0.0000 0.0000 0.0000 0.0000 25.9349 0.0000
# 6 0.0000 0.0000 0.0000 0.0000 0.0000 23.4164
#
#
#
# Elastic Compliance Matrix: (Units=1/GPa)
#
#
# Indices 1 2 3 4 5 6 
#
# 1 0.024007 0.000974 -0.007098 0.000000 0.000000 0.000000
# 2 0.000974 0.024007 -0.007098 0.000000 0.000000 0.000000
# 3 -0.007098 -0.007098 0.009596 0.000000 0.000000 0.000000
# 4 0.000000 0.000000 0.000000 0.038558 0.000000 0.000000
# 5 0.000000 0.000000 0.000000 0.000000 0.038558 0.000000
# 6 0.000000 0.000000 0.000000 0.000000 0.000000 0.042705
#
#
# Mechanical properties :
#
#
# Convention : Reuss Voigt Hill
#
# Bulk Modulus (GPa) = 32.08677 58.02908 45.05792
# Shear Modulus (GPa) = 23.33578 26.87566 25.10572
#
# Velocity S-wave (km/s) = 3.47849 3.73301 3.60799
# Velocity P-wave (km/s) = 5.72456 6.97633 6.38121
#
# Compressibility (1/GPa) = 0.03116550
#
# Stress axis : x y z
#
# Youngs Moduli (GPa) = 41.65478 41.65461 104.21356
#
# Poissons Ratio (x) = -0.04059 0.73972
# Poissons Ratio (y) = -0.04059 0.73972
# Poissons Ratio (z) = 0.29567 0.29567
#
# Static dielectric constant tensor:
#      x y z
#    x 3.407040 0.000000 0.000000 
#    y 0.000000 3.407040 0.000000 
#    z 0.000000 0.000000 4.196730 
# 
# 
# High freq. dielectric constant tensor:
#      x y z
#    x 1.727930 0.000000 0.000000 
#    y 0.000000 1.727930 0.000000 
#    z 0.000000 0.000000 1.771270 
# 
# From -- ./inp_files/11353.got.cif
#   From: 2010.03.12/outbox.cif.g09.slc.cpg/sg141_6_cif.got.tgz:11353.got - 2010.04.03 13:18:35.
