data_PCOD8320834
_publ_section_title
;
Structure prediction by ZEFSAII (Michael W. Deem and Ramdas Pophale) SiO2 
 PCOD8320834
Probable space group: I 41/A M D
;
_chemical_formula_sum "Si O2"
_cell_formula_units_Z 144
_cell_length_a 17.717587
_cell_length_b 17.717587
_cell_length_c 22.510389
_cell_angle_alpha 90.000000
_cell_angle_beta 90.000000
_cell_angle_gamma 90.000000
_cell_volume 7066.301246
_symmetry_space_group_name_H-M "I 41/A M D"
_symmetry_group_IT_number 141
_space_group.IT_coordinate_system_code '2'
_symmetry_cell_setting 'tetragonal'
loop_
_space_group_symop_operation_xyz
x,y,z
1/4-y,3/4+x,1/4+z
-x,1/2-y,z
1/4+y,1/4-x,3/4+z
x,-y,-z
-x,1/2+y,-z
1/4+y,3/4+x,1/4-z
1/4-y,1/4-x,3/4-z
-x,-y,-z
3/4+y,1/4-x,3/4-z
x,1/2+y,-z
3/4-y,3/4+x,1/4-z
-x,y,z
x,1/2-y,z
3/4-y,1/4-x,3/4+z
3/4+y,3/4+x,1/4+z
1/2+x,1/2+y,1/2+z
3/4-y,1/4+x,3/4+z
1/2-x,-y,1/2+z
3/4+y,3/4-x,1/4+z
1/2+x,1/2-y,1/2-z
1/2-x,y,1/2-z
3/4+y,1/4+x,3/4-z
3/4-y,3/4-x,1/4-z
1/2-x,1/2-y,1/2-z
1/4+y,3/4-x,1/4-z
1/2+x,y,1/2-z
1/4-y,1/4+x,3/4-z
1/2-x,1/2+y,1/2+z
1/2+x,-y,1/2+z
1/4-y,3/4-x,1/4+z
1/4+y,1/4+x,3/4+z
loop_
_atom_site_type_symbol
_atom_site_label
_atom_site_fract_x
_atom_site_fract_y
_atom_site_fract_z
Si Si1 0.915699 0.834302 0.125000
Si Si2 0.913928 0.068851 0.333179
Si Si3 0.348839 0.660326 0.600040
Si Si4 0.163219 0.599555 0.229830
Si Si5 0.304868 0.837106 0.048778
O O1 0.905193 0.750000 0.098451
O O2 0.852678 0.842335 0.176629
O O3 0.881487 0.131487 0.375000
O O4 0.900420 0.093919 0.265264
O O5 0.000000 0.062304 0.349132
O O6 0.879824 0.987134 0.349120
O O7 0.358497 0.750000 0.610346
O O8 0.378545 0.638104 0.534743
O O9 0.392144 0.615393 0.651211
O O10 0.250000 0.598531 0.250000
O O11 0.139038 0.519144 0.201410
O O12 0.280091 0.750000 0.056611
#
# Coordination Sequence:
#
# PCOD8320834 Si02
#       5
#    16  32  32  32  32
#     4  11  24  42  64  92 130 168 204 255 312 368
#     4   9  20  36  55  81 117 157 202 261 316 369
#     4  10  22  38  59  88 124 163 205 258 313 370
#     4  11  23  39  65  94 122 163 209 256 307 368
#     4  10  22  39  60  89 124 158 202 260 307 364
#
# _framework density 20.378412000000001
#
# number of rings (size 3 to 8) (size 9 to 14) (size 15 to 20)
#    0.000    1.889    0.000    4.667    6.222    2.889 
#    0.000    4.444    0.000    0.000    0.000    0.000 
#    0.000    0.000    0.000    0.000    0.000    0.000 
#
# Total GULP energy -892465.134681 kJ/mol
# GULP energy per Si atom -12395.349093 kJ/mol
# Density = 2.033203 g / cm^3
# Si number density = 20.378412 Si / 1000 Ang^3
#
#
#
# Elastic Constant Matrix: (Units=GPa)
#
#
# Indices 1 2 3 4 5 6 
#
# 1 108.6278 4.8398 57.8316 0.0000 0.0000 0.0000
# 2 4.8398 108.6270 57.8328 0.0000 0.0000 0.0000
# 3 57.8316 57.8328 120.3451 0.0000 0.0000 0.0000
# 4 0.0000 0.0000 0.0000 36.4082 0.0000 0.0000
# 5 0.0000 0.0000 0.0000 0.0000 36.4071 0.0000
# 6 0.0000 0.0000 0.0000 0.0000 0.0000 27.4827
#
#
#
# Elastic Compliance Matrix: (Units=1/GPa)
#
#
# Indices 1 2 3 4 5 6 
#
# 1 0.013455 0.003820 -0.008302 0.000000 0.000000 0.000000
# 2 0.003820 0.013456 -0.008302 0.000000 0.000000 0.000000
# 3 -0.008302 -0.008302 0.016289 0.000000 0.000000 0.000000
# 4 0.000000 0.000000 0.000000 0.027466 0.000000 0.000000
# 5 0.000000 0.000000 0.000000 0.000000 0.027467 0.000000
# 6 0.000000 0.000000 0.000000 0.000000 0.000000 0.036386
#
#
# Mechanical properties :
#
#
# Convention : Reuss Voigt Hill
#
# Bulk Modulus (GPa) = 56.71394 64.28980 60.50187
# Shear Modulus (GPa) = 30.12703 34.53265 32.32984
#
# Velocity S-wave (km/s) = 3.84914 4.12098 3.98738
# Velocity P-wave (km/s) = 6.90256 7.36613 7.13811
#
# Compressibility (1/GPa) = 0.01763235
#
# Stress axis : x y z
#
# Youngs Moduli (GPa) = 74.32023 74.31841 61.39299
#
# Poissons Ratio (x) = -0.28393 0.50967
# Poissons Ratio (y) = -0.28393 0.50969
# Poissons Ratio (z) = 0.61699 0.61700
#
# Static dielectric constant tensor:
#      x y z
#    x 3.675290 0.000000 0.000000 
#    y 0.000000 3.675310 0.000000 
#    z 0.000000 0.000000 3.823390 
# 
# 
# High freq. dielectric constant tensor:
#      x y z
#    x 1.791410 0.000000 0.000000 
#    y 0.000000 1.791410 0.000000 
#    z 0.000000 0.000000 1.808910 
# 
# From -- ./inp_files/11432.got.cif
#   From: 2010.03.12/outbox.cif.g09.slc.cpg/sg141_6_cif.got.tgz:11432.got - 2010.04.03 13:18:35.
