data_PCOD8320583
_publ_section_title
;
Structure prediction by ZEFSAII (Michael W. Deem and Ramdas Pophale) SiO2 
 PCOD8320583
Probable space group: I 41/A M D
;
_chemical_formula_sum "Si O2"
_cell_formula_units_Z 160
_cell_length_a 22.600079
_cell_length_b 22.600079
_cell_length_c 17.600534
_cell_angle_alpha 90.000000
_cell_angle_beta 90.000000
_cell_angle_gamma 90.000000
_cell_volume 8989.711594
_symmetry_space_group_name_H-M "I 41/A M D"
_symmetry_group_IT_number 141
_space_group.IT_coordinate_system_code '2'
_symmetry_cell_setting 'tetragonal'
loop_
_space_group_symop_operation_xyz
x,y,z
1/4-y,3/4+x,1/4+z
-x,1/2-y,z
1/4+y,1/4-x,3/4+z
x,-y,-z
-x,1/2+y,-z
1/4+y,3/4+x,1/4-z
1/4-y,1/4-x,3/4-z
-x,-y,-z
3/4+y,1/4-x,3/4-z
x,1/2+y,-z
3/4-y,3/4+x,1/4-z
-x,y,z
x,1/2-y,z
3/4-y,1/4-x,3/4+z
3/4+y,3/4+x,1/4+z
1/2+x,1/2+y,1/2+z
3/4-y,1/4+x,3/4+z
1/2-x,-y,1/2+z
3/4+y,3/4-x,1/4+z
1/2+x,1/2-y,1/2-z
1/2-x,y,1/2-z
3/4+y,1/4+x,3/4-z
3/4-y,3/4-x,1/4-z
1/2-x,1/2-y,1/2-z
1/4+y,3/4-x,1/4-z
1/2+x,y,1/2-z
1/4-y,1/4+x,3/4-z
1/2-x,1/2+y,1/2+z
1/2+x,-y,1/2+z
1/4-y,3/4-x,1/4+z
1/4+y,1/4+x,3/4+z
loop_
_atom_site_type_symbol
_atom_site_label
_atom_site_fract_x
_atom_site_fract_y
_atom_site_fract_z
Si Si1 0.935936 0.055138 0.552339
Si Si2 0.569991 0.750000 0.190037
Si Si3 0.769514 0.819053 0.969419
Si Si4 0.140344 0.860528 0.539661
Si Si5 0.000000 0.320842 0.236091
Si Si6 0.108976 0.320356 0.956814
O O1 0.915013 0.034372 0.633749
O O2 0.883180 0.093095 0.520455
O O3 0.000000 0.089435 0.558096
O O4 0.947394 0.000000 0.500000
O O5 0.500000 0.750000 0.191512
O O6 0.591644 0.750000 0.102481
O O7 0.593307 0.809271 0.233073
O O8 0.759045 0.750000 0.981908
O O9 0.707693 0.850745 0.987629
O O10 0.825115 0.841385 0.019464
O O11 0.135622 0.885622 0.625000
O O12 0.098429 0.804188 0.531879
O O13 0.000000 0.250000 0.243433
O O14 0.105112 0.250000 0.951778
O O15 0.097759 0.347759 0.875000
#
# Coordination Sequence:
#
# PCOD8320583 Si02
#       6
#    32  16  32  32  16  32
#     4  10  20  36  59  81 108 147 199 242 282 340
#     4   9  18  34  55  91 120 144 179 239 301 352
#     4  10  21  38  57  85 118 157 192 236 296 357
#     4  12  23  35  57  81 115 156 196 240 280 346
#     4  11  24  34  51  84 124 151 178 236 309 341
#     4  10  18  32  62  90 118 145 190 243 294 357
#
# _framework density 17.798124000000001
#
# number of rings (size 3 to 8) (size 9 to 14) (size 15 to 20)
#    0.000    1.600    4.000    1.800    2.800    3.200 
#    0.000    0.000    4.400    4.800    0.000    0.000 
#    0.000    0.000    0.000    0.000    0.000    0.000 
#
# Total GULP energy -991580.783255 kJ/mol
# GULP energy per Si atom -12394.759791 kJ/mol
# Density = 1.775761 g / cm^3
# Si number density = 17.798124 Si / 1000 Ang^3
#
#
#
# Elastic Constant Matrix: (Units=GPa)
#
#
# Indices 1 2 3 4 5 6 
#
# 1 97.6305 49.7831 27.1846 0.0000 0.0000 0.0000
# 2 49.7831 97.6305 27.1846 0.0000 0.0000 0.0000
# 3 27.1846 27.1846 66.2263 0.0000 0.0000 0.0000
# 4 0.0000 0.0000 0.0000 24.1465 0.0000 0.0000
# 5 0.0000 0.0000 0.0000 0.0000 24.1465 0.0000
# 6 0.0000 0.0000 0.0000 0.0000 0.0000 29.2412
#
#
#
# Elastic Compliance Matrix: (Units=1/GPa)
#
#
# Indices 1 2 3 4 5 6 
#
# 1 0.014447 -0.006453 -0.003281 0.000000 0.000000 0.000000
# 2 -0.006453 0.014447 -0.003281 0.000000 0.000000 0.000000
# 3 -0.003281 -0.003281 0.017794 0.000000 0.000000 0.000000
# 4 0.000000 0.000000 0.000000 0.041414 0.000000 0.000000
# 5 0.000000 0.000000 0.000000 0.000000 0.041414 0.000000
# 6 0.000000 0.000000 0.000000 0.000000 0.000000 0.034198
#
#
# Mechanical properties :
#
#
# Convention : Reuss Voigt Hill
#
# Bulk Modulus (GPa) = 48.41205 52.19906 50.30556
# Shear Modulus (GPa) = 25.42851 25.99586 25.71219
#
# Velocity S-wave (km/s) = 3.78394 3.82592 3.80499
# Velocity P-wave (km/s) = 6.80813 6.99349 6.90143
#
# Compressibility (1/GPa) = 0.02065601
#
# Stress axis : x y z
#
# Youngs Moduli (GPa) = 69.21939 69.21939 56.20010
#
# Poissons Ratio (x) = 0.44667 0.18441
# Poissons Ratio (y) = 0.44667 0.18441
# Poissons Ratio (z) = 0.22713 0.22713
#
# Static dielectric constant tensor:
#      x y z
#    x 3.547420 0.000000 0.000000 
#    y 0.000000 3.547420 0.000000 
#    z 0.000000 0.000000 3.380530 
# 
# 
# High freq. dielectric constant tensor:
#      x y z
#    x 1.674470 0.000000 0.000000 
#    y 0.000000 1.674470 0.000000 
#    z 0.000000 0.000000 1.695680 
# 
# From -- ./inp_files/8647.got.cif
#   From: 2010.03.12/outbox.cif.g09.slc.cpg/sg141_5_cif.got.tgz:8647.got - 2010.04.03 13:18:35.
