data_PCOD8320332
_publ_section_title
;
Structure prediction by ZEFSAII (Michael W. Deem and Ramdas Pophale) SiO2 
 PCOD8320332
Probable space group: I 4/M C M
;
_chemical_formula_sum "Si O2"
_cell_formula_units_Z 192
_cell_length_a 20.508498
_cell_length_b 20.508498
_cell_length_c 25.802475
_cell_angle_alpha 90.000000
_cell_angle_beta 90.000000
_cell_angle_gamma 90.000000
_cell_volume 10852.482029
_symmetry_space_group_name_H-M "I 4/M C M"
_symmetry_group_IT_number 140
_symmetry_cell_setting 'tetragonal'
loop_
_space_group_symop_operation_xyz
x,y,z
-y,x,z
-x,-y,z
y,-x,z
x,-y,1/2-z
-x,y,1/2-z
y,x,1/2-z
-y,-x,1/2-z
-x,-y,-z
y,-x,-z
x,y,-z
-y,x,-z
-x,y,1/2+z
x,-y,1/2+z
-y,-x,1/2+z
y,x,1/2+z
1/2+x,1/2+y,1/2+z
1/2-y,1/2+x,1/2+z
1/2-x,1/2-y,1/2+z
1/2+y,1/2-x,1/2+z
1/2+x,1/2-y,-z
1/2-x,1/2+y,-z
1/2+y,1/2+x,-z
1/2-y,1/2-x,-z
1/2-x,1/2-y,1/2-z
1/2+y,1/2-x,1/2-z
1/2+x,1/2+y,1/2-z
1/2-y,1/2+x,1/2-z
1/2-x,1/2+y,z
1/2+x,1/2-y,z
1/2-y,1/2-x,z
1/2+y,1/2+x,z
loop_
_atom_site_type_symbol
_atom_site_label
_atom_site_fract_x
_atom_site_fract_y
_atom_site_fract_z
Si Si1 0.687421 0.082857 0.386978
Si Si2 0.995120 0.898610 0.688428
Si Si3 0.990658 0.755176 0.810852
Si Si4 0.039271 0.359642 0.060565
Si Si5 0.127990 0.734506 0.378526
Si Si6 0.784139 0.174669 0.441204
O O1 0.642944 0.142944 0.368392
O O2 0.751373 0.109906 0.416639
O O3 0.704587 0.039863 0.336986
O O4 0.644634 0.036341 0.424076
O O5 0.061249 0.932805 0.667904
O O6 0.000000 0.898104 0.750000
O O7 0.988548 0.825847 0.667642
O O8 0.914516 0.746696 0.826445
O O9 0.000000 0.746750 0.750000
O O10 0.073672 0.426329 0.081837
O O11 0.079267 0.297127 0.080077
O O12 0.044354 0.358445 0.000000
O O13 0.186857 0.686857 0.362561
O O14 0.156416 0.800772 0.404501
O O15 0.808461 0.158945 0.500000
O O16 0.731451 0.231451 0.444425
#
# Coordination Sequence:
#
# PCOD8320332 Si02
#       6
#    32  32  32  32  32  32
#     4  10  21  34  48  73 105 134 171 212 256 312
#     4   8  15  29  49  71  92 117 156 206 252 290
#     4  10  21  34  51  73 100 137 176 216 255 293
#     4   9  17  31  52  75  99 128 165 212 260 304
#     4   9  18  32  50  74 102 134 174 210 248 307
#     4   9  17  31  52  76 104 135 165 207 263 318
#
# _framework density 17.691806
#
# number of rings (size 3 to 8) (size 9 to 14) (size 15 to 20)
#    0.000    2.833    0.000    1.500    2.333    4.000 
#    0.000    0.833    0.000    3.000    0.000    2.333 
#    0.000    1.333    0.000    0.000    0.000    0.000 
#
# Total GULP energy -1189750.078555 kJ/mol
# GULP energy per Si atom -12393.229985 kJ/mol
# Density = 1.765154 g / cm^3
# Si number density = 17.691806 Si / 1000 Ang^3
#
#
#
# Elastic Constant Matrix: (Units=GPa)
#
#
# Indices 1 2 3 4 5 6 
#
# 1 89.9409 36.3897 39.4529 0.0000 0.0000 0.0000
# 2 36.3897 89.9409 39.4529 0.0000 0.0000 0.0000
# 3 39.4529 39.4529 86.9795 0.0000 0.0000 0.0000
# 4 0.0000 0.0000 0.0000 20.6576 0.0000 0.0000
# 5 0.0000 0.0000 0.0000 0.0000 20.6576 0.0000
# 6 0.0000 0.0000 0.0000 0.0000 0.0000 26.1301
#
#
#
# Elastic Compliance Matrix: (Units=1/GPa)
#
#
# Indices 1 2 3 4 5 6 
#
# 1 0.014859 -0.003814 -0.005010 0.000000 0.000000 0.000000
# 2 -0.003814 0.014859 -0.005010 0.000000 0.000000 0.000000
# 3 -0.005010 -0.005010 0.016042 0.000000 0.000000 0.000000
# 4 0.000000 0.000000 0.000000 0.048408 0.000000 0.000000
# 5 0.000000 0.000000 0.000000 0.000000 0.048408 0.000000
# 6 0.000000 0.000000 0.000000 0.000000 0.000000 0.038270
#
#
# Mechanical properties :
#
#
# Convention : Reuss Voigt Hill
#
# Bulk Modulus (GPa) = 55.27247 55.27248 55.27248
# Shear Modulus (GPa) = 23.30502 23.59344 23.44923
#
# Velocity S-wave (km/s) = 3.63337 3.65578 3.64459
# Velocity P-wave (km/s) = 6.99368 7.00923 7.00146
#
# Compressibility (1/GPa) = 0.01809219
#
# Stress axis : x y z
#
# Youngs Moduli (GPa) = 67.29792 67.29792 62.33729
#
# Poissons Ratio (x) = 0.25670 0.31230
# Poissons Ratio (y) = 0.25670 0.31230
# Poissons Ratio (z) = 0.33715 0.33715
#
# Static dielectric constant tensor:
#      x y z
#    x 3.456180 0.000000 0.000000 
#    y 0.000000 3.456180 0.000000 
#    z 0.000000 0.000000 3.024660 
# 
# 
# High freq. dielectric constant tensor:
#      x y z
#    x 1.683760 0.000000 0.000000 
#    y 0.000000 1.683760 0.000000 
#    z 0.000000 0.000000 1.658590 
# 
# From -- ./inp_files/9803.got.cif
#   From: 2010.06.25/outbox.cif.g09.slc.cpg/sg140_5_cif.got.tgz:9803.got - 2010.06.28 10:53:23.
