data_PCOD8320634
_publ_section_title
;
Structure prediction by ZEFSAII (Michael W. Deem and Ramdas Pophale) SiO2 
 PCOD8320634
Probable space group: I 41/A M D
;
_chemical_formula_sum "Si O2"
_cell_formula_units_Z 160
_cell_length_a 17.646121
_cell_length_b 17.646121
_cell_length_c 25.995669
_cell_angle_alpha 90.000000
_cell_angle_beta 90.000000
_cell_angle_gamma 90.000000
_cell_volume 8094.676634
_symmetry_space_group_name_H-M "I 41/A M D"
_symmetry_group_IT_number 141
_space_group.IT_coordinate_system_code '2'
_symmetry_cell_setting 'tetragonal'
loop_
_space_group_symop_operation_xyz
x,y,z
1/4-y,3/4+x,1/4+z
-x,1/2-y,z
1/4+y,1/4-x,3/4+z
x,-y,-z
-x,1/2+y,-z
1/4+y,3/4+x,1/4-z
1/4-y,1/4-x,3/4-z
-x,-y,-z
3/4+y,1/4-x,3/4-z
x,1/2+y,-z
3/4-y,3/4+x,1/4-z
-x,y,z
x,1/2-y,z
3/4-y,1/4-x,3/4+z
3/4+y,3/4+x,1/4+z
1/2+x,1/2+y,1/2+z
3/4-y,1/4+x,3/4+z
1/2-x,-y,1/2+z
3/4+y,3/4-x,1/4+z
1/2+x,1/2-y,1/2-z
1/2-x,y,1/2-z
3/4+y,1/4+x,3/4-z
3/4-y,3/4-x,1/4-z
1/2-x,1/2-y,1/2-z
1/4+y,3/4-x,1/4-z
1/2+x,y,1/2-z
1/4-y,1/4+x,3/4-z
1/2-x,1/2+y,1/2+z
1/2+x,-y,1/2+z
1/4-y,3/4-x,1/4+z
1/4+y,1/4+x,3/4+z
loop_
_atom_site_type_symbol
_atom_site_label
_atom_site_fract_x
_atom_site_fract_y
_atom_site_fract_z
Si Si1 0.827896 0.963151 0.358923
Si Si2 0.177868 0.337581 0.213839
Si Si3 0.916205 0.519455 0.084749
Si Si4 0.793935 0.335133 0.475653
Si Si5 0.083370 0.912836 0.194907
O O1 0.881175 0.942062 0.406701
O O2 0.802586 0.889465 0.325059
O O3 0.746930 0.996930 0.375000
O O4 0.867582 0.029118 0.325941
O O5 0.153325 0.250000 0.209334
O O6 0.250000 0.347671 0.250000
O O7 0.111813 0.384422 0.241296
O O8 0.913192 0.533607 0.145437
O O9 0.896126 0.597221 0.054541
O O10 0.000000 0.495237 0.066526
O O11 0.811726 0.250000 0.458852
O O12 0.716353 0.342037 0.506498
O O13 0.000000 0.871821 0.196249
#
# Coordination Sequence:
#
# PCOD8320634 Si02
#       5
#    32  32  32  32  32
#     4  12  21  37  62  90 121 159 203 252 296 354
#     4  11  23  39  62  90 119 155 199 245 299 360
#     4  10  19  33  57  86 115 155 203 244 294 359
#     4  11  23  40  63  88 119 159 203 251 303 360
#     4   9  18  34  55  82 116 154 197 244 298 356
#
# _framework density 19.766076999999999
#
# number of rings (size 3 to 8) (size 9 to 14) (size 15 to 20)
#    0.000    1.400    6.000    0.600    0.000    0.800 
#    0.000    4.000    0.000    3.000    0.000    0.000 
#    0.000    0.000    0.000    0.000    0.000    0.000 
#
# Total GULP energy -991693.443232 kJ/mol
# GULP energy per Si atom -12396.168040 kJ/mol
# Density = 1.972109 g / cm^3
# Si number density = 19.766077 Si / 1000 Ang^3
#
#
#
# Elastic Constant Matrix: (Units=GPa)
#
#
# Indices 1 2 3 4 5 6 
#
# 1 113.2382 55.8255 34.4758 0.0000 0.0000 0.0000
# 2 55.8255 113.2382 34.4758 0.0000 0.0000 0.0000
# 3 34.4758 34.4758 58.7515 0.0000 0.0000 0.0000
# 4 0.0000 0.0000 0.0000 14.9508 0.0000 0.0000
# 5 0.0000 0.0000 0.0000 0.0000 14.9508 0.0000
# 6 0.0000 0.0000 0.0000 0.0000 0.0000 25.2000
#
#
#
# Elastic Compliance Matrix: (Units=1/GPa)
#
#
# Indices 1 2 3 4 5 6 
#
# 1 0.012597 -0.004821 -0.004563 0.000000 0.000000 0.000000
# 2 -0.004821 0.012597 -0.004563 0.000000 0.000000 0.000000
# 3 -0.004563 -0.004563 0.022376 0.000000 0.000000 0.000000
# 4 0.000000 0.000000 0.000000 0.066886 0.000000 0.000000
# 5 0.000000 0.000000 0.000000 0.000000 0.066886 0.000000
# 6 0.000000 0.000000 0.000000 0.000000 0.000000 0.039683
#
#
# Mechanical properties :
#
#
# Convention : Reuss Voigt Hill
#
# Bulk Modulus (GPa) = 50.82343 59.42027 55.12185
# Shear Modulus (GPa) = 19.57123 21.71701 20.64412
#
# Velocity S-wave (km/s) = 3.15007 3.31826 3.23526
# Velocity P-wave (km/s) = 6.24490 6.69389 6.47329
#
# Compressibility (1/GPa) = 0.01967597
#
# Stress axis : x y z
#
# Youngs Moduli (GPa) = 79.38509 79.38509 44.69075
#
# Poissons Ratio (x) = 0.38271 0.20392
# Poissons Ratio (y) = 0.38271 0.20392
# Poissons Ratio (z) = 0.36223 0.36223
#
# Static dielectric constant tensor:
#      x y z
#    x 3.643170 0.000000 0.000000 
#    y 0.000000 3.643170 0.000000 
#    z 0.000000 0.000000 3.458040 
# 
# 
# High freq. dielectric constant tensor:
#      x y z
#    x 1.766280 0.000000 0.000000 
#    y 0.000000 1.766280 0.000000 
#    z 0.000000 0.000000 1.765520 
# 
# From -- ./inp_files/12731.got.cif
#   From: 2010.03.12/outbox.cif.g09.slc.cpg/sg141_7_cif.got.tgz:12731.got - 2010.04.03 13:18:35.
