data_PCOD8320978
_publ_section_title
;
Structure prediction by ZEFSAII (Michael W. Deem and Ramdas Pophale) SiO2 
 PCOD8320978
Probable space group: I 41/A C D
;
_chemical_formula_sum "Si O2"
_cell_formula_units_Z 88
_cell_length_a 21.842141
_cell_length_b 21.842141
_cell_length_c 9.094535
_cell_angle_alpha 90.000000
_cell_angle_beta 90.000000
_cell_angle_gamma 90.000000
_cell_volume 4338.812786
_symmetry_space_group_name_H-M "I 41/A C D"
_symmetry_group_IT_number 142
_space_group.IT_coordinate_system_code '2'
_symmetry_cell_setting 'tetragonal'
loop_
_space_group_symop_operation_xyz
x,y,z
1/4-y,3/4+x,1/4+z
-x,1/2-y,z
1/4+y,1/4-x,3/4+z
x,-y,1/2-z
1/2-x,y,-z
3/4+y,1/4+x,1/4-z
1/4-y,1/4-x,1/4-z
-x,-y,-z
3/4+y,1/4-x,3/4-z
x,1/2+y,-z
3/4-y,3/4+x,1/4-z
-x,y,1/2+z
1/2+x,-y,z
1/4-y,3/4-x,3/4+z
3/4+y,3/4+x,3/4+z
1/2+x,1/2+y,1/2+z
3/4-y,1/4+x,3/4+z
1/2-x,-y,1/2+z
3/4+y,3/4-x,1/4+z
1/2+x,1/2-y,-z
-x,1/2+y,1/2-z
1/4+y,3/4+x,3/4-z
3/4-y,3/4-x,3/4-z
1/2-x,1/2-y,1/2-z
1/4+y,3/4-x,1/4-z
1/2+x,y,1/2-z
1/4-y,1/4+x,3/4-z
1/2-x,1/2+y,z
x,1/2-y,1/2+z
3/4-y,1/4-x,1/4+z
1/4+y,1/4+x,1/4+z
loop_
_atom_site_type_symbol
_atom_site_label
_atom_site_fract_x
_atom_site_fract_y
_atom_site_fract_z
Si Si1 0.500000 0.250000 0.375000
Si Si2 0.750000 0.927214 0.500000
Si Si3 0.580585 0.596702 0.316470
Si Si4 0.028690 0.124260 0.503237
O O1 0.440214 0.251816 0.274937
O O2 0.718341 0.968341 0.625000
O O3 0.703353 0.883171 0.413443
O O4 0.551596 0.593491 0.153476
O O5 0.614141 0.661566 0.348286
O O6 0.523672 0.583306 0.426150
#
# Coordination Sequence:
#
# PCOD8320978 Si02
#       4
#     8  16  32  32
#     4   8  16  30  60  94 140 166 180 250 336 406
#     4  12  26  54  64  84 128 180 228 276 312 376
#     4  10  21  39  65  95 131 166 209 265 328 381
#     4  10  18  35  60 100 132 159 208 258 329 388
#
# _framework density 20.282048
#
# number of rings (size 3 to 8) (size 9 to 14) (size 15 to 20)
#    0.000    2.182    3.636    4.364    0.000    2.909 
#    9.818    0.000    0.000    0.000    0.000    0.000 
#    0.000    0.000    0.000    0.000    0.000    0.000 
#
# Total GULP energy -545264.081314 kJ/mol
# GULP energy per Si atom -12392.365484 kJ/mol
# Density = 2.023588 g / cm^3
# Si number density = 20.282048 Si / 1000 Ang^3
#
#
#
# Elastic Constant Matrix: (Units=GPa)
#
#
# Indices 1 2 3 4 5 6 
#
# 1 101.1760 97.7842 41.7920 0.0000 0.0000 0.0000
# 2 97.7842 101.1760 41.7920 0.0000 0.0000 0.0000
# 3 41.7920 41.7920 67.2021 0.0000 0.0000 0.0000
# 4 0.0000 0.0000 0.0000 9.2716 0.0000 0.0000
# 5 0.0000 0.0000 0.0000 0.0000 9.2716 0.0000
# 6 0.0000 0.0000 0.0000 0.0000 0.0000 52.7465
#
#
#
# Elastic Compliance Matrix: (Units=1/GPa)
#
#
# Indices 1 2 3 4 5 6 
#
# 1 0.150813 -0.144010 -0.004231 0.000000 0.000000 0.000000
# 2 -0.144010 0.150813 -0.004231 0.000000 0.000000 0.000000
# 3 -0.004231 -0.004231 0.020143 0.000000 0.000000 0.000000
# 4 0.000000 0.000000 0.000000 0.107856 0.000000 0.000000
# 5 0.000000 0.000000 0.000000 0.000000 0.107856 0.000000
# 6 0.000000 0.000000 0.000000 0.000000 0.000000 0.018959
#
#
# Mechanical properties :
#
#
# Convention : Reuss Voigt Hill
#
# Bulk Modulus (GPa) = 59.43212 70.25451 64.84332
# Shear Modulus (GPa) = 5.76706 20.13700 12.95203
#
# Velocity S-wave (km/s) = 1.68808 3.15437 2.52979
# Velocity P-wave (km/s) = 5.75898 6.92681 6.36972
#
# Compressibility (1/GPa) = 0.01682592
#
# Stress axis : x y z
#
# Youngs Moduli (GPa) = 6.63072 6.63072 49.64512
#
# Poissons Ratio (x) = 0.95489 0.21005
# Poissons Ratio (y) = 0.95489 0.21005
# Poissons Ratio (z) = 0.02806 0.02806
#
# Static dielectric constant tensor:
#      x y z
#    x 3.695710 0.000000 0.000000 
#    y 0.000000 3.695710 0.000000 
#    z 0.000000 0.000000 3.427450 
# 
# 
# High freq. dielectric constant tensor:
#      x y z
#    x 1.787770 0.000000 0.000000 
#    y 0.000000 1.787770 0.000000 
#    z 0.000000 0.000000 1.770670 
# 
# From -- ./inp_files/3078.got.cif
#   From: 2010.03.12/outbox.cif.g09.slc.cpg/sg142_2_cif.got.tgz:3078.got - 2010.04.03 13:27:16.
