data_PCOD8320801
_publ_section_title
;
Structure prediction by ZEFSAII (Michael W. Deem and Ramdas Pophale) SiO2 
 PCOD8320801
Probable space group: I 41/A M D
;
_chemical_formula_sum "Si O2"
_cell_formula_units_Z 176
_cell_length_a 18.577803
_cell_length_b 18.577803
_cell_length_c 25.526291
_cell_angle_alpha 90.000000
_cell_angle_beta 90.000000
_cell_angle_gamma 90.000000
_cell_volume 8810.010428
_symmetry_space_group_name_H-M "I 41/A M D"
_symmetry_group_IT_number 141
_space_group.IT_coordinate_system_code '2'
_symmetry_cell_setting 'tetragonal'
loop_
_space_group_symop_operation_xyz
x,y,z
1/4-y,3/4+x,1/4+z
-x,1/2-y,z
1/4+y,1/4-x,3/4+z
x,-y,-z
-x,1/2+y,-z
1/4+y,3/4+x,1/4-z
1/4-y,1/4-x,3/4-z
-x,-y,-z
3/4+y,1/4-x,3/4-z
x,1/2+y,-z
3/4-y,3/4+x,1/4-z
-x,y,z
x,1/2-y,z
3/4-y,1/4-x,3/4+z
3/4+y,3/4+x,1/4+z
1/2+x,1/2+y,1/2+z
3/4-y,1/4+x,3/4+z
1/2-x,-y,1/2+z
3/4+y,3/4-x,1/4+z
1/2+x,1/2-y,1/2-z
1/2-x,y,1/2-z
3/4+y,1/4+x,3/4-z
3/4-y,3/4-x,1/4-z
1/2-x,1/2-y,1/2-z
1/4+y,3/4-x,1/4-z
1/2+x,y,1/2-z
1/4-y,1/4+x,3/4-z
1/2-x,1/2+y,1/2+z
1/2+x,-y,1/2+z
1/4-y,3/4-x,1/4+z
1/4+y,1/4+x,3/4+z
loop_
_atom_site_type_symbol
_atom_site_label
_atom_site_fract_x
_atom_site_fract_y
_atom_site_fract_z
Si Si1 0.083817 0.429680 0.535270
Si Si2 0.692538 0.670675 0.975247
Si Si3 0.299813 0.395249 0.402149
Si Si4 0.824096 0.829321 0.053247
Si Si5 0.297908 0.452093 0.625000
Si Si6 0.916420 0.918103 0.983872
O O1 0.089897 0.500000 0.500000
O O2 0.126913 0.370191 0.502498
O O3 0.120576 0.438948 0.592175
O O4 0.000000 0.407285 0.542659
O O5 0.662459 0.750000 0.963480
O O6 0.723753 0.638153 0.921173
O O7 0.763489 0.673960 0.009839
O O8 0.290274 0.480260 0.413285
O O9 0.371778 0.380737 0.436243
O O10 0.845055 0.750000 0.073271
O O11 0.788802 0.874000 0.099862
O O12 0.896273 0.869806 0.034268
O O13 0.000000 0.910702 0.969622
O O14 0.896701 0.000000 0.000000
#
# Coordination Sequence:
#
# PCOD8320801 Si02
#       6
#    32  32  32  32  16  32
#     4  11  24  42  64  94 129 163 209 269 325 381
#     4  10  22  40  63  91 125 161 201 259 322 380
#     4  11  22  38  65  92 122 162 218 262 308 378
#     4  10  22  37  55  87 125 160 205 257 310 367
#     4  12  20  34  62  91 116 171 216 256 306 372
#     4  10  21  38  61  89 125 166 211 259 309 369
#
# _framework density 19.977274000000001
#
# number of rings (size 3 to 8) (size 9 to 14) (size 15 to 20)
#    0.000    1.455    3.636    1.636    0.000    3.636 
#    0.000    0.000    0.000    0.000    0.000    2.545 
#    0.000    0.000    0.000    0.000    0.000    0.000 
#
# Total GULP energy -1090236.161569 kJ/mol
# GULP energy per Si atom -12389.047291 kJ/mol
# Density = 1.993181 g / cm^3
# Si number density = 19.977274 Si / 1000 Ang^3
#
#
#
# Elastic Constant Matrix: (Units=GPa)
#
#
# Indices 1 2 3 4 5 6 
#
# 1 130.2547 63.7581 47.3836 0.0000 0.0000 0.0000
# 2 63.7581 130.2521 47.3840 0.0000 0.0000 0.0000
# 3 47.3836 47.3840 91.6857 0.0000 0.0000 0.0000
# 4 0.0000 0.0000 0.0000 25.6591 0.0000 0.0000
# 5 0.0000 0.0000 0.0000 0.0000 25.6592 0.0000
# 6 0.0000 0.0000 0.0000 0.0000 0.0000 23.8242
#
#
#
# Elastic Compliance Matrix: (Units=1/GPa)
#
#
# Indices 1 2 3 4 5 6 
#
# 1 0.010967 -0.004072 -0.003563 0.000000 0.000000 0.000000
# 2 -0.004072 0.010967 -0.003563 0.000000 0.000000 0.000000
# 3 -0.003563 -0.003563 0.014590 0.000000 0.000000 0.000000
# 4 0.000000 0.000000 0.000000 0.038972 0.000000 0.000000
# 5 0.000000 0.000000 0.000000 0.000000 0.038972 0.000000
# 6 0.000000 0.000000 0.000000 0.000000 0.000000 0.041974
#
#
# Mechanical properties :
#
#
# Convention : Reuss Voigt Hill
#
# Bulk Modulus (GPa) = 70.78940 74.36041 72.57491
# Shear Modulus (GPa) = 27.24078 27.93963 27.59021
#
# Velocity S-wave (km/s) = 3.69669 3.74380 3.72032
# Velocity P-wave (km/s) = 7.33025 7.48274 7.40689
#
# Compressibility (1/GPa) = 0.01412641
#
# Stress axis : x y z
#
# Youngs Moduli (GPa) = 91.18587 91.18326 68.54043
#
# Poissons Ratio (x) = 0.37129 0.24422
# Poissons Ratio (y) = 0.37130 0.24424
# Poissons Ratio (z) = 0.32491 0.32493
#
# Static dielectric constant tensor:
#      x y z
#    x 3.841850 0.000000 0.000000 
#    y 0.000000 3.841870 0.000000 
#    z 0.000000 0.000000 3.890900 
# 
# 
# High freq. dielectric constant tensor:
#      x y z
#    x 1.779850 0.000000 0.000000 
#    y 0.000000 1.779850 0.000000 
#    z 0.000000 0.000000 1.775900 
# 
# From -- ./inp_files/12913.got.cif
#   From: 2010.03.12/outbox.cif.g09.slc.cpg/sg141_7_cif.got.tgz:12913.got - 2010.04.03 13:18:35.
