data_PCOD8320923
_publ_section_title
;
Structure prediction by ZEFSAII (Michael W. Deem and Ramdas Pophale) SiO2 
 PCOD8320923
Probable space group: I 41/A M D
;
_chemical_formula_sum "Si O2"
_cell_formula_units_Z 160
_cell_length_a 17.346548
_cell_length_b 17.346548
_cell_length_c 26.563395
_cell_angle_alpha 90.000000
_cell_angle_beta 90.000000
_cell_angle_gamma 90.000000
_cell_volume 7992.998008
_symmetry_space_group_name_H-M "I 41/A M D"
_symmetry_group_IT_number 141
_space_group.IT_coordinate_system_code '2'
_symmetry_cell_setting 'tetragonal'
loop_
_space_group_symop_operation_xyz
x,y,z
1/4-y,3/4+x,1/4+z
-x,1/2-y,z
1/4+y,1/4-x,3/4+z
x,-y,-z
-x,1/2+y,-z
1/4+y,3/4+x,1/4-z
1/4-y,1/4-x,3/4-z
-x,-y,-z
3/4+y,1/4-x,3/4-z
x,1/2+y,-z
3/4-y,3/4+x,1/4-z
-x,y,z
x,1/2-y,z
3/4-y,1/4-x,3/4+z
3/4+y,3/4+x,1/4+z
1/2+x,1/2+y,1/2+z
3/4-y,1/4+x,3/4+z
1/2-x,-y,1/2+z
3/4+y,3/4-x,1/4+z
1/2+x,1/2-y,1/2-z
1/2-x,y,1/2-z
3/4+y,1/4+x,3/4-z
3/4-y,3/4-x,1/4-z
1/2-x,1/2-y,1/2-z
1/4+y,3/4-x,1/4-z
1/2+x,y,1/2-z
1/4-y,1/4+x,3/4-z
1/2-x,1/2+y,1/2+z
1/2+x,-y,1/2+z
1/4-y,3/4-x,1/4+z
1/4+y,1/4+x,3/4+z
loop_
_atom_site_type_symbol
_atom_site_label
_atom_site_fract_x
_atom_site_fract_y
_atom_site_fract_z
Si Si1 0.350090 0.027257 0.867965
Si Si2 0.660905 0.460317 0.753782
Si Si3 0.776335 0.250000 0.331551
Si Si4 0.156160 0.835540 0.445133
Si Si5 0.371252 0.750000 0.738322
Si Si6 0.089702 0.838713 0.067461
O O1 0.361453 0.055822 0.811188
O O2 0.342632 0.105658 0.899068
O O3 0.273242 0.976759 0.875000
O O4 0.423598 0.976672 0.884388
O O5 0.750000 0.483598 0.750000
O O6 0.610024 0.531471 0.736061
O O7 0.644261 0.385428 0.720009
O O8 0.706844 0.250000 0.292838
O O9 0.854310 0.250000 0.298319
O O10 0.175631 0.750000 0.424475
O O11 0.075028 0.830569 0.473750
O O12 0.110519 0.860519 0.125000
O O13 0.111911 0.750000 0.057009
O O14 0.000000 0.852250 0.057446
#
# Coordination Sequence:
#
# PCOD8320923 Si02
#       6
#    32  32  16  32  16  32
#     4  11  23  42  62  93 132 169 211 264 327 386
#     4  12  25  39  64  94 128 166 215 266 321 377
#     4   9  20  36  66  90 124 168 210 255 326 384
#     4  11  24  42  67  95 128 172 218 267 321 389
#     4   9  19  40  66  92 120 170 214 261 317 390
#     4   9  21  43  67  92 128 172 212 260 322 382
#
# _framework density 20.017520000000001
#
# number of rings (size 3 to 8) (size 9 to 14) (size 15 to 20)
#    0.000    1.600    2.000    2.700    8.400    1.200 
#    0.000    0.000    0.000    0.000    0.000    0.000 
#    0.000    0.000    0.000    0.000    0.000    0.000 
#
# Total GULP energy -992228.682287 kJ/mol
# GULP energy per Si atom -12402.858529 kJ/mol
# Density = 1.997196 g / cm^3
# Si number density = 20.017520 Si / 1000 Ang^3
#
#
#
# Elastic Constant Matrix: (Units=GPa)
#
#
# Indices 1 2 3 4 5 6 
#
# 1 125.8658 46.8533 57.1427 0.0000 0.0000 0.0000
# 2 46.8533 125.8635 57.1431 0.0000 0.0000 0.0000
# 3 57.1427 57.1431 149.6869 0.0000 0.0000 0.0000
# 4 0.0000 0.0000 0.0000 23.4425 0.0000 0.0000
# 5 0.0000 0.0000 0.0000 0.0000 23.4420 0.0000
# 6 0.0000 0.0000 0.0000 0.0000 0.0000 27.2961
#
#
#
# Elastic Compliance Matrix: (Units=1/GPa)
#
#
# Indices 1 2 3 4 5 6 
#
# 1 0.010201 -0.002455 -0.002957 0.000000 0.000000 0.000000
# 2 -0.002455 0.010202 -0.002957 0.000000 0.000000 0.000000
# 3 -0.002957 -0.002957 0.008938 0.000000 0.000000 0.000000
# 4 0.000000 0.000000 0.000000 0.042658 0.000000 0.000000
# 5 0.000000 0.000000 0.000000 0.000000 0.042658 0.000000
# 6 0.000000 0.000000 0.000000 0.000000 0.000000 0.036635
#
#
# Mechanical properties :
#
#
# Convention : Reuss Voigt Hill
#
# Bulk Modulus (GPa) = 79.34863 80.41048 79.87955
# Shear Modulus (GPa) = 29.03054 30.85460 29.94257
#
# Velocity S-wave (km/s) = 3.81236 3.93030 3.87178
# Velocity P-wave (km/s) = 7.68794 7.80087 7.74461
#
# Compressibility (1/GPa) = 0.01260261
#
# Stress axis : x y z
#
# Youngs Moduli (GPa) = 98.02609 98.02375 111.87595
#
# Poissons Ratio (x) = 0.24064 0.33084
# Poissons Ratio (y) = 0.24065 0.33085
# Poissons Ratio (z) = 0.28988 0.28989
#
# Static dielectric constant tensor:
#      x y z
#    x 3.644380 0.000000 0.000000 
#    y 0.000000 3.644380 0.000000 
#    z 0.000000 0.000000 3.690360 
# 
# 
# High freq. dielectric constant tensor:
#      x y z
#    x 1.783760 0.000000 0.000000 
#    y 0.000000 1.783760 0.000000 
#    z 0.000000 0.000000 1.782090 
# 
# From -- ./inp_files/12811.got.cif
#   From: 2010.03.12/outbox.cif.g09.slc.cpg/sg141_7_cif.got.tgz:12811.got - 2010.04.03 13:18:35.
