data_PCOD8320804
_publ_section_title
;
Structure prediction by ZEFSAII (Michael W. Deem and Ramdas Pophale) SiO2 
 PCOD8320804
Probable space group: I 41/A M D
;
_chemical_formula_sum "Si O2"
_cell_formula_units_Z 176
_cell_length_a 18.373823
_cell_length_b 18.373823
_cell_length_c 25.189426
_cell_angle_alpha 90.000000
_cell_angle_beta 90.000000
_cell_angle_gamma 90.000000
_cell_volume 8503.884011
_symmetry_space_group_name_H-M "I 41/A M D"
_symmetry_group_IT_number 141
_space_group.IT_coordinate_system_code '2'
_symmetry_cell_setting 'tetragonal'
loop_
_space_group_symop_operation_xyz
x,y,z
1/4-y,3/4+x,1/4+z
-x,1/2-y,z
1/4+y,1/4-x,3/4+z
x,-y,-z
-x,1/2+y,-z
1/4+y,3/4+x,1/4-z
1/4-y,1/4-x,3/4-z
-x,-y,-z
3/4+y,1/4-x,3/4-z
x,1/2+y,-z
3/4-y,3/4+x,1/4-z
-x,y,z
x,1/2-y,z
3/4-y,1/4-x,3/4+z
3/4+y,3/4+x,1/4+z
1/2+x,1/2+y,1/2+z
3/4-y,1/4+x,3/4+z
1/2-x,-y,1/2+z
3/4+y,3/4-x,1/4+z
1/2+x,1/2-y,1/2-z
1/2-x,y,1/2-z
3/4+y,1/4+x,3/4-z
3/4-y,3/4-x,1/4-z
1/2-x,1/2-y,1/2-z
1/4+y,3/4-x,1/4-z
1/2+x,y,1/2-z
1/4-y,1/4+x,3/4-z
1/2-x,1/2+y,1/2+z
1/2+x,-y,1/2+z
1/4-y,3/4-x,1/4+z
1/4+y,1/4+x,3/4+z
loop_
_atom_site_type_symbol
_atom_site_label
_atom_site_fract_x
_atom_site_fract_y
_atom_site_fract_z
Si Si1 0.822369 0.168056 0.836788
Si Si2 0.917678 0.891338 0.573486
Si Si3 0.876111 0.017058 0.276475
Si Si4 0.807297 0.330126 0.585223
Si Si5 0.250000 0.425867 0.750000
Si Si6 0.797753 0.329684 0.131945
O O1 0.848538 0.250000 0.822194
O O2 0.882389 0.132389 0.875000
O O3 0.745246 0.170904 0.865005
O O4 0.807568 0.122612 0.783099
O O5 0.909753 0.840248 0.625000
O O6 0.855162 0.869675 0.532037
O O7 0.000000 0.881770 0.550632
O O8 0.899918 0.974636 0.587056
O O9 0.902586 0.006976 0.216136
O O10 0.796781 0.981288 0.286227
O O11 0.923801 0.973405 0.319434
O O12 0.843295 0.250000 0.578470
O O13 0.867200 0.389705 0.598649
O O14 0.825517 0.250000 0.147826
#
# Coordination Sequence:
#
# PCOD8320804 Si02
#       6
#    32  32  32  32  16  32
#     4  11  24  42  66  94 127 159 202 258 311 373
#     4   9  20  36  58  88 122 162 210 257 305 359
#     4  11  21  36  63  90 122 163 208 260 310 372
#     4  11  23  39  60  89 121 160 205 255 313 371
#     4  12  21  38  67  96 120 160 216 258 311 370
#     4  10  21  39  59  85 123 164 209 257 310 372
#
# _framework density 20.696425999999999
#
# number of rings (size 3 to 8) (size 9 to 14) (size 15 to 20)
#    0.000    1.455    3.636    1.909    0.000    2.182 
#    0.000    2.273    0.000    0.000    0.000    0.000 
#    0.000    0.000    0.000    0.000    0.000    0.000 
#
# Total GULP energy -1090546.510919 kJ/mol
# GULP energy per Si atom -12392.573988 kJ/mol
# Density = 2.064932 g / cm^3
# Si number density = 20.696426 Si / 1000 Ang^3
#
#
#
# Elastic Constant Matrix: (Units=GPa)
#
#
# Indices 1 2 3 4 5 6 
#
# 1 96.5607 37.0025 12.9157 0.0000 0.0000 0.0000
# 2 37.0025 96.5632 12.9155 0.0000 0.0000 0.0000
# 3 12.9157 12.9155 68.0035 0.0000 0.0000 0.0000
# 4 0.0000 0.0000 0.0000 21.7580 0.0000 0.0000
# 5 0.0000 0.0000 0.0000 0.0000 21.7582 0.0000
# 6 0.0000 0.0000 0.0000 0.0000 0.0000 22.0798
#
#
#
# Elastic Compliance Matrix: (Units=1/GPa)
#
#
# Indices 1 2 3 4 5 6 
#
# 1 0.012281 -0.004509 -0.001476 0.000000 0.000000 0.000000
# 2 -0.004509 0.012281 -0.001476 0.000000 0.000000 0.000000
# 3 -0.001476 -0.001476 0.015266 0.000000 0.000000 0.000000
# 4 0.000000 0.000000 0.000000 0.045960 0.000000 0.000000
# 5 0.000000 0.000000 0.000000 0.000000 0.045960 0.000000
# 6 0.000000 0.000000 0.000000 0.000000 0.000000 0.045290
#
#
# Mechanical properties :
#
#
# Convention : Reuss Voigt Hill
#
# Bulk Modulus (GPa) = 40.15080 42.97719 41.56400
# Shear Modulus (GPa) = 24.96720 26.33877 25.65299
#
# Velocity S-wave (km/s) = 3.47703 3.57126 3.52446
# Velocity P-wave (km/s) = 5.96336 6.14945 6.05712
#
# Compressibility (1/GPa) = 0.02490610
#
# Stress axis : x y z
#
# Youngs Moduli (GPa) = 81.42393 81.42617 65.50561
#
# Poissons Ratio (x) = 0.36713 0.09670
# Poissons Ratio (y) = 0.36712 0.09670
# Poissons Ratio (z) = 0.12020 0.12020
#
# Static dielectric constant tensor:
#      x y z
#    x 3.842960 0.000000 0.000000 
#    y 0.000000 3.842960 0.000000 
#    z 0.000000 0.000000 3.629950 
# 
# 
# High freq. dielectric constant tensor:
#      x y z
#    x 1.807250 0.000000 0.000000 
#    y 0.000000 1.807250 0.000000 
#    z 0.000000 0.000000 1.802830 
# 
# From -- ./inp_files/12912.got.cif
#   From: 2010.03.12/outbox.cif.g09.slc.cpg/sg141_7_cif.got.tgz:12912.got - 2010.04.03 13:18:35.
