data_PCOD8320326
_publ_section_title
;
Structure prediction by ZEFSAII (Michael W. Deem and Ramdas Pophale) SiO2 
 PCOD8320326
Probable space group: I 4/M C M
;
_chemical_formula_sum "Si O2"
_cell_formula_units_Z 128
_cell_length_a 20.124792
_cell_length_b 20.124792
_cell_length_c 15.128938
_cell_angle_alpha 90.000000
_cell_angle_beta 90.000000
_cell_angle_gamma 90.000000
_cell_volume 6127.329621
_symmetry_space_group_name_H-M "I 4/M C M"
_symmetry_group_IT_number 140
_symmetry_cell_setting 'tetragonal'
loop_
_space_group_symop_operation_xyz
x,y,z
-y,x,z
-x,-y,z
y,-x,z
x,-y,1/2-z
-x,y,1/2-z
y,x,1/2-z
-y,-x,1/2-z
-x,-y,-z
y,-x,-z
x,y,-z
-y,x,-z
-x,y,1/2+z
x,-y,1/2+z
-y,-x,1/2+z
y,x,1/2+z
1/2+x,1/2+y,1/2+z
1/2-y,1/2+x,1/2+z
1/2-x,1/2-y,1/2+z
1/2+y,1/2-x,1/2+z
1/2+x,1/2-y,-z
1/2-x,1/2+y,-z
1/2+y,1/2+x,-z
1/2-y,1/2-x,-z
1/2-x,1/2-y,1/2-z
1/2+y,1/2-x,1/2-z
1/2+x,1/2+y,1/2-z
1/2-y,1/2+x,1/2-z
1/2-x,1/2+y,z
1/2+x,1/2-y,z
1/2-y,1/2-x,z
1/2+y,1/2+x,z
loop_
_atom_site_type_symbol
_atom_site_label
_atom_site_fract_x
_atom_site_fract_y
_atom_site_fract_z
Si Si1 0.282080 0.606023 0.647745
Si Si2 0.600772 0.483338 0.647285
Si Si3 0.423805 0.180849 0.500000
Si Si4 0.646865 0.742800 0.840810
Si Si5 0.688071 0.920785 0.000000
O O1 0.324861 0.539786 0.624078
O O2 0.217779 0.603106 0.586995
O O3 0.262320 0.604859 0.750707
O O4 0.324742 0.671972 0.628430
O O5 0.575928 0.553512 0.607826
O O6 0.594009 0.500000 0.750000
O O7 0.392347 0.107654 0.500000
O O8 0.502170 0.170963 0.500000
O O9 0.708863 0.791138 0.825568
O O10 0.596712 0.769315 0.913975
O O11 0.619068 0.880933 0.000000
#
# Coordination Sequence:
#
# PCOD8320326 Si02
#       5
#    32  32  16  32  16
#     4  11  22  36  65  92 126 160 205 244 303 357
#     4   9  18  32  52  84 126 166 197 232 283 346
#     4  12  27  42  61  91 123 156 207 264 308 365
#     4  10  20  39  64  91 123 157 195 250 315 364
#     4  10  25  44  65  90 120 157 206 259 309 374
#
# _framework density 20.890014000000001
#
# number of rings (size 3 to 8) (size 9 to 14) (size 15 to 20)
#    0.000    1.750    0.000    7.500    7.000    1.250 
#    0.000    0.000    0.000    1.500    0.000    3.500 
#    0.000    0.000    0.000    0.000    0.000    0.000 
#
# Total GULP energy -793135.007450 kJ/mol
# GULP energy per Si atom -12392.734491 kJ/mol
# Density = 2.084247 g / cm^3
# Si number density = 20.890014 Si / 1000 Ang^3
#
#
#
# Elastic Constant Matrix: (Units=GPa)
#
#
# Indices 1 2 3 4 5 6 
#
# 1 117.8755 50.9307 55.2206 0.0000 0.0000 0.0000
# 2 50.9307 117.8774 55.2207 0.0000 0.0000 0.0000
# 3 55.2206 55.2207 94.8932 0.0000 0.0000 0.0000
# 4 0.0000 0.0000 0.0000 -242.6783 0.0000 0.0000
# 5 0.0000 0.0000 0.0000 0.0000 -242.9540 0.0000
# 6 0.0000 0.0000 0.0000 0.0000 0.0000 39.9616
#
#
#
# Elastic Compliance Matrix: (Units=1/GPa)
#
#
# Indices 1 2 3 4 5 6 
#
# 1 0.012252 -0.002686 -0.005567 0.000000 0.000000 0.000000
# 2 -0.002686 0.012252 -0.005567 0.000000 0.000000 0.000000
# 3 -0.005567 -0.005567 0.017017 0.000000 0.000000 0.000000
# 4 0.000000 0.000000 0.000000 -0.004121 0.000000 0.000000
# 5 0.000000 0.000000 0.000000 0.000000 -0.004116 0.000000
# 6 0.000000 0.000000 0.000000 0.000000 0.000000 0.025024
#
#
# Mechanical properties :
#
#
# Convention : Reuss Voigt Hill
#
# Bulk Modulus (GPa) = 72.03500 72.59889 72.31694
# Shear Modulus (GPa) = 55.20416 -77.84921 -11.32253
#
# Velocity S-wave (km/s) = 5.14621 -6.11123 -2.33063
# Velocity P-wave (km/s) = 8.35878 3.86883 5.23934
#
# Compressibility (1/GPa) = 0.01388214
#
# Stress axis : x y z
#
# Youngs Moduli (GPa) = 81.62080 81.62251 58.76532
#
# Poissons Ratio (x) = 0.21922 0.32713
# Poissons Ratio (y) = 0.21922 0.32712
# Poissons Ratio (z) = 0.45435 0.45435
#
# Static dielectric constant tensor:
#      x y z
#    x 3.809970 0.000000 0.000000 
#    y 0.000000 3.809970 0.000000 
#    z 0.000000 0.000000 3.676840 
# 
# 
# High freq. dielectric constant tensor:
#      x y z
#    x 1.813910 0.000000 0.000000 
#    y 0.000000 1.813910 0.000000 
#    z 0.000000 0.000000 1.810180 
# 
# From -- ./inp_files/4390.got.cif
#   From: 2010.06.25/outbox.cif.g09.slc.cpg/sg140_3_cif.got.tgz:4390.got - 2010.06.28 10:53:23.
