data_PCOD8320588
_publ_section_title
;
Structure prediction by ZEFSAII (Michael W. Deem and Ramdas Pophale) SiO2 
 PCOD8320588
Probable space group: I 41/A M D
;
_chemical_formula_sum "Si O2"
_cell_formula_units_Z 176
_cell_length_a 18.970520
_cell_length_b 18.970520
_cell_length_c 26.916397
_cell_angle_alpha 90.000000
_cell_angle_beta 90.000000
_cell_angle_gamma 90.000000
_cell_volume 9686.689885
_symmetry_space_group_name_H-M "I 41/A M D"
_symmetry_group_IT_number 141
_space_group.IT_coordinate_system_code '2'
_symmetry_cell_setting 'tetragonal'
loop_
_space_group_symop_operation_xyz
x,y,z
1/4-y,3/4+x,1/4+z
-x,1/2-y,z
1/4+y,1/4-x,3/4+z
x,-y,-z
-x,1/2+y,-z
1/4+y,3/4+x,1/4-z
1/4-y,1/4-x,3/4-z
-x,-y,-z
3/4+y,1/4-x,3/4-z
x,1/2+y,-z
3/4-y,3/4+x,1/4-z
-x,y,z
x,1/2-y,z
3/4-y,1/4-x,3/4+z
3/4+y,3/4+x,1/4+z
1/2+x,1/2+y,1/2+z
3/4-y,1/4+x,3/4+z
1/2-x,-y,1/2+z
3/4+y,3/4-x,1/4+z
1/2+x,1/2-y,1/2-z
1/2-x,y,1/2-z
3/4+y,1/4+x,3/4-z
3/4-y,3/4-x,1/4-z
1/2-x,1/2-y,1/2-z
1/4+y,3/4-x,1/4-z
1/2+x,y,1/2-z
1/4-y,1/4+x,3/4-z
1/2-x,1/2+y,1/2+z
1/2+x,-y,1/2+z
1/4-y,3/4-x,1/4+z
1/4+y,1/4+x,3/4+z
loop_
_atom_site_type_symbol
_atom_site_label
_atom_site_fract_x
_atom_site_fract_y
_atom_site_fract_z
Si Si1 0.083581 0.078320 0.841707
Si Si2 0.323628 0.580484 0.506309
Si Si3 0.159582 0.423698 0.481427
Si Si4 0.642624 0.931475 0.615745
Si Si5 0.806711 0.056711 0.375000
Si Si6 0.420940 0.832225 0.055575
O O1 0.104384 0.145617 0.875000
O O2 0.118430 0.096667 0.788213
O O3 0.000000 0.072467 0.834750
O O4 0.111851 0.008555 0.870482
O O5 0.345897 0.500000 0.500000
O O6 0.240027 0.588398 0.504302
O O7 0.361683 0.596507 0.558832
O O8 0.133739 0.500000 0.500000
O O9 0.154202 0.411082 0.422472
O O10 0.110830 0.365766 0.506117
O O11 0.723851 0.931377 0.630293
O O12 0.600716 0.873588 0.646155
O O13 0.500000 0.860106 0.063780
O O14 0.419172 0.750000 0.046494
#
# Coordination Sequence:
#
# PCOD8320588 Si02
#       6
#    32  32  32  32  16  32
#     4  12  23  39  63  92 126 165 204 253 316 377
#     4  10  19  35  64  94 118 148 202 260 300 348
#     4  10  18  34  59  87 116 149 192 249 298 349
#     4  11  19  38  63  90 121 155 205 254 304 363
#     4  10  18  34  62  93 117 140 196 266 304 336
#     4  11  24  40  57  83 124 166 200 243 305 371
#
# _framework density 18.169262
#
# number of rings (size 3 to 8) (size 9 to 14) (size 15 to 20)
#    0.000    1.273    6.364    1.636    0.000    1.273 
#    0.000    6.364    0.000    1.091    0.000    0.000 
#    0.000    0.000    0.000    0.000    0.000    0.000 
#
# Total GULP energy -1090544.831061 kJ/mol
# GULP energy per Si atom -12392.554898 kJ/mol
# Density = 1.812791 g / cm^3
# Si number density = 18.169262 Si / 1000 Ang^3
#
#
#
# Elastic Constant Matrix: (Units=GPa)
#
#
# Indices 1 2 3 4 5 6 
#
# 1 71.0923 37.9826 32.4952 0.0000 0.0000 0.0000
# 2 37.9826 71.0908 32.4955 0.0000 0.0000 0.0000
# 3 32.4952 32.4955 71.0248 0.0000 0.0000 0.0000
# 4 0.0000 0.0000 0.0000 24.7495 0.0000 0.0000
# 5 0.0000 0.0000 0.0000 0.0000 24.7502 0.0000
# 6 0.0000 0.0000 0.0000 0.0000 0.0000 25.5414
#
#
#
# Elastic Compliance Matrix: (Units=1/GPa)
#
#
# Indices 1 2 3 4 5 6 
#
# 1 0.021403 -0.008800 -0.005766 0.000000 0.000000 0.000000
# 2 -0.008800 0.021404 -0.005767 0.000000 0.000000 0.000000
# 3 -0.005766 -0.005767 0.019356 0.000000 0.000000 0.000000
# 4 0.000000 0.000000 0.000000 0.040405 0.000000 0.000000
# 5 0.000000 0.000000 0.000000 0.000000 0.040404 0.000000
# 6 0.000000 0.000000 0.000000 0.000000 0.000000 0.039152
#
#
# Mechanical properties :
#
#
# Convention : Reuss Voigt Hill
#
# Bulk Modulus (GPa) = 46.51613 46.57272 46.54443
# Shear Modulus (GPa) = 21.74328 22.35719 22.05023
#
# Velocity S-wave (km/s) = 3.46310 3.51165 3.48746
# Velocity P-wave (km/s) = 6.45352 6.49081 6.47219
#
# Compressibility (1/GPa) = 0.02149792
#
# Stress axis : x y z
#
# Youngs Moduli (GPa) = 46.72166 46.72019 51.66279
#
# Poissons Ratio (x) = 0.41112 0.29791
# Poissons Ratio (y) = 0.41113 0.29793
# Poissons Ratio (z) = 0.26942 0.26943
#
# Static dielectric constant tensor:
#      x y z
#    x 2.836640 0.000000 0.000000 
#    y 0.000000 2.836300 0.000000 
#    z 0.000000 0.000000 3.724400 
# 
# 
# High freq. dielectric constant tensor:
#      x y z
#    x 1.687420 0.000000 0.000000 
#    y 0.000000 1.687420 0.000000 
#    z 0.000000 0.000000 1.723750 
# 
# From -- ./inp_files/14393.got.cif
#   From: 2010.03.12/outbox.cif.g09.slc.cpg/sg141_8_cif.got.tgz:14393.got - 2010.04.03 13:18:35.
