data_PCOD8320147
_publ_section_title
;
Structure prediction by ZEFSAII (Michael W. Deem and Ramdas Pophale) SiO2 
 PCOD8320147
Probable space group: I 4/M C M
;
_chemical_formula_sum "Si O2"
_cell_formula_units_Z 176
_cell_length_a 17.876293
_cell_length_b 17.876293
_cell_length_c 31.437211
_cell_angle_alpha 90.000000
_cell_angle_beta 90.000000
_cell_angle_gamma 90.000000
_cell_volume 10046.133351
_symmetry_space_group_name_H-M "I 4/M C M"
_symmetry_group_IT_number 140
_symmetry_cell_setting 'tetragonal'
loop_
_space_group_symop_operation_xyz
x,y,z
-y,x,z
-x,-y,z
y,-x,z
x,-y,1/2-z
-x,y,1/2-z
y,x,1/2-z
-y,-x,1/2-z
-x,-y,-z
y,-x,-z
x,y,-z
-y,x,-z
-x,y,1/2+z
x,-y,1/2+z
-y,-x,1/2+z
y,x,1/2+z
1/2+x,1/2+y,1/2+z
1/2-y,1/2+x,1/2+z
1/2-x,1/2-y,1/2+z
1/2+y,1/2-x,1/2+z
1/2+x,1/2-y,-z
1/2-x,1/2+y,-z
1/2+y,1/2+x,-z
1/2-y,1/2-x,-z
1/2-x,1/2-y,1/2-z
1/2+y,1/2-x,1/2-z
1/2+x,1/2+y,1/2-z
1/2-y,1/2+x,1/2-z
1/2-x,1/2+y,z
1/2+x,1/2-y,z
1/2-y,1/2-x,z
1/2+y,1/2+x,z
loop_
_atom_site_type_symbol
_atom_site_label
_atom_site_fract_x
_atom_site_fract_y
_atom_site_fract_z
Si Si1 0.561960 0.938041 0.548471
Si Si2 0.838720 0.781479 0.148777
Si Si3 0.064072 0.790778 0.500000
Si Si4 0.422837 0.592077 0.800109
Si Si5 0.955598 0.284653 0.413089
Si Si6 0.122695 0.260369 0.410744
Si Si7 0.392480 0.301002 0.000000
O O1 0.585098 0.914903 0.500000
O O2 0.629309 0.970484 0.576310
O O3 0.500000 0.000000 0.545348
O O4 0.774471 0.725530 0.168155
O O5 0.874056 0.837453 0.183570
O O6 0.900808 0.729279 0.126478
O O7 0.805253 0.834788 0.113150
O O8 0.080740 0.746564 0.456506
O O9 0.115679 0.862393 0.500000
O O10 0.979677 0.817080 0.500000
O O11 0.395906 0.509176 0.815429
O O12 0.411265 0.588736 0.750000
O O13 0.035713 0.252460 0.398953
O O14 0.159043 0.340958 0.398884
O O15 0.134440 0.247937 0.460565
#
# Coordination Sequence:
#
# PCOD8320147 Si02
#       7
#    16  32  16  32  32  32  16
#     4  11  22  34  50  70  97 142 194 243 278 315
#     4  11  21  33  54  81 110 140 169 216 272 325
#     4  10  20  32  49  65  98 137 181 227 268 312
#     4   9  19  38  62  85 110 141 173 211 263 327
#     4  11  20  35  49  71 102 138 184 228 275 318
#     4  10  21  33  49  71  98 136 178 223 265 312
#     4  10  19  33  47  66  95 138 180 224 264 320
#
# _framework density 17.519178
#
# number of rings (size 3 to 8) (size 9 to 14) (size 15 to 20)
#    0.000    1.727    3.636    2.455    0.000    0.545 
#    1.636    0.000    0.000    0.000    0.000    0.000 
#    0.000    0.000    0.000    0.000    0.000    0.000 
#
# Total GULP energy -1090439.827730 kJ/mol
# GULP energy per Si atom -12391.361679 kJ/mol
# Density = 1.747930 g / cm^3
# Si number density = 17.519178 Si / 1000 Ang^3
#
#
#
# Elastic Constant Matrix: (Units=GPa)
#
#
# Indices 1 2 3 4 5 6 
#
# 1 75.8469 60.0633 28.5433 0.0000 0.0000 0.0000
# 2 60.0633 75.8467 28.5437 0.0000 0.0000 0.0000
# 3 28.5433 28.5437 46.3519 0.0000 0.0000 0.0000
# 4 0.0000 0.0000 0.0000 17.9483 0.0000 0.0000
# 5 0.0000 0.0000 0.0000 0.0000 17.9485 0.0000
# 6 0.0000 0.0000 0.0000 0.0000 0.0000 31.3264
#
#
#
# Elastic Compliance Matrix: (Units=1/GPa)
#
#
# Indices 1 2 3 4 5 6 
#
# 1 0.036641 -0.026716 -0.006111 0.000000 0.000000 0.000000
# 2 -0.026716 0.036641 -0.006112 0.000000 0.000000 0.000000
# 3 -0.006111 -0.006112 0.029101 0.000000 0.000000 0.000000
# 4 0.000000 0.000000 0.000000 0.055715 0.000000 0.000000
# 5 0.000000 0.000000 0.000000 0.000000 0.055715 0.000000
# 6 0.000000 0.000000 0.000000 0.000000 0.000000 0.031922
#
#
# Mechanical properties :
#
#
# Convention : Reuss Voigt Hill
#
# Bulk Modulus (GPa) = 40.80945 48.03846 44.42395
# Shear Modulus (GPa) = 15.07008 18.83767 16.95387
#
# Velocity S-wave (km/s) = 2.93611 3.28267 3.11421
# Velocity P-wave (km/s) = 5.90246 6.46900 6.19221
#
# Compressibility (1/GPa) = 0.02450413
#
# Stress axis : x y z
#
# Youngs Moduli (GPa) = 27.29193 27.29161 34.36259
#
# Poissons Ratio (x) = 0.72913 0.21000
# Poissons Ratio (y) = 0.72913 0.21003
# Poissons Ratio (z) = 0.16679 0.16681
#
# Static dielectric constant tensor:
#      x y z
#    x 3.344780 0.000000 0.000000 
#    y 0.000000 3.344770 0.000000 
#    z 0.000000 0.000000 3.072690 
# 
# 
# High freq. dielectric constant tensor:
#      x y z
#    x 1.684400 0.000000 0.000000 
#    y 0.000000 1.684400 0.000000 
#    z 0.000000 0.000000 1.644780 
# 
# From -- ./inp_files/10771.got.cif
#   From: 2010.06.25/outbox.cif.g09.slc.cpg/sg140_6_cif.got.tgz:10771.got - 2010.06.28 10:53:23.
