data_PCOD8320740
_publ_section_title
;
Structure prediction by ZEFSAII (Michael W. Deem and Ramdas Pophale) SiO2 
 PCOD8320740
Probable space group: I 41/A M D
;
_chemical_formula_sum "Si O2"
_cell_formula_units_Z 240
_cell_length_a 20.112174
_cell_length_b 20.112174
_cell_length_c 29.803561
_cell_angle_alpha 90.000000
_cell_angle_beta 90.000000
_cell_angle_gamma 90.000000
_cell_volume 12055.526804
_symmetry_space_group_name_H-M "I 41/A M D"
_symmetry_group_IT_number 141
_space_group.IT_coordinate_system_code '2'
_symmetry_cell_setting 'tetragonal'
loop_
_space_group_symop_operation_xyz
x,y,z
1/4-y,3/4+x,1/4+z
-x,1/2-y,z
1/4+y,1/4-x,3/4+z
x,-y,-z
-x,1/2+y,-z
1/4+y,3/4+x,1/4-z
1/4-y,1/4-x,3/4-z
-x,-y,-z
3/4+y,1/4-x,3/4-z
x,1/2+y,-z
3/4-y,3/4+x,1/4-z
-x,y,z
x,1/2-y,z
3/4-y,1/4-x,3/4+z
3/4+y,3/4+x,1/4+z
1/2+x,1/2+y,1/2+z
3/4-y,1/4+x,3/4+z
1/2-x,-y,1/2+z
3/4+y,3/4-x,1/4+z
1/2+x,1/2-y,1/2-z
1/2-x,y,1/2-z
3/4+y,1/4+x,3/4-z
3/4-y,3/4-x,1/4-z
1/2-x,1/2-y,1/2-z
1/4+y,3/4-x,1/4-z
1/2+x,y,1/2-z
1/4-y,1/4+x,3/4-z
1/2-x,1/2+y,1/2+z
1/2+x,-y,1/2+z
1/4-y,3/4-x,1/4+z
1/4+y,1/4+x,3/4+z
loop_
_atom_site_type_symbol
_atom_site_label
_atom_site_fract_x
_atom_site_fract_y
_atom_site_fract_z
Si Si1 0.254983 0.489183 0.322126
Si Si2 0.927122 0.920536 0.321212
Si Si3 0.707241 0.853748 0.046223
Si Si4 0.857467 0.824564 0.031454
Si Si5 0.684870 0.134561 0.053484
Si Si6 0.423317 0.826684 0.875000
Si Si7 0.279813 0.136331 0.703397
Si Si8 0.929477 0.421265 0.110858
O O1 0.250012 0.500012 0.375000
O O2 0.319617 0.447568 0.309518
O O3 0.194309 0.445984 0.303188
O O4 0.259190 0.559157 0.296726
O O5 0.917890 0.891943 0.271772
O O6 0.873122 0.884130 0.350960
O O7 0.000000 0.903557 0.339851
O O8 0.917693 0.999577 0.324745
O O9 0.782886 0.830174 0.048128
O O10 0.672789 0.812233 0.085442
O O11 0.674810 0.839545 0.997542
O O12 0.885573 0.750000 0.044942
O O13 0.897721 0.889408 0.050374
O O14 0.620556 0.153969 0.081967
O O15 0.500000 0.839150 0.887947
O O16 0.250000 0.165902 0.750000
O O17 0.245048 0.171015 0.660717
O O18 0.000000 0.391803 0.092925
#
# Coordination Sequence:
#
# PCOD8320740 Si02
#       8
#    32  32  32  32  32  16  32  32
#     4  11  17  32  62  94 123 149 193 254 306 348
#     4  10  20  38  60  84 114 155 204 250 298 362
#     4  10  21  35  57  92 126 155 198 250 309 374
#     4   9  18  33  57  83 114 154 206 258 306 366
#     4  11  20  39  68  92 119 158 200 251 306 359
#     4  11  26  44  64  96 130 162 206 254 303 372
#     4  11  19  35  54  83 118 158 201 255 312 352
#     4  12  24  37  55  86 124 160 202 254 310 368
#
# _framework density 19.907882000000001
#
# number of rings (size 3 to 8) (size 9 to 14) (size 15 to 20)
#    0.000    1.400    4.667    2.800    0.000    2.133 
#    0.000    0.667    0.000    2.000    0.000    0.000 
#    0.000    6.667    0.000    0.000    0.000    0.000 
#
# Total GULP energy -1487163.208830 kJ/mol
# GULP energy per Si atom -12393.026740 kJ/mol
# Density = 1.986257 g / cm^3
# Si number density = 19.907882 Si / 1000 Ang^3
#
#
#
# Elastic Constant Matrix: (Units=GPa)
#
#
# Indices 1 2 3 4 5 6 
#
# 1 108.9759 36.0385 38.4456 0.0000 0.0000 0.0000
# 2 36.0385 108.9744 38.4449 0.0000 0.0000 0.0000
# 3 38.4456 38.4449 110.4040 0.0000 0.0000 0.0000
# 4 0.0000 0.0000 0.0000 9.6461 0.0000 0.0000
# 5 0.0000 0.0000 0.0000 0.0000 9.6450 0.0000
# 6 0.0000 0.0000 0.0000 0.0000 0.0000 8.1572
#
#
#
# Elastic Compliance Matrix: (Units=1/GPa)
#
#
# Indices 1 2 3 4 5 6 
#
# 1 0.011084 -0.002627 -0.002945 0.000000 0.000000 0.000000
# 2 -0.002627 0.011084 -0.002945 0.000000 0.000000 0.000000
# 3 -0.002945 -0.002945 0.011109 0.000000 0.000000 0.000000
# 4 0.000000 0.000000 0.000000 0.103669 0.000000 0.000000
# 5 0.000000 0.000000 0.000000 0.000000 0.103680 0.000000
# 6 0.000000 0.000000 0.000000 0.000000 0.000000 0.122592
#
#
# Mechanical properties :
#
#
# Convention : Reuss Voigt Hill
#
# Bulk Modulus (GPa) = 61.56373 61.57915 61.57144
# Shear Modulus (GPa) = 12.96460 19.85134 16.40797
#
# Velocity S-wave (km/s) = 2.55469 3.16121 2.87399
# Velocity P-wave (km/s) = 6.30027 6.65759 6.48139
#
# Compressibility (1/GPa) = 0.01624333
#
# Stress axis : x y z
#
# Youngs Moduli (GPa) = 90.22057 90.21962 90.01919
#
# Poissons Ratio (x) = 0.23696 0.26512
# Poissons Ratio (y) = 0.23697 0.26511
# Poissons Ratio (z) = 0.26571 0.26570
#
# Static dielectric constant tensor:
#      x y z
#    x 3.683630 0.000000 0.000000 
#    y 0.000000 3.683650 0.000000 
#    z 0.000000 0.000000 3.723170 
# 
# 
# High freq. dielectric constant tensor:
#      x y z
#    x 1.760630 0.000000 0.000000 
#    y 0.000000 1.760630 0.000000 
#    z 0.000000 0.000000 1.774060 
# 
# From -- ./inp_files/13175.got.cif
#   From: 2010.03.12/outbox.cif.g09.slc.cpg/sg141_7_cif.got.tgz:13175.got - 2010.04.03 13:18:35.
