data_PCOD8320418
_publ_section_title
;
Structure prediction by ZEFSAII (Michael W. Deem and Ramdas Pophale) SiO2 
 PCOD8320418
Probable space group: I 4/M C M
;
_chemical_formula_sum "Si O2"
_cell_formula_units_Z 112
_cell_length_a 13.587591
_cell_length_b 13.587591
_cell_length_c 31.737271
_cell_angle_alpha 90.000000
_cell_angle_beta 90.000000
_cell_angle_gamma 90.000000
_cell_volume 5859.418415
_symmetry_space_group_name_H-M "I 4/M C M"
_symmetry_group_IT_number 140
_symmetry_cell_setting 'tetragonal'
loop_
_space_group_symop_operation_xyz
x,y,z
-y,x,z
-x,-y,z
y,-x,z
x,-y,1/2-z
-x,y,1/2-z
y,x,1/2-z
-y,-x,1/2-z
-x,-y,-z
y,-x,-z
x,y,-z
-y,x,-z
-x,y,1/2+z
x,-y,1/2+z
-y,-x,1/2+z
y,x,1/2+z
1/2+x,1/2+y,1/2+z
1/2-y,1/2+x,1/2+z
1/2-x,1/2-y,1/2+z
1/2+y,1/2-x,1/2+z
1/2+x,1/2-y,-z
1/2-x,1/2+y,-z
1/2+y,1/2+x,-z
1/2-y,1/2-x,-z
1/2-x,1/2-y,1/2-z
1/2+y,1/2-x,1/2-z
1/2+x,1/2+y,1/2-z
1/2-y,1/2+x,1/2-z
1/2-x,1/2+y,z
1/2+x,1/2-y,z
1/2-y,1/2-x,z
1/2+y,1/2+x,z
loop_
_atom_site_type_symbol
_atom_site_label
_atom_site_fract_x
_atom_site_fract_y
_atom_site_fract_z
Si Si1 0.497005 0.160681 0.000000
Si Si2 0.276619 0.376749 0.621060
Si Si3 0.923007 0.738337 0.084262
Si Si4 0.111273 0.118188 0.296076
O O1 0.518292 0.228929 0.959672
O O2 0.571049 0.071049 0.000000
O O3 0.385608 0.114393 0.000000
O O4 0.169082 0.330919 0.615309
O O5 0.349285 0.331984 0.584895
O O6 0.262032 0.493603 0.618784
O O7 0.319610 0.340851 0.666168
O O8 0.861463 0.638538 0.094735
O O9 0.151821 0.151821 0.250000
O O10 0.995587 0.136105 0.300516
#
# Coordination Sequence:
#
# PCOD8320418 Si02
#       4
#    16  32  32  32
#     4   9  18  36  58  77 109 153 186 225 277 329
#     4  11  21  34  57  83 112 150 184 236 290 329
#     4  10  22  37  55  84 114 146 195 234 278 344
#     4   9  17  32  55  79 107 145 186 229 282 336
#
# _framework density 19.114526000000001
#
# number of rings (size 3 to 8) (size 9 to 14) (size 15 to 20)
#    0.000    2.143    2.857    1.714    0.000    4.000 
#    0.000    2.857    0.000    1.714    0.000    0.000 
#    0.000    0.000    0.000    0.000    0.000    0.000 
#
# Total GULP energy -693864.092689 kJ/mol
# GULP energy per Si atom -12390.430227 kJ/mol
# Density = 1.907102 g / cm^3
# Si number density = 19.114526 Si / 1000 Ang^3
#
#
#
# Elastic Constant Matrix: (Units=GPa)
#
#
# Indices 1 2 3 4 5 6 
#
# 1 81.8096 34.7265 24.5637 0.0000 0.0000 0.0000
# 2 34.7265 81.8095 24.5637 0.0000 0.0000 0.0000
# 3 24.5637 24.5637 100.5455 0.0000 0.0000 0.0000
# 4 0.0000 0.0000 0.0000 22.3205 0.0000 0.0000
# 5 0.0000 0.0000 0.0000 0.0000 22.3204 0.0000
# 6 0.0000 0.0000 0.0000 0.0000 0.0000 23.9565
#
#
#
# Elastic Compliance Matrix: (Units=1/GPa)
#
#
# Indices 1 2 3 4 5 6 
#
# 1 0.015403 -0.005836 -0.002337 0.000000 0.000000 0.000000
# 2 -0.005836 0.015403 -0.002337 0.000000 0.000000 0.000000
# 3 -0.002337 -0.002337 0.011088 0.000000 0.000000 0.000000
# 4 0.000000 0.000000 0.000000 0.044802 0.000000 0.000000
# 5 0.000000 0.000000 0.000000 0.000000 0.044802 0.000000
# 6 0.000000 0.000000 0.000000 0.000000 0.000000 0.041742
#
#
# Mechanical properties :
#
#
# Convention : Reuss Voigt Hill
#
# Bulk Modulus (GPa) = 47.91136 47.98581 47.94859
# Shear Modulus (GPa) = 24.84871 25.74019 25.29445
#
# Velocity S-wave (km/s) = 3.60945 3.67363 3.64168
# Velocity P-wave (km/s) = 6.51849 6.56909 6.54384
#
# Compressibility (1/GPa) = 0.02087188
#
# Stress axis : x y z
#
# Youngs Moduli (GPa) = 64.92384 64.92379 90.19033
#
# Poissons Ratio (x) = 0.37892 0.21078
# Poissons Ratio (y) = 0.37892 0.21078
# Poissons Ratio (z) = 0.15173 0.15173
#
# Static dielectric constant tensor:
#      x y z
#    x 3.302570 0.000000 0.000000 
#    y 0.000000 3.302580 0.000000 
#    z 0.000000 0.000000 3.684710 
# 
# 
# High freq. dielectric constant tensor:
#      x y z
#    x 1.729520 0.000000 0.000000 
#    y 0.000000 1.729520 0.000000 
#    z 0.000000 0.000000 1.744000 
# 
# From -- ./inp_files/11259.got.cif
#   From: 2010.06.25/outbox.cif.g09.slc.cpg/sg140_6_cif.got.tgz:11259.got - 2010.06.28 10:53:23.
