data_PCOD8320446
_publ_section_title
;
Structure prediction by ZEFSAII (Michael W. Deem and Ramdas Pophale) SiO2 
 PCOD8320446
Probable space group: I 4/M C M
;
_chemical_formula_sum "Si O2"
_cell_formula_units_Z 176
_cell_length_a 17.645208
_cell_length_b 17.645208
_cell_length_c 26.080521
_cell_angle_alpha 90.000000
_cell_angle_beta 90.000000
_cell_angle_gamma 90.000000
_cell_volume 8120.257984
_symmetry_space_group_name_H-M "I 4/M C M"
_symmetry_group_IT_number 140
_symmetry_cell_setting 'tetragonal'
loop_
_space_group_symop_operation_xyz
x,y,z
-y,x,z
-x,-y,z
y,-x,z
x,-y,1/2-z
-x,y,1/2-z
y,x,1/2-z
-y,-x,1/2-z
-x,-y,-z
y,-x,-z
x,y,-z
-y,x,-z
-x,y,1/2+z
x,-y,1/2+z
-y,-x,1/2+z
y,x,1/2+z
1/2+x,1/2+y,1/2+z
1/2-y,1/2+x,1/2+z
1/2-x,1/2-y,1/2+z
1/2+y,1/2-x,1/2+z
1/2+x,1/2-y,-z
1/2-x,1/2+y,-z
1/2+y,1/2+x,-z
1/2-y,1/2-x,-z
1/2-x,1/2-y,1/2-z
1/2+y,1/2-x,1/2-z
1/2+x,1/2+y,1/2-z
1/2-y,1/2+x,1/2-z
1/2-x,1/2+y,z
1/2+x,1/2-y,z
1/2-y,1/2-x,z
1/2+y,1/2+x,z
loop_
_atom_site_type_symbol
_atom_site_label
_atom_site_fract_x
_atom_site_fract_y
_atom_site_fract_z
Si Si1 0.112104 0.186235 0.296675
Si Si2 0.661196 0.041146 0.700588
Si Si3 0.331218 0.168783 0.557403
Si Si4 0.262437 0.762437 0.363180
Si Si5 0.122843 0.979528 0.384109
Si Si6 0.709218 0.004492 0.092110
Si Si7 0.144030 0.355971 0.443282
O O1 0.132392 0.132392 0.250000
O O2 0.084669 0.266800 0.275612
O O3 0.186716 0.202984 0.331125
O O4 0.041790 0.145440 0.325716
O O5 0.600222 0.100222 0.678643
O O6 0.625015 0.000000 0.750000
O O7 0.686521 0.989411 0.652505
O O8 0.307974 0.192027 0.500000
O O9 0.284659 0.215342 0.597459
O O10 0.310710 0.081859 0.565025
O O11 0.316536 0.816536 0.395237
O O12 0.061394 0.913832 0.396552
O O13 0.202074 0.979233 0.415351
O O14 0.658779 0.944796 0.061718
O O15 0.171237 0.328764 0.500000
#
# Coordination Sequence:
#
# PCOD8320446 Si02
#       7
#    32  32  16  16  32  32  16
#     4  11  23  37  66  99 138 186 232 280 351 414
#     4  11  24  41  62  96 134 182 232 275 342 422
#     4  12  29  46  73 109 133 174 242 298 354 425
#     4  12  22  46  66 101 144 183 237 298 350 421
#     4  10  22  41  65  97 140 185 228 280 342 413
#     4  11  24  47  71 101 142 177 228 294 360 419
#     4  12  23  46  75  96 133 187 233 294 362 421
#
# _framework density 21.674188000000001
#
# number of rings (size 3 to 8) (size 9 to 14) (size 15 to 20)
#    0.000    0.909    5.455    2.182    8.909    0.545 
#    0.000    1.818    0.000    0.000    0.000    6.364 
#    0.000    0.000    0.000    0.000    0.000    0.000 
#
# Total GULP energy -1090493.153912 kJ/mol
# GULP energy per Si atom -12391.967658 kJ/mol
# Density = 2.162486 g / cm^3
# Si number density = 21.674188 Si / 1000 Ang^3
#
#
#
# Elastic Constant Matrix: (Units=GPa)
#
#
# Indices 1 2 3 4 5 6 
#
# 1 100.8006 46.2080 21.8351 0.0000 0.0000 0.0000
# 2 46.2080 100.8012 21.8360 0.0000 0.0000 0.0000
# 3 21.8351 21.8360 81.3263 0.0000 0.0000 0.0000
# 4 0.0000 0.0000 0.0000 103.8097 0.0000 0.0000
# 5 0.0000 0.0000 0.0000 0.0000 103.8262 0.0000
# 6 0.0000 0.0000 0.0000 0.0000 0.0000 32.4556
#
#
#
# Elastic Compliance Matrix: (Units=1/GPa)
#
#
# Indices 1 2 3 4 5 6 
#
# 1 0.012855 -0.005463 -0.001985 0.000000 0.000000 0.000000
# 2 -0.005463 0.012855 -0.001985 0.000000 0.000000 0.000000
# 3 -0.001985 -0.001985 0.013362 0.000000 0.000000 0.000000
# 4 0.000000 0.000000 0.000000 0.009633 0.000000 0.000000
# 5 0.000000 0.000000 0.000000 0.000000 0.009631 0.000000
# 6 0.000000 0.000000 0.000000 0.000000 0.000000 0.030811
#
#
# Mechanical properties :
#
#
# Convention : Reuss Voigt Hill
#
# Bulk Modulus (GPa) = 49.48784 51.40957 50.44871
# Shear Modulus (GPa) = 43.57419 60.88825 52.23122
#
# Velocity S-wave (km/s) = 4.48863 5.30599 4.91433
# Velocity P-wave (km/s) = 7.05308 7.82999 7.45167
#
# Compressibility (1/GPa) = 0.02020698
#
# Stress axis : x y z
#
# Youngs Moduli (GPa) = 77.79284 77.79299 74.83972
#
# Poissons Ratio (x) = 0.42496 0.14852
# Poissons Ratio (y) = 0.42496 0.14854
# Poissons Ratio (z) = 0.15439 0.15440
#
# Static dielectric constant tensor:
#      x y z
#    x 3.497470 0.000000 0.000000 
#    y 0.000000 3.497120 0.000000 
#    z 0.000000 0.000000 3.666020 
# 
# 
# High freq. dielectric constant tensor:
#      x y z
#    x 1.857640 0.000000 0.000000 
#    y 0.000000 1.857640 0.000000 
#    z 0.000000 0.000000 1.834890 
# 
# From -- ./inp_files/11573.got.cif
#   From: 2010.06.25/outbox.cif.g09.slc.cpg/sg140_6_cif.got.tgz:11573.got - 2010.06.28 10:53:23.
