data_PCOD8320232
_publ_section_title
;
Structure prediction by ZEFSAII (Michael W. Deem and Ramdas Pophale) SiO2 
 PCOD8320232
Probable space group: I 4/M C M
;
_chemical_formula_sum "Si O2"
_cell_formula_units_Z 160
_cell_length_a 31.414770
_cell_length_b 31.414770
_cell_length_c 8.943057
_cell_angle_alpha 90.000000
_cell_angle_beta 90.000000
_cell_angle_gamma 90.000000
_cell_volume 8825.793617
_symmetry_space_group_name_H-M "I 4/M C M"
_symmetry_group_IT_number 140
_symmetry_cell_setting 'tetragonal'
loop_
_space_group_symop_operation_xyz
x,y,z
-y,x,z
-x,-y,z
y,-x,z
x,-y,1/2-z
-x,y,1/2-z
y,x,1/2-z
-y,-x,1/2-z
-x,-y,-z
y,-x,-z
x,y,-z
-y,x,-z
-x,y,1/2+z
x,-y,1/2+z
-y,-x,1/2+z
y,x,1/2+z
1/2+x,1/2+y,1/2+z
1/2-y,1/2+x,1/2+z
1/2-x,1/2-y,1/2+z
1/2+y,1/2-x,1/2+z
1/2+x,1/2-y,-z
1/2-x,1/2+y,-z
1/2+y,1/2+x,-z
1/2-y,1/2-x,-z
1/2-x,1/2-y,1/2-z
1/2+y,1/2-x,1/2-z
1/2+x,1/2+y,1/2-z
1/2-y,1/2+x,1/2-z
1/2-x,1/2+y,z
1/2+x,1/2-y,z
1/2-y,1/2-x,z
1/2+y,1/2+x,z
loop_
_atom_site_type_symbol
_atom_site_label
_atom_site_fract_x
_atom_site_fract_y
_atom_site_fract_z
Si Si1 0.544165 0.164903 0.826073
Si Si2 0.675600 0.175600 0.331184
Si Si3 0.114835 0.264500 0.826042
Si Si4 0.395959 0.895959 0.668770
Si Si5 0.114623 0.176105 0.673611
Si Si6 0.605717 0.455759 0.826295
O O1 0.500000 0.177297 0.750000
O O2 0.575618 0.204083 0.797161
O O3 0.562554 0.121696 0.753461
O O4 0.537154 0.156269 0.000000
O O5 0.688156 0.188156 0.500000
O O6 0.717050 0.158068 0.246098
O O7 0.639822 0.139822 0.329477
O O8 0.102730 0.220520 0.748602
O O9 0.123327 0.257311 0.000000
O O10 0.408508 0.908508 0.500000
O O11 0.156505 0.156505 0.750000
O O12 0.124426 0.182782 0.500000
O O13 0.074492 0.145853 0.700812
O O14 0.617352 0.500000 0.750000
O O15 0.563826 0.436175 0.750000
O O16 0.596003 0.462567 0.000000
#
# Coordination Sequence:
#
# PCOD8320232 Si02
#       6
#    32  16  32  16  32  32
#     4  10  20  33  51  77 107 138 174 215 258 305
#     4   9  17  31  52  76 102 134 173 214 258 307
#     4  10  20  34  53  77 106 138 173 215 260 306
#     4   9  17  31  51  73 101 137 173 212 259 309
#     4  10  21  37  56  77 104 139 175 211 256 310
#     4  10  21  37  57  80 106 136 172 213 257 307
#
# _framework density 18.128681
#
# number of rings (size 3 to 8) (size 9 to 14) (size 15 to 20)
#    0.000    2.200    0.000    3.000    0.000    8.200 
#    0.000    5.500    0.000    0.300    0.000    2.100 
#    0.000    0.000    0.000    0.000    0.000    0.000 
#
# Total GULP energy -992319.111485 kJ/mol
# GULP energy per Si atom -12403.988894 kJ/mol
# Density = 1.808742 g / cm^3
# Si number density = 18.128681 Si / 1000 Ang^3
#
#
#
# Elastic Constant Matrix: (Units=GPa)
#
#
# Indices 1 2 3 4 5 6 
#
# 1 72.2834 51.6357 66.9259 0.0000 0.0000 0.0000
# 2 51.6357 72.2752 66.9210 0.0000 0.0000 0.0000
# 3 66.9259 66.9210 164.3433 0.0000 0.0000 0.0000
# 4 0.0000 0.0000 0.0000 35.9723 0.0000 0.0000
# 5 0.0000 0.0000 0.0000 0.0000 35.9724 0.0000
# 6 0.0000 0.0000 0.0000 0.0000 0.0000 10.3265
#
#
#
# Elastic Compliance Matrix: (Units=1/GPa)
#
#
# Indices 1 2 3 4 5 6 
#
# 1 0.031423 -0.017017 -0.005867 0.000000 0.000000 0.000000
# 2 -0.017017 0.031426 -0.005867 0.000000 0.000000 0.000000
# 3 -0.005867 -0.005867 0.010863 0.000000 0.000000 0.000000
# 4 0.000000 0.000000 0.000000 0.027799 0.000000 0.000000
# 5 0.000000 0.000000 0.000000 0.000000 0.027799 0.000000
# 6 0.000000 0.000000 0.000000 0.000000 0.000000 0.096838
#
#
# Mechanical properties :
#
#
# Convention : Reuss Voigt Hill
#
# Bulk Modulus (GPa) = 61.69075 75.54078 68.61577
# Shear Modulus (GPa) = 17.29792 24.68220 20.99006
#
# Velocity S-wave (km/s) = 3.09232 3.69385 3.40639
# Velocity P-wave (km/s) = 6.84494 7.74289 7.30772
#
# Compressibility (1/GPa) = 0.01620989
#
# Stress axis : x y z
#
# Youngs Moduli (GPa) = 31.82414 31.82119 92.05587
#
# Poissons Ratio (x) = 0.54150 0.54009
# Poissons Ratio (y) = 0.54155 0.54006
# Poissons Ratio (z) = 0.18671 0.18669
#
# Static dielectric constant tensor:
#      x y z
#    x 3.244420 0.000000 0.000000 
#    y 0.000000 3.244430 0.000000 
#    z 0.000000 0.000000 3.585380 
# 
# 
# High freq. dielectric constant tensor:
#      x y z
#    x 1.691890 0.000000 0.000000 
#    y 0.000000 1.691890 0.000000 
#    z 0.000000 0.000000 1.724770 
# 
# From -- ./inp_files/1860.got.cif
#   From: 2010.06.25/outbox.cif.g09.slc.cpg/sg140_1_cif.got.tgz:1860.got - 2010.06.28 10:53:23.
