data_PCOD8320973
_publ_section_title
;
Structure prediction by ZEFSAII (Michael W. Deem and Ramdas Pophale) SiO2 
 PCOD8320973
Probable space group: I 41/A C D
;
_chemical_formula_sum "Si O2"
_cell_formula_units_Z 160
_cell_length_a 24.935360
_cell_length_b 24.935360
_cell_length_c 12.803776
_cell_angle_alpha 90.000000
_cell_angle_beta 90.000000
_cell_angle_gamma 90.000000
_cell_volume 7961.031694
_symmetry_space_group_name_H-M "I 41/A C D"
_symmetry_group_IT_number 142
_space_group.IT_coordinate_system_code '2'
_symmetry_cell_setting 'tetragonal'
loop_
_space_group_symop_operation_xyz
x,y,z
1/4-y,3/4+x,1/4+z
-x,1/2-y,z
1/4+y,1/4-x,3/4+z
x,-y,1/2-z
1/2-x,y,-z
3/4+y,1/4+x,1/4-z
1/4-y,1/4-x,1/4-z
-x,-y,-z
3/4+y,1/4-x,3/4-z
x,1/2+y,-z
3/4-y,3/4+x,1/4-z
-x,y,1/2+z
1/2+x,-y,z
1/4-y,3/4-x,3/4+z
3/4+y,3/4+x,3/4+z
1/2+x,1/2+y,1/2+z
3/4-y,1/4+x,3/4+z
1/2-x,-y,1/2+z
3/4+y,3/4-x,1/4+z
1/2+x,1/2-y,-z
-x,1/2+y,1/2-z
1/4+y,3/4+x,3/4-z
3/4-y,3/4-x,3/4-z
1/2-x,1/2-y,1/2-z
1/4+y,3/4-x,1/4-z
1/2+x,y,1/2-z
1/4-y,1/4+x,3/4-z
1/2-x,1/2+y,z
x,1/2-y,1/2+z
3/4-y,1/4-x,1/4+z
1/4+y,1/4+x,1/4+z
loop_
_atom_site_type_symbol
_atom_site_label
_atom_site_fract_x
_atom_site_fract_y
_atom_site_fract_z
Si Si1 0.622898 0.737171 0.263740
Si Si2 0.701113 0.696261 0.104892
Si Si3 0.684741 0.667648 0.873455
Si Si4 0.250000 0.206519 0.000000
Si Si5 0.067912 0.182089 0.125000
Si Si6 0.087705 0.891649 0.191431
O O1 0.654397 0.696474 0.188596
O O2 0.662207 0.782004 0.309259
O O3 0.572875 0.764647 0.199736
O O4 0.606445 0.698372 0.359419
O O5 0.751399 0.660099 0.145902
O O6 0.723668 0.756335 0.088624
O O7 0.675938 0.674943 0.997198
O O8 0.650703 0.616683 0.833676
O O9 0.205505 0.170985 0.940596
O O10 0.069407 0.129064 0.195544
#
# Coordination Sequence:
#
# PCOD8320973 Si02
#       6
#    32  32  32  16  16  32
#     4  11  18  33  60  82 114 152 185 235 292 336
#     4  10  18  35  57  83 110 143 200 243 270 342
#     4   9  20  32  51  84 113 145 189 243 280 334
#     4  10  18  34  54  90 110 142 190 240 292 342
#     4  10  22  36  54  89 120 142 192 242 274 358
#     4  11  21  33  55  84 117 149 191 236 302 337
#
# _framework density 20.097895999999999
#
# number of rings (size 3 to 8) (size 9 to 14) (size 15 to 20)
#    0.000    2.000    6.000    0.600    0.000    0.800 
#    0.000    0.000    0.000   36.000    0.000   22.400 
#    0.000    0.000    0.000    0.000    0.000    0.000 
#
# Total GULP energy -991235.234374 kJ/mol
# GULP energy per Si atom -12390.440430 kJ/mol
# Density = 2.005215 g / cm^3
# Si number density = 20.097896 Si / 1000 Ang^3
#
#
#
# Elastic Constant Matrix: (Units=GPa)
#
#
# Indices 1 2 3 4 5 6 
#
# 1 60.7325 39.6163 21.4180 0.0000 0.0000 0.0000
# 2 39.6163 60.7324 21.4172 0.0000 0.0000 0.0000
# 3 21.4180 21.4172 87.6724 0.0000 0.0000 0.0000
# 4 0.0000 0.0000 0.0000 28.3119 0.0000 0.0000
# 5 0.0000 0.0000 0.0000 0.0000 28.3127 0.0000
# 6 0.0000 0.0000 0.0000 0.0000 0.0000 28.1186
#
#
#
# Elastic Compliance Matrix: (Units=1/GPa)
#
#
# Indices 1 2 3 4 5 6 
#
# 1 0.029241 -0.018116 -0.002718 0.000000 0.000000 0.000000
# 2 -0.018116 0.029241 -0.002718 0.000000 0.000000 0.000000
# 3 -0.002718 -0.002718 0.012734 0.000000 0.000000 0.000000
# 4 0.000000 0.000000 0.000000 0.035321 0.000000 0.000000
# 5 0.000000 0.000000 0.000000 0.000000 0.035320 0.000000
# 6 0.000000 0.000000 0.000000 0.000000 0.000000 0.035564
#
#
# Mechanical properties :
#
#
# Convention : Reuss Voigt Hill
#
# Bulk Modulus (GPa) = 41.47068 41.56003 41.51535
# Shear Modulus (GPa) = 21.49968 25.39437 23.44702
#
# Velocity S-wave (km/s) = 3.27425 3.55848 3.41932
# Velocity P-wave (km/s) = 5.91383 6.13249 6.02415
#
# Compressibility (1/GPa) = 0.02411342
#
# Stress axis : x y z
#
# Youngs Moduli (GPa) = 34.19819 34.19836 78.53002
#
# Poissons Ratio (x) = 0.61953 0.21345
# Poissons Ratio (y) = 0.61953 0.21341
# Poissons Ratio (z) = 0.09295 0.09294
#
# Static dielectric constant tensor:
#      x y z
#    x 3.504230 0.000000 0.000000 
#    y 0.000000 3.504220 0.000000 
#    z 0.000000 0.000000 3.888080 
# 
# 
# High freq. dielectric constant tensor:
#      x y z
#    x 1.752080 0.000000 0.000000 
#    y 0.000000 1.752080 0.000000 
#    z 0.000000 0.000000 1.805090 
# 
# From -- ./inp_files/3898.got.cif
#   From: 2010.03.12/outbox.cif.g09.slc.cpg/sg142_2_cif.got.tgz:3898.got - 2010.04.03 13:27:16.
