data_PCOD8320760
_publ_section_title
;
Structure prediction by ZEFSAII (Michael W. Deem and Ramdas Pophale) SiO2 
 PCOD8320760
Probable space group: I 41/A M D
;
_chemical_formula_sum "Si O2"
_cell_formula_units_Z 160
_cell_length_a 17.731909
_cell_length_b 17.731909
_cell_length_c 24.769096
_cell_angle_alpha 90.000000
_cell_angle_beta 90.000000
_cell_angle_gamma 90.000000
_cell_volume 7787.913946
_symmetry_space_group_name_H-M "I 41/A M D"
_symmetry_group_IT_number 141
_space_group.IT_coordinate_system_code '2'
_symmetry_cell_setting 'tetragonal'
loop_
_space_group_symop_operation_xyz
x,y,z
1/4-y,3/4+x,1/4+z
-x,1/2-y,z
1/4+y,1/4-x,3/4+z
x,-y,-z
-x,1/2+y,-z
1/4+y,3/4+x,1/4-z
1/4-y,1/4-x,3/4-z
-x,-y,-z
3/4+y,1/4-x,3/4-z
x,1/2+y,-z
3/4-y,3/4+x,1/4-z
-x,y,z
x,1/2-y,z
3/4-y,1/4-x,3/4+z
3/4+y,3/4+x,1/4+z
1/2+x,1/2+y,1/2+z
3/4-y,1/4+x,3/4+z
1/2-x,-y,1/2+z
3/4+y,3/4-x,1/4+z
1/2+x,1/2-y,1/2-z
1/2-x,y,1/2-z
3/4+y,1/4+x,3/4-z
3/4-y,3/4-x,1/4-z
1/2-x,1/2-y,1/2-z
1/4+y,3/4-x,1/4-z
1/2+x,y,1/2-z
1/4-y,1/4+x,3/4-z
1/2-x,1/2+y,1/2+z
1/2+x,-y,1/2+z
1/4-y,3/4-x,1/4+z
1/4+y,1/4+x,3/4+z
loop_
_atom_site_type_symbol
_atom_site_label
_atom_site_fract_x
_atom_site_fract_y
_atom_site_fract_z
Si Si1 0.586350 0.089372 0.669483
Si Si2 0.585089 0.435423 0.372775
Si Si3 0.089381 0.837859 0.971201
Si Si4 0.413168 0.098005 0.958532
Si Si5 0.318223 0.161586 0.169651
O O1 0.500000 0.071971 0.681022
O O2 0.595147 0.154854 0.625000
O O3 0.620516 0.117541 0.726185
O O4 0.625797 0.014221 0.643880
O O5 0.500000 0.453443 0.389472
O O6 0.621836 0.390201 0.422983
O O7 0.585953 0.382887 0.320026
O O8 0.108437 0.750000 0.959314
O O9 0.000000 0.846905 0.979620
O O10 0.500000 0.115253 0.951094
O O11 0.393022 0.020250 0.926944
O O12 0.392765 0.101998 0.021585
O O13 0.358424 0.108424 0.125000
O O14 0.330589 0.250000 0.154702
#
# Coordination Sequence:
#
# PCOD8320760 Si02
#       5
#    32  32  32  32  32
#     4  10  21  36  54  78 107 139 178 222 267 317
#     4  10  21  35  53  80 108 136 179 228 265 308
#     4   9  18  34  56  80 108 143 178 214 265 325
#     4   9  19  36  54  74 107 146 177 213 270 329
#     4   9  19  35  55  80 107 138 180 225 266 314
#
# _framework density 20.544654000000001
#
# number of rings (size 3 to 8) (size 9 to 14) (size 15 to 20)
#    0.000    2.600    0.000    2.400    0.000    6.400 
#    0.000   11.000    0.000    0.000    0.000    0.000 
#    0.000    0.000    0.000    0.000    0.000    0.000 
#
# Total GULP energy -991109.666229 kJ/mol
# GULP energy per Si atom -12388.870828 kJ/mol
# Density = 2.049789 g / cm^3
# Si number density = 20.544654 Si / 1000 Ang^3
#
#
#
# Elastic Constant Matrix: (Units=GPa)
#
#
# Indices 1 2 3 4 5 6 
#
# 1 42.5637 38.4257 48.8347 0.0000 0.0000 0.0000
# 2 38.4257 42.5602 48.8336 0.0000 0.0000 0.0000
# 3 48.8347 48.8336 140.0301 0.0000 0.0000 0.0000
# 4 0.0000 0.0000 0.0000 30.5801 0.0000 0.0000
# 5 0.0000 0.0000 0.0000 0.0000 30.5803 0.0000
# 6 0.0000 0.0000 0.0000 0.0000 0.0000 20.3365
#
#
#
# Elastic Compliance Matrix: (Units=1/GPa)
#
#
# Indices 1 2 3 4 5 6 
#
# 1 0.131530 -0.110227 -0.007430 0.000000 0.000000 0.000000
# 2 -0.110227 0.131544 -0.007433 0.000000 0.000000 0.000000
# 3 -0.007430 -0.007433 0.012325 0.000000 0.000000 0.000000
# 4 0.000000 0.000000 0.000000 0.032701 0.000000 0.000000
# 5 0.000000 0.000000 0.000000 0.000000 0.032701 0.000000
# 6 0.000000 0.000000 0.000000 0.000000 0.000000 0.049173
#
#
# Mechanical properties :
#
#
# Convention : Reuss Voigt Hill
#
# Bulk Modulus (GPa) = 39.65431 55.26021 47.45726
# Shear Modulus (GPa) = 7.70941 22.23674 14.97307
#
# Velocity S-wave (km/s) = 1.93924 3.29350 2.70257
# Velocity P-wave (km/s) = 4.93535 6.43575 5.73483
#
# Compressibility (1/GPa) = 0.02521794
#
# Stress axis : x y z
#
# Youngs Moduli (GPa) = 7.60286 7.60203 81.13789
#
# Poissons Ratio (x) = 0.83795 0.60286
# Poissons Ratio (y) = 0.83804 0.60311
# Poissons Ratio (z) = 0.05649 0.05651
#
# Static dielectric constant tensor:
#      x y z
#    x 3.624730 0.000000 0.000000 
#    y 0.000000 3.624730 0.000000 
#    z 0.000000 0.000000 3.861480 
# 
# 
# High freq. dielectric constant tensor:
#      x y z
#    x 1.786660 0.000000 0.000000 
#    y 0.000000 1.786660 0.000000 
#    z 0.000000 0.000000 1.815570 
# 
# From -- ./inp_files/12747.got.cif
#   From: 2010.03.12/outbox.cif.g09.slc.cpg/sg141_7_cif.got.tgz:12747.got - 2010.04.03 13:18:35.
