data_PCOD8320190
_publ_section_title
;
Structure prediction by ZEFSAII (Michael W. Deem and Ramdas Pophale) SiO2 
 PCOD8320190
Probable space group: I 4/M C M
;
_chemical_formula_sum "Si O2"
_cell_formula_units_Z 168
_cell_length_a 22.132163
_cell_length_b 22.132163
_cell_length_c 19.596668
_cell_angle_alpha 90.000000
_cell_angle_beta 90.000000
_cell_angle_gamma 90.000000
_cell_volume 9599.087603
_symmetry_space_group_name_H-M "I 4/M C M"
_symmetry_group_IT_number 140
_symmetry_cell_setting 'tetragonal'
loop_
_space_group_symop_operation_xyz
x,y,z
-y,x,z
-x,-y,z
y,-x,z
x,-y,1/2-z
-x,y,1/2-z
y,x,1/2-z
-y,-x,1/2-z
-x,-y,-z
y,-x,-z
x,y,-z
-y,x,-z
-x,y,1/2+z
x,-y,1/2+z
-y,-x,1/2+z
y,x,1/2+z
1/2+x,1/2+y,1/2+z
1/2-y,1/2+x,1/2+z
1/2-x,1/2-y,1/2+z
1/2+y,1/2-x,1/2+z
1/2+x,1/2-y,-z
1/2-x,1/2+y,-z
1/2+y,1/2+x,-z
1/2-y,1/2-x,-z
1/2-x,1/2-y,1/2-z
1/2+y,1/2-x,1/2-z
1/2+x,1/2+y,1/2-z
1/2-y,1/2+x,1/2-z
1/2-x,1/2+y,z
1/2+x,1/2-y,z
1/2-y,1/2-x,z
1/2+y,1/2+x,z
loop_
_atom_site_type_symbol
_atom_site_label
_atom_site_fract_x
_atom_site_fract_y
_atom_site_fract_z
Si Si1 0.715825 0.883340 0.763235
Si Si2 0.547420 0.952581 0.344478
Si Si3 0.634882 0.235321 0.893210
Si Si4 0.770477 0.827770 0.118091
Si Si5 0.105328 0.703574 0.000000
Si Si6 0.068657 0.431344 0.000000
Si Si7 0.039632 0.705782 0.500000
Si Si8 0.350238 0.000000 0.750000
O O1 0.661517 0.838484 0.780843
O O2 0.735186 0.880874 0.685684
O O3 0.773098 0.865232 0.810764
O O4 0.692158 0.949498 0.783421
O O5 0.543672 0.956329 0.427237
O O6 0.612167 0.971057 0.313093
O O7 0.500000 0.000000 0.314860
O O8 0.678186 0.178186 0.913676
O O9 0.665605 0.300935 0.907769
O O10 0.571590 0.234928 0.933664
O O11 0.732504 0.767497 0.131248
O O12 0.739757 0.871999 0.064853
O O13 0.032911 0.707896 0.000000
O O14 0.135025 0.635025 0.000000
O O15 0.056117 0.362510 0.000000
#
# Coordination Sequence:
#
# PCOD8320190 Si02
#       8
#    32  16  32  32  16   8  16  16
#     4  10  20  32  52  79 103 136 182 232 277 324
#     4  12  23  40  50  69 100 165 207 236 255 308
#     4  10  19  36  58  77 103 137 187 230 280 326
#     4   9  19  36  57  78 101 140 179 228 282 336
#     4  10  23  38  52  76 114 149 184 218 275 327
#     4  12  27  36  52  74 108 136 204 246 274 291
#     4  12  23  37  54  78 110 148 186 235 268 321
#     4  12  21  36  54  72 114 152 193 226 272 328
#
# _framework density 17.501663000000001
#
# number of rings (size 3 to 8) (size 9 to 14) (size 15 to 20)
#    0.000    1.524    2.857    2.429    5.333    4.571 
#    0.000    0.000    0.000    0.000    0.000    0.000 
#    0.000    6.095    0.000    1.714    0.000    0.000 
#
# Total GULP energy -1040783.512972 kJ/mol
# GULP energy per Si atom -12390.279916 kJ/mol
# Density = 1.746183 g / cm^3
# Si number density = 17.501663 Si / 1000 Ang^3
#
#
#
# Elastic Constant Matrix: (Units=GPa)
#
#
# Indices 1 2 3 4 5 6 
#
# 1 88.6937 58.1591 31.9921 0.0000 0.0000 0.0000
# 2 58.1591 88.6933 31.9919 0.0000 0.0000 0.0000
# 3 31.9921 31.9919 99.5730 0.0000 0.0000 0.0000
# 4 0.0000 0.0000 0.0000 17.6857 0.0000 0.0000
# 5 0.0000 0.0000 0.0000 0.0000 17.6874 0.0000
# 6 0.0000 0.0000 0.0000 0.0000 0.0000 25.5375
#
#
#
# Elastic Compliance Matrix: (Units=1/GPa)
#
#
# Indices 1 2 3 4 5 6 
#
# 1 0.020334 -0.012416 -0.002544 0.000000 0.000000 0.000000
# 2 -0.012416 0.020334 -0.002544 0.000000 0.000000 0.000000
# 3 -0.002544 -0.002544 0.011678 0.000000 0.000000 0.000000
# 4 0.000000 0.000000 0.000000 0.056543 0.000000 0.000000
# 5 0.000000 0.000000 0.000000 0.000000 0.056537 0.000000
# 6 0.000000 0.000000 0.000000 0.000000 0.000000 0.039158
#
#
# Mechanical properties :
#
#
# Convention : Reuss Voigt Hill
#
# Bulk Modulus (GPa) = 57.67803 57.91623 57.79713
# Shear Modulus (GPa) = 20.37730 22.50325 21.44028
#
# Velocity S-wave (km/s) = 3.41590 3.58966 3.50386
# Velocity P-wave (km/s) = 6.97030 7.09539 7.03312
#
# Compressibility (1/GPa) = 0.01733763
#
# Stress axis : x y z
#
# Youngs Moduli (GPa) = 49.17883 49.17864 85.63400
#
# Poissons Ratio (x) = 0.61060 0.21785
# Poissons Ratio (y) = 0.61061 0.21785
# Poissons Ratio (z) = 0.12511 0.12511
#
# Static dielectric constant tensor:
#      x y z
#    x 3.232540 0.000000 0.000000 
#    y 0.000000 3.232530 0.000000 
#    z 0.000000 0.000000 3.846690 
# 
# 
# High freq. dielectric constant tensor:
#      x y z
#    x 1.647010 0.000000 0.000000 
#    y 0.000000 1.647010 0.000000 
#    z 0.000000 0.000000 1.699190 
# 
# From -- ./inp_files/8487.got.cif
#   From: 2010.06.25/outbox.cif.g09.slc.cpg/sg140_5_cif.got.tgz:8487.got - 2010.06.28 10:53:23.
