data_PCOD8320493
_publ_section_title
;
Structure prediction by ZEFSAII (Michael W. Deem and Ramdas Pophale) SiO2 
 PCOD8320493
Probable space group: I 4/M C M
;
_chemical_formula_sum "Si O2"
_cell_formula_units_Z 128
_cell_length_a 27.012414
_cell_length_b 27.012414
_cell_length_c 9.733716
_cell_angle_alpha 90.000000
_cell_angle_beta 90.000000
_cell_angle_gamma 90.000000
_cell_volume 7102.405519
_symmetry_space_group_name_H-M "I 4/M C M"
_symmetry_group_IT_number 140
_symmetry_cell_setting 'tetragonal'
loop_
_space_group_symop_operation_xyz
x,y,z
-y,x,z
-x,-y,z
y,-x,z
x,-y,1/2-z
-x,y,1/2-z
y,x,1/2-z
-y,-x,1/2-z
-x,-y,-z
y,-x,-z
x,y,-z
-y,x,-z
-x,y,1/2+z
x,-y,1/2+z
-y,-x,1/2+z
y,x,1/2+z
1/2+x,1/2+y,1/2+z
1/2-y,1/2+x,1/2+z
1/2-x,1/2-y,1/2+z
1/2+y,1/2-x,1/2+z
1/2+x,1/2-y,-z
1/2-x,1/2+y,-z
1/2+y,1/2+x,-z
1/2-y,1/2-x,-z
1/2-x,1/2-y,1/2-z
1/2+y,1/2-x,1/2-z
1/2+x,1/2+y,1/2-z
1/2-y,1/2+x,1/2-z
1/2-x,1/2+y,z
1/2+x,1/2-y,z
1/2-y,1/2-x,z
1/2+y,1/2+x,z
loop_
_atom_site_type_symbol
_atom_site_label
_atom_site_fract_x
_atom_site_fract_y
_atom_site_fract_z
Si Si1 0.865150 0.000000 0.250000
Si Si2 0.239002 0.453053 0.159332
Si Si3 0.923049 0.023497 0.500000
Si Si4 0.397894 0.329539 0.344970
Si Si5 0.454122 0.126197 0.659103
O O1 0.838182 0.042616 0.164771
O O2 0.894896 0.033931 0.358927
O O3 0.257865 0.500000 0.250000
O O4 0.270474 0.401643 0.188095
O O5 0.182554 0.440290 0.197769
O O6 0.243966 0.468513 0.000000
O O7 0.938296 0.966887 0.500000
O O8 0.360281 0.360281 0.250000
O O9 0.380481 0.341094 0.500000
O O10 0.500000 0.107472 0.750000
O O11 0.469154 0.121034 0.500000
O O12 0.406610 0.093391 0.695538
#
# Coordination Sequence:
#
# PCOD8320493 Si02
#       5
#    16  32  16  32  32
#     4  12  22  33  44  64  86 114 153 202 258 312
#     4   9  18  34  52  76 101 132 175 215 257 305
#     4  11  22  34  44  56  82 116 152 192 247 310
#     4  11  23  35  51  70  93 126 166 215 266 316
#     4   9  18  33  55  82 115 148 176 206 244 293
#
# _framework density 18.022062999999999
#
# number of rings (size 3 to 8) (size 9 to 14) (size 15 to 20)
#    0.000    1.875    2.500    2.250    1.750    2.750 
#    0.000    1.250    0.000    0.750    0.000    0.000 
#    0.000    0.000    0.000    0.000    0.000    0.000 
#
# Total GULP energy -792902.495405 kJ/mol
# GULP energy per Si atom -12389.101491 kJ/mol
# Density = 1.798104 g / cm^3
# Si number density = 18.022063 Si / 1000 Ang^3
#
#
#
# Elastic Constant Matrix: (Units=GPa)
#
#
# Indices 1 2 3 4 5 6 
#
# 1 80.0149 51.8344 43.5929 0.0000 0.0000 0.0000
# 2 51.8344 80.0149 43.5929 0.0000 0.0000 0.0000
# 3 43.5929 43.5929 93.7635 0.0000 0.0000 0.0000
# 4 0.0000 0.0000 0.0000 24.7473 0.0000 0.0000
# 5 0.0000 0.0000 0.0000 0.0000 24.7473 0.0000
# 6 0.0000 0.0000 0.0000 0.0000 0.0000 27.8552
#
#
#
# Elastic Compliance Matrix: (Units=1/GPa)
#
#
# Indices 1 2 3 4 5 6 
#
# 1 0.023218 -0.012267 -0.005091 0.000000 0.000000 0.000000
# 2 -0.012267 0.023218 -0.005091 0.000000 0.000000 0.000000
# 3 -0.005091 -0.005091 0.015399 0.000000 0.000000 0.000000
# 4 0.000000 0.000000 0.000000 0.040408 0.000000 0.000000
# 5 0.000000 0.000000 0.000000 0.000000 0.040408 0.000000
# 6 0.000000 0.000000 0.000000 0.000000 0.000000 0.035900
#
#
# Mechanical properties :
#
#
# Convention : Reuss Voigt Hill
#
# Bulk Modulus (GPa) = 59.04616 59.09264 59.06940
# Shear Modulus (GPa) = 21.82467 23.12150 22.47308
#
# Velocity S-wave (km/s) = 3.48371 3.58572 3.53509
# Velocity P-wave (km/s) = 7.00115 7.07131 7.03632
#
# Compressibility (1/GPa) = 0.01693590
#
# Stress axis : x y z
#
# Youngs Moduli (GPa) = 43.06935 43.06935 64.93749
#
# Poissons Ratio (x) = 0.52834 0.33063
# Poissons Ratio (y) = 0.52834 0.33063
# Poissons Ratio (z) = 0.21929 0.21929
#
# Static dielectric constant tensor:
#      x y z
#    x 3.283390 0.000000 0.000000 
#    y 0.000000 3.283390 0.000000 
#    z 0.000000 0.000000 3.319280 
# 
# 
# High freq. dielectric constant tensor:
#      x y z
#    x 1.679820 0.000000 0.000000 
#    y 0.000000 1.679820 0.000000 
#    z 0.000000 0.000000 1.709570 
# 
# From -- ./inp_files/1477.got.cif
#   From: 2010.06.25/outbox.cif.g09.slc.cpg/sg140_1_cif.got.tgz:1477.got - 2010.06.28 10:53:23.
