data_PCOD8320735
_publ_section_title
;
Structure prediction by ZEFSAII (Michael W. Deem and Ramdas Pophale) SiO2 
 PCOD8320735
Probable space group: I 41/A M D
;
_chemical_formula_sum "Si O2"
_cell_formula_units_Z 160
_cell_length_a 17.842564
_cell_length_b 17.842564
_cell_length_c 24.708908
_cell_angle_alpha 90.000000
_cell_angle_beta 90.000000
_cell_angle_gamma 90.000000
_cell_volume 7866.256050
_symmetry_space_group_name_H-M "I 41/A M D"
_symmetry_group_IT_number 141
_space_group.IT_coordinate_system_code '2'
_symmetry_cell_setting 'tetragonal'
loop_
_space_group_symop_operation_xyz
x,y,z
1/4-y,3/4+x,1/4+z
-x,1/2-y,z
1/4+y,1/4-x,3/4+z
x,-y,-z
-x,1/2+y,-z
1/4+y,3/4+x,1/4-z
1/4-y,1/4-x,3/4-z
-x,-y,-z
3/4+y,1/4-x,3/4-z
x,1/2+y,-z
3/4-y,3/4+x,1/4-z
-x,y,z
x,1/2-y,z
3/4-y,1/4-x,3/4+z
3/4+y,3/4+x,1/4+z
1/2+x,1/2+y,1/2+z
3/4-y,1/4+x,3/4+z
1/2-x,-y,1/2+z
3/4+y,3/4-x,1/4+z
1/2+x,1/2-y,1/2-z
1/2-x,y,1/2-z
3/4+y,1/4+x,3/4-z
3/4-y,3/4-x,1/4-z
1/2-x,1/2-y,1/2-z
1/4+y,3/4-x,1/4-z
1/2+x,y,1/2-z
1/4-y,1/4+x,3/4-z
1/2-x,1/2+y,1/2+z
1/2+x,-y,1/2+z
1/4-y,3/4-x,1/4+z
1/4+y,1/4+x,3/4+z
loop_
_atom_site_type_symbol
_atom_site_label
_atom_site_fract_x
_atom_site_fract_y
_atom_site_fract_z
Si Si1 0.586123 0.577128 0.829552
Si Si2 0.584316 0.416302 0.991866
Si Si3 0.652525 0.161910 0.901427
Si Si4 0.820322 0.589126 0.948553
Si Si5 0.669182 0.550646 0.317975
O O1 0.640084 0.609916 0.875000
O O2 0.500000 0.590559 0.845710
O O3 0.604801 0.618475 0.773952
O O4 0.599539 0.488979 0.821420
O O5 0.500000 0.417604 0.013838
O O6 0.586518 0.386427 0.929953
O O7 0.618528 0.500000 0.000000
O O8 0.643420 0.250000 0.910687
O O9 0.652141 0.145554 0.837129
O O10 0.726993 0.131257 0.930761
O O11 0.782949 0.507943 0.936326
O O12 0.843686 0.601429 0.011853
O O13 0.654243 0.595758 0.375000
#
# Coordination Sequence:
#
# PCOD8320735 Si02
#       5
#    32  32  32  32  32
#     4  12  24  37  57  84 116 158 206 252 292 346
#     4  11  23  39  58  82 117 163 207 248 300 362
#     4  11  22  36  57  89 125 157 202 258 306 357
#     4  10  20  37  62  85 117 161 206 245 301 364
#     4   9  18  36  61  87 113 155 201 247 301 354
#
# _framework density 20.340043999999999
#
# number of rings (size 3 to 8) (size 9 to 14) (size 15 to 20)
#    0.000    1.400    2.000    5.400    0.000    5.000 
#    0.000    8.000    0.000    0.000    0.000    0.000 
#    0.000   46.800    0.000    0.200    0.000    0.000 
#
# Total GULP energy -991443.632999 kJ/mol
# GULP energy per Si atom -12393.045412 kJ/mol
# Density = 2.029375 g / cm^3
# Si number density = 20.340044 Si / 1000 Ang^3
#
#
#
# Elastic Constant Matrix: (Units=GPa)
#
#
# Indices 1 2 3 4 5 6 
#
# 1 86.9707 21.9676 31.8675 0.0000 0.0000 0.0000
# 2 21.9676 86.9706 31.8664 0.0000 0.0000 0.0000
# 3 31.8675 31.8664 165.5628 0.0000 0.0000 0.0000
# 4 0.0000 0.0000 0.0000 14.5883 0.0000 0.0000
# 5 0.0000 0.0000 0.0000 0.0000 14.5868 0.0000
# 6 0.0000 0.0000 0.0000 0.0000 0.0000 6.2569
#
#
#
# Elastic Compliance Matrix: (Units=1/GPa)
#
#
# Indices 1 2 3 4 5 6 
#
# 1 0.012864 -0.002520 -0.001991 0.000000 0.000000 0.000000
# 2 -0.002520 0.012864 -0.001991 0.000000 0.000000 0.000000
# 3 -0.001991 -0.001991 0.006806 0.000000 0.000000 0.000000
# 4 0.000000 0.000000 0.000000 0.068548 0.000000 0.000000
# 5 0.000000 0.000000 0.000000 0.000000 0.068555 0.000000
# 6 0.000000 0.000000 0.000000 0.000000 0.000000 0.159822
#
#
# Mechanical properties :
#
#
# Convention : Reuss Voigt Hill
#
# Bulk Modulus (GPa) = 51.20061 56.76743 53.98402
# Shear Modulus (GPa) = 14.32769 24.00658 19.16713
#
# Velocity S-wave (km/s) = 2.65695 3.43922 3.07308
# Velocity P-wave (km/s) = 5.88553 6.61368 6.26020
#
# Compressibility (1/GPa) = 0.01953102
#
# Stress axis : x y z
#
# Youngs Moduli (GPa) = 77.73539 77.73570 146.91923
#
# Poissons Ratio (x) = 0.19588 0.29253
# Poissons Ratio (y) = 0.19587 0.29251
# Poissons Ratio (z) = 0.15478 0.15477
#
# Static dielectric constant tensor:
#      x y z
#    x 3.372660 0.000000 0.000000 
#    y 0.000000 3.372660 0.000000 
#    z 0.000000 0.000000 4.318930 
# 
# 
# High freq. dielectric constant tensor:
#      x y z
#    x 1.761920 0.000000 0.000000 
#    y 0.000000 1.761920 0.000000 
#    z 0.000000 0.000000 1.820800 
# 
# From -- ./inp_files/12700.got.cif
#   From: 2010.03.12/outbox.cif.g09.slc.cpg/sg141_7_cif.got.tgz:12700.got - 2010.04.03 13:18:35.
