data_PCOD8320626
_publ_section_title
;
Structure prediction by ZEFSAII (Michael W. Deem and Ramdas Pophale) SiO2 
 PCOD8320626
Probable space group: I 41/A M D
;
_chemical_formula_sum "Si O2"
_cell_formula_units_Z 128
_cell_length_a 23.327082
_cell_length_b 23.327082
_cell_length_c 12.623374
_cell_angle_alpha 90.000000
_cell_angle_beta 90.000000
_cell_angle_gamma 90.000000
_cell_volume 6869.043735
_symmetry_space_group_name_H-M "I 41/A M D"
_symmetry_group_IT_number 141
_space_group.IT_coordinate_system_code '2'
_symmetry_cell_setting 'tetragonal'
loop_
_space_group_symop_operation_xyz
x,y,z
1/4-y,3/4+x,1/4+z
-x,1/2-y,z
1/4+y,1/4-x,3/4+z
x,-y,-z
-x,1/2+y,-z
1/4+y,3/4+x,1/4-z
1/4-y,1/4-x,3/4-z
-x,-y,-z
3/4+y,1/4-x,3/4-z
x,1/2+y,-z
3/4-y,3/4+x,1/4-z
-x,y,z
x,1/2-y,z
3/4-y,1/4-x,3/4+z
3/4+y,3/4+x,1/4+z
1/2+x,1/2+y,1/2+z
3/4-y,1/4+x,3/4+z
1/2-x,-y,1/2+z
3/4+y,3/4-x,1/4+z
1/2+x,1/2-y,1/2-z
1/2-x,y,1/2-z
3/4+y,1/4+x,3/4-z
3/4-y,3/4-x,1/4-z
1/2-x,1/2-y,1/2-z
1/4+y,3/4-x,1/4-z
1/2+x,y,1/2-z
1/4-y,1/4+x,3/4-z
1/2-x,1/2+y,1/2+z
1/2+x,-y,1/2+z
1/4-y,3/4-x,1/4+z
1/4+y,1/4+x,3/4+z
loop_
_atom_site_type_symbol
_atom_site_label
_atom_site_fract_x
_atom_site_fract_y
_atom_site_fract_z
Si Si1 0.811833 0.313114 0.381752
Si Si2 0.261379 0.396603 0.631119
Si Si3 0.138910 0.388944 0.544917
Si Si4 0.435379 0.563763 0.218276
O O1 0.831803 0.250000 0.344064
O O2 0.849773 0.327619 0.487398
O O3 0.819794 0.359461 0.290329
O O4 0.744464 0.312848 0.402079
O O5 0.250000 0.375295 0.750000
O O6 0.293590 0.456411 0.625000
O O7 0.201833 0.411605 0.573893
O O8 0.300373 0.347362 0.577411
O O9 0.098780 0.387587 0.650083
O O10 0.500000 0.585693 0.242206
#
# Coordination Sequence:
#
# PCOD8320626 Si02
#       4
#    32  32  32  32
#     4   9  19  34  53  81 113 143 185 231 279 347
#     4  11  22  37  53  80 119 150 188 235 292 356
#     4  10  19  33  54  80 110 148 181 224 291 339
#     4  10  20  35  55  78 106 146 191 233 277 341
#
# _framework density 18.634326999999999
#
# number of rings (size 3 to 8) (size 9 to 14) (size 15 to 20)
#    0.000    2.000    2.500    1.500    0.000    4.500 
#    0.000    0.000    0.000   12.750    0.000    0.000 
#    0.000    0.000    0.000    0.000    0.000    0.000 
#
# Total GULP energy -793058.218020 kJ/mol
# GULP energy per Si atom -12391.534657 kJ/mol
# Density = 1.859191 g / cm^3
# Si number density = 18.634327 Si / 1000 Ang^3
#
#
#
# Elastic Constant Matrix: (Units=GPa)
#
#
# Indices 1 2 3 4 5 6 
#
# 1 85.4059 35.6328 38.1650 0.0000 0.0000 0.0000
# 2 35.6328 85.4004 38.1636 0.0000 0.0000 0.0000
# 3 38.1650 38.1636 116.9423 0.0000 0.0000 0.0000
# 4 0.0000 0.0000 0.0000 27.9480 0.0000 0.0000
# 5 0.0000 0.0000 0.0000 0.0000 27.9488 0.0000
# 6 0.0000 0.0000 0.0000 0.0000 0.0000 15.0431
#
#
#
# Elastic Compliance Matrix: (Units=1/GPa)
#
#
# Indices 1 2 3 4 5 6 
#
# 1 0.015247 -0.004845 -0.003395 0.000000 0.000000 0.000000
# 2 -0.004845 0.015248 -0.003395 0.000000 0.000000 0.000000
# 3 -0.003395 -0.003395 0.010767 0.000000 0.000000 0.000000
# 4 0.000000 0.000000 0.000000 0.035781 0.000000 0.000000
# 5 0.000000 0.000000 0.000000 0.000000 0.035780 0.000000
# 6 0.000000 0.000000 0.000000 0.000000 0.000000 0.066476
#
#
# Mechanical properties :
#
#
# Convention : Reuss Voigt Hill
#
# Bulk Modulus (GPa) = 55.57702 56.85238 56.21470
# Shear Modulus (GPa) = 23.97324 25.90712 24.94018
#
# Velocity S-wave (km/s) = 3.59069 3.73270 3.66238
# Velocity P-wave (km/s) = 6.86152 7.01093 6.93663
#
# Compressibility (1/GPa) = 0.01799305
#
# Stress axis : x y z
#
# Youngs Moduli (GPa) = 65.58594 65.58176 92.87489
#
# Poissons Ratio (x) = 0.31772 0.31531
# Poissons Ratio (y) = 0.31774 0.31532
# Poissons Ratio (z) = 0.22266 0.22266
#
# Static dielectric constant tensor:
#      x y z
#    x 3.426850 0.000000 0.000000 
#    y 0.000000 3.426850 0.000000 
#    z 0.000000 0.000000 3.664980 
# 
# 
# High freq. dielectric constant tensor:
#      x y z
#    x 1.702880 0.000000 0.000000 
#    y 0.000000 1.702880 0.000000 
#    z 0.000000 0.000000 1.732340 
# 
# From -- ./inp_files/4542.got.cif
#   From: 2010.03.12/outbox.cif.g09.slc.cpg/sg141_3_cif.got.tgz:4542.got - 2010.04.03 13:18:35.
