data_PCOD8320496
_publ_section_title
;
Structure prediction by ZEFSAII (Michael W. Deem and Ramdas Pophale) SiO2 
 PCOD8320496
Probable space group: I 4/M C M
;
_chemical_formula_sum "Si O2"
_cell_formula_units_Z 160
_cell_length_a 25.026112
_cell_length_b 25.026112
_cell_length_c 14.303957
_cell_angle_alpha 90.000000
_cell_angle_beta 90.000000
_cell_angle_gamma 90.000000
_cell_volume 8958.658124
_symmetry_space_group_name_H-M "I 4/M C M"
_symmetry_group_IT_number 140
_symmetry_cell_setting 'tetragonal'
loop_
_space_group_symop_operation_xyz
x,y,z
-y,x,z
-x,-y,z
y,-x,z
x,-y,1/2-z
-x,y,1/2-z
y,x,1/2-z
-y,-x,1/2-z
-x,-y,-z
y,-x,-z
x,y,-z
-y,x,-z
-x,y,1/2+z
x,-y,1/2+z
-y,-x,1/2+z
y,x,1/2+z
1/2+x,1/2+y,1/2+z
1/2-y,1/2+x,1/2+z
1/2-x,1/2-y,1/2+z
1/2+y,1/2-x,1/2+z
1/2+x,1/2-y,-z
1/2-x,1/2+y,-z
1/2+y,1/2+x,-z
1/2-y,1/2-x,-z
1/2-x,1/2-y,1/2-z
1/2+y,1/2-x,1/2-z
1/2+x,1/2+y,1/2-z
1/2-y,1/2+x,1/2-z
1/2-x,1/2+y,z
1/2+x,1/2-y,z
1/2-y,1/2-x,z
1/2+y,1/2+x,z
loop_
_atom_site_type_symbol
_atom_site_label
_atom_site_fract_x
_atom_site_fract_y
_atom_site_fract_z
Si Si1 0.749026 0.937809 0.770096
Si Si2 0.042304 0.542304 0.887999
Si Si3 0.901023 0.687983 0.105522
Si Si4 0.581469 0.534431 0.500000
Si Si5 0.524298 0.159136 0.394167
Si Si6 0.444233 0.366137 0.803997
O O1 0.735540 0.898337 0.682039
O O2 0.700571 0.935625 0.843904
O O3 0.806427 0.919165 0.808621
O O4 0.756126 0.000000 0.750000
O O5 0.100952 0.529825 0.849178
O O6 0.000000 0.500000 0.846105
O O7 0.039967 0.539967 0.000000
O O8 0.860256 0.639745 0.128747
O O9 0.961755 0.669665 0.115275
O O10 0.890044 0.709448 0.000000
O O11 0.528079 0.569112 0.500000
O O12 0.615801 0.548697 0.590074
O O13 0.543855 0.160137 0.500000
O O14 0.500000 0.369184 0.750000
O O15 0.403424 0.403424 0.750000
#
# Coordination Sequence:
#
# PCOD8320496 Si02
#       6
#    32  16  32  16  32  32
#     4   9  20  34  50  75 109 144 181 234 280 335
#     4   9  16  26  44  72 106 141 177 225 289 347
#     4   9  17  32  53  73  98 138 188 239 288 335
#     4  11  22  36  62  92 121 158 183 220 281 342
#     4   9  17  29  46  73 103 141 183 228 281 346
#     4  11  22  39  57  85 120 152 188 229 278 341
#
# _framework density 17.859817
#
# number of rings (size 3 to 8) (size 9 to 14) (size 15 to 20)
#    0.000    2.400    2.000    0.600    2.800    2.600 
#    7.200    0.000    0.000    0.600    0.000    0.000 
#    0.000    0.000    0.000    0.000    0.000    0.000 
#
# Total GULP energy -991251.260190 kJ/mol
# GULP energy per Si atom -12390.640752 kJ/mol
# Density = 1.781917 g / cm^3
# Si number density = 17.859817 Si / 1000 Ang^3
#
#
#
# Elastic Constant Matrix: (Units=GPa)
#
#
# Indices 1 2 3 4 5 6 
#
# 1 102.8349 50.3165 58.4164 0.0000 0.0000 0.0000
# 2 50.3165 102.8349 58.4164 0.0000 0.0000 0.0000
# 3 58.4164 58.4164 129.3607 0.0000 0.0000 0.0000
# 4 0.0000 0.0000 0.0000 19.6384 0.0000 0.0000
# 5 0.0000 0.0000 0.0000 0.0000 19.6384 0.0000
# 6 0.0000 0.0000 0.0000 0.0000 0.0000 8.8577
#
#
#
# Elastic Compliance Matrix: (Units=1/GPa)
#
#
# Indices 1 2 3 4 5 6 
#
# 1 0.014501 -0.004540 -0.004498 0.000000 0.000000 0.000000
# 2 -0.004540 0.014501 -0.004498 0.000000 0.000000 0.000000
# 3 -0.004498 -0.004498 0.011793 0.000000 0.000000 0.000000
# 4 0.000000 0.000000 0.000000 0.050921 0.000000 0.000000
# 5 0.000000 0.000000 0.000000 0.000000 0.050921 0.000000
# 6 0.000000 0.000000 0.000000 0.000000 0.000000 0.112897
#
#
# Mechanical properties :
#
#
# Convention : Reuss Voigt Hill
#
# Bulk Modulus (GPa) = 72.87482 74.36988 73.62235
# Shear Modulus (GPa) = 17.41073 20.81897 19.11485
#
# Velocity S-wave (km/s) = 3.12565 3.41792 3.27505
# Velocity P-wave (km/s) = 7.34293 7.57017 7.45742
#
# Compressibility (1/GPa) = 0.01372216
#
# Stress axis : x y z
#
# Youngs Moduli (GPa) = 68.96108 68.96108 84.79733
#
# Poissons Ratio (x) = 0.31308 0.38143
# Poissons Ratio (y) = 0.31308 0.38143
# Poissons Ratio (z) = 0.31020 0.31020
#
# Static dielectric constant tensor:
#      x y z
#    x 3.366920 0.000000 0.000000 
#    y 0.000000 3.366920 0.000000 
#    z 0.000000 0.000000 3.566740 
# 
# 
# High freq. dielectric constant tensor:
#      x y z
#    x 1.671250 0.000000 0.000000 
#    y 0.000000 1.671250 0.000000 
#    z 0.000000 0.000000 1.701620 
# 
# From -- ./inp_files/4824.got.cif
#   From: 2010.06.25/outbox.cif.g09.slc.cpg/sg140_3_cif.got.tgz:4824.got - 2010.06.28 10:53:23.
