data_PCOD8320324
_publ_section_title
;
Structure prediction by ZEFSAII (Michael W. Deem and Ramdas Pophale) SiO2 
 PCOD8320324
Probable space group: I 4/M C M
;
_chemical_formula_sum "Si O2"
_cell_formula_units_Z 128
_cell_length_a 24.779428
_cell_length_b 24.779428
_cell_length_c 10.827793
_cell_angle_alpha 90.000000
_cell_angle_beta 90.000000
_cell_angle_gamma 90.000000
_cell_volume 6648.482021
_symmetry_space_group_name_H-M "I 4/M C M"
_symmetry_group_IT_number 140
_symmetry_cell_setting 'tetragonal'
loop_
_space_group_symop_operation_xyz
x,y,z
-y,x,z
-x,-y,z
y,-x,z
x,-y,1/2-z
-x,y,1/2-z
y,x,1/2-z
-y,-x,1/2-z
-x,-y,-z
y,-x,-z
x,y,-z
-y,x,-z
-x,y,1/2+z
x,-y,1/2+z
-y,-x,1/2+z
y,x,1/2+z
1/2+x,1/2+y,1/2+z
1/2-y,1/2+x,1/2+z
1/2-x,1/2-y,1/2+z
1/2+y,1/2-x,1/2+z
1/2+x,1/2-y,-z
1/2-x,1/2+y,-z
1/2+y,1/2+x,-z
1/2-y,1/2-x,-z
1/2-x,1/2-y,1/2-z
1/2+y,1/2-x,1/2-z
1/2+x,1/2+y,1/2-z
1/2-y,1/2+x,1/2-z
1/2-x,1/2+y,z
1/2+x,1/2-y,z
1/2-y,1/2-x,z
1/2+y,1/2+x,z
loop_
_atom_site_type_symbol
_atom_site_label
_atom_site_fract_x
_atom_site_fract_y
_atom_site_fract_z
Si Si1 0.644592 0.000000 0.250000
Si Si2 0.042644 0.457356 0.365819
Si Si3 0.938720 0.149447 0.500000
Si Si4 0.803680 0.892105 0.252672
Si Si5 0.847410 0.063278 0.500000
Si Si6 0.192279 0.603788 0.356920
O O1 0.605338 0.032421 0.340028
O O2 0.681190 0.041091 0.172346
O O3 0.030427 0.469574 0.500000
O O4 0.000000 0.500000 0.301896
O O5 0.927344 0.181852 0.373628
O O6 0.903577 0.095242 0.500000
O O7 0.001402 0.134731 0.500000
O O8 0.836764 0.836764 0.250000
O O9 0.740870 0.876603 0.268258
O O10 0.812950 0.923792 0.123774
O O11 0.209036 0.609360 0.500000
O O12 0.139812 0.639812 0.327789
#
# Coordination Sequence:
#
# PCOD8320324 Si02
#       6
#    16  16  16  32  16  32
#     4  12  21  38  54  90 120 152 201 252 296 366
#     4  11  20  36  58  78 119 166 195 239 304 361
#     4  10  20  39  61  93 125 164 202 244 304 366
#     4  10  22  41  63  89 122 162 206 253 308 364
#     4  10  22  37  63  93 127 160 202 248 300 368
#     4  11  24  41  63  88 117 159 208 253 307 370
#
# _framework density 19.252514999999999
#
# number of rings (size 3 to 8) (size 9 to 14) (size 15 to 20)
#    0.000    1.375    3.750    1.500    3.500    2.750 
#    2.250    0.625    0.000    4.500    0.000    0.000 
#    0.000    0.000    0.000    0.000    0.000    0.000 
#
# Total GULP energy -792894.565885 kJ/mol
# GULP energy per Si atom -12388.977592 kJ/mol
# Density = 1.920870 g / cm^3
# Si number density = 19.252515 Si / 1000 Ang^3
#
#
#
# Elastic Constant Matrix: (Units=GPa)
#
#
# Indices 1 2 3 4 5 6 
#
# 1 114.8257 30.1788 41.4093 0.0000 0.0000 0.0000
# 2 30.1788 114.8256 41.4092 0.0000 0.0000 0.0000
# 3 41.4093 41.4092 159.3754 0.0000 0.0000 0.0000
# 4 0.0000 0.0000 0.0000 28.4381 0.0000 0.0000
# 5 0.0000 0.0000 0.0000 0.0000 28.4382 0.0000
# 6 0.0000 0.0000 0.0000 0.0000 0.0000 19.3242
#
#
#
# Elastic Compliance Matrix: (Units=1/GPa)
#
#
# Indices 1 2 3 4 5 6 
#
# 1 0.009956 -0.001858 -0.002104 0.000000 0.000000 0.000000
# 2 -0.001858 0.009956 -0.002104 0.000000 0.000000 0.000000
# 3 -0.002104 -0.002104 0.007368 0.000000 0.000000 0.000000
# 4 0.000000 0.000000 0.000000 0.035164 0.000000 0.000000
# 5 0.000000 0.000000 0.000000 0.000000 0.035164 0.000000
# 6 0.000000 0.000000 0.000000 0.000000 0.000000 0.051749
#
#
# Mechanical properties :
#
#
# Convention : Reuss Voigt Hill
#
# Bulk Modulus (GPa) = 66.01641 68.33573 67.17607
# Shear Modulus (GPa) = 30.02324 33.64204 31.83264
#
# Velocity S-wave (km/s) = 3.95327 4.18474 4.07065
# Velocity P-wave (km/s) = 7.42980 7.67599 7.55390
#
# Compressibility (1/GPa) = 0.01514775
#
# Stress axis : x y z
#
# Youngs Moduli (GPa) = 100.44271 100.44269 135.72472
#
# Poissons Ratio (x) = 0.18661 0.28557
# Poissons Ratio (y) = 0.18661 0.28557
# Poissons Ratio (z) = 0.21134 0.21134
#
# Static dielectric constant tensor:
#      x y z
#    x 3.376270 0.000000 0.000000 
#    y 0.000000 3.376260 0.000000 
#    z 0.000000 0.000000 3.705990 
# 
# 
# High freq. dielectric constant tensor:
#      x y z
#    x 1.741640 0.000000 0.000000 
#    y 0.000000 1.741640 0.000000 
#    z 0.000000 0.000000 1.783320 
# 
# From -- ./inp_files/2957.got.cif
#   From: 2010.06.25/outbox.cif.g09.slc.cpg/sg140_2_cif.got.tgz:2957.got - 2010.06.28 10:53:23.
