data_PCOD8320998
_publ_section_title
;
Structure prediction by ZEFSAII (Michael W. Deem and Ramdas Pophale) SiO2 
 PCOD8320998
Probable space group: I 41/A C D
;
_chemical_formula_sum "Si O2"
_cell_formula_units_Z 144
_cell_length_a 26.810920
_cell_length_b 26.810920
_cell_length_c 9.660607
_cell_angle_alpha 90.000000
_cell_angle_beta 90.000000
_cell_angle_gamma 90.000000
_cell_volume 6944.289993
_symmetry_space_group_name_H-M "I 41/A C D"
_symmetry_group_IT_number 142
_space_group.IT_coordinate_system_code '2'
_symmetry_cell_setting 'tetragonal'
loop_
_space_group_symop_operation_xyz
x,y,z
1/4-y,3/4+x,1/4+z
-x,1/2-y,z
1/4+y,1/4-x,3/4+z
x,-y,1/2-z
1/2-x,y,-z
3/4+y,1/4+x,1/4-z
1/4-y,1/4-x,1/4-z
-x,-y,-z
3/4+y,1/4-x,3/4-z
x,1/2+y,-z
3/4-y,3/4+x,1/4-z
-x,y,1/2+z
1/2+x,-y,z
1/4-y,3/4-x,3/4+z
3/4+y,3/4+x,3/4+z
1/2+x,1/2+y,1/2+z
3/4-y,1/4+x,3/4+z
1/2-x,-y,1/2+z
3/4+y,3/4-x,1/4+z
1/2+x,1/2-y,-z
-x,1/2+y,1/2-z
1/4+y,3/4+x,3/4-z
3/4-y,3/4-x,3/4-z
1/2-x,1/2-y,1/2-z
1/4+y,3/4-x,1/4-z
1/2+x,y,1/2-z
1/4-y,1/4+x,3/4-z
1/2-x,1/2+y,z
x,1/2-y,1/2+z
3/4-y,1/4-x,1/4+z
1/4+y,1/4+x,1/4+z
loop_
_atom_site_type_symbol
_atom_site_label
_atom_site_fract_x
_atom_site_fract_y
_atom_site_fract_z
Si Si1 0.521782 0.543920 0.852328
Si Si2 0.854395 0.246639 0.144568
Si Si3 0.170053 0.876301 0.603880
Si Si4 0.798209 0.000000 0.750000
Si Si5 0.382817 0.132817 0.375000
Si Si6 0.593357 0.343357 0.875000
O O1 0.502313 0.500000 0.750000
O O2 0.507612 0.592510 0.764426
O O3 0.581076 0.540735 0.882070
O O4 0.495573 0.554815 0.002962
O O5 0.874863 0.191055 0.156125
O O6 0.897719 0.286826 0.180265
O O7 0.201042 0.920918 0.539198
O O8 0.140954 0.894936 0.741999
O O9 0.129241 0.856630 0.499700
O O10 0.762298 0.012298 0.625000
#
# Coordination Sequence:
#
# PCOD8320998 Si02
#       6
#    32  32  32  16  16  16
#     4  10  19  35  57  85 116 157 211 260 310 370
#     4  10  21  35  59  89 122 166 211 260 318 377
#     4  10  21  40  61  85 126 164 199 266 317 368
#     4  12  26  44  66  94 120 164 212 244 318 396
#     4  10  22  39  59  92 130 162 214 272 312 370
#     4  10  20  39  63  86 128 172 208 256 326 374
#
# _framework density 20.736460999999998
#
# number of rings (size 3 to 8) (size 9 to 14) (size 15 to 20)
#    0.000    1.778    2.222    2.000    1.556    0.444 
#    0.000    0.000    2.444    8.000    0.000    0.000 
#    0.000    0.000    0.000    0.000    0.000    0.000 
#
# Total GULP energy -891968.162399 kJ/mol
# GULP energy per Si atom -12388.446700 kJ/mol
# Density = 2.068926 g / cm^3
# Si number density = 20.736461 Si / 1000 Ang^3
#
#
#
# Elastic Constant Matrix: (Units=GPa)
#
#
# Indices 1 2 3 4 5 6 
#
# 1 68.5429 32.0381 29.5346 0.0000 0.0000 0.0000
# 2 32.0381 68.5429 29.5346 0.0000 0.0000 0.0000
# 3 29.5346 29.5346 133.9587 0.0000 0.0000 0.0000
# 4 0.0000 0.0000 0.0000 32.2240 0.0000 0.0000
# 5 0.0000 0.0000 0.0000 0.0000 32.2240 0.0000
# 6 0.0000 0.0000 0.0000 0.0000 0.0000 23.1593
#
#
#
# Elastic Compliance Matrix: (Units=1/GPa)
#
#
# Indices 1 2 3 4 5 6 
#
# 1 0.019407 -0.007986 -0.002518 0.000000 0.000000 0.000000
# 2 -0.007986 0.019407 -0.002518 0.000000 0.000000 0.000000
# 3 -0.002518 -0.002518 0.008575 0.000000 0.000000 0.000000
# 4 0.000000 0.000000 0.000000 0.031033 0.000000 0.000000
# 5 0.000000 0.000000 0.000000 0.000000 0.031033 0.000000
# 6 0.000000 0.000000 0.000000 0.000000 0.000000 0.043179
#
#
# Mechanical properties :
#
#
# Convention : Reuss Voigt Hill
#
# Bulk Modulus (GPa) = 46.84900 50.36213 48.60556
# Shear Modulus (GPa) = 26.91139 29.51724 28.21432
#
# Velocity S-wave (km/s) = 3.60638 3.77695 3.69265
# Velocity P-wave (km/s) = 6.32321 6.58483 6.45534
#
# Compressibility (1/GPa) = 0.02134517
#
# Stress axis : x y z
#
# Youngs Moduli (GPa) = 51.52678 51.52678 116.61364
#
# Poissons Ratio (x) = 0.41151 0.29364
# Poissons Ratio (y) = 0.41151 0.29364
# Poissons Ratio (z) = 0.12975 0.12975
#
# Static dielectric constant tensor:
#      x y z
#    x 3.751010 0.000000 0.000000 
#    y 0.000000 3.751010 0.000000 
#    z 0.000000 0.000000 4.065260 
# 
# 
# High freq. dielectric constant tensor:
#      x y z
#    x 1.795810 0.000000 0.000000 
#    y 0.000000 1.795810 0.000000 
#    z 0.000000 0.000000 1.833980 
# 
# From -- ./inp_files/2186.got.cif
#   From: 2010.03.12/outbox.cif.g09.slc.cpg/sg142_2_cif.got.tgz:2186.got - 2010.04.03 13:27:16.
