data_PCOD8320019
_publ_section_title
;
Structure prediction by ZEFSAII (Michael W. Deem and Ramdas Pophale) SiO2 
 PCOD8320019
Probable space group: I 4/M M M
;
_chemical_formula_sum "Si O2"
_cell_formula_units_Z 240
_cell_length_a 23.388203
_cell_length_b 23.388203
_cell_length_c 33.075787
_cell_angle_alpha 90.000000
_cell_angle_beta 90.000000
_cell_angle_gamma 90.000000
_cell_volume 18092.721404
_symmetry_space_group_name_H-M "I 4/M M M"
_symmetry_group_IT_number 139
_symmetry_cell_setting 'tetragonal'
loop_
_space_group_symop_operation_xyz
x,y,z
-y,x,z
-x,-y,z
y,-x,z
x,-y,-z
-x,y,-z
y,x,-z
-y,-x,-z
-x,-y,-z
y,-x,-z
x,y,-z
-y,x,-z
-x,y,z
x,-y,z
-y,-x,z
y,x,z
1/2+x,1/2+y,1/2+z
1/2-y,1/2+x,1/2+z
1/2-x,1/2-y,1/2+z
1/2+y,1/2-x,1/2+z
1/2+x,1/2-y,1/2-z
1/2-x,1/2+y,1/2-z
1/2+y,1/2+x,1/2-z
1/2-y,1/2-x,1/2-z
1/2-x,1/2-y,1/2-z
1/2+y,1/2-x,1/2-z
1/2+x,1/2+y,1/2-z
1/2-y,1/2+x,1/2-z
1/2-x,1/2+y,1/2+z
1/2+x,1/2-y,1/2+z
1/2-y,1/2-x,1/2+z
1/2+y,1/2+x,1/2+z
loop_
_atom_site_type_symbol
_atom_site_label
_atom_site_fract_x
_atom_site_fract_y
_atom_site_fract_z
Si Si1 0.063302 0.846575 0.827025
Si Si2 0.262391 0.935019 0.770805
Si Si3 0.827896 0.630486 0.663686
Si Si4 0.218029 0.872095 0.891633
Si Si5 0.262404 0.830378 0.716011
Si Si6 0.781332 0.435393 0.454938
Si Si7 0.392876 0.934492 0.098703
Si Si8 0.067976 0.500000 0.953609
O O1 0.103602 0.896399 0.809991
O O2 0.065250 0.795190 0.795942
O O3 0.083848 0.825404 0.870772
O O4 0.000000 0.871587 0.831633
O O5 0.314601 0.910867 0.798131
O O6 0.250165 0.894153 0.732507
O O7 0.277435 0.000000 0.756955
O O8 0.773834 0.634270 0.635030
O O9 0.839646 0.695332 0.678004
O O10 0.881758 0.604324 0.638717
O O11 0.190000 0.810001 0.896396
O O12 0.232564 0.895852 0.935790
O O13 0.203753 0.796248 0.703750
O O14 0.293315 0.793315 0.750000
O O15 0.793596 0.413595 0.500000
O O16 0.758451 0.500000 0.454626
O O17 0.839084 0.430969 0.430223
O O18 0.445496 0.910514 0.072158
O O19 0.403730 0.000000 0.112731
O O20 0.000000 0.500000 0.956686
O O21 0.092498 0.500000 0.000000
#
# Coordination Sequence:
#
# PCOD8320019 Si02
#       8
#    32  32  32  32  32  32  32  16
#     4   9  16  25  37  52  70  91 115 144 178 214
#     4   9  16  26  39  55  73  94 120 150 186 220
#     4   9  16  26  39  55  73  94 120 150 186 220
#     4   9  16  25  37  52  70  91 115 144 178 214
#     4   9  16  26  40  56  74  96 126 158 189 221
#     4   9  16  25  37  52  70  91 115 144 178 214
#     4   9  16  26  39  55  73  94 120 150 186 220
#     4   9  16  26  40  56  74  96 126 158 189 221
#
# _framework density 13.265002000000001
#
# number of rings (size 3 to 8) (size 9 to 14) (size 15 to 20)
#    0.000    3.000    0.000    2.000    0.000    8.400 
#    1.200    0.000    0.000    0.000    0.000    0.000 
#    0.000    0.000    0.000   12.400    0.000    0.000 
#
# Total GULP energy -1487208.737804 kJ/mol
# GULP energy per Si atom -12393.406148 kJ/mol
# Density = 1.323481 g / cm^3
# Si number density = 13.265002 Si / 1000 Ang^3
#
#
#
# Elastic Constant Matrix: (Units=GPa)
#
#
# Indices 1 2 3 4 5 6 
#
# 1 60.1829 30.4346 28.6943 0.0000 0.0000 0.0000
# 2 30.4346 60.1829 28.6943 0.0000 0.0000 0.0000
# 3 28.6943 28.6943 61.9200 0.0000 0.0000 0.0000
# 4 0.0000 0.0000 0.0000 14.8749 0.0000 0.0000
# 5 0.0000 0.0000 0.0000 0.0000 14.8749 0.0000
# 6 0.0000 0.0000 0.0000 0.0000 0.0000 16.6136
#
#
#
# Elastic Compliance Matrix: (Units=1/GPa)
#
#
# Indices 1 2 3 4 5 6 
#
# 1 0.024617 -0.008998 -0.007238 0.000000 0.000000 0.000000
# 2 -0.008998 0.024617 -0.007238 0.000000 0.000000 0.000000
# 3 -0.007238 -0.007238 0.022858 0.000000 0.000000 0.000000
# 4 0.000000 0.000000 0.000000 0.067227 0.000000 0.000000
# 5 0.000000 0.000000 0.000000 0.000000 0.067227 0.000000
# 6 0.000000 0.000000 0.000000 0.000000 0.000000 0.060191
#
#
# Mechanical properties :
#
#
# Convention : Reuss Voigt Hill
#
# Bulk Modulus (GPa) = 39.77023 39.77023 39.77023
# Shear Modulus (GPa) = 15.52461 15.57019 15.54740
#
# Velocity S-wave (km/s) = 3.42474 3.42976 3.42725
# Velocity P-wave (km/s) = 6.75906 6.76245 6.76076
#
# Compressibility (1/GPa) = 0.02514444
#
# Stress axis : x y z
#
# Youngs Moduli (GPa) = 40.62174 40.62174 43.74775
#
# Poissons Ratio (x) = 0.36551 0.31665
# Poissons Ratio (y) = 0.36551 0.31665
# Poissons Ratio (z) = 0.29403 0.29403
#
# Static dielectric constant tensor:
#      x y z
#    x 2.668000 0.000000 0.000000 
#    y 0.000000 2.668000 0.000000 
#    z 0.000000 0.000000 2.668010 
# 
# 
# High freq. dielectric constant tensor:
#      x y z
#    x 1.490670 0.000000 0.000000 
#    y 0.000000 1.490670 0.000000 
#    z 0.000000 0.000000 1.490670 
# 
# From -- ./inp_files/14752.got.cif
#   From: 2010.03.12/outbox.cif.g09.slc.cpg/sg139_8_cif.got.tgz:14752.got - 2010.04.08 09:46:31.
