data_PCOD8320791
_publ_section_title
;
Structure prediction by ZEFSAII (Michael W. Deem and Ramdas Pophale) SiO2 
 PCOD8320791
Probable space group: I 41/A M D
;
_chemical_formula_sum "Si O2"
_cell_formula_units_Z 144
_cell_length_a 22.098432
_cell_length_b 22.098432
_cell_length_c 15.814813
_cell_angle_alpha 90.000000
_cell_angle_beta 90.000000
_cell_angle_gamma 90.000000
_cell_volume 7723.016801
_symmetry_space_group_name_H-M "I 41/A M D"
_symmetry_group_IT_number 141
_space_group.IT_coordinate_system_code '2'
_symmetry_cell_setting 'tetragonal'
loop_
_space_group_symop_operation_xyz
x,y,z
1/4-y,3/4+x,1/4+z
-x,1/2-y,z
1/4+y,1/4-x,3/4+z
x,-y,-z
-x,1/2+y,-z
1/4+y,3/4+x,1/4-z
1/4-y,1/4-x,3/4-z
-x,-y,-z
3/4+y,1/4-x,3/4-z
x,1/2+y,-z
3/4-y,3/4+x,1/4-z
-x,y,z
x,1/2-y,z
3/4-y,1/4-x,3/4+z
3/4+y,3/4+x,1/4+z
1/2+x,1/2+y,1/2+z
3/4-y,1/4+x,3/4+z
1/2-x,-y,1/2+z
3/4+y,3/4-x,1/4+z
1/2+x,1/2-y,1/2-z
1/2-x,y,1/2-z
3/4+y,1/4+x,3/4-z
3/4-y,3/4-x,1/4-z
1/2-x,1/2-y,1/2-z
1/4+y,3/4-x,1/4-z
1/2+x,y,1/2-z
1/4-y,1/4+x,3/4-z
1/2-x,1/2+y,1/2+z
1/2+x,-y,1/2+z
1/4-y,3/4-x,1/4+z
1/4+y,1/4+x,3/4+z
loop_
_atom_site_type_symbol
_atom_site_label
_atom_site_fract_x
_atom_site_fract_y
_atom_site_fract_z
Si Si1 0.500000 0.847230 0.858839
Si Si2 0.000000 0.316216 0.181002
Si Si3 0.221660 0.820081 0.341325
Si Si4 0.905252 0.873157 0.362877
Si Si5 0.680007 0.750000 0.735198
Si Si6 0.431859 0.405962 0.675601
O O1 0.438972 0.811028 0.875000
O O2 0.500000 0.865206 0.758165
O O3 0.500000 0.904331 0.919928
O O4 0.055965 0.319387 0.118669
O O5 0.000000 0.250000 0.227075
O O6 0.198286 0.750000 0.344841
O O7 0.250000 0.834575 0.250000
O O8 0.167994 0.867123 0.365514
O O9 0.274141 0.832870 0.408356
O O10 0.937545 0.911711 0.437094
O O11 0.925746 0.900511 0.275058
O O12 0.750000 0.750000 0.750000
O O13 0.500000 0.390630 0.645534
O O14 0.387561 0.362440 0.625000
#
# Coordination Sequence:
#
# PCOD8320791 Si02
#       6
#    16  16  32  32  16  32
#     4  11  18  38  65  91 113 149 206 262 321 378
#     4  12  20  34  64  97 122 149 202 270 332 389
#     4  10  21  37  61  90 125 172 216 252 311 391
#     4  12  22  40  63  94 125 166 211 267 323 386
#     4  12  27  43  63  93 132 164 212 278 336 392
#     4  11  23  38  59  95 135 171 208 261 325 385
#
# _framework density 18.645562999999999
#
# number of rings (size 3 to 8) (size 9 to 14) (size 15 to 20)
#    0.000    0.778    8.889    0.000    1.556    2.000 
#    0.000    0.000    4.889    0.000    0.000    0.000 
#    0.000    0.000    0.000    0.000    0.000    0.000 
#
# Total GULP energy -892450.396450 kJ/mol
# GULP energy per Si atom -12395.144395 kJ/mol
# Density = 1.860312 g / cm^3
# Si number density = 18.645563 Si / 1000 Ang^3
#
#
#
# Elastic Constant Matrix: (Units=GPa)
#
#
# Indices 1 2 3 4 5 6 
#
# 1 123.2591 54.3118 41.2118 0.0000 0.0000 0.0000
# 2 54.3118 123.2577 41.2131 0.0000 0.0000 0.0000
# 3 41.2118 41.2131 111.7991 0.0000 0.0000 0.0000
# 4 0.0000 0.0000 0.0000 11.3899 0.0000 0.0000
# 5 0.0000 0.0000 0.0000 0.0000 11.3875 0.0000
# 6 0.0000 0.0000 0.0000 0.0000 0.0000 11.8256
#
#
#
# Elastic Compliance Matrix: (Units=1/GPa)
#
#
# Indices 1 2 3 4 5 6 
#
# 1 0.010649 -0.003855 -0.002504 0.000000 0.000000 0.000000
# 2 -0.003855 0.010649 -0.002505 0.000000 0.000000 0.000000
# 3 -0.002504 -0.002505 0.010791 0.000000 0.000000 0.000000
# 4 0.000000 0.000000 0.000000 0.087797 0.000000 0.000000
# 5 0.000000 0.000000 0.000000 0.000000 0.087816 0.000000
# 6 0.000000 0.000000 0.000000 0.000000 0.000000 0.084562
#
#
# Mechanical properties :
#
#
# Convention : Reuss Voigt Hill
#
# Bulk Modulus (GPa) = 69.63166 70.19881 69.91524
# Shear Modulus (GPa) = 15.88413 21.69254 18.78833
#
# Velocity S-wave (km/s) = 2.92190 3.41459 3.17781
# Velocity P-wave (km/s) = 6.98636 7.29909 7.14444
#
# Compressibility (1/GPa) = 0.01436128
#
# Stress axis : x y z
#
# Youngs Moduli (GPa) = 93.90614 93.90409 92.66905
#
# Poissons Ratio (x) = 0.36199 0.23208
# Poissons Ratio (y) = 0.36200 0.23210
# Poissons Ratio (z) = 0.23518 0.23520
#
# Static dielectric constant tensor:
#      x y z
#    x 3.567880 0.000000 0.000000 
#    y 0.000000 3.567900 0.000000 
#    z 0.000000 0.000000 3.623830 
# 
# 
# High freq. dielectric constant tensor:
#      x y z
#    x 1.712010 0.000000 0.000000 
#    y 0.000000 1.712010 0.000000 
#    z 0.000000 0.000000 1.737050 
# 
# From -- ./inp_files/8494.got.cif
#   From: 2010.03.12/outbox.cif.g09.slc.cpg/sg141_5_cif.got.tgz:8494.got - 2010.04.03 13:18:35.
