data_PCOD8320769
_publ_section_title
;
Structure prediction by ZEFSAII (Michael W. Deem and Ramdas Pophale) SiO2 
 PCOD8320769
Probable space group: I 41/A M D
;
_chemical_formula_sum "Si O2"
_cell_formula_units_Z 112
_cell_length_a 18.391212
_cell_length_b 18.391212
_cell_length_c 17.755637
_cell_angle_alpha 90.000000
_cell_angle_beta 90.000000
_cell_angle_gamma 90.000000
_cell_volume 6005.607689
_symmetry_space_group_name_H-M "I 41/A M D"
_symmetry_group_IT_number 141
_space_group.IT_coordinate_system_code '2'
_symmetry_cell_setting 'tetragonal'
loop_
_space_group_symop_operation_xyz
x,y,z
1/4-y,3/4+x,1/4+z
-x,1/2-y,z
1/4+y,1/4-x,3/4+z
x,-y,-z
-x,1/2+y,-z
1/4+y,3/4+x,1/4-z
1/4-y,1/4-x,3/4-z
-x,-y,-z
3/4+y,1/4-x,3/4-z
x,1/2+y,-z
3/4-y,3/4+x,1/4-z
-x,y,z
x,1/2-y,z
3/4-y,1/4-x,3/4+z
3/4+y,3/4+x,1/4+z
1/2+x,1/2+y,1/2+z
3/4-y,1/4+x,3/4+z
1/2-x,-y,1/2+z
3/4+y,3/4-x,1/4+z
1/2+x,1/2-y,1/2-z
1/2-x,y,1/2-z
3/4+y,1/4+x,3/4-z
3/4-y,3/4-x,1/4-z
1/2-x,1/2-y,1/2-z
1/4+y,3/4-x,1/4-z
1/2+x,y,1/2-z
1/4-y,1/4+x,3/4-z
1/2-x,1/2+y,1/2+z
1/2+x,-y,1/2+z
1/4-y,3/4-x,1/4+z
1/4+y,1/4+x,3/4+z
loop_
_atom_site_type_symbol
_atom_site_label
_atom_site_fract_x
_atom_site_fract_y
_atom_site_fract_z
Si Si1 0.832441 0.164214 0.229598
Si Si2 0.915997 0.665997 0.625000
Si Si3 0.415744 0.417616 0.567901
Si Si4 0.328160 0.663253 0.150357
O O1 0.842125 0.250000 0.214966
O O2 0.750000 0.144088 0.250000
O O3 0.877774 0.135735 0.300762
O O4 0.863300 0.122984 0.156956
O O5 0.898597 0.750000 0.614583
O O6 0.500000 0.426564 0.558033
O O7 0.396229 0.353772 0.625000
O O8 0.388156 0.397364 0.484248
O O9 0.388844 0.493710 0.603700
O O10 0.340538 0.750000 0.134639
#
# Coordination Sequence:
#
# PCOD8320769 Si02
#       4
#    32  16  32  32
#     4  10  21  36  54  80 110 139 181 231 270 315
#     4   9  18  34  54  74 102 142 180 216 267 322
#     4   9  19  36  56  80 110 142 179 223 269 321
#     4   9  19  37  56  76 109 148 180 216 269 328
#
# _framework density 18.649236999999999
#
# number of rings (size 3 to 8) (size 9 to 14) (size 15 to 20)
#    0.000    2.714    0.000    2.571    0.000    5.429 
#    7.714    8.571    0.000    0.000    0.000    0.000 
#    0.000    0.000    0.000    0.000    0.000    0.000 
#
# Total GULP energy -693966.803977 kJ/mol
# GULP energy per Si atom -12392.264357 kJ/mol
# Density = 1.860679 g / cm^3
# Si number density = 18.649237 Si / 1000 Ang^3
#
#
#
# Elastic Constant Matrix: (Units=GPa)
#
#
# Indices 1 2 3 4 5 6 
#
# 1 15.7758 83.2277 67.3067 0.0000 0.0000 0.0000
# 2 83.2277 15.7874 67.3062 0.0000 0.0000 0.0000
# 3 67.3067 67.3062 167.0101 0.0000 0.0000 0.0000
# 4 0.0000 0.0000 0.0000 36.4493 0.0000 0.0000
# 5 0.0000 0.0000 0.0000 0.0000 36.4493 0.0000
# 6 0.0000 0.0000 0.0000 0.0000 0.0000 26.7133
#
#
#
# Elastic Compliance Matrix: (Units=1/GPa)
#
#
# Indices 1 2 3 4 5 6 
#
# 1 0.003756 0.018584 -0.009003 0.000000 0.000000 0.000000
# 2 0.018584 0.003760 -0.009005 0.000000 0.000000 0.000000
# 3 -0.009003 -0.009005 0.013245 0.000000 0.000000 0.000000
# 4 0.000000 0.000000 0.000000 0.027435 0.000000 0.000000
# 5 0.000000 0.000000 0.000000 0.000000 0.027435 0.000000
# 6 0.000000 0.000000 0.000000 0.000000 0.000000 0.037435
#
#
# Mechanical properties :
#
#
# Convention : Reuss Voigt Hill
#
# Bulk Modulus (GPa) = 45.63529 70.47273 58.05401
# Shear Modulus (GPa) = 41.94028 18.63787 30.28907
#
# Velocity S-wave (km/s) = 4.74740 3.16474 4.03444
# Velocity P-wave (km/s) = 7.38741 7.15714 7.27319
#
# Compressibility (1/GPa) = 0.02191287
#
# Stress axis : x y z
#
# Youngs Moduli (GPa) = 266.27019 265.98666 75.50023
#
# Poissons Ratio (x) = -4.94316 0.67974
# Poissons Ratio (y) = -4.94843 0.67986
# Poissons Ratio (z) = 2.39726 2.39515
#
# Static dielectric constant tensor:
#      x y z
#    x 3.310930 0.000000 0.000000 
#    y 0.000000 3.310930 0.000000 
#    z 0.000000 0.000000 3.687070 
# 
# 
# High freq. dielectric constant tensor:
#      x y z
#    x 1.713650 0.000000 0.000000 
#    y 0.000000 1.713650 0.000000 
#    z 0.000000 0.000000 1.738630 
# 
# From -- ./inp_files/7899.got.cif
#   From: 2010.03.12/outbox.cif.g09.slc.cpg/sg141_4_cif.got.tgz:7899.got - 2010.04.03 13:18:35.
