data_PCOD8320757
_publ_section_title
;
Structure prediction by ZEFSAII (Michael W. Deem and Ramdas Pophale) SiO2 
 PCOD8320757
Probable space group: I 41/A M D
;
_chemical_formula_sum "Si O2"
_cell_formula_units_Z 112
_cell_length_a 15.461347
_cell_length_b 15.461347
_cell_length_c 26.259200
_cell_angle_alpha 90.000000
_cell_angle_beta 90.000000
_cell_angle_gamma 90.000000
_cell_volume 6277.347130
_symmetry_space_group_name_H-M "I 41/A M D"
_symmetry_group_IT_number 141
_space_group.IT_coordinate_system_code '2'
_symmetry_cell_setting 'tetragonal'
loop_
_space_group_symop_operation_xyz
x,y,z
1/4-y,3/4+x,1/4+z
-x,1/2-y,z
1/4+y,1/4-x,3/4+z
x,-y,-z
-x,1/2+y,-z
1/4+y,3/4+x,1/4-z
1/4-y,1/4-x,3/4-z
-x,-y,-z
3/4+y,1/4-x,3/4-z
x,1/2+y,-z
3/4-y,3/4+x,1/4-z
-x,y,z
x,1/2-y,z
3/4-y,1/4-x,3/4+z
3/4+y,3/4+x,1/4+z
1/2+x,1/2+y,1/2+z
3/4-y,1/4+x,3/4+z
1/2-x,-y,1/2+z
3/4+y,3/4-x,1/4+z
1/2+x,1/2-y,1/2-z
1/2-x,y,1/2-z
3/4+y,1/4+x,3/4-z
3/4-y,3/4-x,1/4-z
1/2-x,1/2-y,1/2-z
1/4+y,3/4-x,1/4-z
1/2+x,y,1/2-z
1/4-y,1/4+x,3/4-z
1/2-x,1/2+y,1/2+z
1/2+x,-y,1/2+z
1/4-y,3/4-x,1/4+z
1/4+y,1/4+x,3/4+z
loop_
_atom_site_type_symbol
_atom_site_label
_atom_site_fract_x
_atom_site_fract_y
_atom_site_fract_z
Si Si1 0.746174 0.003827 0.125000
Si Si2 0.684988 0.652280 0.063874
Si Si3 0.150167 0.750000 0.693442
Si Si4 0.842870 0.750000 0.813562
Si Si5 0.686727 0.652940 0.944856
O O1 0.836461 0.004939 0.155110
O O2 0.743575 0.083925 0.085756
O O3 0.715188 0.750000 0.075353
O O4 0.585675 0.641874 0.082492
O O5 0.693692 0.629758 0.004375
O O6 0.159341 0.750000 0.753299
O O7 0.244170 0.750000 0.666364
O O8 0.101104 0.663252 0.676291
O O9 0.720678 0.750000 0.934323
#
# Coordination Sequence:
#
# PCOD8320757 Si02
#       5
#    16  32  16  16  32
#     4  12  22  32  57  81 104 138 184 224 254 316
#     4  10  21  37  53  73 105 144 180 220 268 313
#     4   9  15  29  47  68 107 147 176 195 247 306
#     4   9  15  29  51  70  99 145 176 207 245 314
#     4  10  21  33  49  76 113 147 173 210 259 313
#
# _framework density 17.841933000000001
#
# number of rings (size 3 to 8) (size 9 to 14) (size 15 to 20)
#    0.000    2.000    2.857    1.714    4.000    3.429 
#    0.000    0.000    0.000    3.857    0.000    4.000 
#    0.000    0.000    0.000    0.000    0.000    0.000 
#
# Total GULP energy -694254.048169 kJ/mol
# GULP energy per Si atom -12397.393717 kJ/mol
# Density = 1.780132 g / cm^3
# Si number density = 17.841933 Si / 1000 Ang^3
#
#
#
# Elastic Constant Matrix: (Units=GPa)
#
#
# Indices 1 2 3 4 5 6 
#
# 1 91.1898 32.8019 45.3929 0.0000 0.0000 0.0000
# 2 32.8019 91.1912 45.3922 0.0000 0.0000 0.0000
# 3 45.3929 45.3922 74.1497 0.0000 0.0000 0.0000
# 4 0.0000 0.0000 0.0000 23.3897 0.0000 0.0000
# 5 0.0000 0.0000 0.0000 0.0000 23.3899 0.0000
# 6 0.0000 0.0000 0.0000 0.0000 0.0000 14.4566
#
#
#
# Elastic Compliance Matrix: (Units=1/GPa)
#
#
# Indices 1 2 3 4 5 6 
#
# 1 0.015872 -0.001255 -0.008948 0.000000 0.000000 0.000000
# 2 -0.001255 0.015871 -0.008948 0.000000 0.000000 0.000000
# 3 -0.008948 -0.008948 0.024441 0.000000 0.000000 0.000000
# 4 0.000000 0.000000 0.000000 0.042754 0.000000 0.000000
# 5 0.000000 0.000000 0.000000 0.000000 0.042754 0.000000
# 6 0.000000 0.000000 0.000000 0.000000 0.000000 0.069172
#
#
# Mechanical properties :
#
#
# Convention : Reuss Voigt Hill
#
# Bulk Modulus (GPa) = 55.91868 55.96718 55.94293
# Shear Modulus (GPa) = 19.59811 21.11017 20.35414
#
# Velocity S-wave (km/s) = 3.31785 3.44347 3.38124
# Velocity P-wave (km/s) = 6.78872 6.87360 6.83129
#
# Compressibility (1/GPa) = 0.01788311
#
# Stress axis : x y z
#
# Youngs Moduli (GPa) = 63.00478 63.00704 40.91410
#
# Poissons Ratio (x) = 0.07908 0.36610
# Poissons Ratio (y) = 0.07908 0.36608
# Poissons Ratio (z) = 0.56377 0.56376
#
# Static dielectric constant tensor:
#      x y z
#    x 3.166370 0.000000 0.000000 
#    y 0.000000 3.166390 0.000000 
#    z 0.000000 0.000000 3.292420 
# 
# 
# High freq. dielectric constant tensor:
#      x y z
#    x 1.664760 0.000000 0.000000 
#    y 0.000000 1.664760 0.000000 
#    z 0.000000 0.000000 1.685600 
# 
# From -- ./inp_files/12540.got.cif
#   From: 2010.03.12/outbox.cif.g09.slc.cpg/sg141_7_cif.got.tgz:12540.got - 2010.04.03 13:18:35.
