data_PCOD8320913
_publ_section_title
;
Structure prediction by ZEFSAII (Michael W. Deem and Ramdas Pophale) SiO2 
 PCOD8320913
Probable space group: I 41/A M D
;
_chemical_formula_sum "Si O2"
_cell_formula_units_Z 176
_cell_length_a 17.819789
_cell_length_b 17.819789
_cell_length_c 26.676175
_cell_angle_alpha 90.000000
_cell_angle_beta 90.000000
_cell_angle_gamma 90.000000
_cell_volume 8470.882789
_symmetry_space_group_name_H-M "I 41/A M D"
_symmetry_group_IT_number 141
_space_group.IT_coordinate_system_code '2'
_symmetry_cell_setting 'tetragonal'
loop_
_space_group_symop_operation_xyz
x,y,z
1/4-y,3/4+x,1/4+z
-x,1/2-y,z
1/4+y,1/4-x,3/4+z
x,-y,-z
-x,1/2+y,-z
1/4+y,3/4+x,1/4-z
1/4-y,1/4-x,3/4-z
-x,-y,-z
3/4+y,1/4-x,3/4-z
x,1/2+y,-z
3/4-y,3/4+x,1/4-z
-x,y,z
x,1/2-y,z
3/4-y,1/4-x,3/4+z
3/4+y,3/4+x,1/4+z
1/2+x,1/2+y,1/2+z
3/4-y,1/4+x,3/4+z
1/2-x,-y,1/2+z
3/4+y,3/4-x,1/4+z
1/2+x,1/2-y,1/2-z
1/2-x,y,1/2-z
3/4+y,1/4+x,3/4-z
3/4-y,3/4-x,1/4-z
1/2-x,1/2-y,1/2-z
1/4+y,3/4-x,1/4-z
1/2+x,y,1/2-z
1/4-y,1/4+x,3/4-z
1/2-x,1/2+y,1/2+z
1/2+x,-y,1/2+z
1/4-y,3/4-x,1/4+z
1/4+y,1/4+x,3/4+z
loop_
_atom_site_type_symbol
_atom_site_label
_atom_site_fract_x
_atom_site_fract_y
_atom_site_fract_z
Si Si1 0.822903 0.939795 0.816494
Si Si2 0.835622 0.663151 0.257472
Si Si3 0.652491 0.060780 0.202810
Si Si4 0.833252 0.662287 0.081965
Si Si5 0.086659 0.663342 0.625000
Si Si6 0.334414 0.837111 0.592504
O O1 0.736369 0.964368 0.811820
O O2 0.856723 0.922815 0.761675
O O3 0.830614 0.865636 0.850312
O O4 0.868365 0.006462 0.843035
O O5 0.842685 0.750000 0.243875
O O6 0.750000 0.635723 0.250000
O O7 0.889157 0.615494 0.221689
O O8 0.864386 0.647792 0.313630
O O9 0.631505 0.136986 0.174168
O O10 0.597026 0.994970 0.185440
O O11 0.892977 0.642977 0.125000
O O12 0.816327 0.750000 0.082469
O O13 0.104015 0.750000 0.616953
O O14 0.356749 0.750000 0.593098
#
# Coordination Sequence:
#
# PCOD8320913 Si02
#       6
#    32  32  32  32  16  32
#     4  11  24  41  69 100 130 173 231 284 329 395
#     4  11  24  43  67  94 129 175 226 277 337 411
#     4  11  22  41  69  97 131 178 226 277 328 404
#     4  12  25  41  65  96 133 173 221 279 338 403
#     4  11  24  42  68 102 140 178 221 282 348 406
#     4  12  24  41  66  98 136 176 222 276 341 408
#
# _framework density 20.777056999999999
#
# number of rings (size 3 to 8) (size 9 to 14) (size 15 to 20)
#    0.000    0.636    3.636    4.909    0.000    6.000 
#    0.000    1.818    0.000    0.000    0.000    0.000 
#    0.000    0.000    0.000    0.000    0.000    0.000 
#
# Total GULP energy -1091823.361287 kJ/mol
# GULP energy per Si atom -12407.083651 kJ/mol
# Density = 2.072977 g / cm^3
# Si number density = 20.777057 Si / 1000 Ang^3
#
#
#
# Elastic Constant Matrix: (Units=GPa)
#
#
# Indices 1 2 3 4 5 6 
#
# 1 117.8245 44.1680 42.2077 0.0000 0.0000 0.0000
# 2 44.1680 117.8250 42.2080 0.0000 0.0000 0.0000
# 3 42.2077 42.2080 127.3782 0.0000 0.0000 0.0000
# 4 0.0000 0.0000 0.0000 29.5542 0.0000 0.0000
# 5 0.0000 0.0000 0.0000 0.0000 29.5550 0.0000
# 6 0.0000 0.0000 0.0000 0.0000 0.0000 23.5902
#
#
#
# Elastic Compliance Matrix: (Units=1/GPa)
#
#
# Indices 1 2 3 4 5 6 
#
# 1 0.010519 -0.003057 -0.002472 0.000000 0.000000 0.000000
# 2 -0.003057 0.010519 -0.002472 0.000000 0.000000 0.000000
# 3 -0.002472 -0.002472 0.009489 0.000000 0.000000 0.000000
# 4 0.000000 0.000000 0.000000 0.033836 0.000000 0.000000
# 5 0.000000 0.000000 0.000000 0.000000 0.033835 0.000000
# 6 0.000000 0.000000 0.000000 0.000000 0.000000 0.042390
#
#
# Mechanical properties :
#
#
# Convention : Reuss Voigt Hill
#
# Bulk Modulus (GPa) = 68.85890 68.91058 68.88474
# Shear Modulus (GPa) = 30.97229 32.16947 31.57088
#
# Velocity S-wave (km/s) = 3.86514 3.93913 3.90231
# Velocity P-wave (km/s) = 7.28923 7.34355 7.31644
#
# Compressibility (1/GPa) = 0.01452245
#
# Stress axis : x y z
#
# Youngs Moduli (GPa) = 95.06592 95.06619 105.38331
#
# Poissons Ratio (x) = 0.29066 0.26055
# Poissons Ratio (y) = 0.29066 0.26056
# Poissons Ratio (z) = 0.23504 0.23505
#
# Static dielectric constant tensor:
#      x y z
#    x 3.693350 0.000000 0.000000 
#    y 0.000000 3.693320 0.000000 
#    z 0.000000 0.000000 4.003250 
# 
# 
# High freq. dielectric constant tensor:
#      x y z
#    x 1.809680 0.000000 0.000000 
#    y 0.000000 1.809670 0.000000 
#    z 0.000000 0.000000 1.824930 
# 
# From -- ./inp_files/12861.got.cif
#   From: 2010.03.12/outbox.cif.g09.slc.cpg/sg141_7_cif.got.tgz:12861.got - 2010.04.03 13:18:35.
