data_PCOD8320374
_publ_section_title
;
Structure prediction by ZEFSAII (Michael W. Deem and Ramdas Pophale) SiO2 
 PCOD8320374
Probable space group: I 4/M C M
;
_chemical_formula_sum "Si O2"
_cell_formula_units_Z 96
_cell_length_a 16.492868
_cell_length_b 16.492868
_cell_length_c 18.743466
_cell_angle_alpha 90.000000
_cell_angle_beta 90.000000
_cell_angle_gamma 90.000000
_cell_volume 5098.498185
_symmetry_space_group_name_H-M "I 4/M C M"
_symmetry_group_IT_number 140
_symmetry_cell_setting 'tetragonal'
loop_
_space_group_symop_operation_xyz
x,y,z
-y,x,z
-x,-y,z
y,-x,z
x,-y,1/2-z
-x,y,1/2-z
y,x,1/2-z
-y,-x,1/2-z
-x,-y,-z
y,-x,-z
x,y,-z
-y,x,-z
-x,y,1/2+z
x,-y,1/2+z
-y,-x,1/2+z
y,x,1/2+z
1/2+x,1/2+y,1/2+z
1/2-y,1/2+x,1/2+z
1/2-x,1/2-y,1/2+z
1/2+y,1/2-x,1/2+z
1/2+x,1/2-y,-z
1/2-x,1/2+y,-z
1/2+y,1/2+x,-z
1/2-y,1/2-x,-z
1/2-x,1/2-y,1/2-z
1/2+y,1/2-x,1/2-z
1/2+x,1/2+y,1/2-z
1/2-y,1/2+x,1/2-z
1/2-x,1/2+y,z
1/2+x,1/2-y,z
1/2-y,1/2-x,z
1/2+y,1/2+x,z
loop_
_atom_site_type_symbol
_atom_site_label
_atom_site_fract_x
_atom_site_fract_y
_atom_site_fract_z
Si Si1 0.564300 0.935701 0.584047
Si Si2 0.493323 0.364555 0.500000
Si Si3 0.379385 0.245427 0.243645
Si Si4 0.494641 0.758639 0.130551
O O1 0.561265 0.938736 0.500000
O O2 0.537884 0.846064 0.607062
O O3 0.500000 0.000000 0.616604
O O4 0.576226 0.415883 0.500000
O O5 0.489663 0.306972 0.431636
O O6 0.309784 0.309784 0.250000
O O7 0.343508 0.156493 0.261146
O O8 0.414498 0.239753 0.162747
O O9 0.442742 0.272130 0.303032
#
# Coordination Sequence:
#
# PCOD8320374 Si02
#       4
#    16  16  32  32
#     4  11  22  38  61  86 122 155 196 245 299 361
#     4  11  24  41  62  87 117 156 203 253 299 356
#     4  10  21  37  58  87 120 155 196 242 291 351
#     4  11  21  39  61  87 118 159 196 244 299 357
#
# _framework density 18.829073999999999
#
# number of rings (size 3 to 8) (size 9 to 14) (size 15 to 20)
#    0.000    1.333    3.333    3.000    0.000    0.000 
#    0.000    0.000    3.667    8.000    0.000    0.000 
#    0.000    0.000    0.000    0.000    0.000    0.000 
#
# Total GULP energy -594838.483088 kJ/mol
# GULP energy per Si atom -12392.468398 kJ/mol
# Density = 1.878622 g / cm^3
# Si number density = 18.829074 Si / 1000 Ang^3
#
#
#
# Elastic Constant Matrix: (Units=GPa)
#
#
# Indices 1 2 3 4 5 6 
#
# 1 117.4355 77.5970 61.2088 0.0000 0.0000 0.0000
# 2 77.5970 117.4391 61.2105 0.0000 0.0000 0.0000
# 3 61.2088 61.2105 130.4007 0.0000 0.0000 0.0000
# 4 0.0000 0.0000 0.0000 22.0675 0.0000 0.0000
# 5 0.0000 0.0000 0.0000 0.0000 22.0671 0.0000
# 6 0.0000 0.0000 0.0000 0.0000 0.0000 27.2179
#
#
#
# Elastic Compliance Matrix: (Units=1/GPa)
#
#
# Indices 1 2 3 4 5 6 
#
# 1 0.016185 -0.008916 -0.003412 0.000000 0.000000 0.000000
# 2 -0.008916 0.016184 -0.003412 0.000000 0.000000 0.000000
# 3 -0.003412 -0.003412 0.010872 0.000000 0.000000 0.000000
# 4 0.000000 0.000000 0.000000 0.045315 0.000000 0.000000
# 5 0.000000 0.000000 0.000000 0.000000 0.045316 0.000000
# 6 0.000000 0.000000 0.000000 0.000000 0.000000 0.036740
#
#
# Mechanical properties :
#
#
# Convention : Reuss Voigt Hill
#
# Bulk Modulus (GPa) = 85.02187 85.03422 85.02805
# Shear Modulus (GPa) = 24.27030 25.28779 24.77904
#
# Velocity S-wave (km/s) = 3.59413 3.66870 3.63161
# Velocity P-wave (km/s) = 7.90420 7.95015 7.92721
#
# Compressibility (1/GPa) = 0.01176168
#
# Stress axis : x y z
#
# Youngs Moduli (GPa) = 61.78647 61.78784 91.98054
#
# Poissons Ratio (x) = 0.55088 0.31383
# Poissons Ratio (y) = 0.55086 0.31385
# Poissons Ratio (z) = 0.21081 0.21083
#
# Static dielectric constant tensor:
#      x y z
#    x 3.816420 0.000000 0.000000 
#    y 0.000000 3.816420 0.000000 
#    z 0.000000 0.000000 3.554970 
# 
# 
# High freq. dielectric constant tensor:
#      x y z
#    x 1.740820 0.000000 0.000000 
#    y 0.000000 1.740820 0.000000 
#    z 0.000000 0.000000 1.740690 
# 
# From -- ./inp_files/5872.got.cif
#   From: 2010.06.25/outbox.cif.g09.slc.cpg/sg140_3_cif.got.tgz:5872.got - 2010.06.28 10:53:23.
