data_PCOD8320410
_publ_section_title
;
Structure prediction by ZEFSAII (Michael W. Deem and Ramdas Pophale) SiO2 
 PCOD8320410
Probable space group: I 4/M C M
;
_chemical_formula_sum "Si O2"
_cell_formula_units_Z 160
_cell_length_a 19.885267
_cell_length_b 19.885267
_cell_length_c 18.971152
_cell_angle_alpha 90.000000
_cell_angle_beta 90.000000
_cell_angle_gamma 90.000000
_cell_volume 7501.645843
_symmetry_space_group_name_H-M "I 4/M C M"
_symmetry_group_IT_number 140
_symmetry_cell_setting 'tetragonal'
loop_
_space_group_symop_operation_xyz
x,y,z
-y,x,z
-x,-y,z
y,-x,z
x,-y,1/2-z
-x,y,1/2-z
y,x,1/2-z
-y,-x,1/2-z
-x,-y,-z
y,-x,-z
x,y,-z
-y,x,-z
-x,y,1/2+z
x,-y,1/2+z
-y,-x,1/2+z
y,x,1/2+z
1/2+x,1/2+y,1/2+z
1/2-y,1/2+x,1/2+z
1/2-x,1/2-y,1/2+z
1/2+y,1/2-x,1/2+z
1/2+x,1/2-y,-z
1/2-x,1/2+y,-z
1/2+y,1/2+x,-z
1/2-y,1/2-x,-z
1/2-x,1/2-y,1/2-z
1/2+y,1/2-x,1/2-z
1/2+x,1/2+y,1/2-z
1/2-y,1/2+x,1/2-z
1/2-x,1/2+y,z
1/2+x,1/2-y,z
1/2-y,1/2-x,z
1/2+y,1/2+x,z
loop_
_atom_site_type_symbol
_atom_site_label
_atom_site_fract_x
_atom_site_fract_y
_atom_site_fract_z
Si Si1 0.259717 0.351303 0.675422
Si Si2 0.107710 0.213553 0.171590
Si Si3 0.066814 0.323326 0.576545
Si Si4 0.349860 0.958964 0.819779
Si Si5 0.464002 0.604507 0.918987
O O1 0.194500 0.305501 0.695739
O O2 0.317722 0.304003 0.642104
O O3 0.289739 0.389570 0.743294
O O4 0.241981 0.410097 0.620418
O O5 0.087689 0.289437 0.152232
O O6 0.054241 0.162935 0.136567
O O7 0.039655 0.300087 0.500000
O O8 0.131270 0.368731 0.565789
O O9 0.010297 0.365757 0.617282
O O10 0.415603 0.915603 0.802860
O O11 0.329019 0.000000 0.750000
O O12 0.415779 0.540962 0.904970
O O13 0.455051 0.629088 0.000000
#
# Coordination Sequence:
#
# PCOD8320410 Si02
#       5
#    32  32  32  32  32
#     4  10  21  41  64  92 131 169 210 266 332 395
#     4  11  22  36  66  98 128 169 215 268 327 398
#     4  10  23  44  68  93 126 173 224 273 330 398
#     4  12  25  42  66  99 136 176 224 279 340 402
#     4   9  21  42  64  92 135 181 223 270 326 394
#
# _framework density 21.328652000000002
#
# number of rings (size 3 to 8) (size 9 to 14) (size 15 to 20)
#    0.000    1.600    2.000    3.600    2.800    3.400 
#    0.000    1.000    0.000   11.400    0.000    0.000 
#    0.000    0.000    0.000    0.000    0.000    0.000 
#
# Total GULP energy -991777.272838 kJ/mol
# GULP energy per Si atom -12397.215910 kJ/mol
# Density = 2.128011 g / cm^3
# Si number density = 21.328652 Si / 1000 Ang^3
#
#
#
# Elastic Constant Matrix: (Units=GPa)
#
#
# Indices 1 2 3 4 5 6 
#
# 1 93.7747 28.4861 48.3837 0.0000 0.0000 0.0000
# 2 28.4861 93.7747 48.3837 0.0000 0.0000 0.0000
# 3 48.3837 48.3837 133.7130 0.0000 0.0000 0.0000
# 4 0.0000 0.0000 0.0000 31.3376 0.0000 0.0000
# 5 0.0000 0.0000 0.0000 0.0000 31.3376 0.0000
# 6 0.0000 0.0000 0.0000 0.0000 0.0000 28.5798
#
#
#
# Elastic Compliance Matrix: (Units=1/GPa)
#
#
# Indices 1 2 3 4 5 6 
#
# 1 0.013389 -0.001927 -0.004147 0.000000 0.000000 0.000000
# 2 -0.001927 0.013389 -0.004147 0.000000 0.000000 0.000000
# 3 -0.004147 -0.004147 0.010480 0.000000 0.000000 0.000000
# 4 0.000000 0.000000 0.000000 0.031911 0.000000 0.000000
# 5 0.000000 0.000000 0.000000 0.000000 0.031911 0.000000
# 6 0.000000 0.000000 0.000000 0.000000 0.000000 0.034990
#
#
# Mechanical properties :
#
#
# Convention : Reuss Voigt Hill
#
# Bulk Modulus (GPa) = 59.47373 63.52992 61.50183
# Shear Modulus (GPa) = 30.84158 31.31825 31.07992
#
# Velocity S-wave (km/s) = 3.80678 3.83608 3.82146
# Velocity P-wave (km/s) = 6.87510 7.03360 6.95480
#
# Compressibility (1/GPa) = 0.01681415
#
# Stress axis : x y z
#
# Youngs Moduli (GPa) = 74.68689 74.68689 95.41811
#
# Poissons Ratio (x) = 0.14395 0.39574
# Poissons Ratio (y) = 0.14395 0.39574
# Poissons Ratio (z) = 0.30976 0.30976
#
# Static dielectric constant tensor:
#      x y z
#    x 3.894100 0.000000 0.000000 
#    y 0.000000 3.894100 0.000000 
#    z 0.000000 0.000000 3.962940 
# 
# 
# High freq. dielectric constant tensor:
#      x y z
#    x 1.836610 0.000000 0.000000 
#    y 0.000000 1.836610 0.000000 
#    z 0.000000 0.000000 1.824360 
# 
# From -- ./inp_files/6849.got.cif
#   From: 2010.06.25/outbox.cif.g09.slc.cpg/sg140_4_cif.got.tgz:6849.got - 2010.06.28 10:53:23.
