data_PCOD8320250
_publ_section_title
;
Structure prediction by ZEFSAII (Michael W. Deem and Ramdas Pophale) SiO2 
 PCOD8320250
Probable space group: I 4/M C M
;
_chemical_formula_sum "Si O2"
_cell_formula_units_Z 160
_cell_length_a 30.341842
_cell_length_b 30.341842
_cell_length_c 8.836364
_cell_angle_alpha 90.000000
_cell_angle_beta 90.000000
_cell_angle_gamma 90.000000
_cell_volume 8134.998602
_symmetry_space_group_name_H-M "I 4/M C M"
_symmetry_group_IT_number 140
_symmetry_cell_setting 'tetragonal'
loop_
_space_group_symop_operation_xyz
x,y,z
-y,x,z
-x,-y,z
y,-x,z
x,-y,1/2-z
-x,y,1/2-z
y,x,1/2-z
-y,-x,1/2-z
-x,-y,-z
y,-x,-z
x,y,-z
-y,x,-z
-x,y,1/2+z
x,-y,1/2+z
-y,-x,1/2+z
y,x,1/2+z
1/2+x,1/2+y,1/2+z
1/2-y,1/2+x,1/2+z
1/2-x,1/2-y,1/2+z
1/2+y,1/2-x,1/2+z
1/2+x,1/2-y,-z
1/2-x,1/2+y,-z
1/2+y,1/2+x,-z
1/2-y,1/2-x,-z
1/2-x,1/2-y,1/2-z
1/2+y,1/2-x,1/2-z
1/2+x,1/2+y,1/2-z
1/2-y,1/2+x,1/2-z
1/2-x,1/2+y,z
1/2+x,1/2-y,z
1/2-y,1/2-x,z
1/2+y,1/2+x,z
loop_
_atom_site_type_symbol
_atom_site_label
_atom_site_fract_x
_atom_site_fract_y
_atom_site_fract_z
Si Si1 0.715751 0.545707 0.323527
Si Si2 0.887132 0.612869 0.823804
Si Si3 0.884610 0.952682 0.820792
Si Si4 0.453470 0.953470 0.320421
Si Si5 0.785503 0.609286 0.823804
Si Si6 0.256604 0.313591 0.335242
O O1 0.728552 0.500000 0.250000
O O2 0.719857 0.539471 0.500000
O O3 0.665935 0.560146 0.279528
O O4 0.752208 0.579576 0.269606
O O5 0.917209 0.582792 0.718555
O O6 0.836618 0.600738 0.784387
O O7 0.896559 0.603442 0.000000
O O8 0.915607 0.915607 0.750000
O O9 0.896751 0.000000 0.750000
O O10 0.892076 0.955090 0.000000
O O11 0.500000 0.938521 0.250000
O O12 0.458172 0.958172 0.500000
O O13 0.774417 0.658420 0.774053
O O14 0.776659 0.602649 0.000000
O O15 0.302835 0.302835 0.250000
O O16 0.266154 0.336320 0.500000
O O17 0.232083 0.267918 0.367504
#
# Coordination Sequence:
#
# PCOD8320250 Si02
#       6
#    32  16  32  16  32  32
#     4  10  22  40  60  84 115 154 199 244 293 350
#     4  10  23  41  61  89 123 157 197 243 294 351
#     4  10  21  38  61  88 120 155 196 245 298 354
#     4  11  23  42  69  95 123 155 190 235 290 355
#     4  11  22  38  60  85 118 156 197 246 296 349
#     4  10  20  34  54  79 110 147 189 235 284 338
#
# _framework density 19.668104
#
# number of rings (size 3 to 8) (size 9 to 14) (size 15 to 20)
#    0.000    1.700    1.000    3.600    0.000    6.600 
#    0.000    3.000    0.000    0.000    0.000    0.000 
#    0.000    0.000    0.000    0.000    0.000    0.000 
#
# Total GULP energy -991800.238303 kJ/mol
# GULP energy per Si atom -12397.502979 kJ/mol
# Density = 1.962334 g / cm^3
# Si number density = 19.668104 Si / 1000 Ang^3
#
#
#
# Elastic Constant Matrix: (Units=GPa)
#
#
# Indices 1 2 3 4 5 6 
#
# 1 90.3459 72.7058 48.7047 0.0000 0.0000 0.0000
# 2 72.7058 90.3452 48.7048 0.0000 0.0000 0.0000
# 3 48.7047 48.7048 88.7680 0.0000 0.0000 0.0000
# 4 0.0000 0.0000 0.0000 34.0621 0.0000 0.0000
# 5 0.0000 0.0000 0.0000 0.0000 34.0620 0.0000
# 6 0.0000 0.0000 0.0000 0.0000 0.0000 43.6746
#
#
#
# Elastic Compliance Matrix: (Units=1/GPa)
#
#
# Indices 1 2 3 4 5 6 
#
# 1 0.032907 -0.023783 -0.005006 0.000000 0.000000 0.000000
# 2 -0.023783 0.032907 -0.005006 0.000000 0.000000 0.000000
# 3 -0.005006 -0.005006 0.016759 0.000000 0.000000 0.000000
# 4 0.000000 0.000000 0.000000 0.029358 0.000000 0.000000
# 5 0.000000 0.000000 0.000000 0.000000 0.029358 0.000000
# 6 0.000000 0.000000 0.000000 0.000000 0.000000 0.022897
#
#
# Mechanical properties :
#
#
# Convention : Reuss Voigt Hill
#
# Bulk Modulus (GPa) = 66.74591 67.74333 67.24462
# Shear Modulus (GPa) = 21.11758 28.98267 25.05013
#
# Velocity S-wave (km/s) = 3.28029 3.84290 3.57268
# Velocity P-wave (km/s) = 6.95391 7.36264 7.16119
#
# Compressibility (1/GPa) = 0.01498219
#
# Stress axis : x y z
#
# Youngs Moduli (GPa) = 30.38896 30.38856 59.67093
#
# Poissons Ratio (x) = 0.72274 0.29870
# Poissons Ratio (y) = 0.72275 0.29872
# Poissons Ratio (z) = 0.15212 0.15213
#
# Static dielectric constant tensor:
#      x y z
#    x 3.525560 0.000000 0.000000 
#    y 0.000000 3.525560 0.000000 
#    z 0.000000 0.000000 3.862170 
# 
# 
# High freq. dielectric constant tensor:
#      x y z
#    x 1.763500 0.000000 0.000000 
#    y 0.000000 1.763500 0.000000 
#    z 0.000000 0.000000 1.786020 
# 
# From -- ./inp_files/1843.got.cif
#   From: 2010.06.25/outbox.cif.g09.slc.cpg/sg140_1_cif.got.tgz:1843.got - 2010.06.28 10:53:23.
