data_PCOD8320398
_publ_section_title
;
Structure prediction by ZEFSAII (Michael W. Deem and Ramdas Pophale) SiO2 
 PCOD8320398
Probable space group: I 4/M C M
;
_chemical_formula_sum "Si O2"
_cell_formula_units_Z 128
_cell_length_a 19.158025
_cell_length_b 19.158025
_cell_length_c 18.287261
_cell_angle_alpha 90.000000
_cell_angle_beta 90.000000
_cell_angle_gamma 90.000000
_cell_volume 6711.971977
_symmetry_space_group_name_H-M "I 4/M C M"
_symmetry_group_IT_number 140
_symmetry_cell_setting 'tetragonal'
loop_
_space_group_symop_operation_xyz
x,y,z
-y,x,z
-x,-y,z
y,-x,z
x,-y,1/2-z
-x,y,1/2-z
y,x,1/2-z
-y,-x,1/2-z
-x,-y,-z
y,-x,-z
x,y,-z
-y,x,-z
-x,y,1/2+z
x,-y,1/2+z
-y,-x,1/2+z
y,x,1/2+z
1/2+x,1/2+y,1/2+z
1/2-y,1/2+x,1/2+z
1/2-x,1/2-y,1/2+z
1/2+y,1/2-x,1/2+z
1/2+x,1/2-y,-z
1/2-x,1/2+y,-z
1/2+y,1/2+x,-z
1/2-y,1/2-x,-z
1/2-x,1/2-y,1/2-z
1/2+y,1/2-x,1/2-z
1/2+x,1/2+y,1/2-z
1/2-y,1/2+x,1/2-z
1/2-x,1/2+y,z
1/2+x,1/2-y,z
1/2-y,1/2-x,z
1/2+y,1/2+x,z
loop_
_atom_site_type_symbol
_atom_site_label
_atom_site_fract_x
_atom_site_fract_y
_atom_site_fract_z
Si Si1 0.986314 0.112719 0.419750
Si Si2 0.722656 0.888735 0.413695
Si Si3 0.291574 0.324075 0.668738
Si Si4 0.984396 0.238664 0.167134
O O1 0.982473 0.149969 0.500000
O O2 0.980671 0.164731 0.352377
O O3 0.060048 0.076165 0.412190
O O4 0.726873 0.891788 0.500000
O O5 0.657301 0.842700 0.386426
O O6 0.794521 0.851423 0.385546
O O7 0.709699 0.967480 0.382403
O O8 0.323744 0.323744 0.750000
O O9 0.222679 0.277322 0.663983
O O10 0.264646 0.402218 0.647654
O O11 0.000000 0.258520 0.250000
#
# Coordination Sequence:
#
# PCOD8320398 Si02
#       4
#    32  32  32  32
#     4   9  19  33  46  66 104 148 184 225 277 337
#     4  10  22  40  60  84 118 158 196 241 300 357
#     4  10  21  39  59  83 117 151 191 244 294 348
#     4  12  22  31  54  84 108 145 194 241 293 344
#
# _framework density 19.070402000000001
#
# number of rings (size 3 to 8) (size 9 to 14) (size 15 to 20)
#    0.000    1.750    2.500    3.000    0.000    4.000 
#    0.000    1.250    0.000    0.750    0.000    3.500 
#    0.000    0.000    0.000    0.000    0.000    0.000 
#
# Total GULP energy -792886.220994 kJ/mol
# GULP energy per Si atom -12388.847203 kJ/mol
# Density = 1.902700 g / cm^3
# Si number density = 19.070402 Si / 1000 Ang^3
#
#
#
# Elastic Constant Matrix: (Units=GPa)
#
#
# Indices 1 2 3 4 5 6 
#
# 1 100.9617 30.4980 22.9156 0.0000 0.0000 0.0000
# 2 30.4980 100.9617 22.9156 0.0000 0.0000 0.0000
# 3 22.9156 22.9156 88.4073 0.0000 0.0000 0.0000
# 4 0.0000 0.0000 0.0000 18.9801 0.0000 0.0000
# 5 0.0000 0.0000 0.0000 0.0000 18.9801 0.0000
# 6 0.0000 0.0000 0.0000 0.0000 0.0000 5.7120
#
#
#
# Elastic Compliance Matrix: (Units=1/GPa)
#
#
# Indices 1 2 3 4 5 6 
#
# 1 0.011277 -0.002915 -0.002168 0.000000 0.000000 0.000000
# 2 -0.002915 0.011277 -0.002168 0.000000 0.000000 0.000000
# 3 -0.002168 -0.002168 0.012435 0.000000 0.000000 0.000000
# 4 0.000000 0.000000 0.000000 0.052687 0.000000 0.000000
# 5 0.000000 0.000000 0.000000 0.000000 0.052687 0.000000
# 6 0.000000 0.000000 0.000000 0.000000 0.000000 0.175071
#
#
# Mechanical properties :
#
#
# Convention : Reuss Voigt Hill
#
# Bulk Modulus (GPa) = 48.80504 49.22103 49.01304
# Shear Modulus (GPa) = 14.84722 23.00120 18.92421
#
# Velocity S-wave (km/s) = 2.79327 3.47669 3.15355
# Velocity P-wave (km/s) = 6.00423 6.47941 6.24634
#
# Compressibility (1/GPa) = 0.02048969
#
# Stress axis : x y z
#
# Youngs Moduli (GPa) = 88.67489 88.67489 80.41815
#
# Poissons Ratio (x) = 0.25845 0.17432
# Poissons Ratio (y) = 0.25845 0.17432
# Poissons Ratio (z) = 0.19221 0.19221
#
# Static dielectric constant tensor:
#      x y z
#    x 3.627590 0.000000 0.000000 
#    y 0.000000 3.627590 0.000000 
#    z 0.000000 0.000000 3.563230 
# 
# 
# High freq. dielectric constant tensor:
#      x y z
#    x 1.730480 0.000000 0.000000 
#    y 0.000000 1.730480 0.000000 
#    z 0.000000 0.000000 1.745820 
# 
# From -- ./inp_files/6461.got.cif
#   From: 2010.06.25/outbox.cif.g09.slc.cpg/sg140_4_cif.got.tgz:6461.got - 2010.06.28 10:53:23.
