data_PCOD8320443
_publ_section_title
;
Structure prediction by ZEFSAII (Michael W. Deem and Ramdas Pophale) SiO2 
 PCOD8320443
Probable space group: I 4/M C M
;
_chemical_formula_sum "Si O2"
_cell_formula_units_Z 160
_cell_length_a 20.071145
_cell_length_b 20.071145
_cell_length_c 18.845315
_cell_angle_alpha 90.000000
_cell_angle_beta 90.000000
_cell_angle_gamma 90.000000
_cell_volume 7591.851385
_symmetry_space_group_name_H-M "I 4/M C M"
_symmetry_group_IT_number 140
_symmetry_cell_setting 'tetragonal'
loop_
_space_group_symop_operation_xyz
x,y,z
-y,x,z
-x,-y,z
y,-x,z
x,-y,1/2-z
-x,y,1/2-z
y,x,1/2-z
-y,-x,1/2-z
-x,-y,-z
y,-x,-z
x,y,-z
-y,x,-z
-x,y,1/2+z
x,-y,1/2+z
-y,-x,1/2+z
y,x,1/2+z
1/2+x,1/2+y,1/2+z
1/2-y,1/2+x,1/2+z
1/2-x,1/2-y,1/2+z
1/2+y,1/2-x,1/2+z
1/2+x,1/2-y,-z
1/2-x,1/2+y,-z
1/2+y,1/2+x,-z
1/2-y,1/2-x,-z
1/2-x,1/2-y,1/2-z
1/2+y,1/2-x,1/2-z
1/2+x,1/2+y,1/2-z
1/2-y,1/2+x,1/2-z
1/2-x,1/2+y,z
1/2+x,1/2-y,z
1/2-y,1/2-x,z
1/2+y,1/2+x,z
loop_
_atom_site_type_symbol
_atom_site_label
_atom_site_fract_x
_atom_site_fract_y
_atom_site_fract_z
Si Si1 0.427892 0.580299 0.830420
Si Si2 0.450954 0.838015 0.685883
Si Si3 0.659324 0.262890 0.300807
Si Si4 0.930711 0.676879 0.083567
Si Si5 0.354776 0.689497 0.083796
O O1 0.407518 0.504833 0.844514
O O2 0.404710 0.595291 0.750000
O O3 0.391238 0.623888 0.888721
O O4 0.500000 0.856035 0.750000
O O5 0.396517 0.896517 0.674857
O O6 0.416194 0.765550 0.699099
O O7 0.496046 0.831182 0.616042
O O8 0.672088 0.327913 0.250000
O O9 0.702701 0.202701 0.269727
O O10 0.685234 0.282185 0.379618
O O11 0.884482 0.615519 0.108347
O O12 0.894875 0.744891 0.108846
O O13 0.940106 0.677655 0.000000
O O14 0.344841 0.688371 0.000000
#
# Coordination Sequence:
#
# PCOD8320443 Si02
#       5
#    32  32  32  32  32
#     4   9  20  39  60  84 119 163 208 255 311 380
#     4  11  24  41  66  97 128 164 210 267 322 380
#     4  10  22  41  63  89 122 161 206 257 316 381
#     4  10  23  43  64  89 127 173 217 264 323 386
#     4  11  23  38  62  91 125 165 209 260 317 380
#
# _framework density 21.075227000000002
#
# number of rings (size 3 to 8) (size 9 to 14) (size 15 to 20)
#    0.000    1.800    0.000    3.600    2.800    6.200 
#    0.000    4.000    0.000    0.000    0.000    0.000 
#    0.000    0.000    0.000    0.000    0.000    0.000 
#
# Total GULP energy -991468.221116 kJ/mol
# GULP energy per Si atom -12393.352764 kJ/mol
# Density = 2.102726 g / cm^3
# Si number density = 21.075227 Si / 1000 Ang^3
#
#
#
# Elastic Constant Matrix: (Units=GPa)
#
#
# Indices 1 2 3 4 5 6 
#
# 1 96.6572 75.1308 34.2335 0.0000 0.0000 0.0000
# 2 75.1308 96.6550 34.2328 0.0000 0.0000 0.0000
# 3 34.2335 34.2328 74.5409 0.0000 0.0000 0.0000
# 4 0.0000 0.0000 0.0000 37.9820 0.0000 0.0000
# 5 0.0000 0.0000 0.0000 0.0000 37.9822 0.0000
# 6 0.0000 0.0000 0.0000 0.0000 0.0000 42.0191
#
#
#
# Elastic Compliance Matrix: (Units=1/GPa)
#
#
# Indices 1 2 3 4 5 6 
#
# 1 0.026791 -0.019666 -0.003272 0.000000 0.000000 0.000000
# 2 -0.019666 0.026791 -0.003272 0.000000 0.000000 0.000000
# 3 -0.003272 -0.003272 0.016421 0.000000 0.000000 0.000000
# 4 0.000000 0.000000 0.000000 0.026328 0.000000 0.000000
# 5 0.000000 0.000000 0.000000 0.000000 0.026328 0.000000
# 6 0.000000 0.000000 0.000000 0.000000 0.000000 0.023799
#
#
# Mechanical properties :
#
#
# Convention : Reuss Voigt Hill
#
# Bulk Modulus (GPa) = 56.87481 61.67192 59.27337
# Shear Modulus (GPa) = 24.42116 31.88040 28.15078
#
# Velocity S-wave (km/s) = 3.40775 3.89356 3.65873
# Velocity P-wave (km/s) = 6.52142 7.03842 6.78484
#
# Compressibility (1/GPa) = 0.01758248
#
# Stress axis : x y z
#
# Youngs Moduli (GPa) = 37.32608 37.32531 60.89711
#
# Poissons Ratio (x) = 0.73403 0.19928
# Poissons Ratio (y) = 0.73405 0.19927
# Poissons Ratio (z) = 0.12215 0.12214
#
# Static dielectric constant tensor:
#      x y z
#    x 3.942910 0.000000 0.000000 
#    y 0.000000 3.942910 0.000000 
#    z 0.000000 0.000000 3.966550 
# 
# 
# High freq. dielectric constant tensor:
#      x y z
#    x 1.836280 0.000000 0.000000 
#    y 0.000000 1.836280 0.000000 
#    z 0.000000 0.000000 1.820070 
# 
# From -- ./inp_files/6879.got.cif
#   From: 2010.06.25/outbox.cif.g09.slc.cpg/sg140_4_cif.got.tgz:6879.got - 2010.06.28 10:53:23.
