data_PCOD8320218
_publ_section_title
;
Structure prediction by ZEFSAII (Michael W. Deem and Ramdas Pophale) SiO2 
 PCOD8320218
Probable space group: I 4/M C M
;
_chemical_formula_sum "Si O2"
_cell_formula_units_Z 192
_cell_length_a 20.518120
_cell_length_b 20.518120
_cell_length_c 28.116940
_cell_angle_alpha 90.000000
_cell_angle_beta 90.000000
_cell_angle_gamma 90.000000
_cell_volume 11837.041904
_symmetry_space_group_name_H-M "I 4/M C M"
_symmetry_group_IT_number 140
_symmetry_cell_setting 'tetragonal'
loop_
_space_group_symop_operation_xyz
x,y,z
-y,x,z
-x,-y,z
y,-x,z
x,-y,1/2-z
-x,y,1/2-z
y,x,1/2-z
-y,-x,1/2-z
-x,-y,-z
y,-x,-z
x,y,-z
-y,x,-z
-x,y,1/2+z
x,-y,1/2+z
-y,-x,1/2+z
y,x,1/2+z
1/2+x,1/2+y,1/2+z
1/2-y,1/2+x,1/2+z
1/2-x,1/2-y,1/2+z
1/2+y,1/2-x,1/2+z
1/2+x,1/2-y,-z
1/2-x,1/2+y,-z
1/2+y,1/2+x,-z
1/2-y,1/2-x,-z
1/2-x,1/2-y,1/2-z
1/2+y,1/2-x,1/2-z
1/2+x,1/2+y,1/2-z
1/2-y,1/2+x,1/2-z
1/2-x,1/2+y,z
1/2+x,1/2-y,z
1/2-y,1/2-x,z
1/2+y,1/2+x,z
loop_
_atom_site_type_symbol
_atom_site_label
_atom_site_fract_x
_atom_site_fract_y
_atom_site_fract_z
Si Si1 0.095411 0.302760 0.668041
Si Si2 0.086146 0.134861 0.798327
Si Si3 0.004481 0.892794 0.947899
Si Si4 0.726704 0.124548 0.775731
Si Si5 0.374504 0.023216 0.696828
Si Si6 0.960353 0.168434 0.854040
O O1 0.162626 0.337375 0.649797
O O2 0.102315 0.278007 0.721552
O O3 0.073894 0.238653 0.639837
O O4 0.039044 0.357908 0.664378
O O5 0.090746 0.090746 0.750000
O O6 0.130446 0.198712 0.791266
O O7 0.114186 0.094203 0.842652
O O8 0.013542 0.160173 0.811480
O O9 0.006864 0.841126 0.905371
O O10 0.938954 0.933419 0.942966
O O11 0.005950 0.858229 0.000000
O O12 0.695734 0.195734 0.783462
O O13 0.687770 0.071085 0.806279
O O14 0.438564 0.061437 0.677767
O O15 0.389322 0.000000 0.750000
#
# Coordination Sequence:
#
# PCOD8320218 Si02
#       6
#    32  32  32  32  32  32
#     4  10  20  32  48  67  96 132 172 209 244 291
#     4  12  23  32  47  67 104 144 167 201 233 295
#     4   9  18  35  56  76  95 121 164 213 252 296
#     4   9  18  32  46  62  91 138 179 205 232 274
#     4   9  16  27  44  63  88 124 169 213 247 276
#     4  12  22  35  50  71 101 131 169 202 256 290
#
# _framework density 16.220268999999998
#
# number of rings (size 3 to 8) (size 9 to 14) (size 15 to 20)
#    0.000    1.833    5.000    2.500    0.000    2.500 
#    0.000    0.833    0.000    0.500    0.000    0.000 
#    0.000    2.667    0.000    1.500    0.000    0.000 
#
# Total GULP energy -1189645.133700 kJ/mol
# GULP energy per Si atom -12392.136809 kJ/mol
# Density = 1.618335 g / cm^3
# Si number density = 16.220269 Si / 1000 Ang^3
#
#
#
# Elastic Constant Matrix: (Units=GPa)
#
#
# Indices 1 2 3 4 5 6 
#
# 1 70.1480 23.8490 18.7380 0.0000 0.0000 0.0000
# 2 23.8490 70.1480 18.7380 0.0000 0.0000 0.0000
# 3 18.7380 18.7380 62.9081 0.0000 0.0000 0.0000
# 4 0.0000 0.0000 0.0000 11.6743 0.0000 0.0000
# 5 0.0000 0.0000 0.0000 0.0000 11.6743 0.0000
# 6 0.0000 0.0000 0.0000 0.0000 0.0000 25.8025
#
#
#
# Elastic Compliance Matrix: (Units=1/GPa)
#
#
# Indices 1 2 3 4 5 6 
#
# 1 0.016836 -0.004763 -0.003596 0.000000 0.000000 0.000000
# 2 -0.004763 0.016836 -0.003596 0.000000 0.000000 0.000000
# 3 -0.003596 -0.003596 0.018038 0.000000 0.000000 0.000000
# 4 0.000000 0.000000 0.000000 0.085658 0.000000 0.000000
# 5 0.000000 0.000000 0.000000 0.000000 0.085658 0.000000
# 6 0.000000 0.000000 0.000000 0.000000 0.000000 0.038756
#
#
# Mechanical properties :
#
#
# Convention : Reuss Voigt Hill
#
# Bulk Modulus (GPa) = 35.97199 36.20600 36.08899
# Shear Modulus (GPa) = 16.95158 19.28885 18.12021
#
# Velocity S-wave (km/s) = 3.23629 3.45219 3.34598
# Velocity P-wave (km/s) = 6.01582 6.18547 6.10124
#
# Compressibility (1/GPa) = 0.02779941
#
# Stress axis : x y z
#
# Youngs Moduli (GPa) = 59.39822 59.39822 55.43736
#
# Poissons Ratio (x) = 0.28293 0.19935
# Poissons Ratio (y) = 0.28293 0.19935
# Poissons Ratio (z) = 0.21359 0.21359
#
# Static dielectric constant tensor:
#      x y z
#    x 3.138240 0.000000 0.000000 
#    y 0.000000 3.138240 0.000000 
#    z 0.000000 0.000000 2.670310 
# 
# 
# High freq. dielectric constant tensor:
#      x y z
#    x 1.628120 0.000000 0.000000 
#    y 0.000000 1.628120 0.000000 
#    z 0.000000 0.000000 1.557060 
# 
# From -- ./inp_files/10821.got.cif
#   From: 2010.06.25/outbox.cif.g09.slc.cpg/sg140_6_cif.got.tgz:10821.got - 2010.06.28 10:53:23.
