data_PCOD8320359
_publ_section_title
;
Structure prediction by ZEFSAII (Michael W. Deem and Ramdas Pophale) SiO2 
 PCOD8320359
Probable space group: I 4/M C M
;
_chemical_formula_sum "Si O2"
_cell_formula_units_Z 240
_cell_length_a 20.509161
_cell_length_b 20.509161
_cell_length_c 28.760819
_cell_angle_alpha 90.000000
_cell_angle_beta 90.000000
_cell_angle_gamma 90.000000
_cell_volume 12097.539191
_symmetry_space_group_name_H-M "I 4/M C M"
_symmetry_group_IT_number 140
_symmetry_cell_setting 'tetragonal'
loop_
_space_group_symop_operation_xyz
x,y,z
-y,x,z
-x,-y,z
y,-x,z
x,-y,1/2-z
-x,y,1/2-z
y,x,1/2-z
-y,-x,1/2-z
-x,-y,-z
y,-x,-z
x,y,-z
-y,x,-z
-x,y,1/2+z
x,-y,1/2+z
-y,-x,1/2+z
y,x,1/2+z
1/2+x,1/2+y,1/2+z
1/2-y,1/2+x,1/2+z
1/2-x,1/2-y,1/2+z
1/2+y,1/2-x,1/2+z
1/2+x,1/2-y,-z
1/2-x,1/2+y,-z
1/2+y,1/2+x,-z
1/2-y,1/2-x,-z
1/2-x,1/2-y,1/2-z
1/2+y,1/2-x,1/2-z
1/2+x,1/2+y,1/2-z
1/2-y,1/2+x,1/2-z
1/2-x,1/2+y,z
1/2+x,1/2-y,z
1/2-y,1/2-x,z
1/2+y,1/2+x,z
loop_
_atom_site_type_symbol
_atom_site_label
_atom_site_fract_x
_atom_site_fract_y
_atom_site_fract_z
Si Si1 0.575298 0.178925 0.251841
Si Si2 0.996555 0.605804 0.500000
Si Si3 0.714983 0.676269 0.383614
Si Si4 0.451495 0.155390 0.592374
Si Si5 0.972346 0.097834 0.444972
Si Si6 0.835317 0.774597 0.792049
Si Si7 0.780677 0.893206 0.554748
Si Si8 0.315778 0.920219 0.641974
O O1 0.500000 0.162851 0.250000
O O2 0.613170 0.113170 0.237514
O O3 0.595894 0.237245 0.216669
O O4 0.593596 0.199416 0.304174
O O5 0.924151 0.575850 0.500000
O O6 0.049704 0.549704 0.500000
O O7 0.005485 0.649110 0.454283
O O8 0.771251 0.728750 0.378132
O O9 0.664377 0.685758 0.340556
O O10 0.675553 0.686391 0.431444
O O11 0.750694 0.605676 0.384517
O O12 0.409434 0.090567 0.604458
O O13 0.401540 0.214652 0.584253
O O14 0.502927 0.170935 0.633122
O O15 0.970778 0.092970 0.500000
O O16 0.951299 0.170276 0.430229
O O17 0.044291 0.080094 0.425790
O O18 0.825156 0.825156 0.750000
O O19 0.778730 0.721271 0.791342
O O20 0.765337 0.892003 0.500000
O O21 0.380293 0.880293 0.626305
#
# Coordination Sequence:
#
# PCOD8320359 Si02
#       8
#    32  16  32  32  32  32  32  32
#     4  10  21  36  57  86 120 154 192 241 297 356
#     4   9  18  36  58  74  98 147 210 256 289 348
#     4  10  21  37  58  84 114 150 192 240 303 361
#     4  11  23  38  57  81 113 156 205 254 307 356
#     4   8  16  33  55  77 104 141 182 225 285 358
#     4   9  16  34  61  81 104 144 188 231 282 345
#     4  11  23  37  57  84 117 151 194 252 306 357
#     4  10  22  40  58  83 118 154 198 251 297 357
#
# _framework density 19.838746
#
# number of rings (size 3 to 8) (size 9 to 14) (size 15 to 20)
#    0.000    2.200    2.000    1.200    3.733    2.267 
#    1.200    1.333    0.000    0.000    0.000    0.000 
#    0.000    0.267    0.000    0.000    0.000    0.000 
#
# Total GULP energy -1487598.080748 kJ/mol
# GULP energy per Si atom -12396.650673 kJ/mol
# Density = 1.979359 g / cm^3
# Si number density = 19.838746 Si / 1000 Ang^3
#
#
#
# Elastic Constant Matrix: (Units=GPa)
#
#
# Indices 1 2 3 4 5 6 
#
# 1 88.6081 42.4279 17.8652 0.0000 0.0000 0.0000
# 2 42.4279 88.6081 17.8652 0.0000 0.0000 0.0000
# 3 17.8652 17.8652 42.3614 0.0000 0.0000 0.0000
# 4 0.0000 0.0000 0.0000 27.3891 0.0000 0.0000
# 5 0.0000 0.0000 0.0000 0.0000 27.3892 0.0000
# 6 0.0000 0.0000 0.0000 0.0000 0.0000 25.7659
#
#
#
# Elastic Compliance Matrix: (Units=1/GPa)
#
#
# Indices 1 2 3 4 5 6 
#
# 1 0.015139 -0.006516 -0.003637 0.000000 0.000000 0.000000
# 2 -0.006516 0.015139 -0.003637 0.000000 0.000000 0.000000
# 3 -0.003637 -0.003637 0.026674 0.000000 0.000000 0.000000
# 4 0.000000 0.000000 0.000000 0.036511 0.000000 0.000000
# 5 0.000000 0.000000 0.000000 0.000000 0.036511 0.000000
# 6 0.000000 0.000000 0.000000 0.000000 0.000000 0.038811
#
#
# Mechanical properties :
#
#
# Convention : Reuss Voigt Hill
#
# Bulk Modulus (GPa) = 34.04440 41.76604 37.90522
# Shear Modulus (GPa) = 24.25384 25.53678 24.89531
#
# Velocity S-wave (km/s) = 3.50029 3.59167 3.54628
# Velocity P-wave (km/s) = 5.79084 6.18859 5.99302
#
# Compressibility (1/GPa) = 0.02937341
#
# Stress axis : x y z
#
# Youngs Moduli (GPa) = 66.05581 66.05583 37.48996
#
# Poissons Ratio (x) = 0.43039 0.13634
# Poissons Ratio (y) = 0.43039 0.13634
# Poissons Ratio (z) = 0.24022 0.24022
#
# Static dielectric constant tensor:
#      x y z
#    x 3.564770 0.000000 0.000000 
#    y 0.000000 3.564770 0.000000 
#    z 0.000000 0.000000 3.524620 
# 
# 
# High freq. dielectric constant tensor:
#      x y z
#    x 1.762760 0.000000 0.000000 
#    y 0.000000 1.762760 0.000000 
#    z 0.000000 0.000000 1.756840 
# 
# From -- ./inp_files/10962.got.cif
#   From: 2010.06.25/outbox.cif.g09.slc.cpg/sg140_6_cif.got.tgz:10962.got - 2010.06.28 10:53:23.
