data_PCOD8320539
_publ_section_title
;
Structure prediction by ZEFSAII (Michael W. Deem and Ramdas Pophale) SiO2 
 PCOD8320539
Probable space group: I 41/A M D
;
_chemical_formula_sum "Si O2"
_cell_formula_units_Z 128
_cell_length_a 19.826240
_cell_length_b 19.826240
_cell_length_c 20.447112
_cell_angle_alpha 90.000000
_cell_angle_beta 90.000000
_cell_angle_gamma 90.000000
_cell_volume 8037.346543
_symmetry_space_group_name_H-M "I 41/A M D"
_symmetry_group_IT_number 141
_space_group.IT_coordinate_system_code '2'
_symmetry_cell_setting 'tetragonal'
loop_
_space_group_symop_operation_xyz
x,y,z
1/4-y,3/4+x,1/4+z
-x,1/2-y,z
1/4+y,1/4-x,3/4+z
x,-y,-z
-x,1/2+y,-z
1/4+y,3/4+x,1/4-z
1/4-y,1/4-x,3/4-z
-x,-y,-z
3/4+y,1/4-x,3/4-z
x,1/2+y,-z
3/4-y,3/4+x,1/4-z
-x,y,z
x,1/2-y,z
3/4-y,1/4-x,3/4+z
3/4+y,3/4+x,1/4+z
1/2+x,1/2+y,1/2+z
3/4-y,1/4+x,3/4+z
1/2-x,-y,1/2+z
3/4+y,3/4-x,1/4+z
1/2+x,1/2-y,1/2-z
1/2-x,y,1/2-z
3/4+y,1/4+x,3/4-z
3/4-y,3/4-x,1/4-z
1/2-x,1/2-y,1/2-z
1/4+y,3/4-x,1/4-z
1/2+x,y,1/2-z
1/4-y,1/4+x,3/4-z
1/2-x,1/2+y,1/2+z
1/2+x,-y,1/2+z
1/4-y,3/4-x,1/4+z
1/4+y,1/4+x,3/4+z
loop_
_atom_site_type_symbol
_atom_site_label
_atom_site_fract_x
_atom_site_fract_y
_atom_site_fract_z
Si Si1 0.758999 0.357652 0.156721
Si Si2 0.423460 0.464145 0.235320
Si Si3 0.073015 0.113518 0.493497
Si Si4 0.245444 0.544730 0.058532
O O1 0.755049 0.343071 0.080275
O O2 0.695744 0.322180 0.190246
O O3 0.829883 0.329766 0.184523
O O4 0.754452 0.436393 0.173961
O O5 0.500000 0.479006 0.257335
O O6 0.415228 0.383237 0.227618
O O7 0.372214 0.492167 0.289489
O O8 0.000000 0.150640 0.489708
O O9 0.201397 0.548604 0.125000
O O10 0.211364 0.500000 0.000000
#
# Coordination Sequence:
#
# PCOD8320539 Si02
#       4
#    32  32  32  32
#     4  10  16  29  46  69  94 126 166 208 237 276
#     4  11  21  30  45  69 100 126 160 206 249 289
#     4  10  18  27  42  63  95 134 168 195 236 286
#     4  11  18  32  54  75  96 124 166 209 248 288
#
# _framework density 15.925654
#
# number of rings (size 3 to 8) (size 9 to 14) (size 15 to 20)
#    0.000    1.500    7.500    3.750    0.000    0.500 
#    0.000    0.000    0.000    3.750    0.000    0.000 
#    0.000    0.500    0.000    0.000    0.000    0.000 
#
# Total GULP energy -793240.626973 kJ/mol
# GULP energy per Si atom -12394.384796 kJ/mol
# Density = 1.588941 g / cm^3
# Si number density = 15.925654 Si / 1000 Ang^3
#
#
#
# Elastic Constant Matrix: (Units=GPa)
#
#
# Indices 1 2 3 4 5 6 
#
# 1 55.7563 17.2120 37.7323 0.0000 0.0000 0.0000
# 2 17.2120 55.7566 37.7315 0.0000 0.0000 0.0000
# 3 37.7323 37.7315 99.3403 0.0000 0.0000 0.0000
# 4 0.0000 0.0000 0.0000 13.6115 0.0000 0.0000
# 5 0.0000 0.0000 0.0000 0.0000 13.6117 0.0000
# 6 0.0000 0.0000 0.0000 0.0000 0.0000 8.2992
#
#
#
# Elastic Compliance Matrix: (Units=1/GPa)
#
#
# Indices 1 2 3 4 5 6 
#
# 1 0.024258 -0.001687 -0.008573 0.000000 0.000000 0.000000
# 2 -0.001687 0.024257 -0.008573 0.000000 0.000000 0.000000
# 3 -0.008573 -0.008573 0.016579 0.000000 0.000000 0.000000
# 4 0.000000 0.000000 0.000000 0.073467 0.000000 0.000000
# 5 0.000000 0.000000 0.000000 0.000000 0.073466 0.000000
# 6 0.000000 0.000000 0.000000 0.000000 0.000000 0.120494
#
#
# Mechanical properties :
#
#
# Convention : Reuss Voigt Hill
#
# Bulk Modulus (GPa) = 36.45845 44.02274 40.24059
# Shear Modulus (GPa) = 13.18119 14.98298 14.08208
#
# Velocity S-wave (km/s) = 2.88005 3.07059 2.97684
# Velocity P-wave (km/s) = 5.83114 6.34618 6.09410
#
# Compressibility (1/GPa) = 0.02742849
#
# Stress axis : x y z
#
# Youngs Moduli (GPa) = 41.22418 41.22515 60.31814
#
# Poissons Ratio (x) = 0.06954 0.51711
# Poissons Ratio (y) = 0.06954 0.51709
# Poissons Ratio (z) = 0.35342 0.35341
#
# Static dielectric constant tensor:
#      x y z
#    x 2.868410 0.000000 0.000000 
#    y 0.000000 2.868410 0.000000 
#    z 0.000000 0.000000 3.185660 
# 
# 
# High freq. dielectric constant tensor:
#      x y z
#    x 1.584510 0.000000 0.000000 
#    y 0.000000 1.584510 0.000000 
#    z 0.000000 0.000000 1.605180 
# 
# From -- ./inp_files/8255.got.cif
#   From: 2010.03.12/outbox.cif.g09.slc.cpg/sg141_5_cif.got.tgz:8255.got - 2010.04.03 13:18:35.
