data_PCOD8320118
_publ_section_title
;
Structure prediction by ZEFSAII (Michael W. Deem and Ramdas Pophale) SiO2 
 PCOD8320118
Probable space group: I 4/M C M
;
_chemical_formula_sum "Si O2"
_cell_formula_units_Z 192
_cell_length_a 19.486356
_cell_length_b 19.486356
_cell_length_c 27.302740
_cell_angle_alpha 90.000000
_cell_angle_beta 90.000000
_cell_angle_gamma 90.000000
_cell_volume 10367.343743
_symmetry_space_group_name_H-M "I 4/M C M"
_symmetry_group_IT_number 140
_symmetry_cell_setting 'tetragonal'
loop_
_space_group_symop_operation_xyz
x,y,z
-y,x,z
-x,-y,z
y,-x,z
x,-y,1/2-z
-x,y,1/2-z
y,x,1/2-z
-y,-x,1/2-z
-x,-y,-z
y,-x,-z
x,y,-z
-y,x,-z
-x,y,1/2+z
x,-y,1/2+z
-y,-x,1/2+z
y,x,1/2+z
1/2+x,1/2+y,1/2+z
1/2-y,1/2+x,1/2+z
1/2-x,1/2-y,1/2+z
1/2+y,1/2-x,1/2+z
1/2+x,1/2-y,-z
1/2-x,1/2+y,-z
1/2+y,1/2+x,-z
1/2-y,1/2-x,-z
1/2-x,1/2-y,1/2-z
1/2+y,1/2-x,1/2-z
1/2+x,1/2+y,1/2-z
1/2-y,1/2+x,1/2-z
1/2-x,1/2+y,z
1/2+x,1/2-y,z
1/2-y,1/2-x,z
1/2+y,1/2+x,z
loop_
_atom_site_type_symbol
_atom_site_label
_atom_site_fract_x
_atom_site_fract_y
_atom_site_fract_z
Si Si1 0.334463 0.053835 0.785921
Si Si2 0.757257 0.143915 0.113726
Si Si3 0.273997 0.009555 0.443606
Si Si4 0.258342 0.356611 0.772648
Si Si5 0.496456 0.110706 0.377119
Si Si6 0.743185 0.353542 0.056327
O O1 0.380252 0.119749 0.794608
O O2 0.263168 0.076705 0.759905
O O3 0.328383 0.015025 0.838302
O O4 0.372122 0.000000 0.750000
O O5 0.685556 0.185556 0.105601
O O6 0.760529 0.070999 0.086605
O O7 0.769506 0.126369 0.170527
O O8 0.819647 0.189001 0.093062
O O9 0.265111 0.027435 0.500000
O O10 0.354684 0.008334 0.430246
O O11 0.243872 0.934293 0.431200
O O12 0.329201 0.329201 0.750000
O O13 0.199732 0.300268 0.767089
O O14 0.553108 0.053108 0.377909
O O15 0.423272 0.076729 0.363081
O O16 0.818194 0.318194 0.064801
O O17 0.720361 0.341724 0.000000
#
# Coordination Sequence:
#
# PCOD8320118 Si02
#       6
#    32  32  32  32  32  32
#     4  10  19  31  49  72 105 142 179 219 263 318
#     4  10  20  35  57  81 109 142 185 237 286 339
#     4  11  22  35  54  79 108 143 186 235 285 334
#     4   9  19  34  52  76 103 136 177 224 274 321
#     4  10  21  33  47  72 107 149 189 222 268 332
#     4   9  19  35  55  80 111 150 192 234 287 346
#
# _framework density 18.519691999999999
#
# number of rings (size 3 to 8) (size 9 to 14) (size 15 to 20)
#    0.000    2.167    0.000    3.000    2.333    5.167 
#    0.000    0.833    0.000    0.500    0.000    2.333 
#    0.000    0.333    0.000    0.000    0.000    0.000 
#
# Total GULP energy -1189527.310082 kJ/mol
# GULP energy per Si atom -12390.909480 kJ/mol
# Density = 1.847754 g / cm^3
# Si number density = 18.519692 Si / 1000 Ang^3
#
#
#
# Elastic Constant Matrix: (Units=GPa)
#
#
# Indices 1 2 3 4 5 6 
#
# 1 90.3993 44.8494 56.1419 0.0000 0.0000 0.0000
# 2 44.8494 90.3993 56.1419 0.0000 0.0000 0.0000
# 3 56.1419 56.1419 88.2836 0.0000 0.0000 0.0000
# 4 0.0000 0.0000 0.0000 29.4494 0.0000 0.0000
# 5 0.0000 0.0000 0.0000 0.0000 29.4494 0.0000
# 6 0.0000 0.0000 0.0000 0.0000 0.0000 -0.2029
#
#
#
# Elastic Compliance Matrix: (Units=1/GPa)
#
#
# Indices 1 2 3 4 5 6 
#
# 1 0.018808 -0.003145 -0.009961 0.000000 0.000000 0.000000
# 2 -0.003145 0.018808 -0.009961 0.000000 0.000000 0.000000
# 3 -0.009961 -0.009961 0.023996 0.000000 0.000000 0.000000
# 4 0.000000 0.000000 0.000000 0.033957 0.000000 0.000000
# 5 0.000000 0.000000 0.000000 0.000000 0.033957 0.000000
# 6 0.000000 0.000000 0.000000 0.000000 0.000000 -4.928175
#
#
# Mechanical properties :
#
#
# Convention : Reuss Voigt Hill
#
# Bulk Modulus (GPa) = 64.60202 64.81651 64.70926
# Shear Modulus (GPa) = -1.05322 19.20246 9.07462
#
# Velocity S-wave (km/s) = -0.75494 3.22354 2.21599
# Velocity P-wave (km/s) = 5.84796 6.99497 6.44703
#
# Compressibility (1/GPa) = 0.01547939
#
# Stress axis : x y z
#
# Youngs Moduli (GPa) = 53.16746 53.16746 41.67447
#
# Poissons Ratio (x) = 0.16723 0.41510
# Poissons Ratio (y) = 0.16723 0.41510
# Poissons Ratio (z) = 0.52958 0.52958
#
# Static dielectric constant tensor:
#      x y z
#    x 3.349640 0.000000 0.000000 
#    y 0.000000 3.349640 0.000000 
#    z 0.000000 0.000000 3.749970 
# 
# 
# High freq. dielectric constant tensor:
#      x y z
#    x 1.695670 0.000000 0.000000 
#    y 0.000000 1.695670 0.000000 
#    z 0.000000 0.000000 1.734410 
# 
# From -- ./inp_files/9739.got.cif
#   From: 2010.06.25/outbox.cif.g09.slc.cpg/sg140_5_cif.got.tgz:9739.got - 2010.06.28 10:53:23.
