data_PCOD8320704
_publ_section_title
;
Structure prediction by ZEFSAII (Michael W. Deem and Ramdas Pophale) SiO2 
 PCOD8320704
Probable space group: I 41/A M D
;
_chemical_formula_sum "Si O2"
_cell_formula_units_Z 240
_cell_length_a 21.755199
_cell_length_b 21.755199
_cell_length_c 27.594445
_cell_angle_alpha 90.000000
_cell_angle_beta 90.000000
_cell_angle_gamma 90.000000
_cell_volume 13060.138547
_symmetry_space_group_name_H-M "I 41/A M D"
_symmetry_group_IT_number 141
_space_group.IT_coordinate_system_code '2'
_symmetry_cell_setting 'tetragonal'
loop_
_space_group_symop_operation_xyz
x,y,z
1/4-y,3/4+x,1/4+z
-x,1/2-y,z
1/4+y,1/4-x,3/4+z
x,-y,-z
-x,1/2+y,-z
1/4+y,3/4+x,1/4-z
1/4-y,1/4-x,3/4-z
-x,-y,-z
3/4+y,1/4-x,3/4-z
x,1/2+y,-z
3/4-y,3/4+x,1/4-z
-x,y,z
x,1/2-y,z
3/4-y,1/4-x,3/4+z
3/4+y,3/4+x,1/4+z
1/2+x,1/2+y,1/2+z
3/4-y,1/4+x,3/4+z
1/2-x,-y,1/2+z
3/4+y,3/4-x,1/4+z
1/2+x,1/2-y,1/2-z
1/2-x,y,1/2-z
3/4+y,1/4+x,3/4-z
3/4-y,3/4-x,1/4-z
1/2-x,1/2-y,1/2-z
1/4+y,3/4-x,1/4-z
1/2+x,y,1/2-z
1/4-y,1/4+x,3/4-z
1/2-x,1/2+y,1/2+z
1/2+x,-y,1/2+z
1/4-y,3/4-x,1/4+z
1/4+y,1/4+x,3/4+z
loop_
_atom_site_type_symbol
_atom_site_label
_atom_site_fract_x
_atom_site_fract_y
_atom_site_fract_z
Si Si1 0.567485 0.423552 0.841851
Si Si2 0.429071 0.632972 0.529373
Si Si3 0.670085 0.630914 0.795037
Si Si4 0.179191 0.992687 0.668995
Si Si5 0.695419 0.319971 0.304085
Si Si6 0.359653 0.177971 0.668083
Si Si7 0.926825 0.676825 0.625000
Si Si8 0.635309 0.511616 0.554776
O O1 0.500000 0.452321 0.837860
O O2 0.569115 0.364470 0.806703
O O3 0.611872 0.478694 0.828562
O O4 0.581000 0.404386 0.897730
O O5 0.500000 0.648322 0.539600
O O6 0.415579 0.637343 0.471652
O O7 0.413259 0.567298 0.553491
O O8 0.675521 0.556795 0.788080
O O9 0.657673 0.651362 0.740118
O O10 0.736540 0.653453 0.813716
O O11 0.614149 0.654800 0.828951
O O12 0.226359 0.049245 0.670203
O O13 0.197394 0.947394 0.625000
O O14 0.705151 0.250000 0.290858
O O15 0.402038 0.152038 0.625000
O O16 0.351505 0.250000 0.659194
O O17 0.293305 0.146097 0.665875
O O18 0.915437 0.750000 0.615454
O O19 0.653564 0.500000 0.500000
#
# Coordination Sequence:
#
# PCOD8320704 Si02
#       8
#    32  32  32  32  32  32  16  32
#     4  10  21  37  54  77 108 142 181 225 272 319
#     4   9  19  37  59  81 107 146 190 224 272 339
#     4  11  20  34  54  82 107 142 184 227 276 332
#     4  11  20  32  52  82 109 142 176 221 275 330
#     4  10  20  35  56  78 107 142 181 229 272 326
#     4  10  20  36  57  85 114 146 184 230 276 325
#     4  11  22  36  54  76 108 146 186 230 273 324
#     4   9  19  33  55  81 113 146 178 222 277 334
#
# _framework density 18.376528
#
# number of rings (size 3 to 8) (size 9 to 14) (size 15 to 20)
#    0.000    1.933    2.000    2.400    1.867    4.133 
#    0.000    2.000    0.000    2.400    0.000    0.000 
#    0.000    0.000    0.000    0.000    0.000    0.000 
#
# Total GULP energy -1486576.717345 kJ/mol
# GULP energy per Si atom -12388.139311 kJ/mol
# Density = 1.833470 g / cm^3
# Si number density = 18.376528 Si / 1000 Ang^3
#
#
#
# Elastic Constant Matrix: (Units=GPa)
#
#
# Indices 1 2 3 4 5 6 
#
# 1 114.6395 54.9096 58.6913 0.0000 0.0000 0.0000
# 2 54.9096 114.6395 58.6913 0.0000 0.0000 0.0000
# 3 58.6913 58.6913 93.5239 0.0000 0.0000 0.0000
# 4 0.0000 0.0000 0.0000 27.9162 0.0000 0.0000
# 5 0.0000 0.0000 0.0000 0.0000 27.9162 0.0000
# 6 0.0000 0.0000 0.0000 0.0000 0.0000 14.6861
#
#
#
# Elastic Compliance Matrix: (Units=1/GPa)
#
#
# Indices 1 2 3 4 5 6 
#
# 1 0.013586 -0.003156 -0.006545 0.000000 0.000000 0.000000
# 2 -0.003156 0.013586 -0.006545 0.000000 0.000000 0.000000
# 3 -0.006545 -0.006545 0.018907 0.000000 0.000000 0.000000
# 4 0.000000 0.000000 0.000000 0.035821 0.000000 0.000000
# 5 0.000000 0.000000 0.000000 0.000000 0.035821 0.000000
# 6 0.000000 0.000000 0.000000 0.000000 0.000000 0.068092
#
#
# Mechanical properties :
#
#
# Convention : Reuss Voigt Hill
#
# Bulk Modulus (GPa) = 73.60608 74.15414 73.88011
# Shear Modulus (GPa) = 22.43826 24.13776 23.28801
#
# Velocity S-wave (km/s) = 3.49811 3.62817 3.56373
# Velocity P-wave (km/s) = 7.51379 7.61523 7.56468
#
# Compressibility (1/GPa) = 0.01358583
#
# Stress axis : x y z
#
# Youngs Moduli (GPa) = 73.60739 73.60739 52.89066
#
# Poissons Ratio (x) = 0.23234 0.34616
# Poissons Ratio (y) = 0.23234 0.34616
# Poissons Ratio (z) = 0.48175 0.48175
#
# Static dielectric constant tensor:
#      x y z
#    x 3.479750 0.000000 0.000000 
#    y 0.000000 3.479750 0.000000 
#    z 0.000000 0.000000 3.473440 
# 
# 
# High freq. dielectric constant tensor:
#      x y z
#    x 1.713280 0.000000 0.000000 
#    y 0.000000 1.713280 0.000000 
#    z 0.000000 0.000000 1.708820 
# 
# From -- ./inp_files/14610.got.cif
#   From: 2010.03.12/outbox.cif.g09.slc.cpg/sg141_8_cif.got.tgz:14610.got - 2010.04.03 13:18:35.
