data_PCOD8320261
_publ_section_title
;
Structure prediction by ZEFSAII (Michael W. Deem and Ramdas Pophale) SiO2 
 PCOD8320261
Probable space group: I 4/M C M
;
_chemical_formula_sum "Si O2"
_cell_formula_units_Z 160
_cell_length_a 20.704604
_cell_length_b 20.704604
_cell_length_c 18.909423
_cell_angle_alpha 90.000000
_cell_angle_beta 90.000000
_cell_angle_gamma 90.000000
_cell_volume 8106.103304
_symmetry_space_group_name_H-M "I 4/M C M"
_symmetry_group_IT_number 140
_symmetry_cell_setting 'tetragonal'
loop_
_space_group_symop_operation_xyz
x,y,z
-y,x,z
-x,-y,z
y,-x,z
x,-y,1/2-z
-x,y,1/2-z
y,x,1/2-z
-y,-x,1/2-z
-x,-y,-z
y,-x,-z
x,y,-z
-y,x,-z
-x,y,1/2+z
x,-y,1/2+z
-y,-x,1/2+z
y,x,1/2+z
1/2+x,1/2+y,1/2+z
1/2-y,1/2+x,1/2+z
1/2-x,1/2-y,1/2+z
1/2+y,1/2-x,1/2+z
1/2+x,1/2-y,-z
1/2-x,1/2+y,-z
1/2+y,1/2+x,-z
1/2-y,1/2-x,-z
1/2-x,1/2-y,1/2-z
1/2+y,1/2-x,1/2-z
1/2+x,1/2+y,1/2-z
1/2-y,1/2+x,1/2-z
1/2-x,1/2+y,z
1/2+x,1/2-y,z
1/2-y,1/2-x,z
1/2+y,1/2+x,z
loop_
_atom_site_type_symbol
_atom_site_label
_atom_site_fract_x
_atom_site_fract_y
_atom_site_fract_z
Si Si1 0.063628 0.178019 0.580361
Si Si2 0.258634 0.653940 0.294351
Si Si3 0.400717 0.002633 0.333341
Si Si4 0.582337 0.326360 0.081857
Si Si5 0.799111 0.594946 0.663518
O O1 0.061020 0.200355 0.500000
O O2 0.101923 0.111347 0.590074
O O3 0.102794 0.233723 0.620370
O O4 0.991200 0.168529 0.608827
O O5 0.321068 0.678933 0.250000
O O6 0.215486 0.715486 0.315042
O O7 0.276937 0.619559 0.367421
O O8 0.217902 0.602882 0.246787
O O9 0.452029 0.952029 0.365304
O O10 0.329496 0.976425 0.354431
O O11 0.404737 0.000000 0.250000
O O12 0.424488 0.075513 0.358223
O O13 0.588055 0.303012 0.000000
O O14 0.848342 0.651659 0.640972
#
# Coordination Sequence:
#
# PCOD8320261 Si02
#       5
#    32  32  32  32  32
#     4  10  22  39  59  82 108 147 193 234 289 352
#     4  10  20  36  57  87 119 147 185 230 284 344
#     4   8  15  28  46  73 107 144 187 225 264 319
#     4  10  22  40  59  81 112 149 190 237 287 344
#     4  10  20  34  56  86 118 151 187 238 287 332
#
# _framework density 19.738213999999999
#
# number of rings (size 3 to 8) (size 9 to 14) (size 15 to 20)
#    0.000    2.400    2.000    0.600    2.800    1.200 
#    0.000    4.000    0.000    1.800    0.000    2.800 
#    0.000    0.000    0.000    7.800    0.000    0.000 
#
# Total GULP energy -991110.889588 kJ/mol
# GULP energy per Si atom -12388.886120 kJ/mol
# Density = 1.969329 g / cm^3
# Si number density = 19.738214 Si / 1000 Ang^3
#
#
#
# Elastic Constant Matrix: (Units=GPa)
#
#
# Indices 1 2 3 4 5 6 
#
# 1 96.7237 46.9211 38.3821 0.0000 0.0000 0.0000
# 2 46.9211 96.7242 38.3819 0.0000 0.0000 0.0000
# 3 38.3821 38.3819 64.6129 0.0000 0.0000 0.0000
# 4 0.0000 0.0000 0.0000 25.5569 0.0000 0.0000
# 5 0.0000 0.0000 0.0000 0.0000 25.5567 0.0000
# 6 0.0000 0.0000 0.0000 0.0000 0.0000 31.8222
#
#
#
# Elastic Compliance Matrix: (Units=1/GPa)
#
#
# Indices 1 2 3 4 5 6 
#
# 1 0.015139 -0.004940 -0.006059 0.000000 0.000000 0.000000
# 2 -0.004940 0.015139 -0.006059 0.000000 0.000000 0.000000
# 3 -0.006059 -0.006059 0.022675 0.000000 0.000000 0.000000
# 4 0.000000 0.000000 0.000000 0.039128 0.000000 0.000000
# 5 0.000000 0.000000 0.000000 0.000000 0.039129 0.000000
# 6 0.000000 0.000000 0.000000 0.000000 0.000000 0.031425
#
#
# Mechanical properties :
#
#
# Convention : Reuss Voigt Hill
#
# Bulk Modulus (GPa) = 53.08207 56.15898 54.62052
# Shear Modulus (GPa) = 24.62695 25.54553 25.08624
#
# Velocity S-wave (km/s) = 3.53608 3.60143 3.56890
# Velocity P-wave (km/s) = 6.60479 6.76811 6.68695
#
# Compressibility (1/GPa) = 0.01883875
#
# Stress axis : x y z
#
# Youngs Moduli (GPa) = 66.05303 66.05366 44.10150
#
# Poissons Ratio (x) = 0.32630 0.26720
# Poissons Ratio (y) = 0.32629 0.26720
# Poissons Ratio (z) = 0.40020 0.40020
#
# Static dielectric constant tensor:
#      x y z
#    x 3.828060 0.000000 0.000000 
#    y 0.000000 3.828060 0.000000 
#    z 0.000000 0.000000 3.275500 
# 
# 
# High freq. dielectric constant tensor:
#      x y z
#    x 1.770790 0.000000 0.000000 
#    y 0.000000 1.770790 0.000000 
#    z 0.000000 0.000000 1.733050 
# 
# From -- ./inp_files/6820.got.cif
#   From: 2010.06.25/outbox.cif.g09.slc.cpg/sg140_4_cif.got.tgz:6820.got - 2010.06.28 10:53:23.
