data_PCOD8320183
_publ_section_title
;
Structure prediction by ZEFSAII (Michael W. Deem and Ramdas Pophale) SiO2 
 PCOD8320183
Probable space group: I 4/M C M
;
_chemical_formula_sum "Si O2"
_cell_formula_units_Z 176
_cell_length_a 24.094849
_cell_length_b 24.094849
_cell_length_c 15.876893
_cell_angle_alpha 90.000000
_cell_angle_beta 90.000000
_cell_angle_gamma 90.000000
_cell_volume 9217.516758
_symmetry_space_group_name_H-M "I 4/M C M"
_symmetry_group_IT_number 140
_symmetry_cell_setting 'tetragonal'
loop_
_space_group_symop_operation_xyz
x,y,z
-y,x,z
-x,-y,z
y,-x,z
x,-y,1/2-z
-x,y,1/2-z
y,x,1/2-z
-y,-x,1/2-z
-x,-y,-z
y,-x,-z
x,y,-z
-y,x,-z
-x,y,1/2+z
x,-y,1/2+z
-y,-x,1/2+z
y,x,1/2+z
1/2+x,1/2+y,1/2+z
1/2-y,1/2+x,1/2+z
1/2-x,1/2-y,1/2+z
1/2+y,1/2-x,1/2+z
1/2+x,1/2-y,-z
1/2-x,1/2+y,-z
1/2+y,1/2+x,-z
1/2-y,1/2-x,-z
1/2-x,1/2-y,1/2-z
1/2+y,1/2-x,1/2-z
1/2+x,1/2+y,1/2-z
1/2-y,1/2+x,1/2-z
1/2-x,1/2+y,z
1/2+x,1/2-y,z
1/2-y,1/2-x,z
1/2+y,1/2+x,z
loop_
_atom_site_type_symbol
_atom_site_label
_atom_site_fract_x
_atom_site_fract_y
_atom_site_fract_z
Si Si1 0.024134 0.722017 0.096319
Si Si2 0.209952 0.376495 0.715812
Si Si3 0.544702 0.866343 0.319162
Si Si4 0.823511 0.823511 0.250000
Si Si5 0.887287 0.121015 0.898755
Si Si6 0.339710 0.506501 0.401302
O O1 0.082767 0.728566 0.142175
O O2 0.988169 0.775189 0.127784
O O3 0.991301 0.664116 0.108641
O O4 0.039792 0.728176 0.000000
O O5 0.165013 0.334988 0.675992
O O6 0.180643 0.413437 0.787377
O O7 0.258621 0.339101 0.756262
O O8 0.500000 0.886528 0.250000
O O9 0.579673 0.920328 0.351202
O O10 0.841783 0.848820 0.160428
O O11 0.949908 0.132617 0.869321
O O12 0.874549 0.058469 0.868668
O O13 0.876894 0.131277 0.000000
O O14 0.342685 0.506521 0.500000
#
# Coordination Sequence:
#
# PCOD8320183 Si02
#       6
#    32  32  32  16  32  32
#     4  10  19  35  58  82 112 148 188 234 288 347
#     4  10  21  36  54  81 112 145 187 233 287 348
#     4   9  19  35  55  80 111 147 187 234 288 348
#     4  12  21  34  60  81 108 152 192 240 285 342
#     4  10  21  35  53  80 111 146 192 237 282 338
#     4   9  18  34  53  76 109 148 187 234 288 338
#
# _framework density 19.094080999999999
#
# number of rings (size 3 to 8) (size 9 to 14) (size 15 to 20)
#    0.000    2.182    1.818    1.364    0.000    2.000 
#    0.000    1.818    0.000    3.818    0.000    5.091 
#    0.000    0.000    0.000    0.000    0.000    0.000 
#
# Total GULP energy -1090227.257419 kJ/mol
# GULP energy per Si atom -12388.946107 kJ/mol
# Density = 1.905062 g / cm^3
# Si number density = 19.094081 Si / 1000 Ang^3
#
#
#
# Elastic Constant Matrix: (Units=GPa)
#
#
# Indices 1 2 3 4 5 6 
#
# 1 85.3703 38.8128 10.6195 0.0000 0.0000 0.0000
# 2 38.8128 85.3703 10.6195 0.0000 0.0000 0.0000
# 3 10.6195 10.6195 46.8129 0.0000 0.0000 0.0000
# 4 0.0000 0.0000 0.0000 18.1751 0.0000 0.0000
# 5 0.0000 0.0000 0.0000 0.0000 18.1751 0.0000
# 6 0.0000 0.0000 0.0000 0.0000 0.0000 75.0229
#
#
#
# Elastic Compliance Matrix: (Units=1/GPa)
#
#
# Indices 1 2 3 4 5 6 
#
# 1 0.014928 -0.006551 -0.001900 0.000000 0.000000 0.000000
# 2 -0.006551 0.014928 -0.001900 0.000000 0.000000 0.000000
# 3 -0.001900 -0.001900 0.022224 0.000000 0.000000 0.000000
# 4 0.000000 0.000000 0.000000 0.055020 0.000000 0.000000
# 5 0.000000 0.000000 0.000000 0.000000 0.055020 0.000000
# 6 0.000000 0.000000 0.000000 0.000000 0.000000 0.013329
#
#
# Mechanical properties :
#
#
# Convention : Reuss Voigt Hill
#
# Bulk Modulus (GPa) = 31.87015 37.51746 34.69380
# Shear Modulus (GPa) = 24.19991 32.77474 28.48732
#
# Velocity S-wave (km/s) = 3.56392 4.14755 3.86676
# Velocity P-wave (km/s) = 5.80196 6.52898 6.17618
#
# Compressibility (1/GPa) = 0.03137732
#
# Stress axis : x y z
#
# Youngs Moduli (GPa) = 66.98710 66.98710 44.99663
#
# Poissons Ratio (x) = 0.43880 0.08551
# Poissons Ratio (y) = 0.43880 0.08551
# Poissons Ratio (z) = 0.12731 0.12731
#
# Static dielectric constant tensor:
#      x y z
#    x 4.159350 0.000000 0.000000 
#    y 0.000000 4.159350 0.000000 
#    z 0.000000 0.000000 3.176850 
# 
# 
# High freq. dielectric constant tensor:
#      x y z
#    x 1.748710 0.000000 0.000000 
#    y 0.000000 1.748710 0.000000 
#    z 0.000000 0.000000 1.717920 
# 
# From -- ./inp_files/4959.got.cif
#   From: 2010.06.25/outbox.cif.g09.slc.cpg/sg140_3_cif.got.tgz:4959.got - 2010.06.28 10:53:23.
