data_PCOD8320180
_publ_section_title
;
Structure prediction by ZEFSAII (Michael W. Deem and Ramdas Pophale) SiO2 
 PCOD8320180
Probable space group: I 4/M C M
;
_chemical_formula_sum "Si O2"
_cell_formula_units_Z 96
_cell_length_a 24.261522
_cell_length_b 24.261522
_cell_length_c 8.539970
_cell_angle_alpha 90.000000
_cell_angle_beta 90.000000
_cell_angle_gamma 90.000000
_cell_volume 5026.809522
_symmetry_space_group_name_H-M "I 4/M C M"
_symmetry_group_IT_number 140
_symmetry_cell_setting 'tetragonal'
loop_
_space_group_symop_operation_xyz
x,y,z
-y,x,z
-x,-y,z
y,-x,z
x,-y,1/2-z
-x,y,1/2-z
y,x,1/2-z
-y,-x,1/2-z
-x,-y,-z
y,-x,-z
x,y,-z
-y,x,-z
-x,y,1/2+z
x,-y,1/2+z
-y,-x,1/2+z
y,x,1/2+z
1/2+x,1/2+y,1/2+z
1/2-y,1/2+x,1/2+z
1/2-x,1/2-y,1/2+z
1/2+y,1/2-x,1/2+z
1/2+x,1/2-y,-z
1/2-x,1/2+y,-z
1/2+y,1/2+x,-z
1/2-y,1/2-x,-z
1/2-x,1/2-y,1/2-z
1/2+y,1/2-x,1/2-z
1/2+x,1/2+y,1/2-z
1/2-y,1/2+x,1/2-z
1/2-x,1/2+y,z
1/2+x,1/2-y,z
1/2-y,1/2-x,z
1/2+y,1/2+x,z
loop_
_atom_site_type_symbol
_atom_site_label
_atom_site_fract_x
_atom_site_fract_y
_atom_site_fract_z
Si Si1 0.851282 0.648719 0.814958
Si Si2 0.439996 0.641568 0.684705
Si Si3 0.854869 0.226892 0.313831
Si Si4 0.439982 0.060019 0.686790
O O1 0.864747 0.710511 0.757919
O O2 0.895446 0.604555 0.748583
O O3 0.853749 0.646252 0.000000
O O4 0.500000 0.650612 0.750000
O O5 0.415396 0.584605 0.750000
O O6 0.440633 0.638891 0.500000
O O7 0.404493 0.692929 0.741115
O O8 0.796637 0.203363 0.250000
O O9 0.854864 0.221359 0.500000
O O10 0.500000 0.077345 0.750000
O O11 0.441761 0.058240 0.500000
#
# Coordination Sequence:
#
# PCOD8320180 Si02
#       4
#    16  32  32  16
#     4   9  20  35  56  82 111 142 181 224 267 319
#     4  11  22  38  57  81 110 145 184 228 274 324
#     4  10  19  35  55  80 112 147 180 222 271 320
#     4  10  20  38  57  78 105 138 174 219 270 320
#
# _framework density 19.0976
#
# number of rings (size 3 to 8) (size 9 to 14) (size 15 to 20)
#    0.000    1.833    0.000    7.500    0.000    1.667 
#    0.000   14.167    0.000    0.000    0.000    0.000 
#    0.000    0.000    0.000    0.000    0.000    0.000 
#
# Total GULP energy -595194.925699 kJ/mol
# GULP energy per Si atom -12399.894285 kJ/mol
# Density = 1.905413 g / cm^3
# Si number density = 19.097600 Si / 1000 Ang^3
#
#
#
# Elastic Constant Matrix: (Units=GPa)
#
#
# Indices 1 2 3 4 5 6 
#
# 1 172.0444 56.5975 47.3425 0.0000 0.0000 0.0000
# 2 56.5975 172.0629 47.3515 0.0000 0.0000 0.0000
# 3 47.3425 47.3515 130.2920 0.0000 0.0000 0.0000
# 4 0.0000 0.0000 0.0000 29.7374 0.0000 0.0000
# 5 0.0000 0.0000 0.0000 0.0000 29.7374 0.0000
# 6 0.0000 0.0000 0.0000 0.0000 0.0000 29.1615
#
#
#
# Elastic Compliance Matrix: (Units=1/GPa)
#
#
# Indices 1 2 3 4 5 6 
#
# 1 0.006905 -0.001757 -0.001871 0.000000 0.000000 0.000000
# 2 -0.001757 0.006905 -0.001871 0.000000 0.000000 0.000000
# 3 -0.001871 -0.001871 0.009035 0.000000 0.000000 0.000000
# 4 0.000000 0.000000 0.000000 0.033628 0.000000 0.000000
# 5 0.000000 0.000000 0.000000 0.000000 0.033628 0.000000
# 6 0.000000 0.000000 0.000000 0.000000 0.000000 0.034292
#
#
# Mechanical properties :
#
#
# Convention : Reuss Voigt Hill
#
# Bulk Modulus (GPa) = 84.40281 86.33138 85.36710
# Shear Modulus (GPa) = 35.88419 39.26779 37.57599
#
# Velocity S-wave (km/s) = 4.33943 4.53941 4.44055
# Velocity P-wave (km/s) = 8.33061 8.53103 8.43142
#
# Compressibility (1/GPa) = 0.01184795
#
# Stress axis : x y z
#
# Youngs Moduli (GPa) = 144.82163 144.83275 110.68364
#
# Poissons Ratio (x) = 0.25440 0.20705
# Poissons Ratio (y) = 0.25438 0.20709
# Poissons Ratio (z) = 0.27091 0.27099
#
# Static dielectric constant tensor:
#      x y z
#    x 3.732560 0.000000 0.000000 
#    y 0.000000 3.732560 0.000000 
#    z 0.000000 0.000000 3.530670 
# 
# 
# High freq. dielectric constant tensor:
#      x y z
#    x 1.748870 0.000000 0.000000 
#    y 0.000000 1.748860 0.000000 
#    z 0.000000 0.000000 1.747640 
# 
# From -- ./inp_files/963.got.cif
#   From: 2010.06.25/outbox.cif.g09.slc.cpg/sg140_1_cif.got.tgz:963.got - 2010.06.28 10:53:23.
