data_PCOD8320277
_publ_section_title
;
Structure prediction by ZEFSAII (Michael W. Deem and Ramdas Pophale) SiO2 
 PCOD8320277
Probable space group: I 4/M C M
;
_chemical_formula_sum "Si O2"
_cell_formula_units_Z 176
_cell_length_a 16.264922
_cell_length_b 16.264922
_cell_length_c 34.650408
_cell_angle_alpha 90.000000
_cell_angle_beta 90.000000
_cell_angle_gamma 90.000000
_cell_volume 9166.685313
_symmetry_space_group_name_H-M "I 4/M C M"
_symmetry_group_IT_number 140
_symmetry_cell_setting 'tetragonal'
loop_
_space_group_symop_operation_xyz
x,y,z
-y,x,z
-x,-y,z
y,-x,z
x,-y,1/2-z
-x,y,1/2-z
y,x,1/2-z
-y,-x,1/2-z
-x,-y,-z
y,-x,-z
x,y,-z
-y,x,-z
-x,y,1/2+z
x,-y,1/2+z
-y,-x,1/2+z
y,x,1/2+z
1/2+x,1/2+y,1/2+z
1/2-y,1/2+x,1/2+z
1/2-x,1/2-y,1/2+z
1/2+y,1/2-x,1/2+z
1/2+x,1/2-y,-z
1/2-x,1/2+y,-z
1/2+y,1/2+x,-z
1/2-y,1/2-x,-z
1/2-x,1/2-y,1/2-z
1/2+y,1/2-x,1/2-z
1/2+x,1/2+y,1/2-z
1/2-y,1/2+x,1/2-z
1/2-x,1/2+y,z
1/2+x,1/2-y,z
1/2-y,1/2-x,z
1/2+y,1/2+x,z
loop_
_atom_site_type_symbol
_atom_site_label
_atom_site_fract_x
_atom_site_fract_y
_atom_site_fract_z
Si Si1 0.568188 0.392238 0.454722
Si Si2 0.180328 0.545347 0.289499
Si Si3 0.822591 0.187692 0.292624
Si Si4 0.496876 0.865259 0.000000
Si Si5 0.412342 0.220309 0.846094
Si Si6 0.780765 0.417999 0.932028
O O1 0.612456 0.474012 0.438284
O O2 0.566011 0.400339 0.500000
O O3 0.615713 0.309331 0.443311
O O4 0.204625 0.500000 0.250000
O O5 0.097250 0.597250 0.283264
O O6 0.254002 0.602654 0.305582
O O7 0.166525 0.476436 0.321634
O O8 0.846153 0.153848 0.250000
O O9 0.737517 0.237517 0.288773
O O10 0.805354 0.113407 0.323415
O O11 0.509557 0.809980 0.038640
O O12 0.405267 0.905267 0.000000
O O13 0.562367 0.937633 0.000000
O O14 0.329248 0.170753 0.852435
O O15 0.452162 0.230796 0.888465
O O16 0.842272 0.342272 0.935525
#
# Coordination Sequence:
#
# PCOD8320277 Si02
#       6
#    32  32  32  16  32  32
#     4   9  18  34  57  81 107 141 182 229 282 333
#     4  11  21  33  54  80 105 139 182 227 274 330
#     4   9  17  33  53  71  99 140 180 214 265 332
#     4   9  18  34  54  75 106 154 193 216 272 348
#     4  10  21  35  52  81 112 141 180 228 278 326
#     4  10  20  35  57  81 111 147 188 234 274 329
#
# _framework density 19.199961999999999
#
# number of rings (size 3 to 8) (size 9 to 14) (size 15 to 20)
#    0.000    2.273    2.727    1.091    0.000    3.455 
#    0.000    2.727    0.000    0.545    0.000    0.000 
#    0.000    0.000    0.000    0.000    0.000    0.000 
#
# Total GULP energy -1090283.740917 kJ/mol
# GULP energy per Si atom -12389.587965 kJ/mol
# Density = 1.915626 g / cm^3
# Si number density = 19.199962 Si / 1000 Ang^3
#
#
#
# Elastic Constant Matrix: (Units=GPa)
#
#
# Indices 1 2 3 4 5 6 
#
# 1 52.9862 30.0510 34.6756 0.0000 0.0000 0.0000
# 2 30.0510 52.9870 34.6753 0.0000 0.0000 0.0000
# 3 34.6756 34.6753 141.8180 0.0000 0.0000 0.0000
# 4 0.0000 0.0000 0.0000 17.5120 0.0000 0.0000
# 5 0.0000 0.0000 0.0000 0.0000 17.5120 0.0000
# 6 0.0000 0.0000 0.0000 0.0000 0.0000 18.4519
#
#
#
# Elastic Compliance Matrix: (Units=1/GPa)
#
#
# Indices 1 2 3 4 5 6 
#
# 1 0.029367 -0.014234 -0.003700 0.000000 0.000000 0.000000
# 2 -0.014234 0.029366 -0.003700 0.000000 0.000000 0.000000
# 3 -0.003700 -0.003700 0.008861 0.000000 0.000000 0.000000
# 4 0.000000 0.000000 0.000000 0.057104 0.000000 0.000000
# 5 0.000000 0.000000 0.000000 0.000000 0.057104 0.000000
# 6 0.000000 0.000000 0.000000 0.000000 0.000000 0.054195
#
#
# Mechanical properties :
#
#
# Convention : Reuss Voigt Hill
#
# Bulk Modulus (GPa) = 41.10796 49.62168 45.36482
# Shear Modulus (GPa) = 17.39900 20.58780 18.99340
#
# Velocity S-wave (km/s) = 3.01358 3.27813 3.14863
# Velocity P-wave (km/s) = 5.79360 6.34263 6.07432
#
# Compressibility (1/GPa) = 0.02432619
#
# Stress axis : x y z
#
# Youngs Moduli (GPa) = 34.05191 34.05265 112.85791
#
# Poissons Ratio (x) = 0.48469 0.41760
# Poissons Ratio (y) = 0.48468 0.41757
# Poissons Ratio (z) = 0.12600 0.12599
#
# Static dielectric constant tensor:
#      x y z
#    x 3.478480 0.000000 0.000000 
#    y 0.000000 3.478480 0.000000 
#    z 0.000000 0.000000 3.741250 
# 
# 
# High freq. dielectric constant tensor:
#      x y z
#    x 1.726500 0.000000 0.000000 
#    y 0.000000 1.726500 0.000000 
#    z 0.000000 0.000000 1.745910 
# 
# From -- ./inp_files/11541.got.cif
#   From: 2010.06.25/outbox.cif.g09.slc.cpg/sg140_6_cif.got.tgz:11541.got - 2010.06.28 10:53:23.
