data_PCOD8320217
_publ_section_title
;
Structure prediction by ZEFSAII (Michael W. Deem and Ramdas Pophale) SiO2 
 PCOD8320217
Probable space group: I 4/M C M
;
_chemical_formula_sum "Si O2"
_cell_formula_units_Z 160
_cell_length_a 31.959662
_cell_length_b 31.959662
_cell_length_c 9.607180
_cell_angle_alpha 90.000000
_cell_angle_beta 90.000000
_cell_angle_gamma 90.000000
_cell_volume 9812.965749
_symmetry_space_group_name_H-M "I 4/M C M"
_symmetry_group_IT_number 140
_symmetry_cell_setting 'tetragonal'
loop_
_space_group_symop_operation_xyz
x,y,z
-y,x,z
-x,-y,z
y,-x,z
x,-y,1/2-z
-x,y,1/2-z
y,x,1/2-z
-y,-x,1/2-z
-x,-y,-z
y,-x,-z
x,y,-z
-y,x,-z
-x,y,1/2+z
x,-y,1/2+z
-y,-x,1/2+z
y,x,1/2+z
1/2+x,1/2+y,1/2+z
1/2-y,1/2+x,1/2+z
1/2-x,1/2-y,1/2+z
1/2+y,1/2-x,1/2+z
1/2+x,1/2-y,-z
1/2-x,1/2+y,-z
1/2+y,1/2+x,-z
1/2-y,1/2-x,-z
1/2-x,1/2-y,1/2-z
1/2+y,1/2-x,1/2-z
1/2+x,1/2+y,1/2-z
1/2-y,1/2+x,1/2-z
1/2-x,1/2+y,z
1/2+x,1/2-y,z
1/2-y,1/2-x,z
1/2+y,1/2+x,z
loop_
_atom_site_type_symbol
_atom_site_label
_atom_site_fract_x
_atom_site_fract_y
_atom_site_fract_z
Si Si1 0.725093 0.159864 0.665632
Si Si2 0.961374 0.216795 0.838444
Si Si3 0.572441 0.805214 0.164684
Si Si4 0.130213 0.814192 0.837382
Si Si5 0.892327 0.538525 0.339186
O O1 0.724408 0.158468 0.500000
O O2 0.702247 0.202247 0.720903
O O3 0.699759 0.119620 0.723604
O O4 0.773274 0.156312 0.714108
O O5 0.954772 0.264951 0.792763
O O6 0.919053 0.191164 0.806806
O O7 0.000000 0.198110 0.750000
O O8 0.973054 0.213391 0.000000
O O9 0.551383 0.847136 0.223990
O O10 0.575478 0.808836 0.000000
O O11 0.146253 0.853748 0.750000
O O12 0.137831 0.822401 0.000000
O O13 0.909911 0.500000 0.250000
O O14 0.889481 0.524973 0.500000
O O15 0.922563 0.577438 0.319150
#
# Coordination Sequence:
#
# PCOD8320217 Si02
#       5
#    32  32  32  32  32
#     4   8  13  23  41  63  86 114 148 183 215 249
#     4   9  17  29  46  68  91 114 143 179 217 256
#     4   8  14  26  44  65  86 106 134 175 219 261
#     4   9  18  30  43  63  91 121 152 183 214 251
#     4  10  20  32  46  62  78 100 132 170 215 267
#
# _framework density 16.304959
#
# number of rings (size 3 to 8) (size 9 to 14) (size 15 to 20)
#    0.000    3.200    0.000    3.600    0.000    4.200 
#    0.000    1.000    0.000    1.200    0.000    0.000 
#    0.000    0.400    0.000    4.400    0.000    3.200 
#
# Total GULP energy -991511.815990 kJ/mol
# GULP energy per Si atom -12393.897700 kJ/mol
# Density = 1.626785 g / cm^3
# Si number density = 16.304959 Si / 1000 Ang^3
#
#
#
# Elastic Constant Matrix: (Units=GPa)
#
#
# Indices 1 2 3 4 5 6 
#
# 1 83.6447 50.6772 42.6116 0.0000 0.0000 0.0000
# 2 50.6772 83.6399 42.6109 0.0000 0.0000 0.0000
# 3 42.6116 42.6109 43.9339 0.0000 0.0000 0.0000
# 4 0.0000 0.0000 0.0000 22.1540 0.0000 0.0000
# 5 0.0000 0.0000 0.0000 0.0000 22.1545 0.0000
# 6 0.0000 0.0000 0.0000 0.0000 0.0000 13.8949
#
#
#
# Elastic Compliance Matrix: (Units=1/GPa)
#
#
# Indices 1 2 3 4 5 6 
#
# 1 0.024845 -0.005489 -0.018773 0.000000 0.000000 0.000000
# 2 -0.005489 0.024847 -0.018774 0.000000 0.000000 0.000000
# 3 -0.018773 -0.018774 0.059178 0.000000 0.000000 0.000000
# 4 0.000000 0.000000 0.000000 0.045139 0.000000 0.000000
# 5 0.000000 0.000000 0.000000 0.000000 0.045138 0.000000
# 6 0.000000 0.000000 0.000000 0.000000 0.000000 0.071969
#
#
# Mechanical properties :
#
#
# Convention : Reuss Voigt Hill
#
# Bulk Modulus (GPa) = 43.86624 53.66863 48.76743
# Shear Modulus (GPa) = 13.70664 16.66194 15.18429
#
# Velocity S-wave (km/s) = 2.90253 3.20018 3.05498
# Velocity P-wave (km/s) = 6.18020 6.82948 6.51294
#
# Compressibility (1/GPa) = 0.02279658
#
# Stress axis : x y z
#
# Youngs Moduli (GPa) = 40.25003 40.24669 16.89806
#
# Poissons Ratio (x) = 0.22093 0.31722
# Poissons Ratio (y) = 0.22095 0.31725
# Poissons Ratio (z) = 0.75561 0.75561
#
# Static dielectric constant tensor:
#      x y z
#    x 3.032130 0.000000 0.000000 
#    y 0.000000 3.032140 0.000000 
#    z 0.000000 0.000000 2.666980 
# 
# 
# High freq. dielectric constant tensor:
#      x y z
#    x 1.616330 0.000000 0.000000 
#    y 0.000000 1.616330 0.000000 
#    z 0.000000 0.000000 1.587870 
# 
# From -- ./inp_files/3147.got.cif
#   From: 2010.06.25/outbox.cif.g09.slc.cpg/sg140_2_cif.got.tgz:3147.got - 2010.06.28 10:53:23.
