data_PCOD8320961
_publ_section_title
;
Structure prediction by ZEFSAII (Michael W. Deem and Ramdas Pophale) SiO2 
 PCOD8320961
Probable space group: I 41/A C D
;
_chemical_formula_sum "Si O2"
_cell_formula_units_Z 96
_cell_length_a 31.408887
_cell_length_b 31.408887
_cell_length_c 4.987792
_cell_angle_alpha 90.000000
_cell_angle_beta 90.000000
_cell_angle_gamma 90.000000
_cell_volume 4920.547499
_symmetry_space_group_name_H-M "I 41/A C D"
_symmetry_group_IT_number 142
_space_group.IT_coordinate_system_code '2'
_symmetry_cell_setting 'tetragonal'
loop_
_space_group_symop_operation_xyz
x,y,z
1/4-y,3/4+x,1/4+z
-x,1/2-y,z
1/4+y,1/4-x,3/4+z
x,-y,1/2-z
1/2-x,y,-z
3/4+y,1/4+x,1/4-z
1/4-y,1/4-x,1/4-z
-x,-y,-z
3/4+y,1/4-x,3/4-z
x,1/2+y,-z
3/4-y,3/4+x,1/4-z
-x,y,1/2+z
1/2+x,-y,z
1/4-y,3/4-x,3/4+z
3/4+y,3/4+x,3/4+z
1/2+x,1/2+y,1/2+z
3/4-y,1/4+x,3/4+z
1/2-x,-y,1/2+z
3/4+y,3/4-x,1/4+z
1/2+x,1/2-y,-z
-x,1/2+y,1/2-z
1/4+y,3/4+x,3/4-z
3/4-y,3/4-x,3/4-z
1/2-x,1/2-y,1/2-z
1/4+y,3/4-x,1/4-z
1/2+x,y,1/2-z
1/4-y,1/4+x,3/4-z
1/2-x,1/2+y,z
x,1/2-y,1/2+z
3/4-y,1/4-x,1/4+z
1/4+y,1/4+x,1/4+z
loop_
_atom_site_type_symbol
_atom_site_label
_atom_site_fract_x
_atom_site_fract_y
_atom_site_fract_z
Si Si1 0.542558 0.000000 0.250000
Si Si2 0.118838 0.909257 0.619770
Si Si3 0.660269 0.226774 0.322202
Si Si4 0.250000 0.848130 0.000000
O O1 0.515504 0.961423 0.116762
O O2 0.571420 0.982773 0.494979
O O3 0.149562 0.899562 0.375000
O O4 0.070552 0.899838 0.524049
O O5 0.126508 0.959181 0.674504
O O6 0.130116 0.880116 0.875000
O O7 0.640729 0.239326 0.610104
#
# Coordination Sequence:
#
# PCOD8320961 Si02
#       4
#    16  32  32  16
#     4  10  18  31  50  78 111 140 166 206 265 342
#     4  11  22  37  55  78 110 145 182 223 268 318
#     4  11  20  32  51  79 111 140 172 209 263 330
#     4  10  20  35  54  78 105 144 186 222 269 318
#
# _framework density 19.510021999999999
#
# number of rings (size 3 to 8) (size 9 to 14) (size 15 to 20)
#    0.000    1.333    0.000   11.000    0.000    1.333 
#    0.000    0.000    0.000    2.000    0.000    2.333 
#    0.000   46.667    0.000    0.000    0.000    0.000 
#
# Total GULP energy -594809.905846 kJ/mol
# GULP energy per Si atom -12391.873038 kJ/mol
# Density = 1.946562 g / cm^3
# Si number density = 19.510022 Si / 1000 Ang^3
#
#
#
# Elastic Constant Matrix: (Units=GPa)
#
#
# Indices 1 2 3 4 5 6 
#
# 1 64.1821 58.5829 53.6151 0.0000 0.0000 0.0000
# 2 58.5829 64.1821 53.6151 0.0000 0.0000 0.0000
# 3 53.6151 53.6151 179.5578 0.0000 0.0000 0.0000
# 4 0.0000 0.0000 0.0000 39.4938 0.0000 0.0000
# 5 0.0000 0.0000 0.0000 0.0000 39.4938 0.0000
# 6 0.0000 0.0000 0.0000 0.0000 0.0000 12.9404
#
#
#
# Elastic Compliance Matrix: (Units=1/GPa)
#
#
# Indices 1 2 3 4 5 6 
#
# 1 0.094807 -0.083788 -0.003290 0.000000 0.000000 0.000000
# 2 -0.083788 0.094807 -0.003290 0.000000 0.000000 0.000000
# 3 -0.003290 -0.003290 0.007534 0.000000 0.000000 0.000000
# 4 0.000000 0.000000 0.000000 0.025320 0.000000 0.000000
# 5 0.000000 0.000000 0.000000 0.000000 0.025320 0.000000
# 6 0.000000 0.000000 0.000000 0.000000 0.000000 0.077278
#
#
# Mechanical properties :
#
#
# Convention : Reuss Voigt Hill
#
# Bulk Modulus (GPa) = 60.93128 71.06091 65.99609
# Shear Modulus (GPa) = 9.77947 27.85953 18.81950
#
# Velocity S-wave (km/s) = 2.24130 3.78294 3.10918
# Velocity P-wave (km/s) = 6.16413 7.45538 6.84029
#
# Compressibility (1/GPa) = 0.01641193
#
# Stress axis : x y z
#
# Youngs Moduli (GPa) = 10.54770 10.54770 132.72719
#
# Poissons Ratio (x) = 0.88377 0.43673
# Poissons Ratio (y) = 0.88377 0.43673
# Poissons Ratio (z) = 0.03471 0.03471
#
# Static dielectric constant tensor:
#      x y z
#    x 3.289770 0.000000 0.000000 
#    y 0.000000 3.289770 0.000000 
#    z 0.000000 0.000000 4.354510 
# 
# 
# High freq. dielectric constant tensor:
#      x y z
#    x 1.719030 0.000000 0.000000 
#    y 0.000000 1.719030 0.000000 
#    z 0.000000 0.000000 1.810510 
# 
# From -- ./inp_files/691.got.cif
#   From: 2010.03.12/outbox.cif.g09.slc.cpg/sg142_1_cif.got.tgz:691.got - 2010.04.03 13:27:16.
