data_PCOD8320340
_publ_section_title
;
Structure prediction by ZEFSAII (Michael W. Deem and Ramdas Pophale) SiO2 
 PCOD8320340
Probable space group: I 4/M C M
;
_chemical_formula_sum "Si O2"
_cell_formula_units_Z 192
_cell_length_a 20.267521
_cell_length_b 20.267521
_cell_length_c 25.929621
_cell_angle_alpha 90.000000
_cell_angle_beta 90.000000
_cell_angle_gamma 90.000000
_cell_volume 10651.172843
_symmetry_space_group_name_H-M "I 4/M C M"
_symmetry_group_IT_number 140
_symmetry_cell_setting 'tetragonal'
loop_
_space_group_symop_operation_xyz
x,y,z
-y,x,z
-x,-y,z
y,-x,z
x,-y,1/2-z
-x,y,1/2-z
y,x,1/2-z
-y,-x,1/2-z
-x,-y,-z
y,-x,-z
x,y,-z
-y,x,-z
-x,y,1/2+z
x,-y,1/2+z
-y,-x,1/2+z
y,x,1/2+z
1/2+x,1/2+y,1/2+z
1/2-y,1/2+x,1/2+z
1/2-x,1/2-y,1/2+z
1/2+y,1/2-x,1/2+z
1/2+x,1/2-y,-z
1/2-x,1/2+y,-z
1/2+y,1/2+x,-z
1/2-y,1/2-x,-z
1/2-x,1/2-y,1/2-z
1/2+y,1/2-x,1/2-z
1/2+x,1/2+y,1/2-z
1/2-y,1/2+x,1/2-z
1/2-x,1/2+y,z
1/2+x,1/2-y,z
1/2-y,1/2-x,z
1/2+y,1/2+x,z
loop_
_atom_site_type_symbol
_atom_site_label
_atom_site_fract_x
_atom_site_fract_y
_atom_site_fract_z
Si Si1 0.653047 0.738177 0.500000
Si Si2 0.090200 0.698214 0.595453
Si Si3 0.250662 0.861224 0.309166
Si Si4 0.544797 0.251371 0.596927
Si Si5 0.892772 0.989716 0.939806
Si Si6 0.756298 0.851413 0.695717
Si Si7 0.745187 0.864753 0.000000
O O1 0.715725 0.784276 0.500000
O O2 0.611448 0.750654 0.448718
O O3 0.679691 0.663350 0.500000
O O4 0.127343 0.627343 0.588974
O O5 0.102770 0.729685 0.650922
O O6 0.011365 0.694342 0.591858
O O7 0.312449 0.812449 0.318016
O O8 0.257942 0.921976 0.347745
O O9 0.179575 0.826816 0.319881
O O10 0.246091 0.889692 0.250495
O O11 0.515425 0.325466 0.592866
O O12 0.594658 0.235029 0.551568
O O13 0.941528 0.929039 0.926294
O O14 0.873676 0.988263 0.000000
O O15 0.712314 0.787687 0.704563
O O16 0.693016 0.806985 0.000000
#
# Coordination Sequence:
#
# PCOD8320340 Si02
#       7
#    16  32  32  32  32  32  16
#     4   9  19  34  54  76 103 133 166 221 275 314
#     4  10  21  35  52  77 108 138 173 219 269 316
#     4   9  18  33  53  79 104 134 178 223 273 320
#     4  12  22  30  55  80 104 146 177 221 260 318
#     4   9  20  36  50  71 109 150 185 216 248 307
#     4   8  16  34  56  74 103 137 168 223 282 315
#     4  11  23  36  51  78 110 134 170 220 272 313
#
# _framework density 18.026184000000001
#
# number of rings (size 3 to 8) (size 9 to 14) (size 15 to 20)
#    0.000    2.333    0.833    3.500    4.667    3.333 
#    0.000    0.000    0.000    2.500    0.000    0.000 
#    0.000    8.000    0.000    0.000    0.000    0.000 
#
# Total GULP energy -1189839.977527 kJ/mol
# GULP energy per Si atom -12394.166433 kJ/mol
# Density = 1.798516 g / cm^3
# Si number density = 18.026184 Si / 1000 Ang^3
#
#
#
# Elastic Constant Matrix: (Units=GPa)
#
#
# Indices 1 2 3 4 5 6 
#
# 1 84.8734 38.8785 42.9009 0.0000 0.0000 0.0000
# 2 38.8785 84.8751 42.9015 0.0000 0.0000 0.0000
# 3 42.9009 42.9015 115.0595 0.0000 0.0000 0.0000
# 4 0.0000 0.0000 0.0000 15.8305 0.0000 0.0000
# 5 0.0000 0.0000 0.0000 0.0000 15.8287 0.0000
# 6 0.0000 0.0000 0.0000 0.0000 0.0000 17.4922
#
#
#
# Elastic Compliance Matrix: (Units=1/GPa)
#
#
# Indices 1 2 3 4 5 6 
#
# 1 0.016320 -0.005422 -0.004063 0.000000 0.000000 0.000000
# 2 -0.005422 0.016319 -0.004063 0.000000 0.000000 0.000000
# 3 -0.004063 -0.004063 0.011721 0.000000 0.000000 0.000000
# 4 0.000000 0.000000 0.000000 0.063169 0.000000 0.000000
# 5 0.000000 0.000000 0.000000 0.000000 0.063177 0.000000
# 6 0.000000 0.000000 0.000000 0.000000 0.000000 0.057168
#
#
# Mechanical properties :
#
#
# Convention : Reuss Voigt Hill
#
# Bulk Modulus (GPa) = 57.92548 59.35219 58.63884
# Shear Modulus (GPa) = 19.17724 20.50542 19.84133
#
# Velocity S-wave (km/s) = 3.26522 3.37640 3.32127
# Velocity P-wave (km/s) = 6.81318 6.94241 6.87810
#
# Compressibility (1/GPa) = 0.01726356
#
# Stress axis : x y z
#
# Youngs Moduli (GPa) = 61.27575 61.27678 85.31457
#
# Poissons Ratio (x) = 0.33222 0.34667
# Poissons Ratio (y) = 0.33221 0.34667
# Poissons Ratio (z) = 0.24899 0.24899
#
# Static dielectric constant tensor:
#      x y z
#    x 3.227740 0.000000 0.000000 
#    y 0.000000 3.227740 0.000000 
#    z 0.000000 0.000000 3.391890 
# 
# 
# High freq. dielectric constant tensor:
#      x y z
#    x 1.680740 0.000000 0.000000 
#    y 0.000000 1.680740 0.000000 
#    z 0.000000 0.000000 1.704860 
# 
# From -- ./inp_files/9855.got.cif
#   From: 2010.06.25/outbox.cif.g09.slc.cpg/sg140_5_cif.got.tgz:9855.got - 2010.06.28 10:53:23.
