data_PCOD8320492
_publ_section_title
;
Structure prediction by ZEFSAII (Michael W. Deem and Ramdas Pophale) SiO2 
 PCOD8320492
Probable space group: I 4/M C M
;
_chemical_formula_sum "Si O2"
_cell_formula_units_Z 160
_cell_length_a 18.840114
_cell_length_b 18.840114
_cell_length_c 26.859299
_cell_angle_alpha 90.000000
_cell_angle_beta 90.000000
_cell_angle_gamma 90.000000
_cell_volume 9533.705374
_symmetry_space_group_name_H-M "I 4/M C M"
_symmetry_group_IT_number 140
_symmetry_cell_setting 'tetragonal'
loop_
_space_group_symop_operation_xyz
x,y,z
-y,x,z
-x,-y,z
y,-x,z
x,-y,1/2-z
-x,y,1/2-z
y,x,1/2-z
-y,-x,1/2-z
-x,-y,-z
y,-x,-z
x,y,-z
-y,x,-z
-x,y,1/2+z
x,-y,1/2+z
-y,-x,1/2+z
y,x,1/2+z
1/2+x,1/2+y,1/2+z
1/2-y,1/2+x,1/2+z
1/2-x,1/2-y,1/2+z
1/2+y,1/2-x,1/2+z
1/2+x,1/2-y,-z
1/2-x,1/2+y,-z
1/2+y,1/2+x,-z
1/2-y,1/2-x,-z
1/2-x,1/2-y,1/2-z
1/2+y,1/2-x,1/2-z
1/2+x,1/2+y,1/2-z
1/2-y,1/2+x,1/2-z
1/2-x,1/2+y,z
1/2+x,1/2-y,z
1/2-y,1/2-x,z
1/2+y,1/2+x,z
loop_
_atom_site_type_symbol
_atom_site_label
_atom_site_fract_x
_atom_site_fract_y
_atom_site_fract_z
Si Si1 0.416875 0.417940 0.193354
Si Si2 0.346221 0.956407 0.558858
Si Si3 0.107034 0.392967 0.940896
Si Si4 0.777671 0.722329 0.059807
Si Si5 0.348030 0.369406 0.900657
Si Si6 0.482182 0.690781 0.557445
O O1 0.499328 0.401527 0.182702
O O2 0.398074 0.398074 0.250000
O O3 0.367010 0.369180 0.158157
O O4 0.356605 0.958460 0.500000
O O5 0.392282 0.892282 0.582114
O O6 0.264601 0.944609 0.572741
O O7 0.372548 0.030898 0.581639
O O8 0.164573 0.335428 0.924363
O O9 0.104813 0.395188 0.000000
O O10 0.703093 0.696052 0.083639
O O11 0.768909 0.731091 0.000000
O O12 0.423301 0.367918 0.929967
O O13 0.313621 0.444668 0.913083
O O14 0.503460 0.688050 0.500000
#
# Coordination Sequence:
#
# PCOD8320492 Si02
#       6
#    32  32  16  16  32  32
#     4   9  18  36  60  83 103 128 173 233 285 325
#     4   9  17  29  45  66  92 131 183 224 250 287
#     4   9  15  28  47  65  91 132 176 220 257 288
#     4  11  22  35  49  72 115 155 176 211 270 328
#     4  12  22  36  53  76 104 142 183 215 269 325
#     4  11  22  33  47  71 107 145 180 215 252 315
#
# _framework density 16.782561000000001
#
# number of rings (size 3 to 8) (size 9 to 14) (size 15 to 20)
#    0.000    1.800    4.000    2.700    1.400    1.600 
#    0.000    1.500    0.000    0.000    0.000    0.000 
#    0.000    0.000    0.000    0.000    0.400    0.000 
#
# Total GULP energy -991647.561211 kJ/mol
# GULP energy per Si atom -12395.594515 kJ/mol
# Density = 1.674436 g / cm^3
# Si number density = 16.782561 Si / 1000 Ang^3
#
#
#
# Elastic Constant Matrix: (Units=GPa)
#
#
# Indices 1 2 3 4 5 6 
#
# 1 72.3507 26.7177 37.2449 0.0000 0.0000 0.0000
# 2 26.7177 72.3507 37.2449 0.0000 0.0000 0.0000
# 3 37.2449 37.2449 84.1572 0.0000 0.0000 0.0000
# 4 0.0000 0.0000 0.0000 20.4012 0.0000 0.0000
# 5 0.0000 0.0000 0.0000 0.0000 20.4012 0.0000
# 6 0.0000 0.0000 0.0000 0.0000 0.0000 33.3129
#
#
#
# Elastic Compliance Matrix: (Units=1/GPa)
#
#
# Indices 1 2 3 4 5 6 
#
# 1 0.018521 -0.003393 -0.006695 0.000000 0.000000 0.000000
# 2 -0.003393 0.018521 -0.006695 0.000000 0.000000 0.000000
# 3 -0.006695 -0.006695 0.017809 0.000000 0.000000 0.000000
# 4 0.000000 0.000000 0.000000 0.049017 0.000000 0.000000
# 5 0.000000 0.000000 0.000000 0.000000 0.049017 0.000000
# 6 0.000000 0.000000 0.000000 0.000000 0.000000 0.030018
#
#
# Mechanical properties :
#
#
# Convention : Reuss Voigt Hill
#
# Bulk Modulus (GPa) = 46.98313 47.91927 47.45120
# Shear Modulus (GPa) = 22.36499 23.33314 22.84907
#
# Velocity S-wave (km/s) = 3.65448 3.73275 3.69382
# Velocity P-wave (km/s) = 6.77222 6.86971 6.82114
#
# Compressibility (1/GPa) = 0.02128424
#
# Stress axis : x y z
#
# Youngs Moduli (GPa) = 53.99261 53.99267 56.15273
#
# Poissons Ratio (x) = 0.18319 0.37595
# Poissons Ratio (y) = 0.18319 0.37595
# Poissons Ratio (z) = 0.36149 0.36149
#
# Static dielectric constant tensor:
#      x y z
#    x 3.253560 0.000000 0.000000 
#    y 0.000000 3.253560 0.000000 
#    z 0.000000 0.000000 2.796650 
# 
# 
# High freq. dielectric constant tensor:
#      x y z
#    x 1.651210 0.000000 0.000000 
#    y 0.000000 1.651210 0.000000 
#    z 0.000000 0.000000 1.592780 
# 
# From -- ./inp_files/10577.got.cif
#   From: 2010.06.25/outbox.cif.g09.slc.cpg/sg140_6_cif.got.tgz:10577.got - 2010.06.28 10:53:23.
