data_PCOD8320415
_publ_section_title
;
Structure prediction by ZEFSAII (Michael W. Deem and Ramdas Pophale) SiO2 
 PCOD8320415
Probable space group: I 4/M C M
;
_chemical_formula_sum "Si O2"
_cell_formula_units_Z 96
_cell_length_a 14.838589
_cell_length_b 14.838589
_cell_length_c 24.680808
_cell_angle_alpha 90.000000
_cell_angle_beta 90.000000
_cell_angle_gamma 90.000000
_cell_volume 5434.312205
_symmetry_space_group_name_H-M "I 4/M C M"
_symmetry_group_IT_number 140
_symmetry_cell_setting 'tetragonal'
loop_
_space_group_symop_operation_xyz
x,y,z
-y,x,z
-x,-y,z
y,-x,z
x,-y,1/2-z
-x,y,1/2-z
y,x,1/2-z
-y,-x,1/2-z
-x,-y,-z
y,-x,-z
x,y,-z
-y,x,-z
-x,y,1/2+z
x,-y,1/2+z
-y,-x,1/2+z
y,x,1/2+z
1/2+x,1/2+y,1/2+z
1/2-y,1/2+x,1/2+z
1/2-x,1/2-y,1/2+z
1/2+y,1/2-x,1/2+z
1/2+x,1/2-y,-z
1/2-x,1/2+y,-z
1/2+y,1/2+x,-z
1/2-y,1/2-x,-z
1/2-x,1/2-y,1/2-z
1/2+y,1/2-x,1/2-z
1/2+x,1/2+y,1/2-z
1/2-y,1/2+x,1/2-z
1/2-x,1/2+y,z
1/2+x,1/2-y,z
1/2-y,1/2-x,z
1/2+y,1/2+x,z
loop_
_atom_site_type_symbol
_atom_site_label
_atom_site_fract_x
_atom_site_fract_y
_atom_site_fract_z
Si Si1 0.201779 0.298221 0.437426
Si Si2 0.512463 0.762650 0.811848
Si Si3 0.327714 0.687015 0.845184
Si Si4 0.572855 0.072855 0.618513
O O1 0.220136 0.279865 0.500000
O O2 0.295339 0.329154 0.407978
O O3 0.124669 0.375332 0.430211
O O4 0.500000 0.790839 0.750000
O O5 0.432747 0.705397 0.839315
O O6 0.598902 0.698208 0.811600
O O7 0.521957 0.854172 0.845156
O O8 0.272046 0.772046 0.820884
O O9 0.500000 0.000000 0.596092
#
# Coordination Sequence:
#
# PCOD8320415 Si02
#       4
#    16  32  32  16
#     4   8  18  40  59  74 111 155 188 244 300 327
#     4  11  21  34  56  81 119 159 187 230 291 347
#     4   9  21  37  54  80 117 145 198 237 278 355
#     4  10  22  32  53  91 116 144 197 245 287 357
#
# _framework density 17.66553
#
# number of rings (size 3 to 8) (size 9 to 14) (size 15 to 20)
#    1.000    1.333    1.667    2.000    4.667    2.333 
#    0.000    8.333    0.000    0.000    0.000    9.333 
#    0.000    0.000    0.000    0.000    0.000    0.000 
#
# Total GULP energy -594798.688138 kJ/mol
# GULP energy per Si atom -12391.639336 kJ/mol
# Density = 1.762532 g / cm^3
# Si number density = 17.665530 Si / 1000 Ang^3
#
#
#
# Elastic Constant Matrix: (Units=GPa)
#
#
# Indices 1 2 3 4 5 6 
#
# 1 72.7676 22.8386 3.6858 0.0000 0.0000 0.0000
# 2 22.8386 72.7676 3.6859 0.0000 0.0000 0.0000
# 3 3.6858 3.6859 78.5576 0.0000 0.0000 0.0000
# 4 0.0000 0.0000 0.0000 12.1528 0.0000 0.0000
# 5 0.0000 0.0000 0.0000 0.0000 12.1527 0.0000
# 6 0.0000 0.0000 0.0000 0.0000 0.0000 33.4994
#
#
#
# Elastic Compliance Matrix: (Units=1/GPa)
#
#
# Indices 1 2 3 4 5 6 
#
# 1 0.015263 -0.004765 -0.000493 0.000000 0.000000 0.000000
# 2 -0.004765 0.015263 -0.000493 0.000000 0.000000 0.000000
# 3 -0.000493 -0.000493 0.012776 0.000000 0.000000 0.000000
# 4 0.000000 0.000000 0.000000 0.082286 0.000000 0.000000
# 5 0.000000 0.000000 0.000000 0.000000 0.082286 0.000000
# 6 0.000000 0.000000 0.000000 0.000000 0.000000 0.029851
#
#
# Mechanical properties :
#
#
# Convention : Reuss Voigt Hill
#
# Bulk Modulus (GPa) = 31.44585 31.61259 31.52922
# Shear Modulus (GPa) = 19.24365 24.48649 21.86507
#
# Velocity S-wave (km/s) = 3.30409 3.72710 3.52195
# Velocity P-wave (km/s) = 5.69169 6.03785 5.86732
#
# Compressibility (1/GPa) = 0.03180070
#
# Stress axis : x y z
#
# Youngs Moduli (GPa) = 65.51794 65.51799 78.27338
#
# Poissons Ratio (x) = 0.31222 0.03855
# Poissons Ratio (y) = 0.31222 0.03855
# Poissons Ratio (z) = 0.03227 0.03227
#
# Static dielectric constant tensor:
#      x y z
#    x 3.271500 0.000000 0.000000 
#    y 0.000000 3.271500 0.000000 
#    z 0.000000 0.000000 2.928870 
# 
# 
# High freq. dielectric constant tensor:
#      x y z
#    x 1.683660 0.000000 0.000000 
#    y 0.000000 1.683660 0.000000 
#    z 0.000000 0.000000 1.657130 
# 
# From -- ./inp_files/8938.got.cif
#   From: 2010.06.25/outbox.cif.g09.slc.cpg/sg140_5_cif.got.tgz:8938.got - 2010.06.28 10:53:23.
