data_PCOD8320375
_publ_section_title
;
Structure prediction by ZEFSAII (Michael W. Deem and Ramdas Pophale) SiO2 
 PCOD8320375
Probable space group: I 4/M C M
;
_chemical_formula_sum "Si O2"
_cell_formula_units_Z 192
_cell_length_a 19.834810
_cell_length_b 19.834810
_cell_length_c 24.715020
_cell_angle_alpha 90.000000
_cell_angle_beta 90.000000
_cell_angle_gamma 90.000000
_cell_volume 9723.375451
_symmetry_space_group_name_H-M "I 4/M C M"
_symmetry_group_IT_number 140
_symmetry_cell_setting 'tetragonal'
loop_
_space_group_symop_operation_xyz
x,y,z
-y,x,z
-x,-y,z
y,-x,z
x,-y,1/2-z
-x,y,1/2-z
y,x,1/2-z
-y,-x,1/2-z
-x,-y,-z
y,-x,-z
x,y,-z
-y,x,-z
-x,y,1/2+z
x,-y,1/2+z
-y,-x,1/2+z
y,x,1/2+z
1/2+x,1/2+y,1/2+z
1/2-y,1/2+x,1/2+z
1/2-x,1/2-y,1/2+z
1/2+y,1/2-x,1/2+z
1/2+x,1/2-y,-z
1/2-x,1/2+y,-z
1/2+y,1/2+x,-z
1/2-y,1/2-x,-z
1/2-x,1/2-y,1/2-z
1/2+y,1/2-x,1/2-z
1/2+x,1/2+y,1/2-z
1/2-y,1/2+x,1/2-z
1/2-x,1/2+y,z
1/2+x,1/2-y,z
1/2-y,1/2-x,z
1/2+y,1/2+x,z
loop_
_atom_site_type_symbol
_atom_site_label
_atom_site_fract_x
_atom_site_fract_y
_atom_site_fract_z
Si Si1 0.000000 0.243543 0.250000
Si Si2 0.001775 0.604684 0.591603
Si Si3 0.208805 0.401176 0.559193
Si Si4 0.563778 0.320290 0.646701
Si Si5 0.421834 0.337187 0.390041
Si Si6 0.088557 0.304315 0.162607
Si Si7 0.063518 0.093777 0.000000
O O1 0.958530 0.200767 0.206370
O O2 0.940520 0.284843 0.278944
O O3 0.945276 0.554725 0.615889
O O4 0.965695 0.658966 0.553171
O O5 0.060000 0.560000 0.560942
O O6 0.035077 0.641854 0.641888
O O7 0.245066 0.396125 0.500000
O O8 0.166760 0.333241 0.570659
O O9 0.259101 0.410657 0.609014
O O10 0.499623 0.355468 0.619151
O O11 0.622751 0.374987 0.652415
O O12 0.407857 0.257946 0.379896
O O13 0.405699 0.363522 0.450105
O O14 0.162852 0.337149 0.168449
O O15 0.982032 0.092676 0.000000
#
# Coordination Sequence:
#
# PCOD8320375 Si02
#       7
#    16  32  32  32  32  32  16
#     4  10  22  42  62  90 122 168 210 260 308 376
#     4   9  17  33  58  88 120 154 199 252 306 365
#     4  10  21  37  58  87 122 159 201 249 311 383
#     4  11  24  40  62  90 122 162 208 260 319 372
#     4  11  23  40  62  92 127 160 206 264 320 380
#     4  10  22  40  62  93 127 164 211 261 314 372
#     4  11  22  38  67  98 122 161 217 268 328 388
#
# _framework density 19.746227999999999
#
# number of rings (size 3 to 8) (size 9 to 14) (size 15 to 20)
#    0.000    1.750    5.000    0.000    2.333    5.333 
#    0.000    2.917    0.000    4.000    0.000    0.000 
#    0.000    0.000    0.000    0.000    0.000    0.000 
#
# Total GULP energy -1189475.603189 kJ/mol
# GULP energy per Si atom -12390.370867 kJ/mol
# Density = 1.970128 g / cm^3
# Si number density = 19.746228 Si / 1000 Ang^3
#
#
#
# Elastic Constant Matrix: (Units=GPa)
#
#
# Indices 1 2 3 4 5 6 
#
# 1 84.5600 58.6831 38.3035 0.0000 0.0000 0.0000
# 2 58.6831 84.5600 38.3035 0.0000 0.0000 0.0000
# 3 38.3035 38.3035 122.4696 0.0000 0.0000 0.0000
# 4 0.0000 0.0000 0.0000 21.9055 0.0000 0.0000
# 5 0.0000 0.0000 0.0000 0.0000 21.9055 0.0000
# 6 0.0000 0.0000 0.0000 0.0000 0.0000 41.2429
#
#
#
# Elastic Compliance Matrix: (Units=1/GPa)
#
#
# Indices 1 2 3 4 5 6 
#
# 1 0.023514 -0.015131 -0.002622 0.000000 0.000000 0.000000
# 2 -0.015131 0.023514 -0.002622 0.000000 0.000000 0.000000
# 3 -0.002622 -0.002622 0.009805 0.000000 0.000000 0.000000
# 4 0.000000 0.000000 0.000000 0.045651 0.000000 0.000000
# 5 0.000000 0.000000 0.000000 0.000000 0.045651 0.000000
# 6 0.000000 0.000000 0.000000 0.000000 0.000000 0.024247
#
#
# Mechanical properties :
#
#
# Convention : Reuss Voigt Hill
#
# Bulk Modulus (GPa) = 62.17266 62.46329 62.31798
# Shear Modulus (GPa) = 22.88419 27.43076 25.15747
#
# Velocity S-wave (km/s) = 3.40798 3.73119 3.57324
# Velocity P-wave (km/s) = 6.85857 7.08972 6.97510
#
# Compressibility (1/GPa) = 0.01608424
#
# Stress axis : x y z
#
# Youngs Moduli (GPa) = 42.52794 42.52794 101.98481
#
# Poissons Ratio (x) = 0.64347 0.26740
# Poissons Ratio (y) = 0.64347 0.26740
# Poissons Ratio (z) = 0.11151 0.11151
#
# Static dielectric constant tensor:
#      x y z
#    x 3.754360 0.000000 0.000000 
#    y 0.000000 3.754360 0.000000 
#    z 0.000000 0.000000 3.432240 
# 
# 
# High freq. dielectric constant tensor:
#      x y z
#    x 1.773310 0.000000 0.000000 
#    y 0.000000 1.773310 0.000000 
#    z 0.000000 0.000000 1.755710 
# 
# From -- ./inp_files/9867.got.cif
#   From: 2010.06.25/outbox.cif.g09.slc.cpg/sg140_5_cif.got.tgz:9867.got - 2010.06.28 10:53:23.
