data_PCOD8320108
_publ_section_title
;
Structure prediction by ZEFSAII (Michael W. Deem and Ramdas Pophale) SiO2 
 PCOD8320108
Probable space group: I 4/M C M
;
_chemical_formula_sum "Si O2"
_cell_formula_units_Z 192
_cell_length_a 20.046400
_cell_length_b 20.046400
_cell_length_c 26.416254
_cell_angle_alpha 90.000000
_cell_angle_beta 90.000000
_cell_angle_gamma 90.000000
_cell_volume 10615.587041
_symmetry_space_group_name_H-M "I 4/M C M"
_symmetry_group_IT_number 140
_symmetry_cell_setting 'tetragonal'
loop_
_space_group_symop_operation_xyz
x,y,z
-y,x,z
-x,-y,z
y,-x,z
x,-y,1/2-z
-x,y,1/2-z
y,x,1/2-z
-y,-x,1/2-z
-x,-y,-z
y,-x,-z
x,y,-z
-y,x,-z
-x,y,1/2+z
x,-y,1/2+z
-y,-x,1/2+z
y,x,1/2+z
1/2+x,1/2+y,1/2+z
1/2-y,1/2+x,1/2+z
1/2-x,1/2-y,1/2+z
1/2+y,1/2-x,1/2+z
1/2+x,1/2-y,-z
1/2-x,1/2+y,-z
1/2+y,1/2+x,-z
1/2-y,1/2-x,-z
1/2-x,1/2-y,1/2-z
1/2+y,1/2-x,1/2-z
1/2+x,1/2+y,1/2-z
1/2-y,1/2+x,1/2-z
1/2-x,1/2+y,z
1/2+x,1/2-y,z
1/2-y,1/2-x,z
1/2+y,1/2+x,z
loop_
_atom_site_type_symbol
_atom_site_label
_atom_site_fract_x
_atom_site_fract_y
_atom_site_fract_z
Si Si1 0.858642 0.750860 0.150973
Si Si2 0.579967 0.811962 0.555809
Si Si3 0.445909 0.837495 0.598728
Si Si4 0.107898 0.504037 0.304038
Si Si5 0.249776 0.857010 0.342737
Si Si6 0.922524 0.811109 0.752000
O O1 0.812904 0.687097 0.164759
O O2 0.900161 0.740128 0.099441
O O3 0.813394 0.814936 0.139334
O O4 0.907091 0.766986 0.197960
O O5 0.597451 0.782748 0.500000
O O6 0.618188 0.881813 0.564328
O O7 0.500206 0.825009 0.555475
O O8 0.404265 0.904265 0.585714
O O9 0.487665 0.842747 0.650850
O O10 0.397430 0.774425 0.607500
O O11 0.146776 0.500000 0.250000
O O12 0.077723 0.577723 0.313969
O O13 0.048397 0.451604 0.300787
O O14 0.309324 0.809324 0.323214
O O15 0.233515 0.905729 0.296593
O O16 0.878408 0.878408 0.750000
O O17 0.000000 0.831652 0.750000
#
# Coordination Sequence:
#
# PCOD8320108 Si02
#       6
#    32  32  32  32  32  32
#     4   9  18  34  53  70  93 127 165 204 241 276
#     4  10  21  35  50  68  91 124 166 204 238 283
#     4  10  19  30  46  69  97 125 153 191 239 287
#     4   8  14  24  37  57  89 126 158 183 211 259
#     4   9  18  32  50  74 100 125 158 197 237 285
#     4  10  19  31  50  75 103 132 158 189 235 291
#
# _framework density 18.086611999999999
#
# number of rings (size 3 to 8) (size 9 to 14) (size 15 to 20)
#    0.000    2.667    0.000    2.500    0.000    5.500 
#    0.000    5.000    0.000    3.000    0.000    0.000 
#    0.000    1.333    0.000   14.333    0.000    0.333 
#
# Total GULP energy -1189981.030900 kJ/mol
# GULP energy per Si atom -12395.635739 kJ/mol
# Density = 1.804545 g / cm^3
# Si number density = 18.086612 Si / 1000 Ang^3
#
#
#
# Elastic Constant Matrix: (Units=GPa)
#
#
# Indices 1 2 3 4 5 6 
#
# 1 79.3706 29.0597 39.0240 0.0000 0.0000 0.0000
# 2 29.0597 79.3706 39.0240 0.0000 0.0000 0.0000
# 3 39.0240 39.0240 92.8431 0.0000 0.0000 0.0000
# 4 0.0000 0.0000 0.0000 20.3464 0.0000 0.0000
# 5 0.0000 0.0000 0.0000 0.0000 20.3464 0.0000
# 6 0.0000 0.0000 0.0000 0.0000 0.0000 17.5848
#
#
#
# Elastic Compliance Matrix: (Units=1/GPa)
#
#
# Indices 1 2 3 4 5 6 
#
# 1 0.016550 -0.003327 -0.005558 0.000000 0.000000 0.000000
# 2 -0.003327 0.016550 -0.005558 0.000000 0.000000 0.000000
# 3 -0.005558 -0.005558 0.015443 0.000000 0.000000 0.000000
# 4 0.000000 0.000000 0.000000 0.049149 0.000000 0.000000
# 5 0.000000 0.000000 0.000000 0.000000 0.049149 0.000000
# 6 0.000000 0.000000 0.000000 0.000000 0.000000 0.056867
#
#
# Mechanical properties :
#
#
# Convention : Reuss Voigt Hill
#
# Bulk Modulus (GPa) = 50.87112 51.75550 51.31331
# Shear Modulus (GPa) = 20.90781 21.28730 21.09755
#
# Velocity S-wave (km/s) = 3.40366 3.43441 3.41907
# Velocity P-wave (km/s) = 6.60560 6.66366 6.63470
#
# Compressibility (1/GPa) = 0.01965752
#
# Stress axis : x y z
#
# Youngs Moduli (GPa) = 60.42381 60.42381 64.75367
#
# Poissons Ratio (x) = 0.20101 0.35990
# Poissons Ratio (y) = 0.20101 0.35990
# Poissons Ratio (z) = 0.33583 0.33583
#
# Static dielectric constant tensor:
#      x y z
#    x 3.313040 0.000000 0.000000 
#    y 0.000000 3.313040 0.000000 
#    z 0.000000 0.000000 3.303660 
# 
# 
# High freq. dielectric constant tensor:
#      x y z
#    x 1.689690 0.000000 0.000000 
#    y 0.000000 1.689690 0.000000 
#    z 0.000000 0.000000 1.684190 
# 
# From -- ./inp_files/9760.got.cif
#   From: 2010.06.25/outbox.cif.g09.slc.cpg/sg140_5_cif.got.tgz:9760.got - 2010.06.28 10:53:23.
