data_PCOD8320275
_publ_section_title
;
Structure prediction by ZEFSAII (Michael W. Deem and Ramdas Pophale) SiO2 
 PCOD8320275
Probable space group: I 4/M C M
;
_chemical_formula_sum "Si O2"
_cell_formula_units_Z 176
_cell_length_a 24.229276
_cell_length_b 24.229276
_cell_length_c 14.772356
_cell_angle_alpha 90.000000
_cell_angle_beta 90.000000
_cell_angle_gamma 90.000000
_cell_volume 8672.227043
_symmetry_space_group_name_H-M "I 4/M C M"
_symmetry_group_IT_number 140
_symmetry_cell_setting 'tetragonal'
loop_
_space_group_symop_operation_xyz
x,y,z
-y,x,z
-x,-y,z
y,-x,z
x,-y,1/2-z
-x,y,1/2-z
y,x,1/2-z
-y,-x,1/2-z
-x,-y,-z
y,-x,-z
x,y,-z
-y,x,-z
-x,y,1/2+z
x,-y,1/2+z
-y,-x,1/2+z
y,x,1/2+z
1/2+x,1/2+y,1/2+z
1/2-y,1/2+x,1/2+z
1/2-x,1/2-y,1/2+z
1/2+y,1/2-x,1/2+z
1/2+x,1/2-y,-z
1/2-x,1/2+y,-z
1/2+y,1/2+x,-z
1/2-y,1/2-x,-z
1/2-x,1/2-y,1/2-z
1/2+y,1/2-x,1/2-z
1/2+x,1/2+y,1/2-z
1/2-y,1/2+x,1/2-z
1/2-x,1/2+y,z
1/2+x,1/2-y,z
1/2-y,1/2-x,z
1/2+y,1/2+x,z
loop_
_atom_site_type_symbol
_atom_site_label
_atom_site_fract_x
_atom_site_fract_y
_atom_site_fract_z
Si Si1 0.500000 0.409433 0.750000
Si Si2 0.174755 0.026341 0.602092
Si Si3 0.594110 0.094110 0.892130
Si Si4 0.716002 0.369175 0.708224
Si Si5 0.456837 0.769489 0.671040
Si Si6 0.113845 0.472358 0.605561
Si Si7 0.316468 0.816468 0.891598
O O1 0.554814 0.445187 0.750000
O O2 0.497125 0.372579 0.839610
O O3 0.153806 0.034312 0.500000
O O4 0.188417 0.085861 0.643096
O O5 0.227045 0.985313 0.601530
O O6 0.534064 0.110704 0.852482
O O7 0.638599 0.138599 0.858252
O O8 0.593983 0.093983 0.000000
O O9 0.669190 0.330811 0.750000
O O10 0.746891 0.398961 0.791383
O O11 0.757397 0.332884 0.648251
O O12 0.500000 0.780362 0.750000
O O13 0.444985 0.826693 0.620763
O O14 0.102062 0.477139 0.500000
O O15 0.067041 0.432960 0.649800
O O16 0.313008 0.813008 0.000000
#
# Coordination Sequence:
#
# PCOD8320275 Si02
#       7
#    16  32  16  32  32  32  16
#     4  11  24  44  64  96 140 170 207 266 338 400
#     4  11  22  41  69  96 126 169 223 269 321 396
#     4   9  17  33  60  85 114 155 207 259 303 369
#     4  11  23  42  65  89 127 171 212 273 336 390
#     4  10  21  38  59  86 122 160 206 258 323 379
#     4  10  20  35  56  85 121 160 202 252 314 381
#     4  11  23  40  65  94 120 165 227 277 326 393
#
# _framework density 20.29467
#
# number of rings (size 3 to 8) (size 9 to 14) (size 15 to 20)
#    0.000    1.545    2.727    4.364    1.273    3.273 
#    1.636    3.636    0.000    0.000    0.000    0.000 
#    0.000    0.000    0.000    0.000    0.000    0.000 
#
# Total GULP energy -1091441.518582 kJ/mol
# GULP energy per Si atom -12402.744529 kJ/mol
# Density = 2.024848 g / cm^3
# Si number density = 20.294670 Si / 1000 Ang^3
#
#
#
# Elastic Constant Matrix: (Units=GPa)
#
#
# Indices 1 2 3 4 5 6 
#
# 1 109.3593 55.6211 48.0962 0.0000 0.0000 0.0000
# 2 55.6211 109.3544 48.0938 0.0000 0.0000 0.0000
# 3 48.0962 48.0938 89.3243 0.0000 0.0000 0.0000
# 4 0.0000 0.0000 0.0000 23.2736 0.0000 0.0000
# 5 0.0000 0.0000 0.0000 0.0000 23.2751 0.0000
# 6 0.0000 0.0000 0.0000 0.0000 0.0000 33.4755
#
#
#
# Elastic Compliance Matrix: (Units=1/GPa)
#
#
# Indices 1 2 3 4 5 6 
#
# 1 0.013722 -0.004887 -0.004757 0.000000 0.000000 0.000000
# 2 -0.004887 0.013722 -0.004757 0.000000 0.000000 0.000000
# 3 -0.004757 -0.004757 0.016318 0.000000 0.000000 0.000000
# 4 0.000000 0.000000 0.000000 0.042967 0.000000 0.000000
# 5 0.000000 0.000000 0.000000 0.000000 0.042964 0.000000
# 6 0.000000 0.000000 0.000000 0.000000 0.000000 0.029873
#
#
# Mechanical properties :
#
#
# Convention : Reuss Voigt Hill
#
# Bulk Modulus (GPa) = 66.84638 67.96227 67.40433
# Shear Modulus (GPa) = 25.85905 26.41996 26.13950
#
# Velocity S-wave (km/s) = 3.57344 3.61199 3.59276
# Velocity P-wave (km/s) = 7.07357 7.13833 7.10602
#
# Compressibility (1/GPa) = 0.01495967
#
# Stress axis : x y z
#
# Youngs Moduli (GPa) = 72.87518 72.87317 61.28260
#
# Poissons Ratio (x) = 0.35615 0.29153
# Poissons Ratio (y) = 0.35616 0.29151
# Poissons Ratio (z) = 0.34668 0.34665
#
# Static dielectric constant tensor:
#      x y z
#    x 3.804270 0.000000 0.000000 
#    y 0.000000 3.804250 0.000000 
#    z 0.000000 0.000000 4.296770 
# 
# 
# High freq. dielectric constant tensor:
#      x y z
#    x 1.797490 0.000000 0.000000 
#    y 0.000000 1.797490 0.000000 
#    z 0.000000 0.000000 1.783200 
# 
# From -- ./inp_files/4978.got.cif
#   From: 2010.06.25/outbox.cif.g09.slc.cpg/sg140_3_cif.got.tgz:4978.got - 2010.06.28 10:53:23.
