data_PCOD8320514
_publ_section_title
;
Structure prediction by ZEFSAII (Michael W. Deem and Ramdas Pophale) SiO2 
 PCOD8320514
Probable space group: I 4/M C M
;
_chemical_formula_sum "Si O2"
_cell_formula_units_Z 112
_cell_length_a 19.001636
_cell_length_b 19.001636
_cell_length_c 17.637814
_cell_angle_alpha 90.000000
_cell_angle_beta 90.000000
_cell_angle_gamma 90.000000
_cell_volume 6368.347409
_symmetry_space_group_name_H-M "I 4/M C M"
_symmetry_group_IT_number 140
_symmetry_cell_setting 'tetragonal'
loop_
_space_group_symop_operation_xyz
x,y,z
-y,x,z
-x,-y,z
y,-x,z
x,-y,1/2-z
-x,y,1/2-z
y,x,1/2-z
-y,-x,1/2-z
-x,-y,-z
y,-x,-z
x,y,-z
-y,x,-z
-x,y,1/2+z
x,-y,1/2+z
-y,-x,1/2+z
y,x,1/2+z
1/2+x,1/2+y,1/2+z
1/2-y,1/2+x,1/2+z
1/2-x,1/2-y,1/2+z
1/2+y,1/2-x,1/2+z
1/2+x,1/2-y,-z
1/2-x,1/2+y,-z
1/2+y,1/2+x,-z
1/2-y,1/2-x,-z
1/2-x,1/2-y,1/2-z
1/2+y,1/2-x,1/2-z
1/2+x,1/2+y,1/2-z
1/2-y,1/2+x,1/2-z
1/2-x,1/2+y,z
1/2+x,1/2-y,z
1/2-y,1/2-x,z
1/2+y,1/2+x,z
loop_
_atom_site_type_symbol
_atom_site_label
_atom_site_fract_x
_atom_site_fract_y
_atom_site_fract_z
Si Si1 0.941201 0.441201 0.586165
Si Si2 0.856022 0.238891 0.586523
Si Si3 0.259245 0.129214 0.089235
Si Si4 0.202865 0.486413 0.838010
O O1 0.921162 0.421162 0.500000
O O2 0.873020 0.472259 0.626459
O O3 0.000000 0.500000 0.588558
O O4 0.883524 0.233186 0.500000
O O5 0.806910 0.306910 0.594548
O O6 0.813308 0.168948 0.609541
O O7 0.920703 0.246166 0.644500
O O8 0.325018 0.174983 0.119891
O O9 0.259180 0.053858 0.127334
O O10 0.266356 0.120268 0.000000
O O11 0.193094 0.500000 0.750000
#
# Coordination Sequence:
#
# PCOD8320514 Si02
#       4
#    16  32  32  32
#     4  11  24  38  54  73 108 158 194 222 265 332
#     4   9  18  36  59  79 103 144 193 232 271 329
#     4   9  19  36  58  80 105 142 192 237 272 326
#     4  12  24  33  53  83 116 148 176 230 282 334
#
# _framework density 17.586980000000001
#
# number of rings (size 3 to 8) (size 9 to 14) (size 15 to 20)
#    0.000    1.857    1.429    5.143    4.000    3.429 
#    0.000    2.857    0.000    0.857    0.000    6.000 
#    0.000    0.000    0.000    0.000    0.000    0.000 
#
# Total GULP energy -694461.871725 kJ/mol
# GULP energy per Si atom -12401.104852 kJ/mol
# Density = 1.754695 g / cm^3
# Si number density = 17.586980 Si / 1000 Ang^3
#
#
#
# Elastic Constant Matrix: (Units=GPa)
#
#
# Indices 1 2 3 4 5 6 
#
# 1 112.5057 63.1134 61.9485 0.0000 0.0000 0.0000
# 2 63.1134 112.5057 61.9485 0.0000 0.0000 0.0000
# 3 61.9485 61.9485 99.9433 0.0000 0.0000 0.0000
# 4 0.0000 0.0000 0.0000 2.3604 0.0000 0.0000
# 5 0.0000 0.0000 0.0000 0.0000 2.3604 0.0000
# 6 0.0000 0.0000 0.0000 0.0000 0.0000 21.4552
#
#
#
# Elastic Compliance Matrix: (Units=1/GPa)
#
#
# Indices 1 2 3 4 5 6 
#
# 1 0.015183 -0.005063 -0.006272 0.000000 0.000000 0.000000
# 2 -0.005063 0.015183 -0.006272 0.000000 0.000000 0.000000
# 3 -0.006272 -0.006272 0.017781 0.000000 0.000000 0.000000
# 4 0.000000 0.000000 0.000000 0.423657 0.000000 0.000000
# 5 0.000000 0.000000 0.000000 0.000000 0.423657 0.000000
# 6 0.000000 0.000000 0.000000 0.000000 0.000000 0.046609
#
#
# Mechanical properties :
#
#
# Convention : Reuss Voigt Hill
#
# Bulk Modulus (GPa) = 77.33606 77.66395 77.50001
# Shear Modulus (GPa) = 5.09375 14.43148 9.76262
#
# Velocity S-wave (km/s) = 1.70370 2.86768 2.35862
# Velocity P-wave (km/s) = 6.92381 7.43105 7.18191
#
# Compressibility (1/GPa) = 0.01293058
#
# Stress axis : x y z
#
# Youngs Moduli (GPa) = 65.86501 65.86501 56.23942
#
# Poissons Ratio (x) = 0.33351 0.35274
# Poissons Ratio (y) = 0.33351 0.35274
# Poissons Ratio (z) = 0.41312 0.41312
#
# Static dielectric constant tensor:
#      x y z
#    x 3.392480 0.000000 0.000000 
#    y 0.000000 3.392480 0.000000 
#    z 0.000000 0.000000 3.261250 
# 
# 
# High freq. dielectric constant tensor:
#      x y z
#    x 1.675700 0.000000 0.000000 
#    y 0.000000 1.675700 0.000000 
#    z 0.000000 0.000000 1.676100 
# 
# From -- ./inp_files/6077.got.cif
#   From: 2010.06.25/outbox.cif.g09.slc.cpg/sg140_4_cif.got.tgz:6077.got - 2010.06.28 10:53:23.
