data_PCOD8320885
_publ_section_title
;
Structure prediction by ZEFSAII (Michael W. Deem and Ramdas Pophale) SiO2 
 PCOD8320885
Probable space group: I 41/A M D
;
_chemical_formula_sum "Si O2"
_cell_formula_units_Z 224
_cell_length_a 24.008809
_cell_length_b 24.008809
_cell_length_c 25.414567
_cell_angle_alpha 90.000000
_cell_angle_beta 90.000000
_cell_angle_gamma 90.000000
_cell_volume 14649.538656
_symmetry_space_group_name_H-M "I 41/A M D"
_symmetry_group_IT_number 141
_space_group.IT_coordinate_system_code '2'
_symmetry_cell_setting 'tetragonal'
loop_
_space_group_symop_operation_xyz
x,y,z
1/4-y,3/4+x,1/4+z
-x,1/2-y,z
1/4+y,1/4-x,3/4+z
x,-y,-z
-x,1/2+y,-z
1/4+y,3/4+x,1/4-z
1/4-y,1/4-x,3/4-z
-x,-y,-z
3/4+y,1/4-x,3/4-z
x,1/2+y,-z
3/4-y,3/4+x,1/4-z
-x,y,z
x,1/2-y,z
3/4-y,1/4-x,3/4+z
3/4+y,3/4+x,1/4+z
1/2+x,1/2+y,1/2+z
3/4-y,1/4+x,3/4+z
1/2-x,-y,1/2+z
3/4+y,3/4-x,1/4+z
1/2+x,1/2-y,1/2-z
1/2-x,y,1/2-z
3/4+y,1/4+x,3/4-z
3/4-y,3/4-x,1/4-z
1/2-x,1/2-y,1/2-z
1/4+y,3/4-x,1/4-z
1/2+x,y,1/2-z
1/4-y,1/4+x,3/4-z
1/2-x,1/2+y,1/2+z
1/2+x,-y,1/2+z
1/4-y,3/4-x,1/4+z
1/4+y,1/4+x,3/4+z
loop_
_atom_site_type_symbol
_atom_site_label
_atom_site_fract_x
_atom_site_fract_y
_atom_site_fract_z
Si Si1 0.934493 0.986919 0.110517
Si Si2 0.566056 0.518847 0.273039
Si Si3 0.433682 0.132170 0.775135
Si Si4 0.353256 0.315821 0.981992
Si Si5 0.438091 0.683621 0.933175
Si Si6 0.934342 0.110021 0.111280
Si Si7 0.879399 0.684922 0.174986
O O1 0.910119 0.970969 0.168114
O O2 0.919064 0.936802 0.070484
O O3 0.000000 0.993549 0.116945
O O4 0.913757 0.048270 0.092221
O O5 0.500000 0.518713 0.275557
O O6 0.585623 0.568464 0.234874
O O7 0.587681 0.458691 0.252837
O O8 0.500000 0.138829 0.778496
O O9 0.406975 0.151412 0.829604
O O10 0.410926 0.170147 0.728128
O O11 0.354860 0.250000 0.987921
O O12 0.368512 0.331920 0.922286
O O13 0.397220 0.342553 0.022787
O O14 0.500000 0.659607 0.943624
O O15 0.440060 0.750000 0.936329
O O16 0.416463 0.666463 0.875000
O O17 0.000000 0.118275 0.101854
O O18 0.904734 0.654734 0.125000
O O19 0.885808 0.750000 0.164403
#
# Coordination Sequence:
#
# PCOD8320885 Si02
#       7
#    32  32  32  32  32  32  32
#     4   8  15  30  46  58  76 107 148 186 215 248
#     4   8  14  27  43  57  77 108 148 184 207 239
#     4  11  21  30  40  60  89 116 142 182 227 267
#     4   8  14  26  44  61  82 118 152 172 202 253
#     4   8  13  21  36  64  98 118 130 160 204 249
#     4   9  18  30  43  60  85 116 148 183 219 257
#     4  11  20  29  43  61  84 114 144 178 226 273
#
# _framework density 15.290583
#
# number of rings (size 3 to 8) (size 9 to 14) (size 15 to 20)
#    0.000    3.000    1.429    3.000    0.000    3.000 
#    0.000    3.571    0.000    0.000    0.000    2.000 
#    0.000    5.714    0.000    0.000    0.000    0.000 
#
# Total GULP energy -1387661.116674 kJ/mol
# GULP energy per Si atom -12389.831399 kJ/mol
# Density = 1.525578 g / cm^3
# Si number density = 15.290583 Si / 1000 Ang^3
#
#
#
# Elastic Constant Matrix: (Units=GPa)
#
#
# Indices 1 2 3 4 5 6 
#
# 1 70.4948 30.0224 40.8967 0.0000 0.0000 0.0000
# 2 30.0224 70.4948 40.8967 0.0000 0.0000 0.0000
# 3 40.8967 40.8967 79.1108 0.0000 0.0000 0.0000
# 4 0.0000 0.0000 0.0000 17.2278 0.0000 0.0000
# 5 0.0000 0.0000 0.0000 0.0000 17.2278 0.0000
# 6 0.0000 0.0000 0.0000 0.0000 0.0000 5.6450
#
#
#
# Elastic Compliance Matrix: (Units=1/GPa)
#
#
# Indices 1 2 3 4 5 6 
#
# 1 0.020940 -0.003768 -0.008877 0.000000 0.000000 0.000000
# 2 -0.003768 0.020940 -0.008877 0.000000 0.000000 0.000000
# 3 -0.008877 -0.008877 0.021819 0.000000 0.000000 0.000000
# 4 0.000000 0.000000 0.000000 0.058046 0.000000 0.000000
# 5 0.000000 0.000000 0.000000 0.000000 0.058046 0.000000
# 6 0.000000 0.000000 0.000000 0.000000 0.000000 0.177146
#
#
# Mechanical properties :
#
#
# Convention : Reuss Voigt Hill
#
# Bulk Modulus (GPa) = 48.41638 49.30356 48.85997
# Shear Modulus (GPa) = 12.28903 15.23909 13.76406
#
# Velocity S-wave (km/s) = 2.83803 3.16037 3.00353
# Velocity P-wave (km/s) = 6.51707 6.75512 6.63716
#
# Compressibility (1/GPa) = 0.02065417
#
# Stress axis : x y z
#
# Youngs Moduli (GPa) = 47.75501 47.75501 45.83207
#
# Poissons Ratio (x) = 0.17994 0.40686
# Poissons Ratio (y) = 0.17994 0.40686
# Poissons Ratio (z) = 0.42393 0.42393
#
# Static dielectric constant tensor:
#      x y z
#    x 2.954690 0.000000 0.000000 
#    y 0.000000 2.954690 0.000000 
#    z 0.000000 0.000000 3.041370 
# 
# 
# High freq. dielectric constant tensor:
#      x y z
#    x 1.558940 0.000000 0.000000 
#    y 0.000000 1.558940 0.000000 
#    z 0.000000 0.000000 1.579030 
# 
# From -- ./inp_files/11857.got.cif
#   From: 2010.03.12/outbox.cif.g09.slc.cpg/sg141_6_cif.got.tgz:11857.got - 2010.04.03 13:18:35.
