data_PCOD8320762
_publ_section_title
;
Structure prediction by ZEFSAII (Michael W. Deem and Ramdas Pophale) SiO2 
 PCOD8320762
Probable space group: I 41/A M D
;
_chemical_formula_sum "Si O2"
_cell_formula_units_Z 160
_cell_length_a 19.119922
_cell_length_b 19.119922
_cell_length_c 23.503417
_cell_angle_alpha 90.000000
_cell_angle_beta 90.000000
_cell_angle_gamma 90.000000
_cell_volume 8592.177464
_symmetry_space_group_name_H-M "I 41/A M D"
_symmetry_group_IT_number 141
_space_group.IT_coordinate_system_code '2'
_symmetry_cell_setting 'tetragonal'
loop_
_space_group_symop_operation_xyz
x,y,z
1/4-y,3/4+x,1/4+z
-x,1/2-y,z
1/4+y,1/4-x,3/4+z
x,-y,-z
-x,1/2+y,-z
1/4+y,3/4+x,1/4-z
1/4-y,1/4-x,3/4-z
-x,-y,-z
3/4+y,1/4-x,3/4-z
x,1/2+y,-z
3/4-y,3/4+x,1/4-z
-x,y,z
x,1/2-y,z
3/4-y,1/4-x,3/4+z
3/4+y,3/4+x,1/4+z
1/2+x,1/2+y,1/2+z
3/4-y,1/4+x,3/4+z
1/2-x,-y,1/2+z
3/4+y,3/4-x,1/4+z
1/2+x,1/2-y,1/2-z
1/2-x,y,1/2-z
3/4+y,1/4+x,3/4-z
3/4-y,3/4-x,1/4-z
1/2-x,1/2-y,1/2-z
1/4+y,3/4-x,1/4-z
1/2+x,y,1/2-z
1/4-y,1/4+x,3/4-z
1/2-x,1/2+y,1/2+z
1/2+x,-y,1/2+z
1/4-y,3/4-x,1/4+z
1/4+y,1/4+x,3/4+z
loop_
_atom_site_type_symbol
_atom_site_label
_atom_site_fract_x
_atom_site_fract_y
_atom_site_fract_z
Si Si1 0.180594 0.172958 0.988586
Si Si2 0.424547 0.544754 0.825118
Si Si3 0.261805 0.590536 0.102768
Si Si4 0.079492 0.932765 0.960899
Si Si5 0.721240 0.386298 0.191446
O O1 0.156623 0.250000 0.968104
O O2 0.239923 0.145570 0.945208
O O3 0.217710 0.176154 0.049431
O O4 0.112097 0.126509 0.998356
O O5 0.500000 0.582529 0.812283
O O6 0.358094 0.586046 0.800159
O O7 0.421538 0.532774 0.892895
O O8 0.187931 0.562070 0.125000
O O9 0.306354 0.627665 0.152417
O O10 0.301643 0.523801 0.076258
O O11 0.000000 0.912200 0.945124
O O12 0.081766 0.000000 0.000000
O O13 0.750000 0.352915 0.250000
#
# Coordination Sequence:
#
# PCOD8320762 Si02
#       5
#    32  32  32  32  32
#     4  11  22  37  57  83 116 149 189 241 296 348
#     4  10  21  35  55  88 118 145 186 238 295 348
#     4  12  20  34  59  87 113 144 199 247 289 335
#     4  11  23  38  57  83 115 155 199 240 288 349
#     4  11  20  34  60  85 114 151 190 239 290 341
#
# _framework density 18.621590000000001
#
# number of rings (size 3 to 8) (size 9 to 14) (size 15 to 20)
#    0.000    1.000    8.000    0.600    0.000    0.800 
#    0.000    0.000    0.000    4.800    0.000    0.000 
#    0.000    0.000    0.000    0.000    0.000    0.000 
#
# Total GULP energy -991392.858001 kJ/mol
# GULP energy per Si atom -12392.410725 kJ/mol
# Density = 1.857921 g / cm^3
# Si number density = 18.621590 Si / 1000 Ang^3
#
#
#
# Elastic Constant Matrix: (Units=GPa)
#
#
# Indices 1 2 3 4 5 6 
#
# 1 108.6662 32.4586 15.8625 0.0000 0.0000 0.0000
# 2 32.4586 108.6653 15.8625 0.0000 0.0000 0.0000
# 3 15.8625 15.8625 65.2793 0.0000 0.0000 0.0000
# 4 0.0000 0.0000 0.0000 17.6238 0.0000 0.0000
# 5 0.0000 0.0000 0.0000 0.0000 17.6242 0.0000
# 6 0.0000 0.0000 0.0000 0.0000 0.0000 4.9030
#
#
#
# Elastic Compliance Matrix: (Units=1/GPa)
#
#
# Indices 1 2 3 4 5 6 
#
# 1 0.010309 -0.002813 -0.001821 0.000000 0.000000 0.000000
# 2 -0.002813 0.010309 -0.001821 0.000000 0.000000 0.000000
# 3 -0.001821 -0.001821 0.016204 0.000000 0.000000 0.000000
# 4 0.000000 0.000000 0.000000 0.056741 0.000000 0.000000
# 5 0.000000 0.000000 0.000000 0.000000 0.056740 0.000000
# 6 0.000000 0.000000 0.000000 0.000000 0.000000 0.203959
#
#
# Mechanical properties :
#
#
# Convention : Reuss Voigt Hill
#
# Bulk Modulus (GPa) = 41.82459 45.66420 43.74440
# Shear Modulus (GPa) = 13.32823 22.59201 17.96012
#
# Velocity S-wave (km/s) = 2.67824 3.48690 3.10897
# Velocity P-wave (km/s) = 5.66330 6.38645 6.03571
#
# Compressibility (1/GPa) = 0.02390938
#
# Stress axis : x y z
#
# Youngs Moduli (GPa) = 97.00529 97.00447 61.71337
#
# Poissons Ratio (x) = 0.27291 0.11240
# Poissons Ratio (y) = 0.27291 0.11240
# Poissons Ratio (z) = 0.17668 0.17668
#
# Static dielectric constant tensor:
#      x y z
#    x 3.413580 0.000000 0.000000 
#    y 0.000000 3.413580 0.000000 
#    z 0.000000 0.000000 3.630520 
# 
# 
# High freq. dielectric constant tensor:
#      x y z
#    x 1.708420 0.000000 0.000000 
#    y 0.000000 1.708420 0.000000 
#    z 0.000000 0.000000 1.733560 
# 
# From -- ./inp_files/12662.got.cif
#   From: 2010.03.12/outbox.cif.g09.slc.cpg/sg141_7_cif.got.tgz:12662.got - 2010.04.03 13:18:35.
