data_PCOD8320606
_publ_section_title
;
Structure prediction by ZEFSAII (Michael W. Deem and Ramdas Pophale) SiO2 
 PCOD8320606
Probable space group: I 41/A M D
;
_chemical_formula_sum "Si O2"
_cell_formula_units_Z 96
_cell_length_a 13.279248
_cell_length_b 13.279248
_cell_length_c 28.275987
_cell_angle_alpha 90.000000
_cell_angle_beta 90.000000
_cell_angle_gamma 90.000000
_cell_volume 4986.143082
_symmetry_space_group_name_H-M "I 41/A M D"
_symmetry_group_IT_number 141
_space_group.IT_coordinate_system_code '2'
_symmetry_cell_setting 'tetragonal'
loop_
_space_group_symop_operation_xyz
x,y,z
1/4-y,3/4+x,1/4+z
-x,1/2-y,z
1/4+y,1/4-x,3/4+z
x,-y,-z
-x,1/2+y,-z
1/4+y,3/4+x,1/4-z
1/4-y,1/4-x,3/4-z
-x,-y,-z
3/4+y,1/4-x,3/4-z
x,1/2+y,-z
3/4-y,3/4+x,1/4-z
-x,y,z
x,1/2-y,z
3/4-y,1/4-x,3/4+z
3/4+y,3/4+x,1/4+z
1/2+x,1/2+y,1/2+z
3/4-y,1/4+x,3/4+z
1/2-x,-y,1/2+z
3/4+y,3/4-x,1/4+z
1/2+x,1/2-y,1/2-z
1/2-x,y,1/2-z
3/4+y,1/4+x,3/4-z
3/4-y,3/4-x,1/4-z
1/2-x,1/2-y,1/2-z
1/4+y,3/4-x,1/4-z
1/2+x,y,1/2-z
1/4-y,1/4+x,3/4-z
1/2-x,1/2+y,1/2+z
1/2+x,-y,1/2+z
1/4-y,3/4-x,1/4+z
1/4+y,1/4+x,3/4+z
loop_
_atom_site_type_symbol
_atom_site_label
_atom_site_fract_x
_atom_site_fract_y
_atom_site_fract_z
Si Si1 0.381810 0.139148 0.334123
Si Si2 0.697989 0.634814 0.471279
Si Si3 0.116191 0.440491 0.065999
O O1 0.500000 0.150510 0.339715
O O2 0.333932 0.250000 0.324789
O O3 0.340408 0.092424 0.383253
O O4 0.356373 0.063951 0.291072
O O5 0.673505 0.750000 0.456971
O O6 0.626090 0.561094 0.440994
O O7 0.682264 0.618019 0.526947
O O8 0.000000 0.409869 0.059442
#
# Coordination Sequence:
#
# PCOD8320606 Si02
#       3
#    32  32  32
#     4   9  18  33  51  70  98 138 176 211 258 311
#     4  10  19  31  50  75 100 130 174 219 253 299
#     4  10  20  33  50  75 109 143 172 207 259 321
#
# _framework density 19.253357999999999
#
# number of rings (size 3 to 8) (size 9 to 14) (size 15 to 20)
#    0.000    2.333    0.000    4.000    0.000    4.000 
#    0.000    5.000    0.000   12.000    0.000    0.000 
#    0.000    5.333    0.000    0.000    0.000    0.000 
#
# Total GULP energy -594948.375812 kJ/mol
# GULP energy per Si atom -12394.757829 kJ/mol
# Density = 1.920954 g / cm^3
# Si number density = 19.253358 Si / 1000 Ang^3
#
#
#
# Elastic Constant Matrix: (Units=GPa)
#
#
# Indices 1 2 3 4 5 6 
#
# 1 105.5370 12.8021 47.9276 0.0000 0.0000 0.0000
# 2 12.8021 105.5370 47.9276 0.0000 0.0000 0.0000
# 3 47.9276 47.9276 95.0769 0.0000 0.0000 0.0000
# 4 0.0000 0.0000 0.0000 27.0650 0.0000 0.0000
# 5 0.0000 0.0000 0.0000 0.0000 27.0650 0.0000
# 6 0.0000 0.0000 0.0000 0.0000 0.0000 19.1432
#
#
#
# Elastic Compliance Matrix: (Units=1/GPa)
#
#
# Indices 1 2 3 4 5 6 
#
# 1 0.012533 0.001749 -0.007199 0.000000 0.000000 0.000000
# 2 0.001749 0.012533 -0.007199 0.000000 0.000000 0.000000
# 3 -0.007199 -0.007199 0.017776 0.000000 0.000000 0.000000
# 4 0.000000 0.000000 0.000000 0.036948 0.000000 0.000000
# 5 0.000000 0.000000 0.000000 0.000000 0.036948 0.000000
# 6 0.000000 0.000000 0.000000 0.000000 0.000000 0.052238
#
#
# Mechanical properties :
#
#
# Convention : Reuss Voigt Hill
#
# Bulk Modulus (GPa) = 57.00515 58.16283 57.58399
# Shear Modulus (GPa) = 24.98476 27.82086 26.40281
#
# Velocity S-wave (km/s) = 3.60625 3.80542 3.70717
# Velocity P-wave (km/s) = 6.85654 7.04153 6.94965
#
# Compressibility (1/GPa) = 0.01754227
#
# Stress axis : x y z
#
# Youngs Moduli (GPa) = 79.79177 79.79177 56.25527
#
# Poissons Ratio (x) = -0.13957 0.40500
# Poissons Ratio (y) = -0.13957 0.40500
# Poissons Ratio (z) = 0.57445 0.57445
#
# Static dielectric constant tensor:
#      x y z
#    x 3.594260 0.000000 0.000000 
#    y 0.000000 3.594260 0.000000 
#    z 0.000000 0.000000 3.489370 
# 
# 
# High freq. dielectric constant tensor:
#      x y z
#    x 1.733430 0.000000 0.000000 
#    y 0.000000 1.733430 0.000000 
#    z 0.000000 0.000000 1.744250 
# 
# From -- ./inp_files/9740.got.cif
#   From: 2010.03.12/outbox.cif.g09.slc.cpg/sg141_5_cif.got.tgz:9740.got - 2010.04.03 13:18:35.
