data_PCOD8320671
_publ_section_title
;
Structure prediction by ZEFSAII (Michael W. Deem and Ramdas Pophale) SiO2 
 PCOD8320671
Probable space group: I 41/A M D
;
_chemical_formula_sum "Si O2"
_cell_formula_units_Z 144
_cell_length_a 17.621543
_cell_length_b 17.621543
_cell_length_c 23.834616
_cell_angle_alpha 90.000000
_cell_angle_beta 90.000000
_cell_angle_gamma 90.000000
_cell_volume 7401.095827
_symmetry_space_group_name_H-M "I 41/A M D"
_symmetry_group_IT_number 141
_space_group.IT_coordinate_system_code '2'
_symmetry_cell_setting 'tetragonal'
loop_
_space_group_symop_operation_xyz
x,y,z
1/4-y,3/4+x,1/4+z
-x,1/2-y,z
1/4+y,1/4-x,3/4+z
x,-y,-z
-x,1/2+y,-z
1/4+y,3/4+x,1/4-z
1/4-y,1/4-x,3/4-z
-x,-y,-z
3/4+y,1/4-x,3/4-z
x,1/2+y,-z
3/4-y,3/4+x,1/4-z
-x,y,z
x,1/2-y,z
3/4-y,1/4-x,3/4+z
3/4+y,3/4+x,1/4+z
1/2+x,1/2+y,1/2+z
3/4-y,1/4+x,3/4+z
1/2-x,-y,1/2+z
3/4+y,3/4-x,1/4+z
1/2+x,1/2-y,1/2-z
1/2-x,y,1/2-z
3/4+y,1/4+x,3/4-z
3/4-y,3/4-x,1/4-z
1/2-x,1/2-y,1/2-z
1/4+y,3/4-x,1/4-z
1/2+x,y,1/2-z
1/4-y,1/4+x,3/4-z
1/2-x,1/2+y,1/2+z
1/2+x,-y,1/2+z
1/4-y,3/4-x,1/4+z
1/4+y,1/4+x,3/4+z
loop_
_atom_site_type_symbol
_atom_site_label
_atom_site_fract_x
_atom_site_fract_y
_atom_site_fract_z
Si Si1 0.203326 0.046675 0.375000
Si Si2 0.675802 0.935627 0.222819
Si Si3 0.416338 0.431766 0.043199
Si Si4 0.087328 0.839618 0.361859
Si Si5 0.685623 0.338905 0.969448
O O1 0.261693 0.036420 0.425351
O O2 0.212908 0.131885 0.351127
O O3 0.750000 0.894743 0.250000
O O4 0.617480 0.875635 0.196169
O O5 0.632466 0.984825 0.270685
O O6 0.500000 0.401955 0.055147
O O7 0.414122 0.500000 0.000000
O O8 0.369214 0.359536 0.021021
O O9 0.089671 0.750000 0.354418
O O10 0.143518 0.865408 0.412127
O O11 0.000000 0.865761 0.373993
O O12 0.701902 0.250000 0.968698
#
# Coordination Sequence:
#
# PCOD8320671 Si02
#       5
#    16  32  32  32  32
#     4  10  20  32  48  75 102 135 176 220 266 304
#     4  11  21  35  55  78 107 140 180 225 269 321
#     4  10  20  33  49  70 101 140 176 212 260 317
#     4  10  21  37  57  81 109 140 175 220 273 323
#     4  10  20  34  54  79 106 141 183 224 268 320
#
# _framework density 19.456578
#
# number of rings (size 3 to 8) (size 9 to 14) (size 15 to 20)
#    0.000    1.778    0.000    6.667    0.000    8.000 
#    0.000    0.000    0.000    0.000    0.000    0.000 
#    0.000   14.222    0.000    0.000    0.000    0.000 
#
# Total GULP energy -892569.837499 kJ/mol
# GULP energy per Si atom -12396.803299 kJ/mol
# Density = 1.941229 g / cm^3
# Si number density = 19.456578 Si / 1000 Ang^3
#
#
#
# Elastic Constant Matrix: (Units=GPa)
#
#
# Indices 1 2 3 4 5 6 
#
# 1 54.8550 23.0664 32.7019 0.0000 0.0000 0.0000
# 2 23.0664 54.8557 32.7023 0.0000 0.0000 0.0000
# 3 32.7019 32.7023 82.7397 0.0000 0.0000 0.0000
# 4 0.0000 0.0000 0.0000 26.1821 0.0000 0.0000
# 5 0.0000 0.0000 0.0000 0.0000 26.1819 0.0000
# 6 0.0000 0.0000 0.0000 0.0000 0.0000 26.0218
#
#
#
# Elastic Compliance Matrix: (Units=1/GPa)
#
#
# Indices 1 2 3 4 5 6 
#
# 1 0.025331 -0.006127 -0.007590 0.000000 0.000000 0.000000
# 2 -0.006127 0.025331 -0.007590 0.000000 0.000000 0.000000
# 3 -0.007590 -0.007590 0.018086 0.000000 0.000000 0.000000
# 4 0.000000 0.000000 0.000000 0.038194 0.000000 0.000000
# 5 0.000000 0.000000 0.000000 0.000000 0.038194 0.000000
# 6 0.000000 0.000000 0.000000 0.000000 0.000000 0.038429
#
#
# Mechanical properties :
#
#
# Convention : Reuss Voigt Hill
#
# Bulk Modulus (GPa) = 38.26506 41.04352 39.65429
# Shear Modulus (GPa) = 21.28642 22.60913 21.94778
#
# Velocity S-wave (km/s) = 3.31123 3.41255 3.36227
# Velocity P-wave (km/s) = 5.85906 6.05542 5.95805
#
# Compressibility (1/GPa) = 0.02613350
#
# Stress axis : x y z
#
# Youngs Moduli (GPa) = 39.47720 39.47759 55.29094
#
# Poissons Ratio (x) = 0.24186 0.41968
# Poissons Ratio (y) = 0.24186 0.41968
# Poissons Ratio (z) = 0.29965 0.29965
#
# Static dielectric constant tensor:
#      x y z
#    x 3.554560 0.000000 0.000000 
#    y 0.000000 3.554550 0.000000 
#    z 0.000000 0.000000 3.547790 
# 
# 
# High freq. dielectric constant tensor:
#      x y z
#    x 1.751490 0.000000 0.000000 
#    y 0.000000 1.751490 0.000000 
#    z 0.000000 0.000000 1.749850 
# 
# From -- ./inp_files/11418.got.cif
#   From: 2010.03.12/outbox.cif.g09.slc.cpg/sg141_6_cif.got.tgz:11418.got - 2010.04.03 13:18:35.
