data_PCOD8320693
_publ_section_title
;
Structure prediction by ZEFSAII (Michael W. Deem and Ramdas Pophale) SiO2 
 PCOD8320693
Probable space group: I 41/A M D
;
_chemical_formula_sum "Si O2"
_cell_formula_units_Z 112
_cell_length_a 17.615923
_cell_length_b 17.615923
_cell_length_c 17.934604
_cell_angle_alpha 90.000000
_cell_angle_beta 90.000000
_cell_angle_gamma 90.000000
_cell_volume 5565.479641
_symmetry_space_group_name_H-M "I 41/A M D"
_symmetry_group_IT_number 141
_space_group.IT_coordinate_system_code '2'
_symmetry_cell_setting 'tetragonal'
loop_
_space_group_symop_operation_xyz
x,y,z
1/4-y,3/4+x,1/4+z
-x,1/2-y,z
1/4+y,1/4-x,3/4+z
x,-y,-z
-x,1/2+y,-z
1/4+y,3/4+x,1/4-z
1/4-y,1/4-x,3/4-z
-x,-y,-z
3/4+y,1/4-x,3/4-z
x,1/2+y,-z
3/4-y,3/4+x,1/4-z
-x,y,z
x,1/2-y,z
3/4-y,1/4-x,3/4+z
3/4+y,3/4+x,1/4+z
1/2+x,1/2+y,1/2+z
3/4-y,1/4+x,3/4+z
1/2-x,-y,1/2+z
3/4+y,3/4-x,1/4+z
1/2+x,1/2-y,1/2-z
1/2-x,y,1/2-z
3/4+y,1/4+x,3/4-z
3/4-y,3/4-x,1/4-z
1/2-x,1/2-y,1/2-z
1/4+y,3/4-x,1/4-z
1/2+x,y,1/2-z
1/4-y,1/4+x,3/4-z
1/2-x,1/2+y,1/2+z
1/2+x,-y,1/2+z
1/4-y,3/4-x,1/4+z
1/4+y,1/4+x,3/4+z
loop_
_atom_site_type_symbol
_atom_site_label
_atom_site_fract_x
_atom_site_fract_y
_atom_site_fract_z
Si Si1 0.679306 0.838192 0.097438
Si Si2 0.333531 0.416470 0.625000
Si Si3 0.586978 0.665628 0.507794
Si Si4 0.089999 0.834265 0.707163
O O1 0.707862 0.750000 0.093545
O O2 0.744939 0.897233 0.118852
O O3 0.614111 0.846209 0.158738
O O4 0.643955 0.867025 0.019399
O O5 0.371529 0.387745 0.549941
O O6 0.500000 0.667382 0.483252
O O7 0.622220 0.750000 0.504824
O O8 0.114453 0.864453 0.625000
O O9 0.124445 0.750000 0.722338
O O10 0.000000 0.827415 0.710036
#
# Coordination Sequence:
#
# PCOD8320693 Si02
#       4
#    32  16  32  32
#     4  10  20  34  55  82 115 152 187 230 282 335
#     4  12  22  33  52  80 116 154 186 225 278 340
#     4  10  20  35  57  83 109 142 189 238 281 331
#     4   8  14  28  55  89 117 143 183 232 278 328
#
# _framework density 20.124051999999999
#
# number of rings (size 3 to 8) (size 9 to 14) (size 15 to 20)
#    0.000    2.286    0.000    5.143    0.000    6.857 
#    0.000    0.000   12.571    0.000    0.000    8.000 
#    0.000    0.000    0.000    0.000    0.000    7.286 
#
# Total GULP energy -694257.488242 kJ/mol
# GULP energy per Si atom -12397.455147 kJ/mol
# Density = 2.007825 g / cm^3
# Si number density = 20.124052 Si / 1000 Ang^3
#
#
#
# Elastic Constant Matrix: (Units=GPa)
#
#
# Indices 1 2 3 4 5 6 
#
# 1 74.6907 45.7795 38.9832 0.0007 0.0001 0.0000
# 2 45.7795 74.6927 38.9848 0.0008 0.0004 0.0000
# 3 38.9832 38.9848 123.1753 0.0010 0.0002 0.0000
# 4 0.0007 0.0008 0.0010 2132.3734 0.0165 0.0005
# 5 0.0001 0.0004 0.0002 0.0165 2291.6569 0.0002
# 6 0.0000 0.0000 0.0000 0.0005 0.0002 21.3251
#
#
#
# Elastic Compliance Matrix: (Units=1/GPa)
#
#
# Indices 1 2 3 4 5 6 
#
# 1 0.022513 -0.012074 -0.003304 0.000000 0.000000 0.000000
# 2 -0.012074 0.022513 -0.003304 0.000000 0.000000 0.000000
# 3 -0.003304 -0.003304 0.010210 0.000000 0.000000 0.000000
# 4 0.000000 0.000000 0.000000 0.000469 0.000000 0.000000
# 5 0.000000 0.000000 0.000000 0.000000 0.000436 0.000000
# 6 0.000000 0.000000 0.000000 0.000000 0.000000 0.046893
#
#
# Mechanical properties :
#
#
# Convention : Reuss Voigt Hill
#
# Bulk Modulus (GPa) = 55.95243 57.78374 56.86808
# Shear Modulus (GPa) = 34.16328 898.99184 466.57756
#
# Velocity S-wave (km/s) = 4.12471 21.15880 15.24316
# Velocity P-wave (km/s) = 7.10974 25.01405 18.38819
#
# Compressibility (1/GPa) = 0.01787233
#
# Stress axis : x y z
#
# Youngs Moduli (GPa) = 44.41795 44.41871 97.94522
#
# Poissons Ratio (x) = 0.53632 0.32358
# Poissons Ratio (y) = 0.53631 0.32361
# Poissons Ratio (z) = 0.14674 0.14676
#
# Static dielectric constant tensor:
#      x y z
#    x 3.521140 0.000000 0.000000 
#    y 0.000000 3.521110 0.000000 
#    z 0.000000 0.000000 4.039500 
# 
# 
# High freq. dielectric constant tensor:
#      x y z
#    x 1.760160 0.000000 0.000000 
#    y 0.000000 1.760160 0.000000 
#    z 0.000000 0.000000 1.806400 
# 
# From -- ./inp_files/7902.got.cif
#   From: 2010.03.12/outbox.cif.g09.slc.cpg/sg141_4_cif.got.tgz:7902.got - 2010.04.03 13:18:35.
