data_PCOD8320947
_publ_section_title
;
Structure prediction by ZEFSAII (Michael W. Deem and Ramdas Pophale) SiO2 
 PCOD8320947
Probable space group: I 41/A C D
;
_chemical_formula_sum "Si O2"
_cell_formula_units_Z 184
_cell_length_a 24.935784
_cell_length_b 24.935784
_cell_length_c 15.558325
_cell_angle_alpha 90.000000
_cell_angle_beta 90.000000
_cell_angle_gamma 90.000000
_cell_volume 9674.062613
_symmetry_space_group_name_H-M "I 41/A C D"
_symmetry_group_IT_number 142
_space_group.IT_coordinate_system_code '2'
_symmetry_cell_setting 'tetragonal'
loop_
_space_group_symop_operation_xyz
x,y,z
1/4-y,3/4+x,1/4+z
-x,1/2-y,z
1/4+y,1/4-x,3/4+z
x,-y,1/2-z
1/2-x,y,-z
3/4+y,1/4+x,1/4-z
1/4-y,1/4-x,1/4-z
-x,-y,-z
3/4+y,1/4-x,3/4-z
x,1/2+y,-z
3/4-y,3/4+x,1/4-z
-x,y,1/2+z
1/2+x,-y,z
1/4-y,3/4-x,3/4+z
3/4+y,3/4+x,3/4+z
1/2+x,1/2+y,1/2+z
3/4-y,1/4+x,3/4+z
1/2-x,-y,1/2+z
3/4+y,3/4-x,1/4+z
1/2+x,1/2-y,-z
-x,1/2+y,1/2-z
1/4+y,3/4+x,3/4-z
3/4-y,3/4-x,3/4-z
1/2-x,1/2-y,1/2-z
1/4+y,3/4-x,1/4-z
1/2+x,y,1/2-z
1/4-y,1/4+x,3/4-z
1/2-x,1/2+y,z
x,1/2-y,1/2+z
3/4-y,1/4-x,1/4+z
1/4+y,1/4+x,1/4+z
loop_
_atom_site_type_symbol
_atom_site_label
_atom_site_fract_x
_atom_site_fract_y
_atom_site_fract_z
Si Si1 0.298252 0.563782 0.263236
Si Si2 0.524506 0.363002 0.794828
Si Si3 0.377513 0.659666 0.531944
Si Si4 0.307934 0.433108 0.037632
Si Si5 0.452342 0.822883 0.877695
Si Si6 0.130409 0.880409 0.375000
Si Si7 0.000000 0.750000 0.875000
O O1 0.305749 0.500000 0.250000
O O2 0.307543 0.579097 0.361699
O O3 0.240278 0.585994 0.232166
O O4 0.341224 0.597206 0.209240
O O5 0.470113 0.397938 0.782348
O O6 0.557288 0.360630 0.705283
O O7 0.565356 0.387858 0.865158
O O8 0.501587 0.302924 0.815211
O O9 0.401994 0.651994 0.625000
O O10 0.332418 0.616081 0.514149
O O11 0.423191 0.651788 0.459843
O O12 0.250000 0.441628 0.000000
O O13 0.515251 0.821246 0.897558
#
# Coordination Sequence:
#
# PCOD8320947 Si02
#       7
#    32  32  32  32  32  16   8
#     4  11  20  41  66  95 116 152 207 266 311 366
#     4  10  20  33  56  89 121 167 197 250 308 375
#     4  11  21  36  56  85 121 157 202 247 298 360
#     4  11  22  39  66  89 114 152 204 258 307 363
#     4   9  18  32  53  81 116 154 203 245 287 354
#     4  11  22  35  62  95 126 156 206 251 318 369
#     4  10  16  32  58  82 114 156 212 250 290 344
#
# _framework density 19.019931
#
# number of rings (size 3 to 8) (size 9 to 14) (size 15 to 20)
#    0.000    1.565    2.609    5.739    2.435    0.000 
#    0.000    0.870    3.826    2.087    0.000    0.000 
#    0.000    0.000    0.000    0.000    0.000    0.000 
#
# Total GULP energy -1140334.364426 kJ/mol
# GULP energy per Si atom -12394.938744 kJ/mol
# Density = 1.897664 g / cm^3
# Si number density = 19.019931 Si / 1000 Ang^3
#
#
#
# Elastic Constant Matrix: (Units=GPa)
#
#
# Indices 1 2 3 4 5 6 
#
# 1 78.6728 43.2754 27.7036 0.0000 0.0000 0.0000
# 2 43.2754 78.6728 27.7036 0.0000 0.0000 0.0000
# 3 27.7036 27.7036 121.6323 0.0000 0.0000 0.0000
# 4 0.0000 0.0000 0.0000 23.2459 0.0000 0.0000
# 5 0.0000 0.0000 0.0000 0.0000 23.2459 0.0000
# 6 0.0000 0.0000 0.0000 0.0000 0.0000 29.7891
#
#
#
# Elastic Compliance Matrix: (Units=1/GPa)
#
#
# Indices 1 2 3 4 5 6 
#
# 1 0.018699 -0.009552 -0.002083 0.000000 0.000000 0.000000
# 2 -0.009552 0.018699 -0.002083 0.000000 0.000000 0.000000
# 3 -0.002083 -0.002083 0.009171 0.000000 0.000000 0.000000
# 4 0.000000 0.000000 0.000000 0.043018 0.000000 0.000000
# 5 0.000000 0.000000 0.000000 0.000000 0.043018 0.000000
# 6 0.000000 0.000000 0.000000 0.000000 0.000000 0.033569
#
#
# Mechanical properties :
#
#
# Convention : Reuss Voigt Hill
#
# Bulk Modulus (GPa) = 52.27179 52.92701 52.59940
# Shear Modulus (GPa) = 25.00154 27.27590 26.13872
#
# Velocity S-wave (km/s) = 3.62952 3.79102 3.71115
# Velocity P-wave (km/s) = 6.71617 6.85930 6.78811
#
# Compressibility (1/GPa) = 0.01913078
#
# Stress axis : x y z
#
# Youngs Moduli (GPa) = 53.47970 53.47970 109.04520
#
# Poissons Ratio (x) = 0.51083 0.22717
# Poissons Ratio (y) = 0.51083 0.22717
# Poissons Ratio (z) = 0.11141 0.11141
#
# Static dielectric constant tensor:
#      x y z
#    x 3.427180 0.000000 0.000000 
#    y 0.000000 3.427180 0.000000 
#    z 0.000000 0.000000 3.676000 
# 
# 
# High freq. dielectric constant tensor:
#      x y z
#    x 1.717930 0.000000 0.000000 
#    y 0.000000 1.717930 0.000000 
#    z 0.000000 0.000000 1.764430 
# 
# From -- ./inp_files/7662.got.cif
#   From: 2010.03.12/outbox.cif.g09.slc.cpg/sg142_4_cif.got.tgz:7662.got - 2010.04.03 13:27:16.
