data_PCOD8320644
_publ_section_title
;
Structure prediction by ZEFSAII (Michael W. Deem and Ramdas Pophale) SiO2 
 PCOD8320644
Probable space group: I 41/A M D
;
_chemical_formula_sum "Si O2"
_cell_formula_units_Z 144
_cell_length_a 27.555104
_cell_length_b 27.555104
_cell_length_c 10.141371
_cell_angle_alpha 90.000000
_cell_angle_beta 90.000000
_cell_angle_gamma 90.000000
_cell_volume 7700.178268
_symmetry_space_group_name_H-M "I 41/A M D"
_symmetry_group_IT_number 141
_space_group.IT_coordinate_system_code '2'
_symmetry_cell_setting 'tetragonal'
loop_
_space_group_symop_operation_xyz
x,y,z
1/4-y,3/4+x,1/4+z
-x,1/2-y,z
1/4+y,1/4-x,3/4+z
x,-y,-z
-x,1/2+y,-z
1/4+y,3/4+x,1/4-z
1/4-y,1/4-x,3/4-z
-x,-y,-z
3/4+y,1/4-x,3/4-z
x,1/2+y,-z
3/4-y,3/4+x,1/4-z
-x,y,z
x,1/2-y,z
3/4-y,1/4-x,3/4+z
3/4+y,3/4+x,1/4+z
1/2+x,1/2+y,1/2+z
3/4-y,1/4+x,3/4+z
1/2-x,-y,1/2+z
3/4+y,3/4-x,1/4+z
1/2+x,1/2-y,1/2-z
1/2-x,y,1/2-z
3/4+y,1/4+x,3/4-z
3/4-y,3/4-x,1/4-z
1/2-x,1/2-y,1/2-z
1/4+y,3/4-x,1/4-z
1/2+x,y,1/2-z
1/4-y,1/4+x,3/4-z
1/2-x,1/2+y,1/2+z
1/2+x,-y,1/2+z
1/4-y,3/4-x,1/4+z
1/4+y,1/4+x,3/4+z
loop_
_atom_site_type_symbol
_atom_site_label
_atom_site_fract_x
_atom_site_fract_y
_atom_site_fract_z
Si Si1 0.554902 0.804902 0.875000
Si Si2 0.148291 0.195069 0.515034
Si Si3 0.552307 0.943029 0.019332
Si Si4 0.214626 0.617360 0.367718
Si Si5 0.354179 0.530877 0.131500
O O1 0.563151 0.750000 0.823243
O O2 0.565235 0.840409 0.749973
O O3 0.158375 0.250000 0.563591
O O4 0.168492 0.186327 0.369095
O O5 0.173446 0.158736 0.617717
O O6 0.500000 0.924405 0.076038
O O7 0.598082 0.934413 0.115723
O O8 0.548969 0.000000 0.000000
O O9 0.250000 0.632900 0.250000
O O10 0.190589 0.565693 0.334264
O O11 0.243825 0.612715 0.501788
O O12 0.343009 0.500000 0.000000
#
# Coordination Sequence:
#
# PCOD8320644 Si02
#       5
#    16  32  32  32  32
#     4   9  18  32  56  90 120 144 180 236 298 352
#     4  10  19  34  57  83 115 148 178 225 285 341
#     4   9  16  30  55  82 104 134 183 228 272 327
#     4  12  25  38  52  77 111 147 189 231 280 331
#     4  11  22  37  58  77 103 144 189 238 276 331
#
# _framework density 18.700866000000001
#
# number of rings (size 3 to 8) (size 9 to 14) (size 15 to 20)
#    0.000    1.667    4.444    2.667    0.000    3.111 
#    0.000    0.000    0.000    0.000    0.000    1.556 
#    0.000    0.000    0.000   18.889    0.000    0.000 
#
# Total GULP energy -892319.334085 kJ/mol
# GULP energy per Si atom -12393.324085 kJ/mol
# Density = 1.865830 g / cm^3
# Si number density = 18.700866 Si / 1000 Ang^3
#
#
#
# Elastic Constant Matrix: (Units=GPa)
#
#
# Indices 1 2 3 4 5 6 
#
# 1 102.4527 48.1580 32.8254 0.0000 0.0000 0.0000
# 2 48.1580 102.4527 32.8254 0.0000 0.0000 0.0000
# 3 32.8254 32.8254 64.7363 0.0000 0.0000 0.0000
# 4 0.0000 0.0000 0.0000 21.6021 0.0000 0.0000
# 5 0.0000 0.0000 0.0000 0.0000 21.6021 0.0000
# 6 0.0000 0.0000 0.0000 0.0000 0.0000 33.2212
#
#
#
# Elastic Compliance Matrix: (Units=1/GPa)
#
#
# Indices 1 2 3 4 5 6 
#
# 1 0.013471 -0.004947 -0.004322 0.000000 0.000000 0.000000
# 2 -0.004947 0.013471 -0.004322 0.000000 0.000000 0.000000
# 3 -0.004322 -0.004322 0.019830 0.000000 0.000000 0.000000
# 4 0.000000 0.000000 0.000000 0.046292 0.000000 0.000000
# 5 0.000000 0.000000 0.000000 0.000000 0.046292 0.000000
# 6 0.000000 0.000000 0.000000 0.000000 0.000000 0.030101
#
#
# Mechanical properties :
#
#
# Convention : Reuss Voigt Hill
#
# Bulk Modulus (GPa) = 51.04769 55.25101 53.14935
# Shear Modulus (GPa) = 24.61003 25.67393 25.14198
#
# Velocity S-wave (km/s) = 3.63158 3.70925 3.67062
# Velocity P-wave (km/s) = 6.70379 6.92485 6.81521
#
# Compressibility (1/GPa) = 0.01958953
#
# Stress axis : x y z
#
# Youngs Moduli (GPa) = 74.23473 74.23473 50.42777
#
# Poissons Ratio (x) = 0.36725 0.21795
# Poissons Ratio (y) = 0.36725 0.21795
# Poissons Ratio (z) = 0.32084 0.32084
#
# Static dielectric constant tensor:
#      x y z
#    x 3.408680 0.000000 0.000000 
#    y 0.000000 3.408680 0.000000 
#    z 0.000000 0.000000 3.935200 
# 
# 
# High freq. dielectric constant tensor:
#      x y z
#    x 1.743840 0.000000 0.000000 
#    y 0.000000 1.743840 0.000000 
#    z 0.000000 0.000000 1.665000 
# 
# From -- ./inp_files/3200.got.cif
#   From: 2010.03.12/outbox.cif.g09.slc.cpg/sg141_2_cif.got.tgz:3200.got - 2010.04.03 13:18:35.
