data_PCOD8320482
_publ_section_title
;
Structure prediction by ZEFSAII (Michael W. Deem and Ramdas Pophale) SiO2 
 PCOD8320482
Probable space group: I 4/M C M
;
_chemical_formula_sum "Si O2"
_cell_formula_units_Z 96
_cell_length_a 25.401851
_cell_length_b 25.401851
_cell_length_c 8.674327
_cell_angle_alpha 90.000000
_cell_angle_beta 90.000000
_cell_angle_gamma 90.000000
_cell_volume 5597.144491
_symmetry_space_group_name_H-M "I 4/M C M"
_symmetry_group_IT_number 140
_symmetry_cell_setting 'tetragonal'
loop_
_space_group_symop_operation_xyz
x,y,z
-y,x,z
-x,-y,z
y,-x,z
x,-y,1/2-z
-x,y,1/2-z
y,x,1/2-z
-y,-x,1/2-z
-x,-y,-z
y,-x,-z
x,y,-z
-y,x,-z
-x,y,1/2+z
x,-y,1/2+z
-y,-x,1/2+z
y,x,1/2+z
1/2+x,1/2+y,1/2+z
1/2-y,1/2+x,1/2+z
1/2-x,1/2-y,1/2+z
1/2+y,1/2-x,1/2+z
1/2+x,1/2-y,-z
1/2-x,1/2+y,-z
1/2+y,1/2+x,-z
1/2-y,1/2-x,-z
1/2-x,1/2-y,1/2-z
1/2+y,1/2-x,1/2-z
1/2+x,1/2+y,1/2-z
1/2-y,1/2+x,1/2-z
1/2-x,1/2+y,z
1/2+x,1/2-y,z
1/2-y,1/2-x,z
1/2+y,1/2+x,z
loop_
_atom_site_type_symbol
_atom_site_label
_atom_site_fract_x
_atom_site_fract_y
_atom_site_fract_z
Si Si1 0.557391 0.743656 0.680600
Si Si2 0.057443 0.359413 0.180818
Si Si3 0.860967 0.941508 0.817615
O O1 0.500000 0.747167 0.750000
O O2 0.555232 0.731163 0.500000
O O3 0.582272 0.801218 0.714873
O O4 0.585999 0.694506 0.765198
O O5 0.097812 0.402189 0.250943
O O6 0.000000 0.368292 0.250000
O O7 0.051216 0.367056 0.000000
O O8 0.909110 0.909110 0.750000
O O9 0.864309 0.000000 0.750000
O O10 0.864876 0.943099 0.000000
#
# Coordination Sequence:
#
# PCOD8320482 Si02
#       3
#    32  32  32
#     4   9  16  29  48  68  91 122 160 198 235 277
#     4   9  18  31  47  69  97 128 161 198 240 285
#     4  11  21  34  51  73  99 126 157 192 233 279
#
# _framework density 17.151602
#
# number of rings (size 3 to 8) (size 9 to 14) (size 15 to 20)
#    0.000    2.333    0.000    6.000    0.000    2.667 
#    0.000    3.333    0.000    1.000    0.000    0.000 
#    0.000    0.000    0.000    0.000    0.000    0.000 
#
# Total GULP energy -594690.293385 kJ/mol
# GULP energy per Si atom -12389.381112 kJ/mol
# Density = 1.711256 g / cm^3
# Si number density = 17.151602 Si / 1000 Ang^3
#
#
#
# Elastic Constant Matrix: (Units=GPa)
#
#
# Indices 1 2 3 4 5 6 
#
# 1 105.3025 64.4436 47.8341 0.0000 0.0000 0.0000
# 2 64.4436 105.3025 47.8341 0.0000 0.0000 0.0000
# 3 47.8341 47.8341 113.7998 0.0000 0.0000 0.0000
# 4 0.0000 0.0000 0.0000 24.1236 0.0000 0.0000
# 5 0.0000 0.0000 0.0000 0.0000 24.1236 0.0000
# 6 0.0000 0.0000 0.0000 0.0000 0.0000 4.0441
#
#
#
# Elastic Compliance Matrix: (Units=1/GPa)
#
#
# Indices 1 2 3 4 5 6 
#
# 1 0.016097 -0.008377 -0.003245 0.000000 0.000000 0.000000
# 2 -0.008377 0.016097 -0.003245 0.000000 0.000000 0.000000
# 3 -0.003245 -0.003245 0.011515 0.000000 0.000000 0.000000
# 4 0.000000 0.000000 0.000000 0.041453 0.000000 0.000000
# 5 0.000000 0.000000 0.000000 0.000000 0.041453 0.000000
# 6 0.000000 0.000000 0.000000 0.000000 0.000000 0.247276
#
#
# Mechanical properties :
#
#
# Convention : Reuss Voigt Hill
#
# Bulk Modulus (GPa) = 71.55441 71.62539 71.58990
# Shear Modulus (GPa) = 12.24635 21.41112 16.82873
#
# Velocity S-wave (km/s) = 2.67499 3.53703 3.13577
# Velocity P-wave (km/s) = 7.16590 7.65059 7.41221
#
# Compressibility (1/GPa) = 0.01397538
#
# Stress axis : x y z
#
# Youngs Moduli (GPa) = 62.12244 62.12244 86.84064
#
# Poissons Ratio (x) = 0.52041 0.28180
# Poissons Ratio (y) = 0.52041 0.28180
# Poissons Ratio (z) = 0.20159 0.20159
#
# Static dielectric constant tensor:
#      x y z
#    x 3.718180 0.000000 0.000000 
#    y 0.000000 3.718180 0.000000 
#    z 0.000000 0.000000 3.320860 
# 
# 
# High freq. dielectric constant tensor:
#      x y z
#    x 1.648500 0.000000 0.000000 
#    y 0.000000 1.648500 0.000000 
#    z 0.000000 0.000000 1.675250 
# 
# From -- ./inp_files/915.got.cif
#   From: 2010.06.25/outbox.cif.g09.slc.cpg/sg140_1_cif.got.tgz:915.got - 2010.06.28 10:53:23.
