data_PCOD8320469
_publ_section_title
;
Structure prediction by ZEFSAII (Michael W. Deem and Ramdas Pophale) SiO2 
 PCOD8320469
Probable space group: I 4/M C M
;
_chemical_formula_sum "Si O2"
_cell_formula_units_Z 144
_cell_length_a 18.846648
_cell_length_b 18.846648
_cell_length_c 27.807837
_cell_angle_alpha 90.000000
_cell_angle_beta 90.000000
_cell_angle_gamma 90.000000
_cell_volume 9877.236387
_symmetry_space_group_name_H-M "I 4/M C M"
_symmetry_group_IT_number 140
_symmetry_cell_setting 'tetragonal'
loop_
_space_group_symop_operation_xyz
x,y,z
-y,x,z
-x,-y,z
y,-x,z
x,-y,1/2-z
-x,y,1/2-z
y,x,1/2-z
-y,-x,1/2-z
-x,-y,-z
y,-x,-z
x,y,-z
-y,x,-z
-x,y,1/2+z
x,-y,1/2+z
-y,-x,1/2+z
y,x,1/2+z
1/2+x,1/2+y,1/2+z
1/2-y,1/2+x,1/2+z
1/2-x,1/2-y,1/2+z
1/2+y,1/2-x,1/2+z
1/2+x,1/2-y,-z
1/2-x,1/2+y,-z
1/2+y,1/2+x,-z
1/2-y,1/2-x,-z
1/2-x,1/2-y,1/2-z
1/2+y,1/2-x,1/2-z
1/2+x,1/2+y,1/2-z
1/2-y,1/2+x,1/2-z
1/2-x,1/2+y,z
1/2+x,1/2-y,z
1/2-y,1/2-x,z
1/2+y,1/2+x,z
loop_
_atom_site_type_symbol
_atom_site_label
_atom_site_fract_x
_atom_site_fract_y
_atom_site_fract_z
Si Si1 0.998470 0.383847 0.804835
Si Si2 0.758573 0.625716 0.444400
Si Si3 0.298408 0.014489 0.394990
Si Si4 0.143095 0.760856 0.554724
Si Si5 0.440859 0.940859 0.053794
O O1 0.924590 0.424590 0.815794
O O2 0.000000 0.357199 0.750000
O O3 0.062844 0.437157 0.815050
O O4 0.007554 0.314510 0.838189
O O5 0.759363 0.603241 0.500000
O O6 0.826845 0.673156 0.432522
O O7 0.759714 0.556612 0.411728
O O8 0.687305 0.669029 0.432120
O O9 0.245424 0.079083 0.407248
O O10 0.372684 0.026268 0.421251
O O11 0.114248 0.766187 0.500000
O O12 0.191572 0.691572 0.559694
O O13 0.500000 0.000000 0.054269
O O14 0.418993 0.918993 0.000000
#
# Coordination Sequence:
#
# PCOD8320469 Si02
#       5
#    32  32  32  32  16
#     4   9  17  28  41  61  90 119 144 175 221 275
#     4   9  18  29  41  61  91 120 144 174 219 273
#     4  12  18  27  46  63  84 117 152 182 212 259
#     4   9  17  29  42  60  88 120 149 174 213 273
#     4  11  20  24  36  68  98 107 124 171 225 270
#
# _framework density 14.578977
#
# number of rings (size 3 to 8) (size 9 to 14) (size 15 to 20)
#    0.000    2.111    2.222    6.000    0.000    1.778 
#    0.000    0.000    0.000    2.000    0.000    9.333 
#    0.000    0.000    0.000    2.000    0.000    0.667 
#
# Total GULP energy -892755.170773 kJ/mol
# GULP energy per Si atom -12399.377372 kJ/mol
# Density = 1.454579 g / cm^3
# Si number density = 14.578977 Si / 1000 Ang^3
#
#
#
# Elastic Constant Matrix: (Units=GPa)
#
#
# Indices 1 2 3 4 5 6 
#
# 1 74.3559 38.1041 44.2931 0.0000 0.0000 0.0000
# 2 38.1041 74.3559 44.2931 0.0000 0.0000 0.0000
# 3 44.2931 44.2931 89.7207 0.0000 0.0000 0.0000
# 4 0.0000 0.0000 0.0000 19.6059 0.0000 0.0000
# 5 0.0000 0.0000 0.0000 0.0000 19.6059 0.0000
# 6 0.0000 0.0000 0.0000 0.0000 0.0000 20.1925
#
#
#
# Elastic Compliance Matrix: (Units=1/GPa)
#
#
# Indices 1 2 3 4 5 6 
#
# 1 0.021068 -0.006517 -0.007183 0.000000 0.000000 0.000000
# 2 -0.006517 0.021068 -0.007183 0.000000 0.000000 0.000000
# 3 -0.007183 -0.007183 0.018238 0.000000 0.000000 0.000000
# 4 0.000000 0.000000 0.000000 0.051005 0.000000 0.000000
# 5 0.000000 0.000000 0.000000 0.000000 0.051005 0.000000
# 6 0.000000 0.000000 0.000000 0.000000 0.000000 0.049523
#
#
# Mechanical properties :
#
#
# Convention : Reuss Voigt Hill
#
# Bulk Modulus (GPa) = 53.74608 54.64591 54.19599
# Shear Modulus (GPa) = 19.23998 19.33037 19.28517
#
# Velocity S-wave (km/s) = 3.63672 3.64525 3.64099
# Velocity P-wave (km/s) = 7.38781 7.43513 7.41151
#
# Compressibility (1/GPa) = 0.01860601
#
# Stress axis : x y z
#
# Youngs Moduli (GPa) = 47.46635 47.46635 54.83049
#
# Poissons Ratio (x) = 0.30935 0.39386
# Poissons Ratio (y) = 0.30935 0.39386
# Poissons Ratio (z) = 0.34096 0.34096
#
# Static dielectric constant tensor:
#      x y z
#    x 2.720460 0.000000 0.000000 
#    y 0.000000 2.720460 0.000000 
#    z 0.000000 0.000000 2.850350 
# 
# 
# High freq. dielectric constant tensor:
#      x y z
#    x 1.537760 0.000000 0.000000 
#    y 0.000000 1.537760 0.000000 
#    z 0.000000 0.000000 1.544550 
# 
# From -- ./inp_files/10399.got.cif
#   From: 2010.06.25/outbox.cif.g09.slc.cpg/sg140_6_cif.got.tgz:10399.got - 2010.06.28 10:53:23.
