data_PCOD8320901
_publ_section_title
;
Structure prediction by ZEFSAII (Michael W. Deem and Ramdas Pophale) SiO2 
 PCOD8320901
Probable space group: I 41/A M D
;
_chemical_formula_sum "Si O2"
_cell_formula_units_Z 160
_cell_length_a 19.871935
_cell_length_b 19.871935
_cell_length_c 18.917984
_cell_angle_alpha 90.000000
_cell_angle_beta 90.000000
_cell_angle_gamma 90.000000
_cell_volume 7470.594602
_symmetry_space_group_name_H-M "I 41/A M D"
_symmetry_group_IT_number 141
_space_group.IT_coordinate_system_code '2'
_symmetry_cell_setting 'tetragonal'
loop_
_space_group_symop_operation_xyz
x,y,z
1/4-y,3/4+x,1/4+z
-x,1/2-y,z
1/4+y,1/4-x,3/4+z
x,-y,-z
-x,1/2+y,-z
1/4+y,3/4+x,1/4-z
1/4-y,1/4-x,3/4-z
-x,-y,-z
3/4+y,1/4-x,3/4-z
x,1/2+y,-z
3/4-y,3/4+x,1/4-z
-x,y,z
x,1/2-y,z
3/4-y,1/4-x,3/4+z
3/4+y,3/4+x,1/4+z
1/2+x,1/2+y,1/2+z
3/4-y,1/4+x,3/4+z
1/2-x,-y,1/2+z
3/4+y,3/4-x,1/4+z
1/2+x,1/2-y,1/2-z
1/2-x,y,1/2-z
3/4+y,1/4+x,3/4-z
3/4-y,3/4-x,1/4-z
1/2-x,1/2-y,1/2-z
1/4+y,3/4-x,1/4-z
1/2+x,y,1/2-z
1/4-y,1/4+x,3/4-z
1/2-x,1/2+y,1/2+z
1/2+x,-y,1/2+z
1/4-y,3/4-x,1/4+z
1/4+y,1/4+x,3/4+z
loop_
_atom_site_type_symbol
_atom_site_label
_atom_site_fract_x
_atom_site_fract_y
_atom_site_fract_z
Si Si1 0.778425 0.563123 0.049566
Si Si2 0.143965 0.750000 0.222248
Si Si3 0.920319 0.675024 0.548422
Si Si4 0.920684 0.615934 0.269712
Si Si5 0.228336 0.750000 0.363240
Si Si6 0.624558 0.599030 0.666570
O O1 0.814745 0.564745 0.125000
O O2 0.801967 0.630763 0.010143
O O3 0.698578 0.561150 0.067651
O O4 0.799114 0.500000 0.000000
O O5 0.097406 0.816404 0.226034
O O6 0.193431 0.750000 0.287806
O O7 0.190336 0.750000 0.150832
O O8 0.896574 0.646574 0.625000
O O9 0.892064 0.750000 0.536118
O O10 0.893761 0.629206 0.486194
O O11 0.000000 0.676097 0.547755
O O12 0.900250 0.621808 0.351770
O O13 0.000000 0.602120 0.264133
O O14 0.205017 0.685146 0.406706
#
# Coordination Sequence:
#
# PCOD8320901 Si02
#       6
#    32  16  32  32  16  32
#     4  12  26  47  69  95 134 185 231 282 338 414
#     4   9  19  36  62  96 138 166 218 274 349 405
#     4   9  18  34  59  96 139 177 221 285 353 413
#     4  11  24  42  69 100 134 173 227 287 348 410
#     4   9  18  32  64  98 124 179 214 278 333 418
#     4  11  21  39  68  93 131 171 234 280 343 413
#
# _framework density 21.417304000000001
#
# number of rings (size 3 to 8) (size 9 to 14) (size 15 to 20)
#    0.000    1.600    3.000    2.700    4.200    0.800 
#    1.800    0.000    0.000    1.200    0.000    0.000 
#    0.000    0.000    0.000    0.000    0.000    0.000 
#
# Total GULP energy -991602.372524 kJ/mol
# GULP energy per Si atom -12395.029657 kJ/mol
# Density = 2.136856 g / cm^3
# Si number density = 21.417304 Si / 1000 Ang^3
#
#
#
# Elastic Constant Matrix: (Units=GPa)
#
#
# Indices 1 2 3 4 5 6 
#
# 1 91.6525 27.2805 36.1583 0.0000 0.0000 0.0000
# 2 27.2805 91.6525 36.1583 0.0000 0.0000 0.0000
# 3 36.1583 36.1583 133.3324 0.0000 0.0000 0.0000
# 4 0.0000 0.0000 0.0000 19.7964 0.0000 0.0000
# 5 0.0000 0.0000 0.0000 0.0000 19.7964 0.0000
# 6 0.0000 0.0000 0.0000 0.0000 0.0000 29.1365
#
#
#
# Elastic Compliance Matrix: (Units=1/GPa)
#
#
# Indices 1 2 3 4 5 6 
#
# 1 0.012802 -0.002733 -0.002730 0.000000 0.000000 0.000000
# 2 -0.002733 0.012802 -0.002730 0.000000 0.000000 0.000000
# 3 -0.002730 -0.002730 0.008981 0.000000 0.000000 0.000000
# 4 0.000000 0.000000 0.000000 0.050514 0.000000 0.000000
# 5 0.000000 0.000000 0.000000 0.000000 0.050514 0.000000
# 6 0.000000 0.000000 0.000000 0.000000 0.000000 0.034321
#
#
# Mechanical properties :
#
#
# Convention : Reuss Voigt Hill
#
# Bulk Modulus (GPa) = 54.95735 57.31461 56.13598
# Shear Modulus (GPa) = 25.98928 28.21522 27.10225
#
# Velocity S-wave (km/s) = 3.48727 3.63354 3.56116
# Velocity P-wave (km/s) = 6.47539 6.66502 6.57089
#
# Compressibility (1/GPa) = 0.01819593
#
# Stress axis : x y z
#
# Youngs Moduli (GPa) = 78.11579 78.11579 111.34656
#
# Poissons Ratio (x) = 0.21351 0.30402
# Poissons Ratio (y) = 0.21351 0.30402
# Poissons Ratio (z) = 0.21329 0.21329
#
# Static dielectric constant tensor:
#      x y z
#    x 3.823690 0.000000 0.000000 
#    y 0.000000 3.823690 0.000000 
#    z 0.000000 0.000000 4.051660 
# 
# 
# High freq. dielectric constant tensor:
#      x y z
#    x 1.827110 0.000000 0.000000 
#    y 0.000000 1.827110 0.000000 
#    z 0.000000 0.000000 1.855540 
# 
# From -- ./inp_files/8664.got.cif
#   From: 2010.03.12/outbox.cif.g09.slc.cpg/sg141_5_cif.got.tgz:8664.got - 2010.04.03 13:18:35.
