data_PCOD8320163
_publ_section_title
;
Structure prediction by ZEFSAII (Michael W. Deem and Ramdas Pophale) SiO2 
 PCOD8320163
Probable space group: I 4/M C M
;
_chemical_formula_sum "Si O2"
_cell_formula_units_Z 160
_cell_length_a 31.515338
_cell_length_b 31.515338
_cell_length_c 9.345506
_cell_angle_alpha 90.000000
_cell_angle_beta 90.000000
_cell_angle_gamma 90.000000
_cell_volume 9282.111033
_symmetry_space_group_name_H-M "I 4/M C M"
_symmetry_group_IT_number 140
_symmetry_cell_setting 'tetragonal'
loop_
_space_group_symop_operation_xyz
x,y,z
-y,x,z
-x,-y,z
y,-x,z
x,-y,1/2-z
-x,y,1/2-z
y,x,1/2-z
-y,-x,1/2-z
-x,-y,-z
y,-x,-z
x,y,-z
-y,x,-z
-x,y,1/2+z
x,-y,1/2+z
-y,-x,1/2+z
y,x,1/2+z
1/2+x,1/2+y,1/2+z
1/2-y,1/2+x,1/2+z
1/2-x,1/2-y,1/2+z
1/2+y,1/2-x,1/2+z
1/2+x,1/2-y,-z
1/2-x,1/2+y,-z
1/2+y,1/2+x,-z
1/2-y,1/2-x,-z
1/2-x,1/2-y,1/2-z
1/2+y,1/2-x,1/2-z
1/2+x,1/2+y,1/2-z
1/2-y,1/2+x,1/2-z
1/2-x,1/2+y,z
1/2+x,1/2-y,z
1/2-y,1/2-x,z
1/2+y,1/2+x,z
loop_
_atom_site_type_symbol
_atom_site_label
_atom_site_fract_x
_atom_site_fract_y
_atom_site_fract_z
Si Si1 0.457427 0.710456 0.332192
Si Si2 0.500000 0.869247 0.750000
Si Si3 0.373358 0.688635 0.829790
Si Si4 0.501761 0.068379 0.500000
Si Si5 0.217420 0.650089 0.663498
Si Si6 0.570438 0.194477 0.663564
O O1 0.500000 0.696134 0.250000
O O2 0.458089 0.696307 0.500000
O O3 0.419098 0.688834 0.245744
O O4 0.453147 0.760840 0.320962
O O5 0.509117 0.901037 0.626015
O O6 0.458536 0.840768 0.734589
O O7 0.347888 0.652113 0.750000
O O8 0.348307 0.732632 0.800706
O O9 0.377820 0.679684 0.000000
O O10 0.471259 0.028742 0.500000
O O11 0.550092 0.050092 0.500000
O O12 0.211012 0.635922 0.500000
O O13 0.196161 0.696161 0.692781
O O14 0.193896 0.615622 0.759656
O O15 0.578579 0.182636 0.500000
#
# Coordination Sequence:
#
# PCOD8320163 Si02
#       6
#    32  16  32  16  32  32
#     4  10  19  33  55  79 111 144 174 217 269 316
#     4  12  22  39  60  76  94 124 164 214 273 334
#     4  10  20  35  54  78 109 147 190 228 267 319
#     4  11  26  44  56  68  90 122 162 210 270 338
#     4   9  20  36  53  75 106 141 177 221 269 321
#     4  10  21  35  52  79 104 127 163 210 266 330
#
# _framework density 17.237459000000001
#
# number of rings (size 3 to 8) (size 9 to 14) (size 15 to 20)
#    0.000    1.900    2.000    1.800    1.400    4.800 
#    0.000    0.000    0.000    0.000    0.000    0.000 
#    0.000    0.400    0.000    4.000    0.000    2.400 
#
# Total GULP energy -991733.017874 kJ/mol
# GULP energy per Si atom -12396.662723 kJ/mol
# Density = 1.719823 g / cm^3
# Si number density = 17.237459 Si / 1000 Ang^3
#
#
#
# Elastic Constant Matrix: (Units=GPa)
#
#
# Indices 1 2 3 4 5 6 
#
# 1 95.5952 61.2158 60.9391 0.0000 0.0000 0.0000
# 2 61.2158 95.6034 60.9428 0.0000 0.0000 0.0000
# 3 60.9391 60.9428 138.2056 0.0000 0.0000 0.0000
# 4 0.0000 0.0000 0.0000 32.9946 0.0000 0.0000
# 5 0.0000 0.0000 0.0000 0.0000 32.9945 0.0000
# 6 0.0000 0.0000 0.0000 0.0000 0.0000 33.6550
#
#
#
# Elastic Compliance Matrix: (Units=1/GPa)
#
#
# Indices 1 2 3 4 5 6 
#
# 1 0.019394 -0.009691 -0.004278 0.000000 0.000000 0.000000
# 2 -0.009691 0.019392 -0.004278 0.000000 0.000000 0.000000
# 3 -0.004278 -0.004278 0.011008 0.000000 0.000000 0.000000
# 4 0.000000 0.000000 0.000000 0.030308 0.000000 0.000000
# 5 0.000000 0.000000 0.000000 0.000000 0.030308 0.000000
# 6 0.000000 0.000000 0.000000 0.000000 0.000000 0.029713
#
#
# Mechanical properties :
#
#
# Convention : Reuss Voigt Hill
#
# Bulk Modulus (GPa) = 75.18703 77.28883 76.23793
# Shear Modulus (GPa) = 27.61660 29.68259 28.64960
#
# Velocity S-wave (km/s) = 4.00700 4.15418 4.08125
# Velocity P-wave (km/s) = 8.06977 8.24286 8.15677
#
# Compressibility (1/GPa) = 0.01330017
#
# Stress axis : x y z
#
# Youngs Moduli (GPa) = 51.56361 51.56729 90.84024
#
# Poissons Ratio (x) = 0.49973 0.38861
# Poissons Ratio (y) = 0.49970 0.38863
# Poissons Ratio (z) = 0.22059 0.22061
#
# Static dielectric constant tensor:
#      x y z
#    x 3.120890 0.000000 0.000000 
#    y 0.000000 3.120890 0.000000 
#    z 0.000000 0.000000 3.401330 
# 
# 
# High freq. dielectric constant tensor:
#      x y z
#    x 1.650910 0.000000 0.000000 
#    y 0.000000 1.650900 0.000000 
#    z 0.000000 0.000000 1.685830 
# 
# From -- ./inp_files/1872.got.cif
#   From: 2010.06.25/outbox.cif.g09.slc.cpg/sg140_1_cif.got.tgz:1872.got - 2010.06.28 10:53:23.
