data_PCOD8320534
_publ_section_title
;
Structure prediction by ZEFSAII (Michael W. Deem and Ramdas Pophale) SiO2 
 PCOD8320534
Probable space group: I 4/M C M
;
_chemical_formula_sum "Si O2"
_cell_formula_units_Z 120
_cell_length_a 21.000000
_cell_length_b 21.000000
_cell_length_c 30.000000
_cell_angle_alpha 90.000000
_cell_angle_beta 90.000000
_cell_angle_gamma 90.000000
_cell_volume 13230.000000
_symmetry_space_group_name_H-M "I 4/M C M"
_symmetry_group_IT_number 140
_symmetry_cell_setting 'tetragonal'
loop_
_space_group_symop_operation_xyz
x,y,z
-y,x,z
-x,-y,z
y,-x,z
x,-y,1/2-z
-x,y,1/2-z
y,x,1/2-z
-y,-x,1/2-z
-x,-y,-z
y,-x,-z
x,y,-z
-y,x,-z
-x,y,1/2+z
x,-y,1/2+z
-y,-x,1/2+z
y,x,1/2+z
1/2+x,1/2+y,1/2+z
1/2-y,1/2+x,1/2+z
1/2-x,1/2-y,1/2+z
1/2+y,1/2-x,1/2+z
1/2+x,1/2-y,-z
1/2-x,1/2+y,-z
1/2+y,1/2+x,-z
1/2-y,1/2-x,-z
1/2-x,1/2-y,1/2-z
1/2+y,1/2-x,1/2-z
1/2+x,1/2+y,1/2-z
1/2-y,1/2+x,1/2-z
1/2-x,1/2+y,z
1/2+x,1/2-y,z
1/2-y,1/2-x,z
1/2+y,1/2+x,z
loop_
_atom_site_type_symbol
_atom_site_label
_atom_site_fract_x
_atom_site_fract_y
_atom_site_fract_z
Si Si1 0.179685 0.985183 0.448690
Si Si2 0.381770 0.641165 0.051126
Si Si3 0.690670 0.993261 0.911207
Si Si4 0.203868 0.807596 0.378342
Si Si5 0.897978 0.706312 0.662453
Si Si6 0.067900 0.673740 0.744818
Si Si7 0.789068 0.393271 0.652758
Si Si8 0.500094 0.105205 0.500000
O O1 0.193051 0.998351 0.500000
O O2 0.124484 0.934227 0.441634
O O3 0.244757 0.960308 0.427667
O O4 0.158409 0.051214 0.426192
O O5 0.324882 0.679164 0.073477
O O6 0.377972 0.660651 0.000000
O O7 0.669109 0.946852 0.870901
O O8 0.644246 0.999232 0.953641
O O9 0.706108 0.062033 0.890564
O O10 0.264243 0.764243 0.387869
O O11 0.225176 0.873654 0.355201
O O12 0.151410 0.772847 0.348007
O O13 0.837514 0.662487 0.668648
O O14 0.925988 0.718950 0.711701
O O15 0.120487 0.620487 0.743860
O O16 0.069346 0.715513 0.699627
O O17 0.000000 0.639085 0.750000
O O18 0.853208 0.353208 0.651543
O O19 0.562959 0.062959 0.500000
O O20 0.436449 0.063552 0.500000
#
# Coordination Sequence:
#
# PCOD8320534 Si02
#       8
#    32  32  32  32  32  32  32  16
#     4  10  20  34  53  77 106 138 177 219 268 317
#     4  10  20  34  51  77 107 142 180 222 269 324
#     4  12  19  35  59  77 106 142 186 227 264 316
#     4  10  20  34  51  79 111 138 176 221 276 335
#     4  10  21  35  55  80 107 138 175 224 276 329
#     4  10  20  36  55  79 107 138 178 224 279 332
#     4  10  21  35  55  80 107 138 175 224 276 329
#     4  11  26  42  54  76 114 157 198 230 270 331
#
# _framework density 9.0702949999999998
#
# number of rings (size 3 to 8) (size 9 to 14) (size 15 to 20)
#    0.000    1.667    4.667    0.800    0.000    1.200 
#    0.000    4.000    0.000    0.000    0.000    0.000 
#    0.000    0.000    0.000    4.800    0.000    0.000 
#
# Total GULP energy -1486734.542251 kJ/mol
# GULP energy per Si atom -12389.454519 kJ/mol
# Density = 0.904965 g / cm^3
# Si number density = 9.070295 Si / 1000 Ang^3
#
#
#
# Elastic Constant Matrix: (Units=GPa)
#
#
# Indices 1 2 3 4 5 6 
#
# 1 71.7293 11.4087 38.2782 0.0000 0.0000 0.0000
# 2 11.4087 71.7286 38.2781 0.0000 0.0000 0.0000
# 3 38.2782 38.2781 102.8775 0.0000 0.0000 0.0000
# 4 0.0000 0.0000 0.0000 19.3997 0.0000 0.0000
# 5 0.0000 0.0000 0.0000 0.0000 19.3998 0.0000
# 6 0.0000 0.0000 0.0000 0.0000 0.0000 13.8384
#
#
#
# Elastic Compliance Matrix: (Units=1/GPa)
#
#
# Indices 1 2 3 4 5 6 
#
# 1 0.017438 0.000860 -0.006808 0.000000 0.000000 0.000000
# 2 0.000860 0.017438 -0.006808 0.000000 0.000000 0.000000
# 3 -0.006808 -0.006808 0.014786 0.000000 0.000000 0.000000
# 4 0.000000 0.000000 0.000000 0.051547 0.000000 0.000000
# 5 0.000000 0.000000 0.000000 0.000000 0.051547 0.000000
# 6 0.000000 0.000000 0.000000 0.000000 0.000000 0.072263
#
#
# Mechanical properties :
#
#
# Convention : Reuss Voigt Hill
#
# Bulk Modulus (GPa) = 41.40930 46.91837 44.16384
# Shear Modulus (GPa) = 19.33627 21.08560 20.21094
#
# Velocity S-wave (km/s) = 3.26837 3.41301 3.34148
# Velocity P-wave (km/s) = 6.09257 6.43828 6.26781
#
# Compressibility (1/GPa) = 0.02414916
#
# Stress axis : x y z
#
# Youngs Moduli (GPa) = 57.34722 57.34663 67.62956
#
# Poissons Ratio (x) = -0.04929 0.46042
# Poissons Ratio (y) = -0.04929 0.46042
# Poissons Ratio (z) = 0.39042 0.39041
#
# Static dielectric constant tensor:
#      x y z
#    x 3.323580 0.000000 0.000000 
#    y 0.000000 3.323580 0.000000 
#    z 0.000000 0.000000 3.631060 
# 
# 
# High freq. dielectric constant tensor:
#      x y z
#    x 1.687550 0.000000 0.000000 
#    y 0.000000 1.687550 0.000000 
#    z 0.000000 0.000000 1.704040 
# 
# From -- ./inp_files/11794.got.cif
#   From: 2010.06.25/outbox.ucp.g09.slc.cvg/sg140_6_cif.got.tgz:11794.got - 2010.06.28 16:51:58.
