data_PCOD8320355
_publ_section_title
;
Structure prediction by ZEFSAII (Michael W. Deem and Ramdas Pophale) SiO2 
 PCOD8320355
Probable space group: I 4/M C M
;
_chemical_formula_sum "Si O2"
_cell_formula_units_Z 176
_cell_length_a 25.510077
_cell_length_b 25.510077
_cell_length_c 13.331471
_cell_angle_alpha 90.000000
_cell_angle_beta 90.000000
_cell_angle_gamma 90.000000
_cell_volume 8675.641774
_symmetry_space_group_name_H-M "I 4/M C M"
_symmetry_group_IT_number 140
_symmetry_cell_setting 'tetragonal'
loop_
_space_group_symop_operation_xyz
x,y,z
-y,x,z
-x,-y,z
y,-x,z
x,-y,1/2-z
-x,y,1/2-z
y,x,1/2-z
-y,-x,1/2-z
-x,-y,-z
y,-x,-z
x,y,-z
-y,x,-z
-x,y,1/2+z
x,-y,1/2+z
-y,-x,1/2+z
y,x,1/2+z
1/2+x,1/2+y,1/2+z
1/2-y,1/2+x,1/2+z
1/2-x,1/2-y,1/2+z
1/2+y,1/2-x,1/2+z
1/2+x,1/2-y,-z
1/2-x,1/2+y,-z
1/2+y,1/2+x,-z
1/2-y,1/2-x,-z
1/2-x,1/2-y,1/2-z
1/2+y,1/2-x,1/2-z
1/2+x,1/2+y,1/2-z
1/2-y,1/2+x,1/2-z
1/2-x,1/2+y,z
1/2+x,1/2-y,z
1/2-y,1/2-x,z
1/2+y,1/2+x,z
loop_
_atom_site_type_symbol
_atom_site_label
_atom_site_fract_x
_atom_site_fract_y
_atom_site_fract_z
Si Si1 0.244344 0.660653 0.387576
Si Si2 0.080859 0.335594 0.805012
Si Si3 0.471436 0.803639 0.613088
Si Si4 0.840187 0.840187 0.250000
Si Si5 0.011159 0.919776 0.883268
Si Si6 0.314485 0.440027 0.382730
O O1 0.249852 0.637697 0.500000
O O2 0.217145 0.717145 0.390533
O O3 0.211213 0.621131 0.320322
O O4 0.300504 0.668849 0.340370
O O5 0.108753 0.391248 0.832301
O O6 0.065604 0.336253 0.687621
O O7 0.030617 0.324490 0.874192
O O8 0.453022 0.814887 0.500000
O O9 0.466413 0.741844 0.639308
O O10 0.829472 0.895112 0.196032
O O11 0.059289 0.955764 0.839338
O O12 0.016009 0.858312 0.858764
O O13 0.013770 0.928462 0.000000
O O14 0.317504 0.421338 0.500000
#
# Coordination Sequence:
#
# PCOD8320355 Si02
#       6
#    32  32  32  16  32  32
#     4  10  21  37  57  82 114 154 201 251 304 365
#     4  10  21  40  65  93 124 161 204 250 305 372
#     4  10  21  39  63  93 126 158 197 251 307 368
#     4  12  21  36  54  83 118 162 202 250 304 361
#     4   8  15  31  53  75 105 150 203 253 298 346
#     4  10  21  36  55  84 120 160 205 252 308 362
#
# _framework density 20.286684000000001
#
# number of rings (size 3 to 8) (size 9 to 14) (size 15 to 20)
#    0.000    2.182    1.818    1.909    0.000    2.909 
#    0.000    3.636    0.000    5.455    0.000    5.091 
#    0.000    0.000    0.000    0.000    0.000    0.000 
#
# Total GULP energy -1090476.974769 kJ/mol
# GULP energy per Si atom -12391.783804 kJ/mol
# Density = 2.024051 g / cm^3
# Si number density = 20.286684 Si / 1000 Ang^3
#
#
#
# Elastic Constant Matrix: (Units=GPa)
#
#
# Indices 1 2 3 4 5 6 
#
# 1 340.4612 -216.2262 26.5035 0.0000 0.0000 0.0000
# 2 -216.2262 340.4612 26.5035 0.0000 0.0000 0.0000
# 3 26.5035 26.5035 102.6684 0.0000 0.0000 0.0000
# 4 0.0000 0.0000 0.0000 20.3160 0.0000 0.0000
# 5 0.0000 0.0000 0.0000 0.0000 20.3160 0.0000
# 6 0.0000 0.0000 0.0000 0.0000 0.0000 27.3010
#
#
#
# Elastic Compliance Matrix: (Units=1/GPa)
#
#
# Indices 1 2 3 4 5 6 
#
# 1 0.005421 0.003625 -0.002335 0.000000 0.000000 0.000000
# 2 0.003625 0.005421 -0.002335 0.000000 0.000000 0.000000
# 3 -0.002335 -0.002335 0.010946 0.000000 0.000000 0.000000
# 4 0.000000 0.000000 0.000000 0.049222 0.000000 0.000000
# 5 0.000000 0.000000 0.000000 0.000000 0.049222 0.000000
# 6 0.000000 0.000000 0.000000 0.000000 0.000000 0.036629
#
#
# Mechanical properties :
#
#
# Convention : Reuss Voigt Hill
#
# Bulk Modulus (GPa) = 50.77047 50.79470 50.78258
# Shear Modulus (GPa) = 30.20832 76.70728 53.45780
#
# Velocity S-wave (km/s) = 3.86303 6.15579 5.13891
# Velocity P-wave (km/s) = 6.70658 8.69585 7.76518
#
# Compressibility (1/GPa) = 0.01969649
#
# Stress axis : x y z
#
# Youngs Moduli (GPa) = 184.46933 184.46933 91.36017
#
# Poissons Ratio (x) = -0.66863 0.21333
# Poissons Ratio (y) = -0.66863 0.21333
# Poissons Ratio (z) = 0.43075 0.43075
#
# Static dielectric constant tensor:
#      x y z
#    x 3.666950 0.000000 0.000000 
#    y 0.000000 3.666950 0.000000 
#    z 0.000000 0.000000 3.804140 
# 
# 
# High freq. dielectric constant tensor:
#      x y z
#    x 1.778880 0.000000 0.000000 
#    y 0.000000 1.778880 0.000000 
#    z 0.000000 0.000000 1.812220 
# 
# From -- ./inp_files/4957.got.cif
#   From: 2010.06.25/outbox.cif.g09.slc.cpg/sg140_3_cif.got.tgz:4957.got - 2010.06.28 10:53:23.
