data_PCOD8320441
_publ_section_title
;
Structure prediction by ZEFSAII (Michael W. Deem and Ramdas Pophale) SiO2 
 PCOD8320441
Probable space group: I 4/M C M
;
_chemical_formula_sum "Si O2"
_cell_formula_units_Z 176
_cell_length_a 16.561861
_cell_length_b 16.561861
_cell_length_c 30.420268
_cell_angle_alpha 90.000000
_cell_angle_beta 90.000000
_cell_angle_gamma 90.000000
_cell_volume 8344.134705
_symmetry_space_group_name_H-M "I 4/M C M"
_symmetry_group_IT_number 140
_symmetry_cell_setting 'tetragonal'
loop_
_space_group_symop_operation_xyz
x,y,z
-y,x,z
-x,-y,z
y,-x,z
x,-y,1/2-z
-x,y,1/2-z
y,x,1/2-z
-y,-x,1/2-z
-x,-y,-z
y,-x,-z
x,y,-z
-y,x,-z
-x,y,1/2+z
x,-y,1/2+z
-y,-x,1/2+z
y,x,1/2+z
1/2+x,1/2+y,1/2+z
1/2-y,1/2+x,1/2+z
1/2-x,1/2-y,1/2+z
1/2+y,1/2-x,1/2+z
1/2+x,1/2-y,-z
1/2-x,1/2+y,-z
1/2+y,1/2+x,-z
1/2-y,1/2-x,-z
1/2-x,1/2-y,1/2-z
1/2+y,1/2-x,1/2-z
1/2+x,1/2+y,1/2-z
1/2-y,1/2+x,1/2-z
1/2-x,1/2+y,z
1/2+x,1/2-y,z
1/2-y,1/2-x,z
1/2+y,1/2+x,z
loop_
_atom_site_type_symbol
_atom_site_label
_atom_site_fract_x
_atom_site_fract_y
_atom_site_fract_z
Si Si1 0.881190 0.941414 0.422077
Si Si2 0.059911 0.116286 0.177603
Si Si3 0.499542 0.131879 0.629471
Si Si4 0.665497 0.665497 0.750000
Si Si5 0.918171 0.289339 0.548757
Si Si6 0.694081 0.930935 0.784221
O O1 0.854847 0.926120 0.371801
O O2 0.807710 0.906811 0.450508
O O3 0.963699 0.894104 0.432350
O O4 0.093367 0.174966 0.214687
O O5 0.966129 0.107456 0.186769
O O6 0.420311 0.079690 0.644005
O O7 0.482304 0.182578 0.585274
O O8 0.527096 0.195727 0.667244
O O9 0.572404 0.072404 0.617643
O O10 0.745961 0.647421 0.721188
O O11 0.949937 0.312913 0.500000
O O12 0.831646 0.331646 0.557450
O O13 0.603695 0.896306 0.777367
O O14 0.713233 0.000000 0.750000
#
# Coordination Sequence:
#
# PCOD8320441 Si02
#       6
#    32  32  32  16  32  32
#     4   9  20  38  63  90 120 161 208 249 296 367
#     4   9  18  33  53  81 117 160 202 236 280 347
#     4   9  20  40  64  88 118 161 209 254 305 370
#     4  12  23  33  56  90 124 155 194 252 307 350
#     4  10  22  40  64  94 124 154 198 262 328 378
#     4  11  24  40  59  86 122 162 207 248 292 354
#
# _framework density 21.092659999999999
#
# number of rings (size 3 to 8) (size 9 to 14) (size 15 to 20)
#    0.000    2.182    0.000    3.545    7.636    2.727 
#    0.000    4.545    0.000    0.000    0.000    0.000 
#    0.000    0.000    0.000    0.000    0.000    0.000 
#
# Total GULP energy -1090310.308562 kJ/mol
# GULP energy per Si atom -12389.889870 kJ/mol
# Density = 2.104465 g / cm^3
# Si number density = 21.092660 Si / 1000 Ang^3
#
#
#
# Elastic Constant Matrix: (Units=GPa)
#
#
# Indices 1 2 3 4 5 6 
#
# 1 78.6934 52.3763 59.0295 0.0000 0.0000 0.0000
# 2 52.3763 78.6934 59.0295 0.0000 0.0000 0.0000
# 3 59.0295 59.0295 126.7310 0.0000 0.0000 0.0000
# 4 0.0000 0.0000 0.0000 26.1124 0.0000 0.0000
# 5 0.0000 0.0000 0.0000 0.0000 26.1124 0.0000
# 6 0.0000 0.0000 0.0000 0.0000 0.0000 30.9165
#
#
#
# Elastic Compliance Matrix: (Units=1/GPa)
#
#
# Indices 1 2 3 4 5 6 
#
# 1 0.025571 -0.012427 -0.006122 0.000000 0.000000 0.000000
# 2 -0.012427 0.025571 -0.006122 0.000000 0.000000 0.000000
# 3 -0.006122 -0.006122 0.013594 0.000000 0.000000 0.000000
# 4 0.000000 0.000000 0.000000 0.038296 0.000000 0.000000
# 5 0.000000 0.000000 0.000000 0.000000 0.038296 0.000000
# 6 0.000000 0.000000 0.000000 0.000000 0.000000 0.032345
#
#
# Mechanical properties :
#
#
# Convention : Reuss Voigt Hill
#
# Bulk Modulus (GPa) = 64.96454 69.44313 67.20384
# Shear Modulus (GPa) = 21.91561 24.20709 23.06135
#
# Velocity S-wave (km/s) = 3.22687 3.39138 3.31015
# Velocity P-wave (km/s) = 6.68955 6.95195 6.82201
#
# Compressibility (1/GPa) = 0.01539301
#
# Stress axis : x y z
#
# Youngs Moduli (GPa) = 39.10666 39.10666 73.56116
#
# Poissons Ratio (x) = 0.48598 0.45037
# Poissons Ratio (y) = 0.48598 0.45037
# Poissons Ratio (z) = 0.23942 0.23942
#
# Static dielectric constant tensor:
#      x y z
#    x 3.716650 0.000000 0.000000 
#    y 0.000000 3.716650 0.000000 
#    z 0.000000 0.000000 3.838720 
# 
# 
# High freq. dielectric constant tensor:
#      x y z
#    x 1.819230 0.000000 0.000000 
#    y 0.000000 1.819230 0.000000 
#    z 0.000000 0.000000 1.826710 
# 
# From -- ./inp_files/11536.got.cif
#   From: 2010.06.25/outbox.cif.g09.slc.cpg/sg140_6_cif.got.tgz:11536.got - 2010.06.28 10:53:23.
