data_PCOD8320922
_publ_section_title
;
Structure prediction by ZEFSAII (Michael W. Deem and Ramdas Pophale) SiO2 
 PCOD8320922
Probable space group: I 41/A M D
;
_chemical_formula_sum "Si O2"
_cell_formula_units_Z 96
_cell_length_a 20.579224
_cell_length_b 20.579224
_cell_length_c 10.237270
_cell_angle_alpha 90.000000
_cell_angle_beta 90.000000
_cell_angle_gamma 90.000000
_cell_volume 4335.529508
_symmetry_space_group_name_H-M "I 41/A M D"
_symmetry_group_IT_number 141
_space_group.IT_coordinate_system_code '2'
_symmetry_cell_setting 'tetragonal'
loop_
_space_group_symop_operation_xyz
x,y,z
1/4-y,3/4+x,1/4+z
-x,1/2-y,z
1/4+y,1/4-x,3/4+z
x,-y,-z
-x,1/2+y,-z
1/4+y,3/4+x,1/4-z
1/4-y,1/4-x,3/4-z
-x,-y,-z
3/4+y,1/4-x,3/4-z
x,1/2+y,-z
3/4-y,3/4+x,1/4-z
-x,y,z
x,1/2-y,z
3/4-y,1/4-x,3/4+z
3/4+y,3/4+x,1/4+z
1/2+x,1/2+y,1/2+z
3/4-y,1/4+x,3/4+z
1/2-x,-y,1/2+z
3/4+y,3/4-x,1/4+z
1/2+x,1/2-y,1/2-z
1/2-x,y,1/2-z
3/4+y,1/4+x,3/4-z
3/4-y,3/4-x,1/4-z
1/2-x,1/2-y,1/2-z
1/4+y,3/4-x,1/4-z
1/2+x,y,1/2-z
1/4-y,1/4+x,3/4-z
1/2-x,1/2+y,1/2+z
1/2+x,-y,1/2+z
1/4-y,3/4-x,1/4+z
1/4+y,1/4+x,3/4+z
loop_
_atom_site_type_symbol
_atom_site_label
_atom_site_fract_x
_atom_site_fract_y
_atom_site_fract_z
Si Si1 0.928244 0.370111 0.248812
Si Si2 0.855671 0.508352 0.644535
Si Si3 0.074816 0.112128 0.750957
O O1 0.926322 0.323679 0.375000
O O2 0.882333 0.431695 0.271073
O O3 0.907590 0.327769 0.125031
O O4 0.000000 0.397244 0.225779
O O5 0.888448 0.500000 0.500000
O O6 0.778470 0.528470 0.625000
O O7 0.872970 0.446042 0.731528
O O8 0.000000 0.087624 0.768279
O O9 0.096161 0.153840 0.875000
#
# Coordination Sequence:
#
# PCOD8320922 Si02
#       3
#    32  32  32
#     4  11  23  41  69 103 136 187 243 292 351 423
#     4  11  23  46  72 102 135 183 241 306 356 422
#     4  12  27  47  72 105 150 194 234 295 365 431
#
# _framework density 22.142624999999999
#
# number of rings (size 3 to 8) (size 9 to 14) (size 15 to 20)
#    0.000    0.667    6.667    3.000    0.000    8.000 
#    0.000    3.333    0.000    0.000    0.000    0.000 
#    0.000    0.000    0.000    0.000    0.000    0.000 
#
# Total GULP energy -594733.346835 kJ/mol
# GULP energy per Si atom -12390.278059 kJ/mol
# Density = 2.209223 g / cm^3
# Si number density = 22.142625 Si / 1000 Ang^3
#
#
#
# Elastic Constant Matrix: (Units=GPa)
#
#
# Indices 1 2 3 4 5 6 
#
# 1 96.8295 18.3437 56.1384 0.0000 0.0000 0.0000
# 2 18.3437 96.8303 56.1349 0.0000 0.0000 0.0000
# 3 56.1384 56.1349 134.8266 0.0000 0.0000 0.0000
# 4 0.0000 0.0000 0.0000 7.2576 0.0000 0.0000
# 5 0.0000 0.0000 0.0000 0.0000 7.2575 0.0000
# 6 0.0000 0.0000 0.0000 0.0000 0.0000 19.5939
#
#
#
# Elastic Compliance Matrix: (Units=1/GPa)
#
#
# Indices 1 2 3 4 5 6 
#
# 1 0.013678 0.000936 -0.006085 0.000000 0.000000 0.000000
# 2 0.000936 0.013677 -0.006084 0.000000 0.000000 0.000000
# 3 -0.006085 -0.006084 0.012484 0.000000 0.000000 0.000000
# 4 0.000000 0.000000 0.000000 0.137786 0.000000 0.000000
# 5 0.000000 0.000000 0.000000 0.000000 0.137788 0.000000
# 6 0.000000 0.000000 0.000000 0.000000 0.000000 0.051036
#
#
# Mechanical properties :
#
#
# Convention : Reuss Voigt Hill
#
# Bulk Modulus (GPa) = 57.56060 65.52450 61.54255
# Shear Modulus (GPa) = 12.66763 20.01310 16.34036
#
# Velocity S-wave (km/s) = 2.39444 3.00963 2.71949
# Velocity P-wave (km/s) = 5.80485 6.46014 6.14124
#
# Compressibility (1/GPa) = 0.01737300
#
# Stress axis : x y z
#
# Youngs Moduli (GPa) = 73.11058 73.11431 80.10362
#
# Poissons Ratio (x) = -0.06847 0.48743
# Poissons Ratio (y) = -0.06847 0.48738
# Poissons Ratio (z) = 0.44488 0.44486
#
# Static dielectric constant tensor:
#      x y z
#    x 4.133520 0.000000 0.000000 
#    y 0.000000 4.133510 0.000000 
#    z 0.000000 0.000000 4.108450 
# 
# 
# High freq. dielectric constant tensor:
#      x y z
#    x 1.862270 0.000000 0.000000 
#    y 0.000000 1.862270 0.000000 
#    z 0.000000 0.000000 1.880690 
# 
# From -- ./inp_files/2509.got.cif
#   From: 2010.03.12/outbox.cif.g09.slc.cpg/sg141_2_cif.got.tgz:2509.got - 2010.04.03 13:18:35.
