data_PCOD8320221
_publ_section_title
;
Structure prediction by ZEFSAII (Michael W. Deem and Ramdas Pophale) SiO2 
 PCOD8320221
Probable space group: I 4/M C M
;
_chemical_formula_sum "Si O2"
_cell_formula_units_Z 212
_cell_length_a 21.403308
_cell_length_b 21.403308
_cell_length_c 25.165288
_cell_angle_alpha 90.000000
_cell_angle_beta 90.000000
_cell_angle_gamma 90.000000
_cell_volume 11528.258530
_symmetry_space_group_name_H-M "I 4/M C M"
_symmetry_group_IT_number 140
_symmetry_cell_setting 'tetragonal'
loop_
_space_group_symop_operation_xyz
x,y,z
-y,x,z
-x,-y,z
y,-x,z
x,-y,1/2-z
-x,y,1/2-z
y,x,1/2-z
-y,-x,1/2-z
-x,-y,-z
y,-x,-z
x,y,-z
-y,x,-z
-x,y,1/2+z
x,-y,1/2+z
-y,-x,1/2+z
y,x,1/2+z
1/2+x,1/2+y,1/2+z
1/2-y,1/2+x,1/2+z
1/2-x,1/2-y,1/2+z
1/2+y,1/2-x,1/2+z
1/2+x,1/2-y,-z
1/2-x,1/2+y,-z
1/2+y,1/2+x,-z
1/2-y,1/2-x,-z
1/2-x,1/2-y,1/2-z
1/2+y,1/2-x,1/2-z
1/2+x,1/2+y,1/2-z
1/2-y,1/2+x,1/2-z
1/2-x,1/2+y,z
1/2+x,1/2-y,z
1/2-y,1/2-x,z
1/2+y,1/2+x,z
loop_
_atom_site_type_symbol
_atom_site_label
_atom_site_fract_x
_atom_site_fract_y
_atom_site_fract_z
Si Si1 0.616537 0.220567 0.438268
Si Si2 0.004946 0.682510 0.867641
Si Si3 0.392997 0.790847 0.715353
Si Si4 0.649693 0.680641 0.854301
Si Si5 0.779323 0.620481 0.161371
Si Si6 0.500000 0.000000 0.250000
Si Si7 0.429435 0.426615 0.811254
Si Si8 0.451887 0.951887 0.852413
O O1 0.609916 0.235009 0.500000
O O2 0.668938 0.168938 0.426149
O O3 0.550249 0.195305 0.417078
O O4 0.634912 0.285211 0.409809
O O5 0.041698 0.691008 0.812190
O O6 0.944790 0.728589 0.870429
O O7 0.972973 0.615338 0.872020
O O8 0.343480 0.843480 0.698969
O O9 0.368573 0.724602 0.694505
O O10 0.400771 0.783553 0.777640
O O11 0.722708 0.666168 0.851354
O O12 0.610892 0.616580 0.850174
O O13 0.842932 0.657069 0.146264
O O14 0.543705 0.043705 0.212481
O O15 0.501737 0.412944 0.823377
O O16 0.412636 0.412636 0.750000
O O17 0.500000 0.000000 0.879200
#
# Coordination Sequence:
#
# PCOD8320221 Si02
#       8
#    32  32  32  32  32   4  32  16
#     4  10  23  45  67  82 103 144 202 256 305 360
#     4  11  21  35  55  85 117 157 198 243 285 345
#     4  10  21  33  52  78 120 165 202 228 269 342
#     4  11  21  36  59  85 111 149 195 247 291 345
#     4  11  22  33  52  83 126 155 186 230 291 344
#     4   8  24  24  56  76 126 176 204 208 276 348
#     4   9  19  34  54  83 122 160 187 215 265 341
#     4  10  20  32  51  80 124 165 202 232 272 342
#
# _framework density 18.389595
#
# number of rings (size 3 to 8) (size 9 to 14) (size 15 to 20)
#    0.226    1.509    0.755    5.887    6.340    1.208 
#    0.000    1.132    0.000    2.264    0.000    1.057 
#    0.000    0.000    0.000    0.000    0.000    0.000 
#
# Total GULP energy -1314212.340908 kJ/mol
# GULP energy per Si atom -12398.229631 kJ/mol
# Density = 1.834774 g / cm^3
# Si number density = 18.389595 Si / 1000 Ang^3
#
#
#
# Elastic Constant Matrix: (Units=GPa)
#
#
# Indices 1 2 3 4 5 6 
#
# 1 115.0228 53.6893 43.3070 0.0000 0.0000 0.0000
# 2 53.6893 115.0228 43.3070 0.0000 0.0000 0.0000
# 3 43.3070 43.3070 80.5491 0.0000 0.0000 0.0000
# 4 0.0000 0.0000 0.0000 15.0658 0.0000 0.0000
# 5 0.0000 0.0000 0.0000 0.0000 15.0658 0.0000
# 6 0.0000 0.0000 0.0000 0.0000 0.0000 85.2853
#
#
#
# Elastic Compliance Matrix: (Units=1/GPa)
#
#
# Indices 1 2 3 4 5 6 
#
# 1 0.012246 -0.004059 -0.004402 0.000000 0.000000 0.000000
# 2 -0.004059 0.012246 -0.004402 0.000000 0.000000 0.000000
# 3 -0.004402 -0.004402 0.017148 0.000000 0.000000 0.000000
# 4 0.000000 0.000000 0.000000 0.066376 0.000000 0.000000
# 5 0.000000 0.000000 0.000000 0.000000 0.066376 0.000000
# 6 0.000000 0.000000 0.000000 0.000000 0.000000 0.011725
#
#
# Mechanical properties :
#
#
# Convention : Reuss Voigt Hill
#
# Bulk Modulus (GPa) = 62.83351 65.68904 64.26127
# Shear Modulus (GPa) = 23.02609 34.43615 28.73112
#
# Velocity S-wave (km/s) = 3.54238 4.33204 3.95695
# Velocity P-wave (km/s) = 7.13957 7.79874 7.47642
#
# Compressibility (1/GPa) = 0.01591508
#
# Stress axis : x y z
#
# Youngs Moduli (GPa) = 81.66156 81.66156 58.31610
#
# Poissons Ratio (x) = 0.33143 0.25669
# Poissons Ratio (y) = 0.33143 0.25669
# Poissons Ratio (z) = 0.35945 0.35945
#
# Static dielectric constant tensor:
#      x y z
#    x 3.648330 0.000000 0.000000 
#    y 0.000000 3.648330 0.000000 
#    z 0.000000 0.000000 3.018250 
# 
# 
# High freq. dielectric constant tensor:
#      x y z
#    x 1.726970 0.000000 0.000000 
#    y 0.000000 1.726970 0.000000 
#    z 0.000000 0.000000 1.665340 
# 
# From -- ./inp_files/10953.got.cif
#   From: 2010.06.25/outbox.cif.g09.slc.cpg/sg140_6_cif.got.tgz:10953.got - 2010.06.28 10:53:23.
