data_PCOD8320399
_publ_section_title
;
Structure prediction by ZEFSAII (Michael W. Deem and Ramdas Pophale) SiO2 
 PCOD8320399
Probable space group: I 4/M C M
;
_chemical_formula_sum "Si O2"
_cell_formula_units_Z 176
_cell_length_a 18.271935
_cell_length_b 18.271935
_cell_length_c 26.688172
_cell_angle_alpha 90.000000
_cell_angle_beta 90.000000
_cell_angle_gamma 90.000000
_cell_volume 8910.209412
_symmetry_space_group_name_H-M "I 4/M C M"
_symmetry_group_IT_number 140
_symmetry_cell_setting 'tetragonal'
loop_
_space_group_symop_operation_xyz
x,y,z
-y,x,z
-x,-y,z
y,-x,z
x,-y,1/2-z
-x,y,1/2-z
y,x,1/2-z
-y,-x,1/2-z
-x,-y,-z
y,-x,-z
x,y,-z
-y,x,-z
-x,y,1/2+z
x,-y,1/2+z
-y,-x,1/2+z
y,x,1/2+z
1/2+x,1/2+y,1/2+z
1/2-y,1/2+x,1/2+z
1/2-x,1/2-y,1/2+z
1/2+y,1/2-x,1/2+z
1/2+x,1/2-y,-z
1/2-x,1/2+y,-z
1/2+y,1/2+x,-z
1/2-y,1/2-x,-z
1/2-x,1/2-y,1/2-z
1/2+y,1/2-x,1/2-z
1/2+x,1/2+y,1/2-z
1/2-y,1/2+x,1/2-z
1/2-x,1/2+y,z
1/2+x,1/2-y,z
1/2-y,1/2-x,z
1/2+y,1/2+x,z
loop_
_atom_site_type_symbol
_atom_site_label
_atom_site_fract_x
_atom_site_fract_y
_atom_site_fract_z
Si Si1 0.201318 0.065915 0.500000
Si Si2 0.127296 0.251004 0.751037
Si Si3 0.770244 0.149101 0.500000
Si Si4 0.380801 0.487258 0.906776
Si Si5 0.572994 0.186395 0.415437
Si Si6 0.235479 0.997825 0.827716
Si Si7 0.521049 0.861023 0.500000
O O1 0.167905 0.145622 0.500000
O O2 0.178159 0.020404 0.450959
O O3 0.288413 0.071042 0.500000
O O4 0.182334 0.182334 0.750000
O O5 0.173802 0.326199 0.744168
O O6 0.068133 0.236625 0.708078
O O7 0.079320 0.257516 0.801956
O O8 0.722367 0.222367 0.500000
O O9 0.753758 0.102832 0.550525
O O10 0.435934 0.420544 0.912656
O O11 0.344417 0.485649 0.851748
O O12 0.641676 0.141676 0.392148
O O13 0.517439 0.209475 0.372143
O O14 0.528902 0.132595 0.451227
O O15 0.568892 0.931109 0.500000
#
# Coordination Sequence:
#
# PCOD8320399 Si02
#       7
#    16  32  16  32  32  32  16
#     4  12  21  36  56  82 128 164 199 243 286 339
#     4  10  23  42  64  90 118 151 195 250 309 367
#     4   9  20  36  58  88 123 167 211 244 290 342
#     4  11  23  36  56  89 124 161 198 233 286 353
#     4  10  21  39  61  86 116 158 202 244 292 350
#     4  11  21  40  64  88 118 154 196 247 303 359
#     4  11  23  38  54  82 119 157 198 242 287 341
#
# _framework density 19.752623
#
# number of rings (size 3 to 8) (size 9 to 14) (size 15 to 20)
#    0.000    1.455    1.818    4.364    2.545    2.182 
#    0.000    1.818    0.000   13.091    0.000    0.000 
#    0.000    0.000    0.000    0.000    0.000    0.000 
#
# Total GULP energy -1090840.690398 kJ/mol
# GULP energy per Si atom -12395.916936 kJ/mol
# Density = 1.970766 g / cm^3
# Si number density = 19.752623 Si / 1000 Ang^3
#
#
#
# Elastic Constant Matrix: (Units=GPa)
#
#
# Indices 1 2 3 4 5 6 
#
# 1 101.7668 44.8604 35.5460 0.0000 0.0000 0.0000
# 2 44.8604 101.7619 35.5448 0.0000 0.0000 0.0000
# 3 35.5460 35.5448 111.5991 0.0000 0.0000 0.0000
# 4 0.0000 0.0000 0.0000 27.1625 0.0000 0.0000
# 5 0.0000 0.0000 0.0000 0.0000 27.1693 0.0000
# 6 0.0000 0.0000 0.0000 0.0000 0.0000 23.3669
#
#
#
# Elastic Compliance Matrix: (Units=1/GPa)
#
#
# Indices 1 2 3 4 5 6 
#
# 1 0.012819 -0.004754 -0.002569 0.000000 0.000000 0.000000
# 2 -0.004754 0.012820 -0.002569 0.000000 0.000000 0.000000
# 3 -0.002569 -0.002569 0.010597 0.000000 0.000000 0.000000
# 4 0.000000 0.000000 0.000000 0.036815 0.000000 0.000000
# 5 0.000000 0.000000 0.000000 0.000000 0.036806 0.000000
# 6 0.000000 0.000000 0.000000 0.000000 0.000000 0.042796
#
#
# Mechanical properties :
#
#
# Convention : Reuss Voigt Hill
#
# Bulk Modulus (GPa) = 60.78087 60.78113 60.78100
# Shear Modulus (GPa) = 28.10226 28.81817 28.46022
#
# Velocity S-wave (km/s) = 3.77598 3.82377 3.79995
# Velocity P-wave (km/s) = 7.06035 7.09457 7.07748
#
# Compressibility (1/GPa) = 0.01645255
#
# Stress axis : x y z
#
# Youngs Moduli (GPa) = 78.00738 78.00381 94.36497
#
# Poissons Ratio (x) = 0.37082 0.24242
# Poissons Ratio (y) = 0.37084 0.24242
# Poissons Ratio (z) = 0.20040 0.20039
#
# Static dielectric constant tensor:
#      x y z
#    x 3.640170 0.000000 0.000000 
#    y 0.000000 3.640170 0.000000 
#    z 0.000000 0.000000 3.671150 
# 
# 
# High freq. dielectric constant tensor:
#      x y z
#    x 1.778760 0.000000 0.000000 
#    y 0.000000 1.778760 0.000000 
#    z 0.000000 0.000000 1.767140 
# 
# From -- ./inp_files/10775.got.cif
#   From: 2010.06.25/outbox.cif.g09.slc.cpg/sg140_6_cif.got.tgz:10775.got - 2010.06.28 10:53:23.
