data_PCOD8320507
_publ_section_title
;
Structure prediction by ZEFSAII (Michael W. Deem and Ramdas Pophale) SiO2 
 PCOD8320507
Probable space group: I 4/M C M
;
_chemical_formula_sum "Si O2"
_cell_formula_units_Z 160
_cell_length_a 29.474302
_cell_length_b 29.474302
_cell_length_c 8.619311
_cell_angle_alpha 90.000000
_cell_angle_beta 90.000000
_cell_angle_gamma 90.000000
_cell_volume 7487.892646
_symmetry_space_group_name_H-M "I 4/M C M"
_symmetry_group_IT_number 140
_symmetry_cell_setting 'tetragonal'
loop_
_space_group_symop_operation_xyz
x,y,z
-y,x,z
-x,-y,z
y,-x,z
x,-y,1/2-z
-x,y,1/2-z
y,x,1/2-z
-y,-x,1/2-z
-x,-y,-z
y,-x,-z
x,y,-z
-y,x,-z
-x,y,1/2+z
x,-y,1/2+z
-y,-x,1/2+z
y,x,1/2+z
1/2+x,1/2+y,1/2+z
1/2-y,1/2+x,1/2+z
1/2-x,1/2-y,1/2+z
1/2+y,1/2-x,1/2+z
1/2+x,1/2-y,-z
1/2-x,1/2+y,-z
1/2+y,1/2+x,-z
1/2-y,1/2-x,-z
1/2-x,1/2-y,1/2-z
1/2+y,1/2-x,1/2-z
1/2+x,1/2+y,1/2-z
1/2-y,1/2+x,1/2-z
1/2-x,1/2+y,z
1/2+x,1/2-y,z
1/2-y,1/2-x,z
1/2+y,1/2+x,z
loop_
_atom_site_type_symbol
_atom_site_label
_atom_site_fract_x
_atom_site_fract_y
_atom_site_fract_z
Si Si1 0.720104 0.440653 0.172480
Si Si2 0.302561 0.802561 0.824711
Si Si3 0.816970 0.545644 0.183284
Si Si4 0.368491 0.131510 0.820784
Si Si5 0.162762 0.219038 0.668495
Si Si6 0.951910 0.120398 0.314790
O O1 0.764116 0.457044 0.265126
O O2 0.730482 0.388674 0.149515
O O3 0.673180 0.448645 0.263148
O O4 0.716979 0.463228 0.000000
O O5 0.330413 0.830413 0.696830
O O6 0.250395 0.812607 0.794855
O O7 0.316233 0.816233 0.000000
O O8 0.840039 0.500000 0.250000
O O9 0.848310 0.586367 0.243589
O O10 0.818136 0.547042 0.000000
O O11 0.378177 0.121824 0.000000
O O12 0.169579 0.169579 0.750000
O O13 0.186145 0.222344 0.500000
O O14 0.910563 0.089438 0.250000
O O15 0.950897 0.117782 0.500000
O O16 0.000000 0.101276 0.250000
#
# Coordination Sequence:
#
# PCOD8320507 Si02
#       6
#    32  16  32  16  32  32
#     4  11  23  41  65  95 132 172 216 268 325 385
#     4  12  23  37  58  84 120 165 217 266 319 375
#     4  12  25  43  69 101 136 177 221 268 324 384
#     4  12  24  43  67  97 135 172 218 272 325 386
#     4  11  23  37  56  82 122 169 219 267 318 377
#     4  12  26  46  70  97 129 166 214 270 332 398
#
# _framework density 21.367826999999998
#
# number of rings (size 3 to 8) (size 9 to 14) (size 15 to 20)
#    0.000    0.400    2.000    8.100    0.000    4.200 
#    0.000    1.000    0.000    0.300    0.000    2.100 
#    0.000    0.000    0.000    0.000    0.000    0.000 
#
# Total GULP energy -991294.439535 kJ/mol
# GULP energy per Si atom -12391.180494 kJ/mol
# Density = 2.131919 g / cm^3
# Si number density = 21.367827 Si / 1000 Ang^3
#
#
#
# Elastic Constant Matrix: (Units=GPa)
#
#
# Indices 1 2 3 4 5 6 
#
# 1 108.5060 52.9921 62.5802 0.0000 0.0000 0.0000
# 2 52.9921 108.4877 62.5739 0.0000 0.0000 0.0000
# 3 62.5802 62.5739 211.9850 0.0000 0.0000 0.0000
# 4 0.0000 0.0000 0.0000 34.3529 0.0000 0.0000
# 5 0.0000 0.0000 0.0000 0.0000 34.3530 0.0000
# 6 0.0000 0.0000 0.0000 0.0000 0.0000 -0.9835
#
#
#
# Elastic Compliance Matrix: (Units=1/GPa)
#
#
# Indices 1 2 3 4 5 6 
#
# 1 0.013022 -0.004994 -0.002370 0.000000 0.000000 0.000000
# 2 -0.004994 0.013024 -0.002370 0.000000 0.000000 0.000000
# 3 -0.002370 -0.002370 0.006117 0.000000 0.000000 0.000000
# 4 0.000000 0.000000 0.000000 0.029110 0.000000 0.000000
# 5 0.000000 0.000000 0.000000 0.000000 0.029110 0.000000
# 6 0.000000 0.000000 0.000000 0.000000 0.000000 -1.016790
#
#
# Mechanical properties :
#
#
# Convention : Reuss Voigt Hill
#
# Bulk Modulus (GPa) = 78.77487 87.25234 83.01361
# Shear Modulus (GPa) = -5.53888 30.26666 12.36389
#
# Velocity S-wave (km/s) = -1.61177 3.76767 2.40807
# Velocity P-wave (km/s) = 5.78640 7.73623 6.83124
#
# Compressibility (1/GPa) = 0.01269440
#
# Stress axis : x y z
#
# Youngs Moduli (GPa) = 76.79416 76.78168 163.48772
#
# Poissons Ratio (x) = 0.38342 0.38749
# Poissons Ratio (y) = 0.38348 0.38751
# Poissons Ratio (z) = 0.18202 0.18199
#
# Static dielectric constant tensor:
#      x y z
#    x 4.022930 0.000000 0.000000 
#    y 0.000000 4.022920 0.000000 
#    z 0.000000 0.000000 5.237850 
# 
# 
# High freq. dielectric constant tensor:
#      x y z
#    x 1.838020 0.000000 0.000000 
#    y 0.000000 1.838020 0.000000 
#    z 0.000000 0.000000 1.863490 
# 
# From -- ./inp_files/1851.got.cif
#   From: 2010.06.25/outbox.cif.g09.slc.cpg/sg140_1_cif.got.tgz:1851.got - 2010.06.28 10:53:23.
