data_PCOD8320789
_publ_section_title
;
Structure prediction by ZEFSAII (Michael W. Deem and Ramdas Pophale) SiO2 
 PCOD8320789
Probable space group: I 41/A M D
;
_chemical_formula_sum "Si O2"
_cell_formula_units_Z 160
_cell_length_a 18.347535
_cell_length_b 18.347535
_cell_length_c 24.265599
_cell_angle_alpha 90.000000
_cell_angle_beta 90.000000
_cell_angle_gamma 90.000000
_cell_volume 8168.578107
_symmetry_space_group_name_H-M "I 41/A M D"
_symmetry_group_IT_number 141
_space_group.IT_coordinate_system_code '2'
_symmetry_cell_setting 'tetragonal'
loop_
_space_group_symop_operation_xyz
x,y,z
1/4-y,3/4+x,1/4+z
-x,1/2-y,z
1/4+y,1/4-x,3/4+z
x,-y,-z
-x,1/2+y,-z
1/4+y,3/4+x,1/4-z
1/4-y,1/4-x,3/4-z
-x,-y,-z
3/4+y,1/4-x,3/4-z
x,1/2+y,-z
3/4-y,3/4+x,1/4-z
-x,y,z
x,1/2-y,z
3/4-y,1/4-x,3/4+z
3/4+y,3/4+x,1/4+z
1/2+x,1/2+y,1/2+z
3/4-y,1/4+x,3/4+z
1/2-x,-y,1/2+z
3/4+y,3/4-x,1/4+z
1/2+x,1/2-y,1/2-z
1/2-x,y,1/2-z
3/4+y,1/4+x,3/4-z
3/4-y,3/4-x,1/4-z
1/2-x,1/2-y,1/2-z
1/4+y,3/4-x,1/4-z
1/2+x,y,1/2-z
1/4-y,1/4+x,3/4-z
1/2-x,1/2+y,1/2+z
1/2+x,-y,1/2+z
1/4-y,3/4-x,1/4+z
1/4+y,1/4+x,3/4+z
loop_
_atom_site_type_symbol
_atom_site_label
_atom_site_fract_x
_atom_site_fract_y
_atom_site_fract_z
Si Si1 0.160140 0.836353 0.387021
Si Si2 0.196594 0.330441 0.205312
Si Si3 0.079335 0.054306 0.355994
Si Si4 0.672609 0.836224 0.539656
Si Si5 0.676973 0.835557 0.415334
O O1 0.146622 0.750000 0.389524
O O2 0.122778 0.872132 0.441397
O O3 0.129529 0.867214 0.329365
O O4 0.244485 0.858120 0.391669
O O5 0.175261 0.250000 0.228307
O O6 0.250000 0.369610 0.250000
O O7 0.239982 0.323350 0.149366
O O8 0.135394 0.114606 0.375000
O O9 0.000000 0.091779 0.348019
O O10 0.103107 0.008812 0.301847
O O11 0.657195 0.750000 0.546485
O O12 0.661654 0.864235 0.477294
O O13 0.668752 0.750000 0.415743
O O14 0.616802 0.866802 0.375000
#
# Coordination Sequence:
#
# PCOD8320789 Si02
#       5
#    32  32  32  32  32
#     4  10  21  37  60  89 117 149 197 251 290 340
#     4   9  19  35  53  79 115 152 189 232 286 344
#     4   9  18  32  52  77 108 149 191 231 278 340
#     4   9  20  39  59  80 114 157 193 233 295 359
#     4  10  23  42  60  85 118 150 190 244 303 359
#
# _framework density 19.587253
#
# number of rings (size 3 to 8) (size 9 to 14) (size 15 to 20)
#    0.000    2.600    0.000    1.800    2.800    6.800 
#    0.000    4.000    0.000    3.600    0.000    0.000 
#    0.000    0.000    0.000    0.000    0.000    0.000 
#
# Total GULP energy -991393.519850 kJ/mol
# GULP energy per Si atom -12392.418998 kJ/mol
# Density = 1.954267 g / cm^3
# Si number density = 19.587253 Si / 1000 Ang^3
#
#
#
# Elastic Constant Matrix: (Units=GPa)
#
#
# Indices 1 2 3 4 5 6 
#
# 1 55.4785 43.0595 32.4513 0.0000 0.0000 0.0000
# 2 43.0595 55.4809 32.4521 0.0000 0.0000 0.0000
# 3 32.4513 32.4521 123.9523 0.0000 0.0000 0.0000
# 4 0.0000 0.0000 0.0000 26.9165 0.0000 0.0000
# 5 0.0000 0.0000 0.0000 0.0000 26.9230 0.0000
# 6 0.0000 0.0000 0.0000 0.0000 0.0000 28.4695
#
#
#
# Elastic Compliance Matrix: (Units=1/GPa)
#
#
# Indices 1 2 3 4 5 6 
#
# 1 0.046390 -0.034126 -0.003210 0.000000 0.000000 0.000000
# 2 -0.034126 0.046388 -0.003211 0.000000 0.000000 0.000000
# 3 -0.003210 -0.003211 0.009749 0.000000 0.000000 0.000000
# 4 0.000000 0.000000 0.000000 0.037152 0.000000 0.000000
# 5 0.000000 0.000000 0.000000 0.000000 0.037143 0.000000
# 6 0.000000 0.000000 0.000000 0.000000 0.000000 0.035125
#
#
# Mechanical properties :
#
#
# Convention : Reuss Voigt Hill
#
# Bulk Modulus (GPa) = 46.65840 50.09306 48.37573
# Shear Modulus (GPa) = 16.65645 24.92505 20.79075
#
# Velocity S-wave (km/s) = 2.91928 3.57110 3.26151
# Velocity P-wave (km/s) = 5.93594 6.52944 6.23975
#
# Compressibility (1/GPa) = 0.02143237
#
# Stress axis : x y z
#
# Youngs Moduli (GPa) = 21.55654 21.55745 102.57785
#
# Poissons Ratio (x) = 0.73566 0.32933
# Poissons Ratio (y) = 0.73563 0.32933
# Poissons Ratio (z) = 0.06921 0.06921
#
# Static dielectric constant tensor:
#      x y z
#    x 3.530400 0.000000 0.000000 
#    y 0.000000 3.530400 0.000000 
#    z 0.000000 0.000000 3.811380 
# 
# 
# High freq. dielectric constant tensor:
#      x y z
#    x 1.753520 0.000000 0.000000 
#    y 0.000000 1.753520 0.000000 
#    z 0.000000 0.000000 1.771170 
# 
# From -- ./inp_files/12676.got.cif
#   From: 2010.03.12/outbox.cif.g09.slc.cpg/sg141_7_cif.got.tgz:12676.got - 2010.04.03 13:18:35.
