data_PCOD8320381
_publ_section_title
;
Structure prediction by ZEFSAII (Michael W. Deem and Ramdas Pophale) SiO2 
 PCOD8320381
Probable space group: I 4/M C M
;
_chemical_formula_sum "Si O2"
_cell_formula_units_Z 160
_cell_length_a 21.166151
_cell_length_b 21.166151
_cell_length_c 17.750334
_cell_angle_alpha 90.000000
_cell_angle_beta 90.000000
_cell_angle_gamma 90.000000
_cell_volume 7952.255214
_symmetry_space_group_name_H-M "I 4/M C M"
_symmetry_group_IT_number 140
_symmetry_cell_setting 'tetragonal'
loop_
_space_group_symop_operation_xyz
x,y,z
-y,x,z
-x,-y,z
y,-x,z
x,-y,1/2-z
-x,y,1/2-z
y,x,1/2-z
-y,-x,1/2-z
-x,-y,-z
y,-x,-z
x,y,-z
-y,x,-z
-x,y,1/2+z
x,-y,1/2+z
-y,-x,1/2+z
y,x,1/2+z
1/2+x,1/2+y,1/2+z
1/2-y,1/2+x,1/2+z
1/2-x,1/2-y,1/2+z
1/2+y,1/2-x,1/2+z
1/2+x,1/2-y,-z
1/2-x,1/2+y,-z
1/2+y,1/2+x,-z
1/2-y,1/2-x,-z
1/2-x,1/2-y,1/2-z
1/2+y,1/2-x,1/2-z
1/2+x,1/2+y,1/2-z
1/2-y,1/2+x,1/2-z
1/2-x,1/2+y,z
1/2+x,1/2-y,z
1/2-y,1/2-x,z
1/2+y,1/2+x,z
loop_
_atom_site_type_symbol
_atom_site_label
_atom_site_fract_x
_atom_site_fract_y
_atom_site_fract_z
Si Si1 0.018109 0.380864 0.336933
Si Si2 0.409201 0.810217 0.914132
Si Si3 0.178327 0.066306 0.664847
Si Si4 0.889088 0.709653 0.414818
Si Si5 0.077063 0.167955 0.660165
O O1 0.051596 0.448405 0.357811
O O2 0.066505 0.324839 0.354583
O O3 0.000000 0.380382 0.250000
O O4 0.955639 0.365423 0.383902
O O5 0.338491 0.838491 0.906733
O O6 0.411387 0.743869 0.871312
O O7 0.427530 0.796715 0.000000
O O8 0.115765 0.104756 0.641925
O O9 0.188805 0.076437 0.753231
O O10 0.161648 0.995964 0.636807
O O11 0.915736 0.701885 0.500000
O O12 0.818590 0.681411 0.409991
O O13 0.886388 0.781936 0.391359
#
# Coordination Sequence:
#
# PCOD8320381 Si02
#       5
#    32  32  32  32  32
#     4  11  22  37  59  88 122 160 204 249 295 351
#     4  11  24  40  59  87 125 164 202 248 301 356
#     4  10  22  40  62  91 120 156 201 247 305 364
#     4  10  21  37  60  89 120 161 206 244 291 354
#     4  10  21  39  64  90 121 156 198 251 303 362
#
# _framework density 20.120079
#
# number of rings (size 3 to 8) (size 9 to 14) (size 15 to 20)
#    0.000    1.600    2.000    2.400    0.000    7.000 
#    0.000    7.000    0.000    0.000    0.000    2.800 
#    0.000    0.000    0.000    0.000    0.000    0.000 
#
# Total GULP energy -991553.479284 kJ/mol
# GULP energy per Si atom -12394.418491 kJ/mol
# Density = 2.007428 g / cm^3
# Si number density = 20.120079 Si / 1000 Ang^3
#
#
#
# Elastic Constant Matrix: (Units=GPa)
#
#
# Indices 1 2 3 4 5 6 
#
# 1 110.2833 99.8310 50.6386 0.0000 0.0000 0.0000
# 2 99.8310 110.2833 50.6386 0.0000 0.0000 0.0000
# 3 50.6386 50.6386 65.1781 0.0000 0.0000 0.0000
# 4 0.0000 0.0000 0.0000 -3.1529 0.0000 0.0000
# 5 0.0000 0.0000 0.0000 0.0000 -3.1528 0.0000
# 6 0.0000 0.0000 0.0000 0.0000 0.0000 31.8407
#
#
#
# Elastic Compliance Matrix: (Units=1/GPa)
#
#
# Indices 1 2 3 4 5 6 
#
# 1 0.051641 -0.044032 -0.005911 0.000000 0.000000 0.000000
# 2 -0.044032 0.051641 -0.005911 0.000000 0.000000 0.000000
# 3 -0.005911 -0.005911 0.024528 0.000000 0.000000 0.000000
# 4 0.000000 0.000000 0.000000 -0.317173 0.000000 0.000000
# 5 0.000000 0.000000 0.000000 0.000000 -0.317174 0.000000
# 6 0.000000 0.000000 0.000000 0.000000 0.000000 0.031406
#
#
# Mechanical properties :
#
#
# Convention : Reuss Voigt Hill
#
# Bulk Modulus (GPa) = 62.11251 76.44012 69.27631
# Shear Modulus (GPa) = -13.96439 10.74943 -1.60748
#
# Velocity S-wave (km/s) = -2.63735 2.31392 -0.89481
# Velocity P-wave (km/s) = 4.65444 6.72409 5.78261
#
# Compressibility (1/GPa) = 0.01609982
#
# Stress axis : x y z
#
# Youngs Moduli (GPa) = 19.36446 19.36446 40.76975
#
# Poissons Ratio (x) = 0.85266 0.24101
# Poissons Ratio (y) = 0.85266 0.24101
# Poissons Ratio (z) = 0.11447 0.11447
#
# Static dielectric constant tensor:
#      x y z
#    x 3.733440 0.000000 0.000000 
#    y 0.000000 3.733440 0.000000 
#    z 0.000000 0.000000 3.670920 
# 
# 
# High freq. dielectric constant tensor:
#      x y z
#    x 1.785500 0.000000 0.000000 
#    y 0.000000 1.785500 0.000000 
#    z 0.000000 0.000000 1.784660 
# 
# From -- ./inp_files/6865.got.cif
#   From: 2010.06.25/outbox.cif.g09.slc.cpg/sg140_4_cif.got.tgz:6865.got - 2010.06.28 10:53:23.
