data_PCOD8320450
_publ_section_title
;
Structure prediction by ZEFSAII (Michael W. Deem and Ramdas Pophale) SiO2 
 PCOD8320450
Probable space group: I 4/M C M
;
_chemical_formula_sum "Si O2"
_cell_formula_units_Z 160
_cell_length_a 20.067431
_cell_length_b 20.067431
_cell_length_c 16.654497
_cell_angle_alpha 90.000000
_cell_angle_beta 90.000000
_cell_angle_gamma 90.000000
_cell_volume 6706.795702
_symmetry_space_group_name_H-M "I 4/M C M"
_symmetry_group_IT_number 140
_symmetry_cell_setting 'tetragonal'
loop_
_space_group_symop_operation_xyz
x,y,z
-y,x,z
-x,-y,z
y,-x,z
x,-y,1/2-z
-x,y,1/2-z
y,x,1/2-z
-y,-x,1/2-z
-x,-y,-z
y,-x,-z
x,y,-z
-y,x,-z
-x,y,1/2+z
x,-y,1/2+z
-y,-x,1/2+z
y,x,1/2+z
1/2+x,1/2+y,1/2+z
1/2-y,1/2+x,1/2+z
1/2-x,1/2-y,1/2+z
1/2+y,1/2-x,1/2+z
1/2+x,1/2-y,-z
1/2-x,1/2+y,-z
1/2+y,1/2+x,-z
1/2-y,1/2-x,-z
1/2-x,1/2-y,1/2-z
1/2+y,1/2-x,1/2-z
1/2+x,1/2+y,1/2-z
1/2-y,1/2+x,1/2-z
1/2-x,1/2+y,z
1/2+x,1/2-y,z
1/2-y,1/2-x,z
1/2+y,1/2+x,z
loop_
_atom_site_type_symbol
_atom_site_label
_atom_site_fract_x
_atom_site_fract_y
_atom_site_fract_z
Si Si1 0.860120 0.252812 0.668451
Si Si2 0.484395 0.603167 0.656122
Si Si3 0.846518 0.546459 0.090356
Si Si4 0.915048 0.691416 0.323840
Si Si5 0.879271 0.811355 0.408499
O O1 0.789123 0.289123 0.683500
O O2 0.898920 0.287494 0.594974
O O3 0.908414 0.259296 0.746481
O O4 0.846594 0.175467 0.648802
O O5 0.425142 0.553847 0.624001
O O6 0.500000 0.607599 0.750000
O O7 0.456254 0.671101 0.618292
O O8 0.916724 0.583277 0.110393
O O9 0.832765 0.489439 0.155844
O O10 0.848061 0.517172 0.000000
O O11 0.875442 0.624559 0.304202
O O12 0.880412 0.731498 0.397377
O O13 0.863767 0.829564 0.500000
#
# Coordination Sequence:
#
# PCOD8320450 Si02
#       5
#    32  32  32  32  32
#     4  10  23  44  68  96 134 181 229 281 345 421
#     4   9  22  43  65  92 127 172 220 266 327 400
#     4  10  22  42  69 100 135 179 232 290 355 423
#     4  11  25  43  65  98 138 182 233 289 347 417
#     4  12  26  40  67 102 136 178 228 289 350 412
#
# _framework density 23.856400000000001
#
# number of rings (size 3 to 8) (size 9 to 14) (size 15 to 20)
#    0.000    1.600    0.000    3.600    8.400    6.400 
#    0.000    2.000    0.000    3.600    0.000    0.000 
#    0.000    0.000    0.000    0.000    0.000    0.000 
#
# Total GULP energy -991181.543899 kJ/mol
# GULP energy per Si atom -12389.769299 kJ/mol
# Density = 2.380210 g / cm^3
# Si number density = 23.856400 Si / 1000 Ang^3
#
#
#
# Elastic Constant Matrix: (Units=GPa)
#
#
# Indices 1 2 3 4 5 6 
#
# 1 89.1665 33.5590 41.0946 0.0000 0.0000 0.0000
# 2 33.5590 89.1665 41.0946 0.0000 0.0000 0.0000
# 3 41.0946 41.0946 112.1338 0.0000 0.0000 0.0000
# 4 0.0000 0.0000 0.0000 30.9623 0.0000 0.0000
# 5 0.0000 0.0000 0.0000 0.0000 30.9623 0.0000
# 6 0.0000 0.0000 0.0000 0.0000 0.0000 35.7405
#
#
#
# Elastic Compliance Matrix: (Units=1/GPa)
#
#
# Indices 1 2 3 4 5 6 
#
# 1 0.014391 -0.003592 -0.003957 0.000000 0.000000 0.000000
# 2 -0.003592 0.014391 -0.003957 0.000000 0.000000 0.000000
# 3 -0.003957 -0.003957 0.011819 0.000000 0.000000 0.000000
# 4 0.000000 0.000000 0.000000 0.032297 0.000000 0.000000
# 5 0.000000 0.000000 0.000000 0.000000 0.032297 0.000000
# 6 0.000000 0.000000 0.000000 0.000000 0.000000 0.027979
#
#
# Mechanical properties :
#
#
# Convention : Reuss Voigt Hill
#
# Bulk Modulus (GPa) = 56.86369 57.99591 57.42980
# Shear Modulus (GPa) = 30.85451 31.18091 31.01771
#
# Velocity S-wave (km/s) = 3.60021 3.61920 3.60972
# Velocity P-wave (km/s) = 6.41635 6.46746 6.44196
#
# Compressibility (1/GPa) = 0.01758592
#
# Stress axis : x y z
#
# Youngs Moduli (GPa) = 69.48854 69.48854 84.61280
#
# Poissons Ratio (x) = 0.24962 0.33485
# Poissons Ratio (y) = 0.24962 0.33485
# Poissons Ratio (z) = 0.27500 0.27500
#
# Static dielectric constant tensor:
#      x y z
#    x 4.209350 0.000000 0.000000 
#    y 0.000000 4.209350 0.000000 
#    z 0.000000 0.000000 4.036860 
# 
# 
# High freq. dielectric constant tensor:
#      x y z
#    x 1.944210 0.000000 0.000000 
#    y 0.000000 1.944210 0.000000 
#    z 0.000000 0.000000 1.931710 
# 
# From -- ./inp_files/6868.got.cif
#   From: 2010.06.25/outbox.cif.g09.slc.cpg/sg140_4_cif.got.tgz:6868.got - 2010.06.28 10:53:23.
