data_PCOD8320029
_publ_section_title
;
Structure prediction by ZEFSAII (Michael W. Deem and Ramdas Pophale) SiO2 
 PCOD8320029
Probable space group: I 4/M C M
;
_chemical_formula_sum "Si O2"
_cell_formula_units_Z 80
_cell_length_a 25.460669
_cell_length_b 25.460669
_cell_length_c 8.511823
_cell_angle_alpha 90.000000
_cell_angle_beta 90.000000
_cell_angle_gamma 90.000000
_cell_volume 5517.752369
_symmetry_space_group_name_H-M "I 4/M C M"
_symmetry_group_IT_number 140
_symmetry_cell_setting 'tetragonal'
loop_
_space_group_symop_operation_xyz
x,y,z
-y,x,z
-x,-y,z
y,-x,z
x,-y,1/2-z
-x,y,1/2-z
y,x,1/2-z
-y,-x,1/2-z
-x,-y,-z
y,-x,-z
x,y,-z
-y,x,-z
-x,y,1/2+z
x,-y,1/2+z
-y,-x,1/2+z
y,x,1/2+z
1/2+x,1/2+y,1/2+z
1/2-y,1/2+x,1/2+z
1/2-x,1/2-y,1/2+z
1/2+y,1/2-x,1/2+z
1/2+x,1/2-y,-z
1/2-x,1/2+y,-z
1/2+y,1/2+x,-z
1/2-y,1/2-x,-z
1/2-x,1/2-y,1/2-z
1/2+y,1/2-x,1/2-z
1/2+x,1/2+y,1/2-z
1/2-y,1/2+x,1/2-z
1/2-x,1/2+y,z
1/2+x,1/2-y,z
1/2-y,1/2-x,z
1/2+y,1/2+x,z
loop_
_atom_site_type_symbol
_atom_site_label
_atom_site_fract_x
_atom_site_fract_y
_atom_site_fract_z
Si Si1 0.557517 0.359628 0.813898
Si Si2 0.208304 0.708304 0.314155
Si Si3 0.633489 0.716630 0.186127
O O1 0.500000 0.370479 0.750000
O O2 0.594435 0.405566 0.750000
O O3 0.577192 0.302326 0.752460
O O4 0.558014 0.360314 0.000000
O O5 0.250000 0.750000 0.250000
O O6 0.208146 0.708146 0.500000
O O7 0.225553 0.650635 0.249801
O O8 0.675393 0.675393 0.250000
O O9 0.632464 0.716854 0.000000
#
# Coordination Sequence:
#
# PCOD8320029 Si02
#       3
#    32  16  32
#     4  11  21  34  47  61  78 102 134 172 211 248
#     4  10  16  24  38  58  80 102 124 153 190 235
#     4  10  17  27  41  59  79 101 126 158 196 239
#
# _framework density 14.498656
#
# number of rings (size 3 to 8) (size 9 to 14) (size 15 to 20)
#    0.000    1.600    0.000   13.800    0.000    0.400 
#    0.000    2.000    0.000    0.000    0.000    0.000 
#    0.000    0.000    0.000    0.000    0.000    1.000 
#
# Total GULP energy -495724.696410 kJ/mol
# GULP energy per Si atom -12393.117410 kJ/mol
# Density = 1.446566 g / cm^3
# Si number density = 14.498656 Si / 1000 Ang^3
#
#
#
# Elastic Constant Matrix: (Units=GPa)
#
#
# Indices 1 2 3 4 5 6 
#
# 1 60.3684 60.0039 43.8700 0.0000 0.0000 0.0000
# 2 60.0039 60.3660 43.8695 0.0000 0.0000 0.0000
# 3 43.8700 43.8695 181.1692 0.0000 0.0000 0.0000
# 4 0.0000 0.0000 0.0000 22.5338 0.0000 0.0000
# 5 0.0000 0.0000 0.0000 0.0000 22.5338 0.0000
# 6 0.0000 0.0000 0.0000 0.0000 0.0000 18.6892
#
#
#
# Elastic Compliance Matrix: (Units=1/GPa)
#
#
# Indices 1 2 3 4 5 6 
#
# 1 1.381161 -1.371103 -0.002439 0.000000 0.000000 0.000000
# 2 -1.371103 1.381222 -0.002447 0.000000 0.000000 0.000000
# 3 -0.002439 -0.002447 0.006703 0.000000 0.000000 0.000000
# 4 0.000000 0.000000 0.000000 0.044378 0.000000 0.000000
# 5 0.000000 0.000000 0.000000 0.000000 0.044378 0.000000
# 6 0.000000 0.000000 0.000000 0.000000 0.000000 0.053507
#
#
# Mechanical properties :
#
#
# Convention : Reuss Voigt Hill
#
# Bulk Modulus (GPa) = 58.45260 66.37672 62.41466
# Shear Modulus (GPa) = 0.88199 23.02870 11.95534
#
# Velocity S-wave (km/s) = 0.78080 3.98971 2.87467
# Velocity P-wave (km/s) = 6.41999 8.19173 7.35937
#
# Compressibility (1/GPa) = 0.01710788
#
# Stress axis : x y z
#
# Youngs Moduli (GPa) = 0.72403 0.72400 149.19211
#
# Poissons Ratio (x) = 0.99267 0.36390
# Poissons Ratio (y) = 0.99272 0.36501
# Poissons Ratio (z) = 0.00177 0.00177
#
# Static dielectric constant tensor:
#      x y z
#    x 3.300610 0.000000 0.000000 
#    y 0.000000 3.300650 0.000000 
#    z 0.000000 0.000000 3.015860 
# 
# 
# High freq. dielectric constant tensor:
#      x y z
#    x 1.521760 0.000000 0.000000 
#    y 0.000000 1.521760 0.000000 
#    z 0.000000 0.000000 1.586210 
# 
# From -- ./inp_files/822.got.cif
#   From: 2010.06.25/outbox.cif.g09.slc.cpg/sg140_1_cif.got.tgz:822.got - 2010.06.28 10:53:23.
