data_PCOD8320166
_publ_section_title
;
Structure prediction by ZEFSAII (Michael W. Deem and Ramdas Pophale) SiO2 
 PCOD8320166
Probable space group: I 4/M C M
;
_chemical_formula_sum "Si O2"
_cell_formula_units_Z 240
_cell_length_a 19.615485
_cell_length_b 19.615485
_cell_length_c 31.063620
_cell_angle_alpha 90.000000
_cell_angle_beta 90.000000
_cell_angle_gamma 90.000000
_cell_volume 11952.263698
_symmetry_space_group_name_H-M "I 4/M C M"
_symmetry_group_IT_number 140
_symmetry_cell_setting 'tetragonal'
loop_
_space_group_symop_operation_xyz
x,y,z
-y,x,z
-x,-y,z
y,-x,z
x,-y,1/2-z
-x,y,1/2-z
y,x,1/2-z
-y,-x,1/2-z
-x,-y,-z
y,-x,-z
x,y,-z
-y,x,-z
-x,y,1/2+z
x,-y,1/2+z
-y,-x,1/2+z
y,x,1/2+z
1/2+x,1/2+y,1/2+z
1/2-y,1/2+x,1/2+z
1/2-x,1/2-y,1/2+z
1/2+y,1/2-x,1/2+z
1/2+x,1/2-y,-z
1/2-x,1/2+y,-z
1/2+y,1/2+x,-z
1/2-y,1/2-x,-z
1/2-x,1/2-y,1/2-z
1/2+y,1/2-x,1/2-z
1/2+x,1/2+y,1/2-z
1/2-y,1/2+x,1/2-z
1/2-x,1/2+y,z
1/2+x,1/2-y,z
1/2-y,1/2-x,z
1/2+y,1/2+x,z
loop_
_atom_site_type_symbol
_atom_site_label
_atom_site_fract_x
_atom_site_fract_y
_atom_site_fract_z
Si Si1 0.611854 0.997792 0.950973
Si Si2 0.672121 0.597931 0.376747
Si Si3 0.110456 0.503520 0.702847
Si Si4 0.547409 0.599446 0.199779
Si Si5 0.413867 0.569517 0.951313
Si Si6 0.658070 0.341931 0.750000
Si Si7 0.652691 0.736776 0.335006
Si Si8 0.010162 0.288282 0.127740
O O1 0.556681 0.056681 0.947898
O O2 0.671066 0.017819 0.917162
O O3 0.574360 0.925640 0.939761
O O4 0.641405 0.994566 0.000000
O O5 0.614019 0.555646 0.350679
O O6 0.640549 0.611176 0.423582
O O7 0.688247 0.671773 0.357033
O O8 0.738960 0.552896 0.379781
O O9 0.145881 0.500000 0.750000
O O10 0.078890 0.578890 0.694739
O O11 0.163151 0.486309 0.665957
O O12 0.050480 0.449520 0.701576
O O13 0.468849 0.590261 0.212465
O O14 0.585948 0.661279 0.223903
O O15 0.405637 0.489718 0.941164
O O16 0.394901 0.585593 0.000000
O O17 0.721685 0.345207 0.716719
O O18 0.696134 0.803867 0.344528
O O19 0.578006 0.748594 0.355911
#
# Coordination Sequence:
#
# PCOD8320166 Si02
#       8
#    32  32  32  32  32  16  32  32
#     4   9  19  38  66  98 124 145 183 249 323 388
#     4  11  23  37  54  79 114 153 196 241 284 344
#     4   9  19  36  59  88 116 141 182 246 312 369
#     4  10  19  33  56  83 112 145 188 247 302 342
#     4   9  17  32  57  85 110 138 176 226 281 330
#     4  10  21  37  56  78 106 148 200 249 299 356
#     4  11  25  42  58  81 118 161 202 248 306 370
#     4  12  23  37  62  87 116 163 210 249 297 368
#
# _framework density 20.079878999999998
#
# number of rings (size 3 to 8) (size 9 to 14) (size 15 to 20)
#    0.000    1.867    0.000    6.600    0.000    7.467 
#    0.000    2.000    0.000    1.200    0.000    0.000 
#    0.000    0.000    0.000    0.000    0.000    0.000 
#
# Total GULP energy -1487266.470382 kJ/mol
# GULP energy per Si atom -12393.887253 kJ/mol
# Density = 2.003418 g / cm^3
# Si number density = 20.079879 Si / 1000 Ang^3
#
#
#
# Elastic Constant Matrix: (Units=GPa)
#
#
# Indices 1 2 3 4 5 6 
#
# 1 65.4350 18.8286 35.1352 0.0000 0.0000 0.0000
# 2 18.8286 65.4350 35.1350 0.0000 0.0000 0.0000
# 3 35.1352 35.1350 126.4403 0.0000 0.0000 0.0000
# 4 0.0000 0.0000 0.0000 26.2829 0.0000 0.0000
# 5 0.0000 0.0000 0.0000 0.0000 26.2829 0.0000
# 6 0.0000 0.0000 0.0000 0.0000 0.0000 26.1021
#
#
#
# Elastic Compliance Matrix: (Units=1/GPa)
#
#
# Indices 1 2 3 4 5 6 
#
# 1 0.018452 -0.003005 -0.004292 0.000000 0.000000 0.000000
# 2 -0.003005 0.018452 -0.004292 0.000000 0.000000 0.000000
# 3 -0.004292 -0.004292 0.010294 0.000000 0.000000 0.000000
# 4 0.000000 0.000000 0.000000 0.038048 0.000000 0.000000
# 5 0.000000 0.000000 0.000000 0.000000 0.038048 0.000000
# 6 0.000000 0.000000 0.000000 0.000000 0.000000 0.038311
#
#
# Mechanical properties :
#
#
# Convention : Reuss Voigt Hill
#
# Bulk Modulus (GPa) = 41.63381 48.38976 45.01178
# Shear Modulus (GPa) = 25.93505 26.94767 26.44136
#
# Velocity S-wave (km/s) = 3.59777 3.66734 3.63272
# Velocity P-wave (km/s) = 6.16747 6.48717 6.32934
#
# Compressibility (1/GPa) = 0.02401894
#
# Stress axis : x y z
#
# Youngs Moduli (GPa) = 54.19553 54.19563 97.14001
#
# Poissons Ratio (x) = 0.16284 0.41697
# Poissons Ratio (y) = 0.16283 0.41696
# Poissons Ratio (z) = 0.23263 0.23263
#
# Static dielectric constant tensor:
#      x y z
#    x 3.537200 0.000000 0.000000 
#    y 0.000000 3.537200 0.000000 
#    z 0.000000 0.000000 4.012690 
# 
# 
# High freq. dielectric constant tensor:
#      x y z
#    x 1.767110 0.000000 0.000000 
#    y 0.000000 1.767110 0.000000 
#    z 0.000000 0.000000 1.801350 
# 
# From -- ./inp_files/11798.got.cif
#   From: 2010.06.25/outbox.cif.g09.slc.cpg/sg140_6_cif.got.tgz:11798.got - 2010.06.28 10:53:23.
