data_PCOD8320660
_publ_section_title
;
Structure prediction by ZEFSAII (Michael W. Deem and Ramdas Pophale) SiO2 
 PCOD8320660
Probable space group: I 41/A M D
;
_chemical_formula_sum "Si O2"
_cell_formula_units_Z 124
_cell_length_a 15.122459
_cell_length_b 15.122459
_cell_length_c 26.682957
_cell_angle_alpha 90.000000
_cell_angle_beta 90.000000
_cell_angle_gamma 90.000000
_cell_volume 6102.092515
_symmetry_space_group_name_H-M "I 41/A M D"
_symmetry_group_IT_number 141
_space_group.IT_coordinate_system_code '2'
_symmetry_cell_setting 'tetragonal'
loop_
_space_group_symop_operation_xyz
x,y,z
1/4-y,3/4+x,1/4+z
-x,1/2-y,z
1/4+y,1/4-x,3/4+z
x,-y,-z
-x,1/2+y,-z
1/4+y,3/4+x,1/4-z
1/4-y,1/4-x,3/4-z
-x,-y,-z
3/4+y,1/4-x,3/4-z
x,1/2+y,-z
3/4-y,3/4+x,1/4-z
-x,y,z
x,1/2-y,z
3/4-y,1/4-x,3/4+z
3/4+y,3/4+x,1/4+z
1/2+x,1/2+y,1/2+z
3/4-y,1/4+x,3/4+z
1/2-x,-y,1/2+z
3/4+y,3/4-x,1/4+z
1/2+x,1/2-y,1/2-z
1/2-x,y,1/2-z
3/4+y,1/4+x,3/4-z
3/4-y,3/4-x,1/4-z
1/2-x,1/2-y,1/2-z
1/4+y,3/4-x,1/4-z
1/2+x,y,1/2-z
1/4-y,1/4+x,3/4-z
1/2-x,1/2+y,1/2+z
1/2+x,-y,1/2+z
1/4-y,3/4-x,1/4+z
1/4+y,1/4+x,3/4+z
loop_
_atom_site_type_symbol
_atom_site_label
_atom_site_fract_x
_atom_site_fract_y
_atom_site_fract_z
Si Si1 0.899739 0.567531 0.317589
Si Si2 0.500000 0.382359 0.379189
Si Si3 0.000000 0.250000 0.209703
Si Si4 0.500000 0.250000 0.625000
Si Si5 0.750000 0.109134 0.750000
Si Si6 0.690101 0.250000 0.672370
Si Si7 0.653041 0.096960 0.125000
Si Si8 0.903761 0.750000 0.692843
O O1 0.900088 0.666608 0.338637
O O2 0.833255 0.553296 0.270627
O O3 0.863718 0.503808 0.360628
O O4 0.000000 0.541949 0.301506
O O5 0.500000 0.338263 0.324342
O O6 0.500000 0.490205 0.375479
O O7 0.912573 0.250000 0.245893
O O8 0.588041 0.250000 0.657895
O O9 0.709117 0.164127 0.704757
O O10 0.640560 0.160422 0.173034
O O11 0.000000 0.750000 0.668087
#
# Coordination Sequence:
#
# PCOD8320660 Si02
#       8
#    32  16   8   4  16  16  16  16
#     4  11  22  41  71  92 130 177 214 269 342 395
#     4  10  21  43  63  95 133 173 218 270 330 400
#     4  10  20  39  67  94 120 172 215 269 328 388
#     4  12  24  40  62  92 132 192 202 268 356 384
#     4   9  22  42  62  99 122 164 230 281 308 403
#     4   9  22  42  64  91 133 169 225 271 331 392
#     4  12  21  43  64  94 123 175 208 270 346 384
#     4  10  19  39  63  87 126 157 218 259 317 402
#
# _framework density 20.320899000000001
#
# number of rings (size 3 to 8) (size 9 to 14) (size 15 to 20)
#    0.387    1.290    3.871    0.774    1.806    4.129 
#    9.290    1.290    0.000    0.000    0.000    0.000 
#    0.000    0.000    0.000    0.000    0.000    0.000 
#
# Total GULP energy -768284.576936 kJ/mol
# GULP energy per Si atom -12391.686725 kJ/mol
# Density = 2.027465 g / cm^3
# Si number density = 20.320899 Si / 1000 Ang^3
#
#
#
# Elastic Constant Matrix: (Units=GPa)
#
#
# Indices 1 2 3 4 5 6 
#
# 1 141.0139 44.7792 53.5866 0.0000 0.0000 0.0000
# 2 44.7792 141.0133 53.5860 0.0000 0.0000 0.0000
# 3 53.5866 53.5860 123.4867 0.0000 0.0000 0.0000
# 4 0.0000 0.0000 0.0000 70.6891 0.0000 0.0000
# 5 0.0000 0.0000 0.0000 0.0000 70.6965 0.0000
# 6 0.0000 0.0000 0.0000 0.0000 0.0000 28.2776
#
#
#
# Elastic Compliance Matrix: (Units=1/GPa)
#
#
# Indices 1 2 3 4 5 6 
#
# 1 0.008785 -0.001606 -0.003116 0.000000 0.000000 0.000000
# 2 -0.001606 0.008785 -0.003115 0.000000 0.000000 0.000000
# 3 -0.003116 -0.003115 0.010802 0.000000 0.000000 0.000000
# 4 0.000000 0.000000 0.000000 0.014146 0.000000 0.000000
# 5 0.000000 0.000000 0.000000 0.000000 0.014145 0.000000
# 6 0.000000 0.000000 0.000000 0.000000 0.000000 0.035364
#
#
# Mechanical properties :
#
#
# Convention : Reuss Voigt Hill
#
# Bulk Modulus (GPa) = 78.74682 78.82418 78.78550
# Shear Modulus (GPa) = 44.66898 50.83679 47.75288
#
# Velocity S-wave (km/s) = 4.69356 5.00713 4.85288
# Velocity P-wave (km/s) = 8.25884 8.50308 8.38185
#
# Compressibility (1/GPa) = 0.01269892
#
# Stress axis : x y z
#
# Youngs Moduli (GPa) = 113.82545 113.82528 92.57604
#
# Poissons Ratio (x) = 0.18279 0.28842
# Poissons Ratio (y) = 0.18279 0.28842
# Poissons Ratio (z) = 0.35462 0.35462
#
# Static dielectric constant tensor:
#      x y z
#    x 3.788460 0.000000 0.000000 
#    y 0.000000 3.788490 0.000000 
#    z 0.000000 0.000000 3.516200 
# 
# 
# High freq. dielectric constant tensor:
#      x y z
#    x 1.797390 0.000000 0.000000 
#    y 0.000000 1.797390 0.000000 
#    z 0.000000 0.000000 1.775880 
# 
# From -- ./inp_files/14190.got.cif
#   From: 2010.03.12/outbox.cif.g09.slc.cpg/sg141_8_cif.got.tgz:14190.got - 2010.04.03 13:18:35.
