data_PCOD8320653
_publ_section_title
;
Structure prediction by ZEFSAII (Michael W. Deem and Ramdas Pophale) SiO2 
 PCOD8320653
Probable space group: I 41/A M D
;
_chemical_formula_sum "Si O2"
_cell_formula_units_Z 160
_cell_length_a 27.760636
_cell_length_b 27.760636
_cell_length_c 10.316638
_cell_angle_alpha 90.000000
_cell_angle_beta 90.000000
_cell_angle_gamma 90.000000
_cell_volume 7950.547108
_symmetry_space_group_name_H-M "I 41/A M D"
_symmetry_group_IT_number 141
_space_group.IT_coordinate_system_code '2'
_symmetry_cell_setting 'tetragonal'
loop_
_space_group_symop_operation_xyz
x,y,z
1/4-y,3/4+x,1/4+z
-x,1/2-y,z
1/4+y,1/4-x,3/4+z
x,-y,-z
-x,1/2+y,-z
1/4+y,3/4+x,1/4-z
1/4-y,1/4-x,3/4-z
-x,-y,-z
3/4+y,1/4-x,3/4-z
x,1/2+y,-z
3/4-y,3/4+x,1/4-z
-x,y,z
x,1/2-y,z
3/4-y,1/4-x,3/4+z
3/4+y,3/4+x,1/4+z
1/2+x,1/2+y,1/2+z
3/4-y,1/4+x,3/4+z
1/2-x,-y,1/2+z
3/4+y,3/4-x,1/4+z
1/2+x,1/2-y,1/2-z
1/2-x,y,1/2-z
3/4+y,1/4+x,3/4-z
3/4-y,3/4-x,1/4-z
1/2-x,1/2-y,1/2-z
1/4+y,3/4-x,1/4-z
1/2+x,y,1/2-z
1/4-y,1/4+x,3/4-z
1/2-x,1/2+y,1/2+z
1/2+x,-y,1/2+z
1/4-y,3/4-x,1/4+z
1/4+y,1/4+x,3/4+z
loop_
_atom_site_type_symbol
_atom_site_label
_atom_site_fract_x
_atom_site_fract_y
_atom_site_fract_z
Si Si1 0.849846 0.545677 0.741275
Si Si2 0.148815 0.564428 0.259424
Si Si3 0.446292 0.540839 0.895420
Si Si4 0.850826 0.304757 0.120237
Si Si5 0.056520 0.801667 0.269556
O O1 0.821318 0.571318 0.625000
O O2 0.832864 0.490414 0.750196
O O3 0.907401 0.545509 0.717833
O O4 0.840626 0.572301 0.875760
O O5 0.158747 0.591254 0.125000
O O6 0.091371 0.566581 0.289811
O O7 0.500000 0.530930 0.837913
O O8 0.432064 0.500000 0.000000
O O9 0.445373 0.590124 0.977230
O O10 0.844767 0.250000 0.063450
O O11 0.905843 0.324084 0.113373
O O12 0.069154 0.819154 0.125000
O O13 0.081460 0.750000 0.303535
O O14 0.000000 0.794316 0.281192
#
# Coordination Sequence:
#
# PCOD8320653 Si02
#       5
#    32  32  32  32  32
#     4  12  23  43  65  89 121 166 213 257 314 382
#     4  12  26  41  62  94 127 159 206 268 323 376
#     4  10  19  37  65  92 117 159 216 259 304 373
#     4  10  19  35  61  88 118 162 209 248 303 376
#     4   8  14  26  47  78 118 162 200 236 291 364
#
# _framework density 20.124400000000001
#
# number of rings (size 3 to 8) (size 9 to 14) (size 15 to 20)
#    0.000    1.600    4.000    2.400    0.000    2.400 
#    0.000    2.000    0.000    3.600    0.000    0.000 
#    0.000    0.000    0.000    0.000    0.000    0.000 
#
# Total GULP energy -991454.689395 kJ/mol
# GULP energy per Si atom -12393.183617 kJ/mol
# Density = 2.007860 g / cm^3
# Si number density = 20.124400 Si / 1000 Ang^3
#
#
#
# Elastic Constant Matrix: (Units=GPa)
#
#
# Indices 1 2 3 4 5 6 
#
# 1 113.4393 29.2081 41.8107 0.0000 0.0000 0.0000
# 2 29.2081 113.4383 41.8097 0.0000 0.0000 0.0000
# 3 41.8107 41.8097 103.3028 0.0000 0.0000 0.0000
# 4 0.0000 0.0000 0.0000 22.5314 0.0000 0.0000
# 5 0.0000 0.0000 0.0000 0.0000 22.5316 0.0000
# 6 0.0000 0.0000 0.0000 0.0000 0.0000 24.5246
#
#
#
# Elastic Compliance Matrix: (Units=1/GPa)
#
#
# Indices 1 2 3 4 5 6 
#
# 1 0.010532 -0.001341 -0.003720 0.000000 0.000000 0.000000
# 2 -0.001341 0.010532 -0.003720 0.000000 0.000000 0.000000
# 3 -0.003720 -0.003720 0.012691 0.000000 0.000000 0.000000
# 4 0.000000 0.000000 0.000000 0.044383 0.000000 0.000000
# 5 0.000000 0.000000 0.000000 0.000000 0.044382 0.000000
# 6 0.000000 0.000000 0.000000 0.000000 0.000000 0.040775
#
#
# Mechanical properties :
#
#
# Convention : Reuss Voigt Hill
#
# Bulk Modulus (GPa) = 61.75229 61.75972 61.75600
# Shear Modulus (GPa) = 26.84517 28.40764 27.62640
#
# Velocity S-wave (km/s) = 3.65631 3.76120 3.70913
# Velocity P-wave (km/s) = 6.96970 7.04399 7.00694
#
# Compressibility (1/GPa) = 0.01619373
#
# Stress axis : x y z
#
# Youngs Moduli (GPa) = 94.95296 94.95271 78.79340
#
# Poissons Ratio (x) = 0.12729 0.29311
# Poissons Ratio (y) = 0.12729 0.29310
# Poissons Ratio (z) = 0.35322 0.35321
#
# Static dielectric constant tensor:
#      x y z
#    x 3.469420 0.000000 0.000000 
#    y 0.000000 3.469410 0.000000 
#    z 0.000000 0.000000 3.569240 
# 
# 
# High freq. dielectric constant tensor:
#      x y z
#    x 1.792160 0.000000 0.000000 
#    y 0.000000 1.792160 0.000000 
#    z 0.000000 0.000000 1.749040 
# 
# From -- ./inp_files/4849.got.cif
#   From: 2010.03.12/outbox.cif.g09.slc.cpg/sg141_3_cif.got.tgz:4849.got - 2010.04.03 13:18:35.
