data_PCOD8320540
_publ_section_title
;
Structure prediction by ZEFSAII (Michael W. Deem and Ramdas Pophale) SiO2 
 PCOD8320540
Probable space group: I 41/A M D
;
_chemical_formula_sum "Si O2"
_cell_formula_units_Z 112
_cell_length_a 15.785895
_cell_length_b 15.785895
_cell_length_c 24.189998
_cell_angle_alpha 90.000000
_cell_angle_beta 90.000000
_cell_angle_gamma 90.000000
_cell_volume 6028.013996
_symmetry_space_group_name_H-M "I 41/A M D"
_symmetry_group_IT_number 141
_space_group.IT_coordinate_system_code '2'
_symmetry_cell_setting 'tetragonal'
loop_
_space_group_symop_operation_xyz
x,y,z
1/4-y,3/4+x,1/4+z
-x,1/2-y,z
1/4+y,1/4-x,3/4+z
x,-y,-z
-x,1/2+y,-z
1/4+y,3/4+x,1/4-z
1/4-y,1/4-x,3/4-z
-x,-y,-z
3/4+y,1/4-x,3/4-z
x,1/2+y,-z
3/4-y,3/4+x,1/4-z
-x,y,z
x,1/2-y,z
3/4-y,1/4-x,3/4+z
3/4+y,3/4+x,1/4+z
1/2+x,1/2+y,1/2+z
3/4-y,1/4+x,3/4+z
1/2-x,-y,1/2+z
3/4+y,3/4-x,1/4+z
1/2+x,1/2-y,1/2-z
1/2-x,y,1/2-z
3/4+y,1/4+x,3/4-z
3/4-y,3/4-x,1/4-z
1/2-x,1/2-y,1/2-z
1/4+y,3/4-x,1/4-z
1/2+x,y,1/2-z
1/4-y,1/4+x,3/4-z
1/2-x,1/2+y,1/2+z
1/2+x,-y,1/2+z
1/4-y,3/4-x,1/4+z
1/4+y,1/4+x,3/4+z
loop_
_atom_site_type_symbol
_atom_site_label
_atom_site_fract_x
_atom_site_fract_y
_atom_site_fract_z
Si Si1 0.157999 0.250000 0.722951
Si Si2 0.904513 0.566501 0.410293
Si Si3 0.179829 0.345988 0.030639
Si Si4 0.597097 0.750000 0.105895
Si Si5 0.250000 0.539862 0.750000
O O1 0.250000 0.250000 0.750000
O O2 0.107061 0.166163 0.741144
O O3 0.164213 0.250000 0.656202
O O4 0.883914 0.561948 0.345523
O O5 0.890439 0.664609 0.430139
O O6 0.846256 0.502587 0.444662
O O7 0.000000 0.537468 0.421924
O O8 0.209515 0.250000 0.017132
O O9 0.235807 0.414330 0.998596
O O10 0.500000 0.750000 0.130572
#
# Coordination Sequence:
#
# PCOD8320540 Si02
#       5
#    16  32  32  16  16
#     4  10  16  32  54  77  99 136 183 217 259 321
#     4   9  19  35  53  75 106 143 177 217 266 317
#     4  10  21  36  53  77 110 141 175 221 270 319
#     4   8  16  32  54  74 102 143 181 219 260 315
#     4  12  21  31  56  84 106 134 182 225 267 314
#
# _framework density 18.579916999999998
#
# number of rings (size 3 to 8) (size 9 to 14) (size 15 to 20)
#    0.000    2.286    1.429    4.286    2.000    0.000 
#    0.000    0.000    0.000    0.000    0.000    4.000 
#    0.000    0.000    0.000    0.000    0.000    0.000 
#
# Total GULP energy -694070.503880 kJ/mol
# GULP energy per Si atom -12394.116141 kJ/mol
# Density = 1.853763 g / cm^3
# Si number density = 18.579917 Si / 1000 Ang^3
#
#
#
# Elastic Constant Matrix: (Units=GPa)
#
#
# Indices 1 2 3 4 5 6 
#
# 1 98.9700 42.5408 29.4955 0.0000 0.0000 0.0000
# 2 42.5408 98.9700 29.4955 0.0000 0.0000 0.0000
# 3 29.4955 29.4955 43.0701 0.0000 0.0000 0.0000
# 4 0.0000 0.0000 0.0000 23.7888 0.0000 0.0000
# 5 0.0000 0.0000 0.0000 0.0000 23.7888 0.0000
# 6 0.0000 0.0000 0.0000 0.0000 0.0000 25.7035
#
#
#
# Elastic Compliance Matrix: (Units=1/GPa)
#
#
# Indices 1 2 3 4 5 6 
#
# 1 0.013806 -0.003916 -0.006773 0.000000 0.000000 0.000000
# 2 -0.003916 0.013806 -0.006773 0.000000 0.000000 0.000000
# 3 -0.006773 -0.006773 0.032495 0.000000 0.000000 0.000000
# 4 0.000000 0.000000 0.000000 0.042037 0.000000 0.000000
# 5 0.000000 0.000000 0.000000 0.000000 0.042037 0.000000
# 6 0.000000 0.000000 0.000000 0.000000 0.000000 0.038905
#
#
# Mechanical properties :
#
#
# Convention : Reuss Voigt Hill
#
# Bulk Modulus (GPa) = 39.70963 49.34152 44.52558
# Shear Modulus (GPa) = 22.08467 23.95479 23.01973
#
# Velocity S-wave (km/s) = 3.45139 3.59456 3.52370
# Velocity P-wave (km/s) = 6.10750 6.62131 6.36959
#
# Compressibility (1/GPa) = 0.02518281
#
# Stress axis : x y z
#
# Youngs Moduli (GPa) = 72.43408 72.43408 30.77443
#
# Poissons Ratio (x) = 0.28363 0.20843
# Poissons Ratio (y) = 0.28363 0.20843
# Poissons Ratio (z) = 0.49059 0.49059
#
# Static dielectric constant tensor:
#      x y z
#    x 3.462370 0.000000 0.000000 
#    y 0.000000 3.462370 0.000000 
#    z 0.000000 0.000000 2.990700 
# 
# 
# High freq. dielectric constant tensor:
#      x y z
#    x 1.724460 0.000000 0.000000 
#    y 0.000000 1.724460 0.000000 
#    z 0.000000 0.000000 1.681200 
# 
# From -- ./inp_files/12525.got.cif
#   From: 2010.03.12/outbox.cif.g09.slc.cpg/sg141_7_cif.got.tgz:12525.got - 2010.04.03 13:18:35.
