data_PCOD8320623
_publ_section_title
;
Structure prediction by ZEFSAII (Michael W. Deem and Ramdas Pophale) SiO2 
 PCOD8320623
Probable space group: I 41/A M D
;
_chemical_formula_sum "Si O2"
_cell_formula_units_Z 144
_cell_length_a 31.109738
_cell_length_b 31.109738
_cell_length_c 7.438546
_cell_angle_alpha 90.000000
_cell_angle_beta 90.000000
_cell_angle_gamma 90.000000
_cell_volume 7199.142336
_symmetry_space_group_name_H-M "I 41/A M D"
_symmetry_group_IT_number 141
_space_group.IT_coordinate_system_code '2'
_symmetry_cell_setting 'tetragonal'
loop_
_space_group_symop_operation_xyz
x,y,z
1/4-y,3/4+x,1/4+z
-x,1/2-y,z
1/4+y,1/4-x,3/4+z
x,-y,-z
-x,1/2+y,-z
1/4+y,3/4+x,1/4-z
1/4-y,1/4-x,3/4-z
-x,-y,-z
3/4+y,1/4-x,3/4-z
x,1/2+y,-z
3/4-y,3/4+x,1/4-z
-x,y,z
x,1/2-y,z
3/4-y,1/4-x,3/4+z
3/4+y,3/4+x,1/4+z
1/2+x,1/2+y,1/2+z
3/4-y,1/4+x,3/4+z
1/2-x,-y,1/2+z
3/4+y,3/4-x,1/4+z
1/2+x,1/2-y,1/2-z
1/2-x,y,1/2-z
3/4+y,1/4+x,3/4-z
3/4-y,3/4-x,1/4-z
1/2-x,1/2-y,1/2-z
1/4+y,3/4-x,1/4-z
1/2+x,y,1/2-z
1/4-y,1/4+x,3/4-z
1/2-x,1/2+y,1/2+z
1/2+x,-y,1/2+z
1/4-y,3/4-x,1/4+z
1/4+y,1/4+x,3/4+z
loop_
_atom_site_type_symbol
_atom_site_label
_atom_site_fract_x
_atom_site_fract_y
_atom_site_fract_z
Si Si1 0.170599 0.157322 0.178475
Si Si2 0.293416 0.613131 0.356537
Si Si3 0.346267 0.657996 0.070880
Si Si4 0.567813 0.750000 0.330619
Si Si5 0.640290 0.250000 0.383726
Si Si6 0.617456 0.750000 0.005522
O O1 0.122292 0.138191 0.152788
O O2 0.180992 0.148567 0.388385
O O3 0.170207 0.207747 0.127005
O O4 0.207276 0.133597 0.058035
O O5 0.250000 0.602425 0.250000
O O6 0.318278 0.568278 0.375000
O O7 0.316736 0.649602 0.241096
O O8 0.357372 0.707900 0.069937
O O9 0.543011 0.706990 0.375000
O O10 0.612967 0.750000 0.434683
O O11 0.573136 0.750000 0.114923
O O12 0.608946 0.250000 0.207946
#
# Coordination Sequence:
#
# PCOD8320623 Si02
#       6
#    32  32  32  16  16  16
#     4   9  18  33  54  79 107 145 187 227 273 319
#     4  10  21  38  61  81 108 138 171 216 270 338
#     4   9  18  33  54  79 107 145 187 227 273 319
#     4  11  22  30  40  66 105 146 192 242 289 320
#     4  10  19  33  53  76 105 143 192 234 268 322
#     4  10  19  33  53  76 105 143 192 234 268 322
#
# _framework density 20.002381
#
# number of rings (size 3 to 8) (size 9 to 14) (size 15 to 20)
#    0.000    2.333    0.000    2.667    0.000    5.333 
#    0.000    3.333    9.778    4.000    0.000    0.000 
#    0.000    0.000    0.000    0.000    0.000    0.000 
#
# Total GULP energy -892070.227120 kJ/mol
# GULP energy per Si atom -12389.864266 kJ/mol
# Density = 1.995685 g / cm^3
# Si number density = 20.002381 Si / 1000 Ang^3
#
#
#
# Elastic Constant Matrix: (Units=GPa)
#
#
# Indices 1 2 3 4 5 6 
#
# 1 68.4829 29.1417 29.7025 0.0000 0.0000 0.0000
# 2 29.1417 68.4846 29.7031 0.0000 0.0000 0.0000
# 3 29.7025 29.7031 106.6115 0.0000 0.0000 0.0000
# 4 0.0000 0.0000 0.0000 23.4139 0.0000 0.0000
# 5 0.0000 0.0000 0.0000 0.0000 23.4132 0.0000
# 6 0.0000 0.0000 0.0000 0.0000 0.0000 12.0609
#
#
#
# Elastic Compliance Matrix: (Units=1/GPa)
#
#
# Indices 1 2 3 4 5 6 
#
# 1 0.018876 -0.006542 -0.003436 0.000000 0.000000 0.000000
# 2 -0.006542 0.018876 -0.003436 0.000000 0.000000 0.000000
# 3 -0.003436 -0.003436 0.011295 0.000000 0.000000 0.000000
# 4 0.000000 0.000000 0.000000 0.042710 0.000000 0.000000
# 5 0.000000 0.000000 0.000000 0.000000 0.042711 0.000000
# 6 0.000000 0.000000 0.000000 0.000000 0.000000 0.082912
#
#
# Mechanical properties :
#
#
# Convention : Reuss Voigt Hill
#
# Bulk Modulus (GPa) = 45.00940 46.74149 45.87545
# Shear Modulus (GPa) = 19.87159 22.11306 20.99233
#
# Velocity S-wave (km/s) = 3.15534 3.32855 3.24310
# Velocity P-wave (km/s) = 5.98546 6.17988 6.08345
#
# Compressibility (1/GPa) = 0.02221758
#
# Stress axis : x y z
#
# Youngs Moduli (GPa) = 52.97612 52.97731 88.53719
#
# Poissons Ratio (x) = 0.34657 0.30425
# Poissons Ratio (y) = 0.34656 0.30425
# Poissons Ratio (z) = 0.18205 0.18205
#
# Static dielectric constant tensor:
#      x y z
#    x 3.372830 0.000000 0.000000 
#    y 0.000000 3.372830 0.000000 
#    z 0.000000 0.000000 4.116990 
# 
# 
# High freq. dielectric constant tensor:
#      x y z
#    x 1.751910 0.000000 0.000000 
#    y 0.000000 1.751910 0.000000 
#    z 0.000000 0.000000 1.808440 
# 
# From -- ./inp_files/3251.got.cif
#   From: 2010.03.12/outbox.cif.g09.slc.cpg/sg141_2_cif.got.tgz:3251.got - 2010.04.03 13:18:35.
