data_PCOD8320433
_publ_section_title
;
Structure prediction by ZEFSAII (Michael W. Deem and Ramdas Pophale) SiO2 
 PCOD8320433
Probable space group: I 4/M C M
;
_chemical_formula_sum "Si O2"
_cell_formula_units_Z 176
_cell_length_a 22.836793
_cell_length_b 22.836793
_cell_length_c 16.235691
_cell_angle_alpha 90.000000
_cell_angle_beta 90.000000
_cell_angle_gamma 90.000000
_cell_volume 8467.223194
_symmetry_space_group_name_H-M "I 4/M C M"
_symmetry_group_IT_number 140
_symmetry_cell_setting 'tetragonal'
loop_
_space_group_symop_operation_xyz
x,y,z
-y,x,z
-x,-y,z
y,-x,z
x,-y,1/2-z
-x,y,1/2-z
y,x,1/2-z
-y,-x,1/2-z
-x,-y,-z
y,-x,-z
x,y,-z
-y,x,-z
-x,y,1/2+z
x,-y,1/2+z
-y,-x,1/2+z
y,x,1/2+z
1/2+x,1/2+y,1/2+z
1/2-y,1/2+x,1/2+z
1/2-x,1/2-y,1/2+z
1/2+y,1/2-x,1/2+z
1/2+x,1/2-y,-z
1/2-x,1/2+y,-z
1/2+y,1/2+x,-z
1/2-y,1/2-x,-z
1/2-x,1/2-y,1/2-z
1/2+y,1/2-x,1/2-z
1/2+x,1/2+y,1/2-z
1/2-y,1/2+x,1/2-z
1/2-x,1/2+y,z
1/2+x,1/2-y,z
1/2-y,1/2-x,z
1/2+y,1/2+x,z
loop_
_atom_site_type_symbol
_atom_site_label
_atom_site_fract_x
_atom_site_fract_y
_atom_site_fract_z
Si Si1 0.907081 0.018837 0.403441
Si Si2 0.000000 0.405897 0.250000
Si Si3 0.037968 0.219772 0.330681
Si Si4 0.498730 0.167761 0.409077
Si Si5 0.654557 0.751402 0.246762
Si Si6 0.378853 0.214813 0.587107
O O1 0.894487 0.021541 0.500000
O O2 0.847667 0.031260 0.354977
O O3 0.954910 0.068017 0.378837
O O4 0.054477 0.445524 0.221853
O O5 0.021574 0.368724 0.329887
O O6 0.015851 0.263645 0.401535
O O7 0.106768 0.236011 0.321693
O O8 0.000000 0.233194 0.250000
O O9 0.521026 0.145007 0.500000
O O10 0.428504 0.165025 0.406994
O O11 0.705196 0.705196 0.250000
O O12 0.683688 0.816313 0.232768
O O13 0.619535 0.744102 0.333320
O O14 0.385776 0.250102 0.500000
O O15 0.316106 0.183895 0.587093
#
# Coordination Sequence:
#
# PCOD8320433 Si02
#       6
#    32  16  32  32  32  32
#     4   9  21  42  64  90 130 175 218 272 333 392
#     4  11  24  42  64  92 126 163 208 270 340 405
#     4  12  23  36  61  96 124 165 214 271 321 388
#     4  11  22  39  61  90 123 162 208 255 316 387
#     4  10  22  40  59  83 121 164 205 255 315 377
#     4   9  17  33  58  83 108 145 198 253 302 362
#
# _framework density 20.786034000000001
#
# number of rings (size 3 to 8) (size 9 to 14) (size 15 to 20)
#    0.000    1.727    2.727    1.636    2.545    3.636 
#    0.000    3.636    0.000    3.818    0.000    0.000 
#    0.000    0.000    0.000    0.000    0.000    0.000 
#
# Total GULP energy -1090382.719392 kJ/mol
# GULP energy per Si atom -12390.712720 kJ/mol
# Density = 2.073872 g / cm^3
# Si number density = 20.786034 Si / 1000 Ang^3
#
#
#
# Elastic Constant Matrix: (Units=GPa)
#
#
# Indices 1 2 3 4 5 6 
#
# 1 186.1976 -62.3822 36.8069 0.0000 0.0000 0.0000
# 2 -62.3822 186.1976 36.8069 0.0000 0.0000 0.0000
# 3 36.8069 36.8069 112.0634 0.0000 0.0000 0.0000
# 4 0.0000 0.0000 0.0000 34.8669 0.0000 0.0000
# 5 0.0000 0.0000 0.0000 0.0000 34.8669 0.0000
# 6 0.0000 0.0000 0.0000 0.0000 0.0000 25.1752
#
#
#
# Elastic Compliance Matrix: (Units=1/GPa)
#
#
# Indices 1 2 3 4 5 6 
#
# 1 0.007030 0.003007 -0.003296 0.000000 0.000000 0.000000
# 2 0.003007 0.007030 -0.003296 0.000000 0.000000 0.000000
# 3 -0.003296 -0.003296 0.011089 0.000000 0.000000 0.000000
# 4 0.000000 0.000000 0.000000 0.028681 0.000000 0.000000
# 5 0.000000 0.000000 0.000000 0.000000 0.028681 0.000000
# 6 0.000000 0.000000 0.000000 0.000000 0.000000 0.039722
#
#
# Mechanical properties :
#
#
# Convention : Reuss Voigt Hill
#
# Bulk Modulus (GPa) = 55.62961 56.32462 55.97711
# Shear Modulus (GPa) = 36.92899 50.53026 43.72963
#
# Velocity S-wave (km/s) = 4.21958 4.93584 4.59169
# Velocity P-wave (km/s) = 7.11061 7.72266 7.42295
#
# Compressibility (1/GPa) = 0.01797604
#
# Stress axis : x y z
#
# Youngs Moduli (GPa) = 142.25483 142.25483 90.18005
#
# Poissons Ratio (x) = -0.42773 0.29727
# Poissons Ratio (y) = -0.42773 0.29727
# Poissons Ratio (z) = 0.46893 0.46893
#
# Static dielectric constant tensor:
#      x y z
#    x 3.659850 0.000000 0.000000 
#    y 0.000000 3.659850 0.000000 
#    z 0.000000 0.000000 3.933990 
# 
# 
# High freq. dielectric constant tensor:
#      x y z
#    x 1.804070 0.000000 0.000000 
#    y 0.000000 1.804070 0.000000 
#    z 0.000000 0.000000 1.816860 
# 
# From -- ./inp_files/4902.got.cif
#   From: 2010.06.25/outbox.cif.g09.slc.cpg/sg140_3_cif.got.tgz:4902.got - 2010.06.28 10:53:23.
