data_PCOD8320785
_publ_section_title
;
Structure prediction by ZEFSAII (Michael W. Deem and Ramdas Pophale) SiO2 
 PCOD8320785
Probable space group: I 41/A M D
;
_chemical_formula_sum "Si O2"
_cell_formula_units_Z 96
_cell_length_a 30.808985
_cell_length_b 30.808985
_cell_length_c 4.955768
_cell_angle_alpha 90.000000
_cell_angle_beta 90.000000
_cell_angle_gamma 90.000000
_cell_volume 4703.983054
_symmetry_space_group_name_H-M "I 41/A M D"
_symmetry_group_IT_number 141
_space_group.IT_coordinate_system_code '2'
_symmetry_cell_setting 'tetragonal'
loop_
_space_group_symop_operation_xyz
x,y,z
1/4-y,3/4+x,1/4+z
-x,1/2-y,z
1/4+y,1/4-x,3/4+z
x,-y,-z
-x,1/2+y,-z
1/4+y,3/4+x,1/4-z
1/4-y,1/4-x,3/4-z
-x,-y,-z
3/4+y,1/4-x,3/4-z
x,1/2+y,-z
3/4-y,3/4+x,1/4-z
-x,y,z
x,1/2-y,z
3/4-y,1/4-x,3/4+z
3/4+y,3/4+x,1/4+z
1/2+x,1/2+y,1/2+z
3/4-y,1/4+x,3/4+z
1/2-x,-y,1/2+z
3/4+y,3/4-x,1/4+z
1/2+x,1/2-y,1/2-z
1/2-x,y,1/2-z
3/4+y,1/4+x,3/4-z
3/4-y,3/4-x,1/4-z
1/2-x,1/2-y,1/2-z
1/4+y,3/4-x,1/4-z
1/2+x,y,1/2-z
1/4-y,1/4+x,3/4-z
1/2-x,1/2+y,1/2+z
1/2+x,-y,1/2+z
1/4-y,3/4-x,1/4+z
1/4+y,1/4+x,3/4+z
loop_
_atom_site_type_symbol
_atom_site_label
_atom_site_fract_x
_atom_site_fract_y
_atom_site_fract_z
Si Si1 0.871626 0.750000 0.096355
Si Si2 0.500000 0.179183 0.161684
Si Si3 0.203176 0.617207 0.624769
Si Si4 0.407357 0.586336 0.366930
O O1 0.914006 0.750000 0.281095
O O2 0.842732 0.791836 0.168233
O O3 0.887905 0.750000 0.787818
O O4 0.456732 0.206732 0.125000
O O5 0.250000 0.607731 0.750000
O O6 0.178848 0.571153 0.625000
O O7 0.199592 0.637570 0.324269
O O8 0.180776 0.652618 0.814677
O O9 0.382236 0.632236 0.375000
#
# Coordination Sequence:
#
# PCOD8320785 Si02
#       4
#    16  16  32  32
#     4  12  22  37  57  82 114 160 202 232 282 349
#     4  11  22  34  52  80 113 148 196 258 301 328
#     4  10  21  40  62  86 115 147 185 237 296 353
#     4  10  21  37  58  83 116 155 194 237 286 340
#
# _framework density 20.408237
#
# number of rings (size 3 to 8) (size 9 to 14) (size 15 to 20)
#    0.000    1.500    0.000    6.000    0.000    4.000 
#    0.000   10.000    0.000    0.000    0.000    0.000 
#    0.000    0.000    0.000    0.000    0.000    0.000 
#
# Total GULP energy -595178.621719 kJ/mol
# GULP energy per Si atom -12399.554619 kJ/mol
# Density = 2.036179 g / cm^3
# Si number density = 20.408237 Si / 1000 Ang^3
#
#
#
# Elastic Constant Matrix: (Units=GPa)
#
#
# Indices 1 2 3 4 5 6 
#
# 1 100.5667 64.1898 18.1132 0.0000 0.0000 0.0000
# 2 64.1898 100.5622 18.1115 0.0000 0.0000 0.0000
# 3 18.1132 18.1115 82.3086 0.0000 0.0000 0.0000
# 4 0.0000 0.0000 0.0000 22.6994 0.0000 0.0000
# 5 0.0000 0.0000 0.0000 0.0000 22.6974 0.0000
# 6 0.0000 0.0000 0.0000 0.0000 0.0000 16.5665
#
#
#
# Elastic Compliance Matrix: (Units=1/GPa)
#
#
# Indices 1 2 3 4 5 6 
#
# 1 0.016935 -0.010557 -0.001404 0.000000 0.000000 0.000000
# 2 -0.010557 0.016935 -0.001403 0.000000 0.000000 0.000000
# 3 -0.001404 -0.001403 0.012767 0.000000 0.000000 0.000000
# 4 0.000000 0.000000 0.000000 0.044054 0.000000 0.000000
# 5 0.000000 0.000000 0.000000 0.000000 0.044058 0.000000
# 6 0.000000 0.000000 0.000000 0.000000 0.000000 0.060363
#
#
# Mechanical properties :
#
#
# Convention : Reuss Voigt Hill
#
# Bulk Modulus (GPa) = 50.22762 53.80742 52.01752
# Shear Modulus (GPa) = 21.88414 24.59418 23.23916
#
# Velocity S-wave (km/s) = 3.27818 3.47524 3.37815
# Velocity P-wave (km/s) = 6.24448 6.52118 6.38433
#
# Compressibility (1/GPa) = 0.01990936
#
# Stress axis : x y z
#
# Youngs Moduli (GPa) = 59.05052 59.04825 78.32619
#
# Poissons Ratio (x) = 0.62336 0.10995
# Poissons Ratio (y) = 0.62338 0.10992
# Poissons Ratio (z) = 0.08289 0.08287
#
# Static dielectric constant tensor:
#      x y z
#    x 3.507950 0.000000 0.000000 
#    y 0.000000 3.507930 0.000000 
#    z 0.000000 0.000000 3.938810 
# 
# 
# High freq. dielectric constant tensor:
#      x y z
#    x 1.784720 0.000000 0.000000 
#    y 0.000000 1.784720 0.000000 
#    z 0.000000 0.000000 1.820290 
# 
# From -- ./inp_files/1217.got.cif
#   From: 2010.03.12/outbox.cif.g09.slc.cpg/sg141_1_cif.got.tgz:1217.got - 2010.04.03 13:18:35.
