data_PCOD8320201
_publ_section_title
;
Structure prediction by ZEFSAII (Michael W. Deem and Ramdas Pophale) SiO2 
 PCOD8320201
Probable space group: I 4/M C M
;
_chemical_formula_sum "Si O2"
_cell_formula_units_Z 112
_cell_length_a 18.097310
_cell_length_b 18.097310
_cell_length_c 15.281355
_cell_angle_alpha 90.000000
_cell_angle_beta 90.000000
_cell_angle_gamma 90.000000
_cell_volume 5004.836754
_symmetry_space_group_name_H-M "I 4/M C M"
_symmetry_group_IT_number 140
_symmetry_cell_setting 'tetragonal'
loop_
_space_group_symop_operation_xyz
x,y,z
-y,x,z
-x,-y,z
y,-x,z
x,-y,1/2-z
-x,y,1/2-z
y,x,1/2-z
-y,-x,1/2-z
-x,-y,-z
y,-x,-z
x,y,-z
-y,x,-z
-x,y,1/2+z
x,-y,1/2+z
-y,-x,1/2+z
y,x,1/2+z
1/2+x,1/2+y,1/2+z
1/2-y,1/2+x,1/2+z
1/2-x,1/2-y,1/2+z
1/2+y,1/2-x,1/2+z
1/2+x,1/2-y,-z
1/2-x,1/2+y,-z
1/2+y,1/2+x,-z
1/2-y,1/2-x,-z
1/2-x,1/2-y,1/2-z
1/2+y,1/2-x,1/2-z
1/2+x,1/2+y,1/2-z
1/2-y,1/2+x,1/2-z
1/2-x,1/2+y,z
1/2+x,1/2-y,z
1/2-y,1/2-x,z
1/2+y,1/2+x,z
loop_
_atom_site_type_symbol
_atom_site_label
_atom_site_fract_x
_atom_site_fract_y
_atom_site_fract_z
Si Si1 0.277555 0.222446 0.100434
Si Si2 0.448864 0.825652 0.102807
Si Si3 0.099052 0.599052 0.099321
Si Si4 0.320144 0.622924 0.665066
Si Si5 0.428573 0.404785 0.500000
O O1 0.339366 0.160635 0.108198
O O2 0.301616 0.292608 0.153102
O O3 0.258520 0.241481 0.000000
O O4 0.380445 0.880445 0.112483
O O5 0.522619 0.867705 0.139814
O O6 0.430029 0.753299 0.162801
O O7 0.459016 0.802142 0.000000
O O8 0.079328 0.579328 0.000000
O O9 0.374457 0.625544 0.750000
O O10 0.370409 0.601247 0.586487
O O11 0.514584 0.396857 0.500000
#
# Coordination Sequence:
#
# PCOD8320201 Si02
#       5
#    16  32  16  32  16
#     4  11  21  40  65 100 140 191 247 298 359 431
#     4  10  19  37  64 100 143 192 242 307 371 437
#     4   9  21  35  64  99 138 186 249 300 369 438
#     4  12  25  42  73 107 145 191 242 304 368 443
#     4  11  28  51  74 102 137 182 239 302 372 442
#
# _framework density 22.378352
#
# number of rings (size 3 to 8) (size 9 to 14) (size 15 to 20)
#    0.000    1.286    4.286    0.857    4.000    2.857 
#    0.000    1.429    0.000    0.000    3.714    0.000 
#    0.000    0.000    0.000    0.000    0.000    0.000 
#
# Total GULP energy -693833.119293 kJ/mol
# GULP energy per Si atom -12389.877130 kJ/mol
# Density = 2.232742 g / cm^3
# Si number density = 22.378352 Si / 1000 Ang^3
#
#
#
# Elastic Constant Matrix: (Units=GPa)
#
#
# Indices 1 2 3 4 5 6 
#
# 1 130.3453 31.5861 67.0043 0.0000 0.0000 0.0000
# 2 31.5861 130.3472 67.0046 0.0000 0.0000 0.0000
# 3 67.0043 67.0046 109.6553 0.0000 0.0000 0.0000
# 4 0.0000 0.0000 0.0000 -10.2374 0.0000 0.0000
# 5 0.0000 0.0000 0.0000 0.0000 -10.2659 0.0000
# 6 0.0000 0.0000 0.0000 0.0000 0.0000 51.5288
#
#
#
# Elastic Compliance Matrix: (Units=1/GPa)
#
#
# Indices 1 2 3 4 5 6 
#
# 1 0.011309 0.001184 -0.007634 0.000000 0.000000 0.000000
# 2 0.001184 0.011309 -0.007634 0.000000 0.000000 0.000000
# 3 -0.007634 -0.007634 0.018448 0.000000 0.000000 0.000000
# 4 0.000000 0.000000 0.000000 -0.097681 0.000000 0.000000
# 5 0.000000 0.000000 0.000000 0.000000 -0.097410 0.000000
# 6 0.000000 0.000000 0.000000 0.000000 0.000000 0.019407
#
#
# Mechanical properties :
#
#
# Convention : Reuss Voigt Hill
#
# Bulk Modulus (GPa) = 77.52296 77.94865 77.73580
# Shear Modulus (GPa) = -48.94740 19.85530 -14.54605
#
# Velocity S-wave (km/s) = -4.68190 2.98191 -2.55229
# Velocity P-wave (km/s) = 2.34314 6.83839 5.11145
#
# Compressibility (1/GPa) = 0.01289940
#
# Stress axis : x y z
#
# Youngs Moduli (GPa) = 88.42338 88.42498 54.20499
#
# Poissons Ratio (x) = -0.10466 0.41378
# Poissons Ratio (y) = -0.10466 0.41378
# Poissons Ratio (z) = 0.67500 0.67500
#
# Static dielectric constant tensor:
#      x y z
#    x 4.438860 0.000000 0.000000 
#    y 0.000000 4.438830 0.000000 
#    z 0.000000 0.000000 4.069060 
# 
# 
# High freq. dielectric constant tensor:
#      x y z
#    x 1.891660 0.000000 0.000000 
#    y 0.000000 1.891660 0.000000 
#    z 0.000000 0.000000 1.866430 
# 
# From -- ./inp_files/6175.got.cif
#   From: 2010.06.25/outbox.cif.g09.slc.cpg/sg140_4_cif.got.tgz:6175.got - 2010.06.28 10:53:23.
