data_PCOD8320624
_publ_section_title
;
Structure prediction by ZEFSAII (Michael W. Deem and Ramdas Pophale) SiO2 
 PCOD8320624
Probable space group: I 41/A M D
;
_chemical_formula_sum "Si O2"
_cell_formula_units_Z 128
_cell_length_a 21.164323
_cell_length_b 21.164323
_cell_length_c 16.409936
_cell_angle_alpha 90.000000
_cell_angle_beta 90.000000
_cell_angle_gamma 90.000000
_cell_volume 7350.479134
_symmetry_space_group_name_H-M "I 41/A M D"
_symmetry_group_IT_number 141
_space_group.IT_coordinate_system_code '2'
_symmetry_cell_setting 'tetragonal'
loop_
_space_group_symop_operation_xyz
x,y,z
1/4-y,3/4+x,1/4+z
-x,1/2-y,z
1/4+y,1/4-x,3/4+z
x,-y,-z
-x,1/2+y,-z
1/4+y,3/4+x,1/4-z
1/4-y,1/4-x,3/4-z
-x,-y,-z
3/4+y,1/4-x,3/4-z
x,1/2+y,-z
3/4-y,3/4+x,1/4-z
-x,y,z
x,1/2-y,z
3/4-y,1/4-x,3/4+z
3/4+y,3/4+x,1/4+z
1/2+x,1/2+y,1/2+z
3/4-y,1/4+x,3/4+z
1/2-x,-y,1/2+z
3/4+y,3/4-x,1/4+z
1/2+x,1/2-y,1/2-z
1/2-x,y,1/2-z
3/4+y,1/4+x,3/4-z
3/4-y,3/4-x,1/4-z
1/2-x,1/2-y,1/2-z
1/4+y,3/4-x,1/4-z
1/2+x,y,1/2-z
1/4-y,1/4+x,3/4-z
1/2-x,1/2+y,1/2+z
1/2+x,-y,1/2+z
1/4-y,3/4-x,1/4+z
1/4+y,1/4+x,3/4+z
loop_
_atom_site_type_symbol
_atom_site_label
_atom_site_fract_x
_atom_site_fract_y
_atom_site_fract_z
Si Si1 0.824976 0.482281 0.590022
Si Si2 0.891150 0.501429 0.130507
Si Si3 0.572190 0.595845 0.503840
Si Si4 0.816705 0.179365 0.040110
O O1 0.847291 0.500000 0.500000
O O2 0.796633 0.546633 0.625000
O O3 0.770679 0.428856 0.594389
O O4 0.886044 0.461577 0.639601
O O5 0.929378 0.444910 0.086909
O O6 0.927819 0.522056 0.211114
O O7 0.888792 0.559406 0.066574
O O8 0.500000 0.610628 0.477308
O O9 0.611376 0.659705 0.518219
O O10 0.818972 0.250000 0.074325
#
# Coordination Sequence:
#
# PCOD8320624 Si02
#       4
#    32  32  32  32
#     4  11  21  35  56  81 105 133 172 223 279 322
#     4  10  19  33  53  80 106 136 174 217 264 314
#     4  10  20  33  52  76 110 145 175 211 255 311
#     4  11  22  34  52  76 106 141 179 215 256 314
#
# _framework density 17.413830999999998
#
# number of rings (size 3 to 8) (size 9 to 14) (size 15 to 20)
#    0.000    1.500    2.500    5.250    3.500    1.000 
#    0.000    0.000    0.000    3.000    0.000    0.000 
#    0.000    0.500    0.000    0.000    0.000    0.000 
#
# Total GULP energy -793584.604791 kJ/mol
# GULP energy per Si atom -12399.759450 kJ/mol
# Density = 1.737420 g / cm^3
# Si number density = 17.413831 Si / 1000 Ang^3
#
#
#
# Elastic Constant Matrix: (Units=GPa)
#
#
# Indices 1 2 3 4 5 6 
#
# 1 111.9847 53.1305 44.6092 0.0000 0.0000 0.0000
# 2 53.1305 111.9847 44.6092 0.0000 0.0000 0.0000
# 3 44.6092 44.6092 106.9490 0.0000 0.0000 0.0000
# 4 0.0000 0.0000 0.0000 17.7197 0.0000 0.0000
# 5 0.0000 0.0000 0.0000 0.0000 17.7197 0.0000
# 6 0.0000 0.0000 0.0000 0.0000 0.0000 10.1483
#
#
#
# Elastic Compliance Matrix: (Units=1/GPa)
#
#
# Indices 1 2 3 4 5 6 
#
# 1 0.012405 -0.004586 -0.003261 0.000000 0.000000 0.000000
# 2 -0.004586 0.012405 -0.003261 0.000000 0.000000 0.000000
# 3 -0.003261 -0.003261 0.012071 0.000000 0.000000 0.000000
# 4 0.000000 0.000000 0.000000 0.056434 0.000000 0.000000
# 5 0.000000 0.000000 0.000000 0.000000 0.056434 0.000000
# 6 0.000000 0.000000 0.000000 0.000000 0.000000 0.098539
#
#
# Mechanical properties :
#
#
# Convention : Reuss Voigt Hill
#
# Bulk Modulus (GPa) = 68.19813 68.40176 68.29995
# Shear Modulus (GPa) = 18.15588 21.68885 19.92236
#
# Velocity S-wave (km/s) = 3.23245 3.53299 3.38606
# Velocity P-wave (km/s) = 7.29245 7.48385 7.38877
#
# Compressibility (1/GPa) = 0.01466316
#
# Stress axis : x y z
#
# Youngs Moduli (GPa) = 80.61379 80.61379 82.84487
#
# Poissons Ratio (x) = 0.36972 0.27017
# Poissons Ratio (y) = 0.36972 0.27017
# Poissons Ratio (z) = 0.26289 0.26289
#
# Static dielectric constant tensor:
#      x y z
#    x 3.100680 0.000000 0.000000 
#    y 0.000000 3.100680 0.000000 
#    z 0.000000 0.000000 3.265980 
# 
# 
# High freq. dielectric constant tensor:
#      x y z
#    x 1.661950 0.000000 0.000000 
#    y 0.000000 1.661950 0.000000 
#    z 0.000000 0.000000 1.672020 
# 
# From -- ./inp_files/8265.got.cif
#   From: 2010.03.12/outbox.cif.g09.slc.cpg/sg141_5_cif.got.tgz:8265.got - 2010.04.03 13:18:35.
