data_PCOD8320202
_publ_section_title
;
Structure prediction by ZEFSAII (Michael W. Deem and Ramdas Pophale) SiO2 
 PCOD8320202
Probable space group: I 4/M C M
;
_chemical_formula_sum "Si O2"
_cell_formula_units_Z 160
_cell_length_a 21.350434
_cell_length_b 21.350434
_cell_length_c 18.492390
_cell_angle_alpha 90.000000
_cell_angle_beta 90.000000
_cell_angle_gamma 90.000000
_cell_volume 8429.590142
_symmetry_space_group_name_H-M "I 4/M C M"
_symmetry_group_IT_number 140
_symmetry_cell_setting 'tetragonal'
loop_
_space_group_symop_operation_xyz
x,y,z
-y,x,z
-x,-y,z
y,-x,z
x,-y,1/2-z
-x,y,1/2-z
y,x,1/2-z
-y,-x,1/2-z
-x,-y,-z
y,-x,-z
x,y,-z
-y,x,-z
-x,y,1/2+z
x,-y,1/2+z
-y,-x,1/2+z
y,x,1/2+z
1/2+x,1/2+y,1/2+z
1/2-y,1/2+x,1/2+z
1/2-x,1/2-y,1/2+z
1/2+y,1/2-x,1/2+z
1/2+x,1/2-y,-z
1/2-x,1/2+y,-z
1/2+y,1/2+x,-z
1/2-y,1/2-x,-z
1/2-x,1/2-y,1/2-z
1/2+y,1/2-x,1/2-z
1/2+x,1/2+y,1/2-z
1/2-y,1/2+x,1/2-z
1/2-x,1/2+y,z
1/2+x,1/2-y,z
1/2-y,1/2-x,z
1/2+y,1/2+x,z
loop_
_atom_site_type_symbol
_atom_site_label
_atom_site_fract_x
_atom_site_fract_y
_atom_site_fract_z
Si Si1 0.923597 0.934083 0.334680
Si Si2 0.901029 0.598972 0.085266
Si Si3 0.663912 0.658832 0.916537
Si Si4 0.700762 0.799239 0.585533
Si Si5 0.109519 0.709760 0.080227
Si Si6 0.976493 0.373216 0.829007
O O1 0.920068 0.920068 0.250000
O O2 0.867401 0.897783 0.373572
O O3 0.993538 0.913218 0.357461
O O4 0.850131 0.649870 0.109467
O O5 0.881417 0.532623 0.116024
O O6 0.906415 0.593586 0.000000
O O7 0.731986 0.677626 0.883642
O O8 0.617096 0.716906 0.907737
O O9 0.671150 0.638702 0.000000
O O10 0.707573 0.792428 0.500000
O O11 0.177598 0.677598 0.086592
O O12 0.064137 0.684198 0.141865
O O13 0.081600 0.696191 0.000000
O O14 0.937161 0.437161 0.825383
O O15 0.000000 0.354722 0.750000
#
# Coordination Sequence:
#
# PCOD8320202 Si02
#       6
#    32  16  32  16  32  32
#     4   9  20  40  59  81 118 157 191 234 289 350
#     4  11  23  38  58  84 115 155 191 240 302 350
#     4  10  19  37  64  88 114 150 190 239 290 345
#     4   9  20  39  60  84 116 147 182 232 295 353
#     4   9  18  35  59  84 112 152 198 237 283 347
#     4  11  22  38  57  81 119 156 199 244 287 333
#
# _framework density 18.980756
#
# number of rings (size 3 to 8) (size 9 to 14) (size 15 to 20)
#    0.000    2.200    2.000    1.500    0.000    4.000 
#    7.200    5.500    0.000    0.000    0.000    0.000 
#    0.000    0.000    0.000    0.000    0.000    0.000 
#
# Total GULP energy -991910.209939 kJ/mol
# GULP energy per Si atom -12398.877624 kJ/mol
# Density = 1.893756 g / cm^3
# Si number density = 18.980756 Si / 1000 Ang^3
#
#
#
# Elastic Constant Matrix: (Units=GPa)
#
#
# Indices 1 2 3 4 5 6 
#
# 1 91.0430 60.5857 42.4768 0.0000 0.0000 0.0000
# 2 60.5857 91.0428 42.4774 0.0000 0.0000 0.0000
# 3 42.4768 42.4774 78.2755 0.0000 0.0000 0.0000
# 4 0.0000 0.0000 0.0000 27.2893 0.0000 0.0000
# 5 0.0000 0.0000 0.0000 0.0000 27.2893 0.0000
# 6 0.0000 0.0000 0.0000 0.0000 0.0000 31.1048
#
#
#
# Elastic Compliance Matrix: (Units=1/GPa)
#
#
# Indices 1 2 3 4 5 6 
#
# 1 0.021154 -0.011678 -0.005142 0.000000 0.000000 0.000000
# 2 -0.011678 0.021155 -0.005143 0.000000 0.000000 0.000000
# 3 -0.005142 -0.005143 0.018357 0.000000 0.000000 0.000000
# 4 0.000000 0.000000 0.000000 0.036644 0.000000 0.000000
# 5 0.000000 0.000000 0.000000 0.000000 0.036644 0.000000
# 6 0.000000 0.000000 0.000000 0.000000 0.000000 0.032149
#
#
# Mechanical properties :
#
#
# Convention : Reuss Voigt Hill
#
# Bulk Modulus (GPa) = 59.73909 61.27124 60.50516
# Shear Modulus (GPa) = 23.19002 24.79145 23.99074
#
# Velocity S-wave (km/s) = 3.49917 3.61797 3.55907
# Velocity P-wave (km/s) = 6.91863 7.05718 6.98825
#
# Compressibility (1/GPa) = 0.01673946
#
# Stress axis : x y z
#
# Youngs Moduli (GPa) = 47.27127 47.27073 54.47645
#
# Poissons Ratio (x) = 0.55205 0.28013
# Poissons Ratio (y) = 0.55205 0.28015
# Poissons Ratio (z) = 0.24308 0.24309
#
# Static dielectric constant tensor:
#      x y z
#    x 3.539180 0.000000 0.000000 
#    y 0.000000 3.539170 0.000000 
#    z 0.000000 0.000000 3.335440 
# 
# 
# High freq. dielectric constant tensor:
#      x y z
#    x 1.740500 0.000000 0.000000 
#    y 0.000000 1.740500 0.000000 
#    z 0.000000 0.000000 1.725030 
# 
# From -- ./inp_files/6910.got.cif
#   From: 2010.06.25/outbox.cif.g09.slc.cpg/sg140_4_cif.got.tgz:6910.got - 2010.06.28 10:53:23.
