data_PCOD8320969
_publ_section_title
;
Structure prediction by ZEFSAII (Michael W. Deem and Ramdas Pophale) SiO2 
 PCOD8320969
Probable space group: I 41/A C D
;
_chemical_formula_sum "Si O2"
_cell_formula_units_Z 144
_cell_length_a 30.389997
_cell_length_b 30.389997
_cell_length_c 8.820440
_cell_angle_alpha 90.000000
_cell_angle_beta 90.000000
_cell_angle_gamma 90.000000
_cell_volume 8146.134277
_symmetry_space_group_name_H-M "I 41/A C D"
_symmetry_group_IT_number 142
_space_group.IT_coordinate_system_code '2'
_symmetry_cell_setting 'tetragonal'
loop_
_space_group_symop_operation_xyz
x,y,z
1/4-y,3/4+x,1/4+z
-x,1/2-y,z
1/4+y,1/4-x,3/4+z
x,-y,1/2-z
1/2-x,y,-z
3/4+y,1/4+x,1/4-z
1/4-y,1/4-x,1/4-z
-x,-y,-z
3/4+y,1/4-x,3/4-z
x,1/2+y,-z
3/4-y,3/4+x,1/4-z
-x,y,1/2+z
1/2+x,-y,z
1/4-y,3/4-x,3/4+z
3/4+y,3/4+x,3/4+z
1/2+x,1/2+y,1/2+z
3/4-y,1/4+x,3/4+z
1/2-x,-y,1/2+z
3/4+y,3/4-x,1/4+z
1/2+x,1/2-y,-z
-x,1/2+y,1/2-z
1/4+y,3/4+x,3/4-z
3/4-y,3/4-x,3/4-z
1/2-x,1/2-y,1/2-z
1/4+y,3/4-x,1/4-z
1/2+x,y,1/2-z
1/4-y,1/4+x,3/4-z
1/2-x,1/2+y,z
x,1/2-y,1/2+z
3/4-y,1/4-x,1/4+z
1/4+y,1/4+x,1/4+z
loop_
_atom_site_type_symbol
_atom_site_label
_atom_site_fract_x
_atom_site_fract_y
_atom_site_fract_z
Si Si1 0.390504 0.953105 0.735447
Si Si2 0.250000 0.446913 0.000000
Si Si3 0.944455 0.553010 0.761257
Si Si4 0.178724 0.387062 0.844438
Si Si5 0.706539 0.772828 0.820856
O O1 0.389616 0.940580 0.558691
O O2 0.365277 0.915789 0.829901
O O3 0.439465 0.962042 0.800918
O O4 0.365181 0.000000 0.750000
O O5 0.225740 0.475740 0.125000
O O6 0.281982 0.417578 0.101138
O O7 0.937721 0.500000 0.750000
O O8 0.900207 0.578946 0.720051
O O9 0.983687 0.569732 0.652335
O O10 0.955589 0.569080 0.930909
O O11 0.750000 0.750000 0.750000
#
# Coordination Sequence:
#
# PCOD8320969 Si02
#       5
#    32  16  32  32  32
#     4  11  22  37  55  76 110 149 189 241 293 343
#     4  12  28  40  54  72 102 154 208 250 286 336
#     4  10  18  33  52  78 103 137 179 232 286 348
#     4  11  24  37  54  77 108 144 194 242 292 341
#     4  10  20  33  57  79 106 139 184 234 294 356
#
# _framework density 17.677095000000001
#
# number of rings (size 3 to 8) (size 9 to 14) (size 15 to 20)
#    0.000    1.333    1.111    7.333    7.778    0.000 
#    0.000    0.000    0.000    0.000    0.000    0.000 
#    0.000    0.889    0.000   18.222    0.000    9.111 
#
# Total GULP energy -892010.687519 kJ/mol
# GULP energy per Si atom -12389.037327 kJ/mol
# Density = 1.763686 g / cm^3
# Si number density = 17.677095 Si / 1000 Ang^3
#
#
#
# Elastic Constant Matrix: (Units=GPa)
#
#
# Indices 1 2 3 4 5 6 
#
# 1 94.5198 42.8939 47.3853 0.0000 0.0000 0.0000
# 2 42.8939 94.5198 47.3853 0.0000 0.0000 0.0000
# 3 47.3853 47.3853 104.1676 0.0000 0.0000 0.0000
# 4 0.0000 0.0000 0.0000 27.4080 0.0000 0.0000
# 5 0.0000 0.0000 0.0000 0.0000 27.4080 0.0000
# 6 0.0000 0.0000 0.0000 0.0000 0.0000 11.9176
#
#
#
# Elastic Compliance Matrix: (Units=1/GPa)
#
#
# Indices 1 2 3 4 5 6 
#
# 1 0.014987 -0.004383 -0.004824 0.000000 0.000000 0.000000
# 2 -0.004383 0.014987 -0.004824 0.000000 0.000000 0.000000
# 3 -0.004824 -0.004824 0.013989 0.000000 0.000000 0.000000
# 4 0.000000 0.000000 0.000000 0.036486 0.000000 0.000000
# 5 0.000000 0.000000 0.000000 0.000000 0.036486 0.000000
# 6 0.000000 0.000000 0.000000 0.000000 0.000000 0.083910
#
#
# Mechanical properties :
#
#
# Convention : Reuss Voigt Hill
#
# Bulk Modulus (GPa) = 62.88630 63.17070 63.02850
# Shear Modulus (GPa) = 21.34879 23.71624 22.53251
#
# Velocity S-wave (km/s) = 3.47898 3.66681 3.57413
# Velocity P-wave (km/s) = 7.19653 7.33081 7.26398
#
# Compressibility (1/GPa) = 0.01590172
#
# Stress axis : x y z
#
# Youngs Moduli (GPa) = 66.72392 66.72392 71.48717
#
# Poissons Ratio (x) = 0.29245 0.34484
# Poissons Ratio (y) = 0.29245 0.34484
# Poissons Ratio (z) = 0.32186 0.32186
#
# Static dielectric constant tensor:
#      x y z
#    x 3.423600 0.000000 0.000000 
#    y 0.000000 3.423600 0.000000 
#    z 0.000000 0.000000 4.202830 
# 
# 
# High freq. dielectric constant tensor:
#      x y z
#    x 1.653350 0.000000 0.000000 
#    y 0.000000 1.653350 0.000000 
#    z 0.000000 0.000000 1.716990 
# 
# From -- ./inp_files/2117.got.cif
#   From: 2010.03.12/outbox.cif.g09.slc.cpg/sg142_2_cif.got.tgz:2117.got - 2010.04.03 13:27:16.
