data_PCOD8320911
_publ_section_title
;
Structure prediction by ZEFSAII (Michael W. Deem and Ramdas Pophale) SiO2 
 PCOD8320911
Probable space group: I 41/A M D
;
_chemical_formula_sum "Si O2"
_cell_formula_units_Z 160
_cell_length_a 20.716820
_cell_length_b 20.716820
_cell_length_c 18.348558
_cell_angle_alpha 90.000000
_cell_angle_beta 90.000000
_cell_angle_gamma 90.000000
_cell_volume 7874.955790
_symmetry_space_group_name_H-M "I 41/A M D"
_symmetry_group_IT_number 141
_space_group.IT_coordinate_system_code '2'
_symmetry_cell_setting 'tetragonal'
loop_
_space_group_symop_operation_xyz
x,y,z
1/4-y,3/4+x,1/4+z
-x,1/2-y,z
1/4+y,1/4-x,3/4+z
x,-y,-z
-x,1/2+y,-z
1/4+y,3/4+x,1/4-z
1/4-y,1/4-x,3/4-z
-x,-y,-z
3/4+y,1/4-x,3/4-z
x,1/2+y,-z
3/4-y,3/4+x,1/4-z
-x,y,z
x,1/2-y,z
3/4-y,1/4-x,3/4+z
3/4+y,3/4+x,1/4+z
1/2+x,1/2+y,1/2+z
3/4-y,1/4+x,3/4+z
1/2-x,-y,1/2+z
3/4+y,3/4-x,1/4+z
1/2+x,1/2-y,1/2-z
1/2-x,y,1/2-z
3/4+y,1/4+x,3/4-z
3/4-y,3/4-x,1/4-z
1/2-x,1/2-y,1/2-z
1/4+y,3/4-x,1/4-z
1/2+x,y,1/2-z
1/4-y,1/4+x,3/4-z
1/2-x,1/2+y,1/2+z
1/2+x,-y,1/2+z
1/4-y,3/4-x,1/4+z
1/4+y,1/4+x,3/4+z
loop_
_atom_site_type_symbol
_atom_site_label
_atom_site_fract_x
_atom_site_fract_y
_atom_site_fract_z
Si Si1 0.674271 0.176388 0.593323
Si Si2 0.738549 0.084027 0.835204
Si Si3 0.362044 0.674118 0.944881
Si Si4 0.210846 0.848036 0.930405
Si Si5 0.317795 0.680026 0.721586
O O1 0.662686 0.250000 0.615836
O O2 0.615116 0.134884 0.625000
O O3 0.742288 0.153023 0.628804
O O4 0.676984 0.170469 0.505909
O O5 0.750000 0.085986 0.750000
O O6 0.666887 0.061987 0.849687
O O7 0.783298 0.033298 0.875000
O O8 0.372346 0.750000 0.962011
O O9 0.403445 0.653445 0.875000
O O10 0.287400 0.657890 0.934883
O O11 0.385959 0.629883 0.011684
O O12 0.185737 0.804155 0.864629
O O13 0.326166 0.750000 0.760879
O O14 0.250000 0.648197 0.750000
#
# Coordination Sequence:
#
# PCOD8320911 Si02
#       5
#    32  32  32  32  32
#     4  11  24  45  69  97 134 175 226 282 340 411
#     4  11  22  40  66 102 130 164 210 271 340 394
#     4  12  25  42  68  98 134 182 227 278 339 408
#     4  12  23  42  68  98 131 173 223 275 337 403
#     4  11  24  41  62  93 132 176 222 270 327 394
#
# _framework density 20.317575000000001
#
# number of rings (size 3 to 8) (size 9 to 14) (size 15 to 20)
#    0.000    0.600    6.000    4.200    0.000    2.000 
#    0.000    1.000    0.000    2.400    0.000    0.000 
#    0.000    0.000    0.000    0.000    0.000    0.000 
#
# Total GULP energy -991547.911096 kJ/mol
# GULP energy per Si atom -12394.348889 kJ/mol
# Density = 2.027133 g / cm^3
# Si number density = 20.317575 Si / 1000 Ang^3
#
#
#
# Elastic Constant Matrix: (Units=GPa)
#
#
# Indices 1 2 3 4 5 6 
#
# 1 148.6797 71.4621 38.7743 0.0000 0.0000 0.0000
# 2 71.4621 148.6797 38.7743 0.0000 0.0000 0.0000
# 3 38.7743 38.7743 133.7796 0.0000 0.0000 0.0000
# 4 0.0000 0.0000 0.0000 21.9696 0.0000 0.0000
# 5 0.0000 0.0000 0.0000 0.0000 21.9696 0.0000
# 6 0.0000 0.0000 0.0000 0.0000 0.0000 12.6052
#
#
#
# Elastic Compliance Matrix: (Units=1/GPa)
#
#
# Indices 1 2 3 4 5 6 
#
# 1 0.009005 -0.003946 -0.001466 0.000000 0.000000 0.000000
# 2 -0.003946 0.009005 -0.001466 0.000000 0.000000 0.000000
# 3 -0.001466 -0.001466 0.008325 0.000000 0.000000 0.000000
# 4 0.000000 0.000000 0.000000 0.045517 0.000000 0.000000
# 5 0.000000 0.000000 0.000000 0.000000 0.045517 0.000000
# 6 0.000000 0.000000 0.000000 0.000000 0.000000 0.079332
#
#
# Mechanical properties :
#
#
# Convention : Reuss Voigt Hill
#
# Bulk Modulus (GPa) = 79.50479 81.01784 80.26132
# Shear Modulus (GPa) = 23.29366 30.11744 26.70555
#
# Velocity S-wave (km/s) = 3.38964 3.85429 3.62941
# Velocity P-wave (km/s) = 7.38482 7.73108 7.55993
#
# Compressibility (1/GPa) = 0.01257786
#
# Stress axis : x y z
#
# Youngs Moduli (GPa) = 111.05268 111.05268 120.12068
#
# Poissons Ratio (x) = 0.43818 0.17613
# Poissons Ratio (y) = 0.43818 0.17613
# Poissons Ratio (z) = 0.16284 0.16284
#
# Static dielectric constant tensor:
#      x y z
#    x 3.967520 0.000000 0.000000 
#    y 0.000000 3.967520 0.000000 
#    z 0.000000 0.000000 3.850140 
# 
# 
# High freq. dielectric constant tensor:
#      x y z
#    x 1.792280 0.000000 0.000000 
#    y 0.000000 1.792280 0.000000 
#    z 0.000000 0.000000 1.808290 
# 
# From -- ./inp_files/8564.got.cif
#   From: 2010.03.12/outbox.cif.g09.slc.cpg/sg141_5_cif.got.tgz:8564.got - 2010.04.03 13:18:35.
