data_PCOD8320343
_publ_section_title
;
Structure prediction by ZEFSAII (Michael W. Deem and Ramdas Pophale) SiO2 
 PCOD8320343
Probable space group: I 4/M C M
;
_chemical_formula_sum "Si O2"
_cell_formula_units_Z 176
_cell_length_a 18.002592
_cell_length_b 18.002592
_cell_length_c 27.005829
_cell_angle_alpha 90.000000
_cell_angle_beta 90.000000
_cell_angle_gamma 90.000000
_cell_volume 8752.408745
_symmetry_space_group_name_H-M "I 4/M C M"
_symmetry_group_IT_number 140
_symmetry_cell_setting 'tetragonal'
loop_
_space_group_symop_operation_xyz
x,y,z
-y,x,z
-x,-y,z
y,-x,z
x,-y,1/2-z
-x,y,1/2-z
y,x,1/2-z
-y,-x,1/2-z
-x,-y,-z
y,-x,-z
x,y,-z
-y,x,-z
-x,y,1/2+z
x,-y,1/2+z
-y,-x,1/2+z
y,x,1/2+z
1/2+x,1/2+y,1/2+z
1/2-y,1/2+x,1/2+z
1/2-x,1/2-y,1/2+z
1/2+y,1/2-x,1/2+z
1/2+x,1/2-y,-z
1/2-x,1/2+y,-z
1/2+y,1/2+x,-z
1/2-y,1/2-x,-z
1/2-x,1/2-y,1/2-z
1/2+y,1/2-x,1/2-z
1/2+x,1/2+y,1/2-z
1/2-y,1/2+x,1/2-z
1/2-x,1/2+y,z
1/2+x,1/2-y,z
1/2-y,1/2-x,z
1/2+y,1/2+x,z
loop_
_atom_site_type_symbol
_atom_site_label
_atom_site_fract_x
_atom_site_fract_y
_atom_site_fract_z
Si Si1 0.836097 0.459655 0.198319
Si Si2 0.675395 0.293853 0.100926
Si Si3 0.222338 0.158024 0.206432
Si Si4 0.622439 0.002551 0.500000
Si Si5 0.091018 0.074458 0.941670
Si Si6 0.827635 0.448030 0.401353
O O1 0.855048 0.500000 0.250000
O O2 0.899996 0.399996 0.186925
O O3 0.753731 0.424667 0.201042
O O4 0.829900 0.512738 0.151452
O O5 0.750086 0.250086 0.081505
O O6 0.683353 0.310500 0.158278
O O7 0.659416 0.372374 0.074367
O O8 0.604037 0.243281 0.093237
O O9 0.161085 0.161085 0.250000
O O10 0.292765 0.207236 0.222525
O O11 0.567313 0.932688 0.500000
O O12 0.672942 0.001314 0.550039
O O13 0.580047 0.080047 0.500000
O O14 0.010184 0.103704 0.922097
O O15 0.089299 0.073610 0.000000
O O16 0.903121 0.403121 0.403431
#
# Coordination Sequence:
#
# PCOD8320343 Si02
#       6
#    32  32  32  16  32  32
#     4  11  22  35  57  86 116 152 197 249 302 360
#     4  10  21  36  60  89 117 154 200 248 299 357
#     4   9  19  37  55  75 109 148 188 237 300 362
#     4   9  18  34  54  76 114 165 202 238 291 350
#     4   9  20  39  62  87 117 156 198 249 311 359
#     4  10  21  35  54  83 118 158 203 243 292 358
#
# _framework density 20.108751000000002
#
# number of rings (size 3 to 8) (size 9 to 14) (size 15 to 20)
#    0.000    2.273    0.000    2.727    3.818    5.273 
#    0.000    0.000    0.000    0.000    0.000    1.273 
#    0.000    0.000    0.000    0.000    0.000    0.000 
#
# Total GULP energy -1090507.315844 kJ/mol
# GULP energy per Si atom -12392.128589 kJ/mol
# Density = 2.006298 g / cm^3
# Si number density = 20.108751 Si / 1000 Ang^3
#
#
#
# Elastic Constant Matrix: (Units=GPa)
#
#
# Indices 1 2 3 4 5 6 
#
# 1 61.0546 25.8106 17.1924 0.0000 0.0000 0.0000
# 2 25.8106 61.0547 17.1925 0.0000 0.0000 0.0000
# 3 17.1924 17.1925 92.3447 0.0000 0.0000 0.0000
# 4 0.0000 0.0000 0.0000 18.7151 0.0000 0.0000
# 5 0.0000 0.0000 0.0000 0.0000 18.7154 0.0000
# 6 0.0000 0.0000 0.0000 0.0000 0.0000 20.3378
#
#
#
# Elastic Compliance Matrix: (Units=1/GPa)
#
#
# Indices 1 2 3 4 5 6 
#
# 1 0.020401 -0.007973 -0.002314 0.000000 0.000000 0.000000
# 2 -0.007973 0.020401 -0.002314 0.000000 0.000000 0.000000
# 3 -0.002314 -0.002314 0.011691 0.000000 0.000000 0.000000
# 4 0.000000 0.000000 0.000000 0.053433 0.000000 0.000000
# 5 0.000000 0.000000 0.000000 0.000000 0.053432 0.000000
# 6 0.000000 0.000000 0.000000 0.000000 0.000000 0.049170
#
#
# Mechanical properties :
#
#
# Convention : Reuss Voigt Hill
#
# Bulk Modulus (GPa) = 36.64170 37.20498 36.92334
# Shear Modulus (GPa) = 20.59101 21.83755 21.21428
#
# Velocity S-wave (km/s) = 3.20344 3.29898 3.25157
# Velocity P-wave (km/s) = 5.65191 5.74918 5.70075
#
# Compressibility (1/GPa) = 0.02729131
#
# Stress axis : x y z
#
# Youngs Moduli (GPa) = 49.01771 49.01776 85.53919
#
# Poissons Ratio (x) = 0.39081 0.19792
# Poissons Ratio (y) = 0.39081 0.19792
# Poissons Ratio (z) = 0.11342 0.11342
#
# Static dielectric constant tensor:
#      x y z
#    x 3.813830 0.000000 0.000000 
#    y 0.000000 3.813830 0.000000 
#    z 0.000000 0.000000 2.278230 
# 
# 
# High freq. dielectric constant tensor:
#      x y z
#    x 1.775560 0.000000 0.000000 
#    y 0.000000 1.775560 0.000000 
#    z 0.000000 0.000000 1.786830 
# 
# From -- ./inp_files/10676.got.cif
#   From: 2010.06.25/outbox.cif.g09.slc.cpg/sg140_6_cif.got.tgz:10676.got - 2010.06.28 10:53:23.
