data_PCOD8320995
_publ_section_title
;
Structure prediction by ZEFSAII (Michael W. Deem and Ramdas Pophale) SiO2 
 PCOD8320995
Probable space group: I 41/A C D
;
_chemical_formula_sum "Si O2"
_cell_formula_units_Z 240
_cell_length_a 29.547984
_cell_length_b 29.547984
_cell_length_c 14.379298
_cell_angle_alpha 90.000000
_cell_angle_beta 90.000000
_cell_angle_gamma 90.000000
_cell_volume 12554.325790
_symmetry_space_group_name_H-M "I 41/A C D"
_symmetry_group_IT_number 142
_space_group.IT_coordinate_system_code '2'
_symmetry_cell_setting 'tetragonal'
loop_
_space_group_symop_operation_xyz
x,y,z
1/4-y,3/4+x,1/4+z
-x,1/2-y,z
1/4+y,1/4-x,3/4+z
x,-y,1/2-z
1/2-x,y,-z
3/4+y,1/4+x,1/4-z
1/4-y,1/4-x,1/4-z
-x,-y,-z
3/4+y,1/4-x,3/4-z
x,1/2+y,-z
3/4-y,3/4+x,1/4-z
-x,y,1/2+z
1/2+x,-y,z
1/4-y,3/4-x,3/4+z
3/4+y,3/4+x,3/4+z
1/2+x,1/2+y,1/2+z
3/4-y,1/4+x,3/4+z
1/2-x,-y,1/2+z
3/4+y,3/4-x,1/4+z
1/2+x,1/2-y,-z
-x,1/2+y,1/2-z
1/4+y,3/4+x,3/4-z
3/4-y,3/4-x,3/4-z
1/2-x,1/2-y,1/2-z
1/4+y,3/4-x,1/4-z
1/2+x,y,1/2-z
1/4-y,1/4+x,3/4-z
1/2-x,1/2+y,z
x,1/2-y,1/2+z
3/4-y,1/4-x,1/4+z
1/4+y,1/4+x,1/4+z
loop_
_atom_site_type_symbol
_atom_site_label
_atom_site_fract_x
_atom_site_fract_y
_atom_site_fract_z
Si Si1 0.933382 0.683382 0.375000
Si Si2 0.755333 0.210310 0.387772
Si Si3 0.827866 0.428441 0.274238
Si Si4 0.740419 0.393703 0.863529
Si Si5 0.406975 0.279343 0.829874
Si Si6 0.124824 0.336315 0.797800
Si Si7 0.543192 0.201117 0.653925
Si Si8 0.182215 0.252505 0.746776
O O1 0.921341 0.736151 0.391080
O O2 0.909093 0.661126 0.287439
O O3 0.750000 0.216329 0.500000
O O4 0.754499 0.158285 0.356159
O O5 0.802106 0.229029 0.343579
O O6 0.718635 0.240648 0.334533
O O7 0.855798 0.450130 0.189120
O O8 0.778450 0.413113 0.234991
O O9 0.824900 0.466899 0.354840
O O10 0.854380 0.385655 0.316949
O O11 0.422871 0.327130 0.875000
O O12 0.434508 0.271479 0.736991
O O13 0.354263 0.279910 0.803758
O O14 0.096667 0.318188 0.886710
O O15 0.164696 0.301770 0.774878
O O16 0.553152 0.239391 0.574279
#
# Coordination Sequence:
#
# PCOD8320995 Si02
#       8
#    16  32  32  32  32  32  32  32
#     4  10  19  34  52  76 118 162 204 250 288 324
#     4  11  22  41  66  88 117 160 200 258 316 364
#     4  10  20  34  58  95 120 141 186 250 314 370
#     4  10  20  34  59  96 117 143 189 246 315 372
#     4  11  23  36  53  81 119 169 203 248 297 348
#     4  11  21  36  59  84 122 157 201 256 297 349
#     4  11  22  35  48  78 118 165 213 247 285 339
#     4  10  24  41  56  93 124 154 213 258 297 369
#
# _framework density 19.116917999999998
#
# number of rings (size 3 to 8) (size 9 to 14) (size 15 to 20)
#    0.000    1.467    5.333    1.800    5.600    1.067 
#    0.000    0.000    0.000    0.000   20.800    0.000 
#    0.000    0.000    0.000    0.000    0.000    0.000 
#
# Total GULP energy -1486670.540433 kJ/mol
# GULP energy per Si atom -12388.921170 kJ/mol
# Density = 1.907341 g / cm^3
# Si number density = 19.116918 Si / 1000 Ang^3
#
#
#
# Elastic Constant Matrix: (Units=GPa)
#
#
# Indices 1 2 3 4 5 6 
#
# 1 104.5115 50.8031 38.2794 0.0000 0.0000 0.0000
# 2 50.8031 104.5099 38.2795 0.0000 0.0000 0.0000
# 3 38.2794 38.2795 72.7673 0.0000 0.0000 0.0000
# 4 0.0000 0.0000 0.0000 35.5847 0.0000 0.0000
# 5 0.0000 0.0000 0.0000 0.0000 35.5857 0.0000
# 6 0.0000 0.0000 0.0000 0.0000 0.0000 29.5789
#
#
#
# Elastic Compliance Matrix: (Units=1/GPa)
#
#
# Indices 1 2 3 4 5 6 
#
# 1 0.013656 -0.004963 -0.004573 0.000000 0.000000 0.000000
# 2 -0.004963 0.013656 -0.004573 0.000000 0.000000 0.000000
# 3 -0.004573 -0.004573 0.018554 0.000000 0.000000 0.000000
# 4 0.000000 0.000000 0.000000 0.028102 0.000000 0.000000
# 5 0.000000 0.000000 0.000000 0.000000 0.028101 0.000000
# 6 0.000000 0.000000 0.000000 0.000000 0.000000 0.033808
#
#
# Mechanical properties :
#
#
# Convention : Reuss Voigt Hill
#
# Bulk Modulus (GPa) = 56.66485 59.61253 58.13869
# Shear Modulus (GPa) = 29.41575 30.44496 29.93036
#
# Velocity S-wave (km/s) = 3.92692 3.99503 3.96112
# Velocity P-wave (km/s) = 7.08989 7.24784 7.16930
#
# Compressibility (1/GPa) = 0.01764762
#
# Stress axis : x y z
#
# Youngs Moduli (GPa) = 73.22858 73.22721 53.89818
#
# Poissons Ratio (x) = 0.36345 0.24646
# Poissons Ratio (y) = 0.36346 0.24647
# Poissons Ratio (z) = 0.33485 0.33486
#
# Static dielectric constant tensor:
#      x y z
#    x 3.554680 0.000000 0.000000 
#    y 0.000000 3.554700 0.000000 
#    z 0.000000 0.000000 3.452840 
# 
# 
# High freq. dielectric constant tensor:
#      x y z
#    x 1.739460 0.000000 0.000000 
#    y 0.000000 1.739460 0.000000 
#    z 0.000000 0.000000 1.724890 
# 
# From -- ./inp_files/5922.got.cif
#   From: 2010.03.12/outbox.cif.g09.slc.cpg/sg142_3_cif.got.tgz:5922.got - 2010.04.03 13:27:16.
