data_PCOD8320294
_publ_section_title
;
Structure prediction by ZEFSAII (Michael W. Deem and Ramdas Pophale) SiO2 
 PCOD8320294
Probable space group: I 4/M C M
;
_chemical_formula_sum "Si O2"
_cell_formula_units_Z 176
_cell_length_a 19.609872
_cell_length_b 19.609872
_cell_length_c 25.380891
_cell_angle_alpha 90.000000
_cell_angle_beta 90.000000
_cell_angle_gamma 90.000000
_cell_volume 9760.147518
_symmetry_space_group_name_H-M "I 4/M C M"
_symmetry_group_IT_number 140
_symmetry_cell_setting 'tetragonal'
loop_
_space_group_symop_operation_xyz
x,y,z
-y,x,z
-x,-y,z
y,-x,z
x,-y,1/2-z
-x,y,1/2-z
y,x,1/2-z
-y,-x,1/2-z
-x,-y,-z
y,-x,-z
x,y,-z
-y,x,-z
-x,y,1/2+z
x,-y,1/2+z
-y,-x,1/2+z
y,x,1/2+z
1/2+x,1/2+y,1/2+z
1/2-y,1/2+x,1/2+z
1/2-x,1/2-y,1/2+z
1/2+y,1/2-x,1/2+z
1/2+x,1/2-y,-z
1/2-x,1/2+y,-z
1/2+y,1/2+x,-z
1/2-y,1/2-x,-z
1/2-x,1/2-y,1/2-z
1/2+y,1/2-x,1/2-z
1/2+x,1/2+y,1/2-z
1/2-y,1/2+x,1/2-z
1/2-x,1/2+y,z
1/2+x,1/2-y,z
1/2-y,1/2-x,z
1/2+y,1/2+x,z
loop_
_atom_site_type_symbol
_atom_site_label
_atom_site_fract_x
_atom_site_fract_y
_atom_site_fract_z
Si Si1 0.256152 0.647092 0.104525
Si Si2 0.888884 0.997977 0.846253
Si Si3 0.752710 0.856359 0.771147
Si Si4 0.711992 0.500000 0.750000
Si Si5 0.749785 0.141749 0.938792
Si Si6 0.006460 0.210050 0.438942
O O1 0.193234 0.693234 0.084872
O O2 0.255255 0.636803 0.166495
O O3 0.327187 0.684439 0.090670
O O4 0.247874 0.574275 0.075945
O O5 0.831219 0.993720 0.802738
O O6 0.858658 0.996304 0.904912
O O7 0.931333 0.065965 0.838046
O O8 0.822481 0.822481 0.750000
O O9 0.688707 0.811294 0.752153
O O10 0.742700 0.931477 0.746096
O O11 0.680139 0.180139 0.920352
O O12 0.744350 0.060977 0.926422
O O13 0.762473 0.154563 0.000000
O O14 0.008282 0.188699 0.500000
#
# Coordination Sequence:
#
# PCOD8320294 Si02
#       6
#    32  32  32  16  32  32
#     4  10  20  36  57  81 111 145 187 234 283 340
#     4  11  23  36  52  78 111 149 188 224 270 334
#     4  10  22  37  57  86 113 142 188 243 288 332
#     4  12  22  37  60  79 110 150 186 228 286 342
#     4   9  19  35  55  78 106 143 187 232 277 329
#     4  11  22  35  54  81 112 148 189 231 279 332
#
# _framework density 18.032513999999999
#
# number of rings (size 3 to 8) (size 9 to 14) (size 15 to 20)
#    0.000    1.636    1.818    3.273    2.545    4.000 
#    0.000    0.909    0.000    0.818    0.000    5.091 
#    0.000    0.000    0.000    0.000    0.000    0.000 
#
# Total GULP energy -1091223.553925 kJ/mol
# GULP energy per Si atom -12400.267658 kJ/mol
# Density = 1.799147 g / cm^3
# Si number density = 18.032514 Si / 1000 Ang^3
#
#
#
# Elastic Constant Matrix: (Units=GPa)
#
#
# Indices 1 2 3 4 5 6 
#
# 1 121.4250 54.6415 25.7032 0.0000 0.0000 0.0000
# 2 54.6415 121.4250 25.7032 0.0000 0.0000 0.0000
# 3 25.7032 25.7032 56.0852 0.0000 0.0000 0.0000
# 4 0.0000 0.0000 0.0000 26.4349 0.0000 0.0000
# 5 0.0000 0.0000 0.0000 0.0000 26.4349 0.0000
# 6 0.0000 0.0000 0.0000 0.0000 0.0000 -77.2686
#
#
#
# Elastic Compliance Matrix: (Units=1/GPa)
#
#
# Indices 1 2 3 4 5 6 
#
# 1 0.010765 -0.004208 -0.003005 0.000000 0.000000 0.000000
# 2 -0.004208 0.010765 -0.003005 0.000000 0.000000 0.000000
# 3 -0.003005 -0.003005 0.020584 0.000000 0.000000 0.000000
# 4 0.000000 0.000000 0.000000 0.037829 0.000000 0.000000
# 5 0.000000 0.000000 0.000000 0.000000 0.037829 0.000000
# 6 0.000000 0.000000 0.000000 0.000000 0.000000 -0.012942
#
#
# Mechanical properties :
#
#
# Convention : Reuss Voigt Hill
#
# Bulk Modulus (GPa) = 46.12891 56.78121 51.45506
# Shear Modulus (GPa) = 37.73765 7.97941 22.85853
#
# Velocity S-wave (km/s) = 4.57963 2.10585 3.56424
# Velocity P-wave (km/s) = 7.32124 6.12123 6.74796
#
# Compressibility (1/GPa) = 0.02167838
#
# Stress axis : x y z
#
# Youngs Moduli (GPa) = 92.89017 92.89017 48.58063
#
# Poissons Ratio (x) = 0.39091 0.14599
# Poissons Ratio (y) = 0.39091 0.14599
# Poissons Ratio (z) = 0.27914 0.27914
#
# Static dielectric constant tensor:
#      x y z
#    x 3.495940 0.000000 0.000000 
#    y 0.000000 3.495940 0.000000 
#    z 0.000000 0.000000 3.413110 
# 
# 
# High freq. dielectric constant tensor:
#      x y z
#    x 1.688180 0.000000 0.000000 
#    y 0.000000 1.688180 0.000000 
#    z 0.000000 0.000000 1.711490 
# 
# From -- ./inp_files/10719.got.cif
#   From: 2010.06.25/outbox.cif.g09.slc.cpg/sg140_6_cif.got.tgz:10719.got - 2010.06.28 10:53:23.
