data_PCOD8320031
_publ_section_title
;
Structure prediction by ZEFSAII (Michael W. Deem and Ramdas Pophale) SiO2 
 PCOD8320031
Probable space group: I 4/M C M
;
_chemical_formula_sum "Si O2"
_cell_formula_units_Z 128
_cell_length_a 18.333435
_cell_length_b 18.333435
_cell_length_c 26.587411
_cell_angle_alpha 90.000000
_cell_angle_beta 90.000000
_cell_angle_gamma 90.000000
_cell_volume 8936.423365
_symmetry_space_group_name_H-M "I 4/M C M"
_symmetry_group_IT_number 140
_symmetry_cell_setting 'tetragonal'
loop_
_space_group_symop_operation_xyz
x,y,z
-y,x,z
-x,-y,z
y,-x,z
x,-y,1/2-z
-x,y,1/2-z
y,x,1/2-z
-y,-x,1/2-z
-x,-y,-z
y,-x,-z
x,y,-z
-y,x,-z
-x,y,1/2+z
x,-y,1/2+z
-y,-x,1/2+z
y,x,1/2+z
1/2+x,1/2+y,1/2+z
1/2-y,1/2+x,1/2+z
1/2-x,1/2-y,1/2+z
1/2+y,1/2-x,1/2+z
1/2+x,1/2-y,-z
1/2-x,1/2+y,-z
1/2+y,1/2+x,-z
1/2-y,1/2-x,-z
1/2-x,1/2-y,1/2-z
1/2+y,1/2-x,1/2-z
1/2+x,1/2+y,1/2-z
1/2-y,1/2+x,1/2-z
1/2-x,1/2+y,z
1/2+x,1/2-y,z
1/2-y,1/2-x,z
1/2+y,1/2+x,z
loop_
_atom_site_type_symbol
_atom_site_label
_atom_site_fract_x
_atom_site_fract_y
_atom_site_fract_z
Si Si1 0.800179 0.578563 0.267141
Si Si2 0.083873 0.156108 0.793148
Si Si3 0.473477 0.617366 0.443480
Si Si4 0.563203 0.688160 0.845982
O O1 0.830392 0.500000 0.250000
O O2 0.865623 0.634378 0.263542
O O3 0.735428 0.603454 0.229750
O O4 0.770170 0.575822 0.325137
O O5 0.095463 0.095463 0.750000
O O6 0.139802 0.136313 0.838216
O O7 0.001436 0.153184 0.812331
O O8 0.414686 0.553760 0.434372
O O9 0.466551 0.648484 0.500000
O O10 0.458258 0.684170 0.404924
#
# Coordination Sequence:
#
# PCOD8320031 Si02
#       4
#    32  32  32  32
#     4   9  19  32  44  61  81 104 140 175 216 267
#     4   9  17  25  37  59  86 117 142 166 199 240
#     4   9  16  25  38  59  87 122 156 178 197 227
#     4  10  16  26  40  59  88 118 144 174 202 239
#
# _framework density 14.323403000000001
#
# number of rings (size 3 to 8) (size 9 to 14) (size 15 to 20)
#    0.000    2.750    2.500    3.000    0.000    5.250 
#    0.000    6.250    0.000    0.750    0.000    0.000 
#    0.000   16.000    0.000    9.000    0.000    0.000 
#
# Total GULP energy -792845.873064 kJ/mol
# GULP energy per Si atom -12388.216767 kJ/mol
# Density = 1.429080 g / cm^3
# Si number density = 14.323403 Si / 1000 Ang^3
#
#
#
# Elastic Constant Matrix: (Units=GPa)
#
#
# Indices 1 2 3 4 5 6 
#
# 1 65.4857 47.5702 38.0647 0.0000 0.0000 0.0000
# 2 47.5702 65.4857 38.0647 0.0000 0.0000 0.0000
# 3 38.0647 38.0647 101.9867 0.0000 0.0000 0.0000
# 4 0.0000 0.0000 0.0000 12.8499 0.0000 0.0000
# 5 0.0000 0.0000 0.0000 0.0000 12.8499 0.0000
# 6 0.0000 0.0000 0.0000 0.0000 0.0000 20.9637
#
#
#
# Elastic Compliance Matrix: (Units=1/GPa)
#
#
# Indices 1 2 3 4 5 6 
#
# 1 0.033816 -0.022002 -0.004410 0.000000 0.000000 0.000000
# 2 -0.022002 0.033816 -0.004410 0.000000 0.000000 0.000000
# 3 -0.004410 -0.004410 0.013097 0.000000 0.000000 0.000000
# 4 0.000000 0.000000 0.000000 0.077822 0.000000 0.000000
# 5 0.000000 0.000000 0.000000 0.000000 0.077822 0.000000
# 6 0.000000 0.000000 0.000000 0.000000 0.000000 0.047701
#
#
# Mechanical properties :
#
#
# Convention : Reuss Voigt Hill
#
# Bulk Modulus (GPa) = 52.39017 53.37302 52.88159
# Shear Modulus (GPa) = 14.20141 16.61660 15.40901
#
# Velocity S-wave (km/s) = 3.15220 3.40972 3.28349
# Velocity P-wave (km/s) = 7.06431 7.26948 7.16763
#
# Compressibility (1/GPa) = 0.01908755
#
# Stress axis : x y z
#
# Youngs Moduli (GPa) = 29.57176 29.57176 76.35477
#
# Poissons Ratio (x) = 0.65063 0.33669
# Poissons Ratio (y) = 0.65063 0.33669
# Poissons Ratio (z) = 0.13040 0.13040
#
# Static dielectric constant tensor:
#      x y z
#    x 2.554050 0.000000 0.000000 
#    y 0.000000 2.554050 0.000000 
#    z 0.000000 0.000000 2.920280 
# 
# 
# High freq. dielectric constant tensor:
#      x y z
#    x 1.518140 0.000000 0.000000 
#    y 0.000000 1.518140 0.000000 
#    z 0.000000 0.000000 1.538980 
# 
# From -- ./inp_files/9538.got.cif
#   From: 2010.06.25/outbox.cif.g09.slc.cpg/sg140_5_cif.got.tgz:9538.got - 2010.06.28 10:53:23.
