data_PCOD8320321
_publ_section_title
;
Structure prediction by ZEFSAII (Michael W. Deem and Ramdas Pophale) SiO2 
 PCOD8320321
Probable space group: I 4/M C M
;
_chemical_formula_sum "Si O2"
_cell_formula_units_Z 176
_cell_length_a 24.352898
_cell_length_b 24.352898
_cell_length_c 14.931520
_cell_angle_alpha 90.000000
_cell_angle_beta 90.000000
_cell_angle_gamma 90.000000
_cell_volume 8855.341617
_symmetry_space_group_name_H-M "I 4/M C M"
_symmetry_group_IT_number 140
_symmetry_cell_setting 'tetragonal'
loop_
_space_group_symop_operation_xyz
x,y,z
-y,x,z
-x,-y,z
y,-x,z
x,-y,1/2-z
-x,y,1/2-z
y,x,1/2-z
-y,-x,1/2-z
-x,-y,-z
y,-x,-z
x,y,-z
-y,x,-z
-x,y,1/2+z
x,-y,1/2+z
-y,-x,1/2+z
y,x,1/2+z
1/2+x,1/2+y,1/2+z
1/2-y,1/2+x,1/2+z
1/2-x,1/2-y,1/2+z
1/2+y,1/2-x,1/2+z
1/2+x,1/2-y,-z
1/2-x,1/2+y,-z
1/2+y,1/2+x,-z
1/2-y,1/2-x,-z
1/2-x,1/2-y,1/2-z
1/2+y,1/2-x,1/2-z
1/2+x,1/2+y,1/2-z
1/2-y,1/2+x,1/2-z
1/2-x,1/2+y,z
1/2+x,1/2-y,z
1/2-y,1/2-x,z
1/2+y,1/2+x,z
loop_
_atom_site_type_symbol
_atom_site_label
_atom_site_fract_x
_atom_site_fract_y
_atom_site_fract_z
Si Si1 0.726886 0.681817 0.500000
Si Si2 0.483472 0.665523 0.151940
Si Si3 0.589328 0.511708 0.500000
Si Si4 0.359280 0.684701 0.157395
Si Si5 0.496621 0.207857 0.146024
Si Si6 0.884858 0.701385 0.899611
Si Si7 0.819829 0.409666 0.000000
O O1 0.759575 0.740426 0.500000
O O2 0.688333 0.674467 0.413944
O O3 0.769768 0.632543 0.500000
O O4 0.500000 0.645260 0.250000
O O5 0.517823 0.626863 0.086940
O O6 0.418416 0.659162 0.131078
O O7 0.505411 0.726665 0.135946
O O8 0.547019 0.560726 0.500000
O O9 0.340088 0.659913 0.250000
O O10 0.369927 0.749898 0.169007
O O11 0.500000 0.190041 0.250000
O O12 0.551689 0.185001 0.100909
O O13 0.445692 0.182529 0.091275
O O14 0.851946 0.648055 0.869062
O O15 0.868296 0.720937 0.000000
O O16 0.877540 0.377540 0.000000
#
# Coordination Sequence:
#
# PCOD8320321 Si02
#       7
#    16  32  16  32  32  32  16
#     4  11  25  40  59  92 134 171 201 253 323 387
#     4  10  24  41  63  91 118 162 213 266 315 369
#     4  11  26  42  60  83 112 157 210 268 330 376
#     4  11  24  39  61  96 125 164 207 253 316 380
#     4  10  22  41  62  92 123 160 212 252 301 384
#     4  10  20  38  63  88 121 162 202 248 300 361
#     4  11  25  42  64  94 133 171 206 265 328 378
#
# _framework density 19.875008999999999
#
# number of rings (size 3 to 8) (size 9 to 14) (size 15 to 20)
#    0.000    1.545    1.818    1.636   12.727    3.636 
#    0.000    0.909    0.000    1.091    0.000    1.273 
#    0.000    0.000    0.000    0.000    0.000    0.000 
#
# Total GULP energy -1091166.357556 kJ/mol
# GULP energy per Si atom -12399.617700 kJ/mol
# Density = 1.982977 g / cm^3
# Si number density = 19.875009 Si / 1000 Ang^3
#
#
#
# Elastic Constant Matrix: (Units=GPa)
#
#
# Indices 1 2 3 4 5 6 
#
# 1 75.4953 29.3857 28.6544 0.0000 0.0000 0.0000
# 2 29.3857 75.4959 28.6557 0.0000 0.0000 0.0000
# 3 28.6544 28.6557 101.8073 0.0000 0.0000 0.0000
# 4 0.0000 0.0000 0.0000 67.0187 0.0000 0.0000
# 5 0.0000 0.0000 0.0000 0.0000 67.0415 0.0000
# 6 0.0000 0.0000 0.0000 0.0000 0.0000 22.7131
#
#
#
# Elastic Compliance Matrix: (Units=1/GPa)
#
#
# Indices 1 2 3 4 5 6 
#
# 1 0.016477 -0.005210 -0.003171 0.000000 0.000000 0.000000
# 2 -0.005210 0.016477 -0.003172 0.000000 0.000000 0.000000
# 3 -0.003171 -0.003172 0.011608 0.000000 0.000000 0.000000
# 4 0.000000 0.000000 0.000000 0.014921 0.000000 0.000000
# 5 0.000000 0.000000 0.000000 0.000000 0.014916 0.000000
# 6 0.000000 0.000000 0.000000 0.000000 0.000000 0.044027
#
#
# Mechanical properties :
#
#
# Convention : Reuss Voigt Hill
#
# Bulk Modulus (GPa) = 46.60439 47.35445 46.97942
# Shear Modulus (GPa) = 33.62809 42.42816 38.02813
#
# Velocity S-wave (km/s) = 4.11783 4.62535 4.37895
# Velocity P-wave (km/s) = 6.79031 7.23899 7.01824
#
# Compressibility (1/GPa) = 0.02145721
#
# Stress axis : x y z
#
# Youngs Moduli (GPa) = 60.68915 60.68903 86.14938
#
# Poissons Ratio (x) = 0.31618 0.27320
# Poissons Ratio (y) = 0.31618 0.27323
# Poissons Ratio (z) = 0.19246 0.19248
#
# Static dielectric constant tensor:
#      x y z
#    x 3.619680 0.000000 0.000000 
#    y 0.000000 3.619680 0.000000 
#    z 0.000000 0.000000 3.714850 
# 
# 
# High freq. dielectric constant tensor:
#      x y z
#    x 1.770490 0.000000 0.000000 
#    y 0.000000 1.770490 0.000000 
#    z 0.000000 0.000000 1.780320 
# 
# From -- ./inp_files/5005.got.cif
#   From: 2010.06.25/outbox.cif.g09.slc.cpg/sg140_3_cif.got.tgz:5005.got - 2010.06.28 10:53:23.
