data_PCOD8320203
_publ_section_title
;
Structure prediction by ZEFSAII (Michael W. Deem and Ramdas Pophale) SiO2 
 PCOD8320203
Probable space group: I 4/M C M
;
_chemical_formula_sum "Si O2"
_cell_formula_units_Z 160
_cell_length_a 19.388909
_cell_length_b 19.388909
_cell_length_c 20.069692
_cell_angle_alpha 90.000000
_cell_angle_beta 90.000000
_cell_angle_gamma 90.000000
_cell_volume 7544.795143
_symmetry_space_group_name_H-M "I 4/M C M"
_symmetry_group_IT_number 140
_symmetry_cell_setting 'tetragonal'
loop_
_space_group_symop_operation_xyz
x,y,z
-y,x,z
-x,-y,z
y,-x,z
x,-y,1/2-z
-x,y,1/2-z
y,x,1/2-z
-y,-x,1/2-z
-x,-y,-z
y,-x,-z
x,y,-z
-y,x,-z
-x,y,1/2+z
x,-y,1/2+z
-y,-x,1/2+z
y,x,1/2+z
1/2+x,1/2+y,1/2+z
1/2-y,1/2+x,1/2+z
1/2-x,1/2-y,1/2+z
1/2+y,1/2-x,1/2+z
1/2+x,1/2-y,-z
1/2-x,1/2+y,-z
1/2+y,1/2+x,-z
1/2-y,1/2-x,-z
1/2-x,1/2-y,1/2-z
1/2+y,1/2-x,1/2-z
1/2+x,1/2+y,1/2-z
1/2-y,1/2+x,1/2-z
1/2-x,1/2+y,z
1/2+x,1/2-y,z
1/2-y,1/2-x,z
1/2+y,1/2+x,z
loop_
_atom_site_type_symbol
_atom_site_label
_atom_site_fract_x
_atom_site_fract_y
_atom_site_fract_z
Si Si1 0.579281 0.305525 0.750768
Si Si2 0.672366 0.394053 0.500000
Si Si3 0.626593 0.019050 0.923939
Si Si4 0.200031 0.944641 0.500000
Si Si5 0.209065 0.400995 0.375382
Si Si6 0.872757 0.264231 0.382868
O O1 0.500000 0.330252 0.750000
O O2 0.626860 0.373141 0.750000
O O3 0.597636 0.254382 0.690894
O O4 0.590249 0.262698 0.817427
O O5 0.683994 0.475116 0.500000
O O6 0.591726 0.374763 0.500000
O O7 0.702537 0.357572 0.566059
O O8 0.552976 0.052976 0.903178
O O9 0.684354 0.077512 0.921823
O O10 0.646256 0.956916 0.874006
O O11 0.623082 0.991376 0.000000
O O12 0.242778 0.921764 0.563822
O O13 0.174869 0.325132 0.382561
O O14 0.800947 0.300947 0.363383
#
# Coordination Sequence:
#
# PCOD8320203 Si02
#       6
#    32  16  32  16  32  32
#     4  12  26  45  66  92 127 166 215 270 327 385
#     4  12  23  42  67  90 129 164 212 267 320 383
#     4  10  19  37  67  99 132 172 213 255 312 383
#     4  12  25  42  63  93 124 167 215 264 319 376
#     4  12  24  42  66  96 133 168 211 265 322 386
#     4  11  21  39  67  94 124 164 207 255 318 385
#
# _framework density 21.206672000000001
#
# number of rings (size 3 to 8) (size 9 to 14) (size 15 to 20)
#    0.000    0.600    6.000    2.400    0.000    5.600 
#    0.000    1.000    0.000    4.800    0.000    0.000 
#    0.000    0.000    0.000    0.000    0.000    0.000 
#
# Total GULP energy -991920.048336 kJ/mol
# GULP energy per Si atom -12399.000604 kJ/mol
# Density = 2.115841 g / cm^3
# Si number density = 21.206672 Si / 1000 Ang^3
#
#
#
# Elastic Constant Matrix: (Units=GPa)
#
#
# Indices 1 2 3 4 5 6 
#
# 1 105.1884 101.1129 46.6488 0.0000 0.0000 0.0000
# 2 101.1129 105.1884 46.6490 0.0000 0.0000 0.0000
# 3 46.6488 46.6490 136.2707 0.0000 0.0000 0.0000
# 4 0.0000 0.0000 0.0000 8.0989 0.0000 0.0000
# 5 0.0000 0.0000 0.0000 0.0000 8.0928 0.0000
# 6 0.0000 0.0000 0.0000 0.0000 0.0000 56.0708
#
#
#
# Elastic Compliance Matrix: (Units=1/GPa)
#
#
# Indices 1 2 3 4 5 6 
#
# 1 0.125551 -0.119816 -0.001963 0.000000 0.000000 0.000000
# 2 -0.119816 0.125551 -0.001963 0.000000 0.000000 0.000000
# 3 -0.001963 -0.001963 0.008682 0.000000 0.000000 0.000000
# 4 0.000000 0.000000 0.000000 0.123474 0.000000 0.000000
# 5 0.000000 0.000000 0.000000 0.000000 0.123567 0.000000
# 6 0.000000 0.000000 0.000000 0.000000 0.000000 0.017835
#
#
# Mechanical properties :
#
#
# Convention : Reuss Voigt Hill
#
# Bulk Modulus (GPa) = 81.30305 81.71876 81.51090
# Shear Modulus (GPa) = 6.44126 24.60162 15.52144
#
# Velocity S-wave (km/s) = 1.74470 3.40970 2.70832
# Velocity P-wave (km/s) = 6.51769 7.35660 6.94981
#
# Compressibility (1/GPa) = 0.01229966
#
# Stress axis : x y z
#
# Youngs Moduli (GPa) = 7.96487 7.96486 115.17420
#
# Poissons Ratio (x) = 0.95432 0.22610
# Poissons Ratio (y) = 0.95432 0.22614
# Poissons Ratio (z) = 0.01564 0.01564
#
# Static dielectric constant tensor:
#      x y z
#    x 4.053950 0.000000 0.000000 
#    y 0.000000 4.053950 0.000000 
#    z 0.000000 0.000000 3.585270 
# 
# 
# High freq. dielectric constant tensor:
#      x y z
#    x 1.836970 0.000000 0.000000 
#    y 0.000000 1.836970 0.000000 
#    z 0.000000 0.000000 1.828600 
# 
# From -- ./inp_files/6911.got.cif
#   From: 2010.06.25/outbox.cif.g09.slc.cpg/sg140_4_cif.got.tgz:6911.got - 2010.06.28 10:53:23.
