data_PCOD8320694
_publ_section_title
;
Structure prediction by ZEFSAII (Michael W. Deem and Ramdas Pophale) SiO2 
 PCOD8320694
Probable space group: I 41/A M D
;
_chemical_formula_sum "Si O2"
_cell_formula_units_Z 128
_cell_length_a 25.817018
_cell_length_b 25.817018
_cell_length_c 9.517698
_cell_angle_alpha 90.000000
_cell_angle_beta 90.000000
_cell_angle_gamma 90.000000
_cell_volume 6343.721018
_symmetry_space_group_name_H-M "I 41/A M D"
_symmetry_group_IT_number 141
_space_group.IT_coordinate_system_code '2'
_symmetry_cell_setting 'tetragonal'
loop_
_space_group_symop_operation_xyz
x,y,z
1/4-y,3/4+x,1/4+z
-x,1/2-y,z
1/4+y,1/4-x,3/4+z
x,-y,-z
-x,1/2+y,-z
1/4+y,3/4+x,1/4-z
1/4-y,1/4-x,3/4-z
-x,-y,-z
3/4+y,1/4-x,3/4-z
x,1/2+y,-z
3/4-y,3/4+x,1/4-z
-x,y,z
x,1/2-y,z
3/4-y,1/4-x,3/4+z
3/4+y,3/4+x,1/4+z
1/2+x,1/2+y,1/2+z
3/4-y,1/4+x,3/4+z
1/2-x,-y,1/2+z
3/4+y,3/4-x,1/4+z
1/2+x,1/2-y,1/2-z
1/2-x,y,1/2-z
3/4+y,1/4+x,3/4-z
3/4-y,3/4-x,1/4-z
1/2-x,1/2-y,1/2-z
1/4+y,3/4-x,1/4-z
1/2+x,y,1/2-z
1/4-y,1/4+x,3/4-z
1/2-x,1/2+y,1/2+z
1/2+x,-y,1/2+z
1/4-y,3/4-x,1/4+z
1/4+y,1/4+x,3/4+z
loop_
_atom_site_type_symbol
_atom_site_label
_atom_site_fract_x
_atom_site_fract_y
_atom_site_fract_z
Si Si1 0.219431 0.363750 0.105185
Si Si2 0.060014 0.342643 0.221487
Si Si3 0.557466 0.373550 0.731389
Si Si4 0.321319 0.612046 0.021302
O O1 0.250000 0.346726 0.250000
O O2 0.180624 0.320140 0.045203
O O3 0.260491 0.376306 0.983002
O O4 0.185248 0.415947 0.123740
O O5 0.071117 0.321117 0.375000
O O6 0.084123 0.302387 0.111484
O O7 0.085505 0.398635 0.188817
O O8 0.000000 0.349028 0.194726
O O9 0.601428 0.351428 0.625000
O O10 0.500000 0.376282 0.661045
O O11 0.343603 0.593603 0.875000
#
# Coordination Sequence:
#
# PCOD8320694 Si02
#       4
#    32  32  32  32
#     4   9  18  36  59  84 113 151 199 245 292 350
#     4  10  20  34  55  83 112 146 193 244 288 341
#     4  11  24  40  58  84 120 159 197 241 299 366
#     4   8  16  32  53  80 110 138 180 235 285 338
#
# _framework density 20.177430999999999
#
# number of rings (size 3 to 8) (size 9 to 14) (size 15 to 20)
#    0.000    2.500    0.000    3.000    0.000    4.500 
#    0.000   13.750    0.000    7.500    0.000    0.000 
#    0.000    0.000    0.000    0.000    0.000    0.000 
#
# Total GULP energy -792921.334523 kJ/mol
# GULP energy per Si atom -12389.395852 kJ/mol
# Density = 2.013151 g / cm^3
# Si number density = 20.177431 Si / 1000 Ang^3
#
#
#
# Elastic Constant Matrix: (Units=GPa)
#
#
# Indices 1 2 3 4 5 6 
#
# 1 236.3729 -24.7871 21.9270 0.0000 0.0000 0.0000
# 2 -24.7871 236.3729 21.9270 0.0000 0.0000 0.0000
# 3 21.9270 21.9270 56.5550 0.0000 0.0000 0.0000
# 4 0.0000 0.0000 0.0000 25.8285 0.0000 0.0000
# 5 0.0000 0.0000 0.0000 0.0000 25.8285 0.0000
# 6 0.0000 0.0000 0.0000 0.0000 0.0000 9.5699
#
#
#
# Elastic Compliance Matrix: (Units=1/GPa)
#
#
# Indices 1 2 3 4 5 6 
#
# 1 0.004484 0.000655 -0.001993 0.000000 0.000000 0.000000
# 2 0.000655 0.004484 -0.001993 0.000000 0.000000 0.000000
# 3 -0.001993 -0.001993 0.019227 0.000000 0.000000 0.000000
# 4 0.000000 0.000000 0.000000 0.038717 0.000000 0.000000
# 5 0.000000 0.000000 0.000000 0.000000 0.038717 0.000000
# 6 0.000000 0.000000 0.000000 0.000000 0.000000 0.104495
#
#
# Mechanical properties :
#
#
# Convention : Reuss Voigt Hill
#
# Bulk Modulus (GPa) = 46.43548 63.04827 54.74188
# Shear Modulus (GPa) = 22.32519 46.26096 34.29307
#
# Velocity S-wave (km/s) = 3.32993 4.79342 4.12706
# Velocity P-wave (km/s) = 6.15208 7.87087 7.06395
#
# Compressibility (1/GPa) = 0.02153526
#
# Stress axis : x y z
#
# Youngs Moduli (GPa) = 223.00871 223.00871 52.01034
#
# Poissons Ratio (x) = -0.14608 0.10363
# Poissons Ratio (y) = -0.14608 0.10363
# Poissons Ratio (z) = 0.44435 0.44435
#
# Static dielectric constant tensor:
#      x y z
#    x 3.718340 0.000000 0.000000 
#    y 0.000000 3.718340 0.000000 
#    z 0.000000 0.000000 3.776220 
# 
# 
# High freq. dielectric constant tensor:
#      x y z
#    x 1.782590 0.000000 0.000000 
#    y 0.000000 1.782590 0.000000 
#    z 0.000000 0.000000 1.773470 
# 
# From -- ./inp_files/4606.got.cif
#   From: 2010.03.12/outbox.cif.g09.slc.cpg/sg141_3_cif.got.tgz:4606.got - 2010.04.03 13:18:35.
