data_PCOD8320198
_publ_section_title
;
Structure prediction by ZEFSAII (Michael W. Deem and Ramdas Pophale) SiO2 
 PCOD8320198
Probable space group: I 4/M C M
;
_chemical_formula_sum "Si O2"
_cell_formula_units_Z 160
_cell_length_a 23.766440
_cell_length_b 23.766440
_cell_length_c 14.712693
_cell_angle_alpha 90.000000
_cell_angle_beta 90.000000
_cell_angle_gamma 90.000000
_cell_volume 8310.371514
_symmetry_space_group_name_H-M "I 4/M C M"
_symmetry_group_IT_number 140
_symmetry_cell_setting 'tetragonal'
loop_
_space_group_symop_operation_xyz
x,y,z
-y,x,z
-x,-y,z
y,-x,z
x,-y,1/2-z
-x,y,1/2-z
y,x,1/2-z
-y,-x,1/2-z
-x,-y,-z
y,-x,-z
x,y,-z
-y,x,-z
-x,y,1/2+z
x,-y,1/2+z
-y,-x,1/2+z
y,x,1/2+z
1/2+x,1/2+y,1/2+z
1/2-y,1/2+x,1/2+z
1/2-x,1/2-y,1/2+z
1/2+y,1/2-x,1/2+z
1/2+x,1/2-y,-z
1/2-x,1/2+y,-z
1/2+y,1/2+x,-z
1/2-y,1/2-x,-z
1/2-x,1/2-y,1/2-z
1/2+y,1/2-x,1/2-z
1/2+x,1/2+y,1/2-z
1/2-y,1/2+x,1/2-z
1/2-x,1/2+y,z
1/2+x,1/2-y,z
1/2-y,1/2-x,z
1/2+y,1/2+x,z
loop_
_atom_site_type_symbol
_atom_site_label
_atom_site_fract_x
_atom_site_fract_y
_atom_site_fract_z
Si Si1 0.152781 0.436738 0.000000
Si Si2 0.589439 0.246928 0.865889
Si Si3 0.034336 0.829793 0.500000
Si Si4 0.168048 0.180032 0.350072
Si Si5 0.407680 0.364079 0.000000
Si Si6 0.708405 0.119464 0.324067
Si Si7 0.338858 0.067533 0.000000
O O1 0.186612 0.416105 0.912054
O O2 0.091603 0.408398 0.000000
O O3 0.142328 0.503209 0.000000
O O4 0.651650 0.273862 0.885978
O O5 0.581877 0.234403 0.758139
O O6 0.544578 0.290921 0.909797
O O7 0.072246 0.885547 0.500000
O O8 0.973891 0.857518 0.500000
O O9 0.155608 0.155608 0.250000
O O10 0.114511 0.165690 0.410143
O O11 0.169989 0.247952 0.348710
O O12 0.650209 0.150209 0.295566
O O13 0.698634 0.079233 0.410628
O O14 0.394190 0.105811 0.000000
#
# Coordination Sequence:
#
# PCOD8320198 Si02
#       7
#    16  32  16  32  16  32  16
#     4  11  23  38  57  80 112 150 190 240 296 343
#     4   9  20  36  54  88 116 143 182 228 289 349
#     4   9  20  36  59  84 111 155 193 236 287 326
#     4   9  19  34  54  85 118 149 184 228 289 348
#     4  10  19  37  54  77 120 148 201 245 270 333
#     4  10  20  36  59  84 115 151 184 231 287 350
#     4  10  24  41  56  83 111 145 204 245 281 342
#
# _framework density 19.253050000000002
#
# number of rings (size 3 to 8) (size 9 to 14) (size 15 to 20)
#    0.000    2.400    0.000    1.800    5.600    5.600 
#    3.600    4.000    0.000    0.000    0.000   14.000 
#    0.000    0.000    0.000    0.000    0.000    1.600 
#
# Total GULP energy -991204.125960 kJ/mol
# GULP energy per Si atom -12390.051575 kJ/mol
# Density = 1.920923 g / cm^3
# Si number density = 19.253050 Si / 1000 Ang^3
#
#
#
# Elastic Constant Matrix: (Units=GPa)
#
#
# Indices 1 2 3 4 5 6 
#
# 1 106.9699 48.3296 61.8146 0.0000 0.0000 0.0000
# 2 48.3296 106.9636 61.8147 0.0000 0.0000 0.0000
# 3 61.8146 61.8147 136.9431 0.0000 0.0000 0.0000
# 4 0.0000 0.0000 0.0000 16.1797 0.0000 0.0000
# 5 0.0000 0.0000 0.0000 0.0000 16.1811 0.0000
# 6 0.0000 0.0000 0.0000 0.0000 0.0000 18.1004
#
#
#
# Elastic Compliance Matrix: (Units=1/GPa)
#
#
# Indices 1 2 3 4 5 6 
#
# 1 0.013552 -0.003501 -0.004537 0.000000 0.000000 0.000000
# 2 -0.003501 0.013553 -0.004537 0.000000 0.000000 0.000000
# 3 -0.004537 -0.004537 0.011398 0.000000 0.000000 0.000000
# 4 0.000000 0.000000 0.000000 0.061806 0.000000 0.000000
# 5 0.000000 0.000000 0.000000 0.000000 0.061801 0.000000
# 6 0.000000 0.000000 0.000000 0.000000 0.000000 0.055247
#
#
# Mechanical properties :
#
#
# Convention : Reuss Voigt Hill
#
# Bulk Modulus (GPa) = 74.89209 77.19939 76.04574
# Shear Modulus (GPa) = 20.24630 22.02009 21.13320
#
# Velocity S-wave (km/s) = 3.24634 3.38556 3.31668
# Velocity P-wave (km/s) = 7.28251 7.44762 7.36552
#
# Compressibility (1/GPa) = 0.01335255
#
# Stress axis : x y z
#
# Youngs Moduli (GPa) = 73.78976 73.78369 87.73334
#
# Poissons Ratio (x) = 0.25835 0.39802
# Poissons Ratio (y) = 0.25837 0.39807
# Poissons Ratio (z) = 0.33476 0.33477
#
# Static dielectric constant tensor:
#      x y z
#    x 3.319530 0.000000 0.000000 
#    y 0.000000 3.319530 0.000000 
#    z 0.000000 0.000000 3.704870 
# 
# 
# High freq. dielectric constant tensor:
#      x y z
#    x 1.731400 0.000000 0.000000 
#    y 0.000000 1.731400 0.000000 
#    z 0.000000 0.000000 1.761060 
# 
# From -- ./inp_files/4869.got.cif
#   From: 2010.06.25/outbox.cif.g09.slc.cpg/sg140_3_cif.got.tgz:4869.got - 2010.06.28 10:53:23.
