data_PCOD8320929
_publ_section_title
;
Structure prediction by ZEFSAII (Michael W. Deem and Ramdas Pophale) SiO2 
 PCOD8320929
Probable space group: I 41/A M D
;
_chemical_formula_sum "Si O2"
_cell_formula_units_Z 80
_cell_length_a 10.875042
_cell_length_b 10.875042
_cell_length_c 30.460253
_cell_angle_alpha 90.000000
_cell_angle_beta 90.000000
_cell_angle_gamma 90.000000
_cell_volume 3602.428684
_symmetry_space_group_name_H-M "I 41/A M D"
_symmetry_group_IT_number 141
_space_group.IT_coordinate_system_code '2'
_symmetry_cell_setting 'tetragonal'
loop_
_space_group_symop_operation_xyz
x,y,z
1/4-y,3/4+x,1/4+z
-x,1/2-y,z
1/4+y,1/4-x,3/4+z
x,-y,-z
-x,1/2+y,-z
1/4+y,3/4+x,1/4-z
1/4-y,1/4-x,3/4-z
-x,-y,-z
3/4+y,1/4-x,3/4-z
x,1/2+y,-z
3/4-y,3/4+x,1/4-z
-x,y,z
x,1/2-y,z
3/4-y,1/4-x,3/4+z
3/4+y,3/4+x,1/4+z
1/2+x,1/2+y,1/2+z
3/4-y,1/4+x,3/4+z
1/2-x,-y,1/2+z
3/4+y,3/4-x,1/4+z
1/2+x,1/2-y,1/2-z
1/2-x,y,1/2-z
3/4+y,1/4+x,3/4-z
3/4-y,3/4-x,1/4-z
1/2-x,1/2-y,1/2-z
1/4+y,3/4-x,1/4-z
1/2+x,y,1/2-z
1/4-y,1/4+x,3/4-z
1/2-x,1/2+y,1/2+z
1/2+x,-y,1/2+z
1/4-y,3/4-x,1/4+z
1/4+y,1/4+x,3/4+z
loop_
_atom_site_type_symbol
_atom_site_label
_atom_site_fract_x
_atom_site_fract_y
_atom_site_fract_z
Si Si1 0.644417 0.750000 0.416749
Si Si2 0.640292 0.750000 0.158370
Si Si3 0.750256 0.025084 0.799515
Si Si4 0.861352 0.888649 0.625000
O O1 0.500000 0.750000 0.402232
O O2 0.744200 0.750000 0.376081
O O3 0.667387 0.633443 0.446092
O O4 0.500000 0.750000 0.137916
O O5 0.650326 0.869777 0.189432
O O6 0.750000 0.974322 0.750000
O O7 0.728501 0.914166 0.833831
O O8 0.839167 0.750000 0.609242
#
# Coordination Sequence:
#
# PCOD8320929 Si02
#       4
#    16  16  32  16
#     4  12  26  45  71 108 149 188 229 297 366 421
#     4  12  25  43  69 100 140 186 234 287 347 423
#     4  12  27  43  71 103 140 181 234 289 355 426
#     4  11  26  50  71  94 138 186 233 292 356 421
#
# _framework density 22.207239000000001
#
# number of rings (size 3 to 8) (size 9 to 14) (size 15 to 20)
#    0.000    0.200    6.000    1.800    8.400    0.800 
#    0.000    0.000    0.000    0.000    0.000    0.000 
#    0.000    0.000    0.000    0.000    0.000    0.000 
#
# Total GULP energy -495545.896987 kJ/mol
# GULP energy per Si atom -12388.647425 kJ/mol
# Density = 2.215669 g / cm^3
# Si number density = 22.207239 Si / 1000 Ang^3
#
#
#
# Elastic Constant Matrix: (Units=GPa)
#
#
# Indices 1 2 3 4 5 6 
#
# 1 124.0795 35.0005 39.0668 0.0000 0.0000 0.0000
# 2 35.0005 124.0801 39.0671 0.0000 0.0000 0.0000
# 3 39.0668 39.0671 171.6854 0.0000 0.0000 0.0000
# 4 0.0000 0.0000 0.0000 32.4147 0.0000 0.0000
# 5 0.0000 0.0000 0.0000 0.0000 32.4141 0.0000
# 6 0.0000 0.0000 0.0000 0.0000 0.0000 30.1008
#
#
#
# Elastic Compliance Matrix: (Units=1/GPa)
#
#
# Indices 1 2 3 4 5 6 
#
# 1 0.009152 -0.002074 -0.001610 0.000000 0.000000 0.000000
# 2 -0.002074 0.009152 -0.001610 0.000000 0.000000 0.000000
# 3 -0.001610 -0.001610 0.006557 0.000000 0.000000 0.000000
# 4 0.000000 0.000000 0.000000 0.030850 0.000000 0.000000
# 5 0.000000 0.000000 0.000000 0.000000 0.030851 0.000000
# 6 0.000000 0.000000 0.000000 0.000000 0.000000 0.033222
#
#
# Mechanical properties :
#
#
# Convention : Reuss Voigt Hill
#
# Bulk Modulus (GPa) = 70.07650 71.79042 70.93346
# Shear Modulus (GPa) = 37.00130 39.43329 38.21730
#
# Velocity S-wave (km/s) = 4.08632 4.21847 4.15292
# Velocity P-wave (km/s) = 7.34086 7.49166 7.41664
#
# Compressibility (1/GPa) = 0.01427012
#
# Stress axis : x y z
#
# Youngs Moduli (GPa) = 109.27123 109.27161 152.49731
#
# Poissons Ratio (x) = 0.22668 0.24558
# Poissons Ratio (y) = 0.22668 0.24558
# Poissons Ratio (z) = 0.17597 0.17597
#
# Static dielectric constant tensor:
#      x y z
#    x 4.174210 0.000000 0.000000 
#    y 0.000000 4.174250 0.000000 
#    z 0.000000 0.000000 3.790330 
# 
# 
# High freq. dielectric constant tensor:
#      x y z
#    x 1.880950 0.000000 0.000000 
#    y 0.000000 1.880950 0.000000 
#    z 0.000000 0.000000 1.860040 
# 
# From -- ./inp_files/13647.got.cif
#   From: 2010.03.12/outbox.cif.g09.slc.cpg/sg141_7_cif.got.tgz:13647.got - 2010.04.03 13:18:35.
