data_PCOD8320403
_publ_section_title
;
Structure prediction by ZEFSAII (Michael W. Deem and Ramdas Pophale) SiO2 
 PCOD8320403
Probable space group: I 4/M C M
;
_chemical_formula_sum "Si O2"
_cell_formula_units_Z 176
_cell_length_a 23.897895
_cell_length_b 23.897895
_cell_length_c 14.341604
_cell_angle_alpha 90.000000
_cell_angle_beta 90.000000
_cell_angle_gamma 90.000000
_cell_volume 8190.624647
_symmetry_space_group_name_H-M "I 4/M C M"
_symmetry_group_IT_number 140
_symmetry_cell_setting 'tetragonal'
loop_
_space_group_symop_operation_xyz
x,y,z
-y,x,z
-x,-y,z
y,-x,z
x,-y,1/2-z
-x,y,1/2-z
y,x,1/2-z
-y,-x,1/2-z
-x,-y,-z
y,-x,-z
x,y,-z
-y,x,-z
-x,y,1/2+z
x,-y,1/2+z
-y,-x,1/2+z
y,x,1/2+z
1/2+x,1/2+y,1/2+z
1/2-y,1/2+x,1/2+z
1/2-x,1/2-y,1/2+z
1/2+y,1/2-x,1/2+z
1/2+x,1/2-y,-z
1/2-x,1/2+y,-z
1/2+y,1/2+x,-z
1/2-y,1/2-x,-z
1/2-x,1/2-y,1/2-z
1/2+y,1/2-x,1/2-z
1/2+x,1/2+y,1/2-z
1/2-y,1/2+x,1/2-z
1/2-x,1/2+y,z
1/2+x,1/2-y,z
1/2-y,1/2-x,z
1/2+y,1/2+x,z
loop_
_atom_site_type_symbol
_atom_site_label
_atom_site_fract_x
_atom_site_fract_y
_atom_site_fract_z
Si Si1 0.845356 0.438562 0.396246
Si Si2 0.090141 0.500000 0.750000
Si Si3 0.255796 0.151481 0.107602
Si Si4 0.244572 0.065884 0.267092
Si Si5 0.565053 0.440418 0.859954
Si Si6 0.165003 0.128092 0.397282
O O1 0.832170 0.459932 0.500000
O O2 0.886208 0.386208 0.398522
O O3 0.872038 0.490454 0.340473
O O4 0.789706 0.419516 0.345431
O O5 0.053511 0.553511 0.775502
O O6 0.300464 0.199537 0.135622
O O7 0.263346 0.096425 0.171734
O O8 0.193484 0.175439 0.123770
O O9 0.264049 0.133273 0.000000
O O10 0.188528 0.091367 0.311676
O O11 0.236618 0.000000 0.250000
O O12 0.578218 0.503258 0.895356
O O13 0.563663 0.436338 0.750000
O O14 0.613566 0.400977 0.901610
O O15 0.190859 0.114302 0.500000
#
# Coordination Sequence:
#
# PCOD8320403 Si02
#       6
#    32  16  32  32  32  32
#     4  10  21  39  62  91 127 167 214 265 320 383
#     4   9  18  36  60  88 124 166 214 261 312 382
#     4  10  24  47  72  97 126 168 225 282 337 400
#     4  12  25  41  64  94 133 173 213 267 336 399
#     4   9  19  36  60  88 124 169 215 264 326 394
#     4  11  25  41  63  95 128 169 221 273 327 393
#
# _framework density 21.487983
#
# number of rings (size 3 to 8) (size 9 to 14) (size 15 to 20)
#    0.000    1.727    0.909    3.273    5.091    4.727 
#    0.000    4.545    0.000    0.000    0.000    0.000 
#    0.000    0.000    0.000    0.000    0.000    0.000 
#
# Total GULP energy -1091036.109277 kJ/mol
# GULP energy per Si atom -12398.137605 kJ/mol
# Density = 2.143908 g / cm^3
# Si number density = 21.487983 Si / 1000 Ang^3
#
#
#
# Elastic Constant Matrix: (Units=GPa)
#
#
# Indices 1 2 3 4 5 6 
#
# 1 117.4621 42.0281 53.3745 0.0000 0.0000 0.0000
# 2 42.0281 117.4620 53.3745 0.0000 0.0000 0.0000
# 3 53.3745 53.3745 146.5257 0.0000 0.0000 0.0000
# 4 0.0000 0.0000 0.0000 28.4374 0.0000 0.0000
# 5 0.0000 0.0000 0.0000 0.0000 28.4374 0.0000
# 6 0.0000 0.0000 0.0000 0.0000 0.0000 10.2509
#
#
#
# Elastic Compliance Matrix: (Units=1/GPa)
#
#
# Indices 1 2 3 4 5 6 
#
# 1 0.010774 -0.002483 -0.003020 0.000000 0.000000 0.000000
# 2 -0.002483 0.010774 -0.003020 0.000000 0.000000 0.000000
# 3 -0.003020 -0.003020 0.009025 0.000000 0.000000 0.000000
# 4 0.000000 0.000000 0.000000 0.035165 0.000000 0.000000
# 5 0.000000 0.000000 0.000000 0.000000 0.035165 0.000000
# 6 0.000000 0.000000 0.000000 0.000000 0.000000 0.097553
#
#
# Mechanical properties :
#
#
# Convention : Reuss Voigt Hill
#
# Bulk Modulus (GPa) = 73.92683 75.44489 74.68586
# Shear Modulus (GPa) = 22.72610 28.93665 25.83138
#
# Velocity S-wave (km/s) = 3.25563 3.67365 3.47094
# Velocity P-wave (km/s) = 6.97214 7.29251 7.13412
#
# Compressibility (1/GPa) = 0.01352689
#
# Stress axis : x y z
#
# Youngs Moduli (GPa) = 92.81539 92.81530 110.80141
#
# Poissons Ratio (x) = 0.23042 0.33466
# Poissons Ratio (y) = 0.23042 0.33466
# Poissons Ratio (z) = 0.28033 0.28033
#
# Static dielectric constant tensor:
#      x y z
#    x 3.889920 0.000000 0.000000 
#    y 0.000000 3.889930 0.000000 
#    z 0.000000 0.000000 3.958130 
# 
# 
# High freq. dielectric constant tensor:
#      x y z
#    x 1.838480 0.000000 0.000000 
#    y 0.000000 1.838490 0.000000 
#    z 0.000000 0.000000 1.857630 
# 
# From -- ./inp_files/4953.got.cif
#   From: 2010.06.25/outbox.cif.g09.slc.cpg/sg140_3_cif.got.tgz:4953.got - 2010.06.28 10:53:23.
