data_PCOD8320593
_publ_section_title
;
Structure prediction by ZEFSAII (Michael W. Deem and Ramdas Pophale) SiO2 
 PCOD8320593
Probable space group: I 41/A M D
;
_chemical_formula_sum "Si O2"
_cell_formula_units_Z 132
_cell_length_a 20.329513
_cell_length_b 20.329513
_cell_length_c 15.936777
_cell_angle_alpha 90.000000
_cell_angle_beta 90.000000
_cell_angle_gamma 90.000000
_cell_volume 6586.496204
_symmetry_space_group_name_H-M "I 41/A M D"
_symmetry_group_IT_number 141
_space_group.IT_coordinate_system_code '2'
_symmetry_cell_setting 'tetragonal'
loop_
_space_group_symop_operation_xyz
x,y,z
1/4-y,3/4+x,1/4+z
-x,1/2-y,z
1/4+y,1/4-x,3/4+z
x,-y,-z
-x,1/2+y,-z
1/4+y,3/4+x,1/4-z
1/4-y,1/4-x,3/4-z
-x,-y,-z
3/4+y,1/4-x,3/4-z
x,1/2+y,-z
3/4-y,3/4+x,1/4-z
-x,y,z
x,1/2-y,z
3/4-y,1/4-x,3/4+z
3/4+y,3/4+x,1/4+z
1/2+x,1/2+y,1/2+z
3/4-y,1/4+x,3/4+z
1/2-x,-y,1/2+z
3/4+y,3/4-x,1/4+z
1/2+x,1/2-y,1/2-z
1/2-x,y,1/2-z
3/4+y,1/4+x,3/4-z
3/4-y,3/4-x,1/4-z
1/2-x,1/2-y,1/2-z
1/4+y,3/4-x,1/4-z
1/2+x,y,1/2-z
1/4-y,1/4+x,3/4-z
1/2-x,1/2+y,1/2+z
1/2+x,-y,1/2+z
1/4-y,3/4-x,1/4+z
1/4+y,1/4+x,3/4+z
loop_
_atom_site_type_symbol
_atom_site_label
_atom_site_fract_x
_atom_site_fract_y
_atom_site_fract_z
Si Si1 0.393386 0.875247 0.676109
Si Si2 0.757870 0.613143 0.151194
Si Si3 0.304022 0.250000 0.677613
Si Si4 0.000000 0.614541 0.696279
Si Si5 0.000000 0.575831 0.504090
Si Si6 0.000000 0.750000 0.625000
Si Si7 0.577234 0.250000 0.797472
O O1 0.435625 0.906593 0.752292
O O2 0.349126 0.816249 0.709422
O O3 0.436385 0.845408 0.601260
O O4 0.351429 0.936526 0.641132
O O5 0.803864 0.553864 0.125000
O O6 0.750000 0.611808 0.250000
O O7 0.790390 0.683622 0.123449
O O8 0.250000 0.250000 0.750000
O O9 0.378586 0.250000 0.713112
O O10 0.000000 0.693248 0.693754
O O11 0.000000 0.591742 0.601698
O O12 0.000000 0.500000 0.500000
O O13 0.500000 0.250000 0.772965
#
# Coordination Sequence:
#
# PCOD8320593 Si02
#       7
#    32  32  16  16  16   4  16
#     4  11  21  39  66  93 125 172 219 268 334 395
#     4  11  24  44  69  93 129 179 230 277 335 416
#     4  10  18  43  66  93 128 163 213 285 336 397
#     4  11  21  38  64  95 121 159 208 269 327 398
#     4  12  25  38  55  92 139 169 213 277 321 384
#     4  12  16  36  72  92 132 160 210 252 324 408
#     4  11  19  35  71 100 123 160 214 271 346 400
#
# _framework density 20.041004999999998
#
# number of rings (size 3 to 8) (size 9 to 14) (size 15 to 20)
#    0.000    0.970    8.485    0.727    1.697    2.909 
#    2.182    1.212    0.000    0.000    0.000    0.000 
#    0.000    0.000    0.000    0.000    0.000    0.000 
#
# Total GULP energy -818107.228681 kJ/mol
# GULP energy per Si atom -12395.564071 kJ/mol
# Density = 1.999539 g / cm^3
# Si number density = 20.041005 Si / 1000 Ang^3
#
#
#
# Elastic Constant Matrix: (Units=GPa)
#
#
# Indices 1 2 3 4 5 6 
#
# 1 149.9759 80.7295 50.0384 0.0000 0.0000 0.0000
# 2 80.7295 149.9759 50.0384 0.0000 0.0000 0.0000
# 3 50.0384 50.0384 79.4528 0.0000 0.0000 0.0000
# 4 0.0000 0.0000 0.0000 1.6342 0.0000 0.0000
# 5 0.0000 0.0000 0.0000 0.0000 1.6342 0.0000
# 6 0.0000 0.0000 0.0000 0.0000 0.0000 -303.5331
#
#
#
# Elastic Compliance Matrix: (Units=1/GPa)
#
#
# Indices 1 2 3 4 5 6 
#
# 1 0.010202 -0.004239 -0.003756 0.000000 0.000000 0.000000
# 2 -0.004239 0.010202 -0.003756 0.000000 0.000000 0.000000
# 3 -0.003756 -0.003756 0.017317 0.000000 0.000000 0.000000
# 4 0.000000 0.000000 0.000000 0.611904 0.000000 0.000000
# 5 0.000000 0.000000 0.000000 0.000000 0.611904 0.000000
# 6 0.000000 0.000000 0.000000 0.000000 0.000000 -0.003295
#
#
# Mechanical properties :
#
#
# Convention : Reuss Voigt Hill
#
# Bulk Modulus (GPa) = 70.31928 82.33523 76.32726
# Shear Modulus (GPa) = 3.88658 -46.81302 -21.46322
#
# Velocity S-wave (km/s) = 1.39410 -4.83832 -3.27611
# Velocity P-wave (km/s) = 6.14453 3.15597 4.88443
#
# Compressibility (1/GPa) = 0.01422085
#
# Stress axis : x y z
#
# Youngs Moduli (GPa) = 98.01528 98.01528 57.74688
#
# Poissons Ratio (x) = 0.41546 0.21689
# Poissons Ratio (y) = 0.41546 0.21689
# Poissons Ratio (z) = 0.36814 0.36814
#
# Static dielectric constant tensor:
#      x y z
#    x 3.992160 0.000000 0.000000 
#    y 0.000000 3.992160 0.000000 
#    z 0.000000 0.000000 3.510560 
# 
# 
# High freq. dielectric constant tensor:
#      x y z
#    x 1.782620 0.000000 0.000000 
#    y 0.000000 1.782620 0.000000 
#    z 0.000000 0.000000 1.771970 
# 
# From -- ./inp_files/6349.got.cif
#   From: 2010.03.12/outbox.cif.g09.slc.cpg/sg141_4_cif.got.tgz:6349.got - 2010.04.03 13:18:35.
