data_PCOD8320661
_publ_section_title
;
Structure prediction by ZEFSAII (Michael W. Deem and Ramdas Pophale) SiO2 
 PCOD8320661
Probable space group: I 41/A M D
;
_chemical_formula_sum "Si O2"
_cell_formula_units_Z 128
_cell_length_a 20.057774
_cell_length_b 20.057774
_cell_length_c 15.810783
_cell_angle_alpha 90.000000
_cell_angle_beta 90.000000
_cell_angle_gamma 90.000000
_cell_volume 6360.904061
_symmetry_space_group_name_H-M "I 41/A M D"
_symmetry_group_IT_number 141
_space_group.IT_coordinate_system_code '2'
_symmetry_cell_setting 'tetragonal'
loop_
_space_group_symop_operation_xyz
x,y,z
1/4-y,3/4+x,1/4+z
-x,1/2-y,z
1/4+y,1/4-x,3/4+z
x,-y,-z
-x,1/2+y,-z
1/4+y,3/4+x,1/4-z
1/4-y,1/4-x,3/4-z
-x,-y,-z
3/4+y,1/4-x,3/4-z
x,1/2+y,-z
3/4-y,3/4+x,1/4-z
-x,y,z
x,1/2-y,z
3/4-y,1/4-x,3/4+z
3/4+y,3/4+x,1/4+z
1/2+x,1/2+y,1/2+z
3/4-y,1/4+x,3/4+z
1/2-x,-y,1/2+z
3/4+y,3/4-x,1/4+z
1/2+x,1/2-y,1/2-z
1/2-x,y,1/2-z
3/4+y,1/4+x,3/4-z
3/4-y,3/4-x,1/4-z
1/2-x,1/2-y,1/2-z
1/4+y,3/4-x,1/4-z
1/2+x,y,1/2-z
1/4-y,1/4+x,3/4-z
1/2-x,1/2+y,1/2+z
1/2+x,-y,1/2+z
1/4-y,3/4-x,1/4+z
1/4+y,1/4+x,3/4+z
loop_
_atom_site_type_symbol
_atom_site_label
_atom_site_fract_x
_atom_site_fract_y
_atom_site_fract_z
Si Si1 0.000000 0.574194 0.520335
Si Si2 0.500000 0.075819 0.216339
Si Si3 0.636629 0.995397 0.400637
Si Si4 0.799290 0.750000 0.065066
Si Si5 0.073936 0.750000 0.957067
Si Si6 0.614559 0.361979 0.919919
O O1 0.000000 0.500000 0.500000
O O2 0.931566 0.593797 0.477373
O O3 0.000000 0.594402 0.618296
O O4 0.438722 0.107847 0.262681
O O5 0.500000 0.995652 0.229676
O O6 0.698029 0.948029 0.375000
O O7 0.566173 0.966145 0.368764
O O8 0.631824 0.000000 0.500000
O O9 0.650326 0.071054 0.368222
O O10 0.875601 0.750000 0.035691
O O11 0.081002 0.681804 0.903414
O O12 0.000000 0.750000 0.995989
#
# Coordination Sequence:
#
# PCOD8320661 Si02
#       6
#    16  16  32  16  16  32
#     4  11  23  37  58  91 131 172 210 269 328 391
#     4  10  19  39  63  92 124 171 213 266 336 386
#     4  11  24  45  69  95 130 177 222 274 333 394
#     4  10  23  42  65  96 135 169 221 273 326 398
#     4  11  20  40  69  97 133 175 217 278 340 390
#     4  10  22  39  64  94 129 167 219 274 325 395
#
# _framework density 20.122926
#
# number of rings (size 3 to 8) (size 9 to 14) (size 15 to 20)
#    0.000    1.500    1.250    4.125    0.000    3.000 
#    6.750    1.250    0.000    0.000    0.000    0.000 
#    0.000    0.000    0.000    0.000    0.000    0.000 
#
# Total GULP energy -792980.877446 kJ/mol
# GULP energy per Si atom -12390.326210 kJ/mol
# Density = 2.007712 g / cm^3
# Si number density = 20.122926 Si / 1000 Ang^3
#
#
#
# Elastic Constant Matrix: (Units=GPa)
#
#
# Indices 1 2 3 4 5 6 
#
# 1 165.2242 69.0814 67.7164 0.0000 0.0000 0.0000
# 2 69.0814 165.2242 67.7164 0.0000 0.0000 0.0000
# 3 67.7164 67.7164 151.5065 0.0000 0.0000 0.0000
# 4 0.0000 0.0000 0.0000 31.4648 0.0000 0.0000
# 5 0.0000 0.0000 0.0000 0.0000 31.4648 0.0000
# 6 0.0000 0.0000 0.0000 0.0000 0.0000 20.4595
#
#
#
# Elastic Compliance Matrix: (Units=1/GPa)
#
#
# Indices 1 2 3 4 5 6 
#
# 1 0.008078 -0.002323 -0.002572 0.000000 0.000000 0.000000
# 2 -0.002323 0.008078 -0.002572 0.000000 0.000000 0.000000
# 3 -0.002572 -0.002572 0.008900 0.000000 0.000000 0.000000
# 4 0.000000 0.000000 0.000000 0.031782 0.000000 0.000000
# 5 0.000000 0.000000 0.000000 0.000000 0.031782 0.000000
# 6 0.000000 0.000000 0.000000 0.000000 0.000000 0.048877
#
#
# Mechanical properties :
#
#
# Convention : Reuss Voigt Hill
#
# Bulk Modulus (GPa) = 98.80841 98.99813 98.90327
# Shear Modulus (GPa) = 32.09162 35.17386 33.63274
#
# Velocity S-wave (km/s) = 3.99780 4.18538 4.09267
# Velocity P-wave (km/s) = 8.39755 8.52409 8.46106
#
# Compressibility (1/GPa) = 0.01012060
#
# Stress axis : x y z
#
# Youngs Moduli (GPa) = 123.79443 123.79443 112.36527
#
# Poissons Ratio (x) = 0.28761 0.28901
# Poissons Ratio (y) = 0.28761 0.28901
# Poissons Ratio (z) = 0.31841 0.31841
#
# Static dielectric constant tensor:
#      x y z
#    x 3.860560 0.000000 0.000000 
#    y 0.000000 3.860560 0.000000 
#    z 0.000000 0.000000 3.623140 
# 
# 
# High freq. dielectric constant tensor:
#      x y z
#    x 1.797710 0.000000 0.000000 
#    y 0.000000 1.797710 0.000000 
#    z 0.000000 0.000000 1.792770 
# 
# From -- ./inp_files/6316.got.cif
#   From: 2010.03.12/outbox.cif.g09.slc.cpg/sg141_4_cif.got.tgz:6316.got - 2010.04.03 13:18:35.
