data_PCOD8320394
_publ_section_title
;
Structure prediction by ZEFSAII (Michael W. Deem and Ramdas Pophale) SiO2 
 PCOD8320394
Probable space group: I 4/M C M
;
_chemical_formula_sum "Si O2"
_cell_formula_units_Z 176
_cell_length_a 22.824209
_cell_length_b 22.824209
_cell_length_c 17.299288
_cell_angle_alpha 90.000000
_cell_angle_beta 90.000000
_cell_angle_gamma 90.000000
_cell_volume 9011.969223
_symmetry_space_group_name_H-M "I 4/M C M"
_symmetry_group_IT_number 140
_symmetry_cell_setting 'tetragonal'
loop_
_space_group_symop_operation_xyz
x,y,z
-y,x,z
-x,-y,z
y,-x,z
x,-y,1/2-z
-x,y,1/2-z
y,x,1/2-z
-y,-x,1/2-z
-x,-y,-z
y,-x,-z
x,y,-z
-y,x,-z
-x,y,1/2+z
x,-y,1/2+z
-y,-x,1/2+z
y,x,1/2+z
1/2+x,1/2+y,1/2+z
1/2-y,1/2+x,1/2+z
1/2-x,1/2-y,1/2+z
1/2+y,1/2-x,1/2+z
1/2+x,1/2-y,-z
1/2-x,1/2+y,-z
1/2+y,1/2+x,-z
1/2-y,1/2-x,-z
1/2-x,1/2-y,1/2-z
1/2+y,1/2-x,1/2-z
1/2+x,1/2+y,1/2-z
1/2-y,1/2+x,1/2-z
1/2-x,1/2+y,z
1/2+x,1/2-y,z
1/2-y,1/2-x,z
1/2+y,1/2+x,z
loop_
_atom_site_type_symbol
_atom_site_label
_atom_site_fract_x
_atom_site_fract_y
_atom_site_fract_z
Si Si1 0.864158 0.461412 0.915033
Si Si2 0.544896 0.044896 0.908965
Si Si3 0.041441 0.833862 0.910266
Si Si4 0.059917 0.732899 0.795890
Si Si5 0.334940 0.259425 0.691797
Si Si6 0.907884 0.848367 0.088762
O O1 0.919603 0.419603 0.923222
O O2 0.888230 0.526126 0.888408
O O3 0.823780 0.437812 0.848562
O O4 0.832922 0.465374 0.000000
O O5 0.500000 0.000000 0.866843
O O6 0.538056 0.038056 0.000000
O O7 0.069472 0.785787 0.854952
O O8 0.083904 0.889611 0.898372
O O9 0.975030 0.845901 0.881790
O O10 0.042267 0.813842 0.000000
O O11 0.113344 0.726735 0.737094
O O12 0.000000 0.740035 0.750000
O O13 0.299736 0.299736 0.750000
O O14 0.290335 0.209666 0.656809
O O15 0.364878 0.301286 0.628379
O O16 0.904770 0.830664 0.000000
#
# Coordination Sequence:
#
# PCOD8320394 Si02
#       6
#    32  16  32  32  32  32
#     4   9  18  35  57  80 109 147 196 247 293 346
#     4   7  12  28  54  76 100 138 180 233 297 347
#     4  10  21  38  62  89 117 151 191 236 293 359
#     4  12  22  36  57  82 117 157 194 242 292 350
#     4  11  23  40  61  85 119 159 200 244 293 346
#     4  10  21  40  64  90 121 155 194 241 297 361
#
# _framework density 19.529582999999999
#
# number of rings (size 3 to 8) (size 9 to 14) (size 15 to 20)
#    0.000    1.909    3.636    2.182    0.000    0.727 
#    3.273    1.818    0.000    0.000    0.000    0.000 
#    0.000    0.000    0.000    0.000    0.000    0.000 
#
# Total GULP energy -1090233.791033 kJ/mol
# GULP energy per Si atom -12389.020353 kJ/mol
# Density = 1.948513 g / cm^3
# Si number density = 19.529583 Si / 1000 Ang^3
#
#
#
# Elastic Constant Matrix: (Units=GPa)
#
#
# Indices 1 2 3 4 5 6 
#
# 1 92.6733 58.4344 32.5928 0.0000 0.0000 0.0000
# 2 58.4344 92.6733 32.5928 0.0000 0.0000 0.0000
# 3 32.5928 32.5928 57.9172 0.0000 0.0000 0.0000
# 4 0.0000 0.0000 0.0000 48.9112 0.0000 0.0000
# 5 0.0000 0.0000 0.0000 0.0000 48.9112 0.0000
# 6 0.0000 0.0000 0.0000 0.0000 0.0000 26.8592
#
#
#
# Elastic Compliance Matrix: (Units=1/GPa)
#
#
# Indices 1 2 3 4 5 6 
#
# 1 0.018973 -0.010234 -0.004918 0.000000 0.000000 0.000000
# 2 -0.010234 0.018973 -0.004918 0.000000 0.000000 0.000000
# 3 -0.004918 -0.004918 0.022801 0.000000 0.000000 0.000000
# 4 0.000000 0.000000 0.000000 0.020445 0.000000 0.000000
# 5 0.000000 0.000000 0.000000 0.000000 0.020445 0.000000
# 6 0.000000 0.000000 0.000000 0.000000 0.000000 0.037231
#
#
# Mechanical properties :
#
#
# Convention : Reuss Voigt Hill
#
# Bulk Modulus (GPa) = 48.52535 54.50042 51.51289
# Shear Modulus (GPa) = 26.89944 32.91258 29.90601
#
# Velocity S-wave (km/s) = 3.71532 4.10965 3.91745
# Velocity P-wave (km/s) = 6.58072 7.10536 6.84807
#
# Compressibility (1/GPa) = 0.02060778
#
# Stress axis : x y z
#
# Youngs Moduli (GPa) = 52.70663 52.70663 43.85713
#
# Poissons Ratio (x) = 0.53938 0.21569
# Poissons Ratio (y) = 0.53938 0.21569
# Poissons Ratio (z) = 0.25921 0.25921
#
# Static dielectric constant tensor:
#      x y z
#    x 3.759730 0.000000 0.000000 
#    y 0.000000 3.759730 0.000000 
#    z 0.000000 0.000000 3.437850 
# 
# 
# High freq. dielectric constant tensor:
#      x y z
#    x 1.760520 0.000000 0.000000 
#    y 0.000000 1.760520 0.000000 
#    z 0.000000 0.000000 1.753450 
# 
# From -- ./inp_files/4896.got.cif
#   From: 2010.06.25/outbox.cif.g09.slc.cpg/sg140_3_cif.got.tgz:4896.got - 2010.06.28 10:53:23.
