data_PCOD8320104
_publ_section_title
;
Structure prediction by ZEFSAII (Michael W. Deem and Ramdas Pophale) SiO2 
 PCOD8320104
Probable space group: I 4/M C M
;
_chemical_formula_sum "Si O2"
_cell_formula_units_Z 160
_cell_length_a 31.168723
_cell_length_b 31.168723
_cell_length_c 10.414318
_cell_angle_alpha 90.000000
_cell_angle_beta 90.000000
_cell_angle_gamma 90.000000
_cell_volume 10117.398436
_symmetry_space_group_name_H-M "I 4/M C M"
_symmetry_group_IT_number 140
_symmetry_cell_setting 'tetragonal'
loop_
_space_group_symop_operation_xyz
x,y,z
-y,x,z
-x,-y,z
y,-x,z
x,-y,1/2-z
-x,y,1/2-z
y,x,1/2-z
-y,-x,1/2-z
-x,-y,-z
y,-x,-z
x,y,-z
-y,x,-z
-x,y,1/2+z
x,-y,1/2+z
-y,-x,1/2+z
y,x,1/2+z
1/2+x,1/2+y,1/2+z
1/2-y,1/2+x,1/2+z
1/2-x,1/2-y,1/2+z
1/2+y,1/2-x,1/2+z
1/2+x,1/2-y,-z
1/2-x,1/2+y,-z
1/2+y,1/2+x,-z
1/2-y,1/2-x,-z
1/2-x,1/2-y,1/2-z
1/2+y,1/2-x,1/2-z
1/2+x,1/2+y,1/2-z
1/2-y,1/2+x,1/2-z
1/2-x,1/2+y,z
1/2+x,1/2-y,z
1/2-y,1/2-x,z
1/2+y,1/2+x,z
loop_
_atom_site_type_symbol
_atom_site_label
_atom_site_fract_x
_atom_site_fract_y
_atom_site_fract_z
Si Si1 0.052933 0.953529 0.500000
Si Si2 0.589500 0.410501 0.750000
Si Si3 0.949294 0.619575 0.748523
Si Si4 0.681309 0.449047 0.747264
Si Si5 0.828015 0.550997 0.500000
Si Si6 0.449357 0.830029 0.000000
Si Si7 0.450302 0.265240 0.500000
Si Si8 0.767833 0.051404 0.500000
O O1 0.074989 0.936210 0.373892
O O2 0.003962 0.939868 0.500000
O O3 0.639337 0.420170 0.731620
O O4 0.926609 0.573392 0.744745
O O5 0.933763 0.647095 0.626668
O O6 0.000000 0.611000 0.750000
O O7 0.933747 0.645012 0.874137
O O8 0.670345 0.500000 0.750000
O O9 0.710354 0.435612 0.627339
O O10 0.705991 0.434088 0.874876
O O11 0.825640 0.500122 0.500000
O O12 0.780128 0.571437 0.500000
O O13 0.429477 0.782176 0.000000
O O14 0.501003 0.261790 0.500000
#
# Coordination Sequence:
#
# PCOD8320104 Si02
#       8
#    16  16  32  32  16  16  16  16
#     4  11  22  34  46  58  78 116 162 196 219 250
#     4  12  22  33  46  64  90 116 145 190 234 280
#     4  10  19  30  45  67  96 131 164 190 217 247
#     4  10  19  30  45  64  86 114 146 182 228 278
#     4   9  17  30  47  65  87 118 156 194 229 264
#     4   9  17  30  47  65  87 118 156 194 229 264
#     4   9  17  30  47  65  83 109 148 188 229 277
#     4   9  17  30  47  65  83 109 148 188 229 277
#
# _framework density 15.814342
#
# number of rings (size 3 to 8) (size 9 to 14) (size 15 to 20)
#    0.000    2.100    0.000    4.800    0.000    7.400 
#    0.000    0.000    0.000    3.600    0.000    0.000 
#    0.000    0.000    0.000   63.000    0.000    0.000 
#
# Total GULP energy -991999.298925 kJ/mol
# GULP energy per Si atom -12399.991237 kJ/mol
# Density = 1.577835 g / cm^3
# Si number density = 15.814342 Si / 1000 Ang^3
#
#
#
# Elastic Constant Matrix: (Units=GPa)
#
#
# Indices 1 2 3 4 5 6 
#
# 1 74.2525 25.8825 24.7799 0.0000 0.0000 0.0000
# 2 25.8825 74.2537 24.7819 0.0000 0.0000 0.0000
# 3 24.7799 24.7819 127.8068 0.0000 0.0000 0.0000
# 4 0.0000 0.0000 0.0000 -29.6332 0.0000 0.0000
# 5 0.0000 0.0000 0.0000 0.0000 -29.7711 0.0000
# 6 0.0000 0.0000 0.0000 0.0000 0.0000 11.7191
#
#
#
# Elastic Compliance Matrix: (Units=1/GPa)
#
#
# Indices 1 2 3 4 5 6 
#
# 1 0.015860 -0.004814 -0.002142 0.000000 0.000000 0.000000
# 2 -0.004814 0.015860 -0.002142 0.000000 0.000000 0.000000
# 3 -0.002142 -0.002142 0.008655 0.000000 0.000000 0.000000
# 4 0.000000 0.000000 0.000000 -0.033746 0.000000 0.000000
# 5 0.000000 0.000000 0.000000 0.000000 -0.033590 0.000000
# 6 0.000000 0.000000 0.000000 0.000000 0.000000 0.085331
#
#
# Mechanical properties :
#
#
# Convention : Reuss Voigt Hill
#
# Bulk Modulus (GPa) = 45.08446 47.46686 46.27566
# Shear Modulus (GPa) = 59.55340 3.85422 31.70381
#
# Velocity S-wave (km/s) = 6.14326 1.56284 4.48230
# Velocity P-wave (km/s) = 8.88200 5.77381 7.49089
#
# Compressibility (1/GPa) = 0.02218059
#
# Stress axis : x y z
#
# Youngs Moduli (GPa) = 63.05097 63.05140 115.54155
#
# Poissons Ratio (x) = 0.30350 0.24746
# Poissons Ratio (y) = 0.30350 0.24749
# Poissons Ratio (z) = 0.13504 0.13506
#
# Static dielectric constant tensor:
#      x y z
#    x 2.881290 0.000000 0.000000 
#    y 0.000000 2.881320 0.000000 
#    z 0.000000 0.000000 3.201140 
# 
# 
# High freq. dielectric constant tensor:
#      x y z
#    x 1.579140 0.000000 0.000000 
#    y 0.000000 1.579140 0.000000 
#    z 0.000000 0.000000 1.635780 
# 
# From -- ./inp_files/3248.got.cif
#   From: 2010.06.25/outbox.cif.g09.slc.cpg/sg140_2_cif.got.tgz:3248.got - 2010.06.28 10:53:23.
