data_PCOD8320427
_publ_section_title
;
Structure prediction by ZEFSAII (Michael W. Deem and Ramdas Pophale) SiO2 
 PCOD8320427
Probable space group: I 4/M C M
;
_chemical_formula_sum "Si O2"
_cell_formula_units_Z 160
_cell_length_a 21.806862
_cell_length_b 21.806862
_cell_length_c 15.949915
_cell_angle_alpha 90.000000
_cell_angle_beta 90.000000
_cell_angle_gamma 90.000000
_cell_volume 7584.810302
_symmetry_space_group_name_H-M "I 4/M C M"
_symmetry_group_IT_number 140
_symmetry_cell_setting 'tetragonal'
loop_
_space_group_symop_operation_xyz
x,y,z
-y,x,z
-x,-y,z
y,-x,z
x,-y,1/2-z
-x,y,1/2-z
y,x,1/2-z
-y,-x,1/2-z
-x,-y,-z
y,-x,-z
x,y,-z
-y,x,-z
-x,y,1/2+z
x,-y,1/2+z
-y,-x,1/2+z
y,x,1/2+z
1/2+x,1/2+y,1/2+z
1/2-y,1/2+x,1/2+z
1/2-x,1/2-y,1/2+z
1/2+y,1/2-x,1/2+z
1/2+x,1/2-y,-z
1/2-x,1/2+y,-z
1/2+y,1/2+x,-z
1/2-y,1/2-x,-z
1/2-x,1/2-y,1/2-z
1/2+y,1/2-x,1/2-z
1/2+x,1/2+y,1/2-z
1/2-y,1/2+x,1/2-z
1/2-x,1/2+y,z
1/2+x,1/2-y,z
1/2-y,1/2-x,z
1/2+y,1/2+x,z
loop_
_atom_site_type_symbol
_atom_site_label
_atom_site_fract_x
_atom_site_fract_y
_atom_site_fract_z
Si Si1 0.373677 0.309111 0.826625
Si Si2 0.702731 0.694530 0.500000
Si Si3 0.418582 0.175742 0.816306
Si Si4 0.610323 0.789647 0.500000
Si Si5 0.051586 0.086021 0.403916
Si Si6 0.359602 0.044107 0.633624
O O1 0.326576 0.326576 0.750000
O O2 0.413752 0.248876 0.805850
O O3 0.419671 0.365512 0.840006
O O4 0.342103 0.290959 0.913805
O O5 0.755174 0.744827 0.500000
O O6 0.632673 0.719679 0.500000
O O7 0.353335 0.146666 0.844447
O O8 0.470884 0.148893 0.879416
O O9 0.437702 0.148780 0.728207
O O10 0.671926 0.828075 0.500000
O O11 0.571739 0.803061 0.417501
O O12 0.063770 0.106180 0.500000
O O13 0.979347 0.082734 0.386420
O O14 0.425510 0.074491 0.603226
#
# Coordination Sequence:
#
# PCOD8320427 Si02
#       6
#    32  16  32  16  32  32
#     4  12  25  40  63  93 127 168 211 259 318 380
#     4  11  24  41  60  88 126 172 215 252 310 379
#     4  10  22  39  59  87 123 160 203 255 306 366
#     4   9  18  35  59  84 114 152 198 248 302 372
#     4   9  20  42  67  92 126 163 205 259 314 372
#     4   9  19  38  62  88 116 154 203 256 312 364
#
# _framework density 21.094792999999999
#
# number of rings (size 3 to 8) (size 9 to 14) (size 15 to 20)
#    0.000    2.000    1.000    2.400    0.000   10.000 
#    0.000    4.500    0.000    1.800    0.000    0.000 
#    0.000    0.000    0.000    0.000    0.000    0.000 
#
# Total GULP energy -991146.943385 kJ/mol
# GULP energy per Si atom -12389.336792 kJ/mol
# Density = 2.104678 g / cm^3
# Si number density = 21.094793 Si / 1000 Ang^3
#
#
#
# Elastic Constant Matrix: (Units=GPa)
#
#
# Indices 1 2 3 4 5 6 
#
# 1 110.2094 48.6086 20.9372 0.0000 0.0000 0.0000
# 2 48.6086 110.2090 20.9373 0.0000 0.0000 0.0000
# 3 20.9372 20.9373 54.5712 0.0000 0.0000 0.0000
# 4 0.0000 0.0000 0.0000 15.1496 0.0000 0.0000
# 5 0.0000 0.0000 0.0000 0.0000 15.1445 0.0000
# 6 0.0000 0.0000 0.0000 0.0000 0.0000 35.3247
#
#
#
# Elastic Compliance Matrix: (Units=1/GPa)
#
#
# Indices 1 2 3 4 5 6 
#
# 1 0.011619 -0.004614 -0.002688 0.000000 0.000000 0.000000
# 2 -0.004614 0.011619 -0.002688 0.000000 0.000000 0.000000
# 3 -0.002688 -0.002688 0.020387 0.000000 0.000000 0.000000
# 4 0.000000 0.000000 0.000000 0.066008 0.000000 0.000000
# 5 0.000000 0.000000 0.000000 0.000000 0.066030 0.000000
# 6 0.000000 0.000000 0.000000 0.000000 0.000000 0.028309
#
#
# Mechanical properties :
#
#
# Convention : Reuss Voigt Hill
#
# Bulk Modulus (GPa) = 42.28920 50.66177 46.47549
# Shear Modulus (GPa) = 21.56709 25.42420 23.49564
#
# Velocity S-wave (km/s) = 3.20095 3.47542 3.34100
# Velocity P-wave (km/s) = 5.80966 6.33822 6.07969
#
# Compressibility (1/GPa) = 0.02364670
#
# Stress axis : x y z
#
# Youngs Moduli (GPa) = 86.06324 86.06282 49.05082
#
# Poissons Ratio (x) = 0.39711 0.13183
# Poissons Ratio (y) = 0.39712 0.13183
# Poissons Ratio (z) = 0.23131 0.23131
#
# Static dielectric constant tensor:
#      x y z
#    x 4.079830 0.000000 0.000000 
#    y 0.000000 4.079820 0.000000 
#    z 0.000000 0.000000 4.924210 
# 
# 
# High freq. dielectric constant tensor:
#      x y z
#    x 1.826020 0.000000 0.000000 
#    y 0.000000 1.826020 0.000000 
#    z 0.000000 0.000000 1.822940 
# 
# From -- ./inp_files/6918.got.cif
#   From: 2010.06.25/outbox.cif.g09.slc.cpg/sg140_4_cif.got.tgz:6918.got - 2010.06.28 10:53:23.
