data_PCOD8320136
_publ_section_title
;
Structure prediction by ZEFSAII (Michael W. Deem and Ramdas Pophale) SiO2 
 PCOD8320136
Probable space group: I 4/M C M
;
_chemical_formula_sum "Si O2"
_cell_formula_units_Z 192
_cell_length_a 22.440082
_cell_length_b 22.440082
_cell_length_c 24.106426
_cell_angle_alpha 90.000000
_cell_angle_beta 90.000000
_cell_angle_gamma 90.000000
_cell_volume 12138.966311
_symmetry_space_group_name_H-M "I 4/M C M"
_symmetry_group_IT_number 140
_symmetry_cell_setting 'tetragonal'
loop_
_space_group_symop_operation_xyz
x,y,z
-y,x,z
-x,-y,z
y,-x,z
x,-y,1/2-z
-x,y,1/2-z
y,x,1/2-z
-y,-x,1/2-z
-x,-y,-z
y,-x,-z
x,y,-z
-y,x,-z
-x,y,1/2+z
x,-y,1/2+z
-y,-x,1/2+z
y,x,1/2+z
1/2+x,1/2+y,1/2+z
1/2-y,1/2+x,1/2+z
1/2-x,1/2-y,1/2+z
1/2+y,1/2-x,1/2+z
1/2+x,1/2-y,-z
1/2-x,1/2+y,-z
1/2+y,1/2+x,-z
1/2-y,1/2-x,-z
1/2-x,1/2-y,1/2-z
1/2+y,1/2-x,1/2-z
1/2+x,1/2+y,1/2-z
1/2-y,1/2+x,1/2-z
1/2-x,1/2+y,z
1/2+x,1/2-y,z
1/2-y,1/2-x,z
1/2+y,1/2+x,z
loop_
_atom_site_type_symbol
_atom_site_label
_atom_site_fract_x
_atom_site_fract_y
_atom_site_fract_z
Si Si1 0.771894 0.628370 0.616024
Si Si2 0.744274 0.144034 0.000000
Si Si3 0.112430 0.712676 0.618353
Si Si4 0.015328 0.659577 0.860172
Si Si5 0.792549 0.807445 0.311764
Si Si6 0.500000 0.906186 0.750000
Si Si7 0.549706 0.049706 0.435006
Si Si8 0.337496 0.738010 0.500000
O O1 0.829978 0.670023 0.621129
O O2 0.787171 0.562346 0.635676
O O3 0.717409 0.653212 0.651957
O O4 0.749234 0.622095 0.553310
O O5 0.736639 0.104813 0.055478
O O6 0.696254 0.196254 0.000000
O O7 0.810663 0.171474 0.000000
O O8 0.160425 0.660425 0.620615
O O9 0.132694 0.766148 0.659752
O O10 0.049954 0.686913 0.637574
O O11 0.026708 0.610935 0.908086
O O12 0.025733 0.632225 0.799860
O O13 0.818421 0.818421 0.250000
O O14 0.740296 0.759705 0.309882
O O15 0.446869 0.946869 0.774300
O O16 0.561283 0.061283 0.500000
O O17 0.500000 0.000000 0.425106
O O18 0.281869 0.781869 0.500000
#
# Coordination Sequence:
#
# PCOD8320136 Si02
#       8
#    32  16  32  32  32  16  16  16
#     4  10  19  32  50  73  96 127 165 211 258 302
#     4   9  16  31  50  71  92 125 166 203 255 312
#     4  10  20  33  50  72  97 131 169 208 253 303
#     4  12  24  35  51  75 101 135 180 216 258 295
#     4   9  18  32  50  69  95 124 161 206 260 309
#     4  11  22  38  52  62  96 146 192 219 238 286
#     4  11  24  40  50  66 101 144 184 220 251 283
#     4   9  16  29  52  70  93 122 163 211 255 314
#
# _framework density 15.816833000000001
#
# number of rings (size 3 to 8) (size 9 to 14) (size 15 to 20)
#    0.000    1.833    3.333    1.500    4.667    0.000 
#    0.000    0.000    0.000    0.000    0.000    0.000 
#    0.000    0.667    0.000    3.000    0.000    0.000 
#
# Total GULP energy -1190348.608171 kJ/mol
# GULP energy per Si atom -12399.464668 kJ/mol
# Density = 1.578083 g / cm^3
# Si number density = 15.816833 Si / 1000 Ang^3
#
#
#
# Elastic Constant Matrix: (Units=GPa)
#
#
# Indices 1 2 3 4 5 6 
#
# 1 58.9903 41.1450 35.8982 0.0000 0.0000 0.0000
# 2 41.1450 58.9903 35.8982 0.0000 0.0000 0.0000
# 3 35.8982 35.8982 126.1825 0.0000 0.0000 0.0000
# 4 0.0000 0.0000 0.0000 17.1423 0.0000 0.0000
# 5 0.0000 0.0000 0.0000 0.0000 17.1423 0.0000
# 6 0.0000 0.0000 0.0000 0.0000 0.0000 27.8053
#
#
#
# Elastic Compliance Matrix: (Units=1/GPa)
#
#
# Indices 1 2 3 4 5 6 
#
# 1 0.034291 -0.021746 -0.003569 0.000000 0.000000 0.000000
# 2 -0.021746 0.034291 -0.003569 0.000000 0.000000 0.000000
# 3 -0.003569 -0.003569 0.009956 0.000000 0.000000 0.000000
# 4 0.000000 0.000000 0.000000 0.058335 0.000000 0.000000
# 5 0.000000 0.000000 0.000000 0.000000 0.058335 0.000000
# 6 0.000000 0.000000 0.000000 0.000000 0.000000 0.035964
#
#
# Mechanical properties :
#
#
# Convention : Reuss Voigt Hill
#
# Bulk Modulus (GPa) = 48.14552 52.22732 50.18642
# Shear Modulus (GPa) = 16.89962 21.16611 19.03287
#
# Velocity S-wave (km/s) = 3.27227 3.66211 3.47267
# Velocity P-wave (km/s) = 6.69198 7.13955 6.91938
#
# Compressibility (1/GPa) = 0.02077036
#
# Stress axis : x y z
#
# Youngs Moduli (GPa) = 29.16193 29.16193 100.44378
#
# Poissons Ratio (x) = 0.63415 0.35850
# Poissons Ratio (y) = 0.63415 0.35850
# Poissons Ratio (z) = 0.10408 0.10408
#
# Static dielectric constant tensor:
#      x y z
#    x 2.808570 0.000000 0.000000 
#    y 0.000000 2.808570 0.000000 
#    z 0.000000 0.000000 3.342850 
# 
# 
# High freq. dielectric constant tensor:
#      x y z
#    x 1.576130 0.000000 0.000000 
#    y 0.000000 1.576130 0.000000 
#    z 0.000000 0.000000 1.629740 
# 
# From -- ./inp_files/9879.got.cif
#   From: 2010.06.25/outbox.cif.g09.slc.cpg/sg140_5_cif.got.tgz:9879.got - 2010.06.28 10:53:23.
