data_PCOD8320915
_publ_section_title
;
Structure prediction by ZEFSAII (Michael W. Deem and Ramdas Pophale) SiO2 
 PCOD8320915
Probable space group: I 41/A M D
;
_chemical_formula_sum "Si O2"
_cell_formula_units_Z 160
_cell_length_a 19.866321
_cell_length_b 19.866321
_cell_length_c 18.949450
_cell_angle_alpha 90.000000
_cell_angle_beta 90.000000
_cell_angle_gamma 90.000000
_cell_volume 7478.792887
_symmetry_space_group_name_H-M "I 41/A M D"
_symmetry_group_IT_number 141
_space_group.IT_coordinate_system_code '2'
_symmetry_cell_setting 'tetragonal'
loop_
_space_group_symop_operation_xyz
x,y,z
1/4-y,3/4+x,1/4+z
-x,1/2-y,z
1/4+y,1/4-x,3/4+z
x,-y,-z
-x,1/2+y,-z
1/4+y,3/4+x,1/4-z
1/4-y,1/4-x,3/4-z
-x,-y,-z
3/4+y,1/4-x,3/4-z
x,1/2+y,-z
3/4-y,3/4+x,1/4-z
-x,y,z
x,1/2-y,z
3/4-y,1/4-x,3/4+z
3/4+y,3/4+x,1/4+z
1/2+x,1/2+y,1/2+z
3/4-y,1/4+x,3/4+z
1/2-x,-y,1/2+z
3/4+y,3/4-x,1/4+z
1/2+x,1/2-y,1/2-z
1/2-x,y,1/2-z
3/4+y,1/4+x,3/4-z
3/4-y,3/4-x,1/4-z
1/2-x,1/2-y,1/2-z
1/4+y,3/4-x,1/4-z
1/2+x,y,1/2-z
1/4-y,1/4+x,3/4-z
1/2-x,1/2+y,1/2+z
1/2+x,-y,1/2+z
1/4-y,3/4-x,1/4+z
1/4+y,1/4+x,3/4+z
loop_
_atom_site_type_symbol
_atom_site_label
_atom_site_fract_x
_atom_site_fract_y
_atom_site_fract_z
Si Si1 0.076225 0.325161 0.792357
Si Si2 0.774053 0.250000 0.352569
Si Si3 0.716566 0.114790 0.069592
Si Si4 0.184230 0.391184 0.705092
Si Si5 0.136850 0.750000 0.773727
Si Si6 0.421165 0.106978 0.309896
O O1 0.099293 0.250000 0.769978
O O2 0.084222 0.334222 0.875000
O O3 0.120333 0.381225 0.755220
O O4 0.000000 0.337133 0.768328
O O5 0.763161 0.187221 0.403055
O O6 0.847141 0.250000 0.311417
O O7 0.712034 0.250000 0.300567
O O8 0.664833 0.085168 0.125000
O O9 0.780325 0.064879 0.064891
O O10 0.682121 0.122418 0.993643
O O11 0.250000 0.370533 0.750000
O O12 0.174272 0.344574 0.636538
O O13 0.095209 0.814043 0.801612
O O14 0.500000 0.096172 0.293376
#
# Coordination Sequence:
#
# PCOD8320915 Si02
#       6
#    32  16  32  32  16  32
#     4   9  21  44  72  99 133 180 230 283 347 418
#     4  11  22  46  74 100 141 186 227 277 359 430
#     4  12  27  46  71 102 140 186 233 282 352 431
#     4  12  30  45  69 102 143 185 236 302 354 417
#     4  11  23  44  74 110 139 177 229 297 347 427
#     4  12  27  45  72 104 141 185 233 292 359 422
#
# _framework density 21.393826000000001
#
# number of rings (size 3 to 8) (size 9 to 14) (size 15 to 20)
#    0.000    0.800    5.000    1.500    8.400    1.600 
#    0.000    0.000    0.000    0.000    0.000    0.000 
#    0.000    0.000    0.000    0.000    0.000    0.000 
#
# Total GULP energy -992060.722540 kJ/mol
# GULP energy per Si atom -12400.759032 kJ/mol
# Density = 2.134513 g / cm^3
# Si number density = 21.393826 Si / 1000 Ang^3
#
#
#
# Elastic Constant Matrix: (Units=GPa)
#
#
# Indices 1 2 3 4 5 6 
#
# 1 88.7841 13.6518 42.9282 0.0000 0.0000 0.0000
# 2 13.6518 88.7827 42.9274 0.0000 0.0000 0.0000
# 3 42.9282 42.9274 89.1667 0.0000 0.0000 0.0000
# 4 0.0000 0.0000 0.0000 35.8809 0.0000 0.0000
# 5 0.0000 0.0000 0.0000 0.0000 35.8797 0.0000
# 6 0.0000 0.0000 0.0000 0.0000 0.0000 30.6652
#
#
#
# Elastic Compliance Matrix: (Units=1/GPa)
#
#
# Indices 1 2 3 4 5 6 
#
# 1 0.014838 0.001528 -0.007879 0.000000 0.000000 0.000000
# 2 0.001528 0.014838 -0.007879 0.000000 0.000000 0.000000
# 3 -0.007879 -0.007879 0.018802 0.000000 0.000000 0.000000
# 4 0.000000 0.000000 0.000000 0.027870 0.000000 0.000000
# 5 0.000000 0.000000 0.000000 0.000000 0.027871 0.000000
# 6 0.000000 0.000000 0.000000 0.000000 0.000000 0.032610
#
#
# Mechanical properties :
#
#
# Convention : Reuss Voigt Hill
#
# Bulk Modulus (GPa) = 49.95733 51.74982 50.85358
# Shear Modulus (GPa) = 29.07617 31.63356 30.35487
#
# Velocity S-wave (km/s) = 3.69059 3.84947 3.77086
# Velocity P-wave (km/s) = 6.44690 6.63321 6.54072
#
# Compressibility (1/GPa) = 0.02001708
#
# Stress axis : x y z
#
# Youngs Moduli (GPa) = 67.39433 67.39377 53.18694
#
# Poissons Ratio (x) = -0.10299 0.41907
# Poissons Ratio (y) = -0.10299 0.41907
# Poissons Ratio (z) = 0.53102 0.53101
#
# Static dielectric constant tensor:
#      x y z
#    x 3.838990 0.000000 0.000000 
#    y 0.000000 3.839000 0.000000 
#    z 0.000000 0.000000 4.037450 
# 
# 
# High freq. dielectric constant tensor:
#      x y z
#    x 1.840870 0.000000 0.000000 
#    y 0.000000 1.840870 0.000000 
#    z 0.000000 0.000000 1.852560 
# 
# From -- ./inp_files/8674.got.cif
#   From: 2010.03.12/outbox.cif.g09.slc.cpg/sg141_5_cif.got.tgz:8674.got - 2010.04.03 13:18:35.
