data_PCOD8320004
_publ_section_title
;
Structure prediction by ZEFSAII (Michael W. Deem and Ramdas Pophale) SiO2 
 PCOD8320004
Probable space group: I 4/M M M
;
_chemical_formula_sum "Si O2"
_cell_formula_units_Z 240
_cell_length_a 27.610615
_cell_length_b 27.610615
_cell_length_c 19.609306
_cell_angle_alpha 90.000000
_cell_angle_beta 90.000000
_cell_angle_gamma 90.000000
_cell_volume 14949.077182
_symmetry_space_group_name_H-M "I 4/M M M"
_symmetry_group_IT_number 139
_symmetry_cell_setting 'tetragonal'
loop_
_space_group_symop_operation_xyz
x,y,z
-y,x,z
-x,-y,z
y,-x,z
x,-y,-z
-x,y,-z
y,x,-z
-y,-x,-z
-x,-y,-z
y,-x,-z
x,y,-z
-y,x,-z
-x,y,z
x,-y,z
-y,-x,z
y,x,z
1/2+x,1/2+y,1/2+z
1/2-y,1/2+x,1/2+z
1/2-x,1/2-y,1/2+z
1/2+y,1/2-x,1/2+z
1/2+x,1/2-y,1/2-z
1/2-x,1/2+y,1/2-z
1/2+y,1/2+x,1/2-z
1/2-y,1/2-x,1/2-z
1/2-x,1/2-y,1/2-z
1/2+y,1/2-x,1/2-z
1/2+x,1/2+y,1/2-z
1/2-y,1/2+x,1/2-z
1/2-x,1/2+y,1/2+z
1/2+x,1/2-y,1/2+z
1/2-y,1/2-x,1/2+z
1/2+y,1/2+x,1/2+z
loop_
_atom_site_type_symbol
_atom_site_label
_atom_site_fract_x
_atom_site_fract_y
_atom_site_fract_z
Si Si1 0.557168 0.000000 0.074190
Si Si2 0.132859 0.944959 0.672738
Si Si3 0.120738 0.689611 0.580959
Si Si4 0.944090 0.220929 0.421098
Si Si5 0.444408 0.634669 0.670801
Si Si6 0.306480 0.229681 0.581198
Si Si7 0.115342 0.196560 0.075745
Si Si8 0.445386 0.896183 0.081850
O O1 0.570883 0.050711 0.111591
O O2 0.500000 0.000000 0.063725
O O3 0.582611 0.000000 0.000000
O O4 0.085752 0.914249 0.655132
O O5 0.175573 0.927737 0.623639
O O6 0.149625 0.937807 0.750608
O O7 0.118416 0.000000 0.657682
O O8 0.122919 0.686163 0.500000
O O9 0.089628 0.735583 0.603888
O O10 0.175122 0.693866 0.611216
O O11 0.093197 0.642456 0.610453
O O12 0.935188 0.208148 0.500000
O O13 0.000000 0.235193 0.408245
O O14 0.500000 0.622522 0.653321
O O15 0.413175 0.586826 0.653180
O O16 0.427457 0.681053 0.626788
O O17 0.303257 0.228921 0.500000
O O18 0.260247 0.260247 0.609670
O O19 0.357220 0.255158 0.602645
O O20 0.154592 0.154592 0.072051
O O21 0.093402 0.205113 0.000000
O O22 0.500000 0.882657 0.106128
O O23 0.444902 0.897827 0.000000
#
# Coordination Sequence:
#
# PCOD8320004 Si02
#       8
#    16  32  32  32  32  32  32  32
#     4   7  10  16  26  40  60  90 124 152 180 228
#     4   9  18  31  45  62  84 110 142 178 216 260
#     4   9  15  22  36  56  77 103 136 176 217 252
#     4   9  17  28  41  59  84 112 142 179 222 264
#     4   9  17  29  46  66  86 110 139 171 209 251
#     4   8  14  24  37  54  76 103 136 168 197 235
#     4   8  14  26  44  62  81 108 138 164 193 239
#     4   8  12  18  29  46  69  98 131 162 196 244
#
# _framework density 16.054503
#
# number of rings (size 3 to 8) (size 9 to 14) (size 15 to 20)
#    0.000    3.533    0.000    2.000    0.000    2.933 
#    0.000    2.667    1.467    0.800    0.000    7.467 
#    0.000    0.000    0.000    0.000    0.000    0.000 
#
# Total GULP energy -1486915.704428 kJ/mol
# GULP energy per Si atom -12390.964204 kJ/mol
# Density = 1.601796 g / cm^3
# Si number density = 16.054503 Si / 1000 Ang^3
#
#
#
# Elastic Constant Matrix: (Units=GPa)
#
#
# Indices 1 2 3 4 5 6 
#
# 1 118.3775 74.8408 33.6832 0.0000 0.0000 0.0000
# 2 74.8408 118.3775 33.6832 0.0000 0.0000 0.0000
# 3 33.6832 33.6832 31.8436 0.0000 0.0000 0.0000
# 4 0.0000 0.0000 0.0000 12.5352 0.0000 0.0000
# 5 0.0000 0.0000 0.0000 0.0000 12.5352 0.0000
# 6 0.0000 0.0000 0.0000 0.0000 0.0000 19.3120
#
#
#
# Elastic Compliance Matrix: (Units=1/GPa)
#
#
# Indices 1 2 3 4 5 6 
#
# 1 0.015584 -0.007385 -0.008673 0.000000 0.000000 0.000000
# 2 -0.007385 0.015584 -0.008673 0.000000 0.000000 0.000000
# 3 -0.008673 -0.008673 0.049752 0.000000 0.000000 0.000000
# 4 0.000000 0.000000 0.000000 0.079776 0.000000 0.000000
# 5 0.000000 0.000000 0.000000 0.000000 0.079776 0.000000
# 6 0.000000 0.000000 0.000000 0.000000 0.000000 0.051781
#
#
# Mechanical properties :
#
#
# Convention : Reuss Voigt Hill
#
# Bulk Modulus (GPa) = 31.78822 61.44588 46.61705
# Shear Modulus (GPa) = 14.19645 17.30256 15.74950
#
# Velocity S-wave (km/s) = 2.97689 3.28645 3.13549
# Velocity P-wave (km/s) = 5.62663 7.26343 6.49678
#
# Compressibility (1/GPa) = 0.03145820
#
# Stress axis : x y z
#
# Youngs Moduli (GPa) = 64.16726 64.16726 20.09983
#
# Poissons Ratio (x) = 0.47387 0.17433
# Poissons Ratio (y) = 0.47387 0.17433
# Poissons Ratio (z) = 0.55653 0.55653
#
# Static dielectric constant tensor:
#      x y z
#    x 3.220730 0.000000 0.000000 
#    y 0.000000 3.220730 0.000000 
#    z 0.000000 0.000000 2.673250 
# 
# 
# High freq. dielectric constant tensor:
#      x y z
#    x 1.614700 0.000000 0.000000 
#    y 0.000000 1.614700 0.000000 
#    z 0.000000 0.000000 1.560280 
# 
# From -- ./inp_files/12397.got.cif
#   From: 2010.03.12/outbox.cif.g09.slc.cpg/sg139_7_cif.got.tgz:12397.got - 2010.04.08 09:46:31.
