data_PCOD8320910
_publ_section_title
;
Structure prediction by ZEFSAII (Michael W. Deem and Ramdas Pophale) SiO2 
 PCOD8320910
Probable space group: I 41/A M D
;
_chemical_formula_sum "Si O2"
_cell_formula_units_Z 160
_cell_length_a 20.728841
_cell_length_b 20.728841
_cell_length_c 17.848320
_cell_angle_alpha 90.000000
_cell_angle_beta 90.000000
_cell_angle_gamma 90.000000
_cell_volume 7669.152688
_symmetry_space_group_name_H-M "I 41/A M D"
_symmetry_group_IT_number 141
_space_group.IT_coordinate_system_code '2'
_symmetry_cell_setting 'tetragonal'
loop_
_space_group_symop_operation_xyz
x,y,z
1/4-y,3/4+x,1/4+z
-x,1/2-y,z
1/4+y,1/4-x,3/4+z
x,-y,-z
-x,1/2+y,-z
1/4+y,3/4+x,1/4-z
1/4-y,1/4-x,3/4-z
-x,-y,-z
3/4+y,1/4-x,3/4-z
x,1/2+y,-z
3/4-y,3/4+x,1/4-z
-x,y,z
x,1/2-y,z
3/4-y,1/4-x,3/4+z
3/4+y,3/4+x,1/4+z
1/2+x,1/2+y,1/2+z
3/4-y,1/4+x,3/4+z
1/2-x,-y,1/2+z
3/4+y,3/4-x,1/4+z
1/2+x,1/2-y,1/2-z
1/2-x,y,1/2-z
3/4+y,1/4+x,3/4-z
3/4-y,3/4-x,1/4-z
1/2-x,1/2-y,1/2-z
1/4+y,3/4-x,1/4-z
1/2+x,y,1/2-z
1/4-y,1/4+x,3/4-z
1/2-x,1/2+y,1/2+z
1/2+x,-y,1/2+z
1/4-y,3/4-x,1/4+z
1/4+y,1/4+x,3/4+z
loop_
_atom_site_type_symbol
_atom_site_label
_atom_site_fract_x
_atom_site_fract_y
_atom_site_fract_z
Si Si1 0.669730 0.567214 0.464152
Si Si2 0.188427 0.176948 0.197450
Si Si3 0.571746 0.365321 0.200626
Si Si4 0.645660 0.488128 0.167226
Si Si5 0.428490 0.177971 0.713707
O O1 0.643562 0.500000 0.500000
O O2 0.682624 0.567377 0.375000
O O3 0.739053 0.581204 0.501295
O O4 0.619995 0.622551 0.490438
O O5 0.183289 0.250000 0.169343
O O6 0.250000 0.166568 0.250000
O O7 0.122451 0.159119 0.238615
O O8 0.199101 0.129867 0.127273
O O9 0.572972 0.322972 0.125000
O O10 0.500000 0.361601 0.235344
O O11 0.587007 0.438410 0.176381
O O12 0.705942 0.455942 0.125000
O O13 0.429336 0.179336 0.625000
O O14 0.500000 0.155605 0.742127
O O15 0.413681 0.250000 0.744456
#
# Coordination Sequence:
#
# PCOD8320910 Si02
#       5
#    32  32  32  32  32
#     4  11  25  39  64  95 126 163 212 273 327 372
#     4  11  22  40  64  95 129 170 217 266 322 393
#     4  11  23  39  65  98 133 175 221 272 325 383
#     4  11  24  40  65  89 129 176 222 259 321 399
#     4   8  16  36  63  87 115 156 203 249 308 382
#
# _framework density 20.8628
#
# number of rings (size 3 to 8) (size 9 to 14) (size 15 to 20)
#    0.000    1.600    4.000    2.400    5.600    3.400 
#    0.000    1.000    0.000    0.000    0.000    0.000 
#    0.000    0.000    0.000    0.000    0.000    0.000 
#
# Total GULP energy -991737.325674 kJ/mol
# GULP energy per Si atom -12396.716571 kJ/mol
# Density = 2.081532 g / cm^3
# Si number density = 20.862800 Si / 1000 Ang^3
#
#
#
# Elastic Constant Matrix: (Units=GPa)
#
#
# Indices 1 2 3 4 5 6 
#
# 1 143.8984 67.5316 53.1058 0.0000 0.0000 0.0000
# 2 67.5316 143.8986 53.1059 0.0000 0.0000 0.0000
# 3 53.1058 53.1059 97.0135 0.0000 0.0000 0.0000
# 4 0.0000 0.0000 0.0000 27.9454 0.0000 0.0000
# 5 0.0000 0.0000 0.0000 0.0000 27.9455 0.0000
# 6 0.0000 0.0000 0.0000 0.0000 0.0000 23.0544
#
#
#
# Elastic Compliance Matrix: (Units=1/GPa)
#
#
# Indices 1 2 3 4 5 6 
#
# 1 0.009809 -0.003286 -0.003571 0.000000 0.000000 0.000000
# 2 -0.003286 0.009809 -0.003571 0.000000 0.000000 0.000000
# 3 -0.003571 -0.003571 0.014218 0.000000 0.000000 0.000000
# 4 0.000000 0.000000 0.000000 0.035784 0.000000 0.000000
# 5 0.000000 0.000000 0.000000 0.000000 0.035784 0.000000
# 6 0.000000 0.000000 0.000000 0.000000 0.000000 0.043376
#
#
# Mechanical properties :
#
#
# Convention : Reuss Voigt Hill
#
# Bulk Modulus (GPa) = 77.03891 81.36632 79.20262
# Shear Modulus (GPa) = 28.74200 29.86023 29.30111
#
# Velocity S-wave (km/s) = 3.71572 3.78731 3.75169
# Velocity P-wave (km/s) = 7.44415 7.62957 7.53743
#
# Compressibility (1/GPa) = 0.01298045
#
# Stress axis : x y z
#
# Youngs Moduli (GPa) = 101.94558 101.94567 70.33582
#
# Poissons Ratio (x) = 0.33495 0.25117
# Poissons Ratio (y) = 0.33495 0.25117
# Poissons Ratio (z) = 0.36406 0.36406
#
# Static dielectric constant tensor:
#      x y z
#    x 3.901740 0.000000 0.000000 
#    y 0.000000 3.901740 0.000000 
#    z 0.000000 0.000000 3.571720 
# 
# 
# High freq. dielectric constant tensor:
#      x y z
#    x 1.819950 0.000000 0.000000 
#    y 0.000000 1.819950 0.000000 
#    z 0.000000 0.000000 1.797100 
# 
# From -- ./inp_files/8570.got.cif
#   From: 2010.03.12/outbox.cif.g09.slc.cpg/sg141_5_cif.got.tgz:8570.got - 2010.04.03 13:18:35.
