data_PCOD8320442
_publ_section_title
;
Structure prediction by ZEFSAII (Michael W. Deem and Ramdas Pophale) SiO2 
 PCOD8320442
Probable space group: I 4/M C M
;
_chemical_formula_sum "Si O2"
_cell_formula_units_Z 160
_cell_length_a 20.726203
_cell_length_b 20.726203
_cell_length_c 16.732455
_cell_angle_alpha 90.000000
_cell_angle_beta 90.000000
_cell_angle_gamma 90.000000
_cell_volume 7187.852569
_symmetry_space_group_name_H-M "I 4/M C M"
_symmetry_group_IT_number 140
_symmetry_cell_setting 'tetragonal'
loop_
_space_group_symop_operation_xyz
x,y,z
-y,x,z
-x,-y,z
y,-x,z
x,-y,1/2-z
-x,y,1/2-z
y,x,1/2-z
-y,-x,1/2-z
-x,-y,-z
y,-x,-z
x,y,-z
-y,x,-z
-x,y,1/2+z
x,-y,1/2+z
-y,-x,1/2+z
y,x,1/2+z
1/2+x,1/2+y,1/2+z
1/2-y,1/2+x,1/2+z
1/2-x,1/2-y,1/2+z
1/2+y,1/2-x,1/2+z
1/2+x,1/2-y,-z
1/2-x,1/2+y,-z
1/2+y,1/2+x,-z
1/2-y,1/2-x,-z
1/2-x,1/2-y,1/2-z
1/2+y,1/2-x,1/2-z
1/2+x,1/2+y,1/2-z
1/2-y,1/2+x,1/2-z
1/2-x,1/2+y,z
1/2+x,1/2-y,z
1/2-y,1/2-x,z
1/2+y,1/2+x,z
loop_
_atom_site_type_symbol
_atom_site_label
_atom_site_fract_x
_atom_site_fract_y
_atom_site_fract_z
Si Si1 0.693721 0.362475 0.592196
Si Si2 0.455757 0.148421 0.909180
Si Si3 0.908868 0.960153 0.594317
Si Si4 0.634939 0.761498 0.830649
Si Si5 0.913946 0.689578 0.826284
O O1 0.683292 0.342648 0.500000
O O2 0.659399 0.429577 0.617038
O O3 0.660398 0.309145 0.647911
O O4 0.769223 0.376281 0.605980
O O5 0.418516 0.081485 0.884519
O O6 0.404378 0.207027 0.904198
O O7 0.515093 0.165275 0.851140
O O8 0.480892 0.143328 0.000000
O O9 0.915859 0.962030 0.500000
O O10 0.967375 0.915406 0.628705
O O11 0.699048 0.800953 0.809831
O O12 0.587299 0.765243 0.753296
O O13 0.875945 0.624056 0.808928
#
# Coordination Sequence:
#
# PCOD8320442 Si02
#       5
#    32  32  32  32  32
#     4  11  22  34  60  94 125 165 214 265 317 379
#     4  10  22  41  66  94 123 159 210 271 329 391
#     4   8  16  32  52  79 117 156 195 244 301 362
#     4  10  22  41  61  84 121 168 211 254 315 392
#     4  11  24  41  61  89 127 168 212 264 329 403
#
# _framework density 22.259778000000001
#
# number of rings (size 3 to 8) (size 9 to 14) (size 15 to 20)
#    0.000    2.000    0.000    3.600    2.800    5.600 
#    0.000    1.000    0.000    3.600    0.000    5.600 
#    0.000    0.000    0.000    0.000    0.000    0.000 
#
# Total GULP energy -991258.429893 kJ/mol
# GULP energy per Si atom -12390.730374 kJ/mol
# Density = 2.220911 g / cm^3
# Si number density = 22.259778 Si / 1000 Ang^3
#
#
#
# Elastic Constant Matrix: (Units=GPa)
#
#
# Indices 1 2 3 4 5 6 
#
# 1 86.7221 35.1625 29.9672 0.0000 0.0000 0.0000
# 2 35.1625 86.7221 29.9672 0.0000 0.0000 0.0000
# 3 29.9672 29.9672 82.5603 0.0000 0.0000 0.0000
# 4 0.0000 0.0000 0.0000 32.5688 0.0000 0.0000
# 5 0.0000 0.0000 0.0000 0.0000 32.5688 0.0000
# 6 0.0000 0.0000 0.0000 0.0000 0.0000 32.2474
#
#
#
# Elastic Compliance Matrix: (Units=1/GPa)
#
#
# Indices 1 2 3 4 5 6 
#
# 1 0.014691 -0.004704 -0.003625 0.000000 0.000000 0.000000
# 2 -0.004704 0.014691 -0.003625 0.000000 0.000000 0.000000
# 3 -0.003625 -0.003625 0.014744 0.000000 0.000000 0.000000
# 4 0.000000 0.000000 0.000000 0.030704 0.000000 0.000000
# 5 0.000000 0.000000 0.000000 0.000000 0.030704 0.000000
# 6 0.000000 0.000000 0.000000 0.000000 0.000000 0.031010
#
#
# Mechanical properties :
#
#
# Convention : Reuss Voigt Hill
#
# Bulk Modulus (GPa) = 49.46117 49.57758 49.51937
# Shear Modulus (GPa) = 29.90571 30.20416 30.05494
#
# Velocity S-wave (km/s) = 3.66934 3.68760 3.67848
# Velocity P-wave (km/s) = 6.34194 6.36017 6.35107
#
# Compressibility (1/GPa) = 0.02021788
#
# Stress axis : x y z
#
# Youngs Moduli (GPa) = 68.06882 68.06882 67.82451
#
# Poissons Ratio (x) = 0.32020 0.24587
# Poissons Ratio (y) = 0.32020 0.24587
# Poissons Ratio (z) = 0.24675 0.24675
#
# Static dielectric constant tensor:
#      x y z
#    x 4.035340 0.000000 0.000000 
#    y 0.000000 4.035340 0.000000 
#    z 0.000000 0.000000 3.914490 
# 
# 
# High freq. dielectric constant tensor:
#      x y z
#    x 1.874310 0.000000 0.000000 
#    y 0.000000 1.874310 0.000000 
#    z 0.000000 0.000000 1.861250 
# 
# From -- ./inp_files/6782.got.cif
#   From: 2010.06.25/outbox.cif.g09.slc.cpg/sg140_4_cif.got.tgz:6782.got - 2010.06.28 10:53:23.
