data_PCOD8320937
_publ_section_title
;
Structure prediction by ZEFSAII (Michael W. Deem and Ramdas Pophale) SiO2 
 PCOD8320937
Probable space group: I 41/A M D
;
_chemical_formula_sum "Si O2"
_cell_formula_units_Z 160
_cell_length_a 17.543739
_cell_length_b 17.543739
_cell_length_c 33.688444
_cell_angle_alpha 90.000000
_cell_angle_beta 90.000000
_cell_angle_gamma 90.000000
_cell_volume 10368.722884
_symmetry_space_group_name_H-M "I 41/A M D"
_symmetry_group_IT_number 141
_space_group.IT_coordinate_system_code '2'
_symmetry_cell_setting 'tetragonal'
loop_
_space_group_symop_operation_xyz
x,y,z
1/4-y,3/4+x,1/4+z
-x,1/2-y,z
1/4+y,1/4-x,3/4+z
x,-y,-z
-x,1/2+y,-z
1/4+y,3/4+x,1/4-z
1/4-y,1/4-x,3/4-z
-x,-y,-z
3/4+y,1/4-x,3/4-z
x,1/2+y,-z
3/4-y,3/4+x,1/4-z
-x,y,z
x,1/2-y,z
3/4-y,1/4-x,3/4+z
3/4+y,3/4+x,1/4+z
1/2+x,1/2+y,1/2+z
3/4-y,1/4+x,3/4+z
1/2-x,-y,1/2+z
3/4+y,3/4-x,1/4+z
1/2+x,1/2-y,1/2-z
1/2-x,y,1/2-z
3/4+y,1/4+x,3/4-z
3/4-y,3/4-x,1/4-z
1/2-x,1/2-y,1/2-z
1/4+y,3/4-x,1/4-z
1/2+x,y,1/2-z
1/4-y,1/4+x,3/4-z
1/2-x,1/2+y,1/2+z
1/2+x,-y,1/2+z
1/4-y,3/4-x,1/4+z
1/4+y,1/4+x,3/4+z
loop_
_atom_site_type_symbol
_atom_site_label
_atom_site_fract_x
_atom_site_fract_y
_atom_site_fract_z
Si Si1 0.304969 0.532474 0.921377
Si Si2 0.184623 0.938903 0.030358
Si Si3 0.916409 0.660774 0.168870
Si Si4 0.591238 0.944005 0.764078
Si Si5 0.313827 0.665139 0.716453
O O1 0.298781 0.548781 0.875000
O O2 0.232563 0.486405 0.937571
O O3 0.375376 0.474191 0.928153
O O4 0.316007 0.613569 0.944123
O O5 0.114964 0.897054 0.050578
O O6 0.231533 0.873689 0.007542
O O7 0.149805 0.000000 0.000000
O O8 0.888055 0.638055 0.125000
O O9 0.924692 0.750000 0.172262
O O10 0.000000 0.623983 0.177479
O O11 0.500000 0.948744 0.771480
O O12 0.610258 0.874561 0.733963
O O13 0.336865 0.750000 0.704141
O O14 0.250000 0.661073 0.750000
#
# Coordination Sequence:
#
# PCOD8320937 Si02
#       5
#    32  32  32  32  32
#     4   9  17  28  43  63  85 110 141 176 214 254
#     4   9  17  29  44  61  84 113 143 174 206 248
#     4   9  17  28  43  64  87 109 134 169 214 256
#     4   9  17  28  43  63  84 109 142 177 211 247
#     4   8  15  28  43  59  82 111 139 168 206 251
#
# _framework density 15.431022
#
# number of rings (size 3 to 8) (size 9 to 14) (size 15 to 20)
#    0.000    3.200    0.000    4.200    0.000    1.600 
#    0.000    0.000    0.000    0.000    0.000    2.800 
#    0.000    0.000    0.000    0.000    0.000    0.000 
#
# Total GULP energy -991183.772028 kJ/mol
# GULP energy per Si atom -12389.797150 kJ/mol
# Density = 1.539590 g / cm^3
# Si number density = 15.431022 Si / 1000 Ang^3
#
#
#
# Elastic Constant Matrix: (Units=GPa)
#
#
# Indices 1 2 3 4 5 6 
#
# 1 62.2996 40.0408 46.3438 0.0000 0.0000 0.0000
# 2 40.0408 62.2996 46.3438 0.0000 0.0000 0.0000
# 3 46.3438 46.3438 113.2616 0.0000 0.0000 0.0000
# 4 0.0000 0.0000 0.0000 15.0150 0.0000 0.0000
# 5 0.0000 0.0000 0.0000 0.0000 15.0150 0.0000
# 6 0.0000 0.0000 0.0000 0.0000 0.0000 17.3239
#
#
#
# Elastic Compliance Matrix: (Units=1/GPa)
#
#
# Indices 1 2 3 4 5 6 
#
# 1 0.030225 -0.014701 -0.006352 0.000000 0.000000 0.000000
# 2 -0.014701 0.030225 -0.006352 0.000000 0.000000 0.000000
# 3 -0.006352 -0.006352 0.014027 0.000000 0.000000 0.000000
# 4 0.000000 0.000000 0.000000 0.066600 0.000000 0.000000
# 5 0.000000 0.000000 0.000000 0.000000 0.066600 0.000000
# 6 0.000000 0.000000 0.000000 0.000000 0.000000 0.057724
#
#
# Mechanical properties :
#
#
# Convention : Reuss Voigt Hill
#
# Bulk Modulus (GPa) = 50.84552 55.92417 53.38485
# Shear Modulus (GPa) = 15.30139 16.47962 15.89050
#
# Velocity S-wave (km/s) = 3.15238 3.27150 3.21249
# Velocity P-wave (km/s) = 6.80233 7.11269 6.95924
#
# Compressibility (1/GPa) = 0.01966742
#
# Stress axis : x y z
#
# Youngs Moduli (GPa) = 33.08489 33.08489 71.28898
#
# Poissons Ratio (x) = 0.48638 0.45284
# Poissons Ratio (y) = 0.48638 0.45284
# Poissons Ratio (z) = 0.21016 0.21016
#
# Static dielectric constant tensor:
#      x y z
#    x 2.916400 0.000000 0.000000 
#    y 0.000000 2.916400 0.000000 
#    z 0.000000 0.000000 2.989850 
# 
# 
# High freq. dielectric constant tensor:
#      x y z
#    x 1.584890 0.000000 0.000000 
#    y 0.000000 1.584890 0.000000 
#    z 0.000000 0.000000 1.579470 
# 
# From -- ./inp_files/14286.got.cif
#   From: 2010.03.12/outbox.cif.g09.slc.cpg/sg141_8_cif.got.tgz:14286.got - 2010.04.03 13:18:35.
