data_PCOD8320456
_publ_section_title
;
Structure prediction by ZEFSAII (Michael W. Deem and Ramdas Pophale) SiO2 
 PCOD8320456
Probable space group: I 4/M C M
;
_chemical_formula_sum "Si O2"
_cell_formula_units_Z 160
_cell_length_a 19.708789
_cell_length_b 19.708789
_cell_length_c 19.967644
_cell_angle_alpha 90.000000
_cell_angle_beta 90.000000
_cell_angle_gamma 90.000000
_cell_volume 7756.159030
_symmetry_space_group_name_H-M "I 4/M C M"
_symmetry_group_IT_number 140
_symmetry_cell_setting 'tetragonal'
loop_
_space_group_symop_operation_xyz
x,y,z
-y,x,z
-x,-y,z
y,-x,z
x,-y,1/2-z
-x,y,1/2-z
y,x,1/2-z
-y,-x,1/2-z
-x,-y,-z
y,-x,-z
x,y,-z
-y,x,-z
-x,y,1/2+z
x,-y,1/2+z
-y,-x,1/2+z
y,x,1/2+z
1/2+x,1/2+y,1/2+z
1/2-y,1/2+x,1/2+z
1/2-x,1/2-y,1/2+z
1/2+y,1/2-x,1/2+z
1/2+x,1/2-y,-z
1/2-x,1/2+y,-z
1/2+y,1/2+x,-z
1/2-y,1/2-x,-z
1/2-x,1/2-y,1/2-z
1/2+y,1/2-x,1/2-z
1/2+x,1/2+y,1/2-z
1/2-y,1/2+x,1/2-z
1/2-x,1/2+y,z
1/2+x,1/2-y,z
1/2-y,1/2-x,z
1/2+y,1/2+x,z
loop_
_atom_site_type_symbol
_atom_site_label
_atom_site_fract_x
_atom_site_fract_y
_atom_site_fract_z
Si Si1 0.397644 0.461861 0.922971
Si Si2 0.594004 0.905997 0.579566
Si Si3 0.067680 0.782996 0.782786
Si Si4 0.207381 0.707381 0.423566
Si Si5 0.317351 0.365528 0.155555
Si Si6 0.864050 0.473391 0.823400
O O1 0.461277 0.414162 0.904909
O O2 0.332240 0.437054 0.881543
O O3 0.378703 0.454308 0.000000
O O4 0.579120 0.920881 0.500000
O O5 0.650758 0.849243 0.586889
O O6 0.527603 0.877966 0.617748
O O7 0.118942 0.770163 0.719944
O O8 0.108156 0.834252 0.830050
O O9 0.048702 0.714511 0.822061
O O10 0.000000 0.816748 0.750000
O O11 0.222314 0.722314 0.500000
O O12 0.278186 0.685993 0.391510
O O13 0.885497 0.500000 0.750000
O O14 0.907807 0.407807 0.841449
#
# Coordination Sequence:
#
# PCOD8320456 Si02
#       6
#    32  16  32  16  32  32
#     4   9  18  34  58  85 113 152 202 255 314 375
#     4  11  25  44  66  96 129 165 213 270 324 381
#     4  10  23  38  60  90 122 158 208 256 315 371
#     4  11  24  40  59  85 121 165 206 244 300 377
#     4  11  22  37  61  86 123 163 205 257 305 370
#     4  11  22  39  66  93 122 164 212 261 320 387
#
# _framework density 20.628765999999999
#
# number of rings (size 3 to 8) (size 9 to 14) (size 15 to 20)
#    0.000    1.600    1.000    5.100    2.800    1.600 
#    0.000    4.000    0.000    4.800    0.000    0.000 
#    0.000    0.000    0.000    0.000    0.000    0.000 
#
# Total GULP energy -991598.191981 kJ/mol
# GULP energy per Si atom -12394.977400 kJ/mol
# Density = 2.058181 g / cm^3
# Si number density = 20.628766 Si / 1000 Ang^3
#
#
#
# Elastic Constant Matrix: (Units=GPa)
#
#
# Indices 1 2 3 4 5 6 
#
# 1 74.8624 29.1132 44.6203 0.0000 0.0000 0.0000
# 2 29.1132 74.8623 44.6205 0.0000 0.0000 0.0000
# 3 44.6203 44.6205 121.3008 0.0000 0.0000 0.0000
# 4 0.0000 0.0000 0.0000 33.2883 0.0000 0.0000
# 5 0.0000 0.0000 0.0000 0.0000 33.2882 0.0000
# 6 0.0000 0.0000 0.0000 0.0000 0.0000 44.4731
#
#
#
# Elastic Compliance Matrix: (Units=1/GPa)
#
#
# Indices 1 2 3 4 5 6 
#
# 1 0.017957 -0.003902 -0.005170 0.000000 0.000000 0.000000
# 2 -0.003902 0.017957 -0.005170 0.000000 0.000000 0.000000
# 3 -0.005170 -0.005170 0.012048 0.000000 0.000000 0.000000
# 4 0.000000 0.000000 0.000000 0.030041 0.000000 0.000000
# 5 0.000000 0.000000 0.000000 0.000000 0.030041 0.000000
# 6 0.000000 0.000000 0.000000 0.000000 0.000000 0.022485
#
#
# Mechanical properties :
#
#
# Convention : Reuss Voigt Hill
#
# Bulk Modulus (GPa) = 51.34198 56.41483 53.87841
# Shear Modulus (GPa) = 30.21072 32.38802 31.29937
#
# Velocity S-wave (km/s) = 3.83102 3.96667 3.89944
# Velocity P-wave (km/s) = 6.67170 6.95603 6.81535
#
# Compressibility (1/GPa) = 0.01947724
#
# Stress axis : x y z
#
# Youngs Moduli (GPa) = 55.68946 55.68931 83.00373
#
# Poissons Ratio (x) = 0.21728 0.42914
# Poissons Ratio (y) = 0.21728 0.42914
# Poissons Ratio (z) = 0.28792 0.28792
#
# Static dielectric constant tensor:
#      x y z
#    x 3.659210 0.000000 0.000000 
#    y 0.000000 3.659210 0.000000 
#    z 0.000000 0.000000 3.811560 
# 
# 
# High freq. dielectric constant tensor:
#      x y z
#    x 1.804210 0.000000 0.000000 
#    y 0.000000 1.804210 0.000000 
#    z 0.000000 0.000000 1.809290 
# 
# From -- ./inp_files/6895.got.cif
#   From: 2010.06.25/outbox.cif.g09.slc.cpg/sg140_4_cif.got.tgz:6895.got - 2010.06.28 10:53:23.
