data_PCOD8320486
_publ_section_title
;
Structure prediction by ZEFSAII (Michael W. Deem and Ramdas Pophale) SiO2 
 PCOD8320486
Probable space group: I 4/M C M
;
_chemical_formula_sum "Si O2"
_cell_formula_units_Z 80
_cell_length_a 13.187979
_cell_length_b 13.187979
_cell_length_c 21.233981
_cell_angle_alpha 90.000000
_cell_angle_beta 90.000000
_cell_angle_gamma 90.000000
_cell_volume 3693.073221
_symmetry_space_group_name_H-M "I 4/M C M"
_symmetry_group_IT_number 140
_symmetry_cell_setting 'tetragonal'
loop_
_space_group_symop_operation_xyz
x,y,z
-y,x,z
-x,-y,z
y,-x,z
x,-y,1/2-z
-x,y,1/2-z
y,x,1/2-z
-y,-x,1/2-z
-x,-y,-z
y,-x,-z
x,y,-z
-y,x,-z
-x,y,1/2+z
x,-y,1/2+z
-y,-x,1/2+z
y,x,1/2+z
1/2+x,1/2+y,1/2+z
1/2-y,1/2+x,1/2+z
1/2-x,1/2-y,1/2+z
1/2+y,1/2-x,1/2+z
1/2+x,1/2-y,-z
1/2-x,1/2+y,-z
1/2+y,1/2+x,-z
1/2-y,1/2-x,-z
1/2-x,1/2-y,1/2-z
1/2+y,1/2-x,1/2-z
1/2+x,1/2+y,1/2-z
1/2-y,1/2+x,1/2-z
1/2-x,1/2+y,z
1/2+x,1/2-y,z
1/2-y,1/2-x,z
1/2+y,1/2+x,z
loop_
_atom_site_type_symbol
_atom_site_label
_atom_site_fract_x
_atom_site_fract_y
_atom_site_fract_z
Si Si1 0.609461 0.731513 0.129297
Si Si2 0.367183 0.600968 0.000000
Si Si3 0.916836 0.249070 0.304871
O O1 0.658470 0.841531 0.137900
O O2 0.642976 0.687196 0.062217
O O3 0.654295 0.660517 0.186615
O O4 0.488414 0.745524 0.133048
O O5 0.360224 0.480596 0.000000
O O6 0.853884 0.353884 0.299704
O O7 0.000000 0.238771 0.250000
#
# Coordination Sequence:
#
# PCOD8320486 Si02
#       3
#    32  16  32
#     4  11  23  41  65  94 129 169 213 265 320 378
#     4  11  21  40  66  91 126 166 216 269 324 368
#     4  11  24  42  65  94 130 169 212 261 316 380
#
# _framework density 21.662175000000001
#
# number of rings (size 3 to 8) (size 9 to 14) (size 15 to 20)
#    0.000    1.000    4.000    3.000    0.000    6.800 
#    0.000    3.000    0.000    2.400    0.000    0.000 
#    0.000    0.000    0.000    0.000    0.000    0.000 
#
# Total GULP energy -495708.856803 kJ/mol
# GULP energy per Si atom -12392.721420 kJ/mol
# Density = 2.161287 g / cm^3
# Si number density = 21.662175 Si / 1000 Ang^3
#
#
#
# Elastic Constant Matrix: (Units=GPa)
#
#
# Indices 1 2 3 4 5 6 
#
# 1 106.9245 38.2490 3.0749 0.0000 0.0000 0.0000
# 2 38.2490 106.9245 3.0749 0.0000 0.0000 0.0000
# 3 3.0749 3.0749 82.1212 0.0000 0.0000 0.0000
# 4 0.0000 0.0000 0.0000 24.6892 0.0000 0.0000
# 5 0.0000 0.0000 0.0000 0.0000 24.6892 0.0000
# 6 0.0000 0.0000 0.0000 0.0000 0.0000 52.9677
#
#
#
# Elastic Compliance Matrix: (Units=1/GPa)
#
#
# Indices 1 2 3 4 5 6 
#
# 1 0.010730 -0.003831 -0.000258 0.000000 0.000000 0.000000
# 2 -0.003831 0.010730 -0.000258 0.000000 0.000000 0.000000
# 3 -0.000258 -0.000258 0.012196 0.000000 0.000000 0.000000
# 4 0.000000 0.000000 0.000000 0.040504 0.000000 0.000000
# 5 0.000000 0.000000 0.000000 0.000000 0.040504 0.000000
# 6 0.000000 0.000000 0.000000 0.000000 0.000000 0.018879
#
#
# Mechanical properties :
#
#
# Convention : Reuss Voigt Hill
#
# Bulk Modulus (GPa) = 40.06148 42.75200 41.40674
# Shear Modulus (GPa) = 33.20948 37.24064 35.22506
#
# Velocity S-wave (km/s) = 3.91968 4.15077 4.03688
# Velocity P-wave (km/s) = 6.24653 6.53838 6.39412
#
# Compressibility (1/GPa) = 0.02496163
#
# Stress axis : x y z
#
# Youngs Moduli (GPa) = 93.19453 93.19453 81.99095
#
# Poissons Ratio (x) = 0.35703 0.02118
# Poissons Ratio (y) = 0.35703 0.02118
# Poissons Ratio (z) = 0.02408 0.02408
#
# Static dielectric constant tensor:
#      x y z
#    x 3.904910 0.000000 0.000000 
#    y 0.000000 3.904910 0.000000 
#    z 0.000000 0.000000 4.194320 
# 
# 
# High freq. dielectric constant tensor:
#      x y z
#    x 1.847280 0.000000 0.000000 
#    y 0.000000 1.847280 0.000000 
#    z 0.000000 0.000000 1.867780 
# 
# From -- ./inp_files/7483.got.cif
#   From: 2010.06.25/outbox.cif.g09.slc.cpg/sg140_4_cif.got.tgz:7483.got - 2010.06.28 10:53:23.
