data_PCOD8320236
_publ_section_title
;
Structure prediction by ZEFSAII (Michael W. Deem and Ramdas Pophale) SiO2 
 PCOD8320236
Probable space group: I 4/M C M
;
_chemical_formula_sum "Si O2"
_cell_formula_units_Z 208
_cell_length_a 21.201172
_cell_length_b 21.201172
_cell_length_c 26.157149
_cell_angle_alpha 90.000000
_cell_angle_beta 90.000000
_cell_angle_gamma 90.000000
_cell_volume 11757.368904
_symmetry_space_group_name_H-M "I 4/M C M"
_symmetry_group_IT_number 140
_symmetry_cell_setting 'tetragonal'
loop_
_space_group_symop_operation_xyz
x,y,z
-y,x,z
-x,-y,z
y,-x,z
x,-y,1/2-z
-x,y,1/2-z
y,x,1/2-z
-y,-x,1/2-z
-x,-y,-z
y,-x,-z
x,y,-z
-y,x,-z
-x,y,1/2+z
x,-y,1/2+z
-y,-x,1/2+z
y,x,1/2+z
1/2+x,1/2+y,1/2+z
1/2-y,1/2+x,1/2+z
1/2-x,1/2-y,1/2+z
1/2+y,1/2-x,1/2+z
1/2+x,1/2-y,-z
1/2-x,1/2+y,-z
1/2+y,1/2+x,-z
1/2-y,1/2-x,-z
1/2-x,1/2-y,1/2-z
1/2+y,1/2-x,1/2-z
1/2+x,1/2+y,1/2-z
1/2-y,1/2+x,1/2-z
1/2-x,1/2+y,z
1/2+x,1/2-y,z
1/2-y,1/2-x,z
1/2+y,1/2+x,z
loop_
_atom_site_type_symbol
_atom_site_label
_atom_site_fract_x
_atom_site_fract_y
_atom_site_fract_z
Si Si1 0.312452 0.358068 0.845395
Si Si2 0.726802 0.773199 0.805119
Si Si3 0.276758 0.947981 0.787155
Si Si4 0.768176 0.628207 0.057318
Si Si5 0.045216 0.353340 0.116385
Si Si6 0.573095 0.429018 0.190178
Si Si7 0.449318 0.050683 0.137347
Si Si8 0.626252 0.126252 0.721758
O O1 0.303798 0.284441 0.835826
O O2 0.274289 0.395127 0.801172
O O3 0.288712 0.373441 0.902410
O O4 0.385297 0.378849 0.841713
O O5 0.750000 0.750000 0.750000
O O6 0.673731 0.826270 0.805968
O O7 0.305214 0.976889 0.839214
O O8 0.335191 0.920879 0.756579
O O9 0.243979 0.000000 0.750000
O O10 0.807308 0.692693 0.064399
O O11 0.813788 0.567918 0.067156
O O12 0.740933 0.622833 0.000000
O O13 0.104532 0.395469 0.136087
O O14 0.985878 0.397944 0.102240
O O15 0.588022 0.501110 0.175317
O O16 0.582705 0.417296 0.250000
O O17 0.415013 0.084988 0.183537
O O18 0.500000 0.000000 0.159475
#
# Coordination Sequence:
#
# PCOD8320236 Si02
#       8
#    32  16  32  32  32  32  16  16
#     4  11  21  35  55  81 110 145 185 225 281 327
#     4  12  22  34  49  76 119 147 171 223 267 337
#     4  11  20  28  44  72 108 148 188 223 264 333
#     4   9  18  35  58  79 104 139 187 241 284 324
#     4   9  17  30  46  70 103 140 187 233 272 313
#     4   9  20  37  56  81 115 150 185 219 261 329
#     4  10  20  34  47  70 109 151 190 230 267 321
#     4  12  22  32  44  71 111 157 186 216 270 327
#
# _framework density 17.691033000000001
#
# number of rings (size 3 to 8) (size 9 to 14) (size 15 to 20)
#    0.000    1.846    4.615    0.923    2.154    0.000 
#    1.385    0.385    0.000    3.231    0.000    2.154 
#    0.000    0.000    0.000    0.000    0.000    0.000 
#
# Total GULP energy -1289200.476129 kJ/mol
# GULP energy per Si atom -12396.158424 kJ/mol
# Density = 1.765077 g / cm^3
# Si number density = 17.691033 Si / 1000 Ang^3
#
#
#
# Elastic Constant Matrix: (Units=GPa)
#
#
# Indices 1 2 3 4 5 6 
#
# 1 82.6798 41.4966 32.3548 0.0000 0.0000 0.0000
# 2 41.4966 82.6796 32.3549 0.0000 0.0000 0.0000
# 3 32.3548 32.3549 82.5013 0.0000 0.0000 0.0000
# 4 0.0000 0.0000 0.0000 15.6883 0.0000 0.0000
# 5 0.0000 0.0000 0.0000 0.0000 15.6884 0.0000
# 6 0.0000 0.0000 0.0000 0.0000 0.0000 32.7569
#
#
#
# Elastic Compliance Matrix: (Units=1/GPa)
#
#
# Indices 1 2 3 4 5 6 
#
# 1 0.017202 -0.007080 -0.003969 0.000000 0.000000 0.000000
# 2 -0.007080 0.017202 -0.003969 0.000000 0.000000 0.000000
# 3 -0.003969 -0.003969 0.015234 0.000000 0.000000 0.000000
# 4 0.000000 0.000000 0.000000 0.063742 0.000000 0.000000
# 5 0.000000 0.000000 0.000000 0.000000 0.063741 0.000000
# 6 0.000000 0.000000 0.000000 0.000000 0.000000 0.030528
#
#
# Mechanical properties :
#
#
# Convention : Reuss Voigt Hill
#
# Bulk Modulus (GPa) = 51.02067 51.14150 51.08108
# Shear Modulus (GPa) = 20.47334 22.27034 21.37184
#
# Velocity S-wave (km/s) = 3.40556 3.55188 3.47949
# Velocity P-wave (km/s) = 6.66080 6.76698 6.71410
#
# Compressibility (1/GPa) = 0.01959990
#
# Stress axis : x y z
#
# Youngs Moduli (GPa) = 58.13393 58.13376 65.64079
#
# Poissons Ratio (x) = 0.41159 0.26055
# Poissons Ratio (y) = 0.41159 0.26056
# Poissons Ratio (z) = 0.23076 0.23076
#
# Static dielectric constant tensor:
#      x y z
#    x 3.317160 0.000000 0.000000 
#    y 0.000000 3.317170 0.000000 
#    z 0.000000 0.000000 2.953340 
# 
# 
# High freq. dielectric constant tensor:
#      x y z
#    x 1.682070 0.000000 0.000000 
#    y 0.000000 1.682070 0.000000 
#    z 0.000000 0.000000 1.641320 
# 
# From -- ./inp_files/11772.got.cif
#   From: 2010.06.25/outbox.cif.g09.slc.cpg/sg140_6_cif.got.tgz:11772.got - 2010.06.28 10:53:23.
