data_PCOD8320781
_publ_section_title
;
Structure prediction by ZEFSAII (Michael W. Deem and Ramdas Pophale) SiO2 
 PCOD8320781
Probable space group: I 41/A M D
;
_chemical_formula_sum "Si O2"
_cell_formula_units_Z 176
_cell_length_a 26.032960
_cell_length_b 26.032960
_cell_length_c 14.681028
_cell_angle_alpha 90.000000
_cell_angle_beta 90.000000
_cell_angle_gamma 90.000000
_cell_volume 9949.552984
_symmetry_space_group_name_H-M "I 41/A M D"
_symmetry_group_IT_number 141
_space_group.IT_coordinate_system_code '2'
_symmetry_cell_setting 'tetragonal'
loop_
_space_group_symop_operation_xyz
x,y,z
1/4-y,3/4+x,1/4+z
-x,1/2-y,z
1/4+y,1/4-x,3/4+z
x,-y,-z
-x,1/2+y,-z
1/4+y,3/4+x,1/4-z
1/4-y,1/4-x,3/4-z
-x,-y,-z
3/4+y,1/4-x,3/4-z
x,1/2+y,-z
3/4-y,3/4+x,1/4-z
-x,y,z
x,1/2-y,z
3/4-y,1/4-x,3/4+z
3/4+y,3/4+x,1/4+z
1/2+x,1/2+y,1/2+z
3/4-y,1/4+x,3/4+z
1/2-x,-y,1/2+z
3/4+y,3/4-x,1/4+z
1/2+x,1/2-y,1/2-z
1/2-x,y,1/2-z
3/4+y,1/4+x,3/4-z
3/4-y,3/4-x,1/4-z
1/2-x,1/2-y,1/2-z
1/4+y,3/4-x,1/4-z
1/2+x,y,1/2-z
1/4-y,1/4+x,3/4-z
1/2-x,1/2+y,1/2+z
1/2+x,-y,1/2+z
1/4-y,3/4-x,1/4+z
1/4+y,1/4+x,3/4+z
loop_
_atom_site_type_symbol
_atom_site_label
_atom_site_fract_x
_atom_site_fract_y
_atom_site_fract_z
Si Si1 0.796449 0.602011 0.547162
Si Si2 0.558946 0.492738 0.892823
Si Si3 0.189609 0.059845 0.979786
Si Si4 0.939880 0.309609 0.678846
Si Si5 0.940979 0.309022 0.875000
Si Si6 0.873699 0.394377 0.617379
O O1 0.811737 0.561737 0.625000
O O2 0.786682 0.658563 0.590067
O O3 0.746070 0.580696 0.499611
O O4 0.842273 0.602630 0.475363
O O5 0.500000 0.494852 0.858165
O O6 0.583432 0.437919 0.871330
O O7 0.561916 0.500000 0.000000
O O8 0.176809 0.073192 0.875000
O O9 0.147582 0.086135 0.045451
O O10 0.187817 0.000000 0.000000
O O11 0.926079 0.250000 0.668907
O O12 0.924992 0.334335 0.778943
O O13 0.903936 0.340534 0.610046
O O14 0.000000 0.318349 0.658744
O O15 0.930851 0.250000 0.855571
#
# Coordination Sequence:
#
# PCOD8320781 Si02
#       6
#    32  32  32  32  16  32
#     4  11  22  36  56  83 109 144 186 229 279 325
#     4  10  21  37  56  80 111 145 184 232 278 327
#     4  11  22  36  55  81 113 145 178 226 273 332
#     4   9  18  34  56  80 107 142 187 235 277 324
#     4   7  12  26  48  72  96 128 172 220 266 308
#     4  11  22  34  58  83 111 146 187 224 276 338
#
# _framework density 17.689236999999999
#
# number of rings (size 3 to 8) (size 9 to 14) (size 15 to 20)
#    0.000    1.909    3.636    2.182    3.818    0.727 
#    0.000    0.000    0.000    0.545    0.000    1.273 
#    0.000    0.000    0.000    0.000    0.000    0.000 
#
# Total GULP energy -1090587.532207 kJ/mol
# GULP energy per Si atom -12393.040139 kJ/mol
# Density = 1.764898 g / cm^3
# Si number density = 17.689237 Si / 1000 Ang^3
#
#
#
# Elastic Constant Matrix: (Units=GPa)
#
#
# Indices 1 2 3 4 5 6 
#
# 1 83.2014 38.0041 27.4188 0.0000 0.0000 0.0000
# 2 38.0041 83.1998 27.4183 0.0000 0.0000 0.0000
# 3 27.4188 27.4183 91.4404 0.0000 0.0000 0.0000
# 4 0.0000 0.0000 0.0000 23.5010 0.0000 0.0000
# 5 0.0000 0.0000 0.0000 0.0000 23.5014 0.0000
# 6 0.0000 0.0000 0.0000 0.0000 0.0000 14.3297
#
#
#
# Elastic Compliance Matrix: (Units=1/GPa)
#
#
# Indices 1 2 3 4 5 6 
#
# 1 0.015835 -0.006290 -0.002862 0.000000 0.000000 0.000000
# 2 -0.006290 0.015836 -0.002862 0.000000 0.000000 0.000000
# 3 -0.002862 -0.002862 0.012653 0.000000 0.000000 0.000000
# 4 0.000000 0.000000 0.000000 0.042551 0.000000 0.000000
# 5 0.000000 0.000000 0.000000 0.000000 0.042551 0.000000
# 6 0.000000 0.000000 0.000000 0.000000 0.000000 0.069785
#
#
# Mechanical properties :
#
#
# Convention : Reuss Voigt Hill
#
# Bulk Modulus (GPa) = 49.27417 49.28046 49.27732
# Shear Modulus (GPa) = 21.73866 23.26643 22.50255
#
# Velocity S-wave (km/s) = 3.50940 3.63062 3.57053
# Velocity P-wave (km/s) = 6.65861 6.74498 6.70193
#
# Compressibility (1/GPa) = 0.02029461
#
# Stress axis : x y z
#
# Youngs Moduli (GPa) = 63.14967 63.14857 79.03534
#
# Poissons Ratio (x) = 0.39721 0.22622
# Poissons Ratio (y) = 0.39722 0.22622
# Poissons Ratio (z) = 0.18075 0.18074
#
# Static dielectric constant tensor:
#      x y z
#    x 3.228600 0.000000 0.000000 
#    y 0.000000 3.228610 0.000000 
#    z 0.000000 0.000000 3.437380 
# 
# 
# High freq. dielectric constant tensor:
#      x y z
#    x 1.676350 0.000000 0.000000 
#    y 0.000000 1.676350 0.000000 
#    z 0.000000 0.000000 1.689260 
# 
# From -- ./inp_files/6825.got.cif
#   From: 2010.03.12/outbox.cif.g09.slc.cpg/sg141_4_cif.got.tgz:6825.got - 2010.04.03 13:18:35.
