data_PCOD8320455
_publ_section_title
;
Structure prediction by ZEFSAII (Michael W. Deem and Ramdas Pophale) SiO2 
 PCOD8320455
Probable space group: I 4/M C M
;
_chemical_formula_sum "Si O2"
_cell_formula_units_Z 160
_cell_length_a 17.482660
_cell_length_b 17.482660
_cell_length_c 25.682493
_cell_angle_alpha 90.000000
_cell_angle_beta 90.000000
_cell_angle_gamma 90.000000
_cell_volume 7849.684498
_symmetry_space_group_name_H-M "I 4/M C M"
_symmetry_group_IT_number 140
_symmetry_cell_setting 'tetragonal'
loop_
_space_group_symop_operation_xyz
x,y,z
-y,x,z
-x,-y,z
y,-x,z
x,-y,1/2-z
-x,y,1/2-z
y,x,1/2-z
-y,-x,1/2-z
-x,-y,-z
y,-x,-z
x,y,-z
-y,x,-z
-x,y,1/2+z
x,-y,1/2+z
-y,-x,1/2+z
y,x,1/2+z
1/2+x,1/2+y,1/2+z
1/2-y,1/2+x,1/2+z
1/2-x,1/2-y,1/2+z
1/2+y,1/2-x,1/2+z
1/2+x,1/2-y,-z
1/2-x,1/2+y,-z
1/2+y,1/2+x,-z
1/2-y,1/2-x,-z
1/2-x,1/2-y,1/2-z
1/2+y,1/2-x,1/2-z
1/2+x,1/2+y,1/2-z
1/2-y,1/2+x,1/2-z
1/2-x,1/2+y,z
1/2+x,1/2-y,z
1/2-y,1/2-x,z
1/2+y,1/2+x,z
loop_
_atom_site_type_symbol
_atom_site_label
_atom_site_fract_x
_atom_site_fract_y
_atom_site_fract_z
Si Si1 0.877114 0.026094 0.500000
Si Si2 0.338774 0.037505 0.303063
Si Si3 0.062469 0.562469 0.124164
Si Si4 0.315477 0.569249 0.654000
Si Si5 0.911727 0.815533 0.399299
Si Si6 0.588939 0.411062 0.250000
Si Si7 0.837589 0.337589 0.062295
O O1 0.824066 0.037164 0.450401
O O2 0.942299 0.089489 0.500000
O O3 0.407042 0.092959 0.286256
O O4 0.272886 0.085597 0.332361
O O5 0.305888 0.000000 0.250000
O O6 0.369359 0.973645 0.342276
O O7 0.097589 0.597589 0.071156
O O8 0.000000 0.500000 0.107409
O O9 0.348476 0.616374 0.604744
O O10 0.321359 0.476673 0.646719
O O11 0.365017 0.612557 0.698754
O O12 0.865106 0.737208 0.406096
O O13 0.606895 0.500000 0.250000
O O14 0.824512 0.324512 0.000000
#
# Coordination Sequence:
#
# PCOD8320455 Si02
#       7
#    16  32  16  32  32  16  16
#     4  11  22  39  66  96 125 169 234 277 323 392
#     4  11  23  42  67  96 129 171 218 276 329 394
#     4  10  22  43  73 101 129 165 222 280 333 395
#     4  12  25  41  64  95 136 174 220 265 332 400
#     4  12  25  42  64  95 131 177 219 278 333 397
#     4  11  22  38  59  90 132 173 214 254 317 392
#     4  12  26  45  69  97 137 174 223 285 342 396
#
# _framework density 20.382985000000001
#
# number of rings (size 3 to 8) (size 9 to 14) (size 15 to 20)
#    0.000    0.600    8.000    0.600    1.400    0.600 
#    0.000    0.500    0.000    0.000    0.000    0.000 
#    0.000    0.000    0.000    0.000    0.000    0.000 
#
# Total GULP energy -991230.517415 kJ/mol
# GULP energy per Si atom -12390.381468 kJ/mol
# Density = 2.033659 g / cm^3
# Si number density = 20.382985 Si / 1000 Ang^3
#
#
#
# Elastic Constant Matrix: (Units=GPa)
#
#
# Indices 1 2 3 4 5 6 
#
# 1 125.0483 14.1671 30.0641 0.0000 0.0000 0.0000
# 2 14.1671 125.0490 30.0643 0.0000 0.0000 0.0000
# 3 30.0641 30.0643 70.2826 0.0000 0.0000 0.0000
# 4 0.0000 0.0000 0.0000 26.6818 0.0000 0.0000
# 5 0.0000 0.0000 0.0000 0.0000 26.6792 0.0000
# 6 0.0000 0.0000 0.0000 0.0000 0.0000 36.6694
#
#
#
# Elastic Compliance Matrix: (Units=1/GPa)
#
#
# Indices 1 2 3 4 5 6 
#
# 1 0.008915 -0.000104 -0.003769 0.000000 0.000000 0.000000
# 2 -0.000104 0.008915 -0.003769 0.000000 0.000000 0.000000
# 3 -0.003769 -0.003769 0.017453 0.000000 0.000000 0.000000
# 4 0.000000 0.000000 0.000000 0.037479 0.000000 0.000000
# 5 0.000000 0.000000 0.000000 0.000000 0.037482 0.000000
# 6 0.000000 0.000000 0.000000 0.000000 0.000000 0.027271
#
#
# Mechanical properties :
#
#
# Convention : Reuss Voigt Hill
#
# Bulk Modulus (GPa) = 50.00330 52.10789 51.05559
# Shear Modulus (GPa) = 31.35504 34.41170 32.88337
#
# Velocity S-wave (km/s) = 3.92637 4.11330 4.02092
# Velocity P-wave (km/s) = 6.71865 6.94110 6.83078
#
# Compressibility (1/GPa) = 0.01999868
#
# Stress axis : x y z
#
# Youngs Moduli (GPa) = 112.17288 112.17337 57.29764
#
# Poissons Ratio (x) = 0.01165 0.21595
# Poissons Ratio (y) = 0.01165 0.21595
# Poissons Ratio (z) = 0.42278 0.42278
#
# Static dielectric constant tensor:
#      x y z
#    x 3.626770 0.000000 0.000000 
#    y 0.000000 3.626800 0.000000 
#    z 0.000000 0.000000 3.986750 
# 
# 
# High freq. dielectric constant tensor:
#      x y z
#    x 1.793230 0.000000 0.000000 
#    y 0.000000 1.793230 0.000000 
#    z 0.000000 0.000000 1.794900 
# 
# From -- ./inp_files/10644.got.cif
#   From: 2010.06.25/outbox.cif.g09.slc.cpg/sg140_6_cif.got.tgz:10644.got - 2010.06.28 10:53:23.
