data_PCOD8320918
_publ_section_title
;
Structure prediction by ZEFSAII (Michael W. Deem and Ramdas Pophale) SiO2 
 PCOD8320918
Probable space group: I 41/A M D
;
_chemical_formula_sum "Si O2"
_cell_formula_units_Z 128
_cell_length_a 19.548810
_cell_length_b 19.548810
_cell_length_c 16.176276
_cell_angle_alpha 90.000000
_cell_angle_beta 90.000000
_cell_angle_gamma 90.000000
_cell_volume 6181.860485
_symmetry_space_group_name_H-M "I 41/A M D"
_symmetry_group_IT_number 141
_space_group.IT_coordinate_system_code '2'
_symmetry_cell_setting 'tetragonal'
loop_
_space_group_symop_operation_xyz
x,y,z
1/4-y,3/4+x,1/4+z
-x,1/2-y,z
1/4+y,1/4-x,3/4+z
x,-y,-z
-x,1/2+y,-z
1/4+y,3/4+x,1/4-z
1/4-y,1/4-x,3/4-z
-x,-y,-z
3/4+y,1/4-x,3/4-z
x,1/2+y,-z
3/4-y,3/4+x,1/4-z
-x,y,z
x,1/2-y,z
3/4-y,1/4-x,3/4+z
3/4+y,3/4+x,1/4+z
1/2+x,1/2+y,1/2+z
3/4-y,1/4+x,3/4+z
1/2-x,-y,1/2+z
3/4+y,3/4-x,1/4+z
1/2+x,1/2-y,1/2-z
1/2-x,y,1/2-z
3/4+y,1/4+x,3/4-z
3/4-y,3/4-x,1/4-z
1/2-x,1/2-y,1/2-z
1/4+y,3/4-x,1/4-z
1/2+x,y,1/2-z
1/4-y,1/4+x,3/4-z
1/2-x,1/2+y,1/2+z
1/2+x,-y,1/2+z
1/4-y,3/4-x,1/4+z
1/4+y,1/4+x,3/4+z
loop_
_atom_site_type_symbol
_atom_site_label
_atom_site_fract_x
_atom_site_fract_y
_atom_site_fract_z
Si Si1 0.744654 0.750000 0.946367
Si Si2 0.711398 0.750000 0.122241
Si Si3 0.500000 0.634191 0.291627
Si Si4 0.648682 0.002876 0.405213
Si Si5 0.000000 0.856725 0.022994
Si Si6 0.639099 0.001076 0.096909
O O1 0.736194 0.682676 0.891645
O O2 0.690426 0.750000 0.024123
O O3 0.819977 0.750000 0.982967
O O4 0.755252 0.681229 0.135612
O O5 0.653033 0.750000 0.191389
O O6 0.435273 0.680354 0.269233
O O7 0.500000 0.607551 0.386726
O O8 0.679500 0.073520 0.368701
O O9 0.664399 0.000000 0.500000
O O10 0.684237 0.934237 0.375000
O O11 0.687858 0.062143 0.125000
O O12 0.624824 0.000000 0.000000
#
# Coordination Sequence:
#
# PCOD8320918 Si02
#       6
#    16  16  16  32  16  32
#     4  12  24  38  62  93 121 167 215 267 314 375
#     4  12  24  38  58  93 126 163 212 257 307 384
#     4   9  20  38  61  87 128 163 204 246 320 397
#     4  11  23  40  61  91 126 167 207 262 322 386
#     4   9  20  39  59  89 127 169 196 251 317 393
#     4  11  23  44  66  91 124 166 214 272 325 383
#
# _framework density 20.705741
#
# number of rings (size 3 to 8) (size 9 to 14) (size 15 to 20)
#    0.000    1.250    0.000    9.000    3.500    0.000 
#    0.000    0.000    0.000    0.750    0.000    0.000 
#    0.000    0.000    0.000    0.000    0.000    0.000 
#
# Total GULP energy -793152.066242 kJ/mol
# GULP energy per Si atom -12393.001035 kJ/mol
# Density = 2.065861 g / cm^3
# Si number density = 20.705741 Si / 1000 Ang^3
#
#
#
# Elastic Constant Matrix: (Units=GPa)
#
#
# Indices 1 2 3 4 5 6 
#
# 1 -671.9704 862.9450 65.7648 0.0000 0.0000 0.0000
# 2 862.9450 -671.9991 65.7285 0.0000 0.0000 0.0000
# 3 65.7648 65.7285 205.9318 0.0000 0.0000 0.0000
# 4 0.0000 0.0000 0.0000 42.4590 0.0000 0.0000
# 5 0.0000 0.0000 0.0000 0.0000 42.4596 0.0000
# 6 0.0000 0.0000 0.0000 0.0000 0.0000 22.9954
#
#
#
# Elastic Compliance Matrix: (Units=1/GPa)
#
#
# Indices 1 2 3 4 5 6 
#
# 1 0.003030 0.003682 -0.002143 0.000000 0.000000 0.000000
# 2 0.003682 0.003030 -0.002143 0.000000 0.000000 0.000000
# 3 -0.002143 -0.002143 0.006224 0.000000 0.000000 0.000000
# 4 0.000000 0.000000 0.000000 0.023552 0.000000 0.000000
# 5 0.000000 0.000000 0.000000 0.000000 0.023552 0.000000
# 6 0.000000 0.000000 0.000000 0.000000 0.000000 0.043487
#
#
# Mechanical properties :
#
#
# Convention : Reuss Voigt Hill
#
# Bulk Modulus (GPa) = 90.27717 94.53766 92.40741
# Shear Modulus (GPa) = 46.39220 -120.58229 -37.09504
#
# Velocity S-wave (km/s) = 4.73858 -7.63954 -4.23724
# Velocity P-wave (km/s) = 8.58100 5.66215 4.55925
#
# Compressibility (1/GPa) = 0.01107700
#
# Stress axis : x y z
#
# Youngs Moduli (GPa) = 329.98513 329.98775 160.65926
#
# Poissons Ratio (x) = -1.21499 0.34429
# Poissons Ratio (y) = -1.21498 0.34430
# Poissons Ratio (z) = 0.70715 0.70719
#
# Static dielectric constant tensor:
#      x y z
#    x 3.725190 0.000000 0.000000 
#    y 0.000000 3.725210 0.000000 
#    z 0.000000 0.000000 4.057110 
# 
# 
# High freq. dielectric constant tensor:
#      x y z
#    x 1.815490 0.000000 0.000000 
#    y 0.000000 1.815490 0.000000 
#    z 0.000000 0.000000 1.825810 
# 
# From -- ./inp_files/6303.got.cif
#   From: 2010.03.12/outbox.cif.g09.slc.cpg/sg141_4_cif.got.tgz:6303.got - 2010.04.03 13:18:35.
