data_PCOD8320651
_publ_section_title
;
Structure prediction by ZEFSAII (Michael W. Deem and Ramdas Pophale) SiO2 
 PCOD8320651
Probable space group: I 41/A M D
;
_chemical_formula_sum "Si O2"
_cell_formula_units_Z 160
_cell_length_a 26.102073
_cell_length_b 26.102073
_cell_length_c 11.812233
_cell_angle_alpha 90.000000
_cell_angle_beta 90.000000
_cell_angle_gamma 90.000000
_cell_volume 8047.889502
_symmetry_space_group_name_H-M "I 41/A M D"
_symmetry_group_IT_number 141
_space_group.IT_coordinate_system_code '2'
_symmetry_cell_setting 'tetragonal'
loop_
_space_group_symop_operation_xyz
x,y,z
1/4-y,3/4+x,1/4+z
-x,1/2-y,z
1/4+y,1/4-x,3/4+z
x,-y,-z
-x,1/2+y,-z
1/4+y,3/4+x,1/4-z
1/4-y,1/4-x,3/4-z
-x,-y,-z
3/4+y,1/4-x,3/4-z
x,1/2+y,-z
3/4-y,3/4+x,1/4-z
-x,y,z
x,1/2-y,z
3/4-y,1/4-x,3/4+z
3/4+y,3/4+x,1/4+z
1/2+x,1/2+y,1/2+z
3/4-y,1/4+x,3/4+z
1/2-x,-y,1/2+z
3/4+y,3/4-x,1/4+z
1/2+x,1/2-y,1/2-z
1/2-x,y,1/2-z
3/4+y,1/4+x,3/4-z
3/4-y,3/4-x,1/4-z
1/2-x,1/2-y,1/2-z
1/4+y,3/4-x,1/4-z
1/2+x,y,1/2-z
1/4-y,1/4+x,3/4-z
1/2-x,1/2+y,1/2+z
1/2+x,-y,1/2+z
1/4-y,3/4-x,1/4+z
1/4+y,1/4+x,3/4+z
loop_
_atom_site_type_symbol
_atom_site_label
_atom_site_fract_x
_atom_site_fract_y
_atom_site_fract_z
Si Si1 0.625274 0.159740 0.802666
Si Si2 0.439885 0.529898 0.673752
Si Si3 0.836847 0.692989 0.075710
Si Si4 0.796885 0.310711 0.320896
Si Si5 0.941532 0.658377 0.505547
O O1 0.683708 0.154446 0.845821
O O2 0.598040 0.106204 0.767315
O O3 0.627925 0.193760 0.688578
O O4 0.591955 0.184909 0.905294
O O5 0.500000 0.543247 0.654748
O O6 0.428804 0.471219 0.641114
O O7 0.421649 0.540730 0.800701
O O8 0.838674 0.750000 0.021005
O O9 0.795322 0.250000 0.313980
O O10 0.750000 0.334762 0.250000
O O11 0.850761 0.330117 0.271187
O O12 0.937637 0.687637 0.625000
O O13 0.000000 0.659853 0.465421
#
# Coordination Sequence:
#
# PCOD8320651 Si02
#       5
#    32  32  32  32  32
#     4  11  21  35  58  85 114 152 195 242 291 357
#     4  10  19  35  59  85 113 147 191 246 302 352
#     4  10  22  38  58  86 117 151 195 251 305 353
#     4   9  17  31  54  81 109 141 183 237 295 344
#     4  11  22  36  53  79 116 156 194 235 283 346
#
# _framework density 19.880989
#
# number of rings (size 3 to 8) (size 9 to 14) (size 15 to 20)
#    0.000    1.800    2.000    3.000    0.000    5.800 
#    0.000    0.000    0.000   22.200    0.000   28.000 
#    0.000    0.000    0.000    0.000    0.000    0.000 
#
# Total GULP energy -991486.603383 kJ/mol
# GULP energy per Si atom -12393.582542 kJ/mol
# Density = 1.983574 g / cm^3
# Si number density = 19.880989 Si / 1000 Ang^3
#
#
#
# Elastic Constant Matrix: (Units=GPa)
#
#
# Indices 1 2 3 4 5 6 
#
# 1 85.3181 53.1879 34.6510 0.0000 0.0000 0.0000
# 2 53.1879 85.3181 34.6510 0.0000 0.0000 0.0000
# 3 34.6510 34.6510 119.6129 0.0000 0.0000 0.0000
# 4 0.0000 0.0000 0.0000 31.9769 0.0000 0.0000
# 5 0.0000 0.0000 0.0000 0.0000 31.9769 0.0000
# 6 0.0000 0.0000 0.0000 0.0000 0.0000 20.5578
#
#
#
# Elastic Compliance Matrix: (Units=1/GPa)
#
#
# Indices 1 2 3 4 5 6 
#
# 1 0.019784 -0.011340 -0.002446 0.000000 0.000000 0.000000
# 2 -0.011340 0.019784 -0.002446 0.000000 0.000000 0.000000
# 3 -0.002446 -0.002446 0.009778 0.000000 0.000000 0.000000
# 4 0.000000 0.000000 0.000000 0.031273 0.000000 0.000000
# 5 0.000000 0.000000 0.000000 0.000000 0.031273 0.000000
# 6 0.000000 0.000000 0.000000 0.000000 0.000000 0.048643
#
#
# Mechanical properties :
#
#
# Convention : Reuss Voigt Hill
#
# Bulk Modulus (GPa) = 59.23910 59.46986 59.35448
# Shear Modulus (GPa) = 25.17318 28.08627 26.62972
#
# Velocity S-wave (km/s) = 3.56222 3.76269 3.66383
# Velocity P-wave (km/s) = 6.83965 6.98964 6.91505
#
# Compressibility (1/GPa) = 0.01688074
#
# Stress axis : x y z
#
# Youngs Moduli (GPa) = 50.54698 50.54698 102.27521
#
# Poissons Ratio (x) = 0.57319 0.25018
# Poissons Ratio (y) = 0.57319 0.25018
# Poissons Ratio (z) = 0.12364 0.12364
#
# Static dielectric constant tensor:
#      x y z
#    x 3.484820 0.000000 0.000000 
#    y 0.000000 3.484820 0.000000 
#    z 0.000000 0.000000 3.871090 
# 
# 
# High freq. dielectric constant tensor:
#      x y z
#    x 1.745540 0.000000 0.000000 
#    y 0.000000 1.745540 0.000000 
#    z 0.000000 0.000000 1.801760 
# 
# From -- ./inp_files/4899.got.cif
#   From: 2010.03.12/outbox.cif.g09.slc.cpg/sg141_3_cif.got.tgz:4899.got - 2010.04.03 13:18:35.
