data_PCOD8320594
_publ_section_title
;
Structure prediction by ZEFSAII (Michael W. Deem and Ramdas Pophale) SiO2 
 PCOD8320594
Probable space group: I 41/A M D
;
_chemical_formula_sum "Si O2"
_cell_formula_units_Z 192
_cell_length_a 27.567022
_cell_length_b 27.567022
_cell_length_c 15.290547
_cell_angle_alpha 90.000000
_cell_angle_beta 90.000000
_cell_angle_gamma 90.000000
_cell_volume 11619.909020
_symmetry_space_group_name_H-M "I 41/A M D"
_symmetry_group_IT_number 141
_space_group.IT_coordinate_system_code '2'
_symmetry_cell_setting 'tetragonal'
loop_
_space_group_symop_operation_xyz
x,y,z
1/4-y,3/4+x,1/4+z
-x,1/2-y,z
1/4+y,1/4-x,3/4+z
x,-y,-z
-x,1/2+y,-z
1/4+y,3/4+x,1/4-z
1/4-y,1/4-x,3/4-z
-x,-y,-z
3/4+y,1/4-x,3/4-z
x,1/2+y,-z
3/4-y,3/4+x,1/4-z
-x,y,z
x,1/2-y,z
3/4-y,1/4-x,3/4+z
3/4+y,3/4+x,1/4+z
1/2+x,1/2+y,1/2+z
3/4-y,1/4+x,3/4+z
1/2-x,-y,1/2+z
3/4+y,3/4-x,1/4+z
1/2+x,1/2-y,1/2-z
1/2-x,y,1/2-z
3/4+y,1/4+x,3/4-z
3/4-y,3/4-x,1/4-z
1/2-x,1/2-y,1/2-z
1/4+y,3/4-x,1/4-z
1/2+x,y,1/2-z
1/4-y,1/4+x,3/4-z
1/2-x,1/2+y,1/2+z
1/2+x,-y,1/2+z
1/4-y,3/4-x,1/4+z
1/4+y,1/4+x,3/4+z
loop_
_atom_site_type_symbol
_atom_site_label
_atom_site_fract_x
_atom_site_fract_y
_atom_site_fract_z
Si Si1 0.088350 0.193860 0.126761
Si Si2 0.445421 0.352447 0.547125
Si Si3 0.192944 0.806061 0.826670
Si Si4 0.442552 0.400266 0.286018
Si Si5 0.443832 0.451625 0.457791
Si Si6 0.557625 0.547129 0.884060
O O1 0.077696 0.250000 0.154379
O O2 0.145988 0.185069 0.113771
O O3 0.070368 0.156721 0.201692
O O4 0.062635 0.182222 0.035932
O O5 0.500000 0.343577 0.579536
O O6 0.409409 0.340592 0.625000
O O7 0.436447 0.408444 0.526293
O O8 0.203719 0.750000 0.811233
O O9 0.184045 0.827086 0.728373
O O10 0.241120 0.826534 0.874535
O O11 0.500000 0.404221 0.288759
O O12 0.420974 0.433813 0.365119
O O13 0.420360 0.420395 0.194870
O O14 0.419122 0.500000 0.500000
O O15 0.500000 0.462983 0.441196
O O16 0.500000 0.551103 0.875760
#
# Coordination Sequence:
#
# PCOD8320594 Si02
#       6
#    32  32  32  32  32  32
#     4  10  19  29  41  60  87 119 150 181 217 260
#     4  10  20  31  43  61  86 121 158 189 219 258
#     4   8  15  27  43  61  80 107 139 178 226 265
#     4   9  17  27  41  61  85 117 148 177 214 258
#     4   8  15  28  43  59  81 110 143 183 230 265
#     4   8  14  27  44  60  79 105 141 181 226 269
#
# _framework density 16.523364999999998
#
# number of rings (size 3 to 8) (size 9 to 14) (size 15 to 20)
#    0.000    3.167    0.000    3.000    0.000    4.167 
#    0.000    5.000    0.000    1.000    0.000    9.333 
#    0.000    0.000  136.000    0.000    0.000    0.000 
#
# Total GULP energy -1189277.781886 kJ/mol
# GULP energy per Si atom -12388.310228 kJ/mol
# Density = 1.648576 g / cm^3
# Si number density = 16.523365 Si / 1000 Ang^3
#
#
#
# Elastic Constant Matrix: (Units=GPa)
#
#
# Indices 1 2 3 4 5 6 
#
# 1 68.9925 19.7657 34.0042 0.0000 0.0000 0.0000
# 2 19.7657 68.9904 34.0042 0.0000 0.0000 0.0000
# 3 34.0042 34.0042 80.7716 0.0000 0.0000 0.0000
# 4 0.0000 0.0000 0.0000 20.5202 0.0000 0.0000
# 5 0.0000 0.0000 0.0000 0.0000 20.5218 0.0000
# 6 0.0000 0.0000 0.0000 0.0000 0.0000 1.8218
#
#
#
# Elastic Compliance Matrix: (Units=1/GPa)
#
#
# Indices 1 2 3 4 5 6 
#
# 1 0.018473 -0.001841 -0.007002 0.000000 0.000000 0.000000
# 2 -0.001841 0.018473 -0.007002 0.000000 0.000000 0.000000
# 3 -0.007002 -0.007002 0.018276 0.000000 0.000000 0.000000
# 4 0.000000 0.000000 0.000000 0.048732 0.000000 0.000000
# 5 0.000000 0.000000 0.000000 0.000000 0.048729 0.000000
# 6 0.000000 0.000000 0.000000 0.000000 0.000000 0.548905
#
#
# Mechanical properties :
#
#
# Convention : Reuss Voigt Hill
#
# Bulk Modulus (GPa) = 42.49506 43.81142 43.15324
# Shear Modulus (GPa) = 6.74652 17.30479 12.02566
#
# Velocity S-wave (km/s) = 2.02284 3.23970 2.70070
# Velocity P-wave (km/s) = 5.58837 6.36919 5.99151
#
# Compressibility (1/GPa) = 0.02353215
#
# Stress axis : x y z
#
# Youngs Moduli (GPa) = 54.13373 54.13161 54.71656
#
# Poissons Ratio (x) = 0.09968 0.38311
# Poissons Ratio (y) = 0.09968 0.38312
# Poissons Ratio (z) = 0.37903 0.37903
#
# Static dielectric constant tensor:
#      x y z
#    x 2.979990 0.000000 0.000000 
#    y 0.000000 2.980000 0.000000 
#    z 0.000000 0.000000 3.295630 
# 
# 
# High freq. dielectric constant tensor:
#      x y z
#    x 1.606230 0.000000 0.000000 
#    y 0.000000 1.606230 0.000000 
#    z 0.000000 0.000000 1.636510 
# 
# From -- ./inp_files/6976.got.cif
#   From: 2010.03.12/outbox.cif.g09.slc.cpg/sg141_4_cif.got.tgz:6976.got - 2010.04.03 13:18:35.
