data_PCOD8320148
_publ_section_title
;
Structure prediction by ZEFSAII (Michael W. Deem and Ramdas Pophale) SiO2 
 PCOD8320148
Probable space group: I 4/M C M
;
_chemical_formula_sum "Si O2"
_cell_formula_units_Z 208
_cell_length_a 21.609598
_cell_length_b 21.609598
_cell_length_c 27.406624
_cell_angle_alpha 90.000000
_cell_angle_beta 90.000000
_cell_angle_gamma 90.000000
_cell_volume 12798.200725
_symmetry_space_group_name_H-M "I 4/M C M"
_symmetry_group_IT_number 140
_symmetry_cell_setting 'tetragonal'
loop_
_space_group_symop_operation_xyz
x,y,z
-y,x,z
-x,-y,z
y,-x,z
x,-y,1/2-z
-x,y,1/2-z
y,x,1/2-z
-y,-x,1/2-z
-x,-y,-z
y,-x,-z
x,y,-z
-y,x,-z
-x,y,1/2+z
x,-y,1/2+z
-y,-x,1/2+z
y,x,1/2+z
1/2+x,1/2+y,1/2+z
1/2-y,1/2+x,1/2+z
1/2-x,1/2-y,1/2+z
1/2+y,1/2-x,1/2+z
1/2+x,1/2-y,-z
1/2-x,1/2+y,-z
1/2+y,1/2+x,-z
1/2-y,1/2-x,-z
1/2-x,1/2-y,1/2-z
1/2+y,1/2-x,1/2-z
1/2+x,1/2+y,1/2-z
1/2-y,1/2+x,1/2-z
1/2-x,1/2+y,z
1/2+x,1/2-y,z
1/2-y,1/2-x,z
1/2+y,1/2+x,z
loop_
_atom_site_type_symbol
_atom_site_label
_atom_site_fract_x
_atom_site_fract_y
_atom_site_fract_z
Si Si1 0.222816 0.377328 0.867371
Si Si2 0.334082 0.004326 0.884894
Si Si3 0.448650 0.051350 0.444403
Si Si4 0.752487 0.152819 0.241620
Si Si5 0.561180 0.161795 0.718282
Si Si6 0.811410 0.207122 0.554097
Si Si7 0.711803 0.113606 0.557290
O O1 0.160648 0.339353 0.880273
O O2 0.208997 0.449372 0.866577
O O3 0.248754 0.359013 0.815472
O O4 0.275529 0.364584 0.907711
O O5 0.351888 0.045101 0.837894
O O6 0.292480 0.045904 0.920157
O O7 0.392277 0.977823 0.914356
O O8 0.428521 0.071480 0.500000
O O9 0.500000 0.000000 0.449637
O O10 0.823542 0.176459 0.250000
O O11 0.707396 0.207396 0.259148
O O12 0.730179 0.092011 0.272312
O O13 0.500000 0.154737 0.750000
O O14 0.609781 0.109781 0.736638
O O15 0.840950 0.201785 0.500000
O O16 0.758281 0.258281 0.553744
O O17 0.778816 0.142848 0.569926
O O18 0.703709 0.107906 0.500000
O O19 0.656541 0.156541 0.578516
#
# Coordination Sequence:
#
# PCOD8320148 Si02
#       7
#    32  32  16  32  32  32  32
#     4  10  19  33  48  68  99 128 165 213 250 303
#     4  12  22  34  49  72 100 138 176 210 253 291
#     4  11  24  38  50  68  99 144 194 224 239 277
#     4   9  19  35  53  71  92 124 167 213 264 307
#     4  11  23  36  51  72 102 138 175 210 248 297
#     4   8  16  30  49  70  91 121 163 210 263 310
#     4   9  18  33  50  70  96 128 171 216 254 298
#
# _framework density 16.252284
#
# number of rings (size 3 to 8) (size 9 to 14) (size 15 to 20)
#    0.000    2.077    2.308    2.769    3.231    2.615 
#    0.000    0.000    0.000    0.000    0.000    0.000 
#    0.000    0.923    1.231    3.385    0.308    0.000 
#
# Total GULP energy -1289076.690902 kJ/mol
# GULP energy per Si atom -12394.968182 kJ/mol
# Density = 1.621529 g / cm^3
# Si number density = 16.252284 Si / 1000 Ang^3
#
#
#
# Elastic Constant Matrix: (Units=GPa)
#
#
# Indices 1 2 3 4 5 6 
#
# 1 56.6373 48.4584 32.4174 0.0000 0.0000 0.0000
# 2 48.4584 56.6384 32.4176 0.0000 0.0000 0.0000
# 3 32.4174 32.4176 76.1367 0.0000 0.0000 0.0000
# 4 0.0000 0.0000 0.0000 22.8692 0.0000 0.0000
# 5 0.0000 0.0000 0.0000 0.0000 22.8688 0.0000
# 6 0.0000 0.0000 0.0000 0.0000 0.0000 28.2369
#
#
#
# Elastic Compliance Matrix: (Units=1/GPa)
#
#
# Indices 1 2 3 4 5 6 
#
# 1 0.067582 -0.054677 -0.005495 0.000000 0.000000 0.000000
# 2 -0.054677 0.067581 -0.005494 0.000000 0.000000 0.000000
# 3 -0.005495 -0.005494 0.017813 0.000000 0.000000 0.000000
# 4 0.000000 0.000000 0.000000 0.043727 0.000000 0.000000
# 5 0.000000 0.000000 0.000000 0.000000 0.043728 0.000000
# 6 0.000000 0.000000 0.000000 0.000000 0.000000 0.035415
#
#
# Mechanical properties :
#
#
# Convention : Reuss Voigt Hill
#
# Bulk Modulus (GPa) = 46.20133 46.22214 46.21174
# Shear Modulus (GPa) = 12.06586 19.86958 15.96772
#
# Velocity S-wave (km/s) = 2.72768 3.50032 3.13787
# Velocity P-wave (km/s) = 6.19755 6.69615 6.45167
#
# Compressibility (1/GPa) = 0.02164440
#
# Stress axis : x y z
#
# Youngs Moduli (GPa) = 14.79678 14.79711 56.13803
#
# Poissons Ratio (x) = 0.80906 0.30847
# Poissons Ratio (y) = 0.80904 0.30845
# Poissons Ratio (z) = 0.08130 0.08130
#
# Static dielectric constant tensor:
#      x y z
#    x 3.066870 0.000000 0.000000 
#    y 0.000000 3.066860 0.000000 
#    z 0.000000 0.000000 3.286860 
# 
# 
# High freq. dielectric constant tensor:
#      x y z
#    x 1.599110 0.000000 0.000000 
#    y 0.000000 1.599110 0.000000 
#    z 0.000000 0.000000 1.641860 
# 
# From -- ./inp_files/11741.got.cif
#   From: 2010.06.25/outbox.cif.g09.slc.cpg/sg140_6_cif.got.tgz:11741.got - 2010.06.28 10:53:23.
