data_PCOD8320997
_publ_section_title
;
Structure prediction by ZEFSAII (Michael W. Deem and Ramdas Pophale) SiO2 
 PCOD8320997
Probable space group: I 41/A C D
;
_chemical_formula_sum "Si O2"
_cell_formula_units_Z 128
_cell_length_a 18.349711
_cell_length_b 18.349711
_cell_length_c 18.252574
_cell_angle_alpha 90.000000
_cell_angle_beta 90.000000
_cell_angle_gamma 90.000000
_cell_volume 6145.858758
_symmetry_space_group_name_H-M "I 41/A C D"
_symmetry_group_IT_number 142
_space_group.IT_coordinate_system_code '2'
_symmetry_cell_setting 'tetragonal'
loop_
_space_group_symop_operation_xyz
x,y,z
1/4-y,3/4+x,1/4+z
-x,1/2-y,z
1/4+y,1/4-x,3/4+z
x,-y,1/2-z
1/2-x,y,-z
3/4+y,1/4+x,1/4-z
1/4-y,1/4-x,1/4-z
-x,-y,-z
3/4+y,1/4-x,3/4-z
x,1/2+y,-z
3/4-y,3/4+x,1/4-z
-x,y,1/2+z
1/2+x,-y,z
1/4-y,3/4-x,3/4+z
3/4+y,3/4+x,3/4+z
1/2+x,1/2+y,1/2+z
3/4-y,1/4+x,3/4+z
1/2-x,-y,1/2+z
3/4+y,3/4-x,1/4+z
1/2+x,1/2-y,-z
-x,1/2+y,1/2-z
1/4+y,3/4+x,3/4-z
3/4-y,3/4-x,3/4-z
1/2-x,1/2-y,1/2-z
1/4+y,3/4-x,1/4-z
1/2+x,y,1/2-z
1/4-y,1/4+x,3/4-z
1/2-x,1/2+y,z
x,1/2-y,1/2+z
3/4-y,1/4-x,1/4+z
1/4+y,1/4+x,1/4+z
loop_
_atom_site_type_symbol
_atom_site_label
_atom_site_fract_x
_atom_site_fract_y
_atom_site_fract_z
Si Si1 0.925703 0.796607 0.223901
Si Si2 0.343161 0.093161 0.875000
Si Si3 0.250000 0.130279 0.000000
Si Si4 0.196769 0.250771 0.181586
Si Si5 0.999748 0.076212 0.838023
O O1 0.876182 0.795330 0.297688
O O2 0.879921 0.766546 0.155601
O O3 0.000000 0.750000 0.233123
O O4 0.942467 0.882106 0.212831
O O5 0.422360 0.082061 0.908226
O O6 0.327958 0.036152 0.810137
O O7 0.312889 0.178335 0.038705
O O8 0.250000 0.250000 0.250000
O O9 0.247375 0.281332 0.114924
#
# Coordination Sequence:
#
# PCOD8320997 Si02
#       5
#    32  16  16  32  32
#     4  11  18  33  62  92 118 163 219 272 326 388
#     4  10  20  38  59  92 130 170 222 271 332 392
#     4  10  22  36  58  90 120 170 216 264 324 404
#     4   9  21  35  58  95 126 159 210 275 323 394
#     4  10  19  35  56  90 124 161 207 270 327 392
#
# _framework density 20.827031999999999
#
# number of rings (size 3 to 8) (size 9 to 14) (size 15 to 20)
#    0.000    2.000    2.500    1.500    3.500    0.000 
#    0.000   11.875    0.000   13.500   19.500    0.000 
#    0.000    0.000    0.000    0.000    0.000    0.000 
#
# Total GULP energy -792850.383483 kJ/mol
# GULP energy per Si atom -12388.287242 kJ/mol
# Density = 2.077963 g / cm^3
# Si number density = 20.827032 Si / 1000 Ang^3
#
#
#
# Elastic Constant Matrix: (Units=GPa)
#
#
# Indices 1 2 3 4 5 6 
#
# 1 124.6914 73.9606 63.9261 0.0000 0.0000 0.0000
# 2 73.9606 124.6914 63.9261 0.0000 0.0000 0.0000
# 3 63.9261 63.9261 103.3948 0.0000 0.0000 0.0000
# 4 0.0000 0.0000 0.0000 43.6063 0.0000 0.0000
# 5 0.0000 0.0000 0.0000 0.0000 43.6063 0.0000
# 6 0.0000 0.0000 0.0000 0.0000 0.0000 29.6804
#
#
#
# Elastic Compliance Matrix: (Units=1/GPa)
#
#
# Indices 1 2 3 4 5 6 
#
# 1 0.014036 -0.005675 -0.005169 0.000000 0.000000 0.000000
# 2 -0.005675 0.014036 -0.005169 0.000000 0.000000 0.000000
# 3 -0.005169 -0.005169 0.016064 0.000000 0.000000 0.000000
# 4 0.000000 0.000000 0.000000 0.022932 0.000000 0.000000
# 5 0.000000 0.000000 0.000000 0.000000 0.022932 0.000000
# 6 0.000000 0.000000 0.000000 0.000000 0.000000 0.033692
#
#
# Mechanical properties :
#
#
# Convention : Reuss Voigt Hill
#
# Bulk Modulus (GPa) = 82.58799 84.04482 83.31640
# Shear Modulus (GPa) = 31.29733 33.44292 32.37012
#
# Velocity S-wave (km/s) = 3.88071 4.01152 3.94666
# Velocity P-wave (km/s) = 7.73435 7.86751 7.80121
#
# Compressibility (1/GPa) = 0.01210830
#
# Stress axis : x y z
#
# Youngs Moduli (GPa) = 71.24343 71.24343 62.25197
#
# Poissons Ratio (x) = 0.40434 0.32180
# Poissons Ratio (y) = 0.40434 0.32180
# Poissons Ratio (z) = 0.36828 0.36828
#
# Static dielectric constant tensor:
#      x y z
#    x 3.913330 0.000000 0.000000 
#    y 0.000000 3.913330 0.000000 
#    z 0.000000 0.000000 4.303030 
# 
# 
# High freq. dielectric constant tensor:
#      x y z
#    x 1.798820 0.000000 0.000000 
#    y 0.000000 1.798820 0.000000 
#    z 0.000000 0.000000 1.830300 
# 
# From -- ./inp_files/8928.got.cif
#   From: 2010.03.12/outbox.cif.g09.slc.cpg/sg142_5_cif.got.tgz:8928.got - 2010.04.03 13:27:16.
