data_PCOD8320092
_publ_section_title
;
Structure prediction by ZEFSAII (Michael W. Deem and Ramdas Pophale) SiO2 
 PCOD8320092
Probable space group: I 4/M C M
;
_chemical_formula_sum "Si O2"
_cell_formula_units_Z 160
_cell_length_a 19.839831
_cell_length_b 19.839831
_cell_length_c 26.583153
_cell_angle_alpha 90.000000
_cell_angle_beta 90.000000
_cell_angle_gamma 90.000000
_cell_volume 10463.631286
_symmetry_space_group_name_H-M "I 4/M C M"
_symmetry_group_IT_number 140
_symmetry_cell_setting 'tetragonal'
loop_
_space_group_symop_operation_xyz
x,y,z
-y,x,z
-x,-y,z
y,-x,z
x,-y,1/2-z
-x,y,1/2-z
y,x,1/2-z
-y,-x,1/2-z
-x,-y,-z
y,-x,-z
x,y,-z
-y,x,-z
-x,y,1/2+z
x,-y,1/2+z
-y,-x,1/2+z
y,x,1/2+z
1/2+x,1/2+y,1/2+z
1/2-y,1/2+x,1/2+z
1/2-x,1/2-y,1/2+z
1/2+y,1/2-x,1/2+z
1/2+x,1/2-y,-z
1/2-x,1/2+y,-z
1/2+y,1/2+x,-z
1/2-y,1/2-x,-z
1/2-x,1/2-y,1/2-z
1/2+y,1/2-x,1/2-z
1/2+x,1/2+y,1/2-z
1/2-y,1/2+x,1/2-z
1/2-x,1/2+y,z
1/2+x,1/2-y,z
1/2-y,1/2-x,z
1/2+y,1/2+x,z
loop_
_atom_site_type_symbol
_atom_site_label
_atom_site_fract_x
_atom_site_fract_y
_atom_site_fract_z
Si Si1 0.072481 0.915634 0.194515
Si Si2 0.438009 0.323459 0.557177
Si Si3 0.569126 0.825642 0.441059
Si Si4 0.079959 0.836134 0.098807
Si Si5 0.918423 0.690704 0.440977
O O1 0.101659 0.898342 0.250000
O O2 0.103728 0.864183 0.153556
O O3 0.992809 0.907007 0.187184
O O4 0.463335 0.314423 0.500000
O O5 0.414056 0.250220 0.577837
O O6 0.501190 0.351133 0.589122
O O7 0.376907 0.375632 0.558583
O O8 0.580667 0.830237 0.500000
O O9 0.619451 0.880550 0.415068
O O10 0.491161 0.841407 0.427815
O O11 0.095009 0.757149 0.092277
O O12 0.914209 0.709242 0.500000
O O13 0.863014 0.636987 0.424783
#
# Coordination Sequence:
#
# PCOD8320092 Si02
#       5
#    32  32  32  32  32
#     4   9  17  30  46  65  86 112 152 193 224 257
#     4  10  19  27  38  60  90 124 155 182 215 260
#     4   8  15  28  43  59  81 112 153 193 220 251
#     4  11  18  29  43  61  89 121 151 187 218 265
#     4   9  18  30  43  63  91 121 152 184 223 272
#
# _framework density 15.291059000000001
#
# number of rings (size 3 to 8) (size 9 to 14) (size 15 to 20)
#    0.000    2.600    2.000    3.600    0.000    1.600 
#    0.000    5.000    0.000    0.600    0.000    0.000 
#    0.000    0.000    0.000    0.000    0.000    0.000 
#
# Total GULP energy -991263.588871 kJ/mol
# GULP energy per Si atom -12390.794861 kJ/mol
# Density = 1.525626 g / cm^3
# Si number density = 15.291059 Si / 1000 Ang^3
#
#
#
# Elastic Constant Matrix: (Units=GPa)
#
#
# Indices 1 2 3 4 5 6 
#
# 1 93.1876 62.3489 22.9312 0.0000 0.0000 0.0000
# 2 62.3489 93.1884 22.9313 0.0000 0.0000 0.0000
# 3 22.9312 22.9313 63.1315 0.0000 0.0000 0.0000
# 4 0.0000 0.0000 0.0000 13.0588 0.0000 0.0000
# 5 0.0000 0.0000 0.0000 0.0000 13.0587 0.0000
# 6 0.0000 0.0000 0.0000 0.0000 0.0000 31.5458
#
#
#
# Elastic Compliance Matrix: (Units=1/GPa)
#
#
# Indices 1 2 3 4 5 6 
#
# 1 0.019814 -0.012613 -0.002615 0.000000 0.000000 0.000000
# 2 -0.012613 0.019813 -0.002615 0.000000 0.000000 0.000000
# 3 -0.002615 -0.002615 0.017740 0.000000 0.000000 0.000000
# 4 0.000000 0.000000 0.000000 0.076577 0.000000 0.000000
# 5 0.000000 0.000000 0.000000 0.000000 0.076577 0.000000
# 6 0.000000 0.000000 0.000000 0.000000 0.000000 0.031700
#
#
# Mechanical properties :
#
#
# Convention : Reuss Voigt Hill
#
# Bulk Modulus (GPa) = 46.12704 51.77003 48.94854
# Shear Modulus (GPa) = 17.53556 20.95240 19.24398
#
# Velocity S-wave (km/s) = 3.39010 3.70569 3.55140
# Velocity P-wave (km/s) = 6.74946 7.22768 6.99266
#
# Compressibility (1/GPa) = 0.02167926
#
# Stress axis : x y z
#
# Youngs Moduli (GPa) = 50.47055 50.47101 56.36986
#
# Poissons Ratio (x) = 0.63659 0.14743
# Poissons Ratio (y) = 0.63658 0.14743
# Poissons Ratio (z) = 0.13200 0.13200
#
# Static dielectric constant tensor:
#      x y z
#    x 2.930670 0.000000 0.000000 
#    y 0.000000 2.930670 0.000000 
#    z 0.000000 0.000000 2.674640 
# 
# 
# High freq. dielectric constant tensor:
#      x y z
#    x 1.580140 0.000000 0.000000 
#    y 0.000000 1.580140 0.000000 
#    z 0.000000 0.000000 1.544260 
# 
# From -- ./inp_files/10523.got.cif
#   From: 2010.06.25/outbox.cif.g09.slc.cpg/sg140_6_cif.got.tgz:10523.got - 2010.06.28 10:53:23.
