data_PCOD8320466
_publ_section_title
;
Structure prediction by ZEFSAII (Michael W. Deem and Ramdas Pophale) SiO2 
 PCOD8320466
Probable space group: I 4/M C M
;
_chemical_formula_sum "Si O2"
_cell_formula_units_Z 176
_cell_length_a 19.254923
_cell_length_b 19.254923
_cell_length_c 30.579668
_cell_angle_alpha 90.000000
_cell_angle_beta 90.000000
_cell_angle_gamma 90.000000
_cell_volume 11337.474897
_symmetry_space_group_name_H-M "I 4/M C M"
_symmetry_group_IT_number 140
_symmetry_cell_setting 'tetragonal'
loop_
_space_group_symop_operation_xyz
x,y,z
-y,x,z
-x,-y,z
y,-x,z
x,-y,1/2-z
-x,y,1/2-z
y,x,1/2-z
-y,-x,1/2-z
-x,-y,-z
y,-x,-z
x,y,-z
-y,x,-z
-x,y,1/2+z
x,-y,1/2+z
-y,-x,1/2+z
y,x,1/2+z
1/2+x,1/2+y,1/2+z
1/2-y,1/2+x,1/2+z
1/2-x,1/2-y,1/2+z
1/2+y,1/2-x,1/2+z
1/2+x,1/2-y,-z
1/2-x,1/2+y,-z
1/2+y,1/2+x,-z
1/2-y,1/2-x,-z
1/2-x,1/2-y,1/2-z
1/2+y,1/2-x,1/2-z
1/2+x,1/2+y,1/2-z
1/2-y,1/2+x,1/2-z
1/2-x,1/2+y,z
1/2+x,1/2-y,z
1/2-y,1/2-x,z
1/2+y,1/2+x,z
loop_
_atom_site_type_symbol
_atom_site_label
_atom_site_fract_x
_atom_site_fract_y
_atom_site_fract_z
Si Si1 0.305509 0.082211 0.791459
Si Si2 0.682429 0.561843 0.868015
Si Si3 0.927032 0.312369 0.307775
Si Si4 0.580304 0.419696 0.750000
Si Si5 0.338315 0.415641 0.332171
Si Si6 0.976554 0.112352 0.549491
O O1 0.365772 0.134229 0.803752
O O2 0.281309 0.090577 0.740591
O O3 0.241860 0.100076 0.823214
O O4 0.336086 0.006760 0.803720
O O5 0.757350 0.581643 0.847563
O O6 0.649819 0.497367 0.840676
O O7 0.633503 0.630305 0.869651
O O8 0.679400 0.536418 0.918748
O O9 0.878390 0.378390 0.318320
O O10 0.598111 0.500000 0.750000
O O11 0.612711 0.383699 0.708077
O O12 0.970880 0.140058 0.500000
O O13 0.052524 0.080390 0.558247
#
# Coordination Sequence:
#
# PCOD8320466 Si02
#       6
#    32  32  32  16  32  32
#     4   9  19  34  48  64  90 122 159 200 236 274
#     4  11  19  29  45  65  96 124 156 196 229 272
#     4   9  19  33  49  68  89 118 157 200 243 280
#     4  11  20  26  35  56  88 128 163 184 208 263
#     4  11  20  28  41  63  91 127 160 188 226 265
#     4   9  17  29  46  68  94 124 160 196 229 271
#
# _framework density 15.523738
#
# number of rings (size 3 to 8) (size 9 to 14) (size 15 to 20)
#    0.000    2.091    3.636    1.636    2.545    1.455 
#    0.000    4.091    0.000    0.545    0.000    0.000 
#    0.000   11.636    0.000    6.545    0.000    0.364 
#
# Total GULP energy -1090156.612149 kJ/mol
# GULP energy per Si atom -12388.143320 kJ/mol
# Density = 1.548841 g / cm^3
# Si number density = 15.523738 Si / 1000 Ang^3
#
#
#
# Elastic Constant Matrix: (Units=GPa)
#
#
# Indices 1 2 3 4 5 6 
#
# 1 75.9896 51.7473 36.4111 0.0000 0.0000 0.0000
# 2 51.7473 75.9902 36.4111 0.0000 0.0000 0.0000
# 3 36.4111 36.4111 85.7995 0.0000 0.0000 0.0000
# 4 0.0000 0.0000 0.0000 17.4724 0.0000 0.0000
# 5 0.0000 0.0000 0.0000 0.0000 17.4723 0.0000
# 6 0.0000 0.0000 0.0000 0.0000 0.0000 25.3071
#
#
#
# Elastic Compliance Matrix: (Units=1/GPa)
#
#
# Indices 1 2 3 4 5 6 
#
# 1 0.025789 -0.015461 -0.004383 0.000000 0.000000 0.000000
# 2 -0.015461 0.025788 -0.004382 0.000000 0.000000 0.000000
# 3 -0.004383 -0.004382 0.015375 0.000000 0.000000 0.000000
# 4 0.000000 0.000000 0.000000 0.057233 0.000000 0.000000
# 5 0.000000 0.000000 0.000000 0.000000 0.057234 0.000000
# 6 0.000000 0.000000 0.000000 0.000000 0.000000 0.039515
#
#
# Mechanical properties :
#
#
# Convention : Reuss Voigt Hill
#
# Bulk Modulus (GPa) = 54.05787 54.10203 54.07995
# Shear Modulus (GPa) = 18.14541 19.59767 18.87154
#
# Velocity S-wave (km/s) = 3.42260 3.55693 3.49041
# Velocity P-wave (km/s) = 7.10755 7.19693 7.15238
#
# Compressibility (1/GPa) = 0.01849869
#
# Stress axis : x y z
#
# Youngs Moduli (GPa) = 38.77690 38.77735 65.04175
#
# Poissons Ratio (x) = 0.59955 0.28505
# Poissons Ratio (y) = 0.59954 0.28504
# Poissons Ratio (z) = 0.16994 0.16994
#
# Static dielectric constant tensor:
#      x y z
#    x 2.815720 0.000000 0.000000 
#    y 0.000000 2.815720 0.000000 
#    z 0.000000 0.000000 2.937340 
# 
# 
# High freq. dielectric constant tensor:
#      x y z
#    x 1.577960 0.000000 0.000000 
#    y 0.000000 1.577960 0.000000 
#    z 0.000000 0.000000 1.574640 
# 
# From -- ./inp_files/11507.got.cif
#   From: 2010.06.25/outbox.cif.g09.slc.cpg/sg140_6_cif.got.tgz:11507.got - 2010.06.28 10:53:23.
