data_PCOD8320268
_publ_section_title
;
Structure prediction by ZEFSAII (Michael W. Deem and Ramdas Pophale) SiO2 
 PCOD8320268
Probable space group: I 4/M C M
;
_chemical_formula_sum "Si O2"
_cell_formula_units_Z 96
_cell_length_a 13.625694
_cell_length_b 13.625694
_cell_length_c 27.073788
_cell_angle_alpha 90.000000
_cell_angle_beta 90.000000
_cell_angle_gamma 90.000000
_cell_volume 5026.506944
_symmetry_space_group_name_H-M "I 4/M C M"
_symmetry_group_IT_number 140
_symmetry_cell_setting 'tetragonal'
loop_
_space_group_symop_operation_xyz
x,y,z
-y,x,z
-x,-y,z
y,-x,z
x,-y,1/2-z
-x,y,1/2-z
y,x,1/2-z
-y,-x,1/2-z
-x,-y,-z
y,-x,-z
x,y,-z
-y,x,-z
-x,y,1/2+z
x,-y,1/2+z
-y,-x,1/2+z
y,x,1/2+z
1/2+x,1/2+y,1/2+z
1/2-y,1/2+x,1/2+z
1/2-x,1/2-y,1/2+z
1/2+y,1/2-x,1/2+z
1/2+x,1/2-y,-z
1/2-x,1/2+y,-z
1/2+y,1/2+x,-z
1/2-y,1/2-x,-z
1/2-x,1/2-y,1/2-z
1/2+y,1/2-x,1/2-z
1/2+x,1/2+y,1/2-z
1/2-y,1/2+x,1/2-z
1/2-x,1/2+y,z
1/2+x,1/2-y,z
1/2-y,1/2-x,z
1/2+y,1/2+x,z
loop_
_atom_site_type_symbol
_atom_site_label
_atom_site_fract_x
_atom_site_fract_y
_atom_site_fract_z
Si Si1 0.382838 0.273979 0.444670
Si Si2 0.743810 0.918177 0.101851
Si Si3 0.840649 0.504585 0.804181
O O1 0.364816 0.315292 0.500000
O O2 0.328974 0.171027 0.437102
O O3 0.341045 0.351705 0.404435
O O4 0.497001 0.251697 0.438486
O O5 0.646821 0.853180 0.091520
O O6 0.739535 0.970598 0.155538
O O7 0.789801 0.500000 0.750000
O O8 0.929827 0.429827 0.803666
O O9 0.886728 0.613273 0.815769
#
# Coordination Sequence:
#
# PCOD8320268 Si02
#       3
#    32  32  32
#     4  10  21  35  52  76 103 134 176 219 257 305
#     4  10  20  35  53  74 104 138 171 213 262 307
#     4   8  14  27  50  78 104 132 169 211 254 304
#
# _framework density 19.098749999999999
#
# number of rings (size 3 to 8) (size 9 to 14) (size 15 to 20)
#    0.000    2.667    0.000    3.000    0.000    4.667 
#    0.000    5.000    0.000    8.000    0.000    2.333 
#    0.000    0.000    0.000    0.000    0.000    0.000 
#
# Total GULP energy -594832.207939 kJ/mol
# GULP energy per Si atom -12392.337665 kJ/mol
# Density = 1.905528 g / cm^3
# Si number density = 19.098750 Si / 1000 Ang^3
#
#
#
# Elastic Constant Matrix: (Units=GPa)
#
#
# Indices 1 2 3 4 5 6 
#
# 1 86.7328 36.7118 40.2649 0.0000 0.0000 0.0000
# 2 36.7118 86.7328 40.2649 0.0000 0.0000 0.0000
# 3 40.2649 40.2649 98.5234 0.0000 0.0000 0.0000
# 4 0.0000 0.0000 0.0000 20.7346 0.0000 0.0000
# 5 0.0000 0.0000 0.0000 0.0000 20.7346 0.0000
# 6 0.0000 0.0000 0.0000 0.0000 0.0000 16.8706
#
#
#
# Elastic Compliance Matrix: (Units=1/GPa)
#
#
# Indices 1 2 3 4 5 6 
#
# 1 0.015519 -0.004473 -0.004514 0.000000 0.000000 0.000000
# 2 -0.004473 0.015519 -0.004514 0.000000 0.000000 0.000000
# 3 -0.004514 -0.004514 0.013840 0.000000 0.000000 0.000000
# 4 0.000000 0.000000 0.000000 0.048229 0.000000 0.000000
# 5 0.000000 0.000000 0.000000 0.000000 0.048229 0.000000
# 6 0.000000 0.000000 0.000000 0.000000 0.000000 0.059275
#
#
# Mechanical properties :
#
#
# Convention : Reuss Voigt Hill
#
# Bulk Modulus (GPa) = 55.94654 56.27469 56.11062
# Shear Modulus (GPa) = 21.40689 21.98443 21.69566
#
# Velocity S-wave (km/s) = 3.35155 3.39646 3.37408
# Velocity P-wave (km/s) = 6.65838 6.70152 6.67998
#
# Compressibility (1/GPa) = 0.01787421
#
# Stress axis : x y z
#
# Youngs Moduli (GPa) = 64.43868 64.43868 72.25628
#
# Poissons Ratio (x) = 0.28823 0.32618
# Poissons Ratio (y) = 0.28823 0.32618
# Poissons Ratio (z) = 0.29089 0.29089
#
# Static dielectric constant tensor:
#      x y z
#    x 3.279310 0.000000 0.000000 
#    y 0.000000 3.279310 0.000000 
#    z 0.000000 0.000000 3.884410 
# 
# 
# High freq. dielectric constant tensor:
#      x y z
#    x 1.719830 0.000000 0.000000 
#    y 0.000000 1.719830 0.000000 
#    z 0.000000 0.000000 1.746930 
# 
# From -- ./inp_files/11214.got.cif
#   From: 2010.06.25/outbox.cif.g09.slc.cpg/sg140_6_cif.got.tgz:11214.got - 2010.06.28 10:53:23.
