data_PCOD8320069
_publ_section_title
;
Structure prediction by ZEFSAII (Michael W. Deem and Ramdas Pophale) SiO2 
 PCOD8320069
Probable space group: I 4/M C M
;
_chemical_formula_sum "Si O2"
_cell_formula_units_Z 160
_cell_length_a 20.393891
_cell_length_b 20.393891
_cell_length_c 20.655100
_cell_angle_alpha 90.000000
_cell_angle_beta 90.000000
_cell_angle_gamma 90.000000
_cell_volume 8590.678961
_symmetry_space_group_name_H-M "I 4/M C M"
_symmetry_group_IT_number 140
_symmetry_cell_setting 'tetragonal'
loop_
_space_group_symop_operation_xyz
x,y,z
-y,x,z
-x,-y,z
y,-x,z
x,-y,1/2-z
-x,y,1/2-z
y,x,1/2-z
-y,-x,1/2-z
-x,-y,-z
y,-x,-z
x,y,-z
-y,x,-z
-x,y,1/2+z
x,-y,1/2+z
-y,-x,1/2+z
y,x,1/2+z
1/2+x,1/2+y,1/2+z
1/2-y,1/2+x,1/2+z
1/2-x,1/2-y,1/2+z
1/2+y,1/2-x,1/2+z
1/2+x,1/2-y,-z
1/2-x,1/2+y,-z
1/2+y,1/2+x,-z
1/2-y,1/2-x,-z
1/2-x,1/2-y,1/2-z
1/2+y,1/2-x,1/2-z
1/2+x,1/2+y,1/2-z
1/2-y,1/2+x,1/2-z
1/2-x,1/2+y,z
1/2+x,1/2-y,z
1/2-y,1/2-x,z
1/2+y,1/2+x,z
loop_
_atom_site_type_symbol
_atom_site_label
_atom_site_fract_x
_atom_site_fract_y
_atom_site_fract_z
Si Si1 0.231490 0.164088 0.924157
Si Si2 0.576799 0.576799 0.250000
Si Si3 0.156617 0.900246 0.123224
Si Si4 0.577847 0.426722 0.500000
Si Si5 0.499631 0.896832 0.423192
Si Si6 0.749908 0.511984 0.576609
O O1 0.296786 0.203215 0.902482
O O2 0.169079 0.194937 0.885059
O O3 0.238170 0.087551 0.906205
O O4 0.219820 0.173680 0.000000
O O5 0.500000 0.591188 0.250000
O O6 0.603721 0.614415 0.312020
O O7 0.202581 0.964029 0.117724
O O8 0.105286 0.895141 0.064495
O O9 0.592400 0.502784 0.500000
O O10 0.494927 0.895516 0.500000
O O11 0.434980 0.934980 0.396694
O O12 0.503879 0.822888 0.397847
O O13 0.564719 0.935282 0.400294
O O14 0.740528 0.497719 0.500000
#
# Coordination Sequence:
#
# PCOD8320069 Si02
#       6
#    32  16  32  16  32  32
#     4  10  20  34  53  79 111 142 177 225 284 342
#     4  11  24  40  57  78 108 148 189 234 286 337
#     4  12  22  36  55  80 109 144 189 236 281 337
#     4  11  20  32  53  78 104 133 175 232 284 328
#     4   8  14  25  43  71 107 144 181 223 275 335
#     4  10  18  30  50  76 107 145 184 228 280 340
#
# _framework density 18.624838
#
# number of rings (size 3 to 8) (size 9 to 14) (size 15 to 20)
#    0.000    1.800    2.000    4.800    0.000    4.800 
#    0.000    2.500    0.000    0.000    0.000    0.000 
#    0.000    0.000    0.000   16.200    0.000    4.400 
#
# Total GULP energy -991540.533762 kJ/mol
# GULP energy per Si atom -12394.256672 kJ/mol
# Density = 1.858245 g / cm^3
# Si number density = 18.624838 Si / 1000 Ang^3
#
#
#
# Elastic Constant Matrix: (Units=GPa)
#
#
# Indices 1 2 3 4 5 6 
#
# 1 133.5662 54.6351 39.3462 0.0000 0.0000 0.0000
# 2 54.6351 133.5662 39.3462 0.0000 0.0000 0.0000
# 3 39.3462 39.3462 82.7834 0.0000 0.0000 0.0000
# 4 0.0000 0.0000 0.0000 20.3528 0.0000 0.0000
# 5 0.0000 0.0000 0.0000 0.0000 20.3528 0.0000
# 6 0.0000 0.0000 0.0000 0.0000 0.0000 30.7840
#
#
#
# Elastic Compliance Matrix: (Units=1/GPa)
#
#
# Indices 1 2 3 4 5 6 
#
# 1 0.009650 -0.003019 -0.003152 0.000000 0.000000 0.000000
# 2 -0.003019 0.009650 -0.003152 0.000000 0.000000 0.000000
# 3 -0.003152 -0.003152 0.015076 0.000000 0.000000 0.000000
# 4 0.000000 0.000000 0.000000 0.049133 0.000000 0.000000
# 5 0.000000 0.000000 0.000000 0.000000 0.049133 0.000000
# 6 0.000000 0.000000 0.000000 0.000000 0.000000 0.032484
#
#
# Mechanical properties :
#
#
# Convention : Reuss Voigt Hill
#
# Bulk Modulus (GPa) = 63.56801 68.50787 66.03794
# Shear Modulus (GPa) = 26.45277 28.73715 27.59496
#
# Velocity S-wave (km/s) = 3.77277 3.93230 3.85336
# Velocity P-wave (km/s) = 7.29268 7.58157 7.43853
#
# Compressibility (1/GPa) = 0.01573118
#
# Stress axis : x y z
#
# Youngs Moduli (GPa) = 103.62369 103.62369 66.33160
#
# Poissons Ratio (x) = 0.31284 0.20906
# Poissons Ratio (y) = 0.31284 0.20906
# Poissons Ratio (z) = 0.32660 0.32660
#
# Static dielectric constant tensor:
#      x y z
#    x 3.736120 0.000000 0.000000 
#    y 0.000000 3.736120 0.000000 
#    z 0.000000 0.000000 2.933170 
# 
# 
# High freq. dielectric constant tensor:
#      x y z
#    x 1.734930 0.000000 0.000000 
#    y 0.000000 1.734930 0.000000 
#    z 0.000000 0.000000 1.660110 
# 
# From -- ./inp_files/6885.got.cif
#   From: 2010.06.25/outbox.cif.g09.slc.cpg/sg140_4_cif.got.tgz:6885.got - 2010.06.28 10:53:23.
