data_PCOD8320860
_publ_section_title
;
Structure prediction by ZEFSAII (Michael W. Deem and Ramdas Pophale) SiO2 
 PCOD8320860
Probable space group: I 41/A M D
;
_chemical_formula_sum "Si O2"
_cell_formula_units_Z 176
_cell_length_a 17.920392
_cell_length_b 17.920392
_cell_length_c 27.630812
_cell_angle_alpha 90.000000
_cell_angle_beta 90.000000
_cell_angle_gamma 90.000000
_cell_volume 8873.371384
_symmetry_space_group_name_H-M "I 41/A M D"
_symmetry_group_IT_number 141
_space_group.IT_coordinate_system_code '2'
_symmetry_cell_setting 'tetragonal'
loop_
_space_group_symop_operation_xyz
x,y,z
1/4-y,3/4+x,1/4+z
-x,1/2-y,z
1/4+y,1/4-x,3/4+z
x,-y,-z
-x,1/2+y,-z
1/4+y,3/4+x,1/4-z
1/4-y,1/4-x,3/4-z
-x,-y,-z
3/4+y,1/4-x,3/4-z
x,1/2+y,-z
3/4-y,3/4+x,1/4-z
-x,y,z
x,1/2-y,z
3/4-y,1/4-x,3/4+z
3/4+y,3/4+x,1/4+z
1/2+x,1/2+y,1/2+z
3/4-y,1/4+x,3/4+z
1/2-x,-y,1/2+z
3/4+y,3/4-x,1/4+z
1/2+x,1/2-y,1/2-z
1/2-x,y,1/2-z
3/4+y,1/4+x,3/4-z
3/4-y,3/4-x,1/4-z
1/2-x,1/2-y,1/2-z
1/4+y,3/4-x,1/4-z
1/2+x,y,1/2-z
1/4-y,1/4+x,3/4-z
1/2-x,1/2+y,1/2+z
1/2+x,-y,1/2+z
1/4-y,3/4-x,1/4+z
1/4+y,1/4+x,3/4+z
loop_
_atom_site_type_symbol
_atom_site_label
_atom_site_fract_x
_atom_site_fract_y
_atom_site_fract_z
Si Si1 0.640616 0.088518 0.383404
Si Si2 0.282677 0.928677 0.029607
Si Si3 0.318125 0.376141 0.673615
Si Si4 0.584108 0.165893 0.125000
Si Si5 0.585486 0.025053 0.189212
Si Si6 0.000000 0.835093 0.914920
Si Si7 0.000000 0.841009 0.023375
O O1 0.713693 0.113019 0.413183
O O2 0.574406 0.147829 0.384708
O O3 0.665105 0.081089 0.327638
O O4 0.602345 0.014841 0.406843
O O5 0.198871 0.944888 0.044826
O O6 0.283207 0.856054 0.995527
O O7 0.314376 0.000000 0.000000
O O8 0.363828 0.386173 0.625000
O O9 0.368770 0.320748 0.703799
O O10 0.594193 0.250000 0.146001
O O11 0.599039 0.106750 0.167151
O O12 0.500000 0.999069 0.184798
O O13 0.000000 0.750000 0.926435
O O14 0.000000 0.870124 0.968426
O O15 0.000000 0.750000 0.030860
#
# Coordination Sequence:
#
# PCOD8320860 Si02
#       7
#    32  32  32  16  32  16  16
#     4  11  23  41  64  93 130 168 216 264 321 382
#     4  11  22  39  65  94 124 162 213 263 319 387
#     4  10  23  38  59  91 121 165 207 269 318 365
#     4   9  20  40  64  92 124 160 205 266 328 386
#     4  11  22  38  66  93 124 166 213 263 320 387
#     4  11  25  43  61  89 131 175 213 259 316 382
#     4  11  25  41  63  89 127 175 221 263 318 381
#
# _framework density 19.834624999999999
#
# number of rings (size 3 to 8) (size 9 to 14) (size 15 to 20)
#    0.000    1.364    1.818    3.273    3.818    2.909 
#    0.000    1.818    0.000    4.909    0.000    0.000 
#    0.000    0.000    0.000    0.000    0.000    0.000 
#
# Total GULP energy -1090838.006463 kJ/mol
# GULP energy per Si atom -12395.886437 kJ/mol
# Density = 1.978948 g / cm^3
# Si number density = 19.834625 Si / 1000 Ang^3
#
#
#
# Elastic Constant Matrix: (Units=GPa)
#
#
# Indices 1 2 3 4 5 6 
#
# 1 76.8185 42.0400 52.7323 0.0000 0.0000 0.0000
# 2 42.0400 76.8195 52.7319 0.0000 0.0000 0.0000
# 3 52.7323 52.7319 138.2924 0.0000 0.0000 0.0000
# 4 0.0000 0.0000 0.0000 18.2384 0.0000 0.0000
# 5 0.0000 0.0000 0.0000 0.0000 18.2397 0.0000
# 6 0.0000 0.0000 0.0000 0.0000 0.0000 26.0948
#
#
#
# Elastic Compliance Matrix: (Units=1/GPa)
#
#
# Indices 1 2 3 4 5 6 
#
# 1 0.020734 -0.008019 -0.004849 0.000000 0.000000 0.000000
# 2 -0.008019 0.020734 -0.004848 0.000000 0.000000 0.000000
# 3 -0.004849 -0.004848 0.010929 0.000000 0.000000 0.000000
# 4 0.000000 0.000000 0.000000 0.054829 0.000000 0.000000
# 5 0.000000 0.000000 0.000000 0.000000 0.054825 0.000000
# 6 0.000000 0.000000 0.000000 0.000000 0.000000 0.038322
#
#
# Mechanical properties :
#
#
# Convention : Reuss Voigt Hill
#
# Bulk Modulus (GPa) = 58.94329 65.21541 62.07935
# Shear Modulus (GPa) = 20.70733 22.14300 21.42516
#
# Velocity S-wave (km/s) = 3.23460 3.34485 3.29019
# Velocity P-wave (km/s) = 6.61302 6.91870 6.76759
#
# Compressibility (1/GPa) = 0.01696546
#
# Stress axis : x y z
#
# Youngs Moduli (GPa) = 48.22888 48.23009 91.50295
#
# Poissons Ratio (x) = 0.38675 0.44367
# Poissons Ratio (y) = 0.38674 0.44364
# Poissons Ratio (z) = 0.23385 0.23384
#
# Static dielectric constant tensor:
#      x y z
#    x 3.669600 0.000000 0.000000 
#    y 0.000000 3.669620 0.000000 
#    z 0.000000 0.000000 3.853740 
# 
# 
# High freq. dielectric constant tensor:
#      x y z
#    x 1.776870 0.000000 0.000000 
#    y 0.000000 1.776870 0.000000 
#    z 0.000000 0.000000 1.779890 
# 
# From -- ./inp_files/12936.got.cif
#   From: 2010.03.12/outbox.cif.g09.slc.cpg/sg141_7_cif.got.tgz:12936.got - 2010.04.03 13:18:35.
