data_PCOD8320698
_publ_section_title
;
Structure prediction by ZEFSAII (Michael W. Deem and Ramdas Pophale) SiO2 
 PCOD8320698
Probable space group: I 41/A M D
;
_chemical_formula_sum "Si O2"
_cell_formula_units_Z 192
_cell_length_a 16.806984
_cell_length_b 16.806984
_cell_length_c 34.061426
_cell_angle_alpha 90.000000
_cell_angle_beta 90.000000
_cell_angle_gamma 90.000000
_cell_volume 9621.491472
_symmetry_space_group_name_H-M "I 41/A M D"
_symmetry_group_IT_number 141
_space_group.IT_coordinate_system_code '2'
_symmetry_cell_setting 'tetragonal'
loop_
_space_group_symop_operation_xyz
x,y,z
1/4-y,3/4+x,1/4+z
-x,1/2-y,z
1/4+y,1/4-x,3/4+z
x,-y,-z
-x,1/2+y,-z
1/4+y,3/4+x,1/4-z
1/4-y,1/4-x,3/4-z
-x,-y,-z
3/4+y,1/4-x,3/4-z
x,1/2+y,-z
3/4-y,3/4+x,1/4-z
-x,y,z
x,1/2-y,z
3/4-y,1/4-x,3/4+z
3/4+y,3/4+x,1/4+z
1/2+x,1/2+y,1/2+z
3/4-y,1/4+x,3/4+z
1/2-x,-y,1/2+z
3/4+y,3/4-x,1/4+z
1/2+x,1/2-y,1/2-z
1/2-x,y,1/2-z
3/4+y,1/4+x,3/4-z
3/4-y,3/4-x,1/4-z
1/2-x,1/2-y,1/2-z
1/4+y,3/4-x,1/4-z
1/2+x,y,1/2-z
1/4-y,1/4+x,3/4-z
1/2-x,1/2+y,1/2+z
1/2+x,-y,1/2+z
1/4-y,3/4-x,1/4+z
1/4+y,1/4+x,3/4+z
loop_
_atom_site_type_symbol
_atom_site_label
_atom_site_fract_x
_atom_site_fract_y
_atom_site_fract_z
Si Si1 0.824319 0.910592 0.985576
Si Si2 0.845181 0.493030 0.347482
Si Si3 0.673183 0.341445 0.977363
Si Si4 0.336586 0.250000 0.768904
Si Si5 0.354182 0.661955 0.654974
Si Si6 0.000000 0.842866 0.899238
Si Si7 0.593216 0.160318 0.192896
O O1 0.764258 0.855517 0.009823
O O2 0.802027 0.911633 0.939427
O O3 0.914059 0.875133 0.993264
O O4 0.817283 0.000000 0.000000
O O5 0.765066 0.484935 0.375000
O O6 0.911109 0.526241 0.377689
O O7 0.865358 0.402750 0.335433
O O8 0.663442 0.250000 0.964546
O O9 0.649529 0.398894 0.941368
O O10 0.613458 0.362601 0.012481
O O11 0.250000 0.250000 0.750000
O O12 0.342540 0.250000 0.815892
O O13 0.366701 0.750000 0.672430
O O14 0.425028 0.636565 0.626870
O O15 0.000000 0.750000 0.913895
O O16 0.500000 0.156049 0.184795
O O17 0.625334 0.250000 0.185262
#
# Coordination Sequence:
#
# PCOD8320698 Si02
#       7
#    32  32  32  16  32  16  32
#     4  10  21  38  57  81 114 152 196 236 289 349
#     4  11  22  35  54  79 113 150 193 242 291 341
#     4  10  20  35  57  85 116 150 193 238 295 353
#     4  10  20  38  62  84 118 156 192 238 294 354
#     4  11  21  35  57  86 120 151 191 243 302 351
#     4  10  20  34  58  90 118 146 186 244 298 352
#     4   9  19  35  53  74 106 151 197 234 274 333
#
# _framework density 19.955325999999999
#
# number of rings (size 3 to 8) (size 9 to 14) (size 15 to 20)
#    0.000    1.833    2.500    2.000    0.000    3.333 
#    0.000    0.833    0.000    5.500    0.000    0.000 
#    2.500    0.000    0.000    0.000    0.000    0.000 
#
# Total GULP energy -1189299.087224 kJ/mol
# GULP energy per Si atom -12388.532159 kJ/mol
# Density = 1.990991 g / cm^3
# Si number density = 19.955326 Si / 1000 Ang^3
#
#
#
# Elastic Constant Matrix: (Units=GPa)
#
#
# Indices 1 2 3 4 5 6 
#
# 1 103.5256 23.4255 52.9766 0.0000 0.0000 0.0000
# 2 23.4255 103.5249 52.9766 0.0000 0.0000 0.0000
# 3 52.9766 52.9766 123.8781 0.0000 0.0000 0.0000
# 4 0.0000 0.0000 0.0000 -0.3262 0.0000 0.0000
# 5 0.0000 0.0000 0.0000 0.0000 -0.3066 0.0000
# 6 0.0000 0.0000 0.0000 0.0000 0.0000 24.6005
#
#
#
# Elastic Compliance Matrix: (Units=1/GPa)
#
#
# Indices 1 2 3 4 5 6 
#
# 1 0.012367 -0.000118 -0.005238 0.000000 0.000000 0.000000
# 2 -0.000118 0.012367 -0.005238 0.000000 0.000000 0.000000
# 3 -0.005238 -0.005238 0.012553 0.000000 0.000000 0.000000
# 4 0.000000 0.000000 0.000000 -3.065961 0.000000 0.000000
# 5 0.000000 0.000000 0.000000 0.000000 -3.262106 0.000000
# 6 0.000000 0.000000 0.000000 0.000000 0.000000 0.040650
#
#
# Mechanical properties :
#
#
# Convention : Reuss Voigt Hill
#
# Bulk Modulus (GPa) = 62.12129 65.52067 63.82098
# Shear Modulus (GPa) = -0.80340 18.23022 8.71341
#
# Velocity S-wave (km/s) = -0.63519 3.02578 2.09187
# Velocity P-wave (km/s) = 5.53713 6.71655 6.15516
#
# Compressibility (1/GPa) = 0.01609754
#
# Stress axis : x y z
#
# Youngs Moduli (GPa) = 80.86270 80.86215 79.66381
#
# Poissons Ratio (x) = 0.00952 0.41730
# Poissons Ratio (y) = 0.00952 0.41730
# Poissons Ratio (z) = 0.42358 0.42358
#
# Static dielectric constant tensor:
#      x y z
#    x 3.804400 0.000000 0.000000 
#    y 0.000000 3.804410 0.000000 
#    z 0.000000 0.000000 3.714900 
# 
# 
# High freq. dielectric constant tensor:
#      x y z
#    x 1.771850 0.000000 0.000000 
#    y 0.000000 1.771850 0.000000 
#    z 0.000000 0.000000 1.785390 
# 
# From -- ./inp_files/14469.got.cif
#   From: 2010.03.12/outbox.cif.g09.slc.cpg/sg141_8_cif.got.tgz:14469.got - 2010.04.03 13:18:35.
