data_PCOD8320323
_publ_section_title
;
Structure prediction by ZEFSAII (Michael W. Deem and Ramdas Pophale) SiO2 
 PCOD8320323
Probable space group: I 4/M C M
;
_chemical_formula_sum "Si O2"
_cell_formula_units_Z 128
_cell_length_a 26.554050
_cell_length_b 26.554050
_cell_length_c 9.707823
_cell_angle_alpha 90.000000
_cell_angle_beta 90.000000
_cell_angle_gamma 90.000000
_cell_volume 6845.156577
_symmetry_space_group_name_H-M "I 4/M C M"
_symmetry_group_IT_number 140
_symmetry_cell_setting 'tetragonal'
loop_
_space_group_symop_operation_xyz
x,y,z
-y,x,z
-x,-y,z
y,-x,z
x,-y,1/2-z
-x,y,1/2-z
y,x,1/2-z
-y,-x,1/2-z
-x,-y,-z
y,-x,-z
x,y,-z
-y,x,-z
-x,y,1/2+z
x,-y,1/2+z
-y,-x,1/2+z
y,x,1/2+z
1/2+x,1/2+y,1/2+z
1/2-y,1/2+x,1/2+z
1/2-x,1/2-y,1/2+z
1/2+y,1/2-x,1/2+z
1/2+x,1/2-y,-z
1/2-x,1/2+y,-z
1/2+y,1/2+x,-z
1/2-y,1/2-x,-z
1/2-x,1/2-y,1/2-z
1/2+y,1/2-x,1/2-z
1/2+x,1/2+y,1/2-z
1/2-y,1/2+x,1/2-z
1/2-x,1/2+y,z
1/2+x,1/2-y,z
1/2-y,1/2-x,z
1/2+y,1/2+x,z
loop_
_atom_site_type_symbol
_atom_site_label
_atom_site_fract_x
_atom_site_fract_y
_atom_site_fract_z
Si Si1 0.630745 0.952998 0.841445
Si Si2 0.198108 0.384765 0.160754
Si Si3 0.556952 0.638868 0.500000
Si Si4 0.107446 0.809941 0.744112
Si Si5 0.856052 0.940459 0.000000
O O1 0.584092 0.915909 0.845846
O O2 0.677080 0.928721 0.758405
O O3 0.613089 0.000000 0.750000
O O4 0.646144 0.967021 0.000000
O O5 0.166150 0.333851 0.179299
O O6 0.253489 0.374034 0.218020
O O7 0.198099 0.401599 0.000000
O O8 0.569184 0.673133 0.371680
O O9 0.590573 0.588439 0.500000
O O10 0.498087 0.626013 0.500000
O O11 0.158449 0.841552 0.750000
O O12 0.073999 0.818919 0.877480
#
# Coordination Sequence:
#
# PCOD8320323 Si02
#       5
#    32  32  16  32  16
#     4  10  22  39  59  86 118 152 194 240 287 343
#     4  10  21  39  60  83 116 154 193 241 293 346
#     4  10  20  39  55  83 115 149 196 240 288 348
#     4  10  21  38  58  83 115 150 190 237 288 345
#     4  10  22  35  59  83 115 153 190 240 292 344
#
# _framework density 18.699354
#
# number of rings (size 3 to 8) (size 9 to 14) (size 15 to 20)
#    0.000    2.000    1.250    1.500    1.750    4.500 
#    0.000    1.250    0.000    4.500    0.000    0.000 
#    0.000    0.000    0.000    0.000    0.000    0.000 
#
# Total GULP energy -793299.069590 kJ/mol
# GULP energy per Si atom -12395.297962 kJ/mol
# Density = 1.865679 g / cm^3
# Si number density = 18.699354 Si / 1000 Ang^3
#
#
#
# Elastic Constant Matrix: (Units=GPa)
#
#
# Indices 1 2 3 4 5 6 
#
# 1 105.0504 17.3993 50.1162 0.0000 0.0000 0.0000
# 2 17.3993 105.0505 50.1161 0.0000 0.0000 0.0000
# 3 50.1162 50.1161 173.2264 0.0000 0.0000 0.0000
# 4 0.0000 0.0000 0.0000 38.3913 0.0000 0.0000
# 5 0.0000 0.0000 0.0000 0.0000 38.3955 0.0000
# 6 0.0000 0.0000 0.0000 0.0000 0.0000 9.6233
#
#
#
# Elastic Compliance Matrix: (Units=1/GPa)
#
#
# Indices 1 2 3 4 5 6 
#
# 1 0.011055 -0.000354 -0.003096 0.000000 0.000000 0.000000
# 2 -0.000354 0.011055 -0.003096 0.000000 0.000000 0.000000
# 3 -0.003096 -0.003096 0.007564 0.000000 0.000000 0.000000
# 4 0.000000 0.000000 0.000000 0.026048 0.000000 0.000000
# 5 0.000000 0.000000 0.000000 0.000000 0.026045 0.000000
# 6 0.000000 0.000000 0.000000 0.000000 0.000000 0.103915
#
#
# Mechanical properties :
#
#
# Convention : Reuss Voigt Hill
#
# Bulk Modulus (GPa) = 60.30548 68.73229 64.51889
# Shear Modulus (GPa) = 24.47387 34.99508 29.73447
#
# Velocity S-wave (km/s) = 3.62167 4.33073 3.99197
# Velocity P-wave (km/s) = 7.05753 7.86405 7.47168
#
# Compressibility (1/GPa) = 0.01658224
#
# Stress axis : x y z
#
# Youngs Moduli (GPa) = 90.45838 90.45860 132.20345
#
# Poissons Ratio (x) = 0.03203 0.40928
# Poissons Ratio (y) = 0.03203 0.40928
# Poissons Ratio (z) = 0.28004 0.28004
#
# Static dielectric constant tensor:
#      x y z
#    x 3.323580 0.000000 0.000000 
#    y 0.000000 3.323570 0.000000 
#    z 0.000000 0.000000 3.820710 
# 
# 
# High freq. dielectric constant tensor:
#      x y z
#    x 1.721820 0.000000 0.000000 
#    y 0.000000 1.721820 0.000000 
#    z 0.000000 0.000000 1.751240 
# 
# From -- ./inp_files/1497.got.cif
#   From: 2010.06.25/outbox.cif.g09.slc.cpg/sg140_1_cif.got.tgz:1497.got - 2010.06.28 10:53:23.
