data_PCOD8320657
_publ_section_title
;
Structure prediction by ZEFSAII (Michael W. Deem and Ramdas Pophale) SiO2 
 PCOD8320657
Probable space group: I 41/A M D
;
_chemical_formula_sum "Si O2"
_cell_formula_units_Z 192
_cell_length_a 17.479627
_cell_length_b 17.479627
_cell_length_c 30.538203
_cell_angle_alpha 90.000000
_cell_angle_beta 90.000000
_cell_angle_gamma 90.000000
_cell_volume 9330.561926
_symmetry_space_group_name_H-M "I 41/A M D"
_symmetry_group_IT_number 141
_space_group.IT_coordinate_system_code '2'
_symmetry_cell_setting 'tetragonal'
loop_
_space_group_symop_operation_xyz
x,y,z
1/4-y,3/4+x,1/4+z
-x,1/2-y,z
1/4+y,1/4-x,3/4+z
x,-y,-z
-x,1/2+y,-z
1/4+y,3/4+x,1/4-z
1/4-y,1/4-x,3/4-z
-x,-y,-z
3/4+y,1/4-x,3/4-z
x,1/2+y,-z
3/4-y,3/4+x,1/4-z
-x,y,z
x,1/2-y,z
3/4-y,1/4-x,3/4+z
3/4+y,3/4+x,1/4+z
1/2+x,1/2+y,1/2+z
3/4-y,1/4+x,3/4+z
1/2-x,-y,1/2+z
3/4+y,3/4-x,1/4+z
1/2+x,1/2-y,1/2-z
1/2-x,y,1/2-z
3/4+y,1/4+x,3/4-z
3/4-y,3/4-x,1/4-z
1/2-x,1/2-y,1/2-z
1/4+y,3/4-x,1/4-z
1/2+x,y,1/2-z
1/4-y,1/4+x,3/4-z
1/2-x,1/2+y,1/2+z
1/2+x,-y,1/2+z
1/4-y,3/4-x,1/4+z
1/4+y,1/4+x,3/4+z
loop_
_atom_site_type_symbol
_atom_site_label
_atom_site_fract_x
_atom_site_fract_y
_atom_site_fract_z
Si Si1 0.415142 0.589909 0.628198
Si Si2 0.131295 0.949374 0.962930
Si Si3 0.250299 0.337858 0.011218
Si Si4 0.775954 0.450169 0.562663
Si Si5 0.638950 0.898724 0.925233
Si Si6 0.910066 0.750000 0.833044
Si Si7 0.661228 0.250000 0.237723
O O1 0.500000 0.578475 0.648114
O O2 0.422948 0.578031 0.576028
O O3 0.356939 0.524717 0.645691
O O4 0.381730 0.673719 0.641258
O O5 0.164796 0.871713 0.984536
O O6 0.197896 0.004848 0.944592
O O7 0.087086 0.000000 0.000000
O O8 0.247407 0.250000 0.995073
O O9 0.291439 0.345158 0.058185
O O10 0.296658 0.394187 0.978081
O O11 0.842645 0.511088 0.571185
O O12 0.623965 0.873965 0.875000
O O13 0.569293 0.883652 0.957467
O O14 0.884115 0.750000 0.783040
O O15 0.000000 0.750000 0.834112
O O16 0.750000 0.250000 0.250000
#
# Coordination Sequence:
#
# PCOD8320657 Si02
#       7
#    32  32  32  32  32  16  16
#     4  11  21  35  58  82 113 147 191 237 288 354
#     4   9  20  36  56  84 117 144 178 237 295 348
#     4  10  20  34  58  80 107 148 193 233 289 356
#     4  10  19  37  56  82 111 144 190 245 295 340
#     4  11  23  37  55  79 113 149 195 250 305 354
#     4  10  24  40  54  82 112 156 198 240 290 344
#     4  12  24  38  58  80 110 152 202 246 300 368
#
# _framework density 20.577539000000002
#
# number of rings (size 3 to 8) (size 9 to 14) (size 15 to 20)
#    0.000    1.667    0.000    7.500    2.333    2.333 
#    0.000    0.000    0.000    0.000    0.000    0.000 
#    0.000    7.667    0.000    0.000    0.000    0.000 
#
# Total GULP energy -1189602.089670 kJ/mol
# GULP energy per Si atom -12391.688434 kJ/mol
# Density = 2.053070 g / cm^3
# Si number density = 20.577539 Si / 1000 Ang^3
#
#
#
# Elastic Constant Matrix: (Units=GPa)
#
#
# Indices 1 2 3 4 5 6 
#
# 1 70.6514 18.5320 22.6702 0.0000 0.0000 0.0000
# 2 18.5320 70.6514 22.6702 0.0000 0.0000 0.0000
# 3 22.6702 22.6702 134.2116 0.0000 0.0000 0.0000
# 4 0.0000 0.0000 0.0000 34.3015 0.0000 0.0000
# 5 0.0000 0.0000 0.0000 0.0000 34.3015 0.0000
# 6 0.0000 0.0000 0.0000 0.0000 0.0000 8.5943
#
#
#
# Elastic Compliance Matrix: (Units=1/GPa)
#
#
# Indices 1 2 3 4 5 6 
#
# 1 0.015726 -0.003460 -0.002072 0.000000 0.000000 0.000000
# 2 -0.003460 0.015726 -0.002072 0.000000 0.000000 0.000000
# 3 -0.002072 -0.002072 0.008151 0.000000 0.000000 0.000000
# 4 0.000000 0.000000 0.000000 0.029153 0.000000 0.000000
# 5 0.000000 0.000000 0.000000 0.000000 0.029153 0.000000
# 6 0.000000 0.000000 0.000000 0.000000 0.000000 0.116356
#
#
# Mechanical properties :
#
#
# Convention : Reuss Voigt Hill
#
# Bulk Modulus (GPa) = 40.99106 44.80658 42.89882
# Shear Modulus (GPa) = 21.04323 29.54895 25.29609
#
# Velocity S-wave (km/s) = 3.20133 3.79354 3.50995
# Velocity P-wave (km/s) = 5.79898 6.40389 6.10893
#
# Compressibility (1/GPa) = 0.02439557
#
# Stress axis : x y z
#
# Youngs Moduli (GPa) = 63.58714 63.58714 122.68614
#
# Poissons Ratio (x) = 0.22003 0.25420
# Poissons Ratio (y) = 0.22003 0.25420
# Poissons Ratio (z) = 0.13175 0.13175
#
# Static dielectric constant tensor:
#      x y z
#    x 3.577780 0.000000 0.000000 
#    y 0.000000 3.577780 0.000000 
#    z 0.000000 0.000000 3.981830 
# 
# 
# High freq. dielectric constant tensor:
#      x y z
#    x 1.786030 0.000000 0.000000 
#    y 0.000000 1.786030 0.000000 
#    z 0.000000 0.000000 1.816100 
# 
# From -- ./inp_files/14470.got.cif
#   From: 2010.03.12/outbox.cif.g09.slc.cpg/sg141_8_cif.got.tgz:14470.got - 2010.04.03 13:18:35.
