data_PCOD8320813
_publ_section_title
;
Structure prediction by ZEFSAII (Michael W. Deem and Ramdas Pophale) SiO2 
 PCOD8320813
Probable space group: I 41/A M D
;
_chemical_formula_sum "Si O2"
_cell_formula_units_Z 68
_cell_length_a 14.614469
_cell_length_b 14.614469
_cell_length_c 16.267454
_cell_angle_alpha 90.000000
_cell_angle_beta 90.000000
_cell_angle_gamma 90.000000
_cell_volume 3474.446815
_symmetry_space_group_name_H-M "I 41/A M D"
_symmetry_group_IT_number 141
_space_group.IT_coordinate_system_code '2'
_symmetry_cell_setting 'tetragonal'
loop_
_space_group_symop_operation_xyz
x,y,z
1/4-y,3/4+x,1/4+z
-x,1/2-y,z
1/4+y,1/4-x,3/4+z
x,-y,-z
-x,1/2+y,-z
1/4+y,3/4+x,1/4-z
1/4-y,1/4-x,3/4-z
-x,-y,-z
3/4+y,1/4-x,3/4-z
x,1/2+y,-z
3/4-y,3/4+x,1/4-z
-x,y,z
x,1/2-y,z
3/4-y,1/4-x,3/4+z
3/4+y,3/4+x,1/4+z
1/2+x,1/2+y,1/2+z
3/4-y,1/4+x,3/4+z
1/2-x,-y,1/2+z
3/4+y,3/4-x,1/4+z
1/2+x,1/2-y,1/2-z
1/2-x,y,1/2-z
3/4+y,1/4+x,3/4-z
3/4-y,3/4-x,1/4-z
1/2-x,1/2-y,1/2-z
1/4+y,3/4-x,1/4-z
1/2+x,y,1/2-z
1/4-y,1/4+x,3/4-z
1/2-x,1/2+y,1/2+z
1/2+x,-y,1/2+z
1/4-y,3/4-x,1/4+z
1/4+y,1/4+x,3/4+z
loop_
_atom_site_type_symbol
_atom_site_label
_atom_site_fract_x
_atom_site_fract_y
_atom_site_fract_z
Si Si1 0.250000 0.426192 0.250000
Si Si2 0.100583 0.750000 0.282919
Si Si3 0.605940 0.944024 0.170412
Si Si4 0.500000 0.750000 0.375000
O O1 0.280217 0.362168 0.324899
O O2 0.336984 0.486953 0.226109
O O3 0.149462 0.657212 0.313690
O O4 0.000000 0.750000 0.324728
O O5 0.090532 0.750000 0.182942
O O6 0.500000 0.948081 0.198813
#
# Coordination Sequence:
#
# PCOD8320813 Si02
#       4
#    16  16  32   4
#     4  10  23  37  60  92 118 162 201 240 315 340
#     4   8  18  35  59  84 116 158 197 238 305 350
#     4  10  21  40  59  88 123 159 202 254 291 366
#     4   8  16  32  52  92 108 142 204 236 304 352
#
# _framework density 19.571460999999999
#
# number of rings (size 3 to 8) (size 9 to 14) (size 15 to 20)
#    0.706    1.882    0.000    0.706    3.294    4.706 
#    0.000    0.000    0.000    2.824    0.000    0.000 
#    0.000    0.000    0.000    0.000    0.000    0.000 
#
# Total GULP energy -421360.612887 kJ/mol
# GULP energy per Si atom -12392.959203 kJ/mol
# Density = 1.952692 g / cm^3
# Si number density = 19.571461 Si / 1000 Ang^3
#
#
#
# Elastic Constant Matrix: (Units=GPa)
#
#
# Indices 1 2 3 4 5 6 
#
# 1 84.7559 30.0064 24.9548 0.0000 0.0000 0.0000
# 2 30.0064 84.7560 24.9548 0.0000 0.0000 0.0000
# 3 24.9548 24.9548 77.9087 0.0000 0.0000 0.0000
# 4 0.0000 0.0000 0.0000 6.6648 0.0000 0.0000
# 5 0.0000 0.0000 0.0000 0.0000 6.6648 0.0000
# 6 0.0000 0.0000 0.0000 0.0000 0.0000 20.7415
#
#
#
# Elastic Compliance Matrix: (Units=1/GPa)
#
#
# Indices 1 2 3 4 5 6 
#
# 1 0.014194 -0.004071 -0.003243 0.000000 0.000000 0.000000
# 2 -0.004071 0.014194 -0.003243 0.000000 0.000000 0.000000
# 3 -0.003243 -0.003243 0.014913 0.000000 0.000000 0.000000
# 4 0.000000 0.000000 0.000000 0.150041 0.000000 0.000000
# 5 0.000000 0.000000 0.000000 0.000000 0.150041 0.000000
# 6 0.000000 0.000000 0.000000 0.000000 0.000000 0.048213
#
#
# Mechanical properties :
#
#
# Convention : Reuss Voigt Hill
#
# Bulk Modulus (GPa) = 45.06603 45.25028 45.15816
# Shear Modulus (GPa) = 11.90178 17.98121 14.94149
#
# Velocity S-wave (km/s) = 2.46868 3.03437 2.76603
# Velocity P-wave (km/s) = 5.58590 5.95376 5.77276
#
# Compressibility (1/GPa) = 0.02218966
#
# Stress axis : x y z
#
# Youngs Moduli (GPa) = 70.45005 70.45006 67.05598
#
# Poissons Ratio (x) = 0.28677 0.21745
# Poissons Ratio (y) = 0.28677 0.21745
# Poissons Ratio (z) = 0.22845 0.22845
#
# Static dielectric constant tensor:
#      x y z
#    x 3.445770 0.000000 0.000000 
#    y 0.000000 3.445770 0.000000 
#    z 0.000000 0.000000 3.450270 
# 
# 
# High freq. dielectric constant tensor:
#      x y z
#    x 1.754820 0.000000 0.000000 
#    y 0.000000 1.754820 0.000000 
#    z 0.000000 0.000000 1.761430 
# 
# From -- ./inp_files/5688.got.cif
#   From: 2010.03.12/outbox.cif.g09.slc.cpg/sg141_3_cif.got.tgz:5688.got - 2010.04.03 13:18:35.
