data_PCOD8320406
_publ_section_title
;
Structure prediction by ZEFSAII (Michael W. Deem and Ramdas Pophale) SiO2 
 PCOD8320406
Probable space group: I 4/M C M
;
_chemical_formula_sum "Si O2"
_cell_formula_units_Z 176
_cell_length_a 24.554311
_cell_length_b 24.554311
_cell_length_c 14.114460
_cell_angle_alpha 90.000000
_cell_angle_beta 90.000000
_cell_angle_gamma 90.000000
_cell_volume 8509.808200
_symmetry_space_group_name_H-M "I 4/M C M"
_symmetry_group_IT_number 140
_symmetry_cell_setting 'tetragonal'
loop_
_space_group_symop_operation_xyz
x,y,z
-y,x,z
-x,-y,z
y,-x,z
x,-y,1/2-z
-x,y,1/2-z
y,x,1/2-z
-y,-x,1/2-z
-x,-y,-z
y,-x,-z
x,y,-z
-y,x,-z
-x,y,1/2+z
x,-y,1/2+z
-y,-x,1/2+z
y,x,1/2+z
1/2+x,1/2+y,1/2+z
1/2-y,1/2+x,1/2+z
1/2-x,1/2-y,1/2+z
1/2+y,1/2-x,1/2+z
1/2+x,1/2-y,-z
1/2-x,1/2+y,-z
1/2+y,1/2+x,-z
1/2-y,1/2-x,-z
1/2-x,1/2-y,1/2-z
1/2+y,1/2-x,1/2-z
1/2+x,1/2+y,1/2-z
1/2-y,1/2+x,1/2-z
1/2-x,1/2+y,z
1/2+x,1/2-y,z
1/2-y,1/2-x,z
1/2+y,1/2+x,z
loop_
_atom_site_type_symbol
_atom_site_label
_atom_site_fract_x
_atom_site_fract_y
_atom_site_fract_z
Si Si1 0.982597 0.088059 0.000000
Si Si2 0.529191 0.883724 0.387277
Si Si3 0.590436 0.090436 0.612843
Si Si4 0.265377 0.933017 0.893211
Si Si5 0.221026 0.133180 0.776120
Si Si6 0.022800 0.179032 0.650472
Si Si7 0.179548 0.320453 0.613371
O O1 0.974468 0.124377 0.908444
O O2 0.042569 0.063449 0.000000
O O3 0.527098 0.888056 0.500000
O O4 0.571595 0.928406 0.346366
O O5 0.468801 0.893799 0.345125
O O6 0.547555 0.823911 0.355615
O O7 0.587876 0.087876 0.500000
O O8 0.634838 0.134838 0.644539
O O9 0.246416 0.885330 0.823868
O O10 0.224845 0.984334 0.894997
O O11 0.269045 0.909362 0.000000
O O12 0.169589 0.169589 0.750000
O O13 0.203336 0.082693 0.840474
O O14 0.262705 0.165433 0.841514
O O15 0.000000 0.159708 0.750000
O O16 0.184271 0.315730 0.500000
#
# Coordination Sequence:
#
# PCOD8320406 Si02
#       7
#    16  32  16  32  32  32  16
#     4  11  26  42  68 103 139 173 216 280 346 418
#     4   9  17  30  56  93 128 163 207 257 318 384
#     4   9  17  33  60  88 125 165 213 255 316 388
#     4  10  21  40  64  96 129 173 219 271 332 398
#     4  11  26  43  66  95 127 173 226 281 338 404
#     4  10  23  41  68  96 133 176 225 273 335 411
#     4  11  25  44  66  95 128 173 225 288 341 398
#
# _framework density 20.682016999999998
#
# number of rings (size 3 to 8) (size 9 to 14) (size 15 to 20)
#    0.000    1.909    0.909    1.636    7.636    3.273 
#    0.000    0.909    0.000    0.000    2.364    0.000 
#    0.000    0.000    0.000    0.000    0.000    0.000 
#
# Total GULP energy -1091519.437633 kJ/mol
# GULP energy per Si atom -12403.629973 kJ/mol
# Density = 2.063494 g / cm^3
# Si number density = 20.682017 Si / 1000 Ang^3
#
#
#
# Elastic Constant Matrix: (Units=GPa)
#
#
# Indices 1 2 3 4 5 6 
#
# 1 71.6967 9.0491 34.8076 0.0000 0.0000 0.0000
# 2 9.0491 71.6968 34.8077 0.0000 0.0000 0.0000
# 3 34.8076 34.8077 85.6745 0.0000 0.0000 0.0000
# 4 0.0000 0.0000 0.0000 5.6486 0.0000 0.0000
# 5 0.0000 0.0000 0.0000 0.0000 5.6488 0.0000
# 6 0.0000 0.0000 0.0000 0.0000 0.0000 27.8512
#
#
#
# Elastic Compliance Matrix: (Units=1/GPa)
#
#
# Indices 1 2 3 4 5 6 
#
# 1 0.017512 0.001549 -0.007744 0.000000 0.000000 0.000000
# 2 0.001549 0.017512 -0.007744 0.000000 0.000000 0.000000
# 3 -0.007744 -0.007744 0.017965 0.000000 0.000000 0.000000
# 4 0.000000 0.000000 0.000000 0.177034 0.000000 0.000000
# 5 0.000000 0.000000 0.000000 0.000000 0.177028 0.000000
# 6 0.000000 0.000000 0.000000 0.000000 0.000000 0.035905
#
#
# Mechanical properties :
#
#
# Convention : Reuss Voigt Hill
#
# Bulk Modulus (GPa) = 39.82410 42.93299 41.37855
# Shear Modulus (GPa) = 10.43400 17.85664 14.14532
#
# Velocity S-wave (km/s) = 2.24854 2.94154 2.61807
# Velocity P-wave (km/s) = 5.10279 5.68687 5.40273
#
# Compressibility (1/GPa) = 0.02511042
#
# Stress axis : x y z
#
# Youngs Moduli (GPa) = 57.10457 57.10461 55.66490
#
# Poissons Ratio (x) = -0.08848 0.43108
# Poissons Ratio (y) = -0.08848 0.43108
# Poissons Ratio (z) = 0.44223 0.44223
#
# Static dielectric constant tensor:
#      x y z
#    x 3.833360 0.000000 0.000000 
#    y 0.000000 3.833350 0.000000 
#    z 0.000000 0.000000 3.276320 
# 
# 
# High freq. dielectric constant tensor:
#      x y z
#    x 1.814470 0.000000 0.000000 
#    y 0.000000 1.814470 0.000000 
#    z 0.000000 0.000000 1.816280 
# 
# From -- ./inp_files/4994.got.cif
#   From: 2010.06.25/outbox.cif.g09.slc.cpg/sg140_3_cif.got.tgz:4994.got - 2010.06.28 10:53:23.
