data_PCOD8320154
_publ_section_title
;
Structure prediction by ZEFSAII (Michael W. Deem and Ramdas Pophale) SiO2 
 PCOD8320154
Probable space group: I 4/M C M
;
_chemical_formula_sum "Si O2"
_cell_formula_units_Z 176
_cell_length_a 17.091157
_cell_length_b 17.091157
_cell_length_c 29.069400
_cell_angle_alpha 90.000000
_cell_angle_beta 90.000000
_cell_angle_gamma 90.000000
_cell_volume 8491.394051
_symmetry_space_group_name_H-M "I 4/M C M"
_symmetry_group_IT_number 140
_symmetry_cell_setting 'tetragonal'
loop_
_space_group_symop_operation_xyz
x,y,z
-y,x,z
-x,-y,z
y,-x,z
x,-y,1/2-z
-x,y,1/2-z
y,x,1/2-z
-y,-x,1/2-z
-x,-y,-z
y,-x,-z
x,y,-z
-y,x,-z
-x,y,1/2+z
x,-y,1/2+z
-y,-x,1/2+z
y,x,1/2+z
1/2+x,1/2+y,1/2+z
1/2-y,1/2+x,1/2+z
1/2-x,1/2-y,1/2+z
1/2+y,1/2-x,1/2+z
1/2+x,1/2-y,-z
1/2-x,1/2+y,-z
1/2+y,1/2+x,-z
1/2-y,1/2-x,-z
1/2-x,1/2-y,1/2-z
1/2+y,1/2-x,1/2-z
1/2+x,1/2+y,1/2-z
1/2-y,1/2+x,1/2-z
1/2-x,1/2+y,z
1/2+x,1/2-y,z
1/2-y,1/2-x,z
1/2+y,1/2+x,z
loop_
_atom_site_type_symbol
_atom_site_label
_atom_site_fract_x
_atom_site_fract_y
_atom_site_fract_z
Si Si1 0.114097 0.949389 0.147636
Si Si2 0.312404 0.933878 0.069657
Si Si3 0.392223 0.355982 0.447872
Si Si4 0.873591 0.500000 0.750000
Si Si5 0.105691 0.724620 0.051816
Si Si6 0.590676 0.784746 0.326927
O O1 0.121095 0.954871 0.091421
O O2 0.189700 0.910163 0.172424
O O3 0.039275 0.897918 0.163248
O O4 0.389123 0.889123 0.051445
O O5 0.237852 0.886330 0.050739
O O6 0.314151 0.939973 0.124396
O O7 0.313568 0.020899 0.050590
O O8 0.413539 0.386502 0.500000
O O9 0.311382 0.391496 0.427100
O O10 0.928470 0.428470 0.767285
O O11 0.817240 0.471729 0.709329
O O12 0.165976 0.665976 0.077539
O O13 0.134622 0.736753 0.000000
O O14 0.677924 0.822077 0.317792
#
# Coordination Sequence:
#
# PCOD8320154 Si02
#       6
#    32  32  32  16  32  32
#     4  10  21  37  56  80 113 151 188 227 276 331
#     4  10  20  33  51  75 104 140 178 217 268 329
#     4  10  19  33  52  74 103 141 190 239 275 311
#     4   9  18  36  64  93 118 144 178 227 280 324
#     4  10  21  34  48  71 104 141 182 228 274 319
#     4   9  19  37  59  84 113 142 178 226 278 332
#
# _framework density 20.726866999999999
#
# number of rings (size 3 to 8) (size 9 to 14) (size 15 to 20)
#    0.000    2.273    0.000    3.273    0.000    6.182 
#    0.000    5.455    0.000    3.273    0.000    0.000 
#    0.000    0.000    0.000    0.000    0.000    0.000 
#
# Total GULP energy -1090366.477169 kJ/mol
# GULP energy per Si atom -12390.528150 kJ/mol
# Density = 2.067969 g / cm^3
# Si number density = 20.726867 Si / 1000 Ang^3
#
#
#
# Elastic Constant Matrix: (Units=GPa)
#
#
# Indices 1 2 3 4 5 6 
#
# 1 107.0105 82.4776 27.1504 0.0000 0.0000 0.0000
# 2 82.4776 107.0105 27.1504 0.0000 0.0000 0.0000
# 3 27.1504 27.1504 56.4575 0.0000 0.0000 0.0000
# 4 0.0000 0.0000 0.0000 24.4315 0.0000 0.0000
# 5 0.0000 0.0000 0.0000 0.0000 24.4315 0.0000
# 6 0.0000 0.0000 0.0000 0.0000 0.0000 31.4258
#
#
#
# Elastic Compliance Matrix: (Units=1/GPa)
#
#
# Indices 1 2 3 4 5 6 
#
# 1 0.023441 -0.017320 -0.002944 0.000000 0.000000 0.000000
# 2 -0.017320 0.023441 -0.002944 0.000000 0.000000 0.000000
# 3 -0.002944 -0.002944 0.020544 0.000000 0.000000 0.000000
# 4 0.000000 0.000000 0.000000 0.040931 0.000000 0.000000
# 5 0.000000 0.000000 0.000000 0.000000 0.040931 0.000000
# 6 0.000000 0.000000 0.000000 0.000000 0.000000 0.031821
#
#
# Mechanical properties :
#
#
# Convention : Reuss Voigt Hill
#
# Bulk Modulus (GPa) = 47.59374 60.44837 54.02105
# Shear Modulus (GPa) = 21.31951 24.97110 23.14531
#
# Velocity S-wave (km/s) = 3.21065 3.47474 3.34530
# Velocity P-wave (km/s) = 6.06272 6.73246 6.40635
#
# Compressibility (1/GPa) = 0.02101117
#
# Stress axis : x y z
#
# Youngs Moduli (GPa) = 42.65995 42.65995 48.67717
#
# Poissons Ratio (x) = 0.73888 0.14328
# Poissons Ratio (y) = 0.73888 0.14328
# Poissons Ratio (z) = 0.12557 0.12557
#
# Static dielectric constant tensor:
#      x y z
#    x 3.877170 0.000000 0.000000 
#    y 0.000000 3.877170 0.000000 
#    z 0.000000 0.000000 3.488810 
# 
# 
# High freq. dielectric constant tensor:
#      x y z
#    x 1.812460 0.000000 0.000000 
#    y 0.000000 1.812460 0.000000 
#    z 0.000000 0.000000 1.775380 
# 
# From -- ./inp_files/10721.got.cif
#   From: 2010.06.25/outbox.cif.g09.slc.cpg/sg140_6_cif.got.tgz:10721.got - 2010.06.28 10:53:23.
