data_PCOD8320102
_publ_section_title
;
Structure prediction by ZEFSAII (Michael W. Deem and Ramdas Pophale) SiO2 
 PCOD8320102
Probable space group: I 4/M C M
;
_chemical_formula_sum "Si O2"
_cell_formula_units_Z 208
_cell_length_a 21.319213
_cell_length_b 21.319213
_cell_length_c 30.255657
_cell_angle_alpha 90.000000
_cell_angle_beta 90.000000
_cell_angle_gamma 90.000000
_cell_volume 13751.463655
_symmetry_space_group_name_H-M "I 4/M C M"
_symmetry_group_IT_number 140
_symmetry_cell_setting 'tetragonal'
loop_
_space_group_symop_operation_xyz
x,y,z
-y,x,z
-x,-y,z
y,-x,z
x,-y,1/2-z
-x,y,1/2-z
y,x,1/2-z
-y,-x,1/2-z
-x,-y,-z
y,-x,-z
x,y,-z
-y,x,-z
-x,y,1/2+z
x,-y,1/2+z
-y,-x,1/2+z
y,x,1/2+z
1/2+x,1/2+y,1/2+z
1/2-y,1/2+x,1/2+z
1/2-x,1/2-y,1/2+z
1/2+y,1/2-x,1/2+z
1/2+x,1/2-y,-z
1/2-x,1/2+y,-z
1/2+y,1/2+x,-z
1/2-y,1/2-x,-z
1/2-x,1/2-y,1/2-z
1/2+y,1/2-x,1/2-z
1/2+x,1/2+y,1/2-z
1/2-y,1/2+x,1/2-z
1/2-x,1/2+y,z
1/2+x,1/2-y,z
1/2-y,1/2-x,z
1/2+y,1/2+x,z
loop_
_atom_site_type_symbol
_atom_site_label
_atom_site_fract_x
_atom_site_fract_y
_atom_site_fract_z
Si Si1 0.303556 0.298984 0.627420
Si Si2 0.284605 0.887751 0.824023
Si Si3 0.052735 0.552735 0.448447
Si Si4 0.681576 0.974427 0.598637
Si Si5 0.762673 0.364990 0.549666
Si Si6 0.828404 0.431103 0.764270
Si Si7 0.293020 0.101512 0.139493
O O1 0.246342 0.253659 0.639456
O O2 0.362880 0.283703 0.659669
O O3 0.327268 0.289485 0.577245
O O4 0.276435 0.368812 0.633517
O O5 0.331308 0.831308 0.833588
O O6 0.312631 0.945360 0.852256
O O7 0.279809 0.904818 0.772442
O O8 0.068819 0.568819 0.500000
O O9 0.027188 0.612693 0.422213
O O10 0.000000 0.500000 0.446370
O O11 0.728667 0.935999 0.566779
O O12 0.700880 0.047162 0.602795
O O13 0.737822 0.366048 0.500000
O O14 0.830152 0.330152 0.554298
O O15 0.848635 0.500000 0.750000
O O16 0.892150 0.392150 0.764023
O O17 0.795085 0.427576 0.811456
O O18 0.348568 0.151433 0.131796
#
# Coordination Sequence:
#
# PCOD8320102 Si02
#       7
#    32  32  16  32  32  32  32
#     4   8  16  30  46  66  87 115 153 193 241 286
#     4   9  16  29  48  65  84 117 162 198 225 260
#     4  11  22  32  42  62  90 123 168 204 228 270
#     4  11  17  29  46  63  89 122 155 193 229 270
#     4   9  16  29  50  68  82 109 156 203 230 266
#     4  10  19  30  43  64  94 129 166 197 221 260
#     4  10  20  31  43  64  97 127 152 189 242 283
#
# _framework density 15.125662999999999
#
# number of rings (size 3 to 8) (size 9 to 14) (size 15 to 20)
#    0.000    2.385    3.077    1.846    0.000    0.769 
#    0.000    4.615    0.000    3.692    0.000    0.000 
#    0.000    9.846    0.000   11.077    0.000    0.000 
#
# Total GULP energy -1288895.220672 kJ/mol
# GULP energy per Si atom -12393.223276 kJ/mol
# Density = 1.509124 g / cm^3
# Si number density = 15.125663 Si / 1000 Ang^3
#
#
#
# Elastic Constant Matrix: (Units=GPa)
#
#
# Indices 1 2 3 4 5 6 
#
# 1 67.5430 48.9096 42.7724 0.0000 0.0000 0.0000
# 2 48.9096 67.5430 42.7724 0.0000 0.0000 0.0000
# 3 42.7724 42.7724 89.2181 0.0000 0.0000 0.0000
# 4 0.0000 0.0000 0.0000 14.4139 0.0000 0.0000
# 5 0.0000 0.0000 0.0000 0.0000 14.4139 0.0000
# 6 0.0000 0.0000 0.0000 0.0000 0.0000 16.1644
#
#
#
# Elastic Compliance Matrix: (Units=1/GPa)
#
#
# Indices 1 2 3 4 5 6 
#
# 1 0.033461 -0.020206 -0.006355 0.000000 0.000000 0.000000
# 2 -0.020206 0.033461 -0.006355 0.000000 0.000000 0.000000
# 3 -0.006355 -0.006355 0.017302 0.000000 0.000000 0.000000
# 4 0.000000 0.000000 0.000000 0.069378 0.000000 0.000000
# 5 0.000000 0.000000 0.000000 0.000000 0.069378 0.000000
# 6 0.000000 0.000000 0.000000 0.000000 0.000000 0.061865
#
#
# Mechanical properties :
#
#
# Convention : Reuss Voigt Hill
#
# Bulk Modulus (GPa) = 54.36807 54.80144 54.58475
# Shear Modulus (GPa) = 14.01321 14.98839 14.50080
#
# Velocity S-wave (km/s) = 3.04707 3.15131 3.09963
# Velocity P-wave (km/s) = 6.95714 7.03921 6.99829
#
# Compressibility (1/GPa) = 0.01839315
#
# Stress axis : x y z
#
# Youngs Moduli (GPa) = 29.88530 29.88530 57.79797
#
# Poissons Ratio (x) = 0.60386 0.36729
# Poissons Ratio (y) = 0.60386 0.36729
# Poissons Ratio (z) = 0.18992 0.18992
#
# Static dielectric constant tensor:
#      x y z
#    x 2.787220 0.000000 0.000000 
#    y 0.000000 2.787220 0.000000 
#    z 0.000000 0.000000 3.067940 
# 
# 
# High freq. dielectric constant tensor:
#      x y z
#    x 1.551890 0.000000 0.000000 
#    y 0.000000 1.551890 0.000000 
#    z 0.000000 0.000000 1.590710 
# 
# From -- ./inp_files/11764.got.cif
#   From: 2010.06.25/outbox.cif.g09.slc.cpg/sg140_6_cif.got.tgz:11764.got - 2010.06.28 10:53:23.
